
     RDKit          3D

 34 34  0  0  0  0  0  0  0  0999 V2000
   -3.5250   -2.0640   -2.9190 C   0  0  0  0  0  0  0  0  0  0  0  0
   -3.5630   -0.7560   -2.9300 C   0  0  0  0  0  0  0  0  0  0  0  0
   -2.8730    0.1300   -3.8850 C   0  0  0  0  0  0  0  0  0  0  0  0
   -1.9620    1.0210   -3.2340 N   0  0  0  0  0  0  0  0  0  0  0  0
   -2.4400    2.3740   -2.9080 C   0  0  0  0  0  0  0  0  0  0  0  0
   -2.8290    2.4840   -1.4890 C   0  0  0  0  0  0  0  0  0  0  0  0
   -3.3390    3.5970   -1.1260 O   0  0  0  0  0  0  0  0  0  0  0  0
   -2.6400    1.4180   -0.5950 N   0  0  0  0  0  0  0  0  0  0  0  0
   -2.9950    1.4490    0.7540 C   0  0  0  0  0  0  0  0  0  0  0  0
   -3.5480    2.5260    1.3650 C   0  0  0  0  0  0  0  0  0  0  0  0
   -3.8640    2.4670    2.7240 C   0  0  0  0  0  0  0  0  0  0  0  0
   -3.6100    1.3180    3.4220 C   0  0  0  0  0  0  0  0  0  0  0  0
   -3.9470    1.3070    4.7950 O   0  0  0  0  0  0  0  0  0  0  0  0
   -3.0580    0.2260    2.8360 C   0  0  0  0  0  0  0  0  0  0  0  0
   -2.7530    0.3050    1.4940 C   0  0  0  0  0  0  0  0  0  0  0  0
   -2.1800   -0.8310    0.8980 O   0  0  0  0  0  0  0  0  0  0  0  0
   -0.6230    0.7510   -2.9620 C   0  0  0  0  0  0  0  0  0  0  0  0
    0.0290    1.7000   -2.3670 O   0  0  0  0  0  0  0  0  0  0  0  0
    0.0690   -0.4910   -3.2900 C   0  0  2  0  0  0  0  0  0  0  0  0
   -0.6270   -1.3610   -4.1290 O   0  0  0  0  0  0  0  0  0  0  0  0
    0.5520   -1.2330   -2.0680 C   0  0  0  0  0  0  0  0  0  0  0  0
    1.5250   -0.3900   -1.2940 C   0  0  0  0  0  0  0  0  0  0  0  0
    2.0700   -1.1310   -0.1170 C   0  0  0  0  0  0  0  0  0  0  0  0
    1.5650   -2.2950    0.0780 O   0  0  0  0  0  0  0  0  0  0  0  0
    3.0740   -0.5800    0.7220 N   0  0  0  0  0  0  0  0  0  0  0  0
    3.5810    0.7080    0.4490 C   0  0  0  0  0  0  0  0  0  0  0  0
    2.8640    1.8510    1.1380 C   0  0  0  0  0  0  0  0  0  0  0  0
    3.5180    3.0410    0.7390 O   0  0  0  0  0  0  0  0  0  0  0  0
    3.4680   -1.4470    1.8080 C   0  0  2  0  0  0  0  0  0  0  0  0
    4.0040   -2.7280    1.1990 C   0  0  0  0  0  0  0  0  0  0  0  0
    2.1710   -1.7460    2.5810 C   0  0  0  0  0  0  0  0  0  0  0  0
    4.4440   -0.9670    2.7540 C   0  0  0  0  0  0  0  0  0  0  0  0
    4.7550   -1.8460    3.8430 N   0  0  0  0  0  0  0  0  0  0  0  0
    5.0750    0.1110    2.7820 O   0  0  0  0  0  0  0  0  0  0  0  0
  1  2  2  0
  2  3  1  0
  3  4  1  0
  4  5  1  0
  4 17  1  0
  5  6  1  0
  6  7  2  0
  6  8  1  0
  8  9  1  0
  9 10  2  0
  9 15  1  0
 10 11  1  0
 11 12  2  0
 12 13  1  0
 12 14  1  0
 14 15  2  0
 15 16  1  0
 17 18  2  0
 17 19  1  0
 19 20  1  1
 19 21  1  0
 21 22  1  0
 22 23  1  0
 23 24  2  0
 23 25  1  0
 25 26  1  0
 25 29  1  0
 26 27  1  0
 27 28  1  0
 29 30  1  6
 29 31  1  0
 29 32  1  0
 32 33  1  0
 32 34  2  0
M  END
