
     RDKit          3D

 35 39  0  0  0  0  0  0  0  0999 V2000
    5.7800    4.3220   -0.6700 C   0  0  0  0  0  0  0  0  0  0  0  0
    6.3330    3.1780   -1.3370 N   0  0  0  0  0  0  0  0  0  0  0  0
    7.4410    3.1330   -2.0970 C   0  0  0  0  0  0  0  0  0  0  0  0
    7.6350    1.8690   -2.5530 N   0  0  0  0  0  0  0  0  0  0  0  0
    6.6400    1.1090   -2.0770 C   0  0  0  0  0  0  0  0  0  0  0  0
    6.3410   -0.2340   -2.2220 C   0  0  0  0  0  0  0  0  0  0  0  0
    5.2250   -0.7770   -1.6090 C   0  0  0  0  0  0  0  0  0  0  0  0
    4.3960    0.0380   -0.8390 C   0  0  0  0  0  0  0  0  0  0  0  0
    3.2110   -0.5390   -0.1950 C   0  0  0  0  0  0  0  0  0  0  0  0
    2.8780   -1.7380   -0.4710 O   0  0  0  0  0  0  0  0  0  0  0  0
    2.3980    0.1610    0.7290 N   0  0  0  0  0  0  0  0  0  0  0  0
    1.2520   -0.4820    1.3130 C   0  0  0  0  0  0  0  0  0  0  0  0
    0.5090    0.3860    2.2740 C   0  0  0  0  0  0  0  0  0  0  0  0
   -0.6820   -0.3720    2.8290 C   0  0  0  0  0  0  0  0  0  0  0  0
   -1.6530   -0.7560    1.8020 C   0  0  0  0  0  0  0  0  0  0  0  0
   -1.5370   -0.2790    0.6390 O   0  0  0  0  0  0  0  0  0  0  0  0
   -2.7230   -1.6430    2.0570 N   0  0  0  0  0  0  0  0  0  0  0  0
   -2.8550   -2.2010    3.3860 C   0  0  0  0  0  0  0  0  0  0  0  0
   -3.3290   -3.6280    3.1840 C   0  0  0  0  0  0  0  0  0  0  0  0
   -2.9130   -4.2210    1.8740 C   0  0  0  0  0  0  0  0  0  0  0  0
   -3.3510   -3.4500    0.6630 C   0  0  0  0  0  0  0  0  0  0  0  0
   -3.7130   -2.0570    1.1020 C   0  0  2  0  0  0  0  0  0  0  0  0
   -3.9880   -1.1130    0.0190 C   0  0  0  0  0  0  0  0  0  0  0  0
   -4.1470    0.1910    0.3200 N   0  0  0  0  0  0  0  0  0  0  0  0
   -4.4080    1.1200   -0.6250 C   0  0  0  0  0  0  0  0  0  0  0  0
   -4.5720    2.4530   -0.3490 C   0  0  0  0  0  0  0  0  0  0  0  0
   -4.8350    3.3410   -1.3780 C   0  0  0  0  0  0  0  0  0  0  0  0
   -4.9390    2.9240   -2.6870 C   0  0  0  0  0  0  0  0  0  0  0  0
   -4.7720    1.5670   -2.9790 C   0  0  0  0  0  0  0  0  0  0  0  0
   -4.5100    0.6970   -1.9350 C   0  0  0  0  0  0  0  0  0  0  0  0
   -4.3380   -0.6640   -2.2090 C   0  0  0  0  0  0  0  0  0  0  0  0
   -4.4250   -1.0850   -3.4000 O   0  0  0  0  0  0  0  0  0  0  0  0
   -4.0810   -1.5600   -1.2520 N   0  0  0  0  0  0  0  0  0  0  0  0
    4.7110    1.3690   -0.7080 C   0  0  0  0  0  0  0  0  0  0  0  0
    5.8350    1.9310   -1.3210 C   0  0  0  0  0  0  0  0  0  0  0  0
  1  2  1  0
  2  3  1  0
  2 35  1  0
  3  4  2  0
  4  5  1  0
  5  6  2  0
  5 35  1  0
  6  7  1  0
  7  8  2  0
  8  9  1  0
  8 34  1  0
  9 10  2  0
  9 11  1  0
 11 12  1  0
 12 13  1  0
 13 14  1  0
 14 15  1  0
 15 16  2  0
 15 17  1  0
 17 18  1  0
 17 22  1  0
 18 19  1  0
 19 20  1  0
 20 21  1  0
 21 22  1  0
 22 23  1  6
 23 24  2  0
 23 33  1  0
 24 25  1  0
 25 26  2  0
 25 30  1  0
 26 27  1  0
 27 28  2  0
 28 29  1  0
 29 30  2  0
 30 31  1  0
 31 32  2  0
 31 33  1  0
 34 35  2  0
M  CHG  1   4   1
M  END
