
     RDKit          3D

 35 39  0  0  0  0  0  0  0  0999 V2000
    6.9980   -2.7430    3.3380 C   0  0  0  0  0  0  0  0  0  0  0  0
    7.0920   -2.2730    2.0160 O   0  0  0  0  0  0  0  0  0  0  0  0
    6.1220   -1.4530    1.4510 C   0  0  0  0  0  0  0  0  0  0  0  0
    5.0020   -1.0320    2.1120 C   0  0  0  0  0  0  0  0  0  0  0  0
    4.0470   -0.2030    1.5050 C   0  0  0  0  0  0  0  0  0  0  0  0
    4.2030    0.2210    0.2140 C   0  0  0  0  0  0  0  0  0  0  0  0
    3.2800    1.0790   -0.5200 C   0  0  0  0  0  0  0  0  0  0  0  0
    2.1110    1.5320    0.1300 N   0  0  0  0  0  0  0  0  0  0  0  0
    0.8880    0.8830   -0.2640 C   0  0  1  0  0  0  0  0  0  0  0  0
    0.5100    1.0230   -1.7030 C   0  0  0  0  0  0  0  0  0  0  0  0
    1.1690   -0.6320   -0.0750 C   0  0  0  0  0  0  0  0  0  0  0  0
   -0.2770    1.2170    0.5900 C   0  0  0  0  0  0  0  0  0  0  0  0
   -0.6940    2.5400    0.7320 N   0  0  0  0  0  0  0  0  0  0  0  0
   -1.2650    3.2650   -0.3310 C   0  0  0  0  0  0  0  0  0  0  0  0
   -2.6360    2.8560   -0.7400 C   0  0  0  0  0  0  0  0  0  0  0  0
   -3.2100    1.8150    0.0850 N   0  0  0  0  0  0  0  0  0  0  0  0
   -4.1620    0.9220   -0.5260 C   0  0  0  0  0  0  0  0  0  0  0  0
   -4.5420    1.1150   -1.8120 N   0  0  0  0  0  0  0  0  0  0  0  0
   -5.4090    0.3430   -2.4580 C   0  0  0  0  0  0  0  0  0  0  0  0
   -5.9590   -0.7370   -1.7570 C   0  0  0  0  0  0  0  0  0  0  0  0
   -6.8610   -1.5780   -2.3670 C   0  0  0  0  0  0  0  0  0  0  0  0
   -7.3740   -2.6260   -1.6420 C   0  0  0  0  0  0  0  0  0  0  0  0
   -7.0180   -2.8670   -0.3260 C   0  0  0  0  0  0  0  0  0  0  0  0
   -7.5810   -3.9880    0.3930 C   0  0  0  0  0  0  0  0  0  0  0  0
   -8.0170   -4.8810    0.9770 N   0  0  0  0  0  0  0  0  0  0  0  0
   -6.1190   -2.0200    0.2680 C   0  0  0  0  0  0  0  0  0  0  0  0
   -5.5860   -0.9500   -0.4490 C   0  0  0  0  0  0  0  0  0  0  0  0
   -4.6900   -0.1140    0.1470 N   0  0  0  0  0  0  0  0  0  0  0  0
   -2.8620    1.6600    1.4630 C   0  0  0  0  0  0  0  0  0  0  0  0
   -1.6910    2.5500    1.8270 C   0  0  0  0  0  0  0  0  0  0  0  0
    5.3440   -0.2070   -0.4590 C   0  0  0  0  0  0  0  0  0  0  0  0
    6.2700   -1.0200    0.1500 C   0  0  0  0  0  0  0  0  0  0  0  0
    7.2910   -1.2710   -0.7820 O   0  0  0  0  0  0  0  0  0  0  0  0
    6.7640   -0.9240   -2.0400 C   0  0  0  0  0  0  0  0  0  0  0  0
    5.7790    0.0450   -1.7470 O   0  0  0  0  0  0  0  0  0  0  0  0
  1  2  1  0
  2  3  1  0
  3  4  2  0
  3 32  1  0
  4  5  1  0
  5  6  2  0
  6  7  1  0
  6 31  1  0
  7  8  1  0
  8  9  1  0
  9 10  1  6
  9 11  1  0
  9 12  1  0
 12 13  1  0
 13 14  1  0
 13 30  1  0
 14 15  1  0
 15 16  1  0
 16 17  1  0
 16 29  1  0
 17 18  2  0
 17 28  1  0
 18 19  1  0
 19 20  2  0
 20 21  1  0
 20 27  1  0
 21 22  2  0
 22 23  1  0
 23 24  1  0
 23 26  2  0
 24 25  3  0
 26 27  1  0
 27 28  2  0
 29 30  1  0
 31 32  2  0
 31 35  1  0
 32 33  1  0
 33 34  1  0
 34 35  1  0
M  CHG  1   8   1
M  END
