
     RDKit          3D

 34 35  0  0  0  0  0  0  0  0999 V2000
    4.2400   -3.6430   -0.7970 C   0  0  0  0  0  0  0  0  0  0  0  0
    4.7280   -2.3730   -0.6330 C   0  0  0  0  0  0  0  0  0  0  0  0
    4.2640   -1.3550   -1.5030 C   0  0  0  0  0  0  0  0  0  0  0  0
    4.5680   -0.0770   -1.5580 C   0  0  0  0  0  0  0  0  0  0  0  0
    5.4830    0.6870   -0.7330 C   0  0  0  0  0  0  0  0  0  0  0  0
    6.2040    0.3240    0.2360 O   0  0  0  0  0  0  0  0  0  0  0  0
    5.4330    2.0010   -1.2300 O   0  0  0  0  0  0  0  0  0  0  0  0
    4.5570    2.0640   -2.2830 C   0  0  0  0  0  0  0  0  0  0  0  0
    4.3060    3.3140   -2.9970 N   0  0  0  0  0  0  0  0  0  0  0  0
    4.0140    0.9000   -2.5350 C   0  0  0  0  0  0  0  0  0  0  0  0
    3.0210    0.6040   -3.5950 C   0  0  0  0  0  0  0  0  0  0  0  0
    1.8390    0.1230   -3.1580 O   0  0  0  0  0  0  0  0  0  0  0  0
    1.0990    0.9360   -2.2900 C   0  0  0  0  0  0  0  0  0  0  0  0
    0.7000    2.2240   -2.8720 C   0  0  1  0  0  0  0  0  0  0  0  0
   -0.1770    2.1500   -3.9610 O   0  0  0  0  0  0  0  0  0  0  0  0
    0.2500    3.2610   -1.9260 C   0  0  0  0  0  0  0  0  0  0  0  0
   -1.0310    3.1770   -1.3620 N   0  0  0  0  0  0  0  0  0  0  0  0
   -1.5020    2.2000   -0.4740 C   0  0  0  0  0  0  0  0  0  0  0  0
   -0.8020    1.2740   -0.0640 O   0  0  0  0  0  0  0  0  0  0  0  0
   -2.9190    2.3090   -0.0200 C   0  0  0  0  0  0  0  0  0  0  0  0
   -3.2320    1.0870    0.8070 C   0  0  0  0  0  0  0  0  0  0  0  0
   -2.3590    0.2070    0.9120 O   0  0  0  0  0  0  0  0  0  0  0  0
   -4.5060    1.0140    1.4150 N   0  0  0  0  0  0  0  0  0  0  0  0
   -4.9190   -0.0660    2.1910 C   0  0  0  0  0  0  0  0  0  0  0  0
   -6.0350    0.1170    3.0160 C   0  0  0  0  0  0  0  0  0  0  0  0
   -6.5310   -0.8750    3.7960 C   0  0  0  0  0  0  0  0  0  0  0  0
   -7.6460   -0.6560    4.6080 O   0  0  0  0  0  0  0  0  0  0  0  0
   -5.9040   -2.1180    3.7690 C   0  0  0  0  0  0  0  0  0  0  0  0
   -4.8100   -2.3520    2.9790 C   0  0  0  0  0  0  0  0  0  0  0  0
   -4.2040   -3.5930    2.9650 O   0  0  0  0  0  0  0  0  0  0  0  0
   -4.7010   -4.6500    3.7610 C   0  0  0  0  0  0  0  0  0  0  0  0
   -4.3330   -1.3050    2.1940 C   0  0  0  0  0  0  0  0  0  0  0  0
    5.6580   -2.2620    0.4200 N   0  0  0  0  0  0  0  0  0  0  0  0
    5.1410   -2.1990    1.7910 C   0  0  0  0  0  0  0  0  0  0  0  0
  1  2  2  0
  2  3  1  0
  2 33  1  0
  3  4  2  3
  4  5  1  0
  4 10  1  0
  5  6  2  0
  5  7  1  0
  7  8  1  0
  8  9  1  0
  8 10  2  0
 10 11  1  0
 11 12  1  0
 12 13  1  0
 13 14  1  0
 14 15  1  6
 14 16  1  0
 16 17  1  0
 17 18  1  0
 18 19  2  0
 18 20  1  0
 20 21  1  0
 21 22  2  0
 21 23  1  0
 23 24  1  0
 24 25  2  0
 24 32  1  0
 25 26  1  0
 26 27  1  0
 26 28  2  0
 28 29  1  0
 29 30  1  0
 29 32  2  0
 30 31  1  0
 33 34  1  0
M  END
