
     RDKit          3D

 33 34  0  0  0  0  0  0  0  0999 V2000
   -9.2500   -1.4160    0.5810 N   0  0  0  0  0  0  0  0  0  0  0  0
   -8.1760   -0.5410    0.1810 C   0  0  0  0  0  0  0  0  0  0  0  0
   -7.7030   -0.9560   -1.2170 C   0  0  2  0  0  0  0  0  0  0  0  0
   -7.2770   -2.2550   -1.1030 O   0  0  0  0  0  0  0  0  0  0  0  0
   -6.6440   -0.0210   -1.7180 C   0  0  0  0  0  0  0  0  0  0  0  0
   -5.4960    0.0590   -0.8730 N   0  0  0  0  0  0  0  0  0  0  0  0
   -4.6390   -1.0190   -0.6300 C   0  0  0  0  0  0  0  0  0  0  0  0
   -4.8360   -2.1290   -1.1680 O   0  0  0  0  0  0  0  0  0  0  0  0
   -3.5020   -0.9040    0.2420 N   0  0  0  0  0  0  0  0  0  0  0  0
   -2.5890   -1.9840    0.5090 C   0  0  0  0  0  0  0  0  0  0  0  0
   -1.1500   -1.5020    0.5370 C   0  0  0  0  0  0  0  0  0  0  0  0
   -0.9730   -0.2790    1.3730 C   0  0  1  0  0  0  0  0  0  0  0  0
   -0.6910    0.8050    0.5380 O   0  0  0  0  0  0  0  0  0  0  0  0
    0.4970    1.4110    0.9470 C   0  0  0  0  0  0  0  0  0  0  0  0
    0.7660    2.5790    0.0310 C   0  0  0  0  0  0  0  0  0  0  0  0
    0.8800    2.1460   -1.2570 O   0  0  0  0  0  0  0  0  0  0  0  0
    1.9100    1.2410   -1.4650 C   0  0  0  0  0  0  0  0  0  0  0  0
    3.1640    1.9080   -1.0760 C   0  0  0  0  0  0  0  0  0  0  0  0
    3.4330    3.2100   -1.4060 C   0  0  0  0  0  0  0  0  0  0  0  0
    4.6340    3.8070   -1.0170 C   0  0  0  0  0  0  0  0  0  0  0  0
    5.5510    3.1060   -0.3090 C   0  0  0  0  0  0  0  0  0  0  0  0
    6.7740    3.6610    0.1060 O   0  0  0  0  0  0  0  0  0  0  0  0
    5.3030    1.7770    0.0400 C   0  0  0  0  0  0  0  0  0  0  0  0
    6.2500    1.0910    0.7490 O   0  0  0  0  0  0  0  0  0  0  0  0
    6.1820   -0.2430    1.0940 C   0  0  0  0  0  0  0  0  0  0  0  0
    6.2830   -1.1210   -0.1300 C   0  0  0  0  0  0  0  0  0  0  0  0
    6.1740   -2.5630    0.2540 C   0  0  0  0  0  0  0  0  0  0  0  0
    5.1120   -3.0080    0.6090 O   0  0  0  0  0  0  0  0  0  0  0  0
    7.3830   -3.4140    0.1870 C   0  0  0  0  0  0  0  0  0  0  0  0
    8.4530   -2.6430   -0.2300 O   0  0  0  0  0  0  0  0  0  0  0  0
    4.1110    1.2080   -0.3520 C   0  0  0  0  0  0  0  0  0  0  0  0
   -2.3050    0.0720    2.0470 C   0  0  0  0  0  0  0  0  0  0  0  0
   -3.2690    0.3660    0.8840 C   0  0  0  0  0  0  0  0  0  0  0  0
  1  2  1  0
  2  3  1  0
  3  4  1  1
  3  5  1  0
  5  6  1  0
  6  7  1  0
  7  8  2  0
  7  9  1  0
  9 10  1  0
  9 33  1  0
 10 11  1  0
 11 12  1  0
 12 13  1  6
 12 32  1  0
 13 14  1  0
 14 15  1  0
 15 16  1  0
 16 17  1  0
 17 18  1  0
 18 19  2  0
 18 31  1  0
 19 20  1  0
 20 21  2  0
 21 22  1  0
 21 23  1  0
 23 24  1  0
 23 31  2  0
 24 25  1  0
 25 26  1  0
 26 27  1  0
 27 28  2  0
 27 29  1  0
 29 30  1  0
 32 33  1  0
M  END
