
     RDKit          3D

 12 12  0  0  0  0  0  0  0  0999 V2000
   -0.4950   -2.3340    0.0830 C   0  0  0  0  0  0  0  0  0  0  0  0
   -0.4370   -0.8970    0.5820 C   0  0  1  0  0  0  0  0  0  0  0  0
    0.8410   -0.5990    0.9430 O   0  0  0  0  0  0  0  0  0  0  0  0
    1.5040    0.2920    0.1510 C   0  0  1  0  0  0  0  0  0  0  0  0
    3.0050    0.1260    0.4170 C   0  0  0  0  0  0  0  0  0  0  0  0
    3.2450    0.3870    1.7580 O   0  0  0  0  0  0  0  0  0  0  0  0
    1.2150    0.0850   -1.1870 O   0  0  0  0  0  0  0  0  0  0  0  0
   -0.0750    0.6190   -1.3890 C   0  0  0  0  0  0  0  0  0  0  0  0
   -1.0520    0.0320   -0.4200 C   0  0  1  0  0  0  0  0  0  0  0  0
   -2.0010   -0.6850   -1.1770 O   0  0  0  0  0  0  0  0  0  0  0  0
   -1.8220    1.0920    0.3290 C   0  0  0  0  0  0  0  0  0  0  0  0
   -2.4940    1.9640   -0.4900 O   0  0  0  0  0  0  0  0  0  0  0  0
  2  1  1  6
  2  3  1  0
  2  9  1  0
  3  4  1  0
  4  5  1  6
  4  7  1  0
  5  6  1  0
  7  8  1  0
  8  9  1  0
  9 10  1  6
  9 11  1  0
 11 12  1  0
M  END
