
     RDKit          3D

 12 12  0  0  0  0  0  0  0  0999 V2000
   -1.8610    0.9740   -1.3710 C   0  0  0  0  0  0  0  0  0  0  0  0
   -1.0910    0.0480   -0.4210 C   0  0  2  0  0  0  0  0  0  0  0  0
   -0.3690   -0.8490   -1.1970 O   0  0  0  0  0  0  0  0  0  0  0  0
   -2.1560   -0.6910    0.3550 C   0  0  0  0  0  0  0  0  0  0  0  0
   -1.6620   -1.6610    1.1980 O   0  0  0  0  0  0  0  0  0  0  0  0
   -0.1530    0.8320    0.4450 C   0  0  1  0  0  0  0  0  0  0  0  0
    0.5940   -0.0390    1.4290 C   0  0  0  0  0  0  0  0  0  0  0  0
    1.1870   -1.0410    0.6330 O   0  0  0  0  0  0  0  0  0  0  0  0
    2.1830   -0.4140   -0.0880 C   0  0  2  0  0  0  0  0  0  0  0  0
    3.3700   -0.5710    0.6680 O   0  0  0  0  0  0  0  0  0  0  0  0
    1.9970    0.9990   -0.4220 C   0  0  0  0  0  0  0  0  0  0  0  0
    0.7460    1.5370   -0.3260 O   0  0  0  0  0  0  0  0  0  0  0  0
  2  1  1  6
  2  3  1  0
  2  4  1  0
  2  6  1  0
  4  5  1  0
  6  7  1  1
  6 12  1  0
  7  8  1  0
  8  9  1  0
  9 10  1  1
  9 11  1  0
 11 12  1  0
M  END
