
     RDKit          3D

 12 12  0  0  0  0  0  0  0  0999 V2000
    0.4910   -2.1770   -0.1420 C   0  0  0  0  0  0  0  0  0  0  0  0
    0.0120   -0.7260   -0.1790 C   0  0  1  0  0  0  0  0  0  0  0  0
   -1.4710   -0.7760   -0.4670 C   0  0  1  0  0  0  0  0  0  0  0  0
   -2.1210   -1.3720    0.5890 O   0  0  0  0  0  0  0  0  0  0  0  0
   -1.9890    0.6080   -0.7370 C   0  0  0  0  0  0  0  0  0  0  0  0
   -1.8350    1.4530    0.3490 O   0  0  0  0  0  0  0  0  0  0  0  0
    0.3080   -0.0110    1.0980 C   0  0  0  0  0  0  0  0  0  0  0  0
    0.7320    1.2960    0.9220 O   0  0  0  0  0  0  0  0  0  0  0  0
    1.8620    1.3910    0.1190 C   0  0  2  0  0  0  0  0  0  0  0  0
    1.6970    2.5010   -0.7090 O   0  0  0  0  0  0  0  0  0  0  0  0
    1.9870    0.1580   -0.7520 C   0  0  0  0  0  0  0  0  0  0  0  0
    0.7090   -0.1240   -1.2340 O   0  0  0  0  0  0  0  0  0  0  0  0
  2  1  1  1
  2  3  1  0
  2  7  1  0
  2 12  1  0
  3  4  1  1
  3  5  1  0
  5  6  1  0
  7  8  1  0
  8  9  1  0
  9 10  1  6
  9 11  1  0
 11 12  1  0
M  END
