
     RDKit          3D

 12 12  0  0  0  0  0  0  0  0999 V2000
   -3.4000   -0.4960   -0.4690 C   0  0  0  0  0  0  0  0  0  0  0  0
   -2.4470   -0.7110    0.5230 O   0  0  0  0  0  0  0  0  0  0  0  0
   -1.3060    0.0280    0.3500 C   0  0  1  0  0  0  0  0  0  0  0  0
   -1.0470    0.9130    1.3890 O   0  0  0  0  0  0  0  0  0  0  0  0
   -0.1600    1.8710    0.8910 C   0  0  0  0  0  0  0  0  0  0  0  0
    1.1420    1.2680    0.4690 C   0  0  1  0  0  0  0  0  0  0  0  0
    1.9550    0.9020    1.5290 O   0  0  0  0  0  0  0  0  0  0  0  0
    0.9820    0.0720   -0.4340 C   0  0  1  0  0  0  0  0  0  0  0  0
    2.3300   -0.5840   -0.5640 C   0  0  0  0  0  0  0  0  0  0  0  0
    2.3380   -1.6960   -1.3640 O   0  0  0  0  0  0  0  0  0  0  0  0
   -0.0710   -0.8360    0.1190 C   0  0  2  0  0  0  0  0  0  0  0  0
   -0.4510   -1.8260   -0.7860 O   0  0  0  0  0  0  0  0  0  0  0  0
  1  2  1  0
  3  2  1  1
  3  4  1  0
  3 11  1  0
  4  5  1  0
  5  6  1  0
  6  7  1  1
  6  8  1  0
  8  9  1  1
  8 11  1  0
  9 10  1  0
 11 12  1  6
M  END
