
     RDKit          3D

 26 28  0  0  0  0  0  0  0  0999 V2000
   -2.0730    2.2310    0.9530 C   0  0  0  0  0  0  0  0  0  0  0  0
   -2.0390    0.7380    1.0130 C   0  0  0  0  0  0  0  0  0  0  0  0
   -1.6430    0.2190    2.0890 O   0  0  0  0  0  0  0  0  0  0  0  0
   -2.4350   -0.1080   -0.0940 C   0  0  0  0  0  0  0  0  0  0  0  0
   -3.7090   -0.6100   -0.3580 C   0  0  0  0  0  0  0  0  0  0  0  0
   -4.8840   -0.3770    0.4330 C   0  0  0  0  0  0  0  0  0  0  0  0
   -4.8170    0.3350    1.4700 O   0  0  0  0  0  0  0  0  0  0  0  0
   -6.1780   -0.9800    0.0190 C   0  0  2  0  0  0  0  0  0  0  0  0
   -6.5440   -0.3560   -1.3120 C   0  0  0  0  0  0  0  0  0  0  0  0
   -7.6160    0.6330   -0.9070 C   0  0  0  0  0  0  0  0  0  0  0  0
   -8.3210   -0.1190    0.2020 C   0  0  0  0  0  0  0  0  0  0  0  0
   -7.1880   -0.6130    0.9610 N   0  0  0  0  0  0  0  0  0  0  0  0
   -3.6280   -1.3620   -1.5050 C   0  0  0  0  0  0  0  0  0  0  0  0
   -2.3550   -1.3230   -1.9260 N   0  0  0  0  0  0  0  0  0  0  0  0
   -1.6140   -0.5770   -1.0980 C   0  0  0  0  0  0  0  0  0  0  0  0
   -0.2240   -0.3240   -1.2470 N   0  0  0  0  0  0  0  0  0  0  0  0
    0.6730   -0.7060   -0.4150 C   0  0  0  0  0  0  0  0  0  0  0  0
    2.0890   -0.3350   -0.7600 C   0  0  0  0  0  0  0  0  0  0  0  0
    2.9630   -0.4820    0.3890 N   0  0  0  0  0  0  0  0  0  0  0  0
    4.0360    0.5170    0.2330 C   0  0  1  0  0  0  0  0  0  0  0  0
    4.6790    0.7850    1.5230 C   0  0  0  0  0  0  0  0  0  0  0  0
    6.0820    0.3240    1.6980 C   0  0  0  0  0  0  0  0  0  0  0  0
    6.8420    0.5970    0.4240 C   0  0  1  0  0  0  0  0  0  0  0  0
    8.3190    0.4520    0.5610 C   0  0  0  0  0  0  0  0  0  0  0  0
    6.2480   -0.3710   -0.5850 C   0  0  0  0  0  0  0  0  0  0  0  0
    4.8730    0.1050   -0.9080 C   0  0  0  0  0  0  0  0  0  0  0  0
  1  2  1  0
  2  3  2  0
  2  4  1  0
  4  5  1  0
  4 15  2  0
  5  6  1  0
  5 13  2  0
  6  7  2  0
  8  6  1  1
  8  9  1  0
  8 12  1  0
  9 10  1  0
 10 11  1  0
 11 12  1  0
 13 14  1  0
 14 15  1  0
 15 16  1  0
 16 17  2  3
 17 18  1  0
 18 19  1  0
 20 19  1  1
 20 21  1  0
 20 26  1  0
 21 22  1  0
 22 23  1  0
 23 24  1  1
 23 25  1  0
 25 26  1  0
M  CHG  1  19   1
M  END
