
     RDKit          3D

 12 13  0  0  0  0  0  0  0  0999 V2000
   -2.9160    0.6220    0.1240 O   0  0  0  0  0  0  0  0  0  0  0  0
   -2.2550   -0.5380    0.5050 C   0  0  0  0  0  0  0  0  0  0  0  0
   -0.8070   -0.2270    0.8870 C   0  0  1  0  0  0  0  0  0  0  0  0
   -0.8270    0.6740    1.9490 O   0  0  0  0  0  0  0  0  0  0  0  0
   -0.2250   -1.3890    1.2900 O   0  0  0  0  0  0  0  0  0  0  0  0
    0.8530   -1.6820    0.5170 C   0  0  0  0  0  0  0  0  0  0  0  0
    1.1600   -0.5310   -0.3740 C   0  0  2  0  0  0  0  0  0  0  0  0
    1.3960   -0.8950   -1.6980 O   0  0  0  0  0  0  0  0  0  0  0  0
    2.2380    0.3380    0.1900 C   0  0  0  0  0  0  0  0  0  0  0  0
    1.7200    1.5650    0.4820 O   0  0  0  0  0  0  0  0  0  0  0  0
    0.4800    1.6950   -0.0760 C   0  0  0  0  0  0  0  0  0  0  0  0
   -0.0850    0.3130   -0.3000 C   0  0  2  0  0  0  0  0  0  0  0  0
  1  2  1  0
  2  3  1  0
  3  4  1  1
  3  5  1  0
  3 12  1  0
  5  6  1  0
  6  7  1  0
  7  8  1  6
  7  9  1  0
  7 12  1  0
  9 10  1  0
 10 11  1  0
 12 11  1  1
M  END
