
     RDKit          3D

 12 12  0  0  0  0  0  0  0  0999 V2000
    2.8350   -0.7590   -0.2390 C   0  0  0  0  0  0  0  0  0  0  0  0
    2.1190    0.4420   -0.3200 O   0  0  0  0  0  0  0  0  0  0  0  0
    1.3000    0.5260    0.7790 C   0  0  1  0  0  0  0  0  0  0  0  0
    1.7080    1.6660    1.5080 O   0  0  0  0  0  0  0  0  0  0  0  0
   -0.1470    0.7070    0.4630 C   0  0  1  0  0  0  0  0  0  0  0  0
   -0.4340    1.9580   -0.3200 C   0  0  0  0  0  0  0  0  0  0  0  0
   -1.3320    1.6600   -1.3070 O   0  0  0  0  0  0  0  0  0  0  0  0
   -1.8360    0.4020   -1.1080 C   0  0  1  0  0  0  0  0  0  0  0  0
   -2.1880   -0.1560   -2.3080 O   0  0  0  0  0  0  0  0  0  0  0  0
   -0.7270   -0.3670   -0.3970 C   0  0  2  0  0  0  0  0  0  0  0  0
   -1.3710   -1.4070    0.4920 C   0  0  0  0  0  0  0  0  0  0  0  0
   -1.9100   -2.4040   -0.3020 O   0  0  0  0  0  0  0  0  0  0  0  0
  1  2  1  0
  2  3  1  0
  3  4  1  1
  3  5  1  0
  5  6  1  6
  5 10  1  0
  6  7  1  0
  7  8  1  0
  8  9  1  6
  8 10  1  0
 10 11  1  1
 11 12  1  0
M  END
