
     RDKit          3D

 42 45  0  0  0  0  0  0  0  0999 V2000
   -8.4850    1.9090    0.8020 C   0  0  0  0  0  0  0  0  0  0  0  0
   -8.5650    0.7880   -0.2150 C   0  0  0  0  0  0  0  0  0  0  0  0
   -7.4670    1.0700   -1.2200 C   0  0  0  0  0  0  0  0  0  0  0  0
   -7.8250    1.3430   -2.3720 O   0  0  0  0  0  0  0  0  0  0  0  0
   -6.0980    0.9970   -0.7320 C   0  0  0  0  0  0  0  0  0  0  0  0
   -5.8170    0.5860    0.5430 C   0  0  0  0  0  0  0  0  0  0  0  0
   -4.5220    0.6100    1.0340 C   0  0  0  0  0  0  0  0  0  0  0  0
   -3.4430    1.0460    0.2740 C   0  0  0  0  0  0  0  0  0  0  0  0
   -3.7650    1.4420   -0.9980 C   0  0  0  0  0  0  0  0  0  0  0  0
   -5.0170    1.4220   -1.4860 C   0  0  0  0  0  0  0  0  0  0  0  0
   -2.2470    1.9480   -1.8270 S   0  0  0  0  0  0  0  0  0  0  0  0
   -1.3640    2.1710   -0.2730 C   0  0  0  0  0  0  0  0  0  0  0  0
   -2.0980    1.2350    0.6600 C   0  0  2  0  0  0  0  0  0  0  0  0
   -1.1660    0.2110    1.0690 C   0  0  0  0  0  0  0  0  0  0  0  0
   -0.2150    0.6800    1.9320 O   0  0  0  0  0  0  0  0  0  0  0  0
   -0.9390   -1.1360    0.8280 N   0  0  0  0  0  0  0  0  0  0  0  0
   -1.8310   -2.2070    0.6390 C   0  0  0  0  0  0  0  0  0  0  0  0
   -2.2000   -2.4250   -0.7980 C   0  0  0  0  0  0  0  0  0  0  0  0
   -3.1330   -3.6440   -0.9110 C   0  0  1  0  0  0  0  0  0  0  0  0
   -3.4590   -3.7900   -2.2310 F   0  0  0  0  0  0  0  0  0  0  0  0
   -2.4270   -4.7700   -0.4580 F   0  0  0  0  0  0  0  0  0  0  0  0
   -4.2320   -3.5100   -0.1050 F   0  0  0  0  0  0  0  0  0  0  0  0
    0.4950   -1.4350    0.8370 C   0  0  0  0  0  0  0  0  0  0  0  0
    1.1400   -1.4550    2.0170 C   0  0  0  0  0  0  0  0  0  0  0  0
    2.5630   -1.4890    2.0480 C   0  0  0  0  0  0  0  0  0  0  0  0
    3.2300   -1.5010    0.8680 C   0  0  0  0  0  0  0  0  0  0  0  0
    4.6570   -1.4730    0.7900 O   0  0  0  0  0  0  0  0  0  0  0  0
    5.1110   -0.2500    0.2640 C   0  0  0  0  0  0  0  0  0  0  0  0
    4.1260    0.5370   -0.0080 O   0  0  0  0  0  0  0  0  0  0  0  0
    6.4120    0.2470   -0.0150 C   0  0  0  0  0  0  0  0  0  0  0  0
    6.5360    1.5230   -0.5850 C   0  0  0  0  0  0  0  0  0  0  0  0
    7.7430    2.0370   -0.9010 C   0  0  0  0  0  0  0  0  0  0  0  0
    8.8670    1.2900   -0.6510 C   0  0  0  0  0  0  0  0  0  0  0  0
   10.2050    1.8570   -1.0050 C   0  0  1  0  0  0  0  0  0  0  0  0
   10.0690    3.2310   -1.1690 F   0  0  0  0  0  0  0  0  0  0  0  0
   11.1180    1.4910   -0.0770 F   0  0  0  0  0  0  0  0  0  0  0  0
   10.5590    1.2570   -2.1970 F   0  0  0  0  0  0  0  0  0  0  0  0
    8.7760    0.0530   -0.1030 C   0  0  0  0  0  0  0  0  0  0  0  0
    7.5510   -0.5270    0.2410 C   0  0  0  0  0  0  0  0  0  0  0  0
    7.5050   -1.7700    0.7900 O   0  0  0  0  0  0  0  0  0  0  0  0
    2.5680   -1.4960   -0.3320 C   0  0  0  0  0  0  0  0  0  0  0  0
    1.1590   -1.4610   -0.3540 C   0  0  0  0  0  0  0  0  0  0  0  0
  1  2  1  0
  2  3  1  0
  3  4  2  0
  3  5  1  0
  5  6  2  0
  5 10  1  0
  6  7  1  0
  7  8  2  0
  8  9  1  0
  8 13  1  0
  9 10  2  0
  9 11  1  0
 11 12  1  0
 12 13  1  0
 13 14  1  6
 14 15  2  0
 14 16  1  0
 16 17  1  0
 16 23  1  0
 17 18  1  0
 18 19  1  0
 19 20  1  6
 19 21  1  0
 19 22  1  0
 23 24  2  0
 23 42  1  0
 24 25  1  0
 25 26  2  0
 26 27  1  0
 26 41  1  0
 27 28  1  0
 28 29  2  0
 28 30  1  0
 30 31  2  0
 30 39  1  0
 31 32  1  0
 32 33  2  0
 33 34  1  0
 33 38  1  0
 34 35  1  6
 34 36  1  0
 34 37  1  0
 38 39  2  0
 39 40  1  0
 41 42  2  0
M  END
