
     RDKit          3D

 42 45  0  0  0  0  0  0  0  0999 V2000
   -2.6690    0.6630    1.9300 O   0  0  0  0  0  0  0  0  0  0  0  0
   -2.1600    0.1050    0.9170 C   0  0  0  0  0  0  0  0  0  0  0  0
   -2.9500   -0.8690    0.3040 O   0  0  0  0  0  0  0  0  0  0  0  0
   -4.2220   -1.2310    0.7490 C   0  0  0  0  0  0  0  0  0  0  0  0
   -5.1820   -0.1010    0.7450 C   0  0  0  0  0  0  0  0  0  0  0  0
   -4.7470    1.0110    0.3500 O   0  0  0  0  0  0  0  0  0  0  0  0
   -6.5200   -0.2310    1.1540 N   0  0  0  0  0  0  0  0  0  0  0  0
   -7.1050   -1.4710    1.6220 C   0  0  0  0  0  0  0  0  0  0  0  0
   -8.5870   -1.5480    1.4490 C   0  0  0  0  0  0  0  0  0  0  0  0
   -9.1240   -0.6290    0.4160 C   0  0  0  0  0  0  0  0  0  0  0  0
  -10.2660   -0.9290   -0.1720 C   0  0  0  0  0  0  0  0  0  0  0  0
  -10.8310   -0.0470   -1.1990 C   0  0  1  0  0  0  0  0  0  0  0  0
  -11.3230    1.1270   -0.6220 F   0  0  0  0  0  0  0  0  0  0  0  0
   -9.8960    0.2910   -2.1630 F   0  0  0  0  0  0  0  0  0  0  0  0
  -11.9380   -0.6570   -1.7890 F   0  0  0  0  0  0  0  0  0  0  0  0
   -8.4240    0.6230    0.0150 C   0  0  0  0  0  0  0  0  0  0  0  0
   -7.4060    0.9250    1.1220 C   0  0  0  0  0  0  0  0  0  0  0  0
   -0.8450    0.4530    0.4250 C   0  0  0  0  0  0  0  0  0  0  0  0
   -0.1210    1.4220    1.0780 C   0  0  0  0  0  0  0  0  0  0  0  0
    1.1510    1.7840    0.6330 C   0  0  0  0  0  0  0  0  0  0  0  0
    1.6790    1.1570   -0.4760 C   0  0  0  0  0  0  0  0  0  0  0  0
    2.9950    1.4840   -0.9920 C   0  0  0  0  0  0  0  0  0  0  0  0
    3.4180    0.8780   -2.0030 O   0  0  0  0  0  0  0  0  0  0  0  0
    3.8190    2.4370   -0.4280 O   0  0  0  0  0  0  0  0  0  0  0  0
    5.0940    2.8030   -0.8690 C   0  0  0  0  0  0  0  0  0  0  0  0
    6.0820    1.7010   -0.8760 C   0  0  0  0  0  0  0  0  0  0  0  0
    6.4070    1.0380   -2.0430 C   0  0  0  0  0  0  0  0  0  0  0  0
    7.3280    0.0120   -2.0330 C   0  0  0  0  0  0  0  0  0  0  0  0
    7.9690   -0.4030   -0.8620 C   0  0  0  0  0  0  0  0  0  0  0  0
    7.6420    0.2570    0.2920 C   0  0  0  0  0  0  0  0  0  0  0  0
    6.7040    1.3030    0.2810 C   0  0  0  0  0  0  0  0  0  0  0  0
    8.1660   -0.0350    1.6760 C   0  0  0  0  0  0  0  0  0  0  0  0
    8.7660   -1.7530    1.7590 S   0  0  0  0  0  0  0  0  0  0  0  0
    9.7200   -1.9290    0.2100 C   0  0  0  0  0  0  0  0  0  0  0  0
   10.9230   -2.3800    0.2440 C   0  0  0  0  0  0  0  0  0  0  0  0
   11.4600   -2.7230    1.4570 F   0  0  0  0  0  0  0  0  0  0  0  0
    8.9710   -1.4830   -0.9780 C   0  0  0  0  0  0  0  0  0  0  0  0
    9.2520   -2.1220   -2.0950 C   0  0  0  0  0  0  0  0  0  0  0  0
    8.6870   -1.9060   -3.3060 F   0  0  0  0  0  0  0  0  0  0  0  0
   10.1960   -3.1390   -2.0750 F   0  0  0  0  0  0  0  0  0  0  0  0
    0.9330    0.1930   -1.1070 C   0  0  0  0  0  0  0  0  0  0  0  0
   -0.3340   -0.1810   -0.6790 C   0  0  0  0  0  0  0  0  0  0  0  0
  1  2  2  0
  2  3  1  0
  2 18  1  0
  3  4  1  0
  4  5  1  0
  5  6  2  0
  5  7  1  0
  7  8  1  0
  7 17  1  0
  8  9  1  0
  9 10  1  0
 10 11  2  3
 10 16  1  0
 11 12  1  0
 12 13  1  1
 12 14  1  0
 12 15  1  0
 16 17  1  0
 18 19  2  0
 18 42  1  0
 19 20  1  0
 20 21  2  0
 21 22  1  0
 21 41  1  0
 22 23  2  0
 22 24  1  0
 24 25  1  0
 25 26  1  0
 26 27  2  0
 26 31  1  0
 27 28  1  0
 28 29  2  0
 29 30  1  0
 29 37  1  0
 30 31  2  0
 30 32  1  0
 32 33  1  0
 33 34  1  0
 34 35  2  3
 34 37  1  0
 35 36  1  0
 37 38  2  3
 38 39  1  0
 38 40  1  0
 41 42  2  0
M  END
