
     RDKit          3D

 41 44  0  0  0  0  0  0  0  0999 V2000
   -4.9180    1.1270    2.0980 C   0  0  0  0  0  0  0  0  0  0  0  0
   -4.8300   -0.2140    1.3400 C   0  0  0  0  0  0  0  0  0  0  0  0
   -5.7370   -0.1580    0.1390 C   0  0  2  0  0  0  0  0  0  0  0  0
   -5.5260   -1.5500   -0.5290 C   0  0  0  0  0  0  0  0  0  0  0  0
   -5.6220    0.9030   -0.8110 C   0  0  0  0  0  0  0  0  0  0  0  0
   -6.8880    1.5410   -1.1170 C   0  0  0  0  0  0  0  0  0  0  0  0
   -7.9540    1.1440   -0.4310 O   0  0  0  0  0  0  0  0  0  0  0  0
   -9.2910    1.4170   -0.3320 C   0  0  0  0  0  0  0  0  0  0  0  0
   -6.9640    2.4840   -2.0430 N   0  0  0  0  0  0  0  0  0  0  0  0
   -5.8890    2.8840   -2.7310 C   0  0  0  0  0  0  0  0  0  0  0  0
   -4.7140    2.3130   -2.4710 N   0  0  0  0  0  0  0  0  0  0  0  0
   -4.5630    1.3160   -1.5140 C   0  0  0  0  0  0  0  0  0  0  0  0
   -3.3040    0.6570   -1.5500 C   0  0  0  0  0  0  0  0  0  0  0  0
   -2.9410    0.1560   -2.8200 C   0  0  0  0  0  0  0  0  0  0  0  0
   -1.8160   -0.5380   -3.0820 C   0  0  0  0  0  0  0  0  0  0  0  0
   -0.9360   -0.8000   -2.0630 C   0  0  0  0  0  0  0  0  0  0  0  0
    0.2410   -1.5180   -2.3070 O   0  0  0  0  0  0  0  0  0  0  0  0
    0.5120   -1.9540   -3.6400 C   0  0  0  0  0  0  0  0  0  0  0  0
   -1.2200   -0.3410   -0.7770 C   0  0  0  0  0  0  0  0  0  0  0  0
   -0.3960   -0.6100    0.1830 O   0  0  0  0  0  0  0  0  0  0  0  0
    0.3700   -0.8240    1.2220 C   0  0  1  0  0  0  0  0  0  0  0  0
    0.0980   -2.2030    1.8740 C   0  0  1  0  0  0  0  0  0  0  0  0
    0.3350   -3.3300    0.9180 C   0  0  0  0  0  0  0  0  0  0  0  0
    0.9380   -2.3190    3.0860 C   0  0  0  0  0  0  0  0  0  0  0  0
    2.3950   -2.3490    2.6820 C   0  0  0  0  0  0  0  0  0  0  0  0
    2.6760   -0.9350    2.1550 C   0  0  0  0  0  0  0  0  0  0  0  0
    1.8390   -0.5890    0.9940 C   0  0  2  0  0  0  0  0  0  0  0  0
    1.9800    0.8690    0.6140 C   0  0  0  0  0  0  0  0  0  0  0  0
    3.4610    1.2400    0.3680 C   0  0  0  0  0  0  0  0  0  0  0  0
    4.1960    1.0970    1.5630 N   0  0  0  0  0  0  0  0  0  0  0  0
    5.8520    1.4270    1.5750 S   0  0  1  0  0  0  0  0  0  0  0  0
    6.0730    2.8820    1.2470 O   0  0  0  0  0  0  0  0  0  0  0  0
    6.4300    1.2380    2.9860 O   0  0  0  0  0  0  0  0  0  0  0  0
    6.7360    0.3600    0.5020 C   0  0  1  0  0  0  0  0  0  0  0  0
    6.6930    0.6400   -0.9340 C   0  0  0  0  0  0  0  0  0  0  0  0
    7.3600    1.9980   -1.1610 C   0  0  0  0  0  0  0  0  0  0  0  0
    8.7040    1.8940    0.0130 S   0  0  1  0  0  0  0  0  0  0  0  0
    9.9650    1.7080   -0.7590 O   0  0  0  0  0  0  0  0  0  0  0  0
    8.7250    3.1010    0.9130 O   0  0  0  0  0  0  0  0  0  0  0  0
    8.2580    0.4080    0.8780 C   0  0  0  0  0  0  0  0  0  0  0  0
   -2.4280    0.3950   -0.5800 C   0  0  0  0  0  0  0  0  0  0  0  0
  1  2  1  0
  2  3  1  0
  3  4  1  6
  3  5  1  0
  5  6  2  0
  5 12  1  0
  6  7  1  0
  6  9  1  0
  7  8  1  0
  9 10  2  0
 10 11  1  0
 11 12  2  0
 12 13  1  0
 13 14  2  0
 13 41  1  0
 14 15  1  0
 15 16  2  0
 16 17  1  0
 16 19  1  0
 17 18  1  0
 19 20  1  0
 19 41  2  0
 21 20  1  6
 21 22  1  0
 21 27  1  0
 22 23  1  6
 22 24  1  0
 24 25  1  0
 25 26  1  0
 26 27  1  0
 27 28  1  1
 28 29  1  0
 29 30  1  0
 31 30  1  1
 31 32  2  0
 31 33  2  0
 31 34  1  0
 34 35  1  6
 34 40  1  0
 35 36  1  0
 37 36  1  6
 37 38  2  0
 37 39  2  0
 37 40  1  0
M  END
