
     RDKit          3D

 42 46  0  0  0  0  0  0  0  0999 V2000
   -6.9540    3.1710   -2.1230 C   0  0  0  0  0  0  0  0  0  0  0  0
   -6.4030    1.9370   -1.7100 N   0  0  0  0  0  0  0  0  0  0  0  0
   -7.3110    1.0330   -1.0090 C   0  0  2  0  0  0  0  0  0  0  0  0
   -8.4360    0.6600   -1.9990 C   0  0  0  0  0  0  0  0  0  0  0  0
   -7.9730    1.8430    0.0520 C   0  0  0  0  0  0  0  0  0  0  0  0
   -7.0900    2.2610    1.1960 C   0  0  0  0  0  0  0  0  0  0  0  0
   -6.9780    1.1710    2.2410 C   0  0  0  0  0  0  0  0  0  0  0  0
   -7.3430   -0.1730    1.6430 C   0  0  0  0  0  0  0  0  0  0  0  0
   -6.3440   -0.4770    0.5570 C   0  0  1  0  0  0  0  0  0  0  0  0
   -6.1190   -1.9990    0.6150 C   0  0  0  0  0  0  0  0  0  0  0  0
   -4.9630   -2.5970   -0.5950 S   0  0  0  0  0  0  0  0  0  0  0  0
   -3.3140   -2.0450   -0.1750 C   0  0  0  0  0  0  0  0  0  0  0  0
   -2.7810   -1.3590    0.8910 C   0  0  0  0  0  0  0  0  0  0  0  0
   -1.4600   -1.0970    0.8600 C   0  0  0  0  0  0  0  0  0  0  0  0
   -0.7130   -1.4940   -0.1680 C   0  0  0  0  0  0  0  0  0  0  0  0
    0.7430   -1.3050   -0.3870 C   0  0  0  0  0  0  0  0  0  0  0  0
    1.3920   -0.7130    0.4660 O   0  0  0  0  0  0  0  0  0  0  0  0
    1.3000   -1.7990   -1.5300 O   0  0  0  0  0  0  0  0  0  0  0  0
    2.6710   -1.6860   -1.8570 C   0  0  0  0  0  0  0  0  0  0  0  0
    3.4620   -2.3510   -0.8110 C   0  0  0  0  0  0  0  0  0  0  0  0
    2.8990   -2.8720    0.1690 O   0  0  0  0  0  0  0  0  0  0  0  0
    4.8350   -2.3980   -0.9190 O   0  0  0  0  0  0  0  0  0  0  0  0
    5.5950   -3.0340    0.0770 C   0  0  1  0  0  0  0  0  0  0  0  0
    6.2510   -4.3010   -0.4710 C   0  0  0  0  0  0  0  0  0  0  0  0
    6.5870   -2.1070    0.6240 C   0  0  0  0  0  0  0  0  0  0  0  0
    7.3120   -2.6030    1.5700 O   0  0  0  0  0  0  0  0  0  0  0  0
    6.8280   -0.7740    0.2400 N   0  0  0  0  0  0  0  0  0  0  0  0
    7.8180    0.0690    0.8530 C   0  0  0  0  0  0  0  0  0  0  0  0
    8.4350    0.0820    2.0920 C   0  0  0  0  0  0  0  0  0  0  0  0
    9.3720    1.0240    2.4520 C   0  0  0  0  0  0  0  0  0  0  0  0
    9.6810    1.9650    1.5300 N   0  0  0  0  0  0  0  0  0  0  0  0
    9.1190    2.0060    0.3140 C   0  0  0  0  0  0  0  0  0  0  0  0
    8.1880    1.0690   -0.0410 C   0  0  0  0  0  0  0  0  0  0  0  0
    7.4170    0.8520   -1.2750 C   0  0  0  0  0  0  0  0  0  0  0  0
    6.2190    0.0440   -0.7700 C   0  0  2  0  0  0  0  0  0  0  0  0
    5.1960    0.9320   -0.1620 C   0  0  0  0  0  0  0  0  0  0  0  0
    5.0490    2.2640   -0.4370 C   0  0  0  0  0  0  0  0  0  0  0  0
    3.9800    2.7210    0.3420 C   0  0  0  0  0  0  0  0  0  0  0  0
    3.5500    1.6330    1.0390 C   0  0  0  0  0  0  0  0  0  0  0  0
    4.2750    0.5800    0.7340 O   0  0  0  0  0  0  0  0  0  0  0  0
   -1.8280   -2.2920   -1.2150 S   0  0  0  0  0  0  0  0  0  0  0  0
   -6.5640   -0.0180   -0.6660 O   0  0  0  0  0  0  0  0  0  0  0  0
  1  2  1  0
  2  3  1  0
  3  4  1  6
  3  5  1  0
  3 42  1  0
  5  6  1  0
  6  7  1  0
  7  8  1  0
  8  9  1  0
  9 10  1  6
  9 42  1  0
 10 11  1  0
 11 12  1  0
 12 13  2  0
 12 41  1  0
 13 14  1  0
 14 15  2  0
 15 16  1  0
 15 41  1  0
 16 17  2  0
 16 18  1  0
 18 19  1  0
 19 20  1  0
 20 21  2  0
 20 22  1  0
 22 23  1  0
 23 24  1  6
 23 25  1  0
 25 26  2  0
 25 27  1  0
 27 28  1  0
 27 35  1  0
 28 29  2  0
 28 33  1  0
 29 30  1  0
 30 31  2  0
 31 32  1  0
 32 33  2  0
 33 34  1  0
 34 35  1  0
 35 36  1  1
 36 37  2  0
 36 40  1  0
 37 38  1  0
 38 39  2  0
 39 40  1  0
M  END
