
     RDKit          3D

 42 45  0  0  0  0  0  0  0  0999 V2000
   -7.1770   -0.0980   -2.1010 C   0  0  0  0  0  0  0  0  0  0  0  0
   -7.0970   -0.8660   -0.8830 C   0  0  0  0  0  0  0  0  0  0  0  0
   -7.0190   -0.4120    0.3560 C   0  0  0  0  0  0  0  0  0  0  0  0
   -6.9550   -1.4330    1.3940 C   0  0  0  0  0  0  0  0  0  0  0  0
   -6.9310   -2.7450    0.9660 F   0  0  0  0  0  0  0  0  0  0  0  0
   -6.9170   -1.2190    2.6510 C   0  0  0  0  0  0  0  0  0  0  0  0
   -6.8500   -2.3170    3.5030 F   0  0  0  0  0  0  0  0  0  0  0  0
   -6.9560   -0.0450    3.3080 F   0  0  0  0  0  0  0  0  0  0  0  0
   -6.9460    1.2920    0.6730 S   0  0  1  0  0  0  0  0  0  0  0  0
   -7.5650    2.0180   -0.5250 O   0  0  0  0  0  0  0  0  0  0  0  0
   -7.7170    1.7540    1.8460 O   0  0  0  0  0  0  0  0  0  0  0  0
   -5.2810    1.9180    0.7980 C   0  0  1  0  0  0  0  0  0  0  0  0
   -4.5350    1.4470    2.0060 C   0  0  0  0  0  0  0  0  0  0  0  0
   -3.1170    1.6880    1.5410 C   0  0  0  0  0  0  0  0  0  0  0  0
   -2.1680    2.1120    2.2080 O   0  0  0  0  0  0  0  0  0  0  0  0
   -3.0900    1.3290    0.1790 N   0  0  0  0  0  0  0  0  0  0  0  0
   -2.0620    0.7850   -0.6340 C   0  0  0  0  0  0  0  0  0  0  0  0
   -1.5640   -0.4970   -0.3820 C   0  0  0  0  0  0  0  0  0  0  0  0
   -0.5860   -1.0680   -1.1690 C   0  0  0  0  0  0  0  0  0  0  0  0
   -0.0490   -0.3990   -2.2490 C   0  0  0  0  0  0  0  0  0  0  0  0
    0.9900   -1.0660   -3.0820 C   0  0  0  0  0  0  0  0  0  0  0  0
    2.1480   -1.4130   -2.3750 O   0  0  0  0  0  0  0  0  0  0  0  0
    2.9650   -0.5430   -1.7150 C   0  0  0  0  0  0  0  0  0  0  0  0
    2.7020    0.6830   -1.7090 O   0  0  0  0  0  0  0  0  0  0  0  0
    4.1510   -1.0810   -1.0170 C   0  0  0  0  0  0  0  0  0  0  0  0
    4.4270   -2.3630   -1.0220 C   0  0  0  0  0  0  0  0  0  0  0  0
    5.5860   -3.0030   -0.3610 C   0  0  2  0  0  0  0  0  0  0  0  0
    6.3140   -3.6420   -1.3640 F   0  0  0  0  0  0  0  0  0  0  0  0
    5.1490   -4.0170    0.4720 F   0  0  0  0  0  0  0  0  0  0  0  0
    6.4380   -2.0860    0.4240 C   0  0  0  0  0  0  0  0  0  0  0  0
    6.0590   -0.6450    0.3730 C   0  0  0  0  0  0  0  0  0  0  0  0
    6.9350    0.2740    1.1110 C   0  0  0  0  0  0  0  0  0  0  0  0
    8.0340   -0.2210    1.8290 C   0  0  0  0  0  0  0  0  0  0  0  0
    8.8830    0.5820    2.5410 C   0  0  0  0  0  0  0  0  0  0  0  0
    8.7030    1.9560    2.5960 C   0  0  0  0  0  0  0  0  0  0  0  0
    7.6300    2.4470    1.8970 C   0  0  0  0  0  0  0  0  0  0  0  0
    7.4060    3.7820    1.9250 F   0  0  0  0  0  0  0  0  0  0  0  0
    6.7650    1.6360    1.1720 C   0  0  0  0  0  0  0  0  0  0  0  0
    5.0240   -0.1740   -0.2750 C   0  0  0  0  0  0  0  0  0  0  0  0
   -0.5270    0.8670   -2.5120 C   0  0  0  0  0  0  0  0  0  0  0  0
   -1.5150    1.4410   -1.7140 C   0  0  0  0  0  0  0  0  0  0  0  0
   -4.4380    1.5890   -0.3560 C   0  0  0  0  0  0  0  0  0  0  0  0
  1  2  1  0
  2  3  2  3
  3  4  1  0
  9  3  1  6
  4  5  1  0
  4  6  2  3
  6  7  1  0
  6  8  1  0
  9 10  2  0
  9 11  2  0
  9 12  1  0
 12 13  1  1
 12 42  1  0
 13 14  1  0
 14 15  2  0
 14 16  1  0
 16 17  1  0
 16 42  1  0
 17 18  2  0
 17 41  1  0
 18 19  1  0
 19 20  2  0
 20 21  1  0
 20 40  1  0
 21 22  1  0
 22 23  1  0
 23 24  2  0
 23 25  1  0
 25 26  2  0
 25 39  1  0
 26 27  1  0
 27 28  1  6
 27 29  1  0
 27 30  1  0
 30 31  1  0
 31 32  1  0
 31 39  2  0
 32 33  2  0
 32 38  1  0
 33 34  1  0
 34 35  2  0
 35 36  1  0
 36 37  1  0
 36 38  2  0
 40 41  2  0
M  END
