
     RDKit          3D

 42 46  0  0  0  0  0  0  0  0999 V2000
   -0.6550    1.6450   -4.0120 C   0  0  0  0  0  0  0  0  0  0  0  0
   -1.1270    0.2420   -3.6400 C   0  0  1  0  0  0  0  0  0  0  0  0
   -0.5590   -0.7710   -4.5770 C   0  0  0  0  0  0  0  0  0  0  0  0
   -0.9950   -2.1700   -4.2280 C   0  0  0  0  0  0  0  0  0  0  0  0
   -2.3620   -2.3100   -4.2720 O   0  0  0  0  0  0  0  0  0  0  0  0
   -0.8520   -0.0510   -2.2720 N   0  0  0  0  0  0  0  0  0  0  0  0
    0.4850   -0.1490   -1.8160 C   0  0  0  0  0  0  0  0  0  0  0  0
    1.4110   -0.0120   -2.6390 O   0  0  0  0  0  0  0  0  0  0  0  0
    0.7160   -0.4140   -0.3710 C   0  0  0  0  0  0  0  0  0  0  0  0
    2.0920   -0.5240   -0.0250 N   0  0  0  0  0  0  0  0  0  0  0  0
    2.9770    0.5460    0.3700 C   0  0  0  0  0  0  0  0  0  0  0  0
    3.7770   -0.1420    1.4500 C   0  0  2  0  0  0  0  0  0  0  0  0
    4.9680    0.5970    1.8880 C   0  0  0  0  0  0  0  0  0  0  0  0
    5.3360    1.6670    1.3690 O   0  0  0  0  0  0  0  0  0  0  0  0
    5.6880    0.0390    2.9340 O   0  0  0  0  0  0  0  0  0  0  0  0
    6.8390    0.5890    3.4830 C   0  0  0  0  0  0  0  0  0  0  0  0
    7.8820    0.6830    2.4520 C   0  0  0  0  0  0  0  0  0  0  0  0
    7.9630    0.2280    1.1790 C   0  0  0  0  0  0  0  0  0  0  0  0
    9.0670    0.4680    0.4550 C   0  0  0  0  0  0  0  0  0  0  0  0
   10.0870    1.1620    1.0050 C   0  0  0  0  0  0  0  0  0  0  0  0
    9.4590    1.5150    2.6800 S   0  0  0  0  0  0  0  0  0  0  0  0
    4.1680   -1.4320    0.7110 C   0  0  0  0  0  0  0  0  0  0  0  0
    2.8960   -1.7170    0.0000 C   0  0  0  0  0  0  0  0  0  0  0  0
    2.6250   -2.8440   -0.4800 O   0  0  0  0  0  0  0  0  0  0  0  0
   -1.9360   -0.2400   -1.3450 C   0  0  0  0  0  0  0  0  0  0  0  0
   -2.2550   -1.4720   -0.8370 C   0  0  0  0  0  0  0  0  0  0  0  0
   -3.3130   -1.5770    0.0650 C   0  0  0  0  0  0  0  0  0  0  0  0
   -4.0490   -0.5050    0.4710 C   0  0  0  0  0  0  0  0  0  0  0  0
   -3.7000    0.7350   -0.0630 C   0  0  0  0  0  0  0  0  0  0  0  0
   -2.6540    0.8600   -0.9620 C   0  0  0  0  0  0  0  0  0  0  0  0
   -4.4230    1.8440    0.3260 O   0  0  0  0  0  0  0  0  0  0  0  0
   -5.6540    1.7870    0.9600 C   0  0  2  0  0  0  0  0  0  0  0  0
   -5.8000    2.8180    2.0660 C   0  0  0  0  0  0  0  0  0  0  0  0
   -4.7620    2.6080    3.0960 C   0  0  0  0  0  0  0  0  0  0  0  0
   -3.9550    1.7310    2.9780 O   0  0  0  0  0  0  0  0  0  0  0  0
   -5.9630    0.4560    1.5260 C   0  0  0  0  0  0  0  0  0  0  0  0
   -5.2160   -0.6300    1.3020 C   0  0  0  0  0  0  0  0  0  0  0  0
   -5.6560   -1.9240    1.9030 C   0  0  0  0  0  0  0  0  0  0  0  0
   -6.9550   -2.1330    2.1100 C   0  0  0  0  0  0  0  0  0  0  0  0
   -7.3340   -3.3050    2.7870 N   0  0  0  0  0  0  0  0  0  0  0  0
   -5.7380   -4.1350    3.1370 S   0  0  0  0  0  0  0  0  0  0  0  0
   -4.7880   -2.8520    2.3620 C   0  0  0  0  0  0  0  0  0  0  0  0
  2  1  1  6
  2  3  1  0
  2  6  1  0
  3  4  1  0
  4  5  1  0
  6  7  1  0
  6 25  1  0
  7  8  2  0
  7  9  1  0
  9 10  1  0
 10 11  1  0
 10 23  1  0
 11 12  1  0
 12 13  1  6
 12 22  1  0
 13 14  2  0
 13 15  1  0
 15 16  1  0
 16 17  1  0
 17 18  2  0
 17 21  1  0
 18 19  1  0
 19 20  2  0
 20 21  1  0
 22 23  1  0
 23 24  2  0
 25 26  2  0
 25 30  1  0
 26 27  1  0
 27 28  2  0
 28 29  1  0
 28 37  1  0
 29 30  2  0
 29 31  1  0
 31 32  1  0
 32 33  1  1
 32 36  1  0
 33 34  1  0
 34 35  2  0
 36 37  2  0
 37 38  1  0
 38 39  1  0
 38 42  2  0
 39 40  2  0
 40 41  1  0
 41 42  1  0
M  END
