
     RDKit          3D

 42 45  0  0  0  0  0  0  0  0999 V2000
   -2.7620    1.6890   -3.5460 C   0  0  0  0  0  0  0  0  0  0  0  0
   -2.0660    0.8840   -2.6250 O   0  0  0  0  0  0  0  0  0  0  0  0
   -2.6340    0.5530   -1.4000 C   0  0  0  0  0  0  0  0  0  0  0  0
   -3.9110    1.0070   -1.0410 C   0  0  0  0  0  0  0  0  0  0  0  0
   -4.5060    0.6990    0.1650 C   0  0  0  0  0  0  0  0  0  0  0  0
   -5.8410    1.1620    0.5410 C   0  0  0  0  0  0  0  0  0  0  0  0
   -6.9570    0.1840    0.4390 C   0  0  2  0  0  0  0  0  0  0  0  0
   -7.2390   -0.3480   -0.9490 C   0  0  0  0  0  0  0  0  0  0  0  0
   -7.6850    0.6460   -1.9470 C   0  0  1  0  0  0  0  0  0  0  0  0
   -6.8800    1.6850   -2.2350 F   0  0  0  0  0  0  0  0  0  0  0  0
   -7.8890   -0.0660   -3.1480 F   0  0  0  0  0  0  0  0  0  0  0  0
   -8.2380    0.9550    0.8420 C   0  0  0  0  0  0  0  0  0  0  0  0
   -8.1420    0.8550    2.3470 C   0  0  0  0  0  0  0  0  0  0  0  0
   -7.6420   -0.5720    2.4650 C   0  0  0  0  0  0  0  0  0  0  0  0
   -6.9540   -0.8520    1.3230 O   0  0  0  0  0  0  0  0  0  0  0  0
   -3.7660   -0.0890    1.0090 C   0  0  0  0  0  0  0  0  0  0  0  0
   -4.2480   -0.4660    2.3380 C   0  0  0  0  0  0  0  0  0  0  0  0
   -2.4910   -0.5490    0.6660 C   0  0  0  0  0  0  0  0  0  0  0  0
   -1.9290   -0.2230   -0.5460 C   0  0  0  0  0  0  0  0  0  0  0  0
   -0.6580   -0.7240   -0.8070 O   0  0  0  0  0  0  0  0  0  0  0  0
    0.4500    0.0370   -0.4380 C   0  0  0  0  0  0  0  0  0  0  0  0
    0.2070    1.1450    0.1170 O   0  0  0  0  0  0  0  0  0  0  0  0
    1.8000   -0.4220   -0.6800 C   0  0  0  0  0  0  0  0  0  0  0  0
    3.0150    0.0670   -0.4470 C   0  0  0  0  0  0  0  0  0  0  0  0
    4.1240   -0.5750   -0.7780 C   0  0  0  0  0  0  0  0  0  0  0  0
    5.5110   -0.0140   -0.5210 C   0  0  0  0  0  0  0  0  0  0  0  0
    5.6440    1.2170   -0.4980 O   0  0  0  0  0  0  0  0  0  0  0  0
    6.6050   -0.8580   -0.3160 N   0  0  0  0  0  0  0  0  0  0  0  0
    7.9490   -0.4970   -0.0650 C   0  0  0  0  0  0  0  0  0  0  0  0
    8.3750    0.8050    0.0380 C   0  0  0  0  0  0  0  0  0  0  0  0
    9.6930    1.1010    0.2890 C   0  0  0  0  0  0  0  0  0  0  0  0
   10.0380    2.4200    0.3770 F   0  0  0  0  0  0  0  0  0  0  0  0
   10.6480    0.1040    0.4480 C   0  0  0  0  0  0  0  0  0  0  0  0
   12.0580    0.4570    0.7170 C   0  0  0  0  0  0  0  0  0  0  0  0
   10.1870   -1.1870    0.3390 C   0  0  0  0  0  0  0  0  0  0  0  0
    8.8800   -1.5140    0.0890 C   0  0  0  0  0  0  0  0  0  0  0  0
    8.4600   -2.9120   -0.0210 C   0  0  2  0  0  0  0  0  0  0  0  0
    7.9160   -3.2430   -1.2480 F   0  0  0  0  0  0  0  0  0  0  0  0
    7.5720   -3.2630    0.9800 F   0  0  0  0  0  0  0  0  0  0  0  0
    9.6080   -3.7190    0.0840 F   0  0  0  0  0  0  0  0  0  0  0  0
    4.0620   -1.8170   -1.3980 C   0  0  0  0  0  0  0  0  0  0  0  0
    2.2220   -2.0320   -1.4880 S   0  0  0  0  0  0  0  0  0  0  0  0
  1  2  1  0
  2  3  1  0
  3  4  2  0
  3 19  1  0
  4  5  1  0
  5  6  1  0
  5 16  2  0
  7  6  1  6
  7  8  1  0
  7 12  1  0
  7 15  1  0
  8  9  1  0
  9 10  1  6
  9 11  1  0
 12 13  1  0
 13 14  1  0
 14 15  1  0
 16 17  1  0
 16 18  1  0
 18 19  2  0
 19 20  1  0
 20 21  1  0
 21 22  2  0
 21 23  1  0
 23 24  2  0
 23 42  1  0
 24 25  1  0
 25 26  1  0
 25 41  2  0
 26 27  2  0
 26 28  1  0
 28 29  1  0
 29 30  2  0
 29 36  1  0
 30 31  1  0
 31 32  1  0
 31 33  2  0
 33 34  1  0
 33 35  1  0
 35 36  2  0
 36 37  1  0
 37 38  1  6
 37 39  1  0
 37 40  1  0
 41 42  1  0
M  END
