
     RDKit          3D

 27 29  0  0  0  0  0  0  0  0999 V2000
    9.6090    0.6490    1.3080 N   0  0  0  0  0  0  0  0  0  0  0  0
    8.4730    0.5230    1.1250 C   0  0  0  0  0  0  0  0  0  0  0  0
    7.0470    0.3410    0.8970 C   0  0  0  0  0  0  0  0  0  0  0  0
    6.6030   -0.5880   -0.0190 C   0  0  0  0  0  0  0  0  0  0  0  0
    5.2480   -0.7890   -0.2630 C   0  0  0  0  0  0  0  0  0  0  0  0
    4.3090   -0.0490    0.4210 C   0  0  0  0  0  0  0  0  0  0  0  0
    2.8730   -0.1930    0.2300 C   0  0  0  0  0  0  0  0  0  0  0  0
    2.0320    0.8850    0.3920 C   0  0  0  0  0  0  0  0  0  0  0  0
    0.6440    0.7670    0.2120 C   0  0  0  0  0  0  0  0  0  0  0  0
    0.0690   -0.4180   -0.1300 C   0  0  0  0  0  0  0  0  0  0  0  0
   -1.2510   -0.5860   -0.3140 O   0  0  0  0  0  0  0  0  0  0  0  0
   -2.2210    0.3990   -0.1870 C   0  0  1  0  0  0  0  0  0  0  0  0
   -2.7540    0.5850   -1.4330 O   0  0  0  0  0  0  0  0  0  0  0  0
   -3.9650    0.1010   -1.7450 C   0  0  2  0  0  0  0  0  0  0  0  0
   -5.0830    1.1160   -1.7420 C   0  0  0  0  0  0  0  0  0  0  0  0
   -4.7260    2.0890   -2.7000 O   0  0  0  0  0  0  0  0  0  0  0  0
   -4.2800   -1.1340   -0.9820 C   0  0  1  0  0  0  0  0  0  0  0  0
   -3.2550   -2.0580   -1.1750 O   0  0  0  0  0  0  0  0  0  0  0  0
   -4.3200   -0.8100    0.4950 C   0  0  2  0  0  0  0  0  0  0  0  0
   -5.5770   -0.2720    0.7740 O   0  0  0  0  0  0  0  0  0  0  0  0
   -3.1930    0.0890    0.9070 C   0  0  2  0  0  0  0  0  0  0  0  0
   -3.7480    1.2420    1.4580 O   0  0  0  0  0  0  0  0  0  0  0  0
    0.9280   -1.5170   -0.2940 C   0  0  0  0  0  0  0  0  0  0  0  0
    0.2340   -3.0760   -0.7370 Cl  0  0  0  0  0  0  0  0  0  0  0  0
    2.2840   -1.3890   -0.1160 C   0  0  0  0  0  0  0  0  0  0  0  0
    4.7530    0.8790    1.3350 C   0  0  0  0  0  0  0  0  0  0  0  0
    6.1020    1.0780    1.5770 C   0  0  0  0  0  0  0  0  0  0  0  0
  1  2  3  0
  2  3  1  0
  3  4  2  0
  3 27  1  0
  4  5  1  0
  5  6  2  0
  6  7  1  0
  6 26  1  0
  7  8  2  0
  7 25  1  0
  8  9  1  0
  9 10  2  0
 10 11  1  0
 10 23  1  0
 12 11  1  6
 12 13  1  0
 12 21  1  0
 13 14  1  0
 14 15  1  1
 14 17  1  0
 15 16  1  0
 17 18  1  1
 17 19  1  0
 19 20  1  6
 19 21  1  0
 21 22  1  6
 23 24  1  0
 23 25  2  0
 26 27  2  0
M  END
