
     RDKit          3D

  9  8  0  0  0  0  0  0  0  0999 V2000
   -0.5710    2.3640   -1.4930 C   0  0  0  0  0  0  0  0  0  0  0  0
   -0.8150    1.1570   -1.9250 C   0  0  0  0  0  0  0  0  0  0  0  0
   -0.4000   -0.0590   -1.2660 C   0  0  0  0  0  0  0  0  0  0  0  0
   -0.6920   -1.2090   -1.8430 C   0  0  0  0  0  0  0  0  0  0  0  0
    0.3870   -0.0100    0.0190 C   0  0  2  0  0  0  0  0  0  0  0  0
    1.1170   -1.2870    0.2240 C   0  0  0  0  0  0  0  0  0  0  0  0
   -0.4760    0.4410    1.1470 C   0  0  0  0  0  0  0  0  0  0  0  0
    0.0520    0.5730    2.3600 O   0  0  0  0  0  0  0  0  0  0  0  0
    0.5680   -0.4340    3.0800 C   0  0  0  0  0  0  0  0  0  0  0  0
  1  2  2  0
  2  3  1  0
  3  4  2  0
  3  5  1  0
  5  6  1  1
  5  7  1  0
  7  8  1  0
  8  9  1  0
M  END
