
     RDKit          3D

  9  8  0  0  0  0  0  0  0  0999 V2000
    2.2010    1.0950    0.6510 C   0  0  0  0  0  0  0  0  0  0  0  0
    2.0030    0.2430   -0.3070 C   0  0  0  0  0  0  0  0  0  0  0  0
    0.7420   -0.4280   -0.5840 C   0  0  0  0  0  0  0  0  0  0  0  0
    0.7390   -1.2720   -1.5990 C   0  0  0  0  0  0  0  0  0  0  0  0
   -0.5070   -0.1830    0.1790 C   0  0  2  0  0  0  0  0  0  0  0  0
   -0.3240   -0.3400    1.6740 C   0  0  0  0  0  0  0  0  0  0  0  0
   -1.4990   -1.2990   -0.2710 C   0  0  0  0  0  0  0  0  0  0  0  0
   -1.2100    1.0680   -0.2370 C   0  0  0  0  0  0  0  0  0  0  0  0
   -0.5420    2.2430   -0.1190 O   0  0  0  0  0  0  0  0  0  0  0  0
  1  2  2  0
  2  3  1  0
  3  4  2  0
  3  5  1  0
  5  6  1  1
  5  7  1  0
  5  8  1  0
  8  9  1  0
M  END
