
     RDKit          3D

 24 26  0  0  0  0  0  0  0  0999 V2000
    6.3110    0.7150    0.8930 N   0  0  0  0  0  0  0  0  0  0  0  0
    5.1570   -0.0010    0.5060 C   0  0  0  0  0  0  0  0  0  0  0  0
    5.1980   -1.3360    0.1240 C   0  0  0  0  0  0  0  0  0  0  0  0
    6.4350   -1.9890    0.0860 O   0  0  0  0  0  0  0  0  0  0  0  0
    4.0610   -2.0210   -0.2330 C   0  0  0  0  0  0  0  0  0  0  0  0
    4.0730   -3.2260   -0.5770 O   0  0  0  0  0  0  0  0  0  0  0  0
    2.8810   -1.3310   -0.1980 N   0  0  0  0  0  0  0  0  0  0  0  0
    2.8130   -0.0190    0.1700 C   0  0  0  0  0  0  0  0  0  0  0  0
    1.5560    0.5060    0.1950 C   0  0  0  0  0  0  0  0  0  0  0  0
    0.3680   -0.0010   -0.4720 C   0  0  0  0  0  0  0  0  0  0  0  0
   -0.7300   -0.2910    0.2950 O   0  0  0  0  0  0  0  0  0  0  0  0
   -2.0270   -0.3640   -0.1560 C   0  0  0  0  0  0  0  0  0  0  0  0
   -3.0360   -0.8830    0.6510 C   0  0  0  0  0  0  0  0  0  0  0  0
   -4.3410   -0.9370    0.2320 C   0  0  0  0  0  0  0  0  0  0  0  0
   -4.6510   -0.4520   -1.0390 C   0  0  0  0  0  0  0  0  0  0  0  0
   -6.1290   -0.3680   -1.3540 C   0  0  0  0  0  0  0  0  0  0  0  0
   -6.7360    0.2310   -0.1590 N   0  0  0  0  0  0  0  0  0  0  0  0
   -3.7070    0.0480   -1.8410 C   0  0  0  0  0  0  0  0  0  0  0  0
   -2.3790    0.1000   -1.4050 C   0  0  0  0  0  0  0  0  0  0  0  0
    1.5050    1.8610    0.6390 C   0  0  0  0  0  0  0  0  0  0  0  0
   -0.2130    2.6960    0.5970 Br  0  0  0  0  0  0  0  0  0  0  0  0
    2.6210    2.5610    1.0000 C   0  0  0  0  0  0  0  0  0  0  0  0
    3.8900    2.0120    0.9710 C   0  0  0  0  0  0  0  0  0  0  0  0
    3.9480    0.6890    0.5360 C   0  0  0  0  0  0  0  0  0  0  0  0
  1  2  1  0
  2  3  2  0
  2 24  1  0
  3  4  1  0
  3  5  1  0
  5  6  2  0
  5  7  1  0
  7  8  1  0
  8  9  2  0
  8 24  1  0
  9 10  1  0
  9 20  1  0
 10 11  1  0
 11 12  1  0
 12 13  2  0
 12 19  1  0
 13 14  1  0
 14 15  2  0
 15 16  1  0
 15 18  1  0
 16 17  1  0
 18 19  2  0
 20 21  1  0
 20 22  2  0
 22 23  1  0
 23 24  2  0
M  CHG  1  17   1
M  END
