
     RDKit          3D

 24 26  0  0  0  0  0  0  0  0999 V2000
    5.4810   -0.9180    0.5400 N   0  0  0  0  0  0  0  0  0  0  0  0
    4.4970   -1.9100    0.8030 C   0  0  0  0  0  0  0  0  0  0  0  0
    3.0910   -1.5500    0.7310 C   0  0  0  0  0  0  0  0  0  0  0  0
    2.3200   -2.2020    1.5420 O   0  0  0  0  0  0  0  0  0  0  0  0
    2.4630   -0.5640   -0.1270 C   0  0  0  0  0  0  0  0  0  0  0  0
    3.1430    0.0650   -1.1370 C   0  0  0  0  0  0  0  0  0  0  0  0
    2.4880    1.0170   -1.8800 C   0  0  0  0  0  0  0  0  0  0  0  0
    3.4250    1.9070   -3.2950 Br  0  0  0  0  0  0  0  0  0  0  0  0
    1.1410    1.3390   -1.6080 C   0  0  0  0  0  0  0  0  0  0  0  0
    0.5840    2.3180   -2.4170 O   0  0  0  0  0  0  0  0  0  0  0  0
    0.4480    0.7310   -0.6180 C   0  0  0  0  0  0  0  0  0  0  0  0
   -0.9480    0.9760   -0.3390 C   0  0  0  0  0  0  0  0  0  0  0  0
   -1.7190    1.6400   -1.1720 C   0  0  0  0  0  0  0  0  0  0  0  0
   -3.1700    1.9900   -1.0530 C   0  0  0  0  0  0  0  0  0  0  0  0
   -3.5570    2.9940   -1.6910 O   0  0  0  0  0  0  0  0  0  0  0  0
   -4.1680    1.2990   -0.2870 N   0  0  0  0  0  0  0  0  0  0  0  0
   -3.9260    0.3780    0.7720 C   0  0  0  0  0  0  0  0  0  0  0  0
   -5.0740   -0.1710    1.2800 C   0  0  0  0  0  0  0  0  0  0  0  0
   -5.0470   -1.0850    2.3150 C   0  0  0  0  0  0  0  0  0  0  0  0
   -3.8300   -1.4540    2.8510 C   0  0  0  0  0  0  0  0  0  0  0  0
   -2.6770   -0.9080    2.3490 C   0  0  0  0  0  0  0  0  0  0  0  0
   -2.7200    0.0000    1.3180 C   0  0  0  0  0  0  0  0  0  0  0  0
   -1.4120    0.4610    0.9290 N   0  0  0  0  0  0  0  0  0  0  0  0
    1.1320   -0.2320    0.1250 C   0  0  0  0  0  0  0  0  0  0  0  0
  1  2  1  0
  2  3  1  0
  3  4  2  0
  3  5  1  0
  5  6  2  0
  5 24  1  0
  6  7  1  0
  7  8  1  0
  7  9  2  0
  9 10  1  0
  9 11  1  0
 11 12  1  0
 11 24  2  0
 12 13  2  0
 12 23  1  0
 13 14  1  0
 14 15  2  0
 14 16  1  0
 16 17  1  0
 17 18  2  0
 17 22  1  0
 18 19  1  0
 19 20  2  0
 20 21  1  0
 21 22  2  0
 22 23  1  0
M  CHG  1   1   1
M  END
