
     RDKit          3D

  9  8  0  0  0  0  0  0  0  0999 V2000
    1.9730    0.9480   -1.4560 C   0  0  0  0  0  0  0  0  0  0  0  0
    2.3770    0.6350   -0.2470 C   0  0  0  0  0  0  0  0  0  0  0  0
    1.7070   -0.2340    0.6840 C   0  0  0  0  0  0  0  0  0  0  0  0
    2.2810   -0.4590    1.8800 C   0  0  0  0  0  0  0  0  0  0  0  0
    0.4030   -0.8420    0.3940 C   0  0  2  0  0  0  0  0  0  0  0  0
    0.4720   -1.5590   -0.7980 O   0  0  0  0  0  0  0  0  0  0  0  0
   -0.7030    0.1570    0.3730 C   0  0  0  0  0  0  0  0  0  0  0  0
   -2.0330   -0.5080    0.0840 C   0  0  0  0  0  0  0  0  0  0  0  0
   -3.0630    0.6250    0.1010 C   0  0  0  0  0  0  0  0  0  0  0  0
  1  2  2  0
  2  3  1  0
  3  4  2  0
  3  5  1  0
  5  6  1  6
  5  7  1  0
  7  8  1  0
  8  9  1  0
M  END
