
     RDKit          3D

  9  8  0  0  0  0  0  0  0  0999 V2000
    1.5490    1.5900   -0.4820 C   0  0  0  0  0  0  0  0  0  0  0  0
    0.8880    0.4910   -0.1560 C   0  0  0  0  0  0  0  0  0  0  0  0
    1.4640   -0.5250    0.7980 C   0  0  0  0  0  0  0  0  0  0  0  0
    2.8360   -0.0840    1.2630 C   0  0  0  0  0  0  0  0  0  0  0  0
   -0.4620    0.1770   -0.7050 C   0  0  1  0  0  0  0  0  0  0  0  0
   -0.3030   -1.1570   -1.4460 C   0  0  0  0  0  0  0  0  0  0  0  0
   -1.4020    0.0730    0.4420 C   0  0  0  0  0  0  0  0  0  0  0  0
   -2.8230   -0.2430    0.0330 C   0  0  0  0  0  0  0  0  0  0  0  0
   -3.3560    0.7330   -0.8100 O   0  0  0  0  0  0  0  0  0  0  0  0
  1  2  2  0
  2  3  1  0
  2  5  1  0
  3  4  1  0
  5  6  1  1
  5  7  1  0
  7  8  1  0
  8  9  1  0
M  END
