
     RDKit          3D

  9  8  0  0  0  0  0  0  0  0999 V2000
    3.1770   -0.6400   -0.7000 C   0  0  0  0  0  0  0  0  0  0  0  0
    2.9970    0.7750   -0.3120 C   0  0  0  0  0  0  0  0  0  0  0  0
    1.8340    1.1980    0.1330 C   0  0  0  0  0  0  0  0  0  0  0  0
    0.7180    0.2810    0.2470 C   0  0  0  0  0  0  0  0  0  0  0  0
   -0.4470    0.7070    0.6930 C   0  0  0  0  0  0  0  0  0  0  0  0
   -1.6290   -0.1830    0.8330 C   0  0  2  0  0  0  0  0  0  0  0  0
   -1.3260   -1.5930    0.3900 C   0  0  0  0  0  0  0  0  0  0  0  0
   -2.7400    0.3640   -0.0430 C   0  0  0  0  0  0  0  0  0  0  0  0
   -3.0450    1.6530    0.3830 O   0  0  0  0  0  0  0  0  0  0  0  0
  1  2  1  0
  2  3  2  3
  3  4  1  0
  4  5  2  3
  5  6  1  0
  6  7  1  6
  6  8  1  0
  8  9  1  0
M  END
