
     RDKit          3D

  9  8  0  0  0  0  0  0  0  0999 V2000
    2.5240    1.4530    1.5660 C   0  0  0  0  0  0  0  0  0  0  0  0
    2.7980    0.6290    0.5880 C   0  0  0  0  0  0  0  0  0  0  0  0
    1.7040   -0.1220   -0.0450 C   0  0  0  0  0  0  0  0  0  0  0  0
    1.9800   -0.9430   -1.0200 C   0  0  0  0  0  0  0  0  0  0  0  0
    0.3100    0.0390    0.4050 C   0  0  0  0  0  0  0  0  0  0  0  0
   -0.5980   -0.8430   -0.4100 C   0  0  0  0  0  0  0  0  0  0  0  0
   -2.0390   -0.6740    0.0580 C   0  0  1  0  0  0  0  0  0  0  0  0
   -2.4120    0.7790   -0.1330 C   0  0  0  0  0  0  0  0  0  0  0  0
   -2.8900   -1.4530   -0.7160 O   0  0  0  0  0  0  0  0  0  0  0  0
  1  2  2  0
  2  3  1  0
  3  4  2  0
  3  5  1  0
  5  6  1  0
  6  7  1  0
  7  8  1  6
  7  9  1  0
M  END
