
     RDKit          3D

 17 17  0  0  0  0  0  0  0  0999 V2000
   -3.1970   -1.2980    0.9040 C   0  0  0  0  0  0  0  0  0  0  0  0
   -2.4050   -0.4380   -0.0660 C   0  0  1  0  0  0  0  0  0  0  0  0
   -2.9920   -0.6330   -1.4040 C   0  0  0  0  0  0  0  0  0  0  0  0
   -4.3560   -0.3390   -1.6910 N   0  0  0  0  0  0  0  0  0  0  0  0
   -2.2820   -1.0740   -2.3410 O   0  0  0  0  0  0  0  0  0  0  0  0
   -2.5970    1.0050    0.3560 C   0  0  0  0  0  0  0  0  0  0  0  0
   -1.8140    1.7950   -0.4580 O   0  0  0  0  0  0  0  0  0  0  0  0
   -0.4810    1.5270   -0.2860 C   0  0  0  0  0  0  0  0  0  0  0  0
   -0.2770    0.2040    0.4080 C   0  0  2  0  0  0  0  0  0  0  0  0
    1.1340   -0.2340    0.3610 C   0  0  0  0  0  0  0  0  0  0  0  0
    1.4440   -1.3680   -0.0880 O   0  0  0  0  0  0  0  0  0  0  0  0
    2.1980    0.5990    0.8160 N   0  0  0  0  0  0  0  0  0  0  0  0
    3.5840    0.1900    0.7790 C   0  0  0  0  0  0  0  0  0  0  0  0
    4.0360   -0.1090   -0.6090 C   0  0  0  0  0  0  0  0  0  0  0  0
    5.3760   -0.5240   -0.8050 N   0  0  0  0  0  0  0  0  0  0  0  0
    3.2260    0.0190   -1.5020 O   0  0  0  0  0  0  0  0  0  0  0  0
   -1.0840   -0.8040   -0.0960 O   0  0  0  0  0  0  0  0  0  0  0  0
  2  1  1  1
  2  3  1  0
  2  6  1  0
  2 17  1  0
  3  4  1  0
  3  5  2  0
  6  7  1  0
  7  8  1  0
  8  9  1  0
  9 10  1  6
  9 17  1  0
 10 11  2  0
 10 12  1  0
 12 13  1  0
 13 14  1  0
 14 15  1  0
 14 16  2  0
M  CHG  1  15   1
M  END
