
     RDKit          3D

 20 22  0  0  0  0  0  0  0  0999 V2000
    4.4980   -1.0900   -0.7460 C   0  0  0  0  0  0  0  0  0  0  0  0
    3.7590   -0.8670    0.4520 O   0  0  0  0  0  0  0  0  0  0  0  0
    2.3770   -0.7260    0.3430 C   0  0  0  0  0  0  0  0  0  0  0  0
    1.5860   -1.8310    0.4280 C   0  0  0  0  0  0  0  0  0  0  0  0
    2.1280   -3.1030    0.6180 O   0  0  0  0  0  0  0  0  0  0  0  0
    0.2430   -1.6510    0.3220 C   0  0  0  0  0  0  0  0  0  0  0  0
   -0.3860   -0.3960    0.1300 C   0  0  0  0  0  0  0  0  0  0  0  0
   -1.8380   -0.3780    0.0700 C   0  0  0  0  0  0  0  0  0  0  0  0
   -2.5120   -1.4280   -0.4800 C   0  0  0  0  0  0  0  0  0  0  0  0
   -3.9590   -1.2240   -0.4310 C   0  0  0  0  0  0  0  0  0  0  0  0
   -4.0930    0.0530    0.3020 C   0  0  0  0  0  0  0  0  0  0  0  0
   -2.8710    0.4980    0.5550 C   0  0  0  0  0  0  0  0  0  0  0  0
    0.4450    0.6810    0.0430 C   0  0  0  0  0  0  0  0  0  0  0  0
    1.8370    0.5250    0.1510 C   0  0  0  0  0  0  0  0  0  0  0  0
    2.4810    1.7390    0.0310 O   0  0  0  0  0  0  0  0  0  0  0  0
    1.5880    2.7290   -0.1700 C   0  0  0  0  0  0  0  0  0  0  0  0
    1.7930    3.9520   -0.3230 O   0  0  0  0  0  0  0  0  0  0  0  0
    0.2360    2.0850   -0.1780 C   0  0  0  0  0  0  0  0  0  0  0  0
   -0.8440    2.7150   -0.5120 C   0  0  0  0  0  0  0  0  0  0  0  0
   -0.7840    4.1250   -0.6590 O   0  0  0  0  0  0  0  0  0  0  0  0
  1  2  1  0
  2  3  1  0
  3  4  2  0
  3 14  1  0
  4  5  1  0
  4  6  1  0
  6  7  2  0
  7  8  1  0
  7 13  1  0
  8  9  2  0
  8 12  1  0
  9 10  1  0
 10 11  1  0
 11 12  2  0
 13 14  2  0
 13 18  1  0
 14 15  1  0
 15 16  1  0
 16 17  2  0
 16 18  1  0
 18 19  2  3
 19 20  1  0
M  END
