
     RDKit          3D

 20 22  0  0  0  0  0  0  0  0999 V2000
   -4.4080   -1.9490    0.0980 C   0  0  0  0  0  0  0  0  0  0  0  0
   -3.4940   -0.7800   -0.0370 C   0  0  0  0  0  0  0  0  0  0  0  0
   -3.9540    0.4990   -0.2010 C   0  0  0  0  0  0  0  0  0  0  0  0
   -3.1100    1.5570   -0.3220 C   0  0  0  0  0  0  0  0  0  0  0  0
   -3.6190    2.8440   -0.4880 O   0  0  0  0  0  0  0  0  0  0  0  0
   -1.7150    1.3750   -0.2840 C   0  0  0  0  0  0  0  0  0  0  0  0
   -0.9560    2.5010   -0.4150 O   0  0  0  0  0  0  0  0  0  0  0  0
   -1.2080    0.0840   -0.1180 C   0  0  0  0  0  0  0  0  0  0  0  0
    0.2300   -0.1600   -0.0710 C   0  0  0  0  0  0  0  0  0  0  0  0
    0.7220   -1.3760    0.0850 C   0  0  0  0  0  0  0  0  0  0  0  0
    2.1580   -1.6770    0.1390 C   0  0  0  0  0  0  0  0  0  0  0  0
    3.0360   -0.6840    0.0260 C   0  0  0  0  0  0  0  0  0  0  0  0
    4.4800   -1.0200    0.0840 C   0  0  0  0  0  0  0  0  0  0  0  0
    5.2860    0.0900   -0.0450 O   0  0  0  0  0  0  0  0  0  0  0  0
    4.8140    1.3750   -0.2090 C   0  0  0  0  0  0  0  0  0  0  0  0
    5.6330    2.3300   -0.3180 O   0  0  0  0  0  0  0  0  0  0  0  0
    3.3940    1.6890   -0.2640 C   0  0  0  0  0  0  0  0  0  0  0  0
    2.5400    0.6780   -0.1490 C   0  0  0  0  0  0  0  0  0  0  0  0
    1.1750    0.8500   -0.1860 O   0  0  0  0  0  0  0  0  0  0  0  0
   -2.1100   -0.9450   -0.0010 C   0  0  0  0  0  0  0  0  0  0  0  0
  1  2  1  0
  2  3  2  0
  2 20  1  0
  3  4  1  0
  4  5  1  0
  4  6  2  0
  6  7  1  0
  6  8  1  0
  8  9  1  0
  8 20  2  0
  9 10  2  0
  9 19  1  0
 10 11  1  0
 11 12  2  0
 12 13  1  0
 12 18  1  0
 13 14  1  0
 14 15  1  0
 15 16  2  0
 15 17  1  0
 17 18  2  0
 18 19  1  0
M  END
