
     RDKit          3D

 17 17  0  0  0  0  0  0  0  0999 V2000
   -4.2900   -1.2550    1.2880 C   0  0  0  0  0  0  0  0  0  0  0  0
   -3.4880   -0.1960    1.6190 O   0  0  0  0  0  0  0  0  0  0  0  0
   -3.2090    0.6670    0.5900 C   0  0  0  0  0  0  0  0  0  0  0  0
   -2.4550    0.0030   -0.5390 C   0  0  1  0  0  0  0  0  0  0  0  0
   -2.2070    0.9010   -1.5750 O   0  0  0  0  0  0  0  0  0  0  0  0
   -0.9000    1.3510   -1.3950 C   0  0  0  0  0  0  0  0  0  0  0  0
   -0.1930    0.0450   -1.1180 C   0  0  1  0  0  0  0  0  0  0  0  0
    1.1400    0.2160   -0.6490 N   0  0  0  0  0  0  0  0  0  0  0  0
    2.2580   -0.3640   -1.2970 C   0  0  0  0  0  0  0  0  0  0  0  0
    2.0360   -1.0510   -2.3250 O   0  0  0  0  0  0  0  0  0  0  0  0
    3.6480   -0.2150   -0.8520 C   0  0  0  0  0  0  0  0  0  0  0  0
    3.7370    0.5950    0.3310 O   0  0  0  0  0  0  0  0  0  0  0  0
    4.9530    0.8660    0.9240 C   0  0  0  0  0  0  0  0  0  0  0  0
    5.0950    1.6610    2.0930 N   0  0  0  0  0  0  0  0  0  0  0  0
    5.9870    0.3690    0.3800 O   0  0  0  0  0  0  0  0  0  0  0  0
   -1.1230   -0.5400   -0.0810 C   0  0  2  0  0  0  0  0  0  0  0  0
   -1.1640   -1.9820   -0.1360 N   0  0  0  0  0  0  0  0  0  0  0  0
  1  2  1  0
  2  3  1  0
  4  3  1  1
  4  5  1  0
  4 16  1  0
  5  6  1  0
  6  7  1  0
  7  8  1  1
  7 16  1  0
  8  9  1  0
  9 10  2  0
  9 11  1  0
 11 12  1  0
 12 13  1  0
 13 14  1  0
 13 15  2  0
 16 17  1  6
M  CHG  1  17   1
M  END
