
     RDKit          3D

 20 22  0  0  0  0  0  0  0  0999 V2000
    1.5750    2.5580    0.4260 O   0  0  0  0  0  0  0  0  0  0  0  0
    1.3710    1.3500    0.2040 C   0  0  0  0  0  0  0  0  0  0  0  0
    2.3440    0.2740    0.0600 C   0  0  0  0  0  0  0  0  0  0  0  0
    3.8190    0.4090    0.1520 C   0  0  0  0  0  0  0  0  0  0  0  0
    4.3490    1.3620   -0.8970 C   0  0  0  0  0  0  0  0  0  0  0  0
    5.7330    1.4790   -0.7990 O   0  0  0  0  0  0  0  0  0  0  0  0
    1.6850   -0.8580   -0.1700 C   0  0  0  0  0  0  0  0  0  0  0  0
    2.2340   -2.1260   -0.3670 O   0  0  0  0  0  0  0  0  0  0  0  0
    0.2660   -0.5810   -0.1870 C   0  0  0  0  0  0  0  0  0  0  0  0
    0.0290    0.7620    0.0380 C   0  0  0  0  0  0  0  0  0  0  0  0
   -1.2490    1.2810    0.0700 C   0  0  0  0  0  0  0  0  0  0  0  0
   -2.3140    0.4240   -0.1310 C   0  0  0  0  0  0  0  0  0  0  0  0
   -3.5970    0.9310   -0.1010 C   0  0  0  0  0  0  0  0  0  0  0  0
   -4.7200    0.1340   -0.2940 C   0  0  0  0  0  0  0  0  0  0  0  0
   -6.0060    0.6030   -0.2710 O   0  0  0  0  0  0  0  0  0  0  0  0
   -4.5020   -1.2080   -0.5190 C   0  0  0  0  0  0  0  0  0  0  0  0
   -3.2330   -1.7460   -0.5550 C   0  0  0  0  0  0  0  0  0  0  0  0
   -2.1190   -0.9230   -0.3580 C   0  0  0  0  0  0  0  0  0  0  0  0
   -0.8330   -1.4160   -0.3850 C   0  0  0  0  0  0  0  0  0  0  0  0
   -0.6900   -2.7810   -0.6180 O   0  0  0  0  0  0  0  0  0  0  0  0
  1  2  2  0
  2  3  1  0
  2 10  1  0
  3  4  1  0
  3  7  2  0
  4  5  1  0
  5  6  1  0
  7  8  1  0
  7  9  1  0
  9 10  2  0
  9 19  1  0
 10 11  1  0
 11 12  2  0
 12 13  1  0
 12 18  1  0
 13 14  2  0
 14 15  1  0
 14 16  1  0
 16 17  2  0
 17 18  1  0
 18 19  2  0
 19 20  1  0
M  END
