
     RDKit          3D

 17 17  0  0  0  0  0  0  0  0999 V2000
   -3.1860   -1.2120   -0.9930 N   0  0  0  0  0  0  0  0  0  0  0  0
   -2.5680   -0.3770    0.0000 C   0  0  1  0  0  0  0  0  0  0  0  0
   -1.0770   -0.5710    0.0860 C   0  0  0  0  0  0  0  0  0  0  0  0
   -0.7240   -1.9150    0.1990 O   0  0  0  0  0  0  0  0  0  0  0  0
    0.5450   -2.0490   -0.3630 C   0  0  0  0  0  0  0  0  0  0  0  0
    1.5450   -1.0850    0.2380 C   0  0  1  0  0  0  0  0  0  0  0  0
    2.8020   -1.9050    0.5590 C   0  0  0  0  0  0  0  0  0  0  0  0
    3.7640   -1.0500    1.0990 O   0  0  0  0  0  0  0  0  0  0  0  0
    1.9660   -0.0800   -0.7170 N   0  0  0  0  0  0  0  0  0  0  0  0
    2.1460    1.2910   -0.3970 C   0  0  0  0  0  0  0  0  0  0  0  0
    3.0250    1.9610   -0.9930 O   0  0  0  0  0  0  0  0  0  0  0  0
    1.3270    1.9770    0.6290 C   0  0  0  0  0  0  0  0  0  0  0  0
    0.0420    2.5070    0.0200 C   0  0  0  0  0  0  0  0  0  0  0  0
   -1.0690    2.2960    0.8410 O   0  0  0  0  0  0  0  0  0  0  0  0
   -2.3840    2.1250    0.4720 C   0  0  0  0  0  0  0  0  0  0  0  0
   -3.3090    2.9740    0.7710 O   0  0  0  0  0  0  0  0  0  0  0  0
   -2.8530    0.9920   -0.2760 N   0  0  0  0  0  0  0  0  0  0  0  0
  2  1  1  6
  2  3  1  0
  2 17  1  0
  3  4  1  0
  4  5  1  0
  5  6  1  0
  6  7  1  6
  6  9  1  0
  7  8  1  0
  9 10  1  0
 10 11  2  0
 10 12  1  0
 12 13  1  0
 13 14  1  0
 14 15  1  0
 15 16  2  0
 15 17  1  0
M  CHG  1   1   1
M  END
