
     RDKit          3D

 20 22  0  0  0  0  0  0  0  0999 V2000
    1.4130    0.4920    1.6010 O   0  0  0  0  0  0  0  0  0  0  0  0
    1.9750    0.4430    0.4850 C   0  0  0  0  0  0  0  0  0  0  0  0
    3.1830    1.2370    0.1480 C   0  0  0  0  0  0  0  0  0  0  0  0
    3.6290    2.0940    1.3130 C   0  0  0  0  0  0  0  0  0  0  0  0
    3.9360    1.2830    2.4210 O   0  0  0  0  0  0  0  0  0  0  0  0
    1.4480   -0.3890   -0.4760 O   0  0  0  0  0  0  0  0  0  0  0  0
    0.3290   -1.1650   -0.2560 C   0  0  0  0  0  0  0  0  0  0  0  0
    0.3670   -2.4500    0.2390 C   0  0  0  0  0  0  0  0  0  0  0  0
    1.6060   -3.0200    0.5440 O   0  0  0  0  0  0  0  0  0  0  0  0
   -0.7970   -3.1810    0.4380 C   0  0  0  0  0  0  0  0  0  0  0  0
   -0.6610   -4.4750    0.9440 O   0  0  0  0  0  0  0  0  0  0  0  0
   -2.0160   -2.6230    0.1400 C   0  0  0  0  0  0  0  0  0  0  0  0
   -2.0790   -1.3150   -0.3660 C   0  0  0  0  0  0  0  0  0  0  0  0
   -0.9180   -0.6290   -0.5480 C   0  0  0  0  0  0  0  0  0  0  0  0
   -1.2940    0.6880   -1.0790 C   0  0  0  0  0  0  0  0  0  0  0  0
   -0.7310    1.8250   -1.4760 C   0  0  0  0  0  0  0  0  0  0  0  0
   -1.8260    2.7200   -1.8950 C   0  0  0  0  0  0  0  0  0  0  0  0
   -3.0740    1.9710   -1.6950 C   0  0  0  0  0  0  0  0  0  0  0  0
   -2.7420    0.7670   -1.2100 C   0  0  0  0  0  0  0  0  0  0  0  0
   -3.2730   -0.5330   -0.7480 C   0  0  0  0  0  0  0  0  0  0  0  0
  1  2  2  0
  2  3  1  0
  2  6  1  0
  3  4  1  0
  4  5  1  0
  6  7  1  0
  7  8  2  0
  7 14  1  0
  8  9  1  0
  8 10  1  0
 10 11  1  0
 10 12  2  0
 12 13  1  0
 13 14  2  0
 13 20  1  0
 14 15  1  0
 15 16  2  0
 15 19  1  0
 16 17  1  0
 17 18  1  0
 18 19  2  0
 19 20  1  0
M  END
