
     RDKit          3D

 17 18  0  0  0  0  0  0  0  0999 V2000
   -4.4230    0.4050    0.3760 C   0  0  0  0  0  0  0  0  0  0  0  0
   -2.9460    0.5120   -0.0360 C   0  0  2  0  0  0  0  0  0  0  0  0
   -2.8700   -0.0540   -1.2960 O   0  0  0  0  0  0  0  0  0  0  0  0
   -2.1670   -0.2620    0.9570 C   0  0  2  0  0  0  0  0  0  0  0  0
   -2.3450    0.4110    2.2060 O   0  0  0  0  0  0  0  0  0  0  0  0
   -0.7280   -0.4700    0.7190 C   0  0  1  0  0  0  0  0  0  0  0  0
   -0.4510   -1.3790   -0.4510 C   0  0  0  0  0  0  0  0  0  0  0  0
    0.9620   -1.7290   -0.4910 N   0  0  0  0  0  0  0  0  0  0  0  0
    1.9190   -0.7270   -0.2090 C   0  0  0  0  0  0  0  0  0  0  0  0
    3.2030   -0.9250   -0.4730 N   0  0  0  0  0  0  0  0  0  0  0  0
    4.1230    0.0180   -0.2100 C   0  0  0  0  0  0  0  0  0  0  0  0
    5.4710   -0.2840   -0.5260 N   0  0  0  0  0  0  0  0  0  0  0  0
    3.7530    1.1970    0.3340 N   0  0  0  0  0  0  0  0  0  0  0  0
    2.4490    1.4170    0.6100 C   0  0  0  0  0  0  0  0  0  0  0  0
    2.1110    2.5340    1.1230 O   0  0  0  0  0  0  0  0  0  0  0  0
    1.4800    0.4660    0.3510 C   0  0  0  0  0  0  0  0  0  0  0  0
    0.1030    0.6840    0.6360 N   0  0  0  0  0  0  0  0  0  0  0  0
  2  1  1  1
  2  3  1  0
  2  4  1  0
  4  5  1  1
  4  6  1  0
  6  7  1  6
  6 17  1  0
  7  8  1  0
  8  9  1  0
  9 10  1  0
  9 16  2  0
 10 11  2  0
 11 12  1  0
 11 13  1  0
 13 14  1  0
 14 15  2  0
 14 16  1  0
 16 17  1  0
M  END
