
     RDKit          3D

 10 10  0  0  0  0  0  0  0  0999 V2000
   -0.9410    1.3220    1.0020 N   0  0  0  0  0  0  0  0  0  0  0  0
   -0.9630    0.0020    0.4450 C   0  0  1  0  0  0  0  0  0  0  0  0
   -1.9600   -0.0700   -0.7210 C   0  0  0  0  0  0  0  0  0  0  0  0
   -3.2470    0.2440   -0.2930 O   0  0  0  0  0  0  0  0  0  0  0  0
    0.3610   -0.4480   -0.0990 C   0  0  2  0  0  0  0  0  0  0  0  0
    0.2110   -1.7270   -0.6040 O   0  0  0  0  0  0  0  0  0  0  0  0
    1.4740   -0.4240    0.8890 C   0  0  0  0  0  0  0  0  0  0  0  0
    2.6700   -0.2590   -0.0590 C   0  0  0  0  0  0  0  0  0  0  0  0
    2.2160    0.6520   -0.9890 O   0  0  0  0  0  0  0  0  0  0  0  0
    0.8780    0.4390   -1.2000 C   0  0  0  0  0  0  0  0  0  0  0  0
  2  1  1  6
  2  3  1  0
  2  5  1  0
  3  4  1  0
  5  6  1  6
  5  7  1  0
  5 10  1  0
  7  8  1  0
  8  9  1  0
  9 10  1  0
M  CHG  1   1   1
M  END
