
     RDKit          3D

 10 10  0  0  0  0  0  0  0  0999 V2000
    2.9120    0.2310    0.2180 O   0  0  0  0  0  0  0  0  0  0  0  0
    1.7380    0.2570   -0.5040 C   0  0  0  0  0  0  0  0  0  0  0  0
    0.6840   -0.6860    0.0290 C   0  0  1  0  0  0  0  0  0  0  0  0
    1.2170   -1.9740   -0.0280 O   0  0  0  0  0  0  0  0  0  0  0  0
    0.1900   -0.3010    1.3830 C   0  0  0  0  0  0  0  0  0  0  0  0
   -1.2560    0.0450    1.4470 C   0  0  0  0  0  0  0  0  0  0  0  0
   -1.7290    0.9130    0.4130 N   0  0  0  0  0  0  0  0  0  0  0  0
   -1.1800    0.6680   -0.8830 C   0  0  0  0  0  0  0  0  0  0  0  0
   -0.4800   -0.6480   -0.9300 C   0  0  1  0  0  0  0  0  0  0  0  0
    0.0190   -0.8590   -2.2120 O   0  0  0  0  0  0  0  0  0  0  0  0
  1  2  1  0
  2  3  1  0
  3  4  1  1
  3  5  1  0
  3  9  1  0
  5  6  1  0
  6  7  1  0
  7  8  1  0
  8  9  1  0
  9 10  1  6
M  CHG  1   7   1
M  END
