
     RDKit          3D

 10 10  0  0  0  0  0  0  0  0999 V2000
    1.8500    0.4320   -0.8430 N   0  0  0  0  0  0  0  0  0  0  0  0
    1.2370    0.0280    0.3850 C   0  0  2  0  0  0  0  0  0  0  0  0
    0.9510   -1.4470    0.3460 C   0  0  0  0  0  0  0  0  0  0  0  0
   -0.2830   -1.6420    0.9610 O   0  0  0  0  0  0  0  0  0  0  0  0
   -1.3240   -1.6120    0.0730 C   0  0  0  0  0  0  0  0  0  0  0  0
   -1.9860   -0.2990   -0.1020 C   0  0  0  0  0  0  0  0  0  0  0  0
   -1.0690    0.8820   -0.1590 C   0  0  2  0  0  0  0  0  0  0  0  0
   -0.6380    1.1650   -1.4530 O   0  0  0  0  0  0  0  0  0  0  0  0
    0.0610    0.8500    0.7960 C   0  0  2  0  0  0  0  0  0  0  0  0
    0.5260    2.1770    0.9530 O   0  0  0  0  0  0  0  0  0  0  0  0
  2  1  1  6
  2  3  1  0
  2  9  1  0
  3  4  1  0
  4  5  1  0
  5  6  1  0
  6  7  1  0
  7  8  1  6
  7  9  1  0
  9 10  1  6
M  CHG  1   1   1
M  END
