
     RDKit          3D

 10 10  0  0  0  0  0  0  0  0999 V2000
    2.1820   -0.7310   -0.5180 N   0  0  0  0  0  0  0  0  0  0  0  0
    1.5370   -0.4160    0.7280 C   0  0  0  0  0  0  0  0  0  0  0  0
    0.3150    0.4550    0.5610 C   0  0  1  0  0  0  0  0  0  0  0  0
   -0.2160    0.6900    1.8150 O   0  0  0  0  0  0  0  0  0  0  0  0
    0.5720    1.7240   -0.1700 C   0  0  0  0  0  0  0  0  0  0  0  0
   -0.2080    1.7680   -1.2950 O   0  0  0  0  0  0  0  0  0  0  0  0
   -1.1600    0.7900   -1.2330 C   0  0  0  0  0  0  0  0  0  0  0  0
   -0.6560   -0.2940   -0.3220 C   0  0  2  0  0  0  0  0  0  0  0  0
   -1.7470   -0.8380    0.5700 C   0  0  0  0  0  0  0  0  0  0  0  0
   -2.6970   -1.5540   -0.1830 O   0  0  0  0  0  0  0  0  0  0  0  0
  1  2  1  0
  2  3  1  0
  3  4  1  1
  3  5  1  0
  3  8  1  0
  5  6  1  0
  6  7  1  0
  7  8  1  0
  8  9  1  1
  9 10  1  0
M  CHG  1   1   1
M  END
