
     RDKit          3D

 10 10  0  0  0  0  0  0  0  0999 V2000
   -1.6140   -0.4270    1.3720 C   0  0  0  0  0  0  0  0  0  0  0  0
   -0.7140    0.0280    0.2460 C   0  0  2  0  0  0  0  0  0  0  0  0
   -0.6830   -0.9570   -0.8540 C   0  0  0  0  0  0  0  0  0  0  0  0
   -0.2120   -2.2060   -0.4360 O   0  0  0  0  0  0  0  0  0  0  0  0
    0.5080    0.6780    0.7130 C   0  0  1  0  0  0  0  0  0  0  0  0
    1.7420    0.6330   -0.1180 C   0  0  0  0  0  0  0  0  0  0  0  0
    2.4430   -0.6220   -0.0100 N   0  0  0  0  0  0  0  0  0  0  0  0
   -0.1240    1.9320    0.5580 O   0  0  0  0  0  0  0  0  0  0  0  0
   -1.1210    1.3990   -0.2560 C   0  0  1  0  0  0  0  0  0  0  0  0
   -0.9050    1.5660   -1.6280 O   0  0  0  0  0  0  0  0  0  0  0  0
  2  1  1  1
  2  3  1  0
  2  5  1  0
  2  9  1  0
  3  4  1  0
  5  6  1  6
  5  8  1  0
  6  7  1  0
  8  9  1  0
  9 10  1  6
M  CHG  1   7   1
M  END
