
     RDKit          3D

 11 11  0  0  0  0  0  0  0  0999 V2000
   -0.9240    1.8300   -0.1680 N   0  0  0  0  0  0  0  0  0  0  0  0
   -0.1960    0.6970    0.4290 C   0  0  2  0  0  0  0  0  0  0  0  0
    1.2580    1.0050    0.3120 C   0  0  2  0  0  0  0  0  0  0  0  0
    1.4650    1.8960   -0.7690 O   0  0  0  0  0  0  0  0  0  0  0  0
    2.1560   -0.1710    0.2330 C   0  0  0  0  0  0  0  0  0  0  0  0
    1.5090   -1.4810    0.0090 C   0  0  0  0  0  0  0  0  0  0  0  0
    0.2550   -1.5160   -0.4550 O   0  0  0  0  0  0  0  0  0  0  0  0
   -0.6400   -0.5690   -0.1770 C   0  0  2  0  0  0  0  0  0  0  0  0
   -1.2990   -0.2720   -1.3980 O   0  0  0  0  0  0  0  0  0  0  0  0
   -1.7330   -1.2020    0.7000 C   0  0  0  0  0  0  0  0  0  0  0  0
   -2.3570   -2.2480    0.0500 O   0  0  0  0  0  0  0  0  0  0  0  0
  2  1  1  6
  2  3  1  0
  2  8  1  0
  3  4  1  6
  3  5  1  0
  5  6  1  0
  6  7  1  0
  7  8  1  0
  8  9  1  6
  8 10  1  0
 10 11  1  0
M  CHG  1   1   1
M  END
