
     RDKit          3D

 11 11  0  0  0  0  0  0  0  0999 V2000
    0.0990   -0.9120   -1.3140 N   0  0  0  0  0  0  0  0  0  0  0  0
    0.0440    0.2550   -0.4910 C   0  0  1  0  0  0  0  0  0  0  0  0
    1.4000    0.7750   -0.1080 C   0  0  0  0  0  0  0  0  0  0  0  0
    2.2050   -0.2380    0.6640 C   0  0  0  0  0  0  0  0  0  0  0  0
    3.4310    0.3390    0.9660 O   0  0  0  0  0  0  0  0  0  0  0  0
   -0.8110    1.3080   -1.1600 C   0  0  0  0  0  0  0  0  0  0  0  0
   -2.1180    0.9500   -0.9580 O   0  0  0  0  0  0  0  0  0  0  0  0
   -2.1870   -0.0160    0.0090 C   0  0  2  0  0  0  0  0  0  0  0  0
   -3.2310    0.1520    0.8960 O   0  0  0  0  0  0  0  0  0  0  0  0
   -0.8290   -0.0260    0.7230 C   0  0  2  0  0  0  0  0  0  0  0  0
   -0.7830    1.0580    1.5920 O   0  0  0  0  0  0  0  0  0  0  0  0
  2  1  1  6
  2  3  1  0
  2  6  1  0
  2 10  1  0
  3  4  1  0
  4  5  1  0
  6  7  1  0
  7  8  1  0
  8  9  1  1
  8 10  1  0
 10 11  1  1
M  CHG  1   1   1
M  END
