
     RDKit          3D

 24 24  0  0  0  0  0  0  0  0999 V2000
    1.2280   -3.9130    0.8490 C   0  0  0  0  0  0  0  0  0  0  0  0
    0.5150   -2.9210    1.3590 O   0  0  0  0  0  0  0  0  0  0  0  0
    0.1410   -1.8090    0.5850 C   0  0  1  0  0  0  0  0  0  0  0  0
   -0.5980   -2.3030   -0.6190 C   0  0  0  0  0  0  0  0  0  0  0  0
   -0.8250   -1.0850    1.5010 C   0  0  0  0  0  0  0  0  0  0  0  0
   -1.4790   -0.0080    1.2060 O   0  0  0  0  0  0  0  0  0  0  0  0
   -2.4470    0.2190    0.3330 C   0  0  1  0  0  0  0  0  0  0  0  0
   -3.8080    0.4710    1.0380 C   0  0  0  0  0  0  0  0  0  0  0  0
   -4.8740    0.8340    0.0730 C   0  0  2  0  0  0  0  0  0  0  0  0
   -5.3590   -0.2890   -0.6180 O   0  0  0  0  0  0  0  0  0  0  0  0
   -4.4670    1.8800   -0.9290 C   0  0  0  0  0  0  0  0  0  0  0  0
   -3.1750    2.4850   -0.4230 C   0  0  0  0  0  0  0  0  0  0  0  0
   -2.1280    1.3730   -0.5740 C   0  0  2  0  0  0  0  0  0  0  0  0
   -2.2040    1.0080   -1.9270 O   0  0  0  0  0  0  0  0  0  0  0  0
    1.3840   -1.0160    0.2850 C   0  0  2  0  0  0  0  0  0  0  0  0
    1.1460    0.1820   -0.6160 C   0  0  0  0  0  0  0  0  0  0  0  0
    2.2570   -1.8290   -0.4270 O   0  0  0  0  0  0  0  0  0  0  0  0
    2.0770   -0.5420    1.5120 C   0  0  0  0  0  0  0  0  0  0  0  0
    3.2930    0.2250    1.1920 C   0  0  0  0  0  0  0  0  0  0  0  0
    4.0100    0.7200    2.1500 O   0  0  0  0  0  0  0  0  0  0  0  0
    3.8010    0.5050   -0.0580 O   0  0  0  0  0  0  0  0  0  0  0  0
    4.9740    1.2480   -0.3120 C   0  0  0  0  0  0  0  0  0  0  0  0
    4.9390    2.6450    0.2050 C   0  0  0  0  0  0  0  0  0  0  0  0
    6.1690    3.2390   -0.1280 O   0  0  0  0  0  0  0  0  0  0  0  0
  1  2  1  0
  2  3  1  0
  3  4  1  6
  3  5  1  0
  3 15  1  0
  5  6  1  0
  7  6  1  1
  7  8  1  0
  7 13  1  0
  8  9  1  0
  9 10  1  6
  9 11  1  0
 11 12  1  0
 12 13  1  0
 13 14  1  6
 15 16  1  6
 15 17  1  0
 15 18  1  0
 18 19  1  0
 19 20  2  0
 19 21  1  0
 21 22  1  0
 22 23  1  0
 23 24  1  0
M  END
