
     RDKit          3D

 24 24  0  0  0  0  0  0  0  0999 V2000
    5.3570   -2.1340   -0.6230 C   0  0  0  0  0  0  0  0  0  0  0  0
    5.9180   -0.9700   -1.0830 O   0  0  0  0  0  0  0  0  0  0  0  0
    5.5670    0.1350   -0.3780 C   0  0  0  0  0  0  0  0  0  0  0  0
    4.1040    0.4830   -0.3370 C   0  0  0  0  0  0  0  0  0  0  0  0
    3.2880   -0.4580    0.2120 O   0  0  0  0  0  0  0  0  0  0  0  0
    1.9560   -0.1700    0.2760 C   0  0  0  0  0  0  0  0  0  0  0  0
    1.2680    0.0790   -1.0210 C   0  0  1  0  0  0  0  0  0  0  0  0
    1.3900   -1.0660   -1.8150 O   0  0  0  0  0  0  0  0  0  0  0  0
   -0.1940    0.4380   -0.8740 C   0  0  1  0  0  0  0  0  0  0  0  0
   -0.9410   -0.7440   -0.3570 C   0  0  0  0  0  0  0  0  0  0  0  0
   -2.4080   -0.4050   -0.2070 C   0  0  2  0  0  0  0  0  0  0  0  0
   -2.5070    0.6520    0.6890 O   0  0  0  0  0  0  0  0  0  0  0  0
   -3.1950   -1.5330    0.3210 C   0  0  0  0  0  0  0  0  0  0  0  0
   -4.1850   -2.0230   -0.3980 C   0  0  0  0  0  0  0  0  0  0  0  0
   -5.0670   -3.1480   -0.0150 C   0  0  0  0  0  0  0  0  0  0  0  0
   -4.7110   -3.6380    1.2360 O   0  0  0  0  0  0  0  0  0  0  0  0
   -3.6790   -3.1330    1.9950 C   0  0  0  0  0  0  0  0  0  0  0  0
   -2.9180   -2.1370    1.6240 C   0  0  0  0  0  0  0  0  0  0  0  0
   -0.2660    1.5850   -0.0630 O   0  0  0  0  0  0  0  0  0  0  0  0
   -0.7200    2.8080   -0.4870 C   0  0  0  0  0  0  0  0  0  0  0  0
   -1.0950    2.8850   -1.6950 O   0  0  0  0  0  0  0  0  0  0  0  0
   -0.8040    4.0160    0.3380 C   0  0  2  0  0  0  0  0  0  0  0  0
   -1.7890    3.7960    1.4940 C   0  0  0  0  0  0  0  0  0  0  0  0
   -1.3080    5.0950   -0.3860 O   0  0  0  0  0  0  0  0  0  0  0  0
  1  2  1  0
  2  3  1  0
  3  4  1  0
  4  5  1  0
  5  6  1  0
  6  7  1  0
  7  8  1  6
  7  9  1  0
  9 10  1  1
  9 19  1  0
 10 11  1  0
 11 12  1  1
 11 13  1  0
 13 14  2  0
 13 18  1  0
 14 15  1  0
 15 16  1  0
 16 17  1  0
 17 18  2  0
 19 20  1  0
 20 21  2  0
 20 22  1  0
 22 23  1  1
 22 24  1  0
M  END
