
     RDKit          3D

 24 24  0  0  0  0  0  0  0  0999 V2000
   -5.9710    0.2450   -0.3240 C   0  0  0  0  0  0  0  0  0  0  0  0
   -5.7000    1.1800    0.8270 C   0  0  0  0  0  0  0  0  0  0  0  0
   -4.2190    1.4790    0.9530 C   0  0  1  0  0  0  0  0  0  0  0  0
   -3.9640    2.4130    2.1070 C   0  0  0  0  0  0  0  0  0  0  0  0
   -4.2370    1.8030    3.3330 O   0  0  0  0  0  0  0  0  0  0  0  0
   -3.4410    0.3230    0.9960 O   0  0  0  0  0  0  0  0  0  0  0  0
   -2.5000   -0.0100    0.0350 C   0  0  0  0  0  0  0  0  0  0  0  0
   -2.3510    0.7840   -0.9200 O   0  0  0  0  0  0  0  0  0  0  0  0
   -1.7060   -1.2720    0.1580 C   0  0  0  0  0  0  0  0  0  0  0  0
   -0.7410   -1.3970   -1.0300 C   0  0  1  0  0  0  0  0  0  0  0  0
    0.1850   -0.2610   -1.0660 C   0  0  0  0  0  0  0  0  0  0  0  0
    1.6170   -0.5360   -1.3210 C   0  0  1  0  0  0  0  0  0  0  0  0
    2.3980   -0.3340   -0.1850 O   0  0  0  0  0  0  0  0  0  0  0  0
    3.4240    0.5700   -0.4110 C   0  0  0  0  0  0  0  0  0  0  0  0
    4.2610    0.7820    0.8240 C   0  0  2  0  0  0  0  0  0  0  0  0
    5.3850    1.7620    0.5660 C   0  0  0  0  0  0  0  0  0  0  0  0
    4.8010   -0.4390    1.1840 O   0  0  0  0  0  0  0  0  0  0  0  0
    3.4360    1.3530    1.9630 C   0  0  0  0  0  0  0  0  0  0  0  0
    4.2090    1.5440    3.1020 O   0  0  0  0  0  0  0  0  0  0  0  0
    1.8320   -1.9630   -1.7640 C   0  0  1  0  0  0  0  0  0  0  0  0
    1.1210   -2.1330   -3.0970 C   0  0  0  0  0  0  0  0  0  0  0  0
    3.1430   -2.3220   -1.8880 O   0  0  0  0  0  0  0  0  0  0  0  0
    1.0900   -2.7930   -0.7050 C   0  0  0  0  0  0  0  0  0  0  0  0
   -0.2340   -2.6520   -1.0110 O   0  0  0  0  0  0  0  0  0  0  0  0
  1  2  1  0
  3  2  1  1
  3  4  1  0
  3  6  1  0
  4  5  1  0
  6  7  1  0
  7  8  2  0
  7  9  1  0
 10  9  1  1
 10 11  1  0
 10 24  1  0
 11 12  1  0
 12 13  1  1
 12 20  1  0
 13 14  1  0
 14 15  1  0
 15 16  1  6
 15 17  1  0
 15 18  1  0
 18 19  1  0
 20 21  1  6
 20 22  1  0
 20 23  1  0
 23 24  1  0
M  END
