
     RDKit          3D

 23 23  0  0  0  0  0  0  0  0999 V2000
    0.7570   -1.1080    1.8950 C   0  0  0  0  0  0  0  0  0  0  0  0
    0.0020   -0.0650    1.1390 C   0  0  1  0  0  0  0  0  0  0  0  0
    0.9030    0.9770    0.5600 C   0  0  0  0  0  0  0  0  0  0  0  0
    1.9370    0.5240   -0.3950 C   0  0  0  0  0  0  0  0  0  0  0  0
    2.8940   -0.3350    0.0580 O   0  0  0  0  0  0  0  0  0  0  0  0
    3.7190    0.1550    1.0560 C   0  0  0  0  0  0  0  0  0  0  0  0
    4.5050    1.3760    0.6170 C   0  0  0  0  0  0  0  0  0  0  0  0
    5.3270    1.1760   -0.4550 O   0  0  0  0  0  0  0  0  0  0  0  0
    6.3100    0.2220   -0.2910 C   0  0  0  0  0  0  0  0  0  0  0  0
    7.1140    0.1730   -1.5850 C   0  0  0  0  0  0  0  0  0  0  0  0
    6.2200   -0.1720   -2.6000 O   0  0  0  0  0  0  0  0  0  0  0  0
   -0.8310   -0.6480    0.0200 C   0  0  0  0  0  0  0  0  0  0  0  0
   -2.2880   -0.2570    0.3290 C   0  0  1  0  0  0  0  0  0  0  0  0
   -3.1850   -0.5030   -0.8130 C   0  0  1  0  0  0  0  0  0  0  0  0
   -3.2910   -1.7920   -1.2660 O   0  0  0  0  0  0  0  0  0  0  0  0
   -4.4920    0.2220   -0.6440 C   0  0  1  0  0  0  0  0  0  0  0  0
   -5.4460   -0.6440    0.1240 C   0  0  0  0  0  0  0  0  0  0  0  0
   -4.3310    1.4970   -0.1460 O   0  0  0  0  0  0  0  0  0  0  0  0
   -5.1520    0.4310   -2.0310 C   0  0  0  0  0  0  0  0  0  0  0  0
   -6.3640    1.0850   -1.8440 O   0  0  0  0  0  0  0  0  0  0  0  0
   -2.5910   -0.9280    1.6160 C   0  0  0  0  0  0  0  0  0  0  0  0
   -1.7260   -0.2130    2.6720 C   0  0  0  0  0  0  0  0  0  0  0  0
   -0.8010    0.6080    2.0750 O   0  0  0  0  0  0  0  0  0  0  0  0
  2  1  1  1
  2  3  1  0
  2 12  1  0
  2 23  1  0
  3  4  1  0
  4  5  1  0
  5  6  1  0
  6  7  1  0
  7  8  1  0
  8  9  1  0
  9 10  1  0
 10 11  1  0
 13 12  1  6
 13 14  1  0
 13 21  1  0
 14 15  1  1
 14 16  1  0
 16 17  1  1
 16 18  1  0
 16 19  1  0
 19 20  1  0
 21 22  1  0
 22 23  1  0
M  END
