
     RDKit          3D

 25 28  0  0  0  0  0  0  0  0999 V2000
    5.2780    0.5470    2.0740 C   0  0  0  0  0  0  0  0  0  0  0  0
    5.1880    0.9190    0.6480 C   0  0  0  0  0  0  0  0  0  0  0  0
    6.3260    1.2830   -0.0160 N   0  0  0  0  0  0  0  0  0  0  0  0
    6.2990    1.6290   -1.3150 C   0  0  0  0  0  0  0  0  0  0  0  0
    5.0820    1.6050   -1.9580 C   0  0  0  0  0  0  0  0  0  0  0  0
    3.9040    1.2400   -1.3200 C   0  0  0  0  0  0  0  0  0  0  0  0
    3.9660    0.8880    0.0240 C   0  0  0  0  0  0  0  0  0  0  0  0
    2.7880    0.5000    0.7500 C   0  0  0  0  0  0  0  0  0  0  0  0
    1.6120    0.4430    0.2500 N   0  0  0  0  0  0  0  0  0  0  0  0
    0.5280    0.0580    1.0240 N   0  0  0  0  0  0  0  0  0  0  0  0
   -0.0300   -1.2630    0.9950 C   0  0  0  0  0  0  0  0  0  0  0  0
    0.1480   -2.2960    1.8310 N   0  0  0  0  0  0  0  0  0  0  0  0
   -0.5570   -3.3670    1.4230 C   0  0  0  0  0  0  0  0  0  0  0  0
   -1.2140   -2.9890    0.2690 C   0  0  0  0  0  0  0  0  0  0  0  0
   -0.8790   -1.7140    0.0330 N   0  0  0  0  0  0  0  0  0  0  0  0
   -1.3250   -0.8880   -1.0760 C   0  0  0  0  0  0  0  0  0  0  0  0
   -2.5930   -0.1950   -0.6950 C   0  0  0  0  0  0  0  0  0  0  0  0
   -2.6460    1.0010   -0.0270 C   0  0  0  0  0  0  0  0  0  0  0  0
   -3.8460    1.6020    0.2970 C   0  0  0  0  0  0  0  0  0  0  0  0
   -5.0640    1.0180   -0.0410 C   0  0  0  0  0  0  0  0  0  0  0  0
   -5.0100   -0.1800   -0.7100 C   0  0  0  0  0  0  0  0  0  0  0  0
   -3.8190   -0.7900   -1.0390 C   0  0  0  0  0  0  0  0  0  0  0  0
   -6.3520   -0.5540   -0.9330 O   0  0  0  0  0  0  0  0  0  0  0  0
   -7.1420    0.6470   -0.8740 C   0  0  0  0  0  0  0  0  0  0  0  0
   -6.4100    1.3590    0.1370 O   0  0  0  0  0  0  0  0  0  0  0  0
  1  2  1  0
  2  3  2  0
  2  7  1  0
  3  4  1  0
  4  5  2  0
  5  6  1  0
  6  7  2  0
  7  8  1  0
  8  9  2  3
  9 10  1  0
 10 11  1  0
 11 12  1  0
 11 15  2  0
 12 13  1  0
 13 14  2  0
 14 15  1  0
 15 16  1  0
 16 17  1  0
 17 18  2  0
 17 22  1  0
 18 19  1  0
 19 20  2  0
 20 21  1  0
 20 25  1  0
 21 22  2  0
 21 23  1  0
 23 24  1  0
 24 25  1  0
M  CHG  1  15   1
M  END
