
     RDKit          3D

 25 27  0  0  0  0  0  0  0  0999 V2000
   -1.1080    4.3850    0.0770 C   0  0  0  0  0  0  0  0  0  0  0  0
   -1.6940    3.4750    1.1400 C   0  0  1  0  0  0  0  0  0  0  0  0
   -2.1070    4.3620    2.3020 C   0  0  0  0  0  0  0  0  0  0  0  0
   -2.8890    2.7390    0.5870 C   0  0  0  0  0  0  0  0  0  0  0  0
   -0.7640    2.5460    1.6240 O   0  0  0  0  0  0  0  0  0  0  0  0
   -0.1290    1.6030    0.8290 C   0  0  0  0  0  0  0  0  0  0  0  0
   -0.6430    0.3420    0.6060 C   0  0  0  0  0  0  0  0  0  0  0  0
   -0.0070   -0.5810   -0.1810 C   0  0  0  0  0  0  0  0  0  0  0  0
   -0.5710   -1.8490   -0.3770 N   0  0  0  0  0  0  0  0  0  0  0  0
   -1.8140   -2.2110    0.2340 C   0  0  0  0  0  0  0  0  0  0  0  0
   -2.2480   -3.5810   -0.0850 C   0  0  0  0  0  0  0  0  0  0  0  0
   -3.3630   -3.9750   -0.6950 C   0  0  0  0  0  0  0  0  0  0  0  0
   -3.3730   -5.3930   -0.7960 N   0  0  0  0  0  0  0  0  0  0  0  0
   -2.1960   -5.7540   -0.4140 C   0  0  0  0  0  0  0  0  0  0  0  0
   -1.5200   -4.8130    0.2120 C   0  0  0  0  0  0  0  0  0  0  0  0
    1.1670   -0.1970   -0.7400 N   0  0  0  0  0  0  0  0  0  0  0  0
    1.6890    1.0250   -0.5380 C   0  0  0  0  0  0  0  0  0  0  0  0
    2.9180    1.4320   -1.1210 N   0  0  0  0  0  0  0  0  0  0  0  0
    3.6850    0.5260   -1.9820 C   0  0  0  0  0  0  0  0  0  0  0  0
    4.0630   -0.6890   -1.2380 C   0  0  0  0  0  0  0  0  0  0  0  0
    5.2080   -0.8910   -0.4980 C   0  0  0  0  0  0  0  0  0  0  0  0
    5.1520   -2.1650    0.0240 C   0  0  0  0  0  0  0  0  0  0  0  0
    3.9610   -2.6800   -0.4300 C   0  0  0  0  0  0  0  0  0  0  0  0
    3.3490   -1.7820   -1.1700 O   0  0  0  0  0  0  0  0  0  0  0  0
    1.0360    1.8990    0.2380 N   0  0  0  0  0  0  0  0  0  0  0  0
  2  1  1  6
  2  3  1  0
  2  4  1  0
  2  5  1  0
  5  6  1  0
  6  7  2  0
  6 25  1  0
  7  8  1  0
  8  9  1  0
  8 16  2  0
  9 10  1  0
 10 11  1  0
 11 12  2  0
 11 15  1  0
 12 13  1  0
 13 14  2  0
 14 15  2  0
 16 17  1  0
 17 18  1  0
 17 25  2  0
 18 19  1  0
 19 20  1  0
 20 21  2  0
 20 24  1  0
 21 22  1  0
 22 23  2  0
 23 24  1  0
M  CHG  1  13   1
M  END
