
     RDKit          3D

 25 27  0  0  0  0  0  0  0  0999 V2000
    8.3130   -1.2930    0.0790 C   0  0  0  0  0  0  0  0  0  0  0  0
    6.9660   -0.6510    0.0430 C   0  0  0  0  0  0  0  0  0  0  0  0
    6.9450    0.5960    0.0180 O   0  0  0  0  0  0  0  0  0  0  0  0
    5.7660   -1.3790    0.0370 N   0  0  0  0  0  0  0  0  0  0  0  0
    4.4490   -0.8860    0.0060 C   0  0  0  0  0  0  0  0  0  0  0  0
    4.1020    0.4330    0.0560 C   0  0  0  0  0  0  0  0  0  0  0  0
    2.7820    0.9070    0.0170 C   0  0  0  0  0  0  0  0  0  0  0  0
    1.7490    0.0350   -0.0770 C   0  0  0  0  0  0  0  0  0  0  0  0
    0.3980    0.4110   -0.1240 N   0  0  0  0  0  0  0  0  0  0  0  0
   -0.0810    1.7110   -0.0960 C   0  0  0  0  0  0  0  0  0  0  0  0
    0.6770    2.7010   -0.0220 O   0  0  0  0  0  0  0  0  0  0  0  0
   -1.5350    2.0330   -0.1500 C   0  0  0  0  0  0  0  0  0  0  0  0
   -2.5090    1.0840   -0.2370 C   0  0  0  0  0  0  0  0  0  0  0  0
   -3.8570    1.4040   -0.2870 C   0  0  0  0  0  0  0  0  0  0  0  0
   -4.8890    0.3880   -0.3780 C   0  0  0  0  0  0  0  0  0  0  0  0
   -6.0630    0.6630   -1.0410 C   0  0  0  0  0  0  0  0  0  0  0  0
   -7.0700   -0.3070   -1.1390 C   0  0  0  0  0  0  0  0  0  0  0  0
   -6.8980   -1.5120   -0.5880 N   0  0  0  0  0  0  0  0  0  0  0  0
   -5.7640   -1.8070    0.0640 C   0  0  0  0  0  0  0  0  0  0  0  0
   -4.7370   -0.8610    0.1810 C   0  0  0  0  0  0  0  0  0  0  0  0
   -4.1820    2.7440   -0.2450 C   0  0  0  0  0  0  0  0  0  0  0  0
   -3.1810    3.6480   -0.1590 N   0  0  0  0  0  0  0  0  0  0  0  0
   -1.9230    3.3210   -0.1140 N   0  0  0  0  0  0  0  0  0  0  0  0
    2.0810   -1.3370   -0.1310 C   0  0  0  0  0  0  0  0  0  0  0  0
    3.3680   -1.7760   -0.0920 C   0  0  0  0  0  0  0  0  0  0  0  0
  1  2  1  0
  2  3  2  0
  2  4  1  0
  4  5  1  0
  5  6  2  0
  5 25  1  0
  6  7  1  0
  7  8  2  0
  8  9  1  0
  8 24  1  0
  9 10  1  0
 10 11  2  0
 10 12  1  0
 12 13  2  0
 12 23  1  0
 13 14  1  0
 14 15  1  0
 14 21  2  0
 15 16  2  0
 15 20  1  0
 16 17  1  0
 17 18  2  0
 18 19  1  0
 19 20  2  0
 21 22  1  0
 22 23  2  0
 24 25  2  0
M  CHG  1  18   1
M  END
