
     RDKit          3D

 25 28  0  0  0  0  0  0  0  0999 V2000
    6.5380    2.0250   -0.8370 C   0  0  0  0  0  0  0  0  0  0  0  0
    5.3000    1.3030   -0.6720 N   0  0  0  0  0  0  0  0  0  0  0  0
    5.2810    0.0230   -0.6360 C   0  0  0  0  0  0  0  0  0  0  0  0
    4.0400   -0.7150   -0.4700 C   0  0  0  0  0  0  0  0  0  0  0  0
    3.9100   -2.0950   -0.4180 C   0  0  0  0  0  0  0  0  0  0  0  0
    2.5720   -2.3640   -0.2530 C   0  0  0  0  0  0  0  0  0  0  0  0
    1.9360   -1.1480   -0.2090 C   0  0  0  0  0  0  0  0  0  0  0  0
    0.5060   -0.8920   -0.0460 C   0  0  0  0  0  0  0  0  0  0  0  0
   -0.3340   -1.9870    0.0820 C   0  0  0  0  0  0  0  0  0  0  0  0
   -1.6850   -1.7640    0.2360 C   0  0  0  0  0  0  0  0  0  0  0  0
   -2.5940   -2.7920    0.3710 C   0  0  0  0  0  0  0  0  0  0  0  0
   -2.0960   -3.9670    0.3430 O   0  0  0  0  0  0  0  0  0  0  0  0
   -3.9170   -2.6150    0.5230 N   0  0  0  0  0  0  0  0  0  0  0  0
   -4.8320   -3.7270    0.6610 C   0  0  0  0  0  0  0  0  0  0  0  0
   -4.3500   -1.3380    0.5410 C   0  0  0  0  0  0  0  0  0  0  0  0
   -3.5160   -0.2950    0.4150 N   0  0  0  0  0  0  0  0  0  0  0  0
   -2.1940   -0.4510    0.2620 C   0  0  0  0  0  0  0  0  0  0  0  0
   -1.3360    0.5960    0.1330 C   0  0  0  0  0  0  0  0  0  0  0  0
   -1.7810    1.9730    0.1500 C   0  0  0  0  0  0  0  0  0  0  0  0
   -2.9990    2.4400    0.2820 C   0  0  0  0  0  0  0  0  0  0  0  0
   -2.9700    3.9390    0.2400 C   0  0  0  0  0  0  0  0  0  0  0  0
   -1.7860    4.1500   -0.5990 N   0  0  0  0  0  0  0  0  0  0  0  0
   -0.8880    3.1840    0.0130 C   0  0  0  0  0  0  0  0  0  0  0  0
   -0.0050    0.3390   -0.0180 N   0  0  0  0  0  0  0  0  0  0  0  0
    2.8550   -0.1940   -0.3430 O   0  0  0  0  0  0  0  0  0  0  0  0
  1  2  1  0
  2  3  2  3
  3  4  1  0
  4  5  2  0
  4 25  1  0
  5  6  1  0
  6  7  2  0
  7  8  1  0
  7 25  1  0
  8  9  2  0
  8 24  1  0
  9 10  1  0
 10 11  1  0
 10 17  2  0
 11 12  2  0
 11 13  1  0
 13 14  1  0
 13 15  1  0
 15 16  2  0
 16 17  1  0
 17 18  1  0
 18 19  1  0
 18 24  2  0
 19 20  2  0
 19 23  1  0
 20 21  1  0
 21 22  1  0
 22 23  1  0
M  CHG  1   2   1
M  END
