
     RDKit          3D

 25 28  0  0  0  0  0  0  0  0999 V2000
    4.5180    2.3290    1.7070 C   0  0  0  0  0  0  0  0  0  0  0  0
    3.3700    2.2690    0.9250 O   0  0  0  0  0  0  0  0  0  0  0  0
    2.9170    1.1110    0.2860 C   0  0  0  0  0  0  0  0  0  0  0  0
    1.7660    1.1360   -0.4730 C   0  0  0  0  0  0  0  0  0  0  0  0
    1.2780    0.0160   -1.1240 C   0  0  0  0  0  0  0  0  0  0  0  0
    0.0300    0.1190   -1.9250 C   0  0  0  0  0  0  0  0  0  0  0  0
   -1.1820   -0.1570   -1.1480 C   0  0  0  0  0  0  0  0  0  0  0  0
   -1.6900   -1.3780   -1.0350 N   0  0  0  0  0  0  0  0  0  0  0  0
   -2.7980   -1.6720   -0.3320 C   0  0  0  0  0  0  0  0  0  0  0  0
   -3.3280   -2.9250   -0.2100 C   0  0  0  0  0  0  0  0  0  0  0  0
   -4.4590   -3.1440    0.5230 C   0  0  0  0  0  0  0  0  0  0  0  0
   -5.1230   -2.1080    1.1770 C   0  0  0  0  0  0  0  0  0  0  0  0
   -4.5920   -0.8410    1.0570 C   0  0  0  0  0  0  0  0  0  0  0  0
   -3.4550   -0.6350    0.3180 C   0  0  0  0  0  0  0  0  0  0  0  0
   -2.9440    0.6380    0.2130 C   0  0  0  0  0  0  0  0  0  0  0  0
   -3.3460    1.8200    0.7160 N   0  0  0  0  0  0  0  0  0  0  0  0
   -2.4820    2.7770    0.3090 C   0  0  0  0  0  0  0  0  0  0  0  0
   -2.5610    4.1660    0.6310 N   0  0  0  0  0  0  0  0  0  0  0  0
   -1.5640    2.1430   -0.4430 N   0  0  0  0  0  0  0  0  0  0  0  0
   -1.8170    0.8530   -0.5180 N   0  0  0  0  0  0  0  0  0  0  0  0
    1.9770   -1.1670   -1.0020 C   0  0  0  0  0  0  0  0  0  0  0  0
    3.1330   -1.2390   -0.2530 C   0  0  0  0  0  0  0  0  0  0  0  0
    3.8430   -2.4440   -0.1300 O   0  0  0  0  0  0  0  0  0  0  0  0
    5.0140   -2.5120    0.6300 C   0  0  0  0  0  0  0  0  0  0  0  0
    3.5890   -0.0910    0.3840 C   0  0  0  0  0  0  0  0  0  0  0  0
  1  2  1  0
  2  3  1  0
  3  4  2  0
  3 25  1  0
  4  5  1  0
  5  6  1  0
  5 21  2  0
  6  7  1  0
  7  8  2  0
  7 20  1  0
  8  9  1  0
  9 10  2  0
  9 14  1  0
 10 11  1  0
 11 12  2  0
 12 13  1  0
 13 14  2  0
 14 15  1  0
 15 16  1  0
 15 20  2  0
 16 17  1  0
 17 18  1  0
 17 19  2  0
 19 20  1  0
 21 22  1  0
 22 23  1  0
 22 25  2  0
 23 24  1  0
M  CHG  1  20   1
M  END
