
     RDKit          3D

 14 14  0  0  0  0  0  0  0  0999 V2000
    6.1330    0.3670    0.2260 C   0  0  0  0  0  0  0  0  0  0  0  0
    5.0950   -0.2050   -1.1490 S   0  0  0  0  0  0  0  0  0  0  0  0
    3.3760   -0.4710   -0.6040 C   0  0  0  0  0  0  0  0  0  0  0  0
    2.7960    0.8690   -0.2320 C   0  0  0  0  0  0  0  0  0  0  0  0
    1.4250    0.7680    0.2170 N   0  0  0  0  0  0  0  0  0  0  0  0
    0.3700    0.2540   -0.5970 C   0  0  0  0  0  0  0  0  0  0  0  0
    0.6600   -0.1200   -1.7420 O   0  0  0  0  0  0  0  0  0  0  0  0
   -0.9390    0.1650   -0.1470 O   0  0  0  0  0  0  0  0  0  0  0  0
   -1.9730   -0.3560   -0.9980 C   0  0  0  0  0  0  0  0  0  0  0  0
   -3.2800   -0.3470   -0.2680 C   0  0  0  0  0  0  0  0  0  0  0  0
   -4.3780    0.3000   -0.6240 C   0  0  0  0  0  0  0  0  0  0  0  0
   -5.4170    0.0180    0.3940 C   0  0  0  0  0  0  0  0  0  0  0  0
   -4.7190   -0.8730    1.3460 C   0  0  0  0  0  0  0  0  0  0  0  0
   -3.4790   -1.0880    0.9670 C   0  0  0  0  0  0  0  0  0  0  0  0
  1  2  1  0
  2  3  1  0
  3  4  1  0
  4  5  1  0
  5  6  1  0
  6  7  2  0
  6  8  1  0
  8  9  1  0
  9 10  1  0
 10 11  2  0
 10 14  1  0
 11 12  1  0
 12 13  1  0
 13 14  2  0
M  END
