
     RDKit          3D

 25 27  0  0  0  0  0  0  0  0999 V2000
   -5.3600    0.0820   -2.3280 C   0  0  0  0  0  0  0  0  0  0  0  0
   -4.1410    0.1320   -1.4940 C   0  0  0  0  0  0  0  0  0  0  0  0
   -4.2060   -0.1840   -0.2320 C   0  0  0  0  0  0  0  0  0  0  0  0
   -3.0350   -0.1540    0.6620 C   0  0  0  0  0  0  0  0  0  0  0  0
   -3.0840   -0.4600    1.9450 C   0  0  0  0  0  0  0  0  0  0  0  0
   -1.9480   -0.4400    2.8400 C   0  0  0  0  0  0  0  0  0  0  0  0
   -0.7480   -0.1900    2.6990 N   0  0  0  0  0  0  0  0  0  0  0  0
   -0.0610    0.1850    1.5520 C   0  0  0  0  0  0  0  0  0  0  0  0
    0.4000   -0.5570    0.5470 N   0  0  0  0  0  0  0  0  0  0  0  0
    0.9860    0.2070   -0.3500 C   0  0  0  0  0  0  0  0  0  0  0  0
    1.6090   -0.1530   -1.6610 C   0  0  0  0  0  0  0  0  0  0  0  0
    2.9180    0.2670   -1.7020 O   0  0  0  0  0  0  0  0  0  0  0  0
    3.9640   -0.1480   -0.9520 C   0  0  0  0  0  0  0  0  0  0  0  0
    3.8430   -1.1650    0.0030 C   0  0  0  0  0  0  0  0  0  0  0  0
    4.9380   -1.5520    0.7380 C   0  0  0  0  0  0  0  0  0  0  0  0
    6.1560   -0.9490    0.5460 C   0  0  0  0  0  0  0  0  0  0  0  0
    6.2620    0.0700   -0.4130 C   0  0  0  0  0  0  0  0  0  0  0  0
    5.1820    0.4680   -1.1550 C   0  0  0  0  0  0  0  0  0  0  0  0
    5.3600    1.4790   -2.0790 O   0  0  0  0  0  0  0  0  0  0  0  0
    6.6520    2.0750   -2.2350 C   0  0  0  0  0  0  0  0  0  0  0  0
    0.9090    1.4970    0.0850 N   0  0  0  0  0  0  0  0  0  0  0  0
    0.2820    1.4840    1.2260 N   0  0  0  0  0  0  0  0  0  0  0  0
   -4.4550   -0.8630    2.4420 C   0  0  0  0  0  0  0  0  0  0  0  0
   -5.4530   -0.0790    1.7440 N   0  0  0  0  0  0  0  0  0  0  0  0
   -5.4760   -0.6190    0.3810 C   0  0  0  0  0  0  0  0  0  0  0  0
  1  2  1  0
  2  3  2  3
  3  4  1  0
  3 25  1  0
  4  5  2  0
  5  6  1  0
  5 23  1  0
  6  7  2  3
  7  8  1  0
  8  9  2  0
  8 22  1  0
  9 10  1  0
 10 11  1  0
 10 21  2  0
 11 12  1  0
 12 13  1  0
 13 14  2  0
 13 18  1  0
 14 15  1  0
 15 16  2  0
 16 17  1  0
 17 18  2  0
 18 19  1  0
 19 20  1  0
 21 22  1  0
 23 24  1  0
 24 25  1  0
M  CHG  1  24   1
M  END
