
     RDKit          3D

 24 27  0  0  0  0  0  0  0  0999 V2000
    6.7920   -1.3550   -0.8630 C   0  0  0  0  0  0  0  0  0  0  0  0
    6.5030   -1.0910    0.6160 C   0  0  0  0  0  0  0  0  0  0  0  0
    5.3650   -0.1520    0.7360 C   0  0  0  0  0  0  0  0  0  0  0  0
    5.4850    1.1810    1.0570 C   0  0  0  0  0  0  0  0  0  0  0  0
    4.2430    1.7000    1.0700 N   0  0  0  0  0  0  0  0  0  0  0  0
    3.3590    0.7610    0.7740 N   0  0  0  0  0  0  0  0  0  0  0  0
    2.0030    0.7400    0.6510 C   0  0  0  0  0  0  0  0  0  0  0  0
    1.3230   -0.4050    0.3250 C   0  0  0  0  0  0  0  0  0  0  0  0
   -0.1540   -0.3950    0.1970 C   0  0  0  0  0  0  0  0  0  0  0  0
   -0.6710   -1.5160   -0.0480 O   0  0  0  0  0  0  0  0  0  0  0  0
   -0.9260    0.7440    0.3310 N   0  0  0  0  0  0  0  0  0  0  0  0
   -2.3400    0.7890    0.2200 C   0  0  0  0  0  0  0  0  0  0  0  0
   -2.9830    2.0380    0.1550 C   0  0  0  0  0  0  0  0  0  0  0  0
   -4.3390    2.1990    0.0600 C   0  0  0  0  0  0  0  0  0  0  0  0
   -5.1590    1.0960    0.0220 C   0  0  0  0  0  0  0  0  0  0  0  0
   -6.5280    1.1980   -0.0740 C   0  0  0  0  0  0  0  0  0  0  0  0
   -7.3060    0.0870   -0.1080 N   0  0  0  0  0  0  0  0  0  0  0  0
   -6.7610   -1.1330   -0.0500 C   0  0  0  0  0  0  0  0  0  0  0  0
   -5.3870   -1.2550    0.0460 C   0  0  0  0  0  0  0  0  0  0  0  0
   -4.5620   -0.1420    0.0840 C   0  0  0  0  0  0  0  0  0  0  0  0
   -3.1730   -0.2980    0.1810 C   0  0  0  0  0  0  0  0  0  0  0  0
    2.0700   -1.5450    0.1240 C   0  0  0  0  0  0  0  0  0  0  0  0
    3.4090   -1.5420    0.2420 N   0  0  0  0  0  0  0  0  0  0  0  0
    4.0210   -0.3880    0.5640 C   0  0  0  0  0  0  0  0  0  0  0  0
  1  2  1  0
  2  3  1  0
  3  4  1  0
  3 24  2  0
  4  5  2  0
  5  6  1  0
  6  7  1  0
  6 24  1  0
  7  8  2  0
  8  9  1  0
  8 22  1  0
  9 10  2  0
  9 11  1  0
 11 12  1  0
 12 13  2  0
 12 21  1  0
 13 14  1  0
 14 15  2  0
 15 16  1  0
 15 20  1  0
 16 17  2  0
 17 18  1  0
 18 19  2  0
 19 20  1  0
 20 21  2  0
 22 23  2  0
 23 24  1  0
M  CHG  1  17   1
M  END
