
     RDKit          3D

 25 27  0  0  0  0  0  0  0  0999 V2000
   -3.8450    4.2990   -1.2270 C   0  0  0  0  0  0  0  0  0  0  0  0
   -2.6760    3.5630   -0.7530 N   0  0  0  0  0  0  0  0  0  0  0  0
   -2.8600    2.2990   -0.1280 C   0  0  0  0  0  0  0  0  0  0  0  0
   -4.0180    2.0810    0.3850 N   0  0  0  0  0  0  0  0  0  0  0  0
   -4.5120    0.9250    1.0730 C   0  0  0  0  0  0  0  0  0  0  0  0
   -3.9780   -0.2980    1.0850 C   0  0  0  0  0  0  0  0  0  0  0  0
   -2.7560   -0.7640    0.3970 C   0  0  0  0  0  0  0  0  0  0  0  0
   -2.7220   -2.0260    0.0810 C   0  0  0  0  0  0  0  0  0  0  0  0
   -3.8010   -2.9940    0.3590 C   0  0  0  0  0  0  0  0  0  0  0  0
   -3.4350   -4.1510   -0.0890 N   0  0  0  0  0  0  0  0  0  0  0  0
   -2.1350   -4.1010   -0.6890 C   0  0  0  0  0  0  0  0  0  0  0  0
   -1.7480   -2.7550   -0.5520 O   0  0  0  0  0  0  0  0  0  0  0  0
   -1.5830    0.0900    0.0630 C   0  0  0  0  0  0  0  0  0  0  0  0
   -0.2910   -0.5850    0.0440 C   0  0  0  0  0  0  0  0  0  0  0  0
    0.8280    0.2780   -0.1030 N   0  0  0  0  0  0  0  0  0  0  0  0
    2.1390   -0.3710   -0.1400 C   0  0  0  0  0  0  0  0  0  0  0  0
    2.1380   -1.6110   -0.0390 O   0  0  0  0  0  0  0  0  0  0  0  0
    3.3180    0.3900   -0.2820 N   0  0  0  0  0  0  0  0  0  0  0  0
    4.6180   -0.1180   -0.3210 C   0  0  0  0  0  0  0  0  0  0  0  0
    5.6340    0.7620   -0.7080 C   0  0  0  0  0  0  0  0  0  0  0  0
    6.9540    0.3960   -0.7780 C   0  0  0  0  0  0  0  0  0  0  0  0
    7.2710   -0.8940   -0.4480 C   0  0  0  0  0  0  0  0  0  0  0  0
    6.2900   -1.7750   -0.0640 C   0  0  0  0  0  0  0  0  0  0  0  0
    4.9620   -1.3920    0.0010 C   0  0  0  0  0  0  0  0  0  0  0  0
   -1.6810    1.3940   -0.1530 C   0  0  0  0  0  0  0  0  0  0  0  0
  1  2  1  0
  2  3  1  0
  3  4  2  0
  3 25  1  0
  4  5  1  0
  5  6  2  0
  6  7  1  0
  7  8  2  3
  7 13  1  0
  8  9  1  0
  8 12  1  0
  9 10  2  0
 10 11  1  0
 11 12  1  0
 13 14  1  0
 13 25  2  0
 14 15  1  0
 15 16  1  0
 16 17  2  0
 16 18  1  0
 18 19  1  0
 19 20  2  0
 19 24  1  0
 20 21  1  0
 21 22  2  0
 22 23  1  0
 23 24  2  0
M  CHG  1   4   1
M  END
