
     RDKit          3D

 12 13  0  0  0  0  0  0  0  0999 V2000
    3.2430    0.2390    0.0800 N   0  0  0  0  0  0  0  0  0  0  0  0
    1.8890   -0.0370    0.4700 C   0  0  0  0  0  0  0  0  0  0  0  0
    1.4030   -1.0070    1.2330 N   0  0  0  0  0  0  0  0  0  0  0  0
    0.0400   -1.0450    1.1640 C   0  0  0  0  0  0  0  0  0  0  0  0
   -0.3450    0.0120    0.2710 C   0  0  0  0  0  0  0  0  0  0  0  0
   -1.5210    0.4100   -0.2110 C   0  0  0  0  0  0  0  0  0  0  0  0
   -2.7140   -0.4230    0.1980 C   0  0  0  0  0  0  0  0  0  0  0  0
   -3.3230   -0.7380   -1.1030 O   0  0  0  0  0  0  0  0  0  0  0  0
   -1.6050    1.3870   -1.0830 N   0  0  0  0  0  0  0  0  0  0  0  0
   -0.4850    2.0300   -1.5150 N   0  0  0  0  0  0  0  0  0  0  0  0
    0.7020    1.6280   -1.0210 C   0  0  0  0  0  0  0  0  0  0  0  0
    0.8040    0.5950   -0.1130 N   0  0  0  0  0  0  0  0  0  0  0  0
  1  2  1  0
  2  3  2  0
  2 12  1  0
  3  4  1  0
  4  5  2  0
  5  6  1  0
  5 12  1  0
  6  7  1  0
  6  9  2  0
  7  8  1  0
  9 10  1  0
 10 11  2  0
 11 12  1  0
M  CHG  1   3   1
M  END
