
     RDKit          3D

 23 25  0  0  0  0  0  0  0  0999 V2000
   -3.8610   -1.5630    1.3230 N   0  0  0  0  0  0  0  0  0  0  0  0
   -4.4620   -0.9320    0.3370 C   0  0  0  0  0  0  0  0  0  0  0  0
   -5.6430   -1.6530   -0.2550 C   0  0  0  0  0  0  0  0  0  0  0  0
   -6.5170   -0.7520   -0.9610 C   0  0  0  0  0  0  0  0  0  0  0  0
   -6.1880    0.4960   -1.1990 C   0  0  0  0  0  0  0  0  0  0  0  0
   -4.9560    1.0990   -0.7660 C   0  0  0  0  0  0  0  0  0  0  0  0
   -4.0650    0.3920   -0.0200 C   0  0  0  0  0  0  0  0  0  0  0  0
   -2.8190    1.0230    0.3100 C   0  0  0  0  0  0  0  0  0  0  0  0
   -2.7230    2.2790   -0.0320 O   0  0  0  0  0  0  0  0  0  0  0  0
   -1.6850    0.4970    0.9310 N   0  0  0  0  0  0  0  0  0  0  0  0
   -0.5530    1.3470    1.1610 N   0  0  0  0  0  0  0  0  0  0  0  0
    0.7150    0.8470    0.7550 C   0  0  0  0  0  0  0  0  0  0  0  0
    0.7100   -0.3160    0.2330 O   0  0  0  0  0  0  0  0  0  0  0  0
    1.9210    1.5550    0.8990 N   0  0  0  0  0  0  0  0  0  0  0  0
    3.1870    1.0440    0.5000 C   0  0  0  0  0  0  0  0  0  0  0  0
    4.2240    1.9340    0.1930 C   0  0  0  0  0  0  0  0  0  0  0  0
    5.4840    1.5270   -0.1870 C   0  0  0  0  0  0  0  0  0  0  0  0
    5.7650    0.1630   -0.2790 C   0  0  0  0  0  0  0  0  0  0  0  0
    6.8650   -0.5390   -0.6160 N   0  0  0  0  0  0  0  0  0  0  0  0
    6.5480   -1.8350   -0.5280 C   0  0  0  0  0  0  0  0  0  0  0  0
    5.2550   -1.9880   -0.1380 C   0  0  0  0  0  0  0  0  0  0  0  0
    4.7540   -0.7140    0.0210 C   0  0  0  0  0  0  0  0  0  0  0  0
    3.4770   -0.2960    0.4070 C   0  0  0  0  0  0  0  0  0  0  0  0
  1  2  2  0
  2  3  1  0
  2  7  1  0
  3  4  1  0
  4  5  2  0
  5  6  1  0
  6  7  2  0
  7  8  1  0
  8  9  2  0
  8 10  1  0
 10 11  1  0
 11 12  1  0
 12 13  2  0
 12 14  1  0
 14 15  1  0
 15 16  2  0
 15 23  1  0
 16 17  1  0
 17 18  2  0
 18 19  1  0
 18 22  1  0
 19 20  1  0
 20 21  2  0
 21 22  1  0
 22 23  2  0
M  CHG  1   1   1
M  END
