
     RDKit          3D

 23 25  0  0  0  0  0  0  0  0999 V2000
    4.7980    2.9510    0.8110 C   0  0  0  0  0  0  0  0  0  0  0  0
    3.8450    1.9050    0.5110 N   0  0  0  0  0  0  0  0  0  0  0  0
    4.2140    0.7090   -0.1390 C   0  0  0  0  0  0  0  0  0  0  0  0
    5.5530    0.5130   -0.3890 C   0  0  0  0  0  0  0  0  0  0  0  0
    5.9890   -0.6280   -1.0090 C   0  0  0  0  0  0  0  0  0  0  0  0
    5.1120   -1.6180   -1.4070 C   0  0  0  0  0  0  0  0  0  0  0  0
    3.7780   -1.3950   -1.1430 C   0  0  0  0  0  0  0  0  0  0  0  0
    3.2930   -0.2770   -0.5290 C   0  0  0  0  0  0  0  0  0  0  0  0
    1.9880   -0.0270   -0.2290 N   0  0  0  0  0  0  0  0  0  0  0  0
    0.8170   -0.8850   -0.5890 C   0  0  0  0  0  0  0  0  0  0  0  0
    1.0490   -1.8740   -1.1940 O   0  0  0  0  0  0  0  0  0  0  0  0
   -0.3390   -0.2530   -0.0800 N   0  0  0  0  0  0  0  0  0  0  0  0
   -1.4530   -1.5190   -0.5910 C   0  0  0  0  0  0  0  0  0  0  0  0
   -0.9380   -2.4040   -1.1170 O   0  0  0  0  0  0  0  0  0  0  0  0
   -2.7730   -1.1160   -0.1980 C   0  0  0  0  0  0  0  0  0  0  0  0
   -3.6590   -2.1620    0.1510 C   0  0  0  0  0  0  0  0  0  0  0  0
   -4.9580   -1.9270    0.5030 C   0  0  0  0  0  0  0  0  0  0  0  0
   -5.3650   -0.5830    0.4970 C   0  0  0  0  0  0  0  0  0  0  0  0
   -4.4960    0.4300    0.1580 C   0  0  0  0  0  0  0  0  0  0  0  0
   -3.2280    0.1540   -0.1810 N   0  0  0  0  0  0  0  0  0  0  0  0
   -5.2620    1.6720    0.2450 C   0  0  0  0  0  0  0  0  0  0  0  0
   -6.4930    1.3980    0.6180 C   0  0  0  0  0  0  0  0  0  0  0  0
   -6.6050    0.0040    0.7990 N   0  0  0  0  0  0  0  0  0  0  0  0
  1  2  1  0
  2  3  1  0
  3  4  2  0
  3  8  1  0
  4  5  1  0
  5  6  2  0
  6  7  1  0
  7  8  2  0
  8  9  1  0
  9 10  1  0
 10 11  2  0
 10 12  1  0
 12 13  1  0
 13 14  2  0
 13 15  1  0
 15 16  2  0
 15 20  1  0
 16 17  1  0
 17 18  2  0
 18 19  1  0
 18 23  1  0
 19 20  2  0
 19 21  1  0
 21 22  2  0
 22 23  1  0
M  CHG  1  23   1
M  END
