
     RDKit          3D

 23 25  0  0  0  0  0  0  0  0999 V2000
   -5.0560    1.3390   -0.7850 C   0  0  0  0  0  0  0  0  0  0  0  0
   -4.7060    0.0610   -1.3710 N   0  0  0  0  0  0  0  0  0  0  0  0
   -4.1360   -0.8310   -0.4440 C   0  0  0  0  0  0  0  0  0  0  0  0
   -4.8680   -1.8040    0.2000 C   0  0  0  0  0  0  0  0  0  0  0  0
   -4.3100   -2.6770    1.1090 C   0  0  0  0  0  0  0  0  0  0  0  0
   -4.9840   -3.5660    1.6950 O   0  0  0  0  0  0  0  0  0  0  0  0
   -3.0030   -2.5660    1.3670 N   0  0  0  0  0  0  0  0  0  0  0  0
   -2.2500   -1.6120    0.7450 C   0  0  0  0  0  0  0  0  0  0  0  0
   -0.9130   -1.5340    1.0400 C   0  0  0  0  0  0  0  0  0  0  0  0
   -0.0510   -0.5890    0.4560 C   0  0  0  0  0  0  0  0  0  0  0  0
    1.3030   -0.5670    0.8120 N   0  0  0  0  0  0  0  0  0  0  0  0
    2.3380    0.2190    0.2840 C   0  0  0  0  0  0  0  0  0  0  0  0
    2.0540    1.0140   -0.6270 O   0  0  0  0  0  0  0  0  0  0  0  0
    3.6790    0.1320    0.7530 N   0  0  0  0  0  0  0  0  0  0  0  0
    4.7790    0.8750    0.2860 C   0  0  0  0  0  0  0  0  0  0  0  0
    6.0350    0.6870    0.8930 C   0  0  0  0  0  0  0  0  0  0  0  0
    7.1260    1.3850    0.4700 C   0  0  0  0  0  0  0  0  0  0  0  0
    7.0480    2.2960   -0.5590 C   0  0  0  0  0  0  0  0  0  0  0  0
    5.8560    2.4680   -1.1290 N   0  0  0  0  0  0  0  0  0  0  0  0
    4.7490    1.7900   -0.7320 C   0  0  0  0  0  0  0  0  0  0  0  0
   -0.6370    0.2580   -0.4370 C   0  0  0  0  0  0  0  0  0  0  0  0
   -1.9840    0.2200   -0.7700 C   0  0  0  0  0  0  0  0  0  0  0  0
   -2.7710   -0.7270   -0.1630 C   0  0  0  0  0  0  0  0  0  0  0  0
  1  2  1  0
  2  3  1  0
  3  4  2  0
  3 23  1  0
  4  5  1  0
  5  6  2  0
  5  7  1  0
  7  8  1  0
  8  9  2  0
  8 23  1  0
  9 10  1  0
 10 11  1  0
 10 21  2  0
 11 12  1  0
 12 13  2  0
 12 14  1  0
 14 15  1  0
 15 16  2  0
 15 20  1  0
 16 17  1  0
 17 18  2  0
 18 19  1  0
 19 20  2  0
 21 22  1  0
 22 23  2  0
M  CHG  1   2   1
M  END
