
     RDKit          3D

 22 23  0  0  0  0  0  0  0  0999 V2000
    6.2080    1.3370   -0.0760 C   0  0  0  0  0  0  0  0  0  0  0  0
    4.9260    0.8140   -0.2980 O   0  0  0  0  0  0  0  0  0  0  0  0
    4.5080   -0.4340    0.1030 C   0  0  0  0  0  0  0  0  0  0  0  0
    5.3520   -1.1580    0.7200 O   0  0  0  0  0  0  0  0  0  0  0  0
    3.1740   -0.9120   -0.1580 N   0  0  0  0  0  0  0  0  0  0  0  0
    2.7830   -2.2060    0.2740 C   0  0  0  0  0  0  0  0  0  0  0  0
    3.6710   -2.8840    0.8740 O   0  0  0  0  0  0  0  0  0  0  0  0
    1.4490   -2.7720    0.0630 C   0  0  0  0  0  0  0  0  0  0  0  0
    0.5270   -1.9010   -0.5230 O   0  0  0  0  0  0  0  0  0  0  0  0
    0.1300   -0.7310    0.0990 C   0  0  0  0  0  0  0  0  0  0  0  0
    0.5850   -0.4170    1.2140 O   0  0  0  0  0  0  0  0  0  0  0  0
   -0.8580    0.1930   -0.5530 C   0  0  2  0  0  0  0  0  0  0  0  0
   -1.1780    1.6290    0.4910 S   0  0  0  0  0  0  0  0  0  0  0  0
   -2.9370    1.9360    0.6880 C   0  0  1  0  0  0  0  0  0  0  0  0
   -3.4110    3.0760   -0.1110 C   0  0  0  0  0  0  0  0  0  0  0  0
   -2.6100    3.7120   -0.8250 O   0  0  0  0  0  0  0  0  0  0  0  0
   -4.7360    3.4570   -0.0820 O   0  0  0  0  0  0  0  0  0  0  0  0
   -3.6690    0.6630    0.2460 C   0  0  2  0  0  0  0  0  0  0  0  0
   -3.3100   -0.4610    1.1780 C   0  0  0  0  0  0  0  0  0  0  0  0
   -2.5890   -1.4280    0.2740 C   0  0  0  0  0  0  0  0  0  0  0  0
   -2.1460   -0.5430   -0.8630 C   0  0  1  0  0  0  0  0  0  0  0  0
   -3.2060    0.3340   -1.0070 O   0  0  0  0  0  0  0  0  0  0  0  0
  1  2  1  0
  2  3  1  0
  3  4  2  0
  3  5  1  0
  5  6  1  0
  6  7  2  0
  6  8  1  0
  8  9  1  0
  9 10  1  0
 10 11  2  0
 12 10  1  1
 12 13  1  0
 12 21  1  0
 13 14  1  0
 14 15  1  6
 14 18  1  0
 15 16  2  0
 15 17  1  0
 18 19  1  1
 18 22  1  0
 19 20  1  0
 21 20  1  1
 21 22  1  0
M  END
