
     RDKit          3D

 22 23  0  0  0  0  0  0  0  0999 V2000
   -1.9040   -1.8290   -2.2510 C   0  0  0  0  0  0  0  0  0  0  0  0
   -1.7400   -1.9410   -0.9000 O   0  0  0  0  0  0  0  0  0  0  0  0
   -1.2650   -0.8430   -0.2270 C   0  0  2  0  0  0  0  0  0  0  0  0
   -2.1260    0.3580   -0.3960 C   0  0  0  0  0  0  0  0  0  0  0  0
   -2.9320    0.7990    0.5360 C   0  0  0  0  0  0  0  0  0  0  0  0
   -3.7750    1.9930    0.3430 C   0  0  0  0  0  0  0  0  0  0  0  0
   -3.6650    2.5880   -0.9210 O   0  0  0  0  0  0  0  0  0  0  0  0
   -2.8170    2.1270   -1.9000 C   0  0  0  0  0  0  0  0  0  0  0  0
   -2.0770    1.0640   -1.6640 C   0  0  0  0  0  0  0  0  0  0  0  0
    0.0590   -0.4570   -0.6430 N   0  0  0  0  0  0  0  0  0  0  0  0
    1.0270   -1.0640    0.2330 C   0  0  1  0  0  0  0  0  0  0  0  0
    1.3310   -0.3520    1.3340 O   0  0  0  0  0  0  0  0  0  0  0  0
    2.5640    0.1600    1.5220 C   0  0  0  0  0  0  0  0  0  0  0  0
    2.8770    1.1450    0.4180 C   0  0  0  0  0  0  0  0  0  0  0  0
    4.1690    1.6970    0.6000 O   0  0  0  0  0  0  0  0  0  0  0  0
    4.4430    2.7750   -0.6590 S   0  0  2  0  0  0  0  0  0  0  0  0
    5.8350    2.6270   -1.2120 O   0  0  0  0  0  0  0  0  0  0  0  0
    4.3320    4.2130   -0.1810 O   0  0  0  0  0  0  0  0  0  0  0  0
    0.6990   -2.5240    0.5020 C   0  0  2  0  0  0  0  0  0  0  0  0
    0.6180   -3.1540   -0.7320 O   0  0  0  0  0  0  0  0  0  0  0  0
   -0.7060   -2.5360    1.0980 C   0  0  0  0  0  0  0  0  0  0  0  0
   -1.1970   -1.2170    1.1270 O   0  0  0  0  0  0  0  0  0  0  0  0
  1  2  1  0
  3  2  1  6
  3  4  1  0
  3 10  1  0
  3 22  1  0
  4  5  2  0
  4  9  1  0
  5  6  1  0
  6  7  1  0
  7  8  1  0
  8  9  2  0
 10 11  1  0
 11 12  1  1
 11 19  1  0
 12 13  1  0
 13 14  1  0
 14 15  1  0
 16 15  1  1
 16 17  2  0
 16 18  2  0
 19 20  1  6
 19 21  1  0
 21 22  1  0
M  END
