
     RDKit          3D

 13 15  0  0  0  0  0  0  0  0999 V2000
   -1.0960    1.6510   -0.3930 C   0  0  0  0  0  0  0  0  0  0  0  0
    0.1730    1.3140   -0.2760 C   0  0  0  0  0  0  0  0  0  0  0  0
    0.7860   -0.0070    0.1230 C   0  0  0  0  0  0  0  0  0  0  0  0
   -0.0240   -1.0340    0.6210 C   0  0  0  0  0  0  0  0  0  0  0  0
    1.1280   -2.3140    0.9260 S   0  0  0  0  0  0  0  0  0  0  0  0
    2.5940   -1.3880    0.3700 C   0  0  0  0  0  0  0  0  0  0  0  0
    3.9010   -1.4720    0.2100 N   0  0  0  0  0  0  0  0  0  0  0  0
    4.2720   -0.3010   -0.2770 N   0  0  0  0  0  0  0  0  0  0  0  0
    3.1950    0.4790   -0.4080 C   0  0  0  0  0  0  0  0  0  0  0  0
    2.0690   -0.2240    0.0170 N   0  0  0  0  0  0  0  0  0  0  0  0
   -1.4910   -1.1210    0.8610 C   0  0  0  0  0  0  0  0  0  0  0  0
   -2.1210   -0.5810   -0.4040 C   0  0  0  0  0  0  0  0  0  0  0  0
   -2.3270    0.8970   -0.1870 C   0  0  0  0  0  0  0  0  0  0  0  0
  1  2  2  0
  1 13  1  0
  2  3  1  0
  3  4  2  0
  3 10  1  0
  4  5  1  0
  4 11  1  0
  5  6  1  0
  6  7  2  0
  6 10  1  0
  7  8  1  0
  8  9  2  0
  9 10  1  0
 11 12  1  0
 12 13  1  0
M  END
