
     RDKit          3D

 22 23  0  0  0  0  0  0  0  0999 V2000
    5.5750   -0.9140   -1.0790 C   0  0  0  0  0  0  0  0  0  0  0  0
    4.6240    0.1290   -1.6310 C   0  0  0  0  0  0  0  0  0  0  0  0
    3.4710    0.1140   -0.7730 O   0  0  0  0  0  0  0  0  0  0  0  0
    3.5840    0.3950    0.5810 C   0  0  0  0  0  0  0  0  0  0  0  0
    4.7380    0.6600    1.0080 O   0  0  0  0  0  0  0  0  0  0  0  0
    2.4340    0.3940    1.5060 C   0  0  0  0  0  0  0  0  0  0  0  0
    1.2170    0.0650    0.8010 N   0  0  0  0  0  0  0  0  0  0  0  0
    0.6130   -1.1890    0.5590 C   0  0  0  0  0  0  0  0  0  0  0  0
    1.2820   -2.2790    0.6690 O   0  0  0  0  0  0  0  0  0  0  0  0
   -0.6830   -1.1560    0.2140 O   0  0  0  0  0  0  0  0  0  0  0  0
   -1.2260    0.0540   -0.1600 C   0  0  1  0  0  0  0  0  0  0  0  0
   -1.6690    0.1130   -1.5700 C   0  0  0  0  0  0  0  0  0  0  0  0
   -3.1100   -0.0610   -1.8330 C   0  0  1  0  0  0  0  0  0  0  0  0
   -3.4750   -1.3960   -1.9510 O   0  0  0  0  0  0  0  0  0  0  0  0
   -4.0190    0.5780   -0.8120 C   0  0  0  0  0  0  0  0  0  0  0  0
   -3.6450   -0.0440    0.5150 C   0  0  2  0  0  0  0  0  0  0  0  0
   -4.4960    0.2980    1.5380 O   0  0  0  0  0  0  0  0  0  0  0  0
   -2.2660    0.4560    0.8510 C   0  0  1  0  0  0  0  0  0  0  0  0
   -1.9390   -0.1190    2.2310 C   0  0  0  0  0  0  0  0  0  0  0  0
    0.1420    1.1860    0.0390 S   0  0  1  0  0  0  0  0  0  0  0  0
   -0.2000    2.3330    0.9220 O   0  0  0  0  0  0  0  0  0  0  0  0
    0.6860    1.6100   -1.2930 O   0  0  0  0  0  0  0  0  0  0  0  0
  1  2  1  0
  2  3  1  0
  3  4  1  0
  4  5  2  0
  4  6  1  0
  6  7  1  0
  7  8  1  0
 20  7  1  1
  8  9  2  0
  8 10  1  0
 10 11  1  0
 11 12  1  6
 11 18  1  0
 11 20  1  0
 12 13  1  0
 13 14  1  1
 13 15  1  0
 15 16  1  0
 16 17  1  1
 16 18  1  0
 18 19  1  1
 20 21  2  0
 20 22  2  0
M  END
