
     RDKit          3D

 13 14  0  0  0  0  0  0  0  0999 V2000
   -3.2400   -0.7920   -0.4090 C   0  0  0  0  0  0  0  0  0  0  0  0
   -1.8860   -0.2600   -0.3990 N   0  0  0  0  0  0  0  0  0  0  0  0
   -0.8850   -1.1690   -0.8490 C   0  0  0  0  0  0  0  0  0  0  0  0
    0.4430   -1.2080   -0.7050 C   0  0  0  0  0  0  0  0  0  0  0  0
    1.4890   -0.4320   -0.0780 C   0  0  0  0  0  0  0  0  0  0  0  0
    2.7070   -0.9300    0.0050 C   0  0  0  0  0  0  0  0  0  0  0  0
    3.5800    0.0470    0.6820 C   0  0  0  0  0  0  0  0  0  0  0  0
    2.9050    1.1230    1.0050 C   0  0  0  0  0  0  0  0  0  0  0  0
    1.5210    0.8820    0.5370 C   0  0  0  0  0  0  0  0  0  0  0  0
    0.6560    1.8170    0.7470 N   0  0  0  0  0  0  0  0  0  0  0  0
   -0.7050    1.9480    0.4570 N   0  0  0  0  0  0  0  0  0  0  0  0
   -1.7970    1.0920    0.0660 C   0  0  0  0  0  0  0  0  0  0  0  0
   -3.2650    1.7930    0.1670 S   0  0  0  0  0  0  0  0  0  0  0  0
  1  2  1  0
  2  3  1  0
  2 12  1  0
  3  4  2  0
  4  5  1  0
  5  6  2  0
  5  9  1  0
  6  7  1  0
  7  8  2  0
  8  9  1  0
  9 10  2  0
 10 11  1  0
 11 12  1  0
 12 13  2  0
M  END
