
     RDKit          3D

 12 12  0  0  0  0  0  0  0  0999 V2000
    3.7600   -0.5590   -0.5420 C   0  0  0  0  0  0  0  0  0  0  0  0
    2.3550   -0.4740   -0.9480 C   0  0  0  0  0  0  0  0  0  0  0  0
    1.3350   -0.4970   -0.1030 C   0  0  0  0  0  0  0  0  0  0  0  0
    1.5230   -0.6120    1.3700 C   0  0  0  0  0  0  0  0  0  0  0  0
   -0.0060   -0.4110   -0.5650 N   0  0  0  0  0  0  0  0  0  0  0  0
   -0.8960    0.6290   -0.2190 C   0  0  0  0  0  0  0  0  0  0  0  0
   -0.6680    1.9230   -0.0960 C   0  0  0  0  0  0  0  0  0  0  0  0
   -1.8770    2.6460    0.2810 C   0  0  0  0  0  0  0  0  0  0  0  0
   -2.8750    1.7860    0.3950 C   0  0  0  0  0  0  0  0  0  0  0  0
   -2.3340    0.4730    0.0920 C   0  0  0  0  0  0  0  0  0  0  0  0
   -3.0200   -0.6520    0.0980 C   0  0  0  0  0  0  0  0  0  0  0  0
   -2.3770   -1.8930   -0.2190 N   0  0  0  0  0  0  0  0  0  0  0  0
  1  2  1  0
  2  3  2  3
  3  4  1  0
  3  5  1  0
  5  6  1  0
  6  7  2  0
  6 10  1  0
  7  8  1  0
  8  9  2  0
  9 10  1  0
 10 11  2  3
 11 12  1  0
M  END
