
     RDKit          3D

 12 13  0  0  0  0  0  0  0  0999 V2000
   -2.0680    3.2940    0.5540 C   0  0  0  0  0  0  0  0  0  0  0  0
   -2.0860    2.0340    0.2150 C   0  0  0  0  0  0  0  0  0  0  0  0
   -0.8670    1.2360    0.1580 C   0  0  0  0  0  0  0  0  0  0  0  0
    0.3690    1.6940    0.4390 N   0  0  0  0  0  0  0  0  0  0  0  0
    1.2450    0.6950    0.2840 C   0  0  0  0  0  0  0  0  0  0  0  0
    0.5610   -0.4340   -0.1050 C   0  0  0  0  0  0  0  0  0  0  0  0
   -0.7660   -0.0910   -0.1840 C   0  0  0  0  0  0  0  0  0  0  0  0
   -1.8840   -0.9720   -0.5620 C   0  0  0  0  0  0  0  0  0  0  0  0
   -1.4380   -2.3030   -0.8610 N   0  0  0  0  0  0  0  0  0  0  0  0
    1.5640   -1.5500   -0.2770 C   0  0  0  0  0  0  0  0  0  0  0  0
    2.7100   -1.0930    0.6000 C   0  0  0  0  0  0  0  0  0  0  0  0
    2.7000    0.4100    0.3960 C   0  0  0  0  0  0  0  0  0  0  0  0
  1  2  2  0
  2  3  1  0
  3  4  1  0
  3  7  2  0
  4  5  1  0
  5  6  2  0
  5 12  1  0
  6  7  1  0
  6 10  1  0
  7  8  1  0
  8  9  1  0
 10 11  1  0
 11 12  1  0
M  CHG  1   9   1
M  END
