
     RDKit          3D

 12 12  0  0  0  0  0  0  0  0999 V2000
    1.7350    1.9550   -0.6890 C   0  0  0  0  0  0  0  0  0  0  0  0
    2.0080    0.7340   -0.3160 C   0  0  0  0  0  0  0  0  0  0  0  0
    3.3580    0.2640    0.2050 C   0  0  0  0  0  0  0  0  0  0  0  0
    3.4180   -0.9630   -0.6330 N   0  0  0  0  0  0  0  0  0  0  0  0
    2.1060   -1.4930   -0.4930 C   0  0  0  0  0  0  0  0  0  0  0  0
    1.7910   -2.8740   -0.5600 N   0  0  0  0  0  0  0  0  0  0  0  0
    1.2170   -0.4840   -0.2930 C   0  0  0  0  0  0  0  0  0  0  0  0
   -0.1990   -0.6230   -0.1160 C   0  0  0  0  0  0  0  0  0  0  0  0
   -1.0270    0.3460    0.0990 C   0  0  0  0  0  0  0  0  0  0  0  0
   -2.4490    0.0470    0.2560 C   0  0  0  0  0  0  0  0  0  0  0  0
   -3.2810    1.0380    0.4740 C   0  0  0  0  0  0  0  0  0  0  0  0
   -4.7490    0.8430    0.6480 C   0  0  0  0  0  0  0  0  0  0  0  0
  1  2  2  0
  2  3  1  0
  2  7  1  0
  3  4  1  0
  4  5  1  0
  5  6  1  0
  5  7  2  0
  7  8  1  0
  8  9  2  3
  9 10  1  0
 10 11  2  3
 11 12  1  0
M  END
