
     RDKit          3D

 15 16  0  0  0  0  0  0  0  0999 V2000
    4.0290   -1.1920   -0.3820 C   0  0  0  0  0  0  0  0  0  0  0  0
    3.4640   -0.0230   -0.1630 C   0  0  0  0  0  0  0  0  0  0  0  0
    4.2540    1.2160    0.0490 C   0  0  0  0  0  0  0  0  0  0  0  0
    3.3490    2.1600    0.2320 C   0  0  0  0  0  0  0  0  0  0  0  0
    1.9970    1.6130    0.1520 C   0  0  0  0  0  0  0  0  0  0  0  0
    2.0520    0.3140   -0.0830 C   0  0  0  0  0  0  0  0  0  0  0  0
    0.9550   -0.6180   -0.2350 C   0  0  0  0  0  0  0  0  0  0  0  0
    1.1670   -1.8330   -0.4580 O   0  0  0  0  0  0  0  0  0  0  0  0
   -0.4140   -0.2300   -0.1470 N   0  0  0  0  0  0  0  0  0  0  0  0
   -1.5020   -1.1690   -0.3010 C   0  0  0  0  0  0  0  0  0  0  0  0
   -2.8230   -0.5120   -0.1640 C   0  0  0  0  0  0  0  0  0  0  0  0
   -4.0350   -1.1580   -0.2630 C   0  0  0  0  0  0  0  0  0  0  0  0
   -5.0180   -0.1840   -0.0740 C   0  0  0  0  0  0  0  0  0  0  0  0
   -4.3400    0.9890    0.1280 C   0  0  0  0  0  0  0  0  0  0  0  0
   -3.0590    0.7380    0.0650 O   0  0  0  0  0  0  0  0  0  0  0  0
  1  2  2  0
  2  3  1  0
  2  6  1  0
  3  4  2  0
  4  5  1  0
  5  6  2  0
  6  7  1  0
  7  8  2  0
  7  9  1  0
  9 10  1  0
 10 11  1  0
 11 12  2  0
 11 15  1  0
 12 13  1  0
 13 14  2  0
 14 15  1  0
M  END
