
     RDKit          3D

 16 17  0  0  0  0  0  0  0  0999 V2000
   -3.0590   -1.0870   -0.8560 C   0  0  0  0  0  0  0  0  0  0  0  0
   -3.2380   -0.4000    0.4830 C   0  0  2  0  0  0  0  0  0  0  0  0
   -2.6660   -1.2320    1.6120 C   0  0  0  0  0  0  0  0  0  0  0  0
   -4.6070   -0.2620    0.6860 O   0  0  0  0  0  0  0  0  0  0  0  0
   -2.5240    0.9130    0.4730 C   0  0  0  0  0  0  0  0  0  0  0  0
   -1.0830    0.7270    0.2570 N   0  0  0  0  0  0  0  0  0  0  0  0
   -0.1860    1.7950    0.2040 C   0  0  0  0  0  0  0  0  0  0  0  0
   -0.7070    2.9580    0.3500 O   0  0  0  0  0  0  0  0  0  0  0  0
    1.2430    1.6570   -0.0030 C   0  0  0  0  0  0  0  0  0  0  0  0
    2.3110    3.1270   -0.1170 S   0  0  0  0  0  0  0  0  0  0  0  0
    3.7930    2.2530   -0.3570 C   0  0  0  0  0  0  0  0  0  0  0  0
    3.4110    0.8830   -0.3400 C   0  0  0  0  0  0  0  0  0  0  0  0
    2.1110    0.6350   -0.1560 C   0  0  0  0  0  0  0  0  0  0  0  0
    1.9200   -0.8930   -0.1380 C   0  0  0  0  0  0  0  0  0  0  0  0
    3.3190   -1.3310    0.3300 C   0  0  0  0  0  0  0  0  0  0  0  0
    4.1610   -0.4200   -0.5110 C   0  0  0  0  0  0  0  0  0  0  0  0
  2  1  1  6
  2  3  1  0
  2  4  1  0
  2  5  1  0
  5  6  1  0
  6  7  1  0
  7  8  2  0
  7  9  1  0
  9 10  1  0
  9 13  2  0
 10 11  1  0
 11 12  2  0
 12 13  1  0
 12 16  1  0
 13 14  1  0
 14 15  1  0
 15 16  1  0
M  END
