
     RDKit          3D

 12 13  0  0  0  0  0  0  0  0999 V2000
   -3.9130   -0.5600   -0.2050 N   0  0  0  0  0  0  0  0  0  0  0  0
   -2.5090   -0.3410   -0.1090 C   0  0  0  0  0  0  0  0  0  0  0  0
   -1.6770   -0.9150   -1.0500 C   0  0  0  0  0  0  0  0  0  0  0  0
   -0.3300   -0.6990   -0.9500 C   0  0  0  0  0  0  0  0  0  0  0  0
    0.2510    0.0620    0.0410 C   0  0  0  0  0  0  0  0  0  0  0  0
    1.6990    0.2670    0.1110 C   0  0  0  0  0  0  0  0  0  0  0  0
    2.6140   -0.2600   -0.7760 C   0  0  0  0  0  0  0  0  0  0  0  0
    3.8840    0.1370   -0.4070 C   0  0  0  0  0  0  0  0  0  0  0  0
    3.7270    0.9150    0.7200 C   0  0  0  0  0  0  0  0  0  0  0  0
    2.4010    0.9760    1.0090 N   0  0  0  0  0  0  0  0  0  0  0  0
   -0.5950    0.6280    0.9730 C   0  0  0  0  0  0  0  0  0  0  0  0
   -1.9670    0.4340    0.9070 C   0  0  0  0  0  0  0  0  0  0  0  0
  1  2  1  0
  2  3  2  0
  2 12  1  0
  3  4  1  0
  4  5  2  0
  5  6  1  0
  5 11  1  0
  6  7  2  0
  6 10  1  0
  7  8  1  0
  8  9  2  0
  9 10  1  0
 11 12  2  0
M  CHG  1   1   1
M  END
