
     RDKit          3D

 12 12  0  0  0  0  0  0  0  0999 V2000
    0.8240    1.7540   -0.9690 C   0  0  0  0  0  0  0  0  0  0  0  0
    1.2100    0.6270   -0.4280 C   0  0  0  0  0  0  0  0  0  0  0  0
    2.5080    0.4320    0.2000 C   0  0  0  0  0  0  0  0  0  0  0  0
    3.3740    1.3720    0.2640 N   0  0  0  0  0  0  0  0  0  0  0  0
    2.8530   -0.8860    0.7860 C   0  0  0  0  0  0  0  0  0  0  0  0
    1.9380   -1.8220    0.7000 C   0  0  0  0  0  0  0  0  0  0  0  0
    0.6350   -1.6740    0.0850 C   0  0  0  0  0  0  0  0  0  0  0  0
    0.2850   -0.5220   -0.4480 C   0  0  0  0  0  0  0  0  0  0  0  0
   -1.0210   -0.4090   -1.0510 N   0  0  0  0  0  0  0  0  0  0  0  0
   -2.1650   -1.0610   -0.4510 C   0  0  0  0  0  0  0  0  0  0  0  0
   -2.5070   -0.3990    0.8910 C   0  0  0  0  0  0  0  0  0  0  0  0
   -2.8230    1.0500    0.5860 C   0  0  0  0  0  0  0  0  0  0  0  0
  1  2  2  0
  2  3  1  0
  2  8  1  0
  3  4  2  0
  3  5  1  0
  5  6  2  0
  6  7  1  0
  7  8  2  0
  8  9  1  0
  9 10  1  0
 10 11  1  0
 11 12  1  0
M  CHG  1   4   1
M  END
