
     RDKit          3D

 19 20  0  0  0  0  0  0  0  0999 V2000
   -6.1730   -0.8310    0.5460 N   0  0  0  0  0  0  0  0  0  0  0  0
   -4.8360    0.2730    0.6560 S   0  0  1  0  0  0  0  0  0  0  0  0
   -5.0250    1.4220   -0.2510 O   0  0  0  0  0  0  0  0  0  0  0  0
   -4.8250    0.7810    2.0850 O   0  0  0  0  0  0  0  0  0  0  0  0
   -3.3100   -0.5450    0.3080 C   0  0  0  0  0  0  0  0  0  0  0  0
   -2.1630    0.3820    0.4010 C   0  0  1  0  0  0  0  0  0  0  0  0
   -0.5930   -0.5170    0.0700 S   0  0  0  0  0  0  0  0  0  0  0  0
    0.5170    0.8610   -0.1570 C   0  0  0  0  0  0  0  0  0  0  0  0
    1.7610    0.8170   -0.2800 N   0  0  0  0  0  0  0  0  0  0  0  0
    2.4380   -0.4480   -0.2430 C   0  0  0  0  0  0  0  0  0  0  0  0
    3.9160   -0.1780   -0.1380 C   0  0  2  0  0  0  0  0  0  0  0  0
    4.7400   -1.4210    0.0140 C   0  0  0  0  0  0  0  0  0  0  0  0
    5.9860   -0.8850    0.7210 C   0  0  0  0  0  0  0  0  0  0  0  0
    5.6460    0.5590    0.9260 C   0  0  0  0  0  0  0  0  0  0  0  0
    4.2420    0.5400    1.0050 O   0  0  0  0  0  0  0  0  0  0  0  0
   -0.5150    2.3160   -0.1740 S   0  0  0  0  0  0  0  0  0  0  0  0
   -2.1470    1.5130   -0.5790 C   0  0  1  0  0  0  0  0  0  0  0  0
   -2.1330    1.1110   -2.0180 C   0  0  0  0  0  0  0  0  0  0  0  0
   -3.2050    0.3560   -2.4360 O   0  0  0  0  0  0  0  0  0  0  0  0
  2  1  1  1
  2  3  2  0
  2  4  2  0
  2  5  1  0
  6  5  1  6
  6  7  1  0
  6 17  1  0
  7  8  1  0
  8  9  2  3
  8 16  1  0
  9 10  1  0
 11 10  1  1
 11 12  1  0
 11 15  1  0
 12 13  1  0
 13 14  1  0
 14 15  1  0
 16 17  1  0
 17 18  1  6
 18 19  1  0
M  CHG  1   1   1
M  END
