
     RDKit          3D

 19 19  0  0  0  0  0  0  0  0999 V2000
    5.4290    0.8340    0.0220 C   0  0  0  0  0  0  0  0  0  0  0  0
    4.6020   -0.7520    0.0900 S   0  0  1  0  0  0  0  0  0  0  0  0
    4.0700   -1.1680   -1.2290 O   0  0  0  0  0  0  0  0  0  0  0  0
    5.6610   -1.7640    0.4950 O   0  0  0  0  0  0  0  0  0  0  0  0
    3.3580   -0.6670    1.3080 C   0  0  0  0  0  0  0  0  0  0  0  0
    3.8080   -1.0960    2.8380 S   0  0  0  0  0  0  0  0  0  0  0  0
    2.0250   -0.2630    1.0700 N   0  0  0  0  0  0  0  0  0  0  0  0
    1.6410    0.1110   -0.2720 C   0  0  0  0  0  0  0  0  0  0  0  0
    0.1700    0.5170   -0.3480 C   0  0  0  0  0  0  0  0  0  0  0  0
   -0.6470   -0.6550    0.0750 C   0  0  2  0  0  0  0  0  0  0  0  0
   -0.4130   -1.8040   -0.7920 N   0  0  0  0  0  0  0  0  0  0  0  0
   -2.1300   -0.3960    0.0360 C   0  0  0  0  0  0  0  0  0  0  0  0
   -2.5800    0.7530   -0.3660 C   0  0  0  0  0  0  0  0  0  0  0  0
   -3.9770    1.1990   -0.4760 C   0  0  0  0  0  0  0  0  0  0  0  0
   -5.1130   -0.0380    0.0000 S   0  0  2  0  0  0  0  0  0  0  0  0
   -6.0400   -0.3500   -1.1780 O   0  0  0  0  0  0  0  0  0  0  0  0
   -5.9940    0.4280    1.1520 O   0  0  0  0  0  0  0  0  0  0  0  0
   -4.2600   -1.4640    0.4900 C   0  0  0  0  0  0  0  0  0  0  0  0
   -2.9620   -1.5040    0.4630 C   0  0  0  0  0  0  0  0  0  0  0  0
  2  1  1  6
  2  3  2  0
  2  4  2  0
  2  5  1  0
  5  6  2  0
  5  7  1  0
  7  8  1  0
  8  9  1  0
  9 10  1  0
 10 11  1  6
 10 12  1  0
 12 13  2  0
 12 19  1  0
 13 14  1  0
 15 14  1  6
 15 16  2  0
 15 17  2  0
 15 18  1  0
 18 19  2  0
M  CHG  1  11   1
M  END
