
     RDKit          3D

 19 20  0  0  0  0  0  0  0  0999 V2000
    6.6020    1.0900   -0.0030 N   0  0  0  0  0  0  0  0  0  0  0  0
    5.7670    0.0150    0.4070 C   0  0  0  0  0  0  0  0  0  0  0  0
    6.1600   -0.9830    0.9700 O   0  0  0  0  0  0  0  0  0  0  0  0
    4.3070    0.1260    0.1230 C   0  0  0  0  0  0  0  0  0  0  0  0
    3.5550   -1.0820    0.6130 C   0  0  0  0  0  0  0  0  0  0  0  0
    2.1920   -0.9480    0.3400 O   0  0  0  0  0  0  0  0  0  0  0  0
    1.6980   -0.8600   -0.9320 C   0  0  0  0  0  0  0  0  0  0  0  0
    2.4400   -0.8990   -1.9470 O   0  0  0  0  0  0  0  0  0  0  0  0
    0.2370   -0.7110   -1.2240 C   0  0  0  0  0  0  0  0  0  0  0  0
   -0.6130   -0.6790    0.3600 S   0  0  0  0  0  0  0  0  0  0  0  0
   -0.0940    0.4790    1.2040 O   0  0  0  0  0  0  0  0  0  0  0  0
   -2.3490   -0.5020    0.0320 C   0  0  0  0  0  0  0  0  0  0  0  0
   -3.2900   -0.4520    0.8590 N   0  0  0  0  0  0  0  0  0  0  0  0
   -4.6020   -0.3080    0.4340 C   0  0  1  0  0  0  0  0  0  0  0  0
   -4.8910    1.1710    0.2880 C   0  0  0  0  0  0  0  0  0  0  0  0
   -6.3200    1.2810   -0.2620 C   0  0  0  0  0  0  0  0  0  0  0  0
   -6.1370    0.0520   -1.6240 S   0  0  0  0  0  0  0  0  0  0  0  0
   -4.7900   -0.9030   -0.9560 C   0  0  1  0  0  0  0  0  0  0  0  0
   -3.1430   -0.3740   -1.5980 S   0  0  0  0  0  0  0  0  0  0  0  0
  1  2  1  0
  2  3  2  0
  2  4  1  0
  4  5  1  0
  5  6  1  0
  6  7  1  0
  7  8  2  0
  7  9  1  0
 10  9  1  6
 10 11  2  0
 10 12  1  0
 12 13  2  0
 12 19  1  0
 13 14  1  0
 14 15  1  6
 14 18  1  0
 15 16  1  0
 16 17  1  0
 18 17  1  6
 18 19  1  0
M  CHG  1   1   1
M  END
