
     RDKit          3D

 18 19  0  0  0  0  0  0  0  0999 V2000
   -2.9580    1.1200   -1.0420 C   0  0  0  0  0  0  0  0  0  0  0  0
   -2.7100    0.1950    0.1030 C   0  0  1  0  0  0  0  0  0  0  0  0
   -1.3610    0.2940    0.6840 C   0  0  0  0  0  0  0  0  0  0  0  0
   -1.2110    0.5960    1.8440 O   0  0  0  0  0  0  0  0  0  0  0  0
   -0.2210    0.0350   -0.1130 N   0  0  0  0  0  0  0  0  0  0  0  0
    0.8550    0.9980    0.1350 C   0  0  0  0  0  0  0  0  0  0  0  0
    2.1410    0.4320   -0.2910 C   0  0  0  0  0  0  0  0  0  0  0  0
    2.9360    0.9590   -1.2190 C   0  0  0  0  0  0  0  0  0  0  0  0
    4.4610    0.1440   -1.6160 S   0  0  0  0  0  0  0  0  0  0  0  0
    5.3210   -0.5210   -0.1870 C   0  0  0  0  0  0  0  0  0  0  0  0
    4.4380   -0.7860    0.9980 C   0  0  0  0  0  0  0  0  0  0  0  0
    2.7170   -1.0820    0.4770 S   0  0  0  0  0  0  0  0  0  0  0  0
   -3.9960    0.5690    1.3710 S   0  0  0  0  0  0  0  0  0  0  0  0
   -5.1400   -0.7050    0.8750 C   0  0  0  0  0  0  0  0  0  0  0  0
   -6.2540   -0.9190    1.3580 O   0  0  0  0  0  0  0  0  0  0  0  0
   -4.4990   -1.3990   -0.1710 N   0  0  0  0  0  0  0  0  0  0  0  0
   -3.0980   -1.2150   -0.2020 C   0  0  0  0  0  0  0  0  0  0  0  0
   -2.1930   -2.0860   -0.4510 O   0  0  0  0  0  0  0  0  0  0  0  0
  2  1  1  6
  2  3  1  0
  2 13  1  0
  2 17  1  0
  3  4  2  0
  3  5  1  0
  5  6  1  0
  6  7  1  0
  7  8  2  0
  7 12  1  0
  8  9  1  0
  9 10  1  0
 10 11  1  0
 11 12  1  0
 13 14  1  0
 14 15  2  0
 14 16  1  0
 16 17  1  0
 17 18  2  0
M  CHG  1   5   1
M  END
