
     RDKit          3D

 18 19  0  0  0  0  0  0  0  0999 V2000
   -2.3660    3.3960   -0.6030 O   0  0  0  0  0  0  0  0  0  0  0  0
   -3.0830    2.2280   -0.6730 C   0  0  0  0  0  0  0  0  0  0  0  0
   -2.6490    1.0120   -0.4580 C   0  0  0  0  0  0  0  0  0  0  0  0
   -3.5580   -0.1490   -0.5770 C   0  0  0  0  0  0  0  0  0  0  0  0
   -2.7890   -1.4480   -0.6860 C   0  0  0  0  0  0  0  0  0  0  0  0
   -1.4470   -1.2760   -1.3510 C   0  0  2  0  0  0  0  0  0  0  0  0
   -0.8150   -2.5060   -1.3850 O   0  0  0  0  0  0  0  0  0  0  0  0
   -0.6220   -0.3570   -0.5340 C   0  0  0  0  0  0  0  0  0  0  0  0
    0.6930   -0.6410   -0.2350 C   0  0  0  0  0  0  0  0  0  0  0  0
    1.3600    0.3010    0.5410 C   0  0  0  0  0  0  0  0  0  0  0  0
    2.6800    0.0420    0.8550 O   0  0  0  0  0  0  0  0  0  0  0  0
    3.3710   -1.1090    0.4350 C   0  0  0  0  0  0  0  0  0  0  0  0
    4.7910   -0.9890    1.0030 C   0  0  0  0  0  0  0  0  0  0  0  0
    4.6530   -0.9260    2.3850 O   0  0  0  0  0  0  0  0  0  0  0  0
    0.7740    1.4520    0.9970 C   0  0  0  0  0  0  0  0  0  0  0  0
    1.4810    2.3670    1.7720 O   0  0  0  0  0  0  0  0  0  0  0  0
   -0.5480    1.6910    0.6710 C   0  0  0  0  0  0  0  0  0  0  0  0
   -1.2550    0.7990   -0.0910 C   0  0  0  0  0  0  0  0  0  0  0  0
  1  2  1  0
  2  3  2  3
  3  4  1  0
  3 18  1  0
  4  5  1  0
  5  6  1  0
  6  7  1  1
  6  8  1  0
  8  9  2  0
  8 18  1  0
  9 10  1  0
 10 11  1  0
 10 15  2  0
 11 12  1  0
 12 13  1  0
 13 14  1  0
 15 16  1  0
 15 17  1  0
 17 18  2  0
M  END
