
     RDKit          3D

 28 32  0  0  0  0  0  0  0  0999 V2000
   -0.7900   -5.3800   -1.1390 N   0  0  0  0  0  0  0  0  0  0  0  0
   -0.4890   -4.0820   -0.6510 C   0  0  0  0  0  0  0  0  0  0  0  0
   -1.2660   -3.2920    0.1370 N   0  0  0  0  0  0  0  0  0  0  0  0
   -0.6440   -2.1410    0.3870 N   0  0  0  0  0  0  0  0  0  0  0  0
   -0.9600   -1.0400    1.0930 C   0  0  0  0  0  0  0  0  0  0  0  0
   -2.2600   -0.9620    1.7950 C   0  0  0  0  0  0  0  0  0  0  0  0
   -3.3220   -0.3800    0.9430 C   0  0  0  0  0  0  0  0  0  0  0  0
   -4.0910   -1.2090    0.1530 C   0  0  0  0  0  0  0  0  0  0  0  0
   -5.0930   -0.7180   -0.6580 C   0  0  0  0  0  0  0  0  0  0  0  0
   -5.3400    0.6380   -0.6880 C   0  0  0  0  0  0  0  0  0  0  0  0
   -4.5750    1.4620    0.0970 C   0  0  0  0  0  0  0  0  0  0  0  0
   -3.5680    0.9960    0.9170 C   0  0  0  0  0  0  0  0  0  0  0  0
   -5.0360    2.7620   -0.1270 O   0  0  0  0  0  0  0  0  0  0  0  0
   -6.3050    2.6890   -0.7840 C   0  0  0  0  0  0  0  0  0  0  0  0
   -6.2750    1.4130   -1.4010 O   0  0  0  0  0  0  0  0  0  0  0  0
   -0.1360    0.0140    1.1940 N   0  0  0  0  0  0  0  0  0  0  0  0
    1.0700    0.0520    0.5970 C   0  0  0  0  0  0  0  0  0  0  0  0
    1.9060    1.1440    0.7110 C   0  0  0  0  0  0  0  0  0  0  0  0
    3.1470    1.1380    0.0740 C   0  0  0  0  0  0  0  0  0  0  0  0
    4.0320    2.2520    0.1740 N   0  0  0  0  0  0  0  0  0  0  0  0
    5.3030    2.1660   -0.5170 C   0  0  0  0  0  0  0  0  0  0  0  0
    6.1410    3.3890   -0.3400 C   0  0  0  0  0  0  0  0  0  0  0  0
    7.3310    3.1980   -1.0420 O   0  0  0  0  0  0  0  0  0  0  0  0
    3.4680    0.0100   -0.6470 C   0  0  0  0  0  0  0  0  0  0  0  0
    2.6320   -1.0840   -0.7620 C   0  0  0  0  0  0  0  0  0  0  0  0
    1.4110   -1.0690   -0.1310 C   0  0  0  0  0  0  0  0  0  0  0  0
    0.5490   -2.1620   -0.2310 C   0  0  0  0  0  0  0  0  0  0  0  0
    0.6300   -3.3490   -0.8600 N   0  0  0  0  0  0  0  0  0  0  0  0
  1  2  1  0
  2  3  2  0
  2 28  1  0
  3  4  1  0
  4  5  2  0
  4 27  1  0
  5  6  1  0
  5 16  1  0
  6  7  1  0
  7  8  2  0
  7 12  1  0
  8  9  1  0
  9 10  2  0
 10 11  1  0
 10 15  1  0
 11 12  2  0
 11 13  1  0
 13 14  1  0
 14 15  1  0
 16 17  2  0
 17 18  1  0
 17 26  1  0
 18 19  2  0
 19 20  1  0
 19 24  1  0
 20 21  1  0
 21 22  1  0
 22 23  1  0
 24 25  2  0
 25 26  1  0
 26 27  2  0
 27 28  1  0
M  CHG  1   4   1
M  END
