
     RDKit          3D

 28 31  0  0  0  0  0  0  0  0999 V2000
   -5.3680   -0.4860   -0.9850 C   0  0  0  0  0  0  0  0  0  0  0  0
   -4.0960   -0.1050   -1.7330 C   0  0  0  0  0  0  0  0  0  0  0  0
   -2.9790   -0.9160   -1.3120 N   0  0  0  0  0  0  0  0  0  0  0  0
   -2.6970   -2.1270   -1.7910 N   0  0  0  0  0  0  0  0  0  0  0  0
   -1.6490   -2.6280   -1.1850 C   0  0  0  0  0  0  0  0  0  0  0  0
   -1.0730   -3.9920   -1.4320 C   0  0  0  0  0  0  0  0  0  0  0  0
   -1.2430   -1.6620   -0.2630 C   0  0  0  0  0  0  0  0  0  0  0  0
    0.1130   -1.7570    0.4280 C   0  0  2  0  0  0  0  0  0  0  0  0
    0.0690   -1.2080    1.7950 C   0  0  0  0  0  0  0  0  0  0  0  0
    0.9260   -1.0380   -0.4860 N   0  0  0  0  0  0  0  0  0  0  0  0
    2.0980   -0.4490   -0.1790 N   0  0  0  0  0  0  0  0  0  0  0  0
    2.6160    0.6330   -1.0450 C   0  0  0  0  0  0  0  0  0  0  0  0
    2.0630    1.0550   -2.0720 O   0  0  0  0  0  0  0  0  0  0  0  0
    3.8620    1.0860   -0.4740 C   0  0  0  0  0  0  0  0  0  0  0  0
    4.7760    2.0680   -0.8770 C   0  0  0  0  0  0  0  0  0  0  0  0
    5.9180    2.3240   -0.1690 C   0  0  0  0  0  0  0  0  0  0  0  0
    6.1500    1.5670    0.9840 C   0  0  0  0  0  0  0  0  0  0  0  0
    7.2060    1.8330    1.6050 O   0  0  0  0  0  0  0  0  0  0  0  0
    5.2770    0.6270    1.3710 N   0  0  0  0  0  0  0  0  0  0  0  0
    4.1710    0.3920    0.6660 C   0  0  0  0  0  0  0  0  0  0  0  0
    3.0450   -0.5720    0.8330 C   0  0  0  0  0  0  0  0  0  0  0  0
    3.0290   -1.3650    1.7980 O   0  0  0  0  0  0  0  0  0  0  0  0
   -2.0820   -0.5770   -0.3370 C   0  0  0  0  0  0  0  0  0  0  0  0
   -1.9840    0.7600    0.2740 C   0  0  0  0  0  0  0  0  0  0  0  0
   -2.0020    1.9180   -0.4150 C   0  0  0  0  0  0  0  0  0  0  0  0
   -1.9030    3.0300    0.4430 N   0  0  0  0  0  0  0  0  0  0  0  0
   -1.8690    2.5210    1.7600 C   0  0  0  0  0  0  0  0  0  0  0  0
   -1.9100    1.1830    1.6450 C   0  0  0  0  0  0  0  0  0  0  0  0
  1  2  1  0
  2  3  1  0
  3  4  1  0
  3 23  1  0
  4  5  2  0
  5  6  1  0
  5  7  1  0
  7  8  1  0
  7 23  2  0
  8  9  1  1
  8 10  1  0
 10 11  1  0
 11 12  1  0
 11 21  1  0
 12 13  2  0
 12 14  1  0
 14 15  1  0
 14 20  2  0
 15 16  2  0
 16 17  1  0
 17 18  2  0
 17 19  1  0
 19 20  1  0
 20 21  1  0
 21 22  2  0
 23 24  1  0
 24 25  2  0
 24 28  1  0
 25 26  1  0
 26 27  1  0
 27 28  2  0
M  CHG  1  26   1
M  END
