
     RDKit          3D

 28 31  0  0  0  0  0  0  0  0999 V2000
    6.1510    2.1890    1.0770 C   0  0  0  0  0  0  0  0  0  0  0  0
    5.3370    1.9490   -0.0940 N   0  0  0  0  0  0  0  0  0  0  0  0
    4.1840    1.1260   -0.0040 C   0  0  0  0  0  0  0  0  0  0  0  0
    3.8180    0.5430    1.1890 C   0  0  0  0  0  0  0  0  0  0  0  0
    2.6940   -0.2520    1.2520 C   0  0  0  0  0  0  0  0  0  0  0  0
    1.8820   -0.5070    0.1410 C   0  0  0  0  0  0  0  0  0  0  0  0
    0.7610   -1.3120    0.2450 O   0  0  0  0  0  0  0  0  0  0  0  0
   -0.5360   -0.8640   -0.0110 C   0  0  0  0  0  0  0  0  0  0  0  0
   -0.8360    0.4260   -0.3680 C   0  0  0  0  0  0  0  0  0  0  0  0
   -2.1280    0.8220   -0.6110 C   0  0  0  0  0  0  0  0  0  0  0  0
   -2.3460    2.1730   -0.9750 N   0  0  0  0  0  0  0  0  0  0  0  0
   -3.1610    2.9590   -0.3600 C   0  0  0  0  0  0  0  0  0  0  0  0
   -3.9410    2.6920    0.6980 N   0  0  0  0  0  0  0  0  0  0  0  0
   -4.6200    3.8100    0.9950 C   0  0  0  0  0  0  0  0  0  0  0  0
   -4.2370    4.7420    0.1060 N   0  0  0  0  0  0  0  0  0  0  0  0
   -3.3450    4.2390   -0.7310 N   0  0  0  0  0  0  0  0  0  0  0  0
   -3.1930   -0.0410   -0.5130 C   0  0  0  0  0  0  0  0  0  0  0  0
   -2.9020   -1.3630   -0.1490 C   0  0  0  0  0  0  0  0  0  0  0  0
   -3.9780   -2.2110   -0.0550 O   0  0  0  0  0  0  0  0  0  0  0  0
   -1.6020   -1.7670    0.0970 C   0  0  0  0  0  0  0  0  0  0  0  0
   -1.2750   -3.1460    0.4800 C   0  0  0  0  0  0  0  0  0  0  0  0
   -2.3980   -4.0390    0.5800 N   0  0  0  0  0  0  0  0  0  0  0  0
   -1.9260   -5.3860    0.9680 C   0  0  0  0  0  0  0  0  0  0  0  0
    2.2830    0.0940   -1.0300 C   0  0  0  0  0  0  0  0  0  0  0  0
    1.7560    0.0580   -2.2250 O   0  0  0  0  0  0  0  0  0  0  0  0
    2.4390    0.7670   -3.0820 C   0  0  0  0  0  0  0  0  0  0  0  0
    3.5040    1.3150   -2.3980 C   0  0  0  0  0  0  0  0  0  0  0  0
    3.3980    0.8880   -1.1100 C   0  0  0  0  0  0  0  0  0  0  0  0
  1  2  1  0
  2  3  1  0
  3  4  2  0
  3 28  1  0
  4  5  1  0
  5  6  2  0
  6  7  1  0
  6 24  1  0
  7  8  1  0
  8  9  2  0
  8 20  1  0
  9 10  1  0
 10 11  1  0
 10 17  2  0
 11 12  2  3
 12 13  1  0
 12 16  1  0
 13 14  1  0
 14 15  2  0
 15 16  1  0
 17 18  1  0
 18 19  1  0
 18 20  2  0
 20 21  1  0
 21 22  1  0
 22 23  1  0
 24 25  1  0
 24 28  2  0
 25 26  1  0
 26 27  2  0
 27 28  1  0
M  CHG  1  22   1
M  END
