
     RDKit          3D

 28 31  0  0  0  0  0  0  0  0999 V2000
   -7.1550   -1.0950   -0.4010 N   0  0  0  0  0  0  0  0  0  0  0  0
   -6.0930   -0.8110    0.5550 C   0  0  0  0  0  0  0  0  0  0  0  0
   -4.8910   -1.4180    0.1040 N   0  0  0  0  0  0  0  0  0  0  0  0
   -3.7220   -0.9310    0.0610 C   0  0  0  0  0  0  0  0  0  0  0  0
   -3.3660    0.4000    0.4810 C   0  0  0  0  0  0  0  0  0  0  0  0
   -2.1030    0.8160    0.3940 C   0  0  0  0  0  0  0  0  0  0  0  0
   -1.0180    0.0030   -0.1130 C   0  0  0  0  0  0  0  0  0  0  0  0
   -1.2840   -1.2960   -0.5370 C   0  0  0  0  0  0  0  0  0  0  0  0
   -0.1060   -1.8750   -0.9470 C   0  0  0  0  0  0  0  0  0  0  0  0
    0.8350   -0.9610   -0.7790 N   0  0  0  0  0  0  0  0  0  0  0  0
    0.2960    0.1950   -0.2720 N   0  0  0  0  0  0  0  0  0  0  0  0
    1.0850    1.3490   -0.0950 C   0  0  0  0  0  0  0  0  0  0  0  0
    0.6640    2.5640    0.0220 C   0  0  0  0  0  0  0  0  0  0  0  0
    1.5350    3.7510    0.2060 C   0  0  0  0  0  0  0  0  0  0  0  0
    2.5860    4.0990   -0.5830 C   0  0  0  0  0  0  0  0  0  0  0  0
    3.1200    5.2740   -0.0470 C   0  0  0  0  0  0  0  0  0  0  0  0
    2.3350    5.5560    1.0490 C   0  0  0  0  0  0  0  0  0  0  0  0
    1.4110    4.6290    1.1600 O   0  0  0  0  0  0  0  0  0  0  0  0
    2.5060    1.1140    0.0320 N   0  0  0  0  0  0  0  0  0  0  0  0
    2.9600   -0.1490    0.4430 N   0  0  0  0  0  0  0  0  0  0  0  0
    4.2090   -0.7080    0.0850 C   0  0  0  0  0  0  0  0  0  0  0  0
    4.9610   -0.0320   -0.6480 O   0  0  0  0  0  0  0  0  0  0  0  0
    4.5760   -2.0600    0.5870 C   0  0  1  0  0  0  0  0  0  0  0  0
    5.4570   -2.9500   -0.2050 C   0  0  0  0  0  0  0  0  0  0  0  0
    6.0480   -2.1820    0.9530 C   0  0  0  0  0  0  0  0  0  0  0  0
   -2.6460   -1.7930   -0.4600 C   0  0  0  0  0  0  0  0  0  0  0  0
   -2.8950   -3.0240   -0.8630 C   0  0  0  0  0  0  0  0  0  0  0  0
   -4.1600   -3.5850   -0.8270 O   0  0  0  0  0  0  0  0  0  0  0  0
  1  2  1  0
  2  3  1  0
  3  4  2  3
  4  5  1  0
  4 26  1  0
  5  6  2  0
  6  7  1  0
  7  8  2  0
  7 11  1  0
  8  9  1  0
  8 26  1  0
  9 10  2  0
 10 11  1  0
 11 12  1  0
 12 13  2  3
 12 19  1  0
 13 14  1  0
 14 15  2  0
 14 18  1  0
 15 16  1  0
 16 17  2  0
 17 18  1  0
 19 20  1  0
 20 21  1  0
 21 22  2  0
 23 21  1  6
 23 24  1  0
 23 25  1  0
 24 25  1  0
 26 27  2  3
 27 28  1  0
M  CHG  1   1   1
M  END
