
     RDKit          3D

 28 31  0  0  0  0  0  0  0  0999 V2000
    6.9100    0.3640   -1.6450 C   0  0  0  0  0  0  0  0  0  0  0  0
    6.9360   -0.3600   -0.3900 N   0  0  0  0  0  0  0  0  0  0  0  0
    5.9490   -1.3150   -0.0270 C   0  0  0  0  0  0  0  0  0  0  0  0
    6.0690   -2.6030    0.2330 C   0  0  0  0  0  0  0  0  0  0  0  0
    4.7720   -3.1640    0.5610 C   0  0  0  0  0  0  0  0  0  0  0  0
    3.8440   -2.1790    0.4940 C   0  0  0  0  0  0  0  0  0  0  0  0
    2.3950   -2.2060    0.7300 C   0  0  0  0  0  0  0  0  0  0  0  0
    1.7940   -0.8720    0.5360 C   0  0  0  0  0  0  0  0  0  0  0  0
    0.4110   -0.7660    0.7320 C   0  0  0  0  0  0  0  0  0  0  0  0
   -0.2920    0.4350    0.5820 C   0  0  0  0  0  0  0  0  0  0  0  0
   -1.6740    0.4040    0.8200 N   0  0  0  0  0  0  0  0  0  0  0  0
   -2.5360    1.4740    0.5190 C   0  0  0  0  0  0  0  0  0  0  0  0
   -2.1640    2.5410    0.0160 O   0  0  0  0  0  0  0  0  0  0  0  0
   -3.9880    1.3670    0.8040 C   0  0  0  0  0  0  0  0  0  0  0  0
   -4.7650    2.3740    0.5160 C   0  0  0  0  0  0  0  0  0  0  0  0
   -6.1580    2.3600    0.7530 N   0  0  0  0  0  0  0  0  0  0  0  0
   -6.9360    1.4480    0.2280 C   0  0  0  0  0  0  0  0  0  0  0  0
   -6.5260    0.3810   -0.6200 N   0  0  0  0  0  0  0  0  0  0  0  0
   -7.6550   -0.3780   -0.9710 C   0  0  0  0  0  0  0  0  0  0  0  0
   -7.7060   -1.4010   -1.7050 O   0  0  0  0  0  0  0  0  0  0  0  0
   -8.7900    0.1920   -0.3550 N   0  0  0  0  0  0  0  0  0  0  0  0
   -8.3710    1.3240    0.3940 C   0  0  0  0  0  0  0  0  0  0  0  0
   -9.1460    2.0450    1.0560 O   0  0  0  0  0  0  0  0  0  0  0  0
    0.4450    1.5420    0.2260 C   0  0  0  0  0  0  0  0  0  0  0  0
    1.8090    1.4500    0.0300 C   0  0  0  0  0  0  0  0  0  0  0  0
    2.4890    0.2540    0.1820 C   0  0  0  0  0  0  0  0  0  0  0  0
    3.8930    0.1640   -0.0210 N   0  0  0  0  0  0  0  0  0  0  0  0
    4.5180   -0.9590    0.1230 C   0  0  0  0  0  0  0  0  0  0  0  0
  1  2  1  0
  2  3  1  0
  3  4  2  0
  3 28  1  0
  4  5  1  0
  5  6  2  0
  6  7  1  0
  6 28  1  0
  7  8  1  0
  8  9  2  0
  8 26  1  0
  9 10  1  0
 10 11  1  0
 10 24  2  0
 11 12  1  0
 12 13  2  0
 12 14  1  0
 14 15  2  3
 15 16  1  0
 16 17  2  3
 17 18  1  0
 17 22  1  0
 18 19  1  0
 19 20  2  0
 19 21  1  0
 21 22  1  0
 22 23  2  0
 24 25  1  0
 25 26  2  0
 26 27  1  0
 27 28  2  0
M  CHG  1  27   1
M  END
