
     RDKit          3D

 28 31  0  0  0  0  0  0  0  0999 V2000
   -1.6380    1.5530    3.1490 C   0  0  0  0  0  0  0  0  0  0  0  0
   -0.9710    0.2860    2.6900 C   0  0  0  0  0  0  0  0  0  0  0  0
   -1.4780   -0.1890    1.3810 C   0  0  0  0  0  0  0  0  0  0  0  0
   -2.5280   -1.0330    1.3660 N   0  0  0  0  0  0  0  0  0  0  0  0
   -3.0540   -1.5140    0.2270 C   0  0  0  0  0  0  0  0  0  0  0  0
   -2.4550   -1.0950   -0.9490 C   0  0  0  0  0  0  0  0  0  0  0  0
   -1.3910   -0.2420   -0.9790 C   0  0  0  0  0  0  0  0  0  0  0  0
   -0.7350    0.2240   -2.2190 C   0  0  0  0  0  0  0  0  0  0  0  0
    0.3710    1.1190   -1.9460 N   0  0  0  0  0  0  0  0  0  0  0  0
    1.5000    0.6750   -1.1700 C   0  0  0  0  0  0  0  0  0  0  0  0
    1.4650   -0.4840   -0.7670 O   0  0  0  0  0  0  0  0  0  0  0  0
    2.5910    1.5010   -0.8780 N   0  0  0  0  0  0  0  0  0  0  0  0
    3.7410    1.1870   -0.1340 C   0  0  0  0  0  0  0  0  0  0  0  0
    3.9480    0.0010    0.5210 C   0  0  0  0  0  0  0  0  0  0  0  0
    5.1370   -0.2290    1.2380 C   0  0  0  0  0  0  0  0  0  0  0  0
    6.1260    0.7250    1.3050 C   0  0  0  0  0  0  0  0  0  0  0  0
    7.3140    0.7860    1.8870 O   0  0  0  0  0  0  0  0  0  0  0  0
    7.8750    1.9610    1.6330 C   0  0  0  0  0  0  0  0  0  0  0  0
    8.9950    2.3700    2.0190 O   0  0  0  0  0  0  0  0  0  0  0  0
    7.0260    2.6570    0.8750 N   0  0  0  0  0  0  0  0  0  0  0  0
    5.9310    1.9220    0.6520 C   0  0  0  0  0  0  0  0  0  0  0  0
    4.7510    2.1220   -0.0470 C   0  0  0  0  0  0  0  0  0  0  0  0
   -0.9250    0.1940    0.2040 N   0  0  0  0  0  0  0  0  0  0  0  0
   -2.8600   -1.4910   -2.3160 C   0  0  0  0  0  0  0  0  0  0  0  0
   -4.1630   -2.1310   -2.3330 N   0  0  0  0  0  0  0  0  0  0  0  0
   -5.1370   -1.3490   -1.5850 C   0  0  0  0  0  0  0  0  0  0  0  0
   -5.4200   -2.0950   -0.3090 C   0  0  0  0  0  0  0  0  0  0  0  0
   -4.1810   -2.4080    0.4690 C   0  0  0  0  0  0  0  0  0  0  0  0
  1  2  1  0
  2  3  1  0
  3  4  2  0
  3 23  1  0
  4  5  1  0
  5  6  2  0
  5 28  1  0
  6  7  1  0
  6 24  1  0
  7  8  1  0
  7 23  2  0
  8  9  1  0
  9 10  1  0
 10 11  2  0
 10 12  1  0
 12 13  1  0
 13 14  2  0
 13 22  1  0
 14 15  1  0
 15 16  2  0
 16 17  1  0
 16 21  1  0
 17 18  1  0
 18 19  2  0
 18 20  1  0
 20 21  1  0
 21 22  2  0
 24 25  1  0
 25 26  1  0
 26 27  1  0
 27 28  1  0
M  CHG  1  25   1
M  END
