
     RDKit          3D

 28 31  0  0  0  0  0  0  0  0999 V2000
   -5.1960    1.2340    2.5160 C   0  0  0  0  0  0  0  0  0  0  0  0
   -4.7180    0.6720    1.2250 C   0  0  0  0  0  0  0  0  0  0  0  0
   -3.4160    0.8350    0.8170 C   0  0  0  0  0  0  0  0  0  0  0  0
   -2.9630    0.3190   -0.3700 C   0  0  0  0  0  0  0  0  0  0  0  0
   -1.6250    0.4100   -0.7360 N   0  0  0  0  0  0  0  0  0  0  0  0
   -0.5390    0.6650    0.1460 N   0  0  0  0  0  0  0  0  0  0  0  0
    0.5550   -0.2100   -0.0420 C   0  0  0  0  0  0  0  0  0  0  0  0
    0.4490   -1.1160   -0.9460 O   0  0  0  0  0  0  0  0  0  0  0  0
    1.8220   -0.2060    0.6670 N   0  0  0  0  0  0  0  0  0  0  0  0
    2.7590   -1.1970    0.2320 C   0  0  0  0  0  0  0  0  0  0  0  0
    2.3320   -2.4960   -0.1620 C   0  0  0  0  0  0  0  0  0  0  0  0
    3.4490   -3.1280   -0.5800 N   0  0  0  0  0  0  0  0  0  0  0  0
    4.4780   -2.3170   -0.4630 N   0  0  0  0  0  0  0  0  0  0  0  0
    4.0750   -1.0950    0.0520 C   0  0  0  0  0  0  0  0  0  0  0  0
    4.9770    0.0350    0.1190 C   0  0  0  0  0  0  0  0  0  0  0  0
    6.3750   -0.2870    0.1560 C   0  0  0  0  0  0  0  0  0  0  0  0
    7.3630    0.6320   -0.0560 C   0  0  0  0  0  0  0  0  0  0  0  0
    8.7020    0.1770   -0.0100 O   0  0  0  0  0  0  0  0  0  0  0  0
    7.0090    1.9150   -0.3050 C   0  0  0  0  0  0  0  0  0  0  0  0
    5.6820    2.2820   -0.3530 C   0  0  0  0  0  0  0  0  0  0  0  0
    4.6750    1.3340   -0.1390 C   0  0  0  0  0  0  0  0  0  0  0  0
    3.3380    1.7560   -0.1920 O   0  0  0  0  0  0  0  0  0  0  0  0
   -3.8340   -0.3570   -1.1440 N   0  0  0  0  0  0  0  0  0  0  0  0
   -5.1280   -0.5530   -0.8000 C   0  0  0  0  0  0  0  0  0  0  0  0
   -5.5720   -0.0280    0.4030 C   0  0  0  0  0  0  0  0  0  0  0  0
   -6.9900   -0.4100    0.5270 C   0  0  0  0  0  0  0  0  0  0  0  0
   -7.2840   -1.1860   -0.6940 C   0  0  0  0  0  0  0  0  0  0  0  0
   -6.2160   -1.2600   -1.4410 C   0  0  0  0  0  0  0  0  0  0  0  0
  1  2  1  0
  2  3  2  0
  2 25  1  0
  3  4  1  0
  4  5  1  0
  4 23  2  0
  5  6  1  0
  6  7  1  0
  7  8  2  0
  7  9  1  0
  9 10  1  0
 10 11  2  0
 10 14  1  0
 11 12  1  0
 12 13  1  0
 13 14  2  0
 14 15  1  0
 15 16  2  0
 15 21  1  0
 16 17  1  0
 17 18  1  0
 17 19  2  0
 19 20  1  0
 20 21  2  0
 21 22  1  0
 23 24  1  0
 24 25  2  0
 24 28  1  0
 25 26  1  0
 26 27  1  0
 27 28  2  0
M  CHG  1  23   1
M  END
