
     RDKit          3D

 28 32  0  0  0  0  0  0  0  0999 V2000
    7.2440   -0.0700   -1.3910 N   0  0  0  0  0  0  0  0  0  0  0  0
    5.9180   -0.5890   -1.5850 C   0  0  0  0  0  0  0  0  0  0  0  0
    4.9390    0.0220   -0.6580 C   0  0  0  0  0  0  0  0  0  0  0  0
    5.2750    0.9770    0.2780 C   0  0  0  0  0  0  0  0  0  0  0  0
    4.3450    1.5330    1.1310 C   0  0  0  0  0  0  0  0  0  0  0  0
    3.0150    1.1160    1.0490 C   0  0  0  0  0  0  0  0  0  0  0  0
    2.0700    1.6270    1.8580 N   0  0  0  0  0  0  0  0  0  0  0  0
    0.7770    1.2030    1.7580 C   0  0  0  0  0  0  0  0  0  0  0  0
   -0.0980    1.6780    2.5100 O   0  0  0  0  0  0  0  0  0  0  0  0
    0.4090    0.2500    0.8330 C   0  0  0  0  0  0  0  0  0  0  0  0
   -0.9230   -0.2310    0.6820 N   0  0  0  0  0  0  0  0  0  0  0  0
   -1.3910   -1.4750    0.9460 C   0  0  0  0  0  0  0  0  0  0  0  0
   -0.6860   -2.4330    1.3840 O   0  0  0  0  0  0  0  0  0  0  0  0
   -2.7380   -1.5600    0.6740 C   0  0  0  0  0  0  0  0  0  0  0  0
   -3.7030   -2.5360    0.7500 C   0  0  0  0  0  0  0  0  0  0  0  0
   -4.9680   -2.2700    0.3920 N   0  0  0  0  0  0  0  0  0  0  0  0
   -5.3120   -1.0220   -0.0520 C   0  0  0  0  0  0  0  0  0  0  0  0
   -6.6270   -0.7860   -0.4110 C   0  0  0  0  0  0  0  0  0  0  0  0
   -7.0090    0.4530   -0.8610 C   0  0  0  0  0  0  0  0  0  0  0  0
   -6.0940    1.4650   -0.9580 C   0  0  0  0  0  0  0  0  0  0  0  0
   -4.7690    1.2150   -0.5920 C   0  0  0  0  0  0  0  0  0  0  0  0
   -4.3710   -0.0210   -0.1400 C   0  0  0  0  0  0  0  0  0  0  0  0
   -3.0980   -0.2440    0.2060 N   0  0  0  0  0  0  0  0  0  0  0  0
   -1.9840    0.4810    0.2380 C   0  0  0  0  0  0  0  0  0  0  0  0
   -1.8740    1.6870   -0.0940 O   0  0  0  0  0  0  0  0  0  0  0  0
    1.3970   -0.2560    0.0170 C   0  0  0  0  0  0  0  0  0  0  0  0
    2.7150    0.1600    0.1020 C   0  0  0  0  0  0  0  0  0  0  0  0
    3.6650   -0.3670   -0.7250 N   0  0  0  0  0  0  0  0  0  0  0  0
  1  2  1  0
  2  3  1  0
  3  4  2  0
  3 28  1  0
  4  5  1  0
  5  6  2  0
  6  7  1  0
  6 27  1  0
  7  8  1  0
  8  9  2  0
  8 10  1  0
 10 11  1  0
 10 26  2  0
 11 12  1  0
 11 24  1  0
 12 13  2  0
 12 14  1  0
 14 15  2  0
 14 23  1  0
 15 16  1  0
 16 17  1  0
 17 18  2  0
 17 22  1  0
 18 19  1  0
 19 20  2  0
 20 21  1  0
 21 22  2  0
 22 23  1  0
 23 24  1  0
 24 25  2  0
 26 27  1  0
 27 28  2  0
M  CHG  1   1   1
M  END
