
     RDKit          3D

 41 44  0  0  0  0  0  0  0  0999 V2000
   -8.7000   -1.1880   -3.1870 C   0  0  0  0  0  0  0  0  0  0  0  0
   -7.8590   -1.2240   -2.0510 O   0  0  0  0  0  0  0  0  0  0  0  0
   -7.6260   -0.1400   -1.2310 C   0  0  0  0  0  0  0  0  0  0  0  0
   -8.1910    0.9460   -1.5020 O   0  0  0  0  0  0  0  0  0  0  0  0
   -6.7430   -0.2080   -0.0550 C   0  0  2  0  0  0  0  0  0  0  0  0
   -6.6580    1.4190    0.7870 S   0  0  0  0  0  0  0  0  0  0  0  0
   -4.8950    1.2340    1.2120 C   0  0  0  0  0  0  0  0  0  0  0  0
   -4.4690    1.7260    2.3510 C   0  0  0  0  0  0  0  0  0  0  0  0
   -5.2730    2.4130    3.3240 C   0  0  0  0  0  0  0  0  0  0  0  0
   -6.5020    2.5790    3.0990 O   0  0  0  0  0  0  0  0  0  0  0  0
   -4.7110    2.8890    4.4920 O   0  0  0  0  0  0  0  0  0  0  0  0
   -4.3920    0.5240    0.0780 C   0  0  2  0  0  0  0  0  0  0  0  0
   -5.3510   -0.5550   -0.3290 C   0  0  1  0  0  0  0  0  0  0  0  0
   -4.9470   -1.8030    0.4250 C   0  0  2  0  0  0  0  0  0  0  0  0
   -5.9620   -2.2970    1.2320 O   0  0  0  0  0  0  0  0  0  0  0  0
   -3.7770   -1.3120    1.2700 C   0  0  0  0  0  0  0  0  0  0  0  0
   -3.1550   -0.3300    0.2580 C   0  0  2  0  0  0  0  0  0  0  0  0
   -1.9230    0.3000    0.6810 C   0  0  0  0  0  0  0  0  0  0  0  0
   -0.6510   -0.0250   -0.1640 C   0  0  1  0  0  0  0  0  0  0  0  0
   -0.2370    1.1220   -0.7430 O   0  0  0  0  0  0  0  0  0  0  0  0
    0.6530    1.2030   -1.7150 C   0  0  0  0  0  0  0  0  0  0  0  0
    2.0640    0.8300   -1.6550 C   0  0  0  0  0  0  0  0  0  0  0  0
    2.8880    1.5280   -0.7480 O   0  0  0  0  0  0  0  0  0  0  0  0
    4.2380    1.2040   -0.6570 C   0  0  0  0  0  0  0  0  0  0  0  0
    4.6640    0.2840   -1.4040 O   0  0  0  0  0  0  0  0  0  0  0  0
    5.1420    1.8380    0.2120 N   0  0  0  0  0  0  0  0  0  0  0  0
    6.5120    1.4710    0.2680 N   0  0  0  0  0  0  0  0  0  0  0  0
    6.8930    0.3320    1.0270 C   0  0  0  0  0  0  0  0  0  0  0  0
    6.0180   -0.3110    1.6230 O   0  0  0  0  0  0  0  0  0  0  0  0
    8.3070   -0.1030    1.1220 C   0  0  1  0  0  0  0  0  0  0  0  0
    8.4900   -1.4360    0.4540 C   0  0  0  0  0  0  0  0  0  0  0  0
    9.7420   -1.3650   -0.1120 O   0  0  0  0  0  0  0  0  0  0  0  0
   10.1990   -0.0750    0.0270 C   0  0  1  0  0  0  0  0  0  0  0  0
   10.7970    0.4270   -1.2820 C   0  0  0  0  0  0  0  0  0  0  0  0
    9.1300    0.7340    0.3790 O   0  0  0  0  0  0  0  0  0  0  0  0
    0.2990   -0.4360    0.9000 C   0  0  0  0  0  0  0  0  0  0  0  0
    1.2930    0.3860    1.3930 N   0  0  0  0  0  0  0  0  0  0  0  0
    0.1960   -1.6120    1.4010 O   0  0  0  0  0  0  0  0  0  0  0  0
   -0.8020   -1.1930   -1.0570 C   0  0  0  0  0  0  0  0  0  0  0  0
   -2.0740   -1.9910   -0.8810 C   0  0  0  0  0  0  0  0  0  0  0  0
   -3.1060   -1.0930   -0.9310 O   0  0  0  0  0  0  0  0  0  0  0  0
  1  2  1  0
  2  3  1  0
  3  4  2  0
  5  3  1  6
  5  6  1  0
 13  5  1  1
  6  7  1  0
  7  8  2  3
 12  7  1  1
  8  9  1  0
  9 10  2  0
  9 11  1  0
 12 13  1  0
 12 17  1  0
 13 14  1  0
 14 15  1  1
 14 16  1  0
 17 16  1  1
 17 18  1  0
 17 41  1  0
 18 19  1  0
 19 20  1  6
 19 36  1  0
 19 39  1  0
 20 21  1  0
 21 22  1  0
 22 23  1  0
 23 24  1  0
 24 25  2  0
 24 26  1  0
 26 27  1  0
 27 28  1  0
 28 29  2  0
 30 28  1  6
 30 31  1  0
 30 35  1  0
 31 32  1  0
 32 33  1  0
 33 34  1  6
 33 35  1  0
 36 37  1  0
 36 38  2  0
 39 40  1  0
 40 41  1  0
M  END
