
     RDKit          3D

 42 45  0  0  0  0  0  0  0  0999 V2000
    4.2670    0.5160    3.0370 C   0  0  0  0  0  0  0  0  0  0  0  0
    3.7970    1.7060    2.2390 C   0  0  0  0  0  0  0  0  0  0  0  0
    2.8240    1.2420    1.1840 C   0  0  0  0  0  0  0  0  0  0  0  0
    1.4990    1.3700    1.2870 N   0  0  0  0  0  0  0  0  0  0  0  0
    0.9030    0.8390    0.1840 C   0  0  0  0  0  0  0  0  0  0  0  0
   -0.5500    0.8350   -0.0290 C   0  0  0  0  0  0  0  0  0  0  0  0
   -1.2270    1.5590    0.7710 O   0  0  0  0  0  0  0  0  0  0  0  0
   -1.2380    0.1180   -1.0130 N   0  0  0  0  0  0  0  0  0  0  0  0
   -2.6610    0.1190   -1.2170 C   0  0  0  0  0  0  0  0  0  0  0  0
   -3.1320   -0.3470   -2.4480 C   0  0  0  0  0  0  0  0  0  0  0  0
   -4.4800   -0.3830   -2.6800 C   0  0  0  0  0  0  0  0  0  0  0  0
   -5.4260    0.0160   -1.7660 C   0  0  0  0  0  0  0  0  0  0  0  0
   -7.1560   -0.0750   -2.1860 S   0  0  0  0  0  0  0  0  0  0  0  0
   -8.1900    0.4870   -0.8020 C   0  0  2  0  0  0  0  0  0  0  0  0
   -8.0680   -0.4670    0.3570 C   0  0  0  0  0  0  0  0  0  0  0  0
   -9.3000   -1.3510    0.4940 C   0  0  0  0  0  0  0  0  0  0  0  0
  -10.5270   -0.5160    0.8340 C   0  0  0  0  0  0  0  0  0  0  0  0
  -10.4560    0.7940    0.0760 C   0  0  1  0  0  0  0  0  0  0  0  0
   -9.8480    1.8520    0.9110 C   0  0  0  0  0  0  0  0  0  0  0  0
   -9.8670    1.7990    2.1260 O   0  0  0  0  0  0  0  0  0  0  0  0
   -9.6330    0.5970   -1.1930 C   0  0  0  0  0  0  0  0  0  0  0  0
   -4.9520    0.4720   -0.5590 C   0  0  0  0  0  0  0  0  0  0  0  0
   -3.5730    0.5230   -0.2850 C   0  0  0  0  0  0  0  0  0  0  0  0
    1.9160    0.3710   -0.6160 C   0  0  0  0  0  0  0  0  0  0  0  0
    1.8270   -0.2750   -1.9380 C   0  0  0  0  0  0  0  0  0  0  0  0
    3.1570    0.6240    0.0160 C   0  0  0  0  0  0  0  0  0  0  0  0
    4.4450    0.2760   -0.5580 C   0  0  0  0  0  0  0  0  0  0  0  0
    5.0930    1.0330   -1.3330 O   0  0  0  0  0  0  0  0  0  0  0  0
    4.9940   -0.9300   -0.2600 O   0  0  0  0  0  0  0  0  0  0  0  0
    6.1360   -1.5200   -0.6720 C   0  0  0  0  0  0  0  0  0  0  0  0
    5.9980   -2.7720   -1.3290 C   0  0  0  0  0  0  0  0  0  0  0  0
    7.1180   -3.4280   -1.7760 C   0  0  0  0  0  0  0  0  0  0  0  0
    8.3880   -2.9160   -1.6140 C   0  0  0  0  0  0  0  0  0  0  0  0
    8.5140   -1.7060   -0.9800 C   0  0  0  0  0  0  0  0  0  0  0  0
    9.8530   -1.0990   -0.7770 C   0  0  0  0  0  0  0  0  0  0  0  0
    7.3770   -1.0120   -0.5100 C   0  0  0  0  0  0  0  0  0  0  0  0
    7.6070    0.1920    0.1080 O   0  0  0  0  0  0  0  0  0  0  0  0
    7.8380    0.4540    1.4480 C   0  0  0  0  0  0  0  0  0  0  0  0
    8.0960    1.9630    1.5700 C   0  0  1  0  0  0  0  0  0  0  0  0
    9.2300    2.2000    0.7760 F   0  0  0  0  0  0  0  0  0  0  0  0
    7.1010    2.7080    0.9860 F   0  0  0  0  0  0  0  0  0  0  0  0
    8.2860    2.3540    2.8740 F   0  0  0  0  0  0  0  0  0  0  0  0
  1  2  1  0
  2  3  1  0
  3  4  1  0
  3 26  2  0
  4  5  1  0
  5  6  1  0
  5 24  2  0
  6  7  2  0
  6  8  1  0
  8  9  1  0
  9 10  2  0
  9 23  1  0
 10 11  1  0
 11 12  2  0
 12 13  1  0
 12 22  1  0
 14 13  1  6
 14 15  1  0
 14 21  1  0
 15 16  1  0
 16 17  1  0
 17 18  1  0
 18 19  1  1
 18 21  1  0
 19 20  2  0
 22 23  2  0
 24 25  1  0
 24 26  1  0
 26 27  1  0
 27 28  2  0
 27 29  1  0
 29 30  1  0
 30 31  2  0
 30 36  1  0
 31 32  1  0
 32 33  2  0
 33 34  1  0
 34 35  1  0
 34 36  2  0
 36 37  1  0
 37 38  1  0
 38 39  1  0
 39 40  1  6
 39 41  1  0
 39 42  1  0
M  END
