
     RDKit          3D

 42 45  0  0  0  0  0  0  0  0999 V2000
   -2.5810    3.1730    0.4180 C   0  0  0  0  0  0  0  0  0  0  0  0
   -3.1470    2.2080    1.3560 O   0  0  0  0  0  0  0  0  0  0  0  0
   -4.1940    1.4970    0.8740 C   0  0  0  0  0  0  0  0  0  0  0  0
   -5.4530    1.7950    1.0020 C   0  0  0  0  0  0  0  0  0  0  0  0
   -6.1620    2.8390    1.6180 C   0  0  0  0  0  0  0  0  0  0  0  0
   -7.5040    2.6960    1.4110 O   0  0  0  0  0  0  0  0  0  0  0  0
   -5.8700    3.9950    2.4010 C   0  0  0  0  0  0  0  0  0  0  0  0
   -6.9910    4.8070    2.7780 F   0  0  0  0  0  0  0  0  0  0  0  0
   -4.7700    4.4950    2.8640 C   0  0  0  0  0  0  0  0  0  0  0  0
   -4.8400    5.6730    3.6120 F   0  0  0  0  0  0  0  0  0  0  0  0
   -3.8330    0.2560    0.1220 C   0  0  0  0  0  0  0  0  0  0  0  0
   -4.7080   -0.4210   -0.6060 O   0  0  0  0  0  0  0  0  0  0  0  0
   -4.1540   -1.4640   -1.1680 C   0  0  0  0  0  0  0  0  0  0  0  0
   -4.7810   -2.4580   -2.0440 C   0  0  0  0  0  0  0  0  0  0  0  0
   -4.0680   -3.5100   -2.5640 C   0  0  0  0  0  0  0  0  0  0  0  0
   -4.6880   -4.4440   -3.3970 C   0  0  0  0  0  0  0  0  0  0  0  0
   -3.9670   -5.4740   -3.9000 F   0  0  0  0  0  0  0  0  0  0  0  0
   -6.0150   -4.3220   -3.7060 C   0  0  0  0  0  0  0  0  0  0  0  0
   -6.7150   -3.2630   -3.1780 C   0  0  0  0  0  0  0  0  0  0  0  0
   -6.1180   -2.3470   -2.3630 C   0  0  0  0  0  0  0  0  0  0  0  0
   -6.8560   -1.2840   -1.8440 O   0  0  0  0  0  0  0  0  0  0  0  0
   -2.8680   -1.4540   -0.7800 N   0  0  0  0  0  0  0  0  0  0  0  0
   -2.6540   -0.3730    0.0370 C   0  0  0  0  0  0  0  0  0  0  0  0
   -1.3930   -0.1020    0.7180 C   0  0  0  0  0  0  0  0  0  0  0  0
   -1.3760    0.5990    1.7250 O   0  0  0  0  0  0  0  0  0  0  0  0
   -0.1740   -0.6320    0.2400 N   0  0  0  0  0  0  0  0  0  0  0  0
    1.1470   -0.4830    0.6990 C   0  0  0  0  0  0  0  0  0  0  0  0
    1.8840    0.7890    0.5620 C   0  0  1  0  0  0  0  0  0  0  0  0
    2.0280    1.2210   -0.9020 C   0  0  0  0  0  0  0  0  0  0  0  0
    1.2880    1.9410    1.3130 C   0  0  0  0  0  0  0  0  0  0  0  0
    1.6500    1.5650    2.7210 C   0  0  0  0  0  0  0  0  0  0  0  0
    3.0280    1.0650    2.5160 C   0  0  0  0  0  0  0  0  0  0  0  0
    3.2070    0.5940    1.2430 C   0  0  0  0  0  0  0  0  0  0  0  0
    4.4750    0.0480    0.8060 C   0  0  0  0  0  0  0  0  0  0  0  0
    4.9000   -0.4690   -0.2720 C   0  0  0  0  0  0  0  0  0  0  0  0
    4.2550   -0.7420   -1.5700 C   0  0  0  0  0  0  0  0  0  0  0  0
    6.3510   -0.8890   -0.2520 C   0  0  0  0  0  0  0  0  0  0  0  0
    7.2850   -0.8160    0.6840 C   0  0  0  0  0  0  0  0  0  0  0  0
    8.5300   -1.2780    0.4380 C   0  0  0  0  0  0  0  0  0  0  0  0
    8.7680   -1.8140   -0.8050 C   0  0  0  0  0  0  0  0  0  0  0  0
   10.0040   -2.4060   -1.4130 C   0  0  0  0  0  0  0  0  0  0  0  0
    7.1680   -1.6330   -1.5910 S   0  0  0  0  0  0  0  0  0  0  0  0
  1  2  1  0
  2  3  1  0
  3  4  2  3
  3 11  1  0
  4  5  1  0
  5  6  2  0
  5  7  1  0
  7  8  1  0
  7  9  2  3
  9 10  1  0
 11 12  1  0
 11 23  2  0
 12 13  1  0
 13 14  1  0
 13 22  2  0
 14 15  2  0
 14 20  1  0
 15 16  1  0
 16 17  1  0
 16 18  2  0
 18 19  1  0
 19 20  2  0
 20 21  1  0
 22 23  1  0
 23 24  1  0
 24 25  2  0
 24 26  1  0
 26 27  1  0
 27 28  1  0
 28 29  1  6
 28 30  1  0
 28 33  1  0
 30 31  1  0
 31 32  1  0
 32 33  2  0
 33 34  1  0
 34 35  2  3
 35 36  1  0
 35 37  1  0
 37 38  2  0
 37 42  1  0
 38 39  1  0
 39 40  2  0
 40 41  1  0
 40 42  1  0
M  END
