
     RDKit          3D

 29 33  0  0  0  0  0  0  0  0999 V2000
    1.4330   -0.8230   -3.8150 N   0  0  0  0  0  0  0  0  0  0  0  0
    1.0880   -0.8580   -2.4360 C   0  0  0  0  0  0  0  0  0  0  0  0
   -0.0650   -1.3050   -1.9610 N   0  0  0  0  0  0  0  0  0  0  0  0
   -0.0890   -1.2100   -0.6250 N   0  0  0  0  0  0  0  0  0  0  0  0
   -1.0220   -1.5780    0.2600 C   0  0  0  0  0  0  0  0  0  0  0  0
   -2.2880   -2.1440   -0.1820 C   0  0  0  0  0  0  0  0  0  0  0  0
   -3.3480   -1.1500   -0.4150 C   0  0  0  0  0  0  0  0  0  0  0  0
   -4.1710   -0.8190    0.6420 C   0  0  0  0  0  0  0  0  0  0  0  0
   -5.1770    0.0880    0.5220 C   0  0  0  0  0  0  0  0  0  0  0  0
   -5.4060    0.7110   -0.6780 C   0  0  0  0  0  0  0  0  0  0  0  0
   -4.5970    0.3970   -1.7490 C   0  0  0  0  0  0  0  0  0  0  0  0
   -3.5720   -0.5310   -1.6180 C   0  0  0  0  0  0  0  0  0  0  0  0
   -5.0420    1.1590   -2.8170 O   0  0  0  0  0  0  0  0  0  0  0  0
   -5.8820    2.1890   -2.2790 C   0  0  0  0  0  0  0  0  0  0  0  0
   -6.3590    1.6640   -1.0560 O   0  0  0  0  0  0  0  0  0  0  0  0
   -0.7410   -1.4060    1.5440 N   0  0  0  0  0  0  0  0  0  0  0  0
    0.4090   -0.8870    2.0020 C   0  0  0  0  0  0  0  0  0  0  0  0
    0.6540   -0.7580    3.3490 C   0  0  0  0  0  0  0  0  0  0  0  0
    1.8520   -0.2440    3.7880 C   0  0  0  0  0  0  0  0  0  0  0  0
    2.1080   -0.1150    5.1330 F   0  0  0  0  0  0  0  0  0  0  0  0
    2.8210    0.1510    2.9140 C   0  0  0  0  0  0  0  0  0  0  0  0
    2.5620    0.0180    1.5330 C   0  0  0  0  0  0  0  0  0  0  0  0
    3.5100    0.6210    0.6630 N   0  0  0  0  0  0  0  0  0  0  0  0
    4.8930    0.8490    1.1120 C   0  0  0  0  0  0  0  0  0  0  0  0
    5.7110    1.4420    0.0070 C   0  0  0  0  0  0  0  0  0  0  0  0
    5.2170    2.6620   -0.4350 O   0  0  0  0  0  0  0  0  0  0  0  0
    1.3790   -0.4990    1.0660 C   0  0  0  0  0  0  0  0  0  0  0  0
    1.1010   -0.6790   -0.2780 C   0  0  0  0  0  0  0  0  0  0  0  0
    1.8380   -0.4590   -1.3640 N   0  0  0  0  0  0  0  0  0  0  0  0
  1  2  1  0
  2  3  2  0
  2 29  1  0
  3  4  1  0
  4  5  2  0
  4 28  1  0
  5  6  1  0
  5 16  1  0
  6  7  1  0
  7  8  2  0
  7 12  1  0
  8  9  1  0
  9 10  2  0
 10 11  1  0
 10 15  1  0
 11 12  2  0
 11 13  1  0
 13 14  1  0
 14 15  1  0
 16 17  2  0
 17 18  1  0
 17 27  1  0
 18 19  2  0
 19 20  1  0
 19 21  1  0
 21 22  2  0
 22 23  1  0
 22 27  1  0
 23 24  1  0
 24 25  1  0
 25 26  1  0
 27 28  2  0
 28 29  1  0
M  CHG  1   4   1
M  END
