
     RDKit          3D

 42 44  0  0  0  0  0  0  0  0999 V2000
   -7.3690    0.6240   -0.6430 C   0  0  0  0  0  0  0  0  0  0  0  0
   -5.9050    0.2200   -0.6960 C   0  0  2  0  0  0  0  0  0  0  0  0
   -5.0460    1.4040   -0.9100 C   0  0  2  0  0  0  0  0  0  0  0  0
   -3.5450    1.2150   -0.9780 C   0  0  2  0  0  0  0  0  0  0  0  0
   -2.8920    0.0690   -0.4530 N   0  0  0  0  0  0  0  0  0  0  0  0
   -1.7150   -0.4270   -1.0490 C   0  0  0  0  0  0  0  0  0  0  0  0
   -1.2540    0.1690   -2.0570 O   0  0  0  0  0  0  0  0  0  0  0  0
   -0.9840   -1.5630   -0.6060 N   0  0  0  0  0  0  0  0  0  0  0  0
    0.2040   -2.0400   -1.2260 C   0  0  2  0  0  0  0  0  0  0  0  0
    0.1250   -3.4050   -1.8090 C   0  0  0  0  0  0  0  0  0  0  0  0
    0.4540   -4.7380   -0.6340 S   0  0  0  0  0  0  0  0  0  0  0  0
    1.4720   -4.1790    0.7520 C   0  0  0  0  0  0  0  0  0  0  0  0
    1.2960   -2.7000    0.9520 C   0  0  0  0  0  0  0  0  0  0  0  0
    1.4240   -1.9110   -0.3060 C   0  0  1  0  0  0  0  0  0  0  0  0
    2.6410   -2.2700   -1.0850 C   0  0  0  0  0  0  0  0  0  0  0  0
    2.7670   -1.3980   -2.1510 O   0  0  0  0  0  0  0  0  0  0  0  0
    1.5370   -0.4320    0.0980 C   0  0  1  0  0  0  0  0  0  0  0  0
    0.3340   -0.0820    0.7660 O   0  0  0  0  0  0  0  0  0  0  0  0
    2.6620   -0.2620    1.0380 C   0  0  0  0  0  0  0  0  0  0  0  0
    2.4020   -0.0630    2.2810 O   0  0  0  0  0  0  0  0  0  0  0  0
    4.0090   -0.2900    0.7180 O   0  0  0  0  0  0  0  0  0  0  0  0
    4.9830   -0.1070    1.7290 C   0  0  1  0  0  0  0  0  0  0  0  0
    6.0240   -1.1780    1.8030 C   0  0  0  0  0  0  0  0  0  0  0  0
    6.8630   -1.3490    0.5860 C   0  0  0  0  0  0  0  0  0  0  0  0
    6.1500   -1.6670   -0.5440 O   0  0  0  0  0  0  0  0  0  0  0  0
    5.7370    1.1760    1.4860 C   0  0  0  0  0  0  0  0  0  0  0  0
    6.6320    1.4720    2.3010 O   0  0  0  0  0  0  0  0  0  0  0  0
    5.4720    2.0010    0.4220 O   0  0  0  0  0  0  0  0  0  0  0  0
    6.2050    3.2080    0.2230 C   0  0  0  0  0  0  0  0  0  0  0  0
    5.7340    3.9090   -0.9780 C   0  0  0  0  0  0  0  0  0  0  0  0
    4.8090    3.4240   -1.6600 O   0  0  0  0  0  0  0  0  0  0  0  0
    6.3210    5.1040   -1.3450 O   0  0  0  0  0  0  0  0  0  0  0  0
   -4.2160    2.1900   -0.0390 C   0  0  1  0  0  0  0  0  0  0  0  0
   -4.0720    3.7030   -0.4810 C   0  0  0  0  0  0  0  0  0  0  0  0
   -3.9450    2.0850    1.3990 C   0  0  0  0  0  0  0  0  0  0  0  0
   -5.1260    2.2830    2.3000 C   0  0  0  0  0  0  0  0  0  0  0  0
   -6.1700    1.4320    2.1830 O   0  0  0  0  0  0  0  0  0  0  0  0
   -5.8440   -0.6070   -1.8770 O   0  0  0  0  0  0  0  0  0  0  0  0
   -6.4980   -1.7280   -1.4950 N   0  0  0  0  0  0  0  0  0  0  0  0
   -6.1910   -1.9040   -0.0970 C   0  0  0  0  0  0  0  0  0  0  0  0
   -6.4660   -2.8910    0.6300 O   0  0  0  0  0  0  0  0  0  0  0  0
   -5.5230   -0.7190    0.2410 O   0  0  0  0  0  0  0  0  0  0  0  0
  2  1  1  1
  3  2  1  1
  2 38  1  0
  2 42  1  0
  3  4  1  0
  3 33  1  0
  4  5  1  1
  4 33  1  0
  5  6  1  0
  6  7  2  0
  6  8  1  0
  9  8  1  1
  9 10  1  0
  9 14  1  0
 10 11  1  0
 11 12  1  0
 12 13  1  0
 13 14  1  0
 14 15  1  6
 14 17  1  0
 15 16  1  0
 17 18  1  1
 17 19  1  0
 19 20  2  0
 19 21  1  0
 21 22  1  0
 22 23  1  6
 22 26  1  0
 23 24  1  0
 24 25  1  0
 26 27  2  0
 26 28  1  0
 28 29  1  0
 29 30  1  0
 30 31  2  0
 30 32  1  0
 33 34  1  6
 33 35  1  0
 35 36  1  0
 36 37  1  0
 38 39  1  0
 39 40  1  0
 40 41  2  0
 40 42  1  0
M  END
