
     RDKit          3D

 42 45  0  0  0  0  0  0  0  0999 V2000
    9.5750    1.0810    2.0400 C   0  0  0  0  0  0  0  0  0  0  0  0
    9.8000   -0.1370    1.5900 C   0  0  0  0  0  0  0  0  0  0  0  0
   10.8690   -0.8120    2.1130 F   0  0  0  0  0  0  0  0  0  0  0  0
    8.9710   -0.7760    0.5650 C   0  0  0  0  0  0  0  0  0  0  0  0
    9.3270   -2.0290    0.1970 C   0  0  0  0  0  0  0  0  0  0  0  0
    8.5560   -2.7510   -0.8270 C   0  0  0  0  0  0  0  0  0  0  0  0
    7.8930   -0.1920   -0.0180 O   0  0  0  0  0  0  0  0  0  0  0  0
    6.7010    0.2670    0.4580 C   0  0  0  0  0  0  0  0  0  0  0  0
    5.8790   -0.7870    1.1440 C   0  0  0  0  0  0  0  0  0  0  0  0
    6.2750   -1.9160    1.2450 O   0  0  0  0  0  0  0  0  0  0  0  0
    4.5390   -0.4080    1.7090 C   0  0  2  0  0  0  0  0  0  0  0  0
    3.9720   -1.6640    2.3690 C   0  0  0  0  0  0  0  0  0  0  0  0
    3.4160   -2.4920    1.2090 C   0  0  0  0  0  0  0  0  0  0  0  0
    2.0550   -1.8350    0.8900 C   0  0  0  0  0  0  0  0  0  0  0  0
    1.0910   -2.6080    0.6070 C   0  0  0  0  0  0  0  0  0  0  0  0
   -0.2820   -2.5790    0.2630 C   0  0  0  0  0  0  0  0  0  0  0  0
   -0.7250   -3.8290   -0.0240 O   0  0  0  0  0  0  0  0  0  0  0  0
   -1.2820   -1.6160    0.1450 N   0  0  0  0  0  0  0  0  0  0  0  0
   -1.2240   -0.2420    0.5160 C   0  0  0  0  0  0  0  0  0  0  0  0
   -2.6140    0.0350    1.1970 C   0  0  0  0  0  0  0  0  0  0  0  0
   -3.5510    0.1890    0.0020 C   0  0  0  0  0  0  0  0  0  0  0  0
   -3.4410   -0.9450   -0.8130 C   0  0  0  0  0  0  0  0  0  0  0  0
   -4.5630   -0.6180   -2.1380 S   0  0  0  0  0  0  0  0  0  0  0  0
   -5.1100    0.9840   -1.5420 C   0  0  0  0  0  0  0  0  0  0  0  0
   -6.0640    1.7820   -2.2020 N   0  0  0  0  0  0  0  0  0  0  0  0
   -6.7070    1.3790   -3.4060 C   0  0  0  0  0  0  0  0  0  0  0  0
   -6.1660    1.5140   -4.5930 C   0  0  0  0  0  0  0  0  0  0  0  0
   -7.1190    0.9920   -5.5950 C   0  0  0  0  0  0  0  0  0  0  0  0
   -8.2590    0.5490   -4.7910 C   0  0  0  0  0  0  0  0  0  0  0  0
   -8.0110    0.7800   -3.5150 C   0  0  0  0  0  0  0  0  0  0  0  0
   -8.9680    0.4470   -2.4230 C   0  0  0  0  0  0  0  0  0  0  0  0
   -4.3990    1.1400   -0.3910 C   0  0  0  0  0  0  0  0  0  0  0  0
   -4.6210    2.3880    0.4370 C   0  0  0  0  0  0  0  0  0  0  0  0
   -5.4280    3.2620    0.0830 O   0  0  0  0  0  0  0  0  0  0  0  0
   -3.9420    2.5960    1.6090 O   0  0  0  0  0  0  0  0  0  0  0  0
   -4.0380    3.6610    2.4890 C   0  0  0  0  0  0  0  0  0  0  0  0
   -5.4770    3.7090    3.0110 C   0  0  1  0  0  0  0  0  0  0  0  0
   -5.7810    2.5110    3.6610 F   0  0  0  0  0  0  0  0  0  0  0  0
   -5.6520    4.7450    3.9010 F   0  0  0  0  0  0  0  0  0  0  0  0
   -2.5580   -2.0590   -0.4770 C   0  0  0  0  0  0  0  0  0  0  0  0
    2.1390   -0.3720    0.9080 C   0  0  0  0  0  0  0  0  0  0  0  0
    3.5790    0.0970    0.6790 C   0  0  0  0  0  0  0  0  0  0  0  0
  1  2  2  0
  2  3  1  0
  2  4  1  0
  4  5  2  3
  4  7  1  0
  5  6  1  0
  7  8  1  0
  8  9  1  0
  9 10  2  0
 11  9  1  6
 11 12  1  0
 11 42  1  0
 12 13  1  0
 13 14  1  0
 14 15  2  3
 14 41  1  0
 15 16  1  0
 16 17  2  0
 16 18  1  0
 18 19  1  0
 18 40  1  0
 19 20  1  0
 20 21  1  0
 21 22  2  0
 21 32  1  0
 22 23  1  0
 22 40  1  0
 23 24  1  0
 24 25  1  0
 24 32  2  0
 25 26  1  0
 26 27  2  0
 26 30  1  0
 27 28  1  0
 28 29  1  0
 29 30  2  0
 30 31  1  0
 32 33  1  0
 33 34  2  0
 33 35  1  0
 35 36  1  0
 36 37  1  0
 37 38  1  1
 37 39  1  0
 41 42  1  0
M  END
