
     RDKit          3D

 42 45  0  0  0  0  0  0  0  0999 V2000
    6.1990    0.7850    2.7660 C   0  0  0  0  0  0  0  0  0  0  0  0
    5.8500   -0.4470    1.9210 C   0  0  0  0  0  0  0  0  0  0  0  0
    4.7140   -0.1410    0.9770 C   0  0  0  0  0  0  0  0  0  0  0  0
    5.1020    0.9870    0.0440 C   0  0  0  0  0  0  0  0  0  0  0  0
    4.0600    1.2990   -0.8540 O   0  0  0  0  0  0  0  0  0  0  0  0
    3.6400    0.2620   -1.7010 C   0  0  0  0  0  0  0  0  0  0  0  0
    2.3760   -0.0440   -1.9060 C   0  0  0  0  0  0  0  0  0  0  0  0
    1.2120    0.6440   -1.2770 C   0  0  0  0  0  0  0  0  0  0  0  0
    1.4620    1.5610   -0.5140 O   0  0  0  0  0  0  0  0  0  0  0  0
   -0.1420    0.1980   -1.5950 C   0  0  0  0  0  0  0  0  0  0  0  0
   -1.2260    0.8850   -1.0950 O   0  0  0  0  0  0  0  0  0  0  0  0
   -1.5950    1.1700    0.1940 C   0  0  0  0  0  0  0  0  0  0  0  0
   -2.1770    0.3930    1.0450 C   0  0  0  0  0  0  0  0  0  0  0  0
   -2.6520   -0.9850    0.9810 C   0  0  0  0  0  0  0  0  0  0  0  0
   -3.1360   -1.4810    2.1180 C   0  0  0  0  0  0  0  0  0  0  0  0
   -3.2290   -0.7680    3.3770 C   0  0  0  0  0  0  0  0  0  0  0  0
   -3.7260   -1.3990    4.3780 O   0  0  0  0  0  0  0  0  0  0  0  0
   -3.6460   -3.2140    2.2030 S   0  0  0  0  0  0  0  0  0  0  0  0
   -3.6100   -3.9080    0.5330 C   0  0  0  0  0  0  0  0  0  0  0  0
   -3.9070   -2.7390   -0.3710 C   0  0  1  0  0  0  0  0  0  0  0  0
   -3.9190   -3.2070   -1.8310 C   0  0  0  0  0  0  0  0  0  0  0  0
   -5.2170   -2.1390    0.0110 C   0  0  0  0  0  0  0  0  0  0  0  0
   -6.3580   -3.1490   -0.1160 C   0  0  0  0  0  0  0  0  0  0  0  0
   -2.7340   -1.7660   -0.2540 C   0  0  1  0  0  0  0  0  0  0  0  0
   -2.9200   -0.9220   -1.3840 O   0  0  0  0  0  0  0  0  0  0  0  0
   -1.2610    2.5800    0.6200 C   0  0  0  0  0  0  0  0  0  0  0  0
   -0.8800    3.5060   -0.3440 C   0  0  0  0  0  0  0  0  0  0  0  0
   -0.5540    4.7740    0.0310 C   0  0  0  0  0  0  0  0  0  0  0  0
   -0.5920    5.1700    1.3580 C   0  0  0  0  0  0  0  0  0  0  0  0
   -0.2390    6.5100    1.6850 N   0  0  0  0  0  0  0  0  0  0  0  0
   -0.2680    6.9610    3.0660 C   0  0  2  0  0  0  0  0  0  0  0  0
    0.1050    8.2820    3.1700 F   0  0  0  0  0  0  0  0  0  0  0  0
    0.6620    6.2270    3.7880 F   0  0  0  0  0  0  0  0  0  0  0  0
   -1.4980    6.7410    3.6390 F   0  0  0  0  0  0  0  0  0  0  0  0
   -0.9620    4.2730    2.3040 C   0  0  0  0  0  0  0  0  0  0  0  0
   -1.2990    2.9670    1.9260 C   0  0  0  0  0  0  0  0  0  0  0  0
    2.3350   -1.0990   -2.8990 C   0  0  2  0  0  0  0  0  0  0  0  0
    1.7360   -2.4200   -2.5690 C   0  0  0  0  0  0  0  0  0  0  0  0
    2.5190   -3.4120   -3.4460 C   0  0  0  0  0  0  0  0  0  0  0  0
    3.6760   -2.6150   -4.0530 C   0  0  0  0  0  0  0  0  0  0  0  0
    3.8010   -1.4470   -3.1080 C   0  0  0  0  0  0  0  0  0  0  0  0
    4.4670   -0.6080   -2.4450 N   0  0  0  0  0  0  0  0  0  0  0  0
  1  2  1  0
  2  3  1  0
  3  4  1  0
  4  5  1  0
  5  6  1  0
  6  7  2  0
  6 42  1  0
  7  8  1  0
  7 37  1  0
  8  9  2  0
  8 10  1  0
 10 11  1  0
 11 12  1  0
 12 13  2  3
 12 26  1  0
 13 14  1  0
 14 15  2  0
 14 24  1  0
 15 16  1  0
 15 18  1  0
 16 17  2  0
 18 19  1  0
 19 20  1  0
 20 21  1  6
 20 22  1  0
 20 24  1  0
 22 23  1  0
 24 25  1  6
 26 27  2  0
 26 36  1  0
 27 28  1  0
 28 29  2  0
 29 30  1  0
 29 35  1  0
 30 31  1  0
 31 32  1  6
 31 33  1  0
 31 34  1  0
 35 36  2  0
 37 38  1  1
 37 41  1  0
 38 39  1  0
 39 40  1  0
 40 41  1  0
 41 42  2  0
M  END
