
     RDKit          3D

 42 45  0  0  0  0  0  0  0  0999 V2000
   -5.2880   -2.7700    1.7750 C   0  0  0  0  0  0  0  0  0  0  0  0
   -5.0300   -1.3320    1.2990 C   0  0  0  0  0  0  0  0  0  0  0  0
   -3.8530   -0.7260    1.9890 C   0  0  0  0  0  0  0  0  0  0  0  0
   -2.7000   -0.4150    1.4370 C   0  0  0  0  0  0  0  0  0  0  0  0
   -2.1900   -0.5190    0.0400 C   0  0  1  0  0  0  0  0  0  0  0  0
   -3.1750   -0.3990   -1.0320 C   0  0  0  0  0  0  0  0  0  0  0  0
   -3.9500    0.7440   -1.1130 C   0  0  0  0  0  0  0  0  0  0  0  0
   -4.8480    0.9030   -2.1280 C   0  0  0  0  0  0  0  0  0  0  0  0
   -5.0490   -0.0300   -3.1200 C   0  0  0  0  0  0  0  0  0  0  0  0
   -6.0180    0.1300   -4.2380 C   0  0  0  0  0  0  0  0  0  0  0  0
   -4.2560   -1.1660   -3.0080 C   0  0  0  0  0  0  0  0  0  0  0  0
   -3.3430   -1.3630   -2.0040 C   0  0  0  0  0  0  0  0  0  0  0  0
   -2.5410   -2.6470   -1.9500 C   0  0  0  0  0  0  0  0  0  0  0  0
   -0.8970    0.1260   -0.1650 C   0  0  0  0  0  0  0  0  0  0  0  0
    0.5870   -0.8980   -0.7610 S   0  0  0  0  0  0  0  0  0  0  0  0
    1.6890    0.6320   -0.7130 C   0  0  0  0  0  0  0  0  0  0  0  0
    3.0910    0.4090   -1.1370 C   0  0  0  0  0  0  0  0  0  0  0  0
    3.9650    0.1360    0.0560 C   0  0  0  0  0  0  0  0  0  0  0  0
    5.3410   -0.0970   -0.3600 N   0  0  0  0  0  0  0  0  0  0  0  0
    6.3390   -0.3390    0.6060 C   0  0  0  0  0  0  0  0  0  0  0  0
    5.9730   -0.3230    1.8250 O   0  0  0  0  0  0  0  0  0  0  0  0
    7.7250   -0.5930    0.2640 C   0  0  0  0  0  0  0  0  0  0  0  0
    8.8240   -0.3270    1.0960 C   0  0  0  0  0  0  0  0  0  0  0  0
    9.9590   -0.6550    0.3880 C   0  0  0  0  0  0  0  0  0  0  0  0
   11.3700   -0.5450    0.8500 C   0  0  0  0  0  0  0  0  0  0  0  0
    9.5770   -1.0880   -0.7800 O   0  0  0  0  0  0  0  0  0  0  0  0
    8.2590   -1.0680   -0.8940 C   0  0  0  0  0  0  0  0  0  0  0  0
    7.5340   -1.5160   -2.1260 C   0  0  0  0  0  0  0  0  0  0  0  0
    0.9530    1.4190   -0.3560 N   0  0  0  0  0  0  0  0  0  0  0  0
   -0.3360    1.3320   -0.0480 C   0  0  0  0  0  0  0  0  0  0  0  0
   -1.0750    2.5880    0.3440 C   0  0  0  0  0  0  0  0  0  0  0  0
   -1.5790    3.3600   -0.8500 C   0  0  0  0  0  0  0  0  0  0  0  0
   -2.3090    4.5770   -0.2880 C   0  0  0  0  0  0  0  0  0  0  0  0
   -3.3410    4.0960    0.5000 O   0  0  0  0  0  0  0  0  0  0  0  0
   -1.7270   -0.1440    2.5300 C   0  0  0  0  0  0  0  0  0  0  0  0
   -0.5180    0.1870    2.4410 O   0  0  0  0  0  0  0  0  0  0  0  0
   -2.4420   -0.3390    3.7000 O   0  0  0  0  0  0  0  0  0  0  0  0
   -3.8100   -0.2220    3.3890 C   0  0  2  0  0  0  0  0  0  0  0  0
   -4.7500   -0.8130    4.3590 C   0  0  1  0  0  0  0  0  0  0  0  0
   -6.0560   -0.5680    3.9120 F   0  0  0  0  0  0  0  0  0  0  0  0
   -4.6060   -2.1370    4.6190 F   0  0  0  0  0  0  0  0  0  0  0  0
   -4.6590   -0.0520    5.5340 F   0  0  0  0  0  0  0  0  0  0  0  0
  1  2  1  0
  2  3  1  0
  3  4  2  0
  3 38  1  0
  5  4  1  1
  4 35  1  0
  5  6  1  0
  5 14  1  0
  6  7  2  0
  6 12  1  0
  7  8  1  0
  8  9  2  0
  9 10  1  0
  9 11  1  0
 11 12  2  0
 12 13  1  0
 14 15  1  0
 14 30  2  0
 15 16  1  0
 16 17  1  0
 16 29  2  0
 17 18  1  0
 18 19  1  0
 19 20  1  0
 20 21  2  0
 20 22  1  0
 22 23  1  0
 22 27  2  0
 23 24  2  0
 24 25  1  0
 24 26  1  0
 26 27  1  0
 27 28  1  0
 29 30  1  0
 30 31  1  0
 31 32  1  0
 32 33  1  0
 33 34  1  0
 35 36  2  0
 35 37  1  0
 38 37  1  1
 38 39  1  0
 39 40  1  6
 39 41  1  0
 39 42  1  0
M  END
