
     RDKit          3D

 11 11  0  0  0  0  0  0  0  0999 V2000
    3.0310   -0.5860   -0.1060 N   0  0  0  0  0  0  0  0  0  0  0  0
    1.8520    0.1440   -0.4770 C   0  0  0  0  0  0  0  0  0  0  0  0
    0.9740    0.4730    0.7060 C   0  0  2  0  0  0  0  0  0  0  0  0
    0.5540   -0.6770    1.3450 O   0  0  0  0  0  0  0  0  0  0  0  0
   -0.5330   -1.1790    0.6770 C   0  0  0  0  0  0  0  0  0  0  0  0
   -1.1260   -0.0680   -0.1550 C   0  0  1  0  0  0  0  0  0  0  0  0
   -0.9980   -0.3220   -1.5280 O   0  0  0  0  0  0  0  0  0  0  0  0
   -2.5840    0.0380    0.1510 C   0  0  0  0  0  0  0  0  0  0  0  0
   -3.1690   -1.1980   -0.2060 O   0  0  0  0  0  0  0  0  0  0  0  0
   -0.3240    1.1170    0.2910 C   0  0  2  0  0  0  0  0  0  0  0  0
   -0.1800    2.0970   -0.6600 O   0  0  0  0  0  0  0  0  0  0  0  0
  1  2  1  0
  3  2  1  6
  3  4  1  0
  3 10  1  0
  4  5  1  0
  5  6  1  0
  6  7  1  6
  6  8  1  0
  6 10  1  0
  8  9  1  0
 10 11  1  6
M  CHG  1   1   1
M  END
