
     RDKit          3D

 11 11  0  0  0  0  0  0  0  0999 V2000
   -0.1710    1.9840   -0.1550 N   0  0  0  0  0  0  0  0  0  0  0  0
   -0.6930    0.7480    0.3830 C   0  0  1  0  0  0  0  0  0  0  0  0
   -2.2130    0.6610    0.1960 C   0  0  0  0  0  0  0  0  0  0  0  0
   -2.6020   -0.5560    0.6980 O   0  0  0  0  0  0  0  0  0  0  0  0
   -1.9430   -1.6340    0.1240 C   0  0  0  0  0  0  0  0  0  0  0  0
   -0.5690   -1.5700    0.2800 O   0  0  0  0  0  0  0  0  0  0  0  0
   -0.1280   -0.4230   -0.3770 C   0  0  2  0  0  0  0  0  0  0  0  0
    1.3690   -0.3740   -0.5150 C   0  0  2  0  0  0  0  0  0  0  0  0
    1.7560   -1.4930   -1.2490 O   0  0  0  0  0  0  0  0  0  0  0  0
    2.0690   -0.4320    0.8270 C   0  0  0  0  0  0  0  0  0  0  0  0
    3.4460   -0.4250    0.5770 O   0  0  0  0  0  0  0  0  0  0  0  0
  2  1  1  6
  2  3  1  0
  2  7  1  0
  3  4  1  0
  4  5  1  0
  5  6  1  0
  7  6  1  1
  7  8  1  0
  8  9  1  6
  8 10  1  0
 10 11  1  0
M  CHG  1   1   1
M  END
