
     RDKit          3D

 11 11  0  0  0  0  0  0  0  0999 V2000
    0.9900   -0.1620    1.5090 C   0  0  0  0  0  0  0  0  0  0  0  0
    0.3510    0.0080    0.1250 C   0  0  1  0  0  0  0  0  0  0  0  0
   -1.0940   -0.2870    0.2750 C   0  0  1  0  0  0  0  0  0  0  0  0
   -1.6020    0.6530    1.2960 N   0  0  0  0  0  0  0  0  0  0  0  0
   -1.9360   -0.0760   -0.9310 C   0  0  0  0  0  0  0  0  0  0  0  0
   -1.6370   -0.8600   -2.0190 O   0  0  0  0  0  0  0  0  0  0  0  0
    0.6020    1.3150   -0.2850 O   0  0  0  0  0  0  0  0  0  0  0  0
    1.9440    1.2730   -0.5830 C   0  0  0  0  0  0  0  0  0  0  0  0
    2.2140    0.0510   -1.1400 O   0  0  0  0  0  0  0  0  0  0  0  0
    1.1300   -0.8030   -0.8280 C   0  0  1  0  0  0  0  0  0  0  0  0
    1.7160   -1.9200   -0.1960 O   0  0  0  0  0  0  0  0  0  0  0  0
  2  1  1  1
  2  3  1  0
  2  7  1  0
  2 10  1  0
  3  4  1  1
  3  5  1  0
  5  6  1  0
  7  8  1  0
  8  9  1  0
  9 10  1  0
 10 11  1  1
M  CHG  1   4   1
M  END
