
     RDKit          3D

 11 11  0  0  0  0  0  0  0  0999 V2000
   -0.3090   -2.3750    0.1250 N   0  0  0  0  0  0  0  0  0  0  0  0
    0.0800   -1.0090   -0.1690 C   0  0  2  0  0  0  0  0  0  0  0  0
    1.0850   -0.6180    0.9230 C   0  0  0  0  0  0  0  0  0  0  0  0
    0.8120    0.8460    1.0600 C   0  0  1  0  0  0  0  0  0  0  0  0
    1.6530    1.5780    0.0420 C   0  0  0  0  0  0  0  0  0  0  0  0
    3.0010    1.3450    0.3550 O   0  0  0  0  0  0  0  0  0  0  0  0
   -0.5330    0.9840    0.8780 O   0  0  0  0  0  0  0  0  0  0  0  0
   -1.0080   -0.0150    0.0690 C   0  0  1  0  0  0  0  0  0  0  0  0
   -1.5410    0.6080   -1.2030 C   0  0  1  0  0  0  0  0  0  0  0  0
   -2.0360   -0.3770   -2.0600 O   0  0  0  0  0  0  0  0  0  0  0  0
   -2.6470    1.4030   -0.8410 O   0  0  0  0  0  0  0  0  0  0  0  0
  2  1  1  1
  2  3  1  0
  2  8  1  0
  3  4  1  0
  4  5  1  6
  4  7  1  0
  5  6  1  0
  8  7  1  1
  8  9  1  0
  9 10  1  6
  9 11  1  0
M  CHG  1   1   1
M  END
