
     RDKit          3D

 11 11  0  0  0  0  0  0  0  0999 V2000
   -2.2200    0.5120    0.6830 N   0  0  0  0  0  0  0  0  0  0  0  0
   -2.1030   -0.5360   -0.3410 C   0  0  1  0  0  0  0  0  0  0  0  0
   -2.7020   -0.0040   -1.4900 O   0  0  0  0  0  0  0  0  0  0  0  0
   -0.6350   -0.7490   -0.6910 C   0  0  2  0  0  0  0  0  0  0  0  0
    0.0580   -1.3250    0.5000 C   0  0  0  0  0  0  0  0  0  0  0  0
    1.3860   -1.5970    0.2780 O   0  0  0  0  0  0  0  0  0  0  0  0
    2.2560   -0.6170    0.6920 C   0  0  0  0  0  0  0  0  0  0  0  0
    1.6570    0.7290    0.3030 C   0  0  1  0  0  0  0  0  0  0  0  0
    2.6150    1.7430    0.4360 O   0  0  0  0  0  0  0  0  0  0  0  0
    1.2040    0.5920   -1.1350 C   0  0  0  0  0  0  0  0  0  0  0  0
   -0.1470    0.4190   -1.1620 O   0  0  0  0  0  0  0  0  0  0  0  0
  2  1  1  1
  2  3  1  0
  2  4  1  0
  4  5  1  1
  4 11  1  0
  5  6  1  0
  6  7  1  0
  7  8  1  0
  8  9  1  6
  8 10  1  0
 10 11  1  0
M  CHG  1   1   1
M  END
