
     RDKit          3D

 11 11  0  0  0  0  0  0  0  0999 V2000
    0.1380   -1.7820    0.2750 N   0  0  0  0  0  0  0  0  0  0  0  0
   -0.0300   -0.3900   -0.1090 C   0  0  1  0  0  0  0  0  0  0  0  0
    1.2830    0.2100   -0.3880 C   0  0  0  0  0  0  0  0  0  0  0  0
    2.2870    0.2380    0.7030 C   0  0  0  0  0  0  0  0  0  0  0  0
    3.4430    0.8490    0.2060 O   0  0  0  0  0  0  0  0  0  0  0  0
   -0.8130   -0.4160   -1.4220 C   0  0  0  0  0  0  0  0  0  0  0  0
   -1.6740    0.6970   -1.2820 O   0  0  0  0  0  0  0  0  0  0  0  0
   -2.2200    0.4440   -0.0240 C   0  0  2  0  0  0  0  0  0  0  0  0
   -2.9730    1.5040    0.4530 O   0  0  0  0  0  0  0  0  0  0  0  0
   -0.9540    0.2660    0.8120 C   0  0  2  0  0  0  0  0  0  0  0  0
   -0.6310    1.4960    1.2910 O   0  0  0  0  0  0  0  0  0  0  0  0
  2  1  1  1
  2  3  1  0
  2  6  1  0
  2 10  1  0
  3  4  1  0
  4  5  1  0
  6  7  1  0
  7  8  1  0
  8  9  1  1
  8 10  1  0
 10 11  1  6
M  CHG  1   1   1
M  END
