
     RDKit          3D

 11 11  0  0  0  0  0  0  0  0999 V2000
    3.1070   -0.5100   -0.3650 O   0  0  0  0  0  0  0  0  0  0  0  0
    1.8140   -1.0300   -0.3350 C   0  0  0  0  0  0  0  0  0  0  0  0
    0.9680   -0.2880    0.6710 C   0  0  1  0  0  0  0  0  0  0  0  0
    0.9200    1.0880    0.2920 N   0  0  0  0  0  0  0  0  0  0  0  0
   -0.0450    1.3740   -0.7450 C   0  0  0  0  0  0  0  0  0  0  0  0
   -1.4190    1.0580   -0.1600 C   0  0  2  0  0  0  0  0  0  0  0  0
   -1.5480    1.6740    1.0800 O   0  0  0  0  0  0  0  0  0  0  0  0
   -1.4580   -0.4470    0.0330 C   0  0  1  0  0  0  0  0  0  0  0  0
   -1.4820   -1.1060   -1.1840 O   0  0  0  0  0  0  0  0  0  0  0  0
   -0.3530   -0.9270    0.9140 C   0  0  1  0  0  0  0  0  0  0  0  0
   -0.2260   -2.3160    0.7500 O   0  0  0  0  0  0  0  0  0  0  0  0
  1  2  1  0
  3  2  1  6
  3  4  1  0
  3 10  1  0
  4  5  1  0
  5  6  1  0
  6  7  1  1
  6  8  1  0
  8  9  1  6
  8 10  1  0
 10 11  1  6
M  CHG  1   4   1
M  END
