
     RDKit          3D

 11 11  0  0  0  0  0  0  0  0999 V2000
   -0.2440   -0.9670   -1.3550 N   0  0  0  0  0  0  0  0  0  0  0  0
   -0.7180   -0.1660   -0.2550 C   0  0  2  0  0  0  0  0  0  0  0  0
   -1.7750   -0.9060    0.5370 C   0  0  0  0  0  0  0  0  0  0  0  0
   -1.3160   -2.0900    1.0720 O   0  0  0  0  0  0  0  0  0  0  0  0
   -1.3840    1.0670   -0.8440 C   0  0  0  0  0  0  0  0  0  0  0  0
   -0.9290    2.1440   -0.0930 O   0  0  0  0  0  0  0  0  0  0  0  0
    0.4010    1.8640    0.2020 C   0  0  0  0  0  0  0  0  0  0  0  0
    0.3610    0.4060    0.5920 C   0  0  2  0  0  0  0  0  0  0  0  0
    1.7000   -0.2590    0.4040 C   0  0  1  0  0  0  0  0  0  0  0  0
    2.1480   -0.1540   -0.9110 O   0  0  0  0  0  0  0  0  0  0  0  0
    2.6460    0.3860    1.2000 O   0  0  0  0  0  0  0  0  0  0  0  0
  2  1  1  6
  2  3  1  0
  2  5  1  0
  2  8  1  0
  3  4  1  0
  5  6  1  0
  6  7  1  0
  8  7  1  6
  8  9  1  0
  9 10  1  6
  9 11  1  0
M  CHG  1   1   1
M  END
