
     RDKit          3D

 44 50  0  0  0  0  0  0  0  0999 V2000
    8.2510    2.8400    1.8330 N   0  0  0  0  0  0  0  0  0  0  0  0
    7.7620    2.0630    0.7500 C   0  0  0  0  0  0  0  0  0  0  0  0
    8.2700    2.2380   -0.4830 N   0  0  0  0  0  0  0  0  0  0  0  0
    7.8490    1.5330   -1.5510 C   0  0  0  0  0  0  0  0  0  0  0  0
    6.8870    0.6160   -1.3990 N   0  0  0  0  0  0  0  0  0  0  0  0
    6.3140    0.3690   -0.1950 C   0  0  0  0  0  0  0  0  0  0  0  0
    6.7700    1.1110    0.8790 C   0  0  0  0  0  0  0  0  0  0  0  0
    6.0760    0.7020    1.9360 N   0  0  0  0  0  0  0  0  0  0  0  0
    5.2140   -0.2640    1.5260 C   0  0  0  0  0  0  0  0  0  0  0  0
    5.3520   -0.4820    0.2060 N   0  0  0  0  0  0  0  0  0  0  0  0
    4.6400   -1.4200   -0.6550 C   0  0  2  0  0  0  0  0  0  0  0  0
    3.7080   -0.8090   -1.4470 O   0  0  0  0  0  0  0  0  0  0  0  0
    2.4450   -0.9490   -0.8610 C   0  0  2  0  0  0  0  0  0  0  0  0
    2.0690    0.3990   -0.2770 C   0  0  0  0  0  0  0  0  0  0  0  0
    1.2070    1.1310   -1.0170 O   0  0  0  0  0  0  0  0  0  0  0  0
   -0.2000    1.6370   -0.2630 P   0  0  0  0  0  0  0  0  0  0  0  0
    0.5840    2.5330    0.6990 O   0  0  0  0  0  0  0  0  0  0  0  0
   -0.8950    3.0560   -0.9420 O   0  0  0  0  0  0  0  0  0  0  0  0
   -0.9550    0.8330    0.8410 O   0  0  0  0  0  0  0  0  0  0  0  0
   -2.0120    0.0780    0.8830 C   0  0  2  0  0  0  0  0  0  0  0  0
   -2.2850   -1.1000    0.0220 C   0  0  1  0  0  0  0  0  0  0  0  0
   -2.1450   -2.4240    0.7160 C   0  0  0  0  0  0  0  0  0  0  0  0
   -1.1870   -3.2910    0.2780 O   0  0  0  0  0  0  0  0  0  0  0  0
    0.1790   -2.5300   -0.1590 P   0  0  0  0  0  0  0  0  0  0  0  0
    0.2700   -1.9360    1.2520 O   0  0  0  0  0  0  0  0  0  0  0  0
    0.2180   -3.4190   -1.4220 O   0  0  0  0  0  0  0  0  0  0  0  0
    1.7170   -3.0930    0.0830 O   0  0  0  0  0  0  0  0  0  0  0  0
    2.5430   -1.9860    0.1850 C   0  0  1  0  0  0  0  0  0  0  0  0
    3.9510   -2.4920    0.1400 C   0  0  1  0  0  0  0  0  0  0  0  0
    4.0260   -3.7140   -0.5110 O   0  0  0  0  0  0  0  0  0  0  0  0
   -3.6880   -1.0180   -0.2760 O   0  0  0  0  0  0  0  0  0  0  0  0
   -3.8140    0.3440   -0.5590 C   0  0  1  0  0  0  0  0  0  0  0  0
   -5.1810    0.7110   -0.7920 N   0  0  0  0  0  0  0  0  0  0  0  0
   -5.5770    1.5490   -1.7670 C   0  0  0  0  0  0  0  0  0  0  0  0
   -6.8980    1.7130   -1.7550 N   0  0  0  0  0  0  0  0  0  0  0  0
   -7.3680    0.9700   -0.7560 C   0  0  0  0  0  0  0  0  0  0  0  0
   -8.6500    0.7740   -0.3030 C   0  0  0  0  0  0  0  0  0  0  0  0
   -9.7650    1.4220   -0.9250 N   0  0  0  0  0  0  0  0  0  0  0  0
   -8.8140   -0.0530    0.7510 N   0  0  0  0  0  0  0  0  0  0  0  0
   -7.7610   -0.6600    1.3320 C   0  0  0  0  0  0  0  0  0  0  0  0
   -6.5000   -0.4760    0.8970 N   0  0  0  0  0  0  0  0  0  0  0  0
   -6.2970    0.3410   -0.1500 C   0  0  0  0  0  0  0  0  0  0  0  0
   -3.2570    0.9270    0.7180 C   0  0  2  0  0  0  0  0  0  0  0  0
   -2.9360    2.2700    0.5130 O   0  0  0  0  0  0  0  0  0  0  0  0
  1  2  1  0
  2  3  2  0
  2  7  1  0
  3  4  1  0
  4  5  2  0
  5  6  1  0
  6  7  2  0
  6 10  1  0
  7  8  1  0
  8  9  2  0
  9 10  1  0
 11 10  1  1
 11 12  1  0
 11 29  1  0
 12 13  1  0
 13 14  1  1
 13 28  1  0
 14 15  1  0
 15 16  1  0
 16 17  1  0
 16 18  1  0
 16 19  1  0
 20 19  1  6
 20 21  1  0
 20 43  1  0
 21 22  1  1
 21 31  1  0
 22 23  1  0
 23 24  1  0
 24 25  1  0
 24 26  1  0
 24 27  1  0
 28 27  1  6
 28 29  1  0
 29 30  1  6
 31 32  1  0
 32 33  1  1
 32 43  1  0
 33 34  1  0
 33 42  1  0
 34 35  2  0
 35 36  1  0
 36 37  2  0
 36 42  1  0
 37 38  1  0
 37 39  1  0
 39 40  2  0
 40 41  1  0
 41 42  2  0
 43 44  1  6
M  END
