
     RDKit          3D

 33 34  0  0  0  0  0  0  0  0999 V2000
   -7.8340    2.9460   -1.4590 C   0  0  0  0  0  0  0  0  0  0  0  0
   -6.3930    2.7680   -1.0660 C   0  0  0  0  0  0  0  0  0  0  0  0
   -5.9480    1.3400   -1.1250 C   0  0  0  0  0  0  0  0  0  0  0  0
   -4.4510    1.2810   -0.6870 C   0  0  0  0  0  0  0  0  0  0  0  0
   -4.0610   -0.0680   -0.7480 N   0  0  0  0  0  0  0  0  0  0  0  0
   -2.8690   -0.7260   -0.2460 C   0  0  0  0  0  0  0  0  0  0  0  0
   -3.1250   -2.0340    0.3050 N   0  0  0  0  0  0  0  0  0  0  0  0
   -3.4460   -2.2330    1.6600 C   0  0  0  0  0  0  0  0  0  0  0  0
   -4.8020   -1.7560    2.0330 C   0  0  0  0  0  0  0  0  0  0  0  0
   -5.0560   -0.4200    1.8610 O   0  0  0  0  0  0  0  0  0  0  0  0
   -1.6990   -0.2200   -0.2830 C   0  0  0  0  0  0  0  0  0  0  0  0
   -1.6360    1.1840   -0.9150 C   0  0  0  0  0  0  0  0  0  0  0  0
   -0.4360   -0.7610    0.1080 C   0  0  0  0  0  0  0  0  0  0  0  0
    0.5390    0.1210   -0.0440 N   0  0  0  0  0  0  0  0  0  0  0  0
    1.9090    0.0850    0.1910 N   0  0  0  0  0  0  0  0  0  0  0  0
    2.5810    1.3140   -0.1370 C   0  0  0  0  0  0  0  0  0  0  0  0
    3.8440    1.4570    0.0410 N   0  0  0  0  0  0  0  0  0  0  0  0
    4.6080    0.3910    0.5730 C   0  0  0  0  0  0  0  0  0  0  0  0
    6.0200    0.5310    0.7860 N   0  0  0  0  0  0  0  0  0  0  0  0
    6.7580   -0.6640    0.9320 C   0  0  0  0  0  0  0  0  0  0  0  0
    7.5040   -1.1100   -0.0310 C   0  0  0  0  0  0  0  0  0  0  0  0
    7.7390   -0.5460   -1.3620 C   0  0  0  0  0  0  0  0  0  0  0  0
    6.8720    1.0170   -1.7070 P   0  0  0  0  0  0  0  0  0  0  0  0
    6.0100    1.0240   -3.2100 O   0  0  0  0  0  0  0  0  0  0  0  0
    7.9010    2.4080   -1.5640 O   0  0  0  0  0  0  0  0  0  0  0  0
    6.6880   -1.4090    2.1830 C   0  0  0  0  0  0  0  0  0  0  0  0
    5.9820   -1.0210    3.1560 O   0  0  0  0  0  0  0  0  0  0  0  0
    7.3900   -2.5890    2.3840 O   0  0  0  0  0  0  0  0  0  0  0  0
    4.0650   -0.7610    0.8960 N   0  0  0  0  0  0  0  0  0  0  0  0
    2.6770   -0.9800    0.7220 C   0  0  0  0  0  0  0  0  0  0  0  0
    2.2320   -2.1460    1.0400 N   0  0  0  0  0  0  0  0  0  0  0  0
    0.9230   -2.6810    0.9570 C   0  0  0  0  0  0  0  0  0  0  0  0
   -0.2290   -2.1090    0.5610 C   0  0  0  0  0  0  0  0  0  0  0  0
  1  2  1  0
  2  3  1  0
  3  4  1  0
  4  5  1  0
  5  6  1  0
  6  7  1  0
  6 11  2  3
  7  8  1  0
  8  9  1  0
  9 10  1  0
 11 12  1  0
 11 13  1  0
 13 14  2  0
 13 33  1  0
 14 15  1  0
 15 16  1  0
 15 30  1  0
 16 17  2  0
 17 18  1  0
 18 19  1  0
 18 29  2  0
 19 20  1  0
 20 21  2  3
 20 26  1  0
 21 22  1  0
 22 23  1  0
 23 24  1  0
 23 25  1  0
 26 27  2  0
 26 28  1  0
 29 30  1  0
 30 31  2  0
 31 32  1  0
 32 33  2  0
M  END
