
     RDKit          3D

 32 34  0  0  0  0  0  0  0  0999 V2000
   -3.8180    2.0190    0.6350 C   0  0  0  0  0  0  0  0  0  0  0  0
   -3.2890    1.4710   -0.6590 C   0  0  1  0  0  0  0  0  0  0  0  0
   -1.7600    1.7270   -0.6530 C   0  0  0  0  0  0  0  0  0  0  0  0
   -1.2190    0.9960    0.5420 C   0  0  0  0  0  0  0  0  0  0  0  0
    0.2340    1.1960    0.6060 N   0  0  0  0  0  0  0  0  0  0  0  0
    0.9890    0.6150    1.6390 C   0  0  0  0  0  0  0  0  0  0  0  0
    0.3520   -0.0800    2.5000 O   0  0  0  0  0  0  0  0  0  0  0  0
    2.4620    0.7720    1.7670 C   0  0  2  0  0  0  0  0  0  0  0  0
    2.9500    1.5340    0.7360 O   0  0  0  0  0  0  0  0  0  0  0  0
    3.1640   -0.5590    1.9230 C   0  0  0  0  0  0  0  0  0  0  0  0
    2.9620   -1.4510    0.8270 N   0  0  0  0  0  0  0  0  0  0  0  0
    1.9690   -2.3380    0.7210 C   0  0  0  0  0  0  0  0  0  0  0  0
    2.0550   -3.0170   -0.4130 N   0  0  0  0  0  0  0  0  0  0  0  0
    3.1200   -2.5640   -1.0520 C   0  0  0  0  0  0  0  0  0  0  0  0
    3.7110   -1.5670   -0.2800 C   0  0  0  0  0  0  0  0  0  0  0  0
    4.8800   -0.8490   -0.6450 N   0  0  0  0  0  0  0  0  0  0  0  0
    4.8190    0.0110   -1.6680 C   0  0  0  0  0  0  0  0  0  0  0  0
    5.8580    0.7380   -2.0990 N   0  0  0  0  0  0  0  0  0  0  0  0
    7.0370    0.6080   -1.4770 C   0  0  0  0  0  0  0  0  0  0  0  0
    8.2510    1.2030   -1.6830 N   0  0  0  0  0  0  0  0  0  0  0  0
    9.1210    0.7390   -0.7970 C   0  0  0  0  0  0  0  0  0  0  0  0
    8.4240   -0.1650   -0.0240 C   0  0  0  0  0  0  0  0  0  0  0  0
    7.1380   -0.2460   -0.4450 N   0  0  0  0  0  0  0  0  0  0  0  0
    6.0690   -0.9660   -0.0350 C   0  0  0  0  0  0  0  0  0  0  0  0
    6.2250   -1.7440    0.9300 O   0  0  0  0  0  0  0  0  0  0  0  0
   -3.4610    0.0990   -0.8740 N   0  0  0  0  0  0  0  0  0  0  0  0
   -4.7330   -0.4790   -1.0140 C   0  0  0  0  0  0  0  0  0  0  0  0
   -5.5310   -0.4840    0.2490 C   0  0  0  0  0  0  0  0  0  0  0  0
   -6.8640   -1.1940   -0.1100 C   0  0  0  0  0  0  0  0  0  0  0  0
   -7.6620   -0.2080   -1.4420 P   0  0  0  0  0  0  0  0  0  0  0  0
   -8.9420    0.7750   -0.7990 O   0  0  0  0  0  0  0  0  0  0  0  0
   -8.1980   -1.1880   -2.7620 O   0  0  0  0  0  0  0  0  0  0  0  0
  2  1  1  1
  2  3  1  0
  2 26  1  0
  3  4  1  0
  4  5  1  0
  5  6  1  0
  6  7  2  0
  6  8  1  0
  8  9  1  6
  8 10  1  0
 10 11  1  0
 11 12  1  0
 11 15  1  0
 12 13  2  0
 13 14  1  0
 14 15  2  0
 15 16  1  0
 16 17  1  0
 16 24  1  0
 17 18  2  0
 18 19  1  0
 19 20  2  0
 19 23  1  0
 20 21  1  0
 21 22  2  0
 22 23  1  0
 23 24  1  0
 24 25  2  0
 26 27  1  0
 27 28  1  0
 28 29  1  0
 29 30  1  0
 30 31  1  0
 30 32  1  0
M  END
