
     RDKit          3D

 33 34  0  0  0  0  0  0  0  0999 V2000
   -4.9270   -2.2860   -3.0180 C   0  0  0  0  0  0  0  0  0  0  0  0
   -4.1590   -1.5330   -3.7710 C   0  0  0  0  0  0  0  0  0  0  0  0
   -3.0020   -0.9500   -3.1900 N   0  0  0  0  0  0  0  0  0  0  0  0
   -1.7240   -1.2880   -3.6190 N   0  0  0  0  0  0  0  0  0  0  0  0
   -0.6570   -0.8170   -3.1480 C   0  0  0  0  0  0  0  0  0  0  0  0
    0.6400   -1.2050   -3.6320 N   0  0  0  0  0  0  0  0  0  0  0  0
    1.2210   -2.1930   -3.0810 C   0  0  0  0  0  0  0  0  0  0  0  0
    0.5950   -2.8800   -2.0220 N   0  0  0  0  0  0  0  0  0  0  0  0
   -0.6360    0.1910   -2.0360 C   0  0  0  0  0  0  0  0  0  0  0  0
    0.4470    0.8550   -1.7780 C   0  0  0  0  0  0  0  0  0  0  0  0
    1.5510    0.5830   -2.7270 N   0  0  0  0  0  0  0  0  0  0  0  0
    2.7130    1.0590   -2.6190 C   0  0  0  0  0  0  0  0  0  0  0  0
    3.1150    1.9440   -1.5330 C   0  0  0  0  0  0  0  0  0  0  0  0
    2.1880    2.2160   -0.6520 C   0  0  0  0  0  0  0  0  0  0  0  0
    0.8400    1.6730   -0.7410 N   0  0  0  0  0  0  0  0  0  0  0  0
    0.1080    1.6910    0.5220 C   0  0  0  0  0  0  0  0  0  0  0  0
    0.8470    0.7340    1.5180 C   0  0  2  0  0  0  0  0  0  0  0  0
    0.0340    0.7960    2.6920 O   0  0  0  0  0  0  0  0  0  0  0  0
    2.2160    1.1230    1.9010 C   0  0  0  0  0  0  0  0  0  0  0  0
    2.6860    0.2850    2.9640 O   0  0  0  0  0  0  0  0  0  0  0  0
    2.7020   -1.0400    2.6320 C   0  0  0  0  0  0  0  0  0  0  0  0
    3.5510   -1.4230    1.4650 C   0  0  0  0  0  0  0  0  0  0  0  0
    4.9890   -1.0540    1.7120 C   0  0  0  0  0  0  0  0  0  0  0  0
    5.5060   -1.7690    2.9390 C   0  0  0  0  0  0  0  0  0  0  0  0
   -1.9850    0.5250   -1.6310 C   0  0  0  0  0  0  0  0  0  0  0  0
   -2.3250    1.7370   -0.9460 N   0  0  0  0  0  0  0  0  0  0  0  0
   -3.4560    1.9370   -0.1270 C   0  0  0  0  0  0  0  0  0  0  0  0
   -3.5490    1.2130    1.1570 C   0  0  0  0  0  0  0  0  0  0  0  0
   -4.7450    1.5700    1.7820 O   0  0  0  0  0  0  0  0  0  0  0  0
   -4.8350    0.7120    3.2860 P   0  0  0  0  0  0  0  0  0  0  0  0
   -4.9550    1.8270    4.6210 O   0  0  0  0  0  0  0  0  0  0  0  0
   -6.2790   -0.2780    3.3420 O   0  0  0  0  0  0  0  0  0  0  0  0
   -3.0660   -0.0150   -2.1680 N   0  0  0  0  0  0  0  0  0  0  0  0
  1  2  2  0
  2  3  1  0
  3  4  1  0
  3 33  1  0
  4  5  2  0
  5  6  1  0
  5  9  1  0
  6  7  2  3
  7  8  1  0
  9 10  2  3
  9 25  1  0
 10 11  1  0
 10 15  1  0
 11 12  2  0
 12 13  1  0
 13 14  2  0
 14 15  1  0
 15 16  1  0
 16 17  1  0
 17 18  1  1
 17 19  1  0
 19 20  1  0
 20 21  1  0
 21 22  1  0
 22 23  1  0
 23 24  1  0
 25 26  1  0
 25 33  2  0
 26 27  1  0
 27 28  1  0
 28 29  1  0
 29 30  1  0
 30 31  1  0
 30 32  1  0
M  END
