
     RDKit          3D

 33 34  0  0  0  0  0  0  0  0999 V2000
   -7.3900   -1.7370   -1.1720 C   0  0  0  0  0  0  0  0  0  0  0  0
   -5.8570   -1.8210   -0.9000 C   0  0  0  0  0  0  0  0  0  0  0  0
   -5.6020   -0.5900   -0.2910 O   0  0  0  0  0  0  0  0  0  0  0  0
   -4.5020    0.4210   -1.1010 P   0  0  0  0  0  0  0  0  0  0  0  0
   -5.5360    1.9170   -1.3070 O   0  0  0  0  0  0  0  0  0  0  0  0
   -5.9350    2.1710    0.0410 C   0  0  0  0  0  0  0  0  0  0  0  0
   -6.8090    3.3480    0.1970 C   0  0  0  0  0  0  0  0  0  0  0  0
   -3.1360    0.8880   -0.1840 O   0  0  0  0  0  0  0  0  0  0  0  0
   -2.1240    1.2490   -1.1210 C   0  0  0  0  0  0  0  0  0  0  0  0
   -0.8170    1.6360   -0.4970 C   0  0  0  0  0  0  0  0  0  0  0  0
   -0.4080    0.4540    0.3140 N   0  0  0  0  0  0  0  0  0  0  0  0
    0.7930   -0.2290    0.1150 C   0  0  0  0  0  0  0  0  0  0  0  0
    1.6300    0.1100   -0.9230 N   0  0  0  0  0  0  0  0  0  0  0  0
    2.7700   -0.8680   -0.8920 C   0  0  0  0  0  0  0  0  0  0  0  0
    2.9020   -1.8390   -1.8040 C   0  0  0  0  0  0  0  0  0  0  0  0
    2.0590   -2.0930   -2.9000 C   0  0  0  0  0  0  0  0  0  0  0  0
    2.2490   -3.2250   -3.6250 N   0  0  0  0  0  0  0  0  0  0  0  0
    3.2450   -4.0920   -3.2150 N   0  0  0  0  0  0  0  0  0  0  0  0
    3.5700   -0.6730    0.3060 C   0  0  1  0  0  0  0  0  0  0  0  0
    4.7950   -1.4940    0.4790 C   0  0  0  0  0  0  0  0  0  0  0  0
    3.8940    0.7910    0.4950 C   0  0  0  0  0  0  0  0  0  0  0  0
    3.2020    1.5010    1.1840 O   0  0  0  0  0  0  0  0  0  0  0  0
    5.0490    1.3720   -0.1670 N   0  0  0  0  0  0  0  0  0  0  0  0
    5.4380    2.7340   -0.0790 C   0  0  0  0  0  0  0  0  0  0  0  0
    5.7900    3.2790    1.2810 C   0  0  0  0  0  0  0  0  0  0  0  0
    6.1730    4.6380    1.1480 O   0  0  0  0  0  0  0  0  0  0  0  0
    2.6480   -1.0900    1.4410 C   0  0  0  0  0  0  0  0  0  0  0  0
    1.3580   -0.8730    1.3040 C   0  0  0  0  0  0  0  0  0  0  0  0
    0.3970   -1.5340    2.2220 C   0  0  0  0  0  0  0  0  0  0  0  0
   -0.9360   -1.5670    2.2140 N   0  0  0  0  0  0  0  0  0  0  0  0
   -1.4090   -2.4330    3.1750 C   0  0  0  0  0  0  0  0  0  0  0  0
   -0.3020   -2.9200    3.7690 N   0  0  0  0  0  0  0  0  0  0  0  0
    0.7820   -2.3850    3.2050 N   0  0  0  0  0  0  0  0  0  0  0  0
  1  2  1  0
  2  3  1  0
  3  4  1  0
  4  5  1  0
  4  8  1  0
  5  6  1  0
  6  7  1  0
  8  9  1  0
  9 10  1  0
 10 11  1  0
 11 12  1  0
 12 13  2  0
 12 28  1  0
 13 14  1  0
 14 15  2  3
 14 19  1  0
 15 16  1  0
 16 17  2  3
 17 18  1  0
 19 20  1  6
 19 21  1  0
 19 27  1  0
 21 22  2  0
 21 23  1  0
 23 24  1  0
 24 25  1  0
 25 26  1  0
 27 28  2  0
 28 29  1  0
 29 30  2  0
 29 33  1  0
 30 31  1  0
 31 32  2  0
 32 33  1  0
M  END
