
     RDKit          3D

 32 34  0  0  0  0  0  0  0  0999 V2000
   -4.0130   -4.5540    2.1690 N   0  0  0  0  0  0  0  0  0  0  0  0
   -3.6210   -3.1690    1.7150 C   0  0  0  0  0  0  0  0  0  0  0  0
   -2.5040   -3.3290    0.7600 C   0  0  0  0  0  0  0  0  0  0  0  0
   -1.8770   -2.3760    0.1250 O   0  0  0  0  0  0  0  0  0  0  0  0
   -1.2280   -1.3060    0.6720 C   0  0  1  0  0  0  0  0  0  0  0  0
   -2.1720   -0.2980    1.1560 C   0  0  0  0  0  0  0  0  0  0  0  0
   -3.0510    0.3450    0.2260 N   0  0  0  0  0  0  0  0  0  0  0  0
   -4.1020   -0.2230   -0.3890 C   0  0  0  0  0  0  0  0  0  0  0  0
   -4.6560    0.6630   -1.2550 N   0  0  0  0  0  0  0  0  0  0  0  0
   -3.9420    1.7460   -1.1540 N   0  0  0  0  0  0  0  0  0  0  0  0
   -2.9570    1.5900   -0.2620 C   0  0  0  0  0  0  0  0  0  0  0  0
   -2.0720    2.6420    0.0700 N   0  0  0  0  0  0  0  0  0  0  0  0
   -2.1930    3.7870   -0.4840 C   0  0  0  0  0  0  0  0  0  0  0  0
   -3.2140    4.0120   -1.4350 N   0  0  0  0  0  0  0  0  0  0  0  0
   -1.3080    4.8500   -0.1580 N   0  0  0  0  0  0  0  0  0  0  0  0
   -0.4170   -1.8140    1.9170 C   0  0  0  0  0  0  0  0  0  0  0  0
    0.6470   -2.6930    1.3700 C   0  0  0  0  0  0  0  0  0  0  0  0
    0.4950   -3.1710    0.1150 O   0  0  0  0  0  0  0  0  0  0  0  0
    0.2930   -2.2760   -0.8900 C   0  0  0  0  0  0  0  0  0  0  0  0
   -0.0950   -0.9500   -0.2290 C   0  0  1  0  0  0  0  0  0  0  0  0
   -0.2270    0.1580   -1.1820 C   0  0  0  0  0  0  0  0  0  0  0  0
    1.0430    0.2110   -1.9360 N   0  0  0  0  0  0  0  0  0  0  0  0
    2.2590    0.5980   -1.3400 C   0  0  0  0  0  0  0  0  0  0  0  0
    2.4050    1.2340   -0.1310 C   0  0  0  0  0  0  0  0  0  0  0  0
    3.6600    1.5660    0.3970 C   0  0  0  0  0  0  0  0  0  0  0  0
    4.8140    1.2550   -0.3010 C   0  0  0  0  0  0  0  0  0  0  0  0
    6.4740    1.6690    0.3480 P   0  0  0  0  0  0  0  0  0  0  0  0
    7.6480    1.1350   -0.7970 O   0  0  0  0  0  0  0  0  0  0  0  0
    6.6320    3.3200    0.7670 O   0  0  0  0  0  0  0  0  0  0  0  0
    7.2850    3.9880   -0.1420 O   0  0  0  0  0  0  0  0  0  0  0  0
    4.6550    0.6240   -1.5010 C   0  0  0  0  0  0  0  0  0  0  0  0
    3.4280    0.2970   -2.0210 C   0  0  0  0  0  0  0  0  0  0  0  0
  1  2  1  0
  2  3  1  0
  3  4  1  0
  4  5  1  0
  5  6  1  1
  5 16  1  0
  5 20  1  0
  6  7  1  0
  7  8  1  0
  7 11  1  0
  8  9  2  0
  9 10  1  0
 10 11  2  0
 11 12  1  0
 12 13  2  3
 13 14  1  0
 13 15  1  0
 16 17  1  0
 17 18  1  0
 18 19  1  0
 19 20  1  0
 20 21  1  6
 21 22  1  0
 22 23  1  0
 23 24  2  0
 23 32  1  0
 24 25  1  0
 25 26  2  0
 26 27  1  0
 26 31  1  0
 27 28  1  0
 27 29  1  0
 29 30  1  0
 31 32  2  0
M  END
