
     RDKit          3D

 33 34  0  0  0  0  0  0  0  0999 V2000
   -6.3350    3.1940   -0.5690 C   0  0  0  0  0  0  0  0  0  0  0  0
   -5.9000    1.8490   -0.0310 C   0  0  0  0  0  0  0  0  0  0  0  0
   -4.7810    1.9680    0.9820 C   0  0  0  0  0  0  0  0  0  0  0  0
   -3.5710    2.6210    0.3600 C   0  0  0  0  0  0  0  0  0  0  0  0
   -3.0370    1.8520   -0.7980 C   0  0  0  0  0  0  0  0  0  0  0  0
   -2.6410    0.5750   -0.5190 O   0  0  0  0  0  0  0  0  0  0  0  0
   -1.6050    0.5500    0.4640 C   0  0  0  0  0  0  0  0  0  0  0  0
   -1.2340   -0.9170    0.7070 C   0  0  0  0  0  0  0  0  0  0  0  0
   -0.6400   -1.5270   -0.5280 C   0  0  2  0  0  0  0  0  0  0  0  0
   -0.4140   -3.0140   -0.4390 C   0  0  0  0  0  0  0  0  0  0  0  0
   -1.4790   -3.9410   -0.4890 N   0  0  0  0  0  0  0  0  0  0  0  0
   -2.8230   -3.6470   -0.3000 C   0  0  0  0  0  0  0  0  0  0  0  0
   -3.2810   -2.5370   -0.1020 O   0  0  0  0  0  0  0  0  0  0  0  0
    0.7940   -3.5340   -0.6700 C   0  0  0  0  0  0  0  0  0  0  0  0
    1.9600   -2.7500   -1.0860 C   0  0  0  0  0  0  0  0  0  0  0  0
    3.1660   -3.1190   -1.0860 N   0  0  0  0  0  0  0  0  0  0  0  0
    3.4250   -4.4590   -0.6330 C   0  0  0  0  0  0  0  0  0  0  0  0
    2.4870   -5.2100   -0.2570 N   0  0  0  0  0  0  0  0  0  0  0  0
    1.1000   -4.8800   -0.2170 N   0  0  0  0  0  0  0  0  0  0  0  0
    0.1820   -5.8090    0.3640 C   0  0  0  0  0  0  0  0  0  0  0  0
    1.5340   -1.4110   -1.7000 C   0  0  0  0  0  0  0  0  0  0  0  0
    0.7140   -0.9100   -0.5580 N   0  0  0  0  0  0  0  0  0  0  0  0
    1.3540   -0.0380    0.2660 C   0  0  0  0  0  0  0  0  0  0  0  0
    0.9870    0.4780    1.3220 O   0  0  0  0  0  0  0  0  0  0  0  0
    2.7600    0.4050   -0.1420 C   0  0  0  0  0  0  0  0  0  0  0  0
    3.3190    1.3070    0.8300 N   0  0  0  0  0  0  0  0  0  0  0  0
    3.6920    0.8900    2.1840 C   0  0  0  0  0  0  0  0  0  0  0  0
    3.5210    2.6640    0.4770 C   0  0  0  0  0  0  0  0  0  0  0  0
    2.6900    3.2750   -0.2980 N   0  0  0  0  0  0  0  0  0  0  0  0
    4.6400    3.4160    0.9530 N   0  0  0  0  0  0  0  0  0  0  0  0
    5.3520    4.7500   -0.0120 P   0  0  0  0  0  0  0  0  0  0  0  0
    6.2260    4.0040   -1.3400 O   0  0  0  0  0  0  0  0  0  0  0  0
    6.5360    5.5530    0.9700 O   0  0  0  0  0  0  0  0  0  0  0  0
  1  2  1  0
  2  3  1  0
  3  4  1  0
  4  5  1  0
  5  6  1  0
  6  7  1  0
  7  8  1  0
  9  8  1  1
  9 10  1  0
  9 22  1  0
 10 11  1  0
 10 14  2  0
 11 12  1  0
 12 13  2  0
 14 15  1  0
 14 19  1  0
 15 16  2  0
 15 21  1  0
 16 17  1  0
 17 18  2  0
 18 19  1  0
 19 20  1  0
 21 22  1  0
 22 23  1  0
 23 24  2  0
 23 25  1  0
 25 26  1  0
 26 27  1  0
 26 28  1  0
 28 29  2  0
 28 30  1  0
 30 31  1  0
 31 32  1  0
 31 33  1  0
M  END
