
     RDKit          3D

 12 13  0  0  0  0  0  0  0  0999 V2000
    2.3210   -2.1360    0.1720 O   0  0  0  0  0  0  0  0  0  0  0  0
    2.5460   -0.9690   -0.2420 N   0  0  0  0  0  0  0  0  0  0  0  0
    3.7430   -0.7850   -0.8860 O   0  0  0  0  0  0  0  0  0  0  0  0
    1.6120    0.0910   -0.0550 C   0  0  0  0  0  0  0  0  0  0  0  0
    1.8220    1.4000    0.1190 N   0  0  0  0  0  0  0  0  0  0  0  0
    0.6870    2.0620    0.2600 N   0  0  0  0  0  0  0  0  0  0  0  0
   -0.3300    1.1850    0.1830 C   0  0  0  0  0  0  0  0  0  0  0  0
   -1.6740    1.3560    0.2650 N   0  0  0  0  0  0  0  0  0  0  0  0
   -2.5150    0.3170    0.1570 C   0  0  0  0  0  0  0  0  0  0  0  0
   -1.9820   -0.9400   -0.0420 C   0  0  0  0  0  0  0  0  0  0  0  0
   -0.6120   -1.1440   -0.1300 C   0  0  0  0  0  0  0  0  0  0  0  0
    0.2390   -0.0510   -0.0140 C   0  0  0  0  0  0  0  0  0  0  0  0
  1  2  2  0
  2  3  1  0
  2  4  1  0
  4  5  2  0
  4 12  1  0
  5  6  1  0
  6  7  1  0
  7  8  2  0
  7 12  1  0
  8  9  1  0
  9 10  2  0
 10 11  1  0
 11 12  2  0
M  CHG  2   2   1   3  -1
M  END
