
     RDKit          3D

 22 24  0  0  0  0  0  0  0  0999 V2000
    4.1640   -1.1780   -1.8270 O   0  0  0  0  0  0  0  0  0  0  0  0
    3.9990   -0.4050   -0.8480 C   0  0  0  0  0  0  0  0  0  0  0  0
    5.0360    0.3930   -0.3170 N   0  0  0  0  0  0  0  0  0  0  0  0
    4.8350    1.2420    0.7690 N   0  0  0  0  0  0  0  0  0  0  0  0
    3.5490    1.2940    1.3430 C   0  0  0  0  0  0  0  0  0  0  0  0
    2.5090    0.5660    0.8930 C   0  0  0  0  0  0  0  0  0  0  0  0
    0.8470    0.7570    1.7920 Br  0  0  0  0  0  0  0  0  0  0  0  0
    2.6420   -0.3300   -0.2200 C   0  0  0  0  0  0  0  0  0  0  0  0
    1.6920   -1.0750   -0.6710 C   0  0  0  0  0  0  0  0  0  0  0  0
    0.3180   -1.2530   -0.3290 C   0  0  0  0  0  0  0  0  0  0  0  0
   -0.1010   -2.5380   -0.0220 C   0  0  0  0  0  0  0  0  0  0  0  0
   -1.4360   -2.7160    0.2240 C   0  0  0  0  0  0  0  0  0  0  0  0
   -1.9570   -3.9460    0.5370 F   0  0  0  0  0  0  0  0  0  0  0  0
   -2.3390   -1.6550    0.1710 C   0  0  0  0  0  0  0  0  0  0  0  0
   -1.8960   -0.3990   -0.1340 C   0  0  0  0  0  0  0  0  0  0  0  0
   -2.7420    0.7710   -0.2320 C   0  0  0  0  0  0  0  0  0  0  0  0
   -2.2400    1.9740   -0.4870 O   0  0  0  0  0  0  0  0  0  0  0  0
   -3.1860    2.8690   -0.5290 C   0  0  0  0  0  0  0  0  0  0  0  0
   -4.3820    2.2380   -0.2910 C   0  0  0  0  0  0  0  0  0  0  0  0
   -4.1070    0.8620   -0.0950 C   0  0  0  0  0  0  0  0  0  0  0  0
   -5.0530   -0.0460    0.1590 O   0  0  0  0  0  0  0  0  0  0  0  0
   -0.5580   -0.2610   -0.3730 N   0  0  0  0  0  0  0  0  0  0  0  0
  1  2  2  0
  2  3  1  0
  2  8  1  0
  3  4  1  0
  4  5  1  0
  5  6  2  0
  6  7  1  0
  6  8  1  0
  8  9  2  3
  9 10  1  0
 10 11  2  0
 10 22  1  0
 11 12  1  0
 12 13  1  0
 12 14  2  0
 14 15  1  0
 15 16  1  0
 15 22  2  0
 16 17  1  0
 16 20  2  0
 17 18  1  0
 18 19  2  0
 19 20  1  0
 20 21  1  0
M  END
