
     RDKit          3D

 12 13  0  0  0  0  0  0  0  0999 V2000
   -3.6720    0.7370    0.5000 C   0  0  0  0  0  0  0  0  0  0  0  0
   -2.4210    0.1330   -0.0180 C   0  0  0  0  0  0  0  0  0  0  0  0
   -1.1600    0.4310    0.3780 N   0  0  0  0  0  0  0  0  0  0  0  0
   -0.3020   -0.3180   -0.3160 C   0  0  0  0  0  0  0  0  0  0  0  0
    1.1450   -0.2610   -0.1520 C   0  0  0  0  0  0  0  0  0  0  0  0
    2.0640   -1.0050   -0.8370 N   0  0  0  0  0  0  0  0  0  0  0  0
    3.3100   -0.7000   -0.4350 C   0  0  0  0  0  0  0  0  0  0  0  0
    3.1670    0.2690    0.5360 C   0  0  0  0  0  0  0  0  0  0  0  0
    1.8440    0.5170    0.6880 N   0  0  0  0  0  0  0  0  0  0  0  0
    1.3210    1.4440    1.5870 O   0  0  0  0  0  0  0  0  0  0  0  0
   -1.0240   -1.0740   -1.1360 N   0  0  0  0  0  0  0  0  0  0  0  0
   -2.2970   -0.7870   -0.9400 O   0  0  0  0  0  0  0  0  0  0  0  0
  1  2  1  0
  2  3  2  0
  2 12  1  0
  3  4  1  0
  4  5  1  0
  4 11  2  0
  5  6  1  0
  5  9  2  0
  6  7  1  0
  7  8  2  0
  8  9  1  0
  9 10  1  0
 11 12  1  0
M  CHG  2   9   1  10  -1
M  END
