
     RDKit          3D

 12 12  0  0  0  0  0  0  0  0999 V2000
   -2.7530    1.4050    0.0400 C   0  0  0  0  0  0  0  0  0  0  0  0
   -1.3450    0.8890   -0.0910 C   0  0  0  0  0  0  0  0  0  0  0  0
   -0.3600    1.6890   -0.2990 N   0  0  0  0  0  0  0  0  0  0  0  0
    0.9600    1.2920   -0.4310 N   0  0  0  0  0  0  0  0  0  0  0  0
    1.2900   -0.0970   -0.3350 C   0  0  0  0  0  0  0  0  0  0  0  0
    2.6940   -0.5660   -0.4710 C   0  0  0  0  0  0  0  0  0  0  0  0
    3.4620    0.0840    0.5970 N   0  0  0  0  0  0  0  0  0  0  0  0
    4.4250    0.8330    0.3600 O   0  0  0  0  0  0  0  0  0  0  0  0
    3.0390   -0.1980    1.8820 O   0  0  0  0  0  0  0  0  0  0  0  0
    0.3030   -0.9570   -0.1210 C   0  0  0  0  0  0  0  0  0  0  0  0
   -1.0420   -0.4970    0.0070 N   0  0  0  0  0  0  0  0  0  0  0  0
   -2.1530   -1.4100    0.2430 C   0  0  0  0  0  0  0  0  0  0  0  0
  1  2  1  0
  2  3  2  0
  2 11  1  0
  3  4  1  0
  4  5  1  0
  5  6  1  0
  5 10  2  0
  6  7  1  0
  7  8  2  0
  7  9  1  0
 10 11  1  0
 11 12  1  0
M  CHG  2   7   1   9  -1
M  END
