
     RDKit          3D

 22 23  0  0  0  0  0  0  0  0999 V2000
   -4.4530   -0.6420   -1.0040 C   0  0  0  0  0  0  0  0  0  0  0  0
   -3.2310   -0.5080   -0.5470 C   0  0  0  0  0  0  0  0  0  0  0  0
   -2.5630   -1.6820   -0.0720 N   0  0  0  0  0  0  0  0  0  0  0  0
   -1.2430   -1.6650    0.4410 C   0  0  0  0  0  0  0  0  0  0  0  0
   -0.7390   -2.7900    0.8300 C   0  0  0  0  0  0  0  0  0  0  0  0
    0.4950   -3.0340    1.3570 O   0  0  0  0  0  0  0  0  0  0  0  0
   -0.4990   -0.3800    0.4950 C   0  0  0  0  0  0  0  0  0  0  0  0
    0.8750   -0.5880    0.5290 N   0  0  0  0  0  0  0  0  0  0  0  0
    1.9890    0.0410    0.1180 C   0  0  0  0  0  0  0  0  0  0  0  0
    1.7960    1.1140   -0.5540 O   0  0  0  0  0  0  0  0  0  0  0  0
    3.3580   -0.0850    0.1760 N   0  0  0  0  0  0  0  0  0  0  0  0
    4.3920   -0.8760    0.5880 C   0  0  0  0  0  0  0  0  0  0  0  0
    4.0750   -1.9010    1.1840 O   0  0  0  0  0  0  0  0  0  0  0  0
    5.8200   -0.4930    0.3170 C   0  0  0  0  0  0  0  0  0  0  0  0
    6.2250   -0.8000   -1.5290 Br  0  0  0  0  0  0  0  0  0  0  0  0
   -1.1270    0.6830    0.0710 C   0  0  0  0  0  0  0  0  0  0  0  0
   -0.4400    1.9820    0.1340 C   0  0  0  0  0  0  0  0  0  0  0  0
   -0.9800    3.0750   -0.2750 C   0  0  0  0  0  0  0  0  0  0  0  0
   -2.3060    3.1620   -0.8350 C   0  0  0  0  0  0  0  0  0  0  0  0
   -3.0330    1.8750   -0.8930 C   0  0  0  0  0  0  0  0  0  0  0  0
   -4.3090    1.8730   -1.3910 F   0  0  0  0  0  0  0  0  0  0  0  0
   -2.4970    0.7430   -0.4800 C   0  0  0  0  0  0  0  0  0  0  0  0
  1  2  2  0
  2  3  1  0
  2 22  1  0
  3  4  1  0
  4  5  2  3
  4  7  1  0
  5  6  1  0
  7  8  1  0
  7 16  2  0
  8  9  1  0
  9 10  2  0
  9 11  1  0
 11 12  1  0
 12 13  2  0
 12 14  1  0
 14 15  1  0
 16 17  1  0
 16 22  1  0
 17 18  2  0
 18 19  1  0
 19 20  1  0
 20 21  1  0
 20 22  2  0
M  END
