
     RDKit          3D

 22 24  0  0  0  0  0  0  0  0999 V2000
   -4.1750    2.2710   -0.4110 N   0  0  0  0  0  0  0  0  0  0  0  0
   -2.8830    1.6700   -0.4910 C   0  0  0  0  0  0  0  0  0  0  0  0
   -1.9220    2.2140   -1.1500 N   0  0  0  0  0  0  0  0  0  0  0  0
   -0.6470    1.6690   -1.2590 C   0  0  0  0  0  0  0  0  0  0  0  0
   -0.2680    0.4900   -0.6760 C   0  0  0  0  0  0  0  0  0  0  0  0
    1.0810    0.0640   -0.8930 C   0  0  0  0  0  0  0  0  0  0  0  0
    1.6150   -1.1460   -1.1800 C   0  0  0  0  0  0  0  0  0  0  0  0
    3.0040   -1.0330   -1.2900 C   0  0  0  0  0  0  0  0  0  0  0  0
    3.2400    0.3060   -1.0530 C   0  0  0  0  0  0  0  0  0  0  0  0
    4.5580    1.0110   -1.0430 C   0  0  0  0  0  0  0  0  0  0  0  0
    5.0880    1.1610    0.2580 O   0  0  0  0  0  0  0  0  0  0  0  0
    5.3820    0.0930    1.0820 C   0  0  0  0  0  0  0  0  0  0  0  0
    5.1740   -1.0650    0.6710 O   0  0  0  0  0  0  0  0  0  0  0  0
    5.8890    0.2730    2.3240 F   0  0  0  0  0  0  0  0  0  0  0  0
    2.1070    0.9190   -0.8270 O   0  0  0  0  0  0  0  0  0  0  0  0
   -1.2740   -0.1600    0.0860 C   0  0  0  0  0  0  0  0  0  0  0  0
   -0.9830   -1.1210    0.9800 C   0  0  0  0  0  0  0  0  0  0  0  0
    0.7940   -1.6820    1.3370 Br  0  0  0  0  0  0  0  0  0  0  0  0
   -2.0350   -1.8320    1.7450 C   0  0  0  0  0  0  0  0  0  0  0  0
   -3.3210   -1.7030    0.9620 C   0  0  0  0  0  0  0  0  0  0  0  0
   -3.6220   -0.2230    0.9150 C   0  0  0  0  0  0  0  0  0  0  0  0
   -2.5930    0.4420    0.1670 N   0  0  0  0  0  0  0  0  0  0  0  0
  1  2  1  0
  2  3  2  0
  2 22  1  0
  3  4  1  0
  4  5  2  0
  5  6  1  0
  5 16  1  0
  6  7  2  0
  6 15  1  0
  7  8  1  0
  8  9  2  0
  9 10  1  0
  9 15  1  0
 10 11  1  0
 11 12  1  0
 12 13  2  0
 12 14  1  0
 16 17  2  0
 16 22  1  0
 17 18  1  0
 17 19  1  0
 19 20  1  0
 20 21  1  0
 21 22  1  0
M  END
