
     RDKit          3D

 12 12  0  0  0  0  0  0  0  0999 V2000
    3.6800   -0.8260    0.5770 N   0  0  0  0  0  0  0  0  0  0  0  0
    2.9360   -0.0320   -0.3450 C   0  0  0  0  0  0  0  0  0  0  0  0
    1.5240   -0.4580   -0.4920 C   0  0  0  0  0  0  0  0  0  0  0  0
    0.5350    0.3460   -0.2130 C   0  0  0  0  0  0  0  0  0  0  0  0
    0.7430    1.6540    0.2380 O   0  0  0  0  0  0  0  0  0  0  0  0
   -0.2250    2.4730    0.7900 C   0  0  0  0  0  0  0  0  0  0  0  0
   -1.6070    1.9380    0.8020 C   0  0  0  0  0  0  0  0  0  0  0  0
   -1.8140    0.8330   -0.0440 O   0  0  0  0  0  0  0  0  0  0  0  0
   -0.8330   -0.1010   -0.3670 C   0  0  0  0  0  0  0  0  0  0  0  0
   -1.2130   -1.2910   -0.7780 C   0  0  0  0  0  0  0  0  0  0  0  0
   -2.6510   -1.6320   -0.8950 C   0  0  0  0  0  0  0  0  0  0  0  0
   -2.9280   -2.6990   -0.0720 O   0  0  0  0  0  0  0  0  0  0  0  0
  1  2  1  0
  2  3  1  0
  3  4  2  3
  4  5  1  0
  4  9  1  0
  5  6  1  0
  6  7  1  0
  7  8  1  0
  8  9  1  0
  9 10  2  3
 10 11  1  0
 11 12  1  0
M  END
