
     RDKit          3D

 20 20  0  0  0  0  0  0  0  0999 V2000
   -2.2870    1.9490   -0.0670 C   0  0  0  0  0  0  0  0  0  0  0  0
   -2.1710    0.4380   -0.2090 C   0  0  2  0  0  0  0  0  0  0  0  0
   -0.7510    0.0110   -0.2140 C   0  0  0  0  0  0  0  0  0  0  0  0
   -0.2890   -0.5880   -1.2160 O   0  0  0  0  0  0  0  0  0  0  0  0
    0.1540    0.2360    0.8620 N   0  0  0  0  0  0  0  0  0  0  0  0
    1.5260   -0.1790    0.8520 C   0  0  0  0  0  0  0  0  0  0  0  0
    2.3200    0.4430   -0.2760 C   0  0  1  0  0  0  0  0  0  0  0  0
    2.2910    1.8240   -0.1430 O   0  0  0  0  0  0  0  0  0  0  0  0
    3.7480   -0.0500   -0.2160 C   0  0  0  0  0  0  0  0  0  0  0  0
    4.5010    0.5080   -1.2320 O   0  0  0  0  0  0  0  0  0  0  0  0
    5.8120    0.0230   -1.1350 C   0  0  2  0  0  0  0  0  0  0  0  0
    6.6560    1.1370   -1.0170 O   0  0  0  0  0  0  0  0  0  0  0  0
    6.0740   -0.6810   -2.3090 O   0  0  0  0  0  0  0  0  0  0  0  0
   -2.7500    0.0830   -1.3900 O   0  0  0  0  0  0  0  0  0  0  0  0
   -4.0170   -0.4270   -1.3090 C   0  0  2  0  0  0  0  0  0  0  0  0
   -4.9620    0.4960   -0.8680 O   0  0  0  0  0  0  0  0  0  0  0  0
   -4.0280   -1.7000   -0.5330 C   0  0  0  0  0  0  0  0  0  0  0  0
   -3.2710   -1.6000    0.7490 C   0  0  0  0  0  0  0  0  0  0  0  0
   -2.8170   -0.1880    1.0050 C   0  0  2  0  0  0  0  0  0  0  0  0
   -3.8520    0.5950    1.5200 O   0  0  0  0  0  0  0  0  0  0  0  0
  2  1  1  1
  2  3  1  0
  2 14  1  0
  2 19  1  0
  3  4  2  0
  3  5  1  0
  5  6  1  0
  6  7  1  0
  7  8  1  1
  7  9  1  0
  9 10  1  0
 10 11  1  0
 11 12  1  6
 11 13  1  0
 14 15  1  0
 15 16  1  1
 15 17  1  0
 17 18  1  0
 18 19  1  0
 19 20  1  6
M  END
