
     RDKit          3D

 12 12  0  0  0  0  0  0  0  0999 V2000
   -2.8480    0.7780   -0.4690 C   0  0  0  0  0  0  0  0  0  0  0  0
   -2.1620   -0.5430   -0.5700 C   0  0  0  0  0  0  0  0  0  0  0  0
   -1.6210   -1.0080    0.7640 C   0  0  0  0  0  0  0  0  0  0  0  0
   -0.7030   -0.0920    1.2560 O   0  0  0  0  0  0  0  0  0  0  0  0
    0.4660    0.3170    0.6840 C   0  0  0  0  0  0  0  0  0  0  0  0
    0.8860    1.5670    0.7950 C   0  0  0  0  0  0  0  0  0  0  0  0
    2.1370    2.1060    0.2120 C   0  0  0  0  0  0  0  0  0  0  0  0
    2.8400    1.1210   -0.4860 O   0  0  0  0  0  0  0  0  0  0  0  0
    2.4520   -0.1880   -0.6330 C   0  0  0  0  0  0  0  0  0  0  0  0
    3.2040   -1.1270   -1.3470 O   0  0  0  0  0  0  0  0  0  0  0  0
    1.3230   -0.5960   -0.0840 C   0  0  0  0  0  0  0  0  0  0  0  0
    0.9120   -1.9300   -0.2250 N   0  0  0  0  0  0  0  0  0  0  0  0
  1  2  1  0
  2  3  1  0
  3  4  1  0
  4  5  1  0
  5  6  2  0
  5 11  1  0
  6  7  1  0
  7  8  1  0
  8  9  1  0
  9 10  1  0
  9 11  2  0
 11 12  1  0
M  END
