
     RDKit          3D

 27 29  0  0  0  0  0  0  0  0999 V2000
    6.4270   -1.9970   -0.6140 N   0  0  0  0  0  0  0  0  0  0  0  0
    5.7670   -1.0210    0.1760 C   0  0  0  0  0  0  0  0  0  0  0  0
    6.3710   -0.3630    1.1740 N   0  0  0  0  0  0  0  0  0  0  0  0
    5.7160    0.5530    1.8990 C   0  0  0  0  0  0  0  0  0  0  0  0
    4.4280    0.8060    1.6080 N   0  0  0  0  0  0  0  0  0  0  0  0
    3.7650    0.1720    0.6100 C   0  0  0  0  0  0  0  0  0  0  0  0
    4.4400   -0.7680   -0.1330 C   0  0  0  0  0  0  0  0  0  0  0  0
    3.5860   -1.2360   -1.0310 N   0  0  0  0  0  0  0  0  0  0  0  0
    2.3990   -0.6210   -0.8770 C   0  0  0  0  0  0  0  0  0  0  0  0
    2.5020    0.2500    0.1360 N   0  0  0  0  0  0  0  0  0  0  0  0
    1.4580    1.1110    0.6270 C   0  0  2  0  0  0  0  0  0  0  0  0
    0.3590    0.4190    1.0950 O   0  0  0  0  0  0  0  0  0  0  0  0
   -0.7390    1.1650    0.7430 C   0  0  2  0  0  0  0  0  0  0  0  0
   -2.0470    0.4900    0.9160 C   0  0  0  0  0  0  0  0  0  0  0  0
   -2.2160   -0.6620    0.1960 O   0  0  0  0  0  0  0  0  0  0  0  0
   -3.7650   -1.2520    0.5480 P   0  0  2  0  0  0  0  0  0  0  0  0
   -4.4310   -0.4450    1.6480 O   0  0  0  0  0  0  0  0  0  0  0  0
   -3.7360   -2.8640    1.0000 O   0  0  0  0  0  0  0  0  0  0  0  0
   -4.6880   -1.0030   -0.8550 O   0  0  0  0  0  0  0  0  0  0  0  0
   -6.3310   -1.2230   -0.5680 P   0  0  1  0  0  0  0  0  0  0  0  0
   -7.0470   -1.0450   -1.8870 O   0  0  0  0  0  0  0  0  0  0  0  0
   -6.6850   -2.7520    0.0130 O   0  0  0  0  0  0  0  0  0  0  0  0
   -6.9430   -0.0470    0.4880 O   0  0  0  0  0  0  0  0  0  0  0  0
   -0.4190    1.4930   -0.7040 C   0  0  1  0  0  0  0  0  0  0  0  0
   -1.2630    2.4590   -1.2220 O   0  0  0  0  0  0  0  0  0  0  0  0
    0.9860    2.0290   -0.4740 C   0  0  1  0  0  0  0  0  0  0  0  0
    0.8410    3.3010    0.0690 O   0  0  0  0  0  0  0  0  0  0  0  0
  1  2  1  0
  2  3  2  0
  2  7  1  0
  3  4  1  0
  4  5  2  0
  5  6  1  0
  6  7  2  0
  6 10  1  0
  7  8  1  0
  8  9  2  0
  9 10  1  0
 11 10  1  6
 11 12  1  0
 11 26  1  0
 12 13  1  0
 13 14  1  6
 13 24  1  0
 14 15  1  0
 15 16  1  0
 16 17  2  0
 16 18  1  1
 16 19  1  0
 19 20  1  0
 20 21  2  0
 20 22  1  1
 20 23  1  0
 24 25  1  1
 24 26  1  0
 26 27  1  1
M  END
