
     RDKit          3D

 27 27  0  0  0  0  0  0  0  0999 V2000
    5.2750   -1.8820    0.1390 C   0  0  0  0  0  0  0  0  0  0  0  0
    4.3640   -0.8630   -0.1400 O   0  0  0  0  0  0  0  0  0  0  0  0
    3.2570   -1.1860   -0.9310 C   0  0  0  0  0  0  0  0  0  0  0  0
    3.1280   -2.3640   -1.3520 O   0  0  0  0  0  0  0  0  0  0  0  0
    2.2730   -0.1410   -1.2500 C   0  0  0  0  0  0  0  0  0  0  0  0
    2.5270    1.0950   -0.7580 C   0  0  0  0  0  0  0  0  0  0  0  0
    1.8200    2.3390   -0.8570 C   0  0  0  0  0  0  0  0  0  0  0  0
    2.2780    3.1140   -2.0380 O   0  0  0  0  0  0  0  0  0  0  0  0
    3.2160    4.0220   -1.8470 O   0  0  0  0  0  0  0  0  0  0  0  0
    0.9010    3.0210   -0.2250 C   0  0  0  0  0  0  0  0  0  0  0  0
    0.0960    2.8680    0.9480 C   0  0  0  0  0  0  0  0  0  0  0  0
   -1.0800    2.4290    1.3270 C   0  0  0  0  0  0  0  0  0  0  0  0
   -2.2180    1.8260    0.6420 C   0  0  0  0  0  0  0  0  0  0  0  0
   -3.2130    2.5880    0.2490 C   0  0  0  0  0  0  0  0  0  0  0  0
   -4.4210    2.1640   -0.4540 C   0  0  0  0  0  0  0  0  0  0  0  0
   -5.5500    2.4690    0.3040 O   0  0  0  0  0  0  0  0  0  0  0  0
   -2.4550    0.4110    0.4330 N   0  0  0  0  0  0  0  0  0  0  0  0
   -1.5070   -0.6460    0.2840 C   0  0  0  0  0  0  0  0  0  0  0  0
   -1.4810   -1.6560    1.4350 C   0  0  2  0  0  0  0  0  0  0  0  0
   -0.7120   -1.1620    2.5540 N   0  0  0  0  0  0  0  0  0  0  0  0
   -0.9870   -2.9700    1.0090 C   0  0  0  0  0  0  0  0  0  0  0  0
   -0.0100   -3.4950    1.6230 O   0  0  0  0  0  0  0  0  0  0  0  0
   -1.5480   -3.6730   -0.0480 O   0  0  0  0  0  0  0  0  0  0  0  0
   -1.0030   -4.9330   -0.3850 C   0  0  0  0  0  0  0  0  0  0  0  0
   -0.7610   -0.8680   -0.6480 N   0  0  0  0  0  0  0  0  0  0  0  0
   -0.1100   -0.7940   -1.8190 C   0  0  0  0  0  0  0  0  0  0  0  0
    1.1540   -0.5000   -2.1130 C   0  0  0  0  0  0  0  0  0  0  0  0
  1  2  1  0
  2  3  1  0
  3  4  2  0
  3  5  1  0
  5  6  2  0
  5 27  1  0
  6  7  1  0
  7  8  1  0
  7 10  2  0
  8  9  1  0
 10 11  1  0
 11 12  2  0
 12 13  1  0
 13 14  2  3
 13 17  1  0
 14 15  1  0
 15 16  1  0
 17 18  1  0
 18 19  1  0
 18 25  2  0
 19 20  1  1
 19 21  1  0
 21 22  2  0
 21 23  1  0
 23 24  1  0
 25 26  1  0
 26 27  2  0
M  END
