
     RDKit          3D

 27 28  0  0  0  0  0  0  0  0999 V2000
    4.7610    3.0780   -0.5150 O   0  0  0  0  0  0  0  0  0  0  0  0
    5.1910    2.8130   -1.6440 C   0  0  0  0  0  0  0  0  0  0  0  0
    5.4690    1.5190   -1.9510 O   0  0  0  0  0  0  0  0  0  0  0  0
    5.3780    0.3360   -1.3030 C   0  0  0  0  0  0  0  0  0  0  0  0
    4.0650   -0.2920   -1.0010 C   0  0  0  0  0  0  0  0  0  0  0  0
    3.1680    0.5360   -0.1600 C   0  0  0  0  0  0  0  0  0  0  0  0
    1.9290   -0.1260    0.1590 N   0  0  0  0  0  0  0  0  0  0  0  0
    1.8900   -0.9350    1.3800 C   0  0  0  0  0  0  0  0  0  0  0  0
    2.8830   -0.9250    2.1250 O   0  0  0  0  0  0  0  0  0  0  0  0
    0.7060   -1.7260    1.6960 N   0  0  0  0  0  0  0  0  0  0  0  0
    0.0370   -2.6440    0.8300 C   0  0  0  0  0  0  0  0  0  0  0  0
   -1.4820   -2.5930    0.9630 C   0  0  0  0  0  0  0  0  0  0  0  0
   -2.1220   -2.2820   -0.2400 O   0  0  0  0  0  0  0  0  0  0  0  0
   -3.3740   -1.7330   -0.1850 C   0  0  0  0  0  0  0  0  0  0  0  0
   -3.6380   -0.9530   -1.5170 C   0  0  0  0  0  0  0  0  0  0  0  0
   -2.3050   -0.9550   -2.1240 C   0  0  0  0  0  0  0  0  0  0  0  0
   -1.1370   -0.5700   -1.5950 C   0  0  0  0  0  0  0  0  0  0  0  0
   -0.1170   -0.7850   -2.4850 O   0  0  0  0  0  0  0  0  0  0  0  0
    0.9690   -0.5070   -1.9820 N   0  0  0  0  0  0  0  0  0  0  0  0
    0.7470   -0.0750   -0.6970 C   0  0  0  0  0  0  0  0  0  0  0  0
   -0.6530   -0.0690   -0.4240 C   0  0  0  0  0  0  0  0  0  0  0  0
   -1.2080    0.7180    0.5670 C   0  0  0  0  0  0  0  0  0  0  0  0
   -2.3010    1.4210    1.0250 C   0  0  0  0  0  0  0  0  0  0  0  0
   -2.0880    2.0180    2.2730 C   0  0  0  0  0  0  0  0  0  0  0  0
   -3.0250    2.7510    2.9060 O   0  0  0  0  0  0  0  0  0  0  0  0
   -3.5740    1.8210    0.4480 C   0  0  0  0  0  0  0  0  0  0  0  0
   -4.2810    2.7630    1.2890 O   0  0  0  0  0  0  0  0  0  0  0  0
  1  2  2  0
  2  3  1  0
  3  4  1  0
  4  5  1  0
  5  6  1  0
  6  7  1  0
  7  8  1  0
  7 20  1  0
  8  9  2  0
  8 10  1  0
 10 11  1  0
 11 12  1  0
 12 13  1  0
 13 14  1  0
 14 15  1  0
 15 16  1  0
 16 17  2  0
 17 18  1  0
 17 21  1  0
 18 19  1  0
 19 20  2  0
 20 21  1  0
 21 22  2  3
 22 23  1  0
 23 24  2  3
 23 26  1  0
 24 25  1  0
 26 27  1  0
M  END
