
     RDKit          3D

 27 28  0  0  0  0  0  0  0  0999 V2000
   -4.3100   -1.8430    2.5820 C   0  0  0  0  0  0  0  0  0  0  0  0
   -3.1670   -1.9180    1.5590 C   0  0  1  0  0  0  0  0  0  0  0  0
   -3.0130   -0.5910    0.8560 C   0  0  0  0  0  0  0  0  0  0  0  0
   -4.3240   -0.2030    0.3850 N   0  0  0  0  0  0  0  0  0  0  0  0
   -4.2620    1.0750   -0.2810 C   0  0  0  0  0  0  0  0  0  0  0  0
   -3.5160    0.9990   -1.5760 C   0  0  0  0  0  0  0  0  0  0  0  0
   -3.5110    2.2770   -2.1470 O   0  0  0  0  0  0  0  0  0  0  0  0
   -2.8550    2.1870   -3.2760 O   0  0  0  0  0  0  0  0  0  0  0  0
   -2.0290   -2.4380    2.0730 O   0  0  0  0  0  0  0  0  0  0  0  0
   -1.5940   -3.6320    1.5960 C   0  0  0  0  0  0  0  0  0  0  0  0
   -1.2930   -3.6850    0.1360 C   0  0  0  0  0  0  0  0  0  0  0  0
   -0.2370   -2.7140   -0.1900 C   0  0  0  0  0  0  0  0  0  0  0  0
    0.1500   -2.5990   -1.3720 O   0  0  0  0  0  0  0  0  0  0  0  0
    0.3110   -1.9450    0.8120 O   0  0  0  0  0  0  0  0  0  0  0  0
    1.3000   -1.0260    0.5430 C   0  0  0  0  0  0  0  0  0  0  0  0
    2.5640   -1.4260    0.6040 C   0  0  0  0  0  0  0  0  0  0  0  0
    3.5540   -0.4850    0.3290 O   0  0  0  0  0  0  0  0  0  0  0  0
    3.2890    0.8380   -0.0010 C   0  0  0  0  0  0  0  0  0  0  0  0
    4.3560    1.7800   -0.2780 C   0  0  0  0  0  0  0  0  0  0  0  0
    4.0590    3.0700   -0.5970 C   0  0  0  0  0  0  0  0  0  0  0  0
    5.0430    4.0070   -0.8700 C   0  0  0  0  0  0  0  0  0  0  0  0
    6.3450    3.5740   -0.8060 C   0  0  0  0  0  0  0  0  0  0  0  0
    7.3580    4.4960   -1.0770 O   0  0  0  0  0  0  0  0  0  0  0  0
    6.7020    2.2730   -0.4870 C   0  0  0  0  0  0  0  0  0  0  0  0
    5.6590    1.3760   -0.2210 C   0  0  0  0  0  0  0  0  0  0  0  0
    2.0470    1.1990   -0.0520 N   0  0  0  0  0  0  0  0  0  0  0  0
    0.9990    0.3230    0.2070 N   0  0  0  0  0  0  0  0  0  0  0  0
  2  1  1  1
  2  3  1  0
  2  9  1  0
  3  4  1  0
  4  5  1  0
  5  6  1  0
  6  7  1  0
  7  8  1  0
  9 10  1  0
 10 11  1  0
 11 12  1  0
 12 13  2  0
 12 14  1  0
 14 15  1  0
 15 16  2  0
 15 27  1  0
 16 17  1  0
 17 18  1  0
 18 19  1  0
 18 26  2  0
 19 20  2  0
 19 25  1  0
 20 21  1  0
 21 22  2  0
 22 23  1  0
 22 24  1  0
 24 25  2  0
 26 27  1  0
M  END
