
     RDKit          3D

 27 28  0  0  0  0  0  0  0  0999 V2000
    4.8170   -0.9130   -1.4540 C   0  0  0  0  0  0  0  0  0  0  0  0
    4.2160   -0.6190   -0.1040 C   0  0  1  0  0  0  0  0  0  0  0  0
    4.1090    0.8860    0.0540 C   0  0  0  0  0  0  0  0  0  0  0  0
    5.3690    1.5060   -0.0310 O   0  0  0  0  0  0  0  0  0  0  0  0
    5.5050    2.8730    0.0860 C   0  0  0  0  0  0  0  0  0  0  0  0
    4.4950    3.5800    0.2710 O   0  0  0  0  0  0  0  0  0  0  0  0
    6.7800    3.4430   -0.0060 O   0  0  0  0  0  0  0  0  0  0  0  0
    2.8800   -1.2620   -0.0360 C   0  0  0  0  0  0  0  0  0  0  0  0
    2.4490   -1.9120   -1.0160 O   0  0  0  0  0  0  0  0  0  0  0  0
    2.0800   -1.1760    1.0700 O   0  0  0  0  0  0  0  0  0  0  0  0
    0.8210   -1.7170    1.2750 C   0  0  0  0  0  0  0  0  0  0  0  0
   -0.1930   -1.1890    0.2990 C   0  0  0  0  0  0  0  0  0  0  0  0
   -0.3730    0.1900    0.3450 O   0  0  0  0  0  0  0  0  0  0  0  0
   -0.7920    0.7830    1.5150 C   0  0  0  0  0  0  0  0  0  0  0  0
   -1.7880    0.3500    2.1240 N   0  0  0  0  0  0  0  0  0  0  0  0
   -2.6790   -0.6810    1.9080 C   0  0  0  0  0  0  0  0  0  0  0  0
   -2.7690   -1.8320    2.6620 C   0  0  0  0  0  0  0  0  0  0  0  0
   -3.7560   -2.5840    2.1460 N   0  0  0  0  0  0  0  0  0  0  0  0
   -4.2620   -1.8990    1.0910 C   0  0  0  0  0  0  0  0  0  0  0  0
   -5.2200   -2.2900    0.3410 O   0  0  0  0  0  0  0  0  0  0  0  0
   -3.6070   -0.7350    0.9420 N   0  0  0  0  0  0  0  0  0  0  0  0
   -3.9010    0.2100   -0.0770 C   0  0  0  0  0  0  0  0  0  0  0  0
   -4.8380    1.2110    0.0330 C   0  0  0  0  0  0  0  0  0  0  0  0
   -5.0850    2.1090   -0.9960 C   0  0  0  0  0  0  0  0  0  0  0  0
   -4.3660    1.9870   -2.1600 C   0  0  0  0  0  0  0  0  0  0  0  0
   -3.4260    1.0050   -2.3080 C   0  0  0  0  0  0  0  0  0  0  0  0
   -3.2010    0.1200   -1.2580 C   0  0  0  0  0  0  0  0  0  0  0  0
  2  1  1  6
  2  3  1  0
  2  8  1  0
  3  4  1  0
  4  5  1  0
  5  6  2  0
  5  7  1  0
  8  9  2  0
  8 10  1  0
 10 11  1  0
 11 12  1  0
 12 13  1  0
 13 14  1  0
 14 15  2  3
 15 16  1  0
 16 17  2  0
 16 21  1  0
 17 18  1  0
 18 19  1  0
 19 20  2  0
 19 21  1  0
 21 22  1  0
 22 23  2  0
 22 27  1  0
 23 24  1  0
 24 25  2  0
 25 26  1  0
 26 27  2  0
M  END
