
     RDKit          3D

 27 29  0  0  0  0  0  0  0  0999 V2000
   -5.6460   -0.8010    3.0070 C   0  0  0  0  0  0  0  0  0  0  0  0
   -4.3060   -1.0770    2.9960 O   0  0  0  0  0  0  0  0  0  0  0  0
   -3.6940   -0.9220    1.7610 C   0  0  0  0  0  0  0  0  0  0  0  0
   -3.8420    0.5020    1.2940 C   0  0  0  0  0  0  0  0  0  0  0  0
   -3.2260    0.7470    0.0100 N   0  0  0  0  0  0  0  0  0  0  0  0
   -1.7860    0.5740   -0.1960 C   0  0  0  0  0  0  0  0  0  0  0  0
   -1.2110    0.2150    0.8390 O   0  0  0  0  0  0  0  0  0  0  0  0
   -1.2870    0.8400   -1.5160 C   0  0  0  0  0  0  0  0  0  0  0  0
    0.0170    0.7300   -1.8790 C   0  0  0  0  0  0  0  0  0  0  0  0
    0.8920    0.3340   -0.8930 N   0  0  0  0  0  0  0  0  0  0  0  0
    2.2700    0.1160   -0.8840 C   0  0  0  0  0  0  0  0  0  0  0  0
    3.0340    0.2380   -1.8260 O   0  0  0  0  0  0  0  0  0  0  0  0
    2.9210   -0.3190    0.4030 C   0  0  0  0  0  0  0  0  0  0  0  0
    4.0710   -1.0620    0.3340 C   0  0  0  0  0  0  0  0  0  0  0  0
    4.6900   -1.4610    1.5190 C   0  0  0  0  0  0  0  0  0  0  0  0
    4.1650   -1.1210    2.7450 C   0  0  0  0  0  0  0  0  0  0  0  0
    4.7830   -1.5200    3.9440 O   0  0  0  0  0  0  0  0  0  0  0  0
    6.0460   -1.1100    4.1750 O   0  0  0  0  0  0  0  0  0  0  0  0
    3.0100   -0.3740    2.7740 C   0  0  0  0  0  0  0  0  0  0  0  0
    2.3860    0.0280    1.5940 C   0  0  0  0  0  0  0  0  0  0  0  0
    0.3940    1.0310   -3.2620 C   0  0  0  0  0  0  0  0  0  0  0  0
    1.5720    1.0290   -3.9670 C   0  0  0  0  0  0  0  0  0  0  0  0
    1.3170    1.4140   -5.2880 C   0  0  0  0  0  0  0  0  0  0  0  0
    0.0090    1.6510   -5.4090 N   0  0  0  0  0  0  0  0  0  0  0  0
   -0.5350    1.4230   -4.2050 C   0  0  0  0  0  0  0  0  0  0  0  0
   -1.8650    1.5230   -3.7850 O   0  0  0  0  0  0  0  0  0  0  0  0
   -2.1730    1.2410   -2.5190 O   0  0  0  0  0  0  0  0  0  0  0  0
  1  2  1  0
  2  3  1  0
  3  4  1  0
  4  5  1  0
  5  6  1  0
  6  7  2  0
  6  8  1  0
  8  9  2  0
  8 27  1  0
  9 10  1  0
  9 21  1  0
 10 11  1  0
 11 12  2  0
 11 13  1  0
 13 14  2  0
 13 20  1  0
 14 15  1  0
 15 16  2  0
 16 17  1  0
 16 19  1  0
 17 18  1  0
 19 20  2  0
 21 22  1  0
 21 25  2  0
 22 23  2  0
 23 24  1  0
 24 25  1  0
 25 26  1  0
 26 27  1  0
M  END
