
     RDKit          3D

 19 20  0  0  0  0  0  0  0  0999 V2000
   -1.4180    3.4180   -1.0590 N   0  0  0  0  0  0  0  0  0  0  0  0
   -0.9820    2.1910   -0.4600 N   0  0  0  0  0  0  0  0  0  0  0  0
   -1.5030    0.9570   -0.8380 C   0  0  0  0  0  0  0  0  0  0  0  0
   -2.4420    1.0520   -1.7240 O   0  0  0  0  0  0  0  0  0  0  0  0
   -1.1820   -0.3730   -0.4520 C   0  0  0  0  0  0  0  0  0  0  0  0
   -0.0450   -0.7170    0.0740 C   0  0  0  0  0  0  0  0  0  0  0  0
    1.0530    0.1840    0.2530 C   0  0  0  0  0  0  0  0  0  0  0  0
    2.0710   -0.0650    1.0190 C   0  0  0  0  0  0  0  0  0  0  0  0
    3.2300    0.8660    1.2200 C   0  0  0  0  0  0  0  0  0  0  0  0
    3.5960    1.4020   -0.0670 O   0  0  0  0  0  0  0  0  0  0  0  0
    2.5770    1.7100   -0.9330 C   0  0  0  0  0  0  0  0  0  0  0  0
    1.3750    1.1730   -0.8290 C   0  0  0  0  0  0  0  0  0  0  0  0
    0.2980   -2.0790    0.5330 N   0  0  0  0  0  0  0  0  0  0  0  0
   -0.4770   -3.1030    1.0660 C   0  0  0  0  0  0  0  0  0  0  0  0
    0.0550   -3.9950    1.7530 O   0  0  0  0  0  0  0  0  0  0  0  0
   -1.9020   -3.2220    0.8800 N   0  0  0  0  0  0  0  0  0  0  0  0
   -2.7220   -2.4980   -0.0130 N   0  0  0  0  0  0  0  0  0  0  0  0
   -2.3220   -1.3430   -0.7010 C   0  0  0  0  0  0  0  0  0  0  0  0
   -3.0400   -1.0530   -1.7130 O   0  0  0  0  0  0  0  0  0  0  0  0
  1  2  1  0
  2  3  1  0
  3  4  2  0
  3  5  1  0
  5  6  2  0
  5 18  1  0
  6  7  1  0
  6 13  1  0
  7  8  2  0
  7 12  1  0
  8  9  1  0
  9 10  1  0
 10 11  1  0
 11 12  2  0
 13 14  1  0
 14 15  2  0
 14 16  1  0
 16 17  1  0
 17 18  1  0
 18 19  2  0
M  END
