
     RDKit          3D

 19 20  0  0  0  0  0  0  0  0999 V2000
    4.5770   -0.4970   -0.4340 N   0  0  0  0  0  0  0  0  0  0  0  0
    3.4830   -0.3970    0.5120 C   0  0  0  0  0  0  0  0  0  0  0  0
    2.1420   -0.3550   -0.2050 C   0  0  0  0  0  0  0  0  0  0  0  0
    1.1250   -0.2560    0.8090 N   0  0  0  0  0  0  0  0  0  0  0  0
   -0.2910   -0.1700    0.4550 C   0  0  0  0  0  0  0  0  0  0  0  0
   -0.8030    1.0330    0.5340 C   0  0  0  0  0  0  0  0  0  0  0  0
    0.0190    2.1910    0.9610 C   0  0  0  0  0  0  0  0  0  0  0  0
    1.2160    1.9820    1.2740 O   0  0  0  0  0  0  0  0  0  0  0  0
   -0.4830    3.5150    1.0320 N   0  0  0  0  0  0  0  0  0  0  0  0
   -1.8340    3.7130    0.6720 C   0  0  0  0  0  0  0  0  0  0  0  0
   -2.2850    4.8880    0.7340 O   0  0  0  0  0  0  0  0  0  0  0  0
   -2.6280    2.6130    0.2620 N   0  0  0  0  0  0  0  0  0  0  0  0
   -2.1700    1.3800    0.1930 C   0  0  0  0  0  0  0  0  0  0  0  0
   -3.1240    0.4480   -0.2720 N   0  0  0  0  0  0  0  0  0  0  0  0
   -0.8660   -1.4420    0.0820 C   0  0  2  0  0  0  0  0  0  0  0  0
   -0.8440   -1.7760   -1.3840 C   0  0  0  0  0  0  0  0  0  0  0  0
   -2.0170   -2.5140   -1.5660 O   0  0  0  0  0  0  0  0  0  0  0  0
   -2.4080   -2.9100   -0.2690 C   0  0  0  0  0  0  0  0  0  0  0  0
   -2.1090   -1.7760    0.5230 O   0  0  0  0  0  0  0  0  0  0  0  0
  1  2  1  0
  2  3  1  0
  3  4  1  0
  4  5  1  0
  5  6  2  3
 15  5  1  6
  6  7  1  0
  6 13  1  0
  7  8  2  0
  7  9  1  0
  9 10  1  0
 10 11  2  0
 10 12  1  0
 12 13  2  0
 13 14  1  0
 15 16  1  0
 15 19  1  0
 16 17  1  0
 17 18  1  0
 18 19  1  0
M  END
