
     RDKit          3D

 19 20  0  0  0  0  0  0  0  0999 V2000
    5.6920    0.1310    0.4250 N   0  0  0  0  0  0  0  0  0  0  0  0
    4.3150    0.2860    0.6840 C   0  0  0  0  0  0  0  0  0  0  0  0
    3.9210    1.2610    1.3410 O   0  0  0  0  0  0  0  0  0  0  0  0
    3.3310   -0.7030    0.1820 C   0  0  2  0  0  0  0  0  0  0  0  0
    3.3200   -0.6120   -1.3310 C   0  0  0  0  0  0  0  0  0  0  0  0
    2.0310    0.0430   -1.5930 C   0  0  0  0  0  0  0  0  0  0  0  0
    1.3060    0.1650   -0.4930 C   0  0  0  0  0  0  0  0  0  0  0  0
   -0.0230    0.7750   -0.4340 C   0  0  0  0  0  0  0  0  0  0  0  0
   -0.5700    1.2350   -1.4680 O   0  0  0  0  0  0  0  0  0  0  0  0
   -0.7360    0.8690    0.7830 N   0  0  0  0  0  0  0  0  0  0  0  0
   -2.0030    1.4580    0.8000 N   0  0  0  0  0  0  0  0  0  0  0  0
   -3.0580    0.7220    0.6240 C   0  0  0  0  0  0  0  0  0  0  0  0
   -4.2930    1.2470    0.6320 N   0  0  0  0  0  0  0  0  0  0  0  0
   -5.4070    0.5110    0.4520 C   0  0  0  0  0  0  0  0  0  0  0  0
   -5.2530   -0.8450    0.2500 C   0  0  0  0  0  0  0  0  0  0  0  0
   -4.0230   -1.3830    0.2390 N   0  0  0  0  0  0  0  0  0  0  0  0
   -2.9250   -0.6310    0.4210 C   0  0  0  0  0  0  0  0  0  0  0  0
   -1.7900   -1.1770    0.4030 O   0  0  0  0  0  0  0  0  0  0  0  0
    2.0220   -0.3740    0.5420 O   0  0  0  0  0  0  0  0  0  0  0  0
  1  2  1  0
  2  3  2  0
  4  2  1  1
  4  5  1  0
  4 19  1  0
  5  6  1  0
  6  7  2  0
  7  8  1  0
  7 19  1  0
  8  9  2  0
  8 10  1  0
 10 11  1  0
 11 12  2  3
 12 13  1  0
 12 17  1  0
 13 14  1  0
 14 15  2  0
 15 16  1  0
 16 17  1  0
 17 18  2  0
M  END
