
     RDKit          3D

 19 20  0  0  0  0  0  0  0  0999 V2000
   -6.2620   -0.0040   -0.6950 O   0  0  0  0  0  0  0  0  0  0  0  0
   -5.0310   -0.1140   -0.7080 C   0  0  0  0  0  0  0  0  0  0  0  0
   -4.2440    1.0780   -0.3560 C   0  0  0  0  0  0  0  0  0  0  0  0
   -2.7950    0.8770   -0.2860 C   0  0  0  0  0  0  0  0  0  0  0  0
   -2.3580   -0.5390    0.0810 C   0  0  2  0  0  0  0  0  0  0  0  0
   -0.9440   -0.7150   -0.2790 N   0  0  0  0  0  0  0  0  0  0  0  0
    0.0700   -0.1810    0.5790 C   0  0  0  0  0  0  0  0  0  0  0  0
   -0.3220    0.4250    1.5940 O   0  0  0  0  0  0  0  0  0  0  0  0
    1.4370   -0.3040    0.3140 N   0  0  0  0  0  0  0  0  0  0  0  0
    2.3740    0.3790    1.1610 C   0  0  0  0  0  0  0  0  0  0  0  0
    3.7680    0.0660    0.8240 C   0  0  0  0  0  0  0  0  0  0  0  0
    4.7100   -0.3250    1.7370 N   0  0  0  0  0  0  0  0  0  0  0  0
    5.8710   -0.4590    1.1620 N   0  0  0  0  0  0  0  0  0  0  0  0
    5.7490   -0.1630   -0.1550 C   0  0  0  0  0  0  0  0  0  0  0  0
    4.4370    0.1660   -0.3660 C   0  0  0  0  0  0  0  0  0  0  0  0
    3.8610    0.5400   -1.5740 O   0  0  0  0  0  0  0  0  0  0  0  0
   -3.1270   -1.5910   -0.5780 C   0  0  0  0  0  0  0  0  0  0  0  0
   -2.6280   -2.7550   -0.7340 O   0  0  0  0  0  0  0  0  0  0  0  0
   -4.4450   -1.3660   -1.0610 N   0  0  0  0  0  0  0  0  0  0  0  0
  1  2  2  0
  2  3  1  0
  2 19  1  0
  3  4  1  0
  4  5  1  0
  5  6  1  6
  5 17  1  0
  6  7  1  0
  7  8  2  0
  7  9  1  0
  9 10  1  0
 10 11  1  0
 11 12  1  0
 11 15  2  0
 12 13  1  0
 13 14  2  0
 14 15  1  0
 15 16  1  0
 17 18  2  0
 17 19  1  0
M  END
