
     RDKit          3D

 19 19  0  0  0  0  0  0  0  0999 V2000
   -5.3940   -1.2700   -0.1450 C   0  0  0  0  0  0  0  0  0  0  0  0
   -4.8190   -0.9040    1.1040 O   0  0  0  0  0  0  0  0  0  0  0  0
   -3.8240    0.0910    1.0790 C   0  0  0  0  0  0  0  0  0  0  0  0
   -4.0810    1.3840    1.0980 C   0  0  0  0  0  0  0  0  0  0  0  0
   -2.7860    2.0900    1.0620 C   0  0  0  0  0  0  0  0  0  0  0  0
   -1.8080    1.1090    1.0220 O   0  0  0  0  0  0  0  0  0  0  0  0
   -2.3910   -0.1360    1.0310 C   0  0  0  0  0  0  0  0  0  0  0  0
   -1.7870   -1.3340    1.0010 C   0  0  0  0  0  0  0  0  0  0  0  0
   -0.3730   -1.4440    0.9550 N   0  0  0  0  0  0  0  0  0  0  0  0
    0.3340   -0.9420    0.0120 C   0  0  0  0  0  0  0  0  0  0  0  0
   -0.2810   -0.2430   -1.0440 N   0  0  0  0  0  0  0  0  0  0  0  0
    1.7740   -1.0960    0.0330 C   0  0  0  0  0  0  0  0  0  0  0  0
    2.5310   -0.6090   -0.8940 N   0  0  0  0  0  0  0  0  0  0  0  0
    3.9070   -0.7430   -0.8940 N   0  0  0  0  0  0  0  0  0  0  0  0
    4.6920    0.4600   -0.7930 C   0  0  0  0  0  0  0  0  0  0  0  0
    4.1000    1.5620   -0.7110 O   0  0  0  0  0  0  0  0  0  0  0  0
    6.1400    0.4130   -0.7860 C   0  0  0  0  0  0  0  0  0  0  0  0
    6.8840    1.5950   -0.6870 N   0  0  0  0  0  0  0  0  0  0  0  0
    6.7100   -0.6940   -0.8690 O   0  0  0  0  0  0  0  0  0  0  0  0
  1  2  1  0
  2  3  1  0
  3  4  2  0
  3  7  1  0
  4  5  1  0
  5  6  1  0
  6  7  1  0
  7  8  2  3
  8  9  1  0
  9 10  2  3
 10 11  1  0
 10 12  1  0
 12 13  2  3
 13 14  1  0
 14 15  1  0
 15 16  2  0
 15 17  1  0
 17 18  1  0
 17 19  2  0
M  END
