
     RDKit          3D

 21 23  0  0  0  0  0  0  0  0999 V2000
    3.3440    2.8060   -0.4050 C   0  0  0  0  0  0  0  0  0  0  0  0
    4.2580    1.5350   -1.2650 S   0  0  0  0  0  0  0  0  0  0  0  0
    4.2720   -0.0700   -0.4990 C   0  0  0  0  0  0  0  0  0  0  0  0
    2.9310   -0.7610   -0.5440 C   0  0  0  0  0  0  0  0  0  0  0  0
    2.8660   -1.9460   -1.1840 C   0  0  0  0  0  0  0  0  0  0  0  0
    1.6710   -2.6200   -1.2530 O   0  0  0  0  0  0  0  0  0  0  0  0
    0.5590   -2.0450   -0.6520 C   0  0  0  0  0  0  0  0  0  0  0  0
    0.5590   -0.8960   -0.0170 C   0  0  0  0  0  0  0  0  0  0  0  0
    1.8030   -0.1050    0.1010 C   0  0  0  0  0  0  0  0  0  0  0  0
   -0.7230   -0.3610    0.6090 C   0  0  0  0  0  0  0  0  0  0  0  0
   -1.8110   -0.6890   -0.3160 C   0  0  0  0  0  0  0  0  0  0  0  0
   -2.8640    0.0800   -0.4080 C   0  0  0  0  0  0  0  0  0  0  0  0
   -2.9640    1.2830    0.4200 C   0  0  0  0  0  0  0  0  0  0  0  0
   -3.4730    2.5140    0.0580 C   0  0  0  0  0  0  0  0  0  0  0  0
   -3.4750    3.4870    0.9930 C   0  0  0  0  0  0  0  0  0  0  0  0
   -2.9840    3.2130    2.2290 C   0  0  0  0  0  0  0  0  0  0  0  0
   -2.8190    4.1730    3.6600 Cl  0  0  0  0  0  0  0  0  0  0  0  0
   -2.4830    1.4580    2.0580 S   0  0  0  0  0  0  0  0  0  0  0  0
   -1.7960   -1.8490   -1.1540 N   0  0  0  0  0  0  0  0  0  0  0  0
   -0.7700   -2.7800   -0.7200 C   0  0  2  0  0  0  0  0  0  0  0  0
   -1.1440   -3.2500    0.6700 C   0  0  0  0  0  0  0  0  0  0  0  0
  1  2  1  0
  2  3  1  0
  3  4  1  0
  4  5  2  0
  4  9  1  0
  5  6  1  0
  6  7  1  0
  7  8  2  0
  7 20  1  0
  8  9  1  0
  8 10  1  0
 10 11  1  0
 11 12  2  3
 11 19  1  0
 12 13  1  0
 13 14  2  0
 13 18  1  0
 14 15  1  0
 15 16  2  0
 16 17  1  0
 16 18  1  0
 19 20  1  0
 20 21  1  1
M  CHG  1  19   1
M  END
