
     RDKit          3D

 22 24  0  0  0  0  0  0  0  0999 V2000
    4.6380   -1.2540    2.2090 Cl  0  0  0  0  0  0  0  0  0  0  0  0
    5.0440    0.4980    2.1780 C   0  0  0  0  0  0  0  0  0  0  0  0
    4.8140    1.0450    0.7530 C   0  0  1  0  0  0  0  0  0  0  0  0
    5.7060    0.2720   -0.1370 C   0  0  0  0  0  0  0  0  0  0  0  0
    5.2110   -0.0280   -1.5110 C   0  0  0  0  0  0  0  0  0  0  0  0
    4.2270   -1.5770   -1.3500 S   0  0  0  0  0  0  0  0  0  0  0  0
    2.7130   -1.0370   -0.5180 C   0  0  0  0  0  0  0  0  0  0  0  0
    1.6740   -1.9040   -0.6960 C   0  0  0  0  0  0  0  0  0  0  0  0
    0.4240   -1.6510   -0.1360 C   0  0  0  0  0  0  0  0  0  0  0  0
    0.2040   -0.5160    0.6150 C   0  0  0  0  0  0  0  0  0  0  0  0
   -1.4080   -0.1830    1.3390 S   0  0  0  0  0  0  0  0  0  0  0  0
   -2.4370    0.7820    0.1640 C   0  0  1  0  0  0  0  0  0  0  0  0
   -2.7590   -0.0620   -1.0460 C   0  0  0  0  0  0  0  0  0  0  0  0
   -3.6330   -1.2310   -0.6570 C   0  0  0  0  0  0  0  0  0  0  0  0
   -5.0800   -0.8720   -0.8510 C   0  0  0  0  0  0  0  0  0  0  0  0
   -5.5320   -0.0030    0.2070 N   0  0  0  0  0  0  0  0  0  0  0  0
   -4.9000    1.3020    0.0480 C   0  0  0  0  0  0  0  0  0  0  0  0
   -3.6160    1.3790    0.8420 C   0  0  0  0  0  0  0  0  0  0  0  0
    1.2460    0.3670    0.8020 C   0  0  0  0  0  0  0  0  0  0  0  0
    1.0170    1.8160    1.7420 Cl  0  0  0  0  0  0  0  0  0  0  0  0
    2.4880    0.1050    0.2390 C   0  0  0  0  0  0  0  0  0  0  0  0
    3.4590    1.0540    0.4890 O   0  0  0  0  0  0  0  0  0  0  0  0
  1  2  1  0
  3  2  1  1
  3  4  1  0
  3 22  1  0
  4  5  1  0
  5  6  1  0
  6  7  1  0
  7  8  2  0
  7 21  1  0
  8  9  1  0
  9 10  2  0
 10 11  1  0
 10 19  1  0
 12 11  1  1
 12 13  1  0
 12 18  1  0
 13 14  1  0
 14 15  1  0
 15 16  1  0
 16 17  1  0
 17 18  1  0
 19 20  1  0
 19 21  2  0
 21 22  1  0
M  CHG  1  16   1
M  END
