
     RDKit          3D

 22 25  0  0  0  0  0  0  0  0999 V2000
    0.1520    1.2850    1.2600 O   0  0  0  0  0  0  0  0  0  0  0  0
    0.7290    0.4810    0.2960 C   0  0  1  0  0  0  0  0  0  0  0  0
    1.4860    1.2730   -0.6450 C   0  0  0  0  0  0  0  0  0  0  0  0
    1.7110    2.6500   -0.7770 C   0  0  0  0  0  0  0  0  0  0  0  0
    2.4760    3.0740   -1.7760 C   0  0  0  0  0  0  0  0  0  0  0  0
    3.0200    2.1960   -2.6400 C   0  0  0  0  0  0  0  0  0  0  0  0
    4.0590    2.4630   -4.0330 Cl  0  0  0  0  0  0  0  0  0  0  0  0
    2.4430    0.6440   -2.0460 S   0  0  0  0  0  0  0  0  0  0  0  0
    1.6910   -0.4470    1.0400 C   0  0  0  0  0  0  0  0  0  0  0  0
    1.9760   -0.4510    2.3770 C   0  0  0  0  0  0  0  0  0  0  0  0
    2.8540   -1.3420    2.8520 C   0  0  0  0  0  0  0  0  0  0  0  0
    3.4450   -2.2390    1.9320 C   0  0  0  0  0  0  0  0  0  0  0  0
    4.5940   -3.4980    2.1450 Cl  0  0  0  0  0  0  0  0  0  0  0  0
    2.6430   -1.6940    0.3860 S   0  0  0  0  0  0  0  0  0  0  0  0
   -0.3070   -0.4110   -0.3420 C   0  0  1  0  0  0  0  0  0  0  0  0
   -0.9730   -1.3150    0.6650 C   0  0  0  0  0  0  0  0  0  0  0  0
   -2.4170   -1.3910    0.4100 N   0  0  1  0  0  0  0  0  0  0  0  0
   -2.9730   -0.1280    0.7870 C   0  0  0  0  0  0  0  0  0  0  0  0
   -2.4130    0.9320   -0.1220 C   0  0  0  0  0  0  0  0  0  0  0  0
   -1.3820    0.3480   -1.0600 C   0  0  2  0  0  0  0  0  0  0  0  0
   -2.1260   -0.6690   -1.9130 C   0  0  0  0  0  0  0  0  0  0  0  0
   -2.6100   -1.7570   -0.9590 C   0  0  0  0  0  0  0  0  0  0  0  0
  2  1  1  1
  2  3  1  0
  2  9  1  0
  2 15  1  0
  3  4  2  0
  3  8  1  0
  4  5  1  0
  5  6  2  0
  6  7  1  0
  6  8  1  0
  9 10  2  0
  9 14  1  0
 10 11  1  0
 11 12  2  0
 12 13  1  0
 12 14  1  0
 15 16  1  1
 15 20  1  0
 16 17  1  0
 17 18  1  6
 17 22  1  0
 18 19  1  0
 20 19  1  1
 20 21  1  0
 21 22  1  0
M  CHG  1  17   1
M  END
