
     RDKit          3D

 22 24  0  0  0  0  0  0  0  0999 V2000
   -2.0000   -3.2040   -0.7100 O   0  0  0  0  0  0  0  0  0  0  0  0
   -2.4170   -1.9000   -0.6330 C   0  0  2  0  0  0  0  0  0  0  0  0
   -3.8630   -1.8290   -1.0500 C   0  0  0  0  0  0  0  0  0  0  0  0
   -4.6880   -0.9200   -0.2180 C   0  0  0  0  0  0  0  0  0  0  0  0
   -4.0880    0.3690    0.1310 C   0  0  0  0  0  0  0  0  0  0  0  0
   -2.9140    0.9060   -0.1520 C   0  0  0  0  0  0  0  0  0  0  0  0
   -1.7770    0.4140   -0.9170 C   0  0  0  0  0  0  0  0  0  0  0  0
   -0.8000    1.2860   -1.1350 C   0  0  0  0  0  0  0  0  0  0  0  0
   -0.7970    2.6790   -0.6650 C   0  0  2  0  0  0  0  0  0  0  0  0
    0.5030    3.6210   -1.4800 Cl  0  0  0  0  0  0  0  0  0  0  0  0
   -0.5350    2.8650    1.0680 Cl  0  0  0  0  0  0  0  0  0  0  0  0
   -1.6140   -0.9530   -1.4720 C   0  0  1  0  0  0  0  0  0  0  0  0
    0.0400   -1.4510   -1.8210 S   0  0  0  0  0  0  0  0  0  0  0  0
    1.1580   -1.5610   -0.5130 C   0  0  0  0  0  0  0  0  0  0  0  0
    1.9840   -0.6600   -0.0060 N   0  0  0  0  0  0  0  0  0  0  0  0
    2.7760   -0.9040    0.9940 C   0  0  0  0  0  0  0  0  0  0  0  0
    3.7450    0.0910    1.6130 C   0  0  2  0  0  0  0  0  0  0  0  0
    3.1020    1.3890    2.0060 C   0  0  0  0  0  0  0  0  0  0  0  0
    4.2160    2.1230    1.2890 C   0  0  0  0  0  0  0  0  0  0  0  0
    4.5430    0.8420    0.5820 C   0  0  0  0  0  0  0  0  0  0  0  0
    2.7370   -2.1960    1.5480 C   0  0  0  0  0  0  0  0  0  0  0  0
    1.5180   -3.0140    0.5630 S   0  0  0  0  0  0  0  0  0  0  0  0
  2  1  1  6
  2  3  1  0
  2 12  1  0
  3  4  1  0
  4  5  1  0
  5  6  2  0
  6  7  1  0
  7  8  2  3
  7 12  1  0
  8  9  1  0
  9 10  1  6
  9 11  1  0
 12 13  1  1
 13 14  1  0
 14 15  2  0
 14 22  1  0
 15 16  1  0
 17 16  1  6
 16 21  2  0
 17 18  1  0
 17 20  1  0
 18 19  1  0
 19 20  1  0
 21 22  1  0
M  CHG  1  15   1
M  END
