
     RDKit          3D

 22 25  0  0  0  0  0  0  0  0999 V2000
   -4.4760   -1.9850   -0.2210 C   0  0  0  0  0  0  0  0  0  0  0  0
   -4.0600   -1.1020    0.8510 N   0  0  0  0  0  0  0  0  0  0  0  0
   -3.1130   -0.1570    0.4400 C   0  0  0  0  0  0  0  0  0  0  0  0
   -3.3880    1.1470    0.0600 C   0  0  0  0  0  0  0  0  0  0  0  0
   -2.3550    1.9750   -0.3230 C   0  0  0  0  0  0  0  0  0  0  0  0
   -1.0320    1.5360   -0.3410 C   0  0  0  0  0  0  0  0  0  0  0  0
   -0.7830    0.2540    0.0340 C   0  0  0  0  0  0  0  0  0  0  0  0
    0.4780   -0.0720   -0.0050 C   0  0  0  0  0  0  0  0  0  0  0  0
    0.7940   -1.3850    0.3830 C   0  0  0  0  0  0  0  0  0  0  0  0
   -0.8990   -2.0300    0.7830 S   0  0  0  0  0  0  0  0  0  0  0  0
   -1.7510   -0.5900    0.4160 C   0  0  0  0  0  0  0  0  0  0  0  0
    1.2120    1.1350   -0.4700 C   0  0  0  0  0  0  0  0  0  0  0  0
    2.6010    1.3910   -0.6630 C   0  0  0  0  0  0  0  0  0  0  0  0
    3.6850    0.7040   -0.5910 C   0  0  0  0  0  0  0  0  0  0  0  0
    4.1160   -0.6390   -0.3030 C   0  0  0  0  0  0  0  0  0  0  0  0
    5.2770   -0.7980    0.2580 C   0  0  0  0  0  0  0  0  0  0  0  0
    5.9620   -2.3870    0.6920 Cl  0  0  0  0  0  0  0  0  0  0  0  0
    6.0450    0.4040    0.4780 C   0  0  0  0  0  0  0  0  0  0  0  0
    6.9210    0.7340    1.2660 O   0  0  0  0  0  0  0  0  0  0  0  0
    5.3770    1.4950   -0.8200 S   0  0  0  0  0  0  0  0  0  0  0  0
    0.2670    2.1010   -0.6660 C   0  0  0  0  0  0  0  0  0  0  0  0
    0.5020    3.7510   -1.2140 Cl  0  0  0  0  0  0  0  0  0  0  0  0
  1  2  1  0
  2  3  1  0
  3  4  2  0
  3 11  1  0
  4  5  1  0
  5  6  2  0
  6  7  1  0
  6 21  1  0
  7  8  1  0
  7 11  2  0
  8  9  2  0
  8 12  1  0
  9 10  1  0
 10 11  1  0
 12 13  1  0
 12 21  2  0
 13 14  2  3
 14 15  1  0
 14 20  1  0
 15 16  2  0
 16 17  1  0
 16 18  1  0
 18 19  2  0
 18 20  1  0
 21 22  1  0
M  CHG  1   2   1
M  END
