
     RDKit          3D

 23 24  0  0  0  0  0  0  0  0999 V2000
   -5.6320    1.8620    0.2640 C   0  0  0  0  0  0  0  0  0  0  0  0
   -4.6950    1.0220   -0.1080 C   0  0  0  0  0  0  0  0  0  0  0  0
   -3.2760    1.3440   -0.4190 C   0  0  0  0  0  0  0  0  0  0  0  0
   -2.7100    0.0690   -0.8790 C   0  0  1  0  0  0  0  0  0  0  0  0
   -1.3240   -0.1540   -0.7590 N   0  0  0  0  0  0  0  0  0  0  0  0
   -0.5700    0.7130    0.0820 C   0  0  1  0  0  0  0  0  0  0  0  0
   -0.5750    0.3310    1.5300 C   0  0  0  0  0  0  0  0  0  0  0  0
   -0.1370   -1.0880    1.7090 C   0  0  0  0  0  0  0  0  0  0  0  0
    1.1300   -1.3170    0.9310 C   0  0  0  0  0  0  0  0  0  0  0  0
    1.7280   -0.0960    0.4640 N   0  0  1  0  0  0  0  0  0  0  0  0
    2.9840   -0.3600   -0.1530 C   0  0  1  0  0  0  0  0  0  0  0  0
    3.5100   -1.7570    0.0930 C   0  0  0  0  0  0  0  0  0  0  0  0
    2.9710   -0.1600   -1.6600 C   0  0  0  0  0  0  0  0  0  0  0  0
    4.0340    0.5760    0.3720 C   0  0  0  0  0  0  0  0  0  0  0  0
    3.7810    1.4540    1.2370 O   0  0  0  0  0  0  0  0  0  0  0  0
    5.3410    0.5030   -0.0890 O   0  0  0  0  0  0  0  0  0  0  0  0
    6.3560    1.3460    0.3640 C   0  0  0  0  0  0  0  0  0  0  0  0
    0.8830    0.6870   -0.3870 C   0  0  0  0  0  0  0  0  0  0  0  0
   -3.4890   -1.0040   -0.1290 C   0  0  0  0  0  0  0  0  0  0  0  0
   -4.8790   -0.4280   -0.2860 C   0  0  0  0  0  0  0  0  0  0  0  0
   -5.9440   -1.1300   -0.5340 C   0  0  0  0  0  0  0  0  0  0  0  0
   -5.7870   -2.8880   -0.6870 Cl  0  0  0  0  0  0  0  0  0  0  0  0
   -7.6960   -0.4320   -0.7630 Br  0  0  0  0  0  0  0  0  0  0  0  0
  1  2  2  0
  2  3  1  0
  2 20  1  0
  3  4  1  0
  4  5  1  1
  4 19  1  0
  6  5  1  6
  6  7  1  0
  6 18  1  0
  7  8  1  0
  8  9  1  0
 10  9  1  6
 10 11  1  0
 10 18  1  0
 11 12  1  6
 11 13  1  0
 11 14  1  0
 14 15  2  0
 14 16  1  0
 16 17  1  0
 19 20  1  0
 20 21  2  3
 21 22  1  0
 21 23  1  0
M  CHG  2   5   1  10   1
M  END
