
     RDKit          3D

 17 19  0  0  0  0  0  0  0  0999 V2000
    3.7120    1.7560   -0.9580 C   0  0  0  0  0  0  0  0  0  0  0  0
    3.4580    0.3850   -0.4440 C   0  0  0  0  0  0  0  0  0  0  0  0
    4.5080   -0.4830   -0.2350 C   0  0  0  0  0  0  0  0  0  0  0  0
    4.3180   -1.7630    0.2410 C   0  0  0  0  0  0  0  0  0  0  0  0
    3.0360   -2.1950    0.5180 C   0  0  0  0  0  0  0  0  0  0  0  0
    1.9820   -1.3310    0.3100 C   0  0  0  0  0  0  0  0  0  0  0  0
    0.6820   -1.7240    0.5750 C   0  0  0  0  0  0  0  0  0  0  0  0
   -0.3630   -0.8790    0.3740 C   0  0  0  0  0  0  0  0  0  0  0  0
   -0.1660    0.3840   -0.0960 C   0  0  0  0  0  0  0  0  0  0  0  0
   -1.2880    1.2360   -0.2930 N   0  0  0  0  0  0  0  0  0  0  0  0
   -2.6090    0.8070   -0.0130 C   0  0  0  0  0  0  0  0  0  0  0  0
   -3.3780    0.1170   -0.8340 C   0  0  0  0  0  0  0  0  0  0  0  0
   -4.6890   -0.1450   -0.1920 C   0  0  0  0  0  0  0  0  0  0  0  0
   -4.3330   -0.0900    1.2740 C   0  0  0  0  0  0  0  0  0  0  0  0
   -3.3290    1.0740    1.2670 C   0  0  0  0  0  0  0  0  0  0  0  0
    1.1060    0.8180   -0.3730 C   0  0  0  0  0  0  0  0  0  0  0  0
    2.1560   -0.0420   -0.1670 C   0  0  0  0  0  0  0  0  0  0  0  0
  1  2  1  0
  2  3  2  0
  2 17  1  0
  3  4  1  0
  4  5  2  0
  5  6  1  0
  6  7  2  0
  6 17  1  0
  7  8  1  0
  8  9  2  0
  9 10  1  0
  9 16  1  0
 10 11  1  0
 11 12  2  0
 11 15  1  0
 12 13  1  0
 13 14  1  0
 14 15  1  0
 16 17  2  0
M  END
