
     RDKit          3D

 23 25  0  0  0  0  0  0  0  0999 V2000
   -1.9580    1.7020    1.4090 Cl  0  0  0  0  0  0  0  0  0  0  0  0
   -3.4250    0.7960    1.1730 C   0  0  0  0  0  0  0  0  0  0  0  0
   -4.8900    1.4210    2.2950 Br  0  0  0  0  0  0  0  0  0  0  0  0
   -3.6550   -0.2060    0.3690 C   0  0  0  0  0  0  0  0  0  0  0  0
   -4.9820   -0.7070    0.4130 O   0  0  0  0  0  0  0  0  0  0  0  0
   -5.3860   -1.7450   -0.4030 C   0  0  0  0  0  0  0  0  0  0  0  0
   -4.5310   -2.2960   -1.2490 C   0  0  0  0  0  0  0  0  0  0  0  0
   -3.1740   -1.8190   -1.3200 C   0  0  0  0  0  0  0  0  0  0  0  0
   -2.7050   -0.8090   -0.5450 C   0  0  0  0  0  0  0  0  0  0  0  0
   -1.3100   -0.3810   -0.7120 C   0  0  0  0  0  0  0  0  0  0  0  0
   -0.3750   -0.9090    0.3370 C   0  0  2  0  0  0  0  0  0  0  0  0
    1.0150   -0.3900    0.2170 C   0  0  0  0  0  0  0  0  0  0  0  0
    1.1160    1.0450    0.3160 N   0  0  0  0  0  0  0  0  0  0  0  0
    2.4680    1.5030   -0.0440 C   0  0  1  0  0  0  0  0  0  0  0  0
    2.5340    1.5570   -1.5500 C   0  0  0  0  0  0  0  0  0  0  0  0
    3.7690    2.3530   -1.9700 C   0  0  0  0  0  0  0  0  0  0  0  0
    3.5020    3.6750   -1.5930 O   0  0  0  0  0  0  0  0  0  0  0  0
    3.5120    3.8020   -0.2110 C   0  0  0  0  0  0  0  0  0  0  0  0
    2.5780    2.8990    0.5090 C   0  0  0  0  0  0  0  0  0  0  0  0
   -0.1080   -2.4450   -0.2240 C   0  0  0  0  0  0  0  0  0  0  0  0
    0.6980   -2.9230    0.9530 C   0  0  0  0  0  0  0  0  0  0  0  0
    0.2130   -2.1330    2.1370 C   0  0  0  0  0  0  0  0  0  0  0  0
   -0.8890   -1.3400    1.5490 N   0  0  0  0  0  0  0  0  0  0  0  0
  1  2  1  0
  2  3  1  0
  2  4  2  3
  4  5  1  0
  4  9  1  0
  5  6  1  0
  6  7  2  0
  7  8  1  0
  8  9  2  0
  9 10  1  0
 11 10  1  6
 11 12  1  0
 11 20  1  0
 11 23  1  0
 12 13  1  0
 14 13  1  6
 14 15  1  0
 14 19  1  0
 15 16  1  0
 16 17  1  0
 17 18  1  0
 18 19  1  0
 20 21  1  0
 21 22  1  0
 22 23  1  0
M  CHG  2  13   1  23   1
M  END
