
     RDKit          3D

 23 24  0  0  0  0  0  0  0  0999 V2000
    0.0050   -3.6880   -0.9580 C   0  0  0  0  0  0  0  0  0  0  0  0
   -0.4910   -2.3200   -0.7260 N   0  0  0  0  0  0  0  0  0  0  0  0
    0.0800   -1.8120    0.4800 C   0  0  2  0  0  0  0  0  0  0  0  0
   -0.6260   -2.3580    1.7330 C   0  0  0  0  0  0  0  0  0  0  0  0
    0.1200   -0.3390    0.5470 C   0  0  0  0  0  0  0  0  0  0  0  0
    1.2880    0.2870    0.4910 C   0  0  0  0  0  0  0  0  0  0  0  0
    2.5780   -0.3320    0.3670 C   0  0  0  0  0  0  0  0  0  0  0  0
    3.6620    0.4460    0.3260 C   0  0  0  0  0  0  0  0  0  0  0  0
    5.0050   -0.1260    0.2010 C   0  0  0  0  0  0  0  0  0  0  0  0
    6.0700    0.8940    0.1730 C   0  0  0  0  0  0  0  0  0  0  0  0
    5.9190    2.1850    0.2480 C   0  0  0  0  0  0  0  0  0  0  0  0
    7.3660    3.4220    0.2030 Br  0  0  0  0  0  0  0  0  0  0  0  0
    4.5490    2.7060    0.3730 C   0  0  0  0  0  0  0  0  0  0  0  0
    4.3750    3.9400    0.4460 O   0  0  0  0  0  0  0  0  0  0  0  0
    3.5110    1.8140    0.4050 O   0  0  0  0  0  0  0  0  0  0  0  0
   -1.0830    0.5070    0.7110 C   0  0  0  0  0  0  0  0  0  0  0  0
   -2.0380    0.4720   -0.3640 N   0  0  1  0  0  0  0  0  0  0  0  0
   -3.2290   -0.1890    0.0860 C   0  0  0  0  0  0  0  0  0  0  0  0
   -3.9460    0.7840    1.0340 C   0  0  0  0  0  0  0  0  0  0  0  0
   -4.6510    1.7570    0.0920 C   0  0  2  0  0  0  0  0  0  0  0  0
   -6.0430    0.8880   -0.5940 Cl  0  0  0  0  0  0  0  0  0  0  0  0
   -3.7430    2.1380   -1.0560 C   0  0  0  0  0  0  0  0  0  0  0  0
   -2.2980    1.8500   -0.7690 C   0  0  0  0  0  0  0  0  0  0  0  0
  1  2  1  0
  2  3  1  0
  3  4  1  1
  3  5  1  0
  5  6  2  3
  5 16  1  0
  6  7  1  0
  7  8  2  3
  8  9  1  0
  8 15  1  0
  9 10  1  0
 10 11  2  0
 11 12  1  0
 11 13  1  0
 13 14  2  0
 13 15  1  0
 17 16  1  1
 17 18  1  0
 17 23  1  0
 18 19  1  0
 19 20  1  0
 20 21  1  6
 20 22  1  0
 22 23  1  0
M  CHG  2   2   1  17   1
M  END
