
     RDKit          3D

 23 24  0  0  0  0  0  0  0  0999 V2000
    2.6780   -3.5580    1.2820 C   0  0  0  0  0  0  0  0  0  0  0  0
    3.1400   -2.1650    1.7510 C   0  0  0  0  0  0  0  0  0  0  0  0
    2.1810   -1.1520    1.2850 C   0  0  0  0  0  0  0  0  0  0  0  0
    0.5510   -1.3900    1.9520 Cl  0  0  0  0  0  0  0  0  0  0  0  0
    2.4170   -0.1450    0.4980 C   0  0  0  0  0  0  0  0  0  0  0  0
    3.8530   -0.0350    0.0340 C   0  0  0  0  0  0  0  0  0  0  0  0
    3.9150   -0.3070   -1.9040 Br  0  0  0  0  0  0  0  0  0  0  0  0
    1.4540    0.8000   -0.0300 C   0  0  0  0  0  0  0  0  0  0  0  0
    1.6340    1.8550   -0.7680 C   0  0  0  0  0  0  0  0  0  0  0  0
    2.6720    2.6170   -1.4000 C   0  0  0  0  0  0  0  0  0  0  0  0
    2.6000    4.0580   -0.9190 N   0  0  0  0  0  0  0  0  0  0  0  0
    0.0120    0.6020    0.2320 N   0  0  0  0  0  0  0  0  0  0  0  0
   -0.5660    1.4170    1.2450 C   0  0  0  0  0  0  0  0  0  0  0  0
   -2.0680    1.2500    1.1830 C   0  0  2  0  0  0  0  0  0  0  0  0
   -2.7560    1.8910    2.3640 C   0  0  0  0  0  0  0  0  0  0  0  0
   -2.3850   -0.0700    1.1290 O   0  0  0  0  0  0  0  0  0  0  0  0
   -2.0700   -0.6680   -0.0900 C   0  0  1  0  0  0  0  0  0  0  0  0
   -2.2850   -2.1530    0.0800 C   0  0  0  0  0  0  0  0  0  0  0  0
   -3.7710   -2.4120   -0.1840 C   0  0  0  0  0  0  0  0  0  0  0  0
   -4.0510   -2.3320   -1.5410 O   0  0  0  0  0  0  0  0  0  0  0  0
   -3.4050   -1.2390   -2.1140 C   0  0  0  0  0  0  0  0  0  0  0  0
   -3.1010   -0.1830   -1.0850 C   0  0  0  0  0  0  0  0  0  0  0  0
   -0.7090   -0.2870   -0.5770 C   0  0  0  0  0  0  0  0  0  0  0  0
  1  2  1  0
  2  3  1  0
  3  4  1  0
  3  5  2  3
  5  6  1  0
  5  8  1  0
  6  7  1  0
  8  9  2  3
  8 12  1  0
  9 10  1  0
 10 11  1  0
 12 13  1  0
 12 23  1  0
 13 14  1  0
 14 15  1  1
 14 16  1  0
 16 17  1  0
 17 18  1  1
 17 22  1  0
 17 23  1  0
 18 19  1  0
 19 20  1  0
 20 21  1  0
 21 22  1  0
M  CHG  1  11   1
M  END
