
     RDKit          3D

 23 25  0  0  0  0  0  0  0  0999 V2000
   -2.9770   -1.8530    0.6190 C   0  0  0  0  0  0  0  0  0  0  0  0
   -2.2690   -1.1140   -0.5270 C   0  0  1  0  0  0  0  0  0  0  0  0
   -2.0980   -2.1690   -1.6270 C   0  0  0  0  0  0  0  0  0  0  0  0
   -3.1910   -0.0220   -0.9690 C   0  0  0  0  0  0  0  0  0  0  0  0
   -3.1150    1.0640    0.0550 C   0  0  0  0  0  0  0  0  0  0  0  0
   -1.9080    1.3920    0.4650 C   0  0  0  0  0  0  0  0  0  0  0  0
   -2.0500    2.4390    1.4330 C   0  0  0  0  0  0  0  0  0  0  0  0
   -3.2790    2.7410    1.6110 N   0  0  0  0  0  0  0  0  0  0  0  0
   -4.0880    1.9110    0.7640 C   0  0  0  0  0  0  0  0  0  0  0  0
   -0.7810    0.6280   -0.1540 C   0  0  1  0  0  0  0  0  0  0  0  0
   -0.5780    1.1810   -1.5570 C   0  0  0  0  0  0  0  0  0  0  0  0
    0.4580    0.8620    0.5710 N   0  0  0  0  0  0  0  0  0  0  0  0
    1.6840    0.2740    0.2170 C   0  0  0  0  0  0  0  0  0  0  0  0
    1.7090   -0.4920   -0.7780 O   0  0  0  0  0  0  0  0  0  0  0  0
    2.9600    0.4980    0.9430 C   0  0  0  0  0  0  0  0  0  0  0  0
    4.0820   -0.2390    0.3560 C   0  0  0  0  0  0  0  0  0  0  0  0
    4.8120   -1.1520    0.9780 C   0  0  0  0  0  0  0  0  0  0  0  0
    4.6000   -1.6830    2.6420 Cl  0  0  0  0  0  0  0  0  0  0  0  0
    5.8410   -1.6720    0.0760 C   0  0  0  0  0  0  0  0  0  0  0  0
    5.6090   -0.9240   -1.1820 C   0  0  0  0  0  0  0  0  0  0  0  0
    6.6040   -1.1000   -2.8120 Br  0  0  0  0  0  0  0  0  0  0  0  0
    4.5910   -0.0980   -1.0140 C   0  0  0  0  0  0  0  0  0  0  0  0
   -1.0260   -0.7150   -0.1440 O   0  0  0  0  0  0  0  0  0  0  0  0
  2  1  1  1
  2  3  1  0
  2  4  1  0
  2 23  1  0
  4  5  1  0
  5  6  2  0
  5  9  1  0
  6  7  1  0
  6 10  1  0
  7  8  2  0
  8  9  1  0
 10 11  1  6
 10 12  1  0
 10 23  1  0
 12 13  1  0
 13 14  2  0
 13 15  1  0
 15 16  1  0
 16 17  2  0
 16 22  1  0
 17 18  1  0
 17 19  1  0
 19 20  1  0
 20 21  1  0
 20 22  2  0
M  CHG  1   8   1
M  END
