
     RDKit          3D

 18 19  0  0  0  0  0  0  0  0999 V2000
   -3.3030    0.2420   -1.7810 C   0  0  0  0  0  0  0  0  0  0  0  0
   -2.5810    0.3200   -0.4360 C   0  0  1  0  0  0  0  0  0  0  0  0
   -3.1000   -0.7960    0.3730 C   0  0  0  0  0  0  0  0  0  0  0  0
   -2.3190   -1.6570    0.8110 O   0  0  0  0  0  0  0  0  0  0  0  0
   -4.4430   -0.8800    0.6420 O   0  0  0  0  0  0  0  0  0  0  0  0
   -1.1250    0.2230   -0.6080 C   0  0  0  0  0  0  0  0  0  0  0  0
   -0.5530    0.0540   -1.7810 N   0  0  0  0  0  0  0  0  0  0  0  0
    0.7460   -0.0360   -1.9640 N   0  0  0  0  0  0  0  0  0  0  0  0
    1.5850    0.0420   -0.9340 C   0  0  0  0  0  0  0  0  0  0  0  0
    2.9200   -0.0440   -1.0670 N   0  0  0  0  0  0  0  0  0  0  0  0
    3.7680    0.0350   -0.0210 C   0  0  0  0  0  0  0  0  0  0  0  0
    5.1810   -0.0640   -0.2270 N   0  0  0  0  0  0  0  0  0  0  0  0
    3.2590    0.2070    1.1980 N   0  0  0  0  0  0  0  0  0  0  0  0
    1.9210    0.3020    1.3990 C   0  0  0  0  0  0  0  0  0  0  0  0
    1.5390    0.4620    2.5820 O   0  0  0  0  0  0  0  0  0  0  0  0
    1.0440    0.2220    0.3370 C   0  0  0  0  0  0  0  0  0  0  0  0
   -0.3110    0.3160    0.5310 C   0  0  0  0  0  0  0  0  0  0  0  0
   -0.8890    0.4910    1.7490 O   0  0  0  0  0  0  0  0  0  0  0  0
  2  1  1  6
  2  3  1  0
  2  6  1  0
  3  4  2  0
  3  5  1  0
  6  7  2  0
  6 17  1  0
  7  8  1  0
  8  9  2  0
  9 10  1  0
  9 16  1  0
 10 11  2  0
 11 12  1  0
 11 13  1  0
 13 14  1  0
 14 15  2  0
 14 16  1  0
 16 17  2  0
 17 18  1  0
M  END
