
     RDKit          3D

 23 25  0  0  0  0  0  0  0  0999 V2000
    3.8510    0.8240   -0.7980 C   0  0  0  0  0  0  0  0  0  0  0  0
    3.5680    0.1300    0.4960 C   0  0  1  0  0  0  0  0  0  0  0  0
    2.1420    0.3130    0.9020 C   0  0  0  0  0  0  0  0  0  0  0  0
    1.1830   -0.2500   -0.0220 N   0  0  0  0  0  0  0  0  0  0  0  0
    0.4370    0.7940   -0.6850 C   0  0  0  0  0  0  0  0  0  0  0  0
   -0.9670    0.5210   -0.9390 C   0  0  0  0  0  0  0  0  0  0  0  0
   -1.4090    0.4710   -2.2080 C   0  0  0  0  0  0  0  0  0  0  0  0
    0.0100    0.7930   -3.4530 Br  0  0  0  0  0  0  0  0  0  0  0  0
   -2.7010    0.2220   -2.8390 C   0  0  0  0  0  0  0  0  0  0  0  0
   -3.8750    0.1340   -1.9300 C   0  0  0  0  0  0  0  0  0  0  0  0
   -3.6470   -0.9930   -0.9150 C   0  0  2  0  0  0  0  0  0  0  0  0
   -4.8550   -1.6700   -0.5830 N   0  0  0  0  0  0  0  0  0  0  0  0
   -3.0240   -0.2980    0.2630 C   0  0  0  0  0  0  0  0  0  0  0  0
   -1.8720    0.3400    0.2120 C   0  0  0  0  0  0  0  0  0  0  0  0
   -1.3320    1.0150    1.3810 C   0  0  0  0  0  0  0  0  0  0  0  0
   -2.4130    1.0630    2.4850 C   0  0  0  0  0  0  0  0  0  0  0  0
   -2.9950   -0.2040    2.5910 O   0  0  0  0  0  0  0  0  0  0  0  0
   -3.8080   -0.3690    1.4820 C   0  0  1  0  0  0  0  0  0  0  0  0
   -4.9780    1.0010    1.4120 Cl  0  0  0  0  0  0  0  0  0  0  0  0
    4.0020   -1.3090    0.4490 C   0  0  0  0  0  0  0  0  0  0  0  0
    5.4600   -1.2110    0.8540 C   0  0  0  0  0  0  0  0  0  0  0  0
    5.6320    0.2090    1.3530 C   0  0  0  0  0  0  0  0  0  0  0  0
    4.3630    0.7200    1.4780 O   0  0  0  0  0  0  0  0  0  0  0  0
  2  1  1  6
  2  3  1  0
  2 20  1  0
  2 23  1  0
  3  4  1  0
  4  5  1  0
  5  6  1  0
  6  7  2  0
  6 14  1  0
  7  8  1  0
  7  9  1  0
  9 10  1  0
 10 11  1  0
 11 12  1  1
 11 13  1  0
 13 14  2  0
 13 18  1  0
 14 15  1  0
 15 16  1  0
 16 17  1  0
 17 18  1  0
 18 19  1  6
 20 21  1  0
 21 22  1  0
 22 23  1  0
M  CHG  2   4   1  12   1
M  END
