
     RDKit          3D

 14 15  0  0  0  0  0  0  0  0999 V2000
   -0.6040   -2.0640   -0.2310 C   0  0  0  0  0  0  0  0  0  0  0  0
   -0.7920   -0.6360   -0.3050 N   0  0  0  0  0  0  0  0  0  0  0  0
   -2.0840   -0.1260   -0.7020 C   0  0  0  0  0  0  0  0  0  0  0  0
   -2.1750    1.3400   -0.7470 C   0  0  0  0  0  0  0  0  0  0  0  0
   -3.6600    2.1670   -1.2070 Cl  0  0  0  0  0  0  0  0  0  0  0  0
   -1.1760    2.1170   -0.4540 N   0  0  0  0  0  0  0  0  0  0  0  0
    0.0810    1.5850   -0.0670 C   0  0  0  0  0  0  0  0  0  0  0  0
    0.3050    0.2280    0.0170 C   0  0  0  0  0  0  0  0  0  0  0  0
    1.5840    0.0440    0.4060 N   0  0  0  0  0  0  0  0  0  0  0  0
    2.2520   -1.1710    0.6240 C   0  0  0  0  0  0  0  0  0  0  0  0
    3.4660   -1.1480    0.9910 O   0  0  0  0  0  0  0  0  0  0  0  0
    2.1760    1.2410    0.5710 N   0  0  0  0  0  0  0  0  0  0  0  0
    1.2670    2.1870    0.2850 C   0  0  0  0  0  0  0  0  0  0  0  0
    1.5030    3.4260    0.3410 O   0  0  0  0  0  0  0  0  0  0  0  0
  1  2  1  0
  2  3  1  0
  2  8  1  0
  3  4  1  0
  4  5  1  0
  4  6  2  0
  6  7  1  0
  7  8  2  0
  7 13  1  0
  8  9  1  0
  9 10  1  0
  9 12  1  0
 10 11  2  0
 12 13  1  0
 13 14  2  0
M  END
