
     RDKit          3D

 13 14  0  0  0  0  0  0  0  0999 V2000
    2.9050   -0.9210    0.0470 C   0  0  0  0  0  0  0  0  0  0  0  0
    1.7220   -0.0700    0.0510 N   0  0  0  0  0  0  0  0  0  0  0  0
    1.7480    1.3450    0.0950 C   0  0  0  0  0  0  0  0  0  0  0  0
    0.4930    1.7550    0.0840 C   0  0  0  0  0  0  0  0  0  0  0  0
    0.0530    3.4670    0.1280 Cl  0  0  0  0  0  0  0  0  0  0  0  0
   -0.4220    0.6650    0.0320 N   0  0  0  0  0  0  0  0  0  0  0  0
   -1.8340    0.5570    0.0060 C   0  0  0  0  0  0  0  0  0  0  0  0
   -2.5690    1.5470    0.3090 N   0  0  0  0  0  0  0  0  0  0  0  0
   -2.4920   -0.7260   -0.3730 C   0  0  0  0  0  0  0  0  0  0  0  0
   -1.5990   -1.8750   -0.0710 C   0  0  0  0  0  0  0  0  0  0  0  0
   -2.1100   -2.9980    0.1510 O   0  0  0  0  0  0  0  0  0  0  0  0
   -0.1870   -1.6930   -0.0380 N   0  0  0  0  0  0  0  0  0  0  0  0
    0.3780   -0.5310    0.0100 C   0  0  0  0  0  0  0  0  0  0  0  0
  1  2  1  0
  2  3  1  0
  2 13  1  0
  3  4  2  0
  4  5  1  0
  4  6  1  0
  6  7  1  0
  6 13  1  0
  7  8  2  0
  7  9  1  0
  9 10  1  0
 10 11  2  0
 10 12  1  0
 12 13  2  0
M  END
