
     RDKit          3D

 13 14  0  0  0  0  0  0  0  0999 V2000
    2.4360    0.7220    1.0020 C   0  0  0  0  0  0  0  0  0  0  0  0
    2.1720   -0.1320   -0.1610 C   0  0  0  0  0  0  0  0  0  0  0  0
    3.1960   -0.6370   -0.9210 N   0  0  0  0  0  0  0  0  0  0  0  0
    2.6100   -1.4020   -1.8150 N   0  0  0  0  0  0  0  0  0  0  0  0
    1.3180   -1.3860   -1.6400 N   0  0  0  0  0  0  0  0  0  0  0  0
    0.9970   -0.5710   -0.5770 N   0  0  0  0  0  0  0  0  0  0  0  0
   -0.3580   -0.3340   -0.2630 C   0  0  0  0  0  0  0  0  0  0  0  0
   -1.2940   -1.2230   -0.6630 C   0  0  0  0  0  0  0  0  0  0  0  0
   -2.7240   -1.0880   -0.3990 C   0  0  0  0  0  0  0  0  0  0  0  0
   -3.0830    0.1130    0.1990 O   0  0  0  0  0  0  0  0  0  0  0  0
   -2.1740    1.0310    0.6100 C   0  0  0  0  0  0  0  0  0  0  0  0
   -0.8500    0.8300    0.3940 C   0  0  0  0  0  0  0  0  0  0  0  0
   -0.0550    1.8430    0.8570 O   0  0  0  0  0  0  0  0  0  0  0  0
  1  2  1  0
  2  3  2  0
  2  6  1  0
  3  4  1  0
  4  5  2  0
  5  6  1  0
  6  7  1  0
  7  8  2  0
  7 12  1  0
  8  9  1  0
  9 10  1  0
 10 11  1  0
 11 12  2  0
 12 13  1  0
M  END
