
     RDKit          3D

 14 15  0  0  0  0  0  0  0  0999 V2000
   -1.3780   -2.1030   -1.0250 O   0  0  0  0  0  0  0  0  0  0  0  0
   -1.3490   -0.9530   -0.4720 C   0  0  0  0  0  0  0  0  0  0  0  0
   -2.5650   -0.2310   -0.1070 C   0  0  0  0  0  0  0  0  0  0  0  0
   -2.3600    1.0830    0.5220 C   0  0  0  0  0  0  0  0  0  0  0  0
   -1.1890    1.5460    0.7280 N   0  0  0  0  0  0  0  0  0  0  0  0
    0.0150    0.8940    0.3970 C   0  0  0  0  0  0  0  0  0  0  0  0
    1.1190    1.5410    0.6920 C   0  0  0  0  0  0  0  0  0  0  0  0
    0.8680    3.0940    1.4430 Cl  0  0  0  0  0  0  0  0  0  0  0  0
    2.4830    1.1990    0.5080 N   0  0  0  0  0  0  0  0  0  0  0  0
    3.0020    0.1080    0.0620 C   0  0  0  0  0  0  0  0  0  0  0  0
    2.3790   -1.0940   -0.3860 N   0  0  0  0  0  0  0  0  0  0  0  0
    0.9870   -1.2420   -0.6450 C   0  0  0  0  0  0  0  0  0  0  0  0
    0.6370   -2.2400   -1.3280 O   0  0  0  0  0  0  0  0  0  0  0  0
   -0.0840   -0.3780   -0.2140 N   0  0  0  0  0  0  0  0  0  0  0  0
  1  2  2  0
  2  3  1  0
  2 14  1  0
  3  4  1  0
  4  5  2  0
  5  6  1  0
  6  7  2  0
  6 14  1  0
  7  8  1  0
  7  9  1  0
  9 10  2  0
 10 11  1  0
 11 12  1  0
 12 13  2  0
 12 14  1  0
M  END
