
     RDKit          3D

 14 15  0  0  0  0  0  0  0  0999 V2000
   -0.9590   -2.5000   -1.2950 O   0  0  0  0  0  0  0  0  0  0  0  0
   -0.5840   -1.5960   -0.5080 C   0  0  0  0  0  0  0  0  0  0  0  0
   -1.7040   -1.0050    0.2260 C   0  0  0  0  0  0  0  0  0  0  0  0
   -2.0460    0.4040   -0.1750 C   0  0  0  0  0  0  0  0  0  0  0  0
   -1.1490    1.4210    0.3780 C   0  0  0  0  0  0  0  0  0  0  0  0
   -1.7670    2.4850    0.6610 O   0  0  0  0  0  0  0  0  0  0  0  0
    0.2350    1.5960    0.7070 N   0  0  0  0  0  0  0  0  0  0  0  0
    1.3990    0.8840    0.3020 C   0  0  0  0  0  0  0  0  0  0  0  0
    2.5550    1.4240    0.4060 N   0  0  0  0  0  0  0  0  0  0  0  0
    3.5490    0.5480   -0.0480 N   0  0  0  0  0  0  0  0  0  0  0  0
    3.0450   -0.5660   -0.4500 C   0  0  0  0  0  0  0  0  0  0  0  0
    3.8170   -1.9840   -1.1020 Cl  0  0  0  0  0  0  0  0  0  0  0  0
    1.6050   -0.4470   -0.2590 C   0  0  0  0  0  0  0  0  0  0  0  0
    0.8230   -1.4360   -0.5830 N   0  0  0  0  0  0  0  0  0  0  0  0
  1  2  2  0
  2  3  1  0
  2 14  1  0
  3  4  1  0
  4  5  1  0
  5  6  2  0
  5  7  1  0
  7  8  1  0
  8  9  2  0
  8 13  1  0
  9 10  1  0
 10 11  2  0
 11 12  1  0
 11 13  1  0
 13 14  2  0
M  END
