
     RDKit          3D

 29 33  0  0  0  0  0  0  0  0999 V2000
   -4.7240   -2.4070   -1.3710 C   0  0  0  0  0  0  0  0  0  0  0  0
   -4.1930   -1.4560   -0.4080 N   0  0  0  0  0  0  0  0  0  0  0  0
   -3.3290   -1.8440    0.5430 C   0  0  0  0  0  0  0  0  0  0  0  0
   -2.9910   -3.0550    0.5790 O   0  0  0  0  0  0  0  0  0  0  0  0
   -2.8190   -0.9300    1.4670 C   0  0  0  0  0  0  0  0  0  0  0  0
   -3.1800    0.3960    1.4380 C   0  0  0  0  0  0  0  0  0  0  0  0
   -2.6910    1.3190    2.3390 O   0  0  0  0  0  0  0  0  0  0  0  0
   -1.7840    1.0460    3.3700 C   0  0  0  0  0  0  0  0  0  0  0  0
   -0.4770    0.5330    2.8630 C   0  0  0  0  0  0  0  0  0  0  0  0
   -0.0390    0.5300    1.5550 C   0  0  0  0  0  0  0  0  0  0  0  0
    1.1880   -0.0210    1.5510 N   0  0  0  0  0  0  0  0  0  0  0  0
    1.9900   -0.2090    0.3860 C   0  0  2  0  0  0  0  0  0  0  0  0
    2.8610   -1.4330    0.4440 C   0  0  0  0  0  0  0  0  0  0  0  0
    3.6410   -1.5000   -0.8530 C   0  0  1  0  0  0  0  0  0  0  0  0
    2.6910   -1.0560   -1.9420 C   0  0  0  0  0  0  0  0  0  0  0  0
    2.8410    0.2460   -2.1450 C   0  0  0  0  0  0  0  0  0  0  0  0
    3.7540    0.7260   -1.0720 C   0  0  1  0  0  0  0  0  0  0  0  0
    2.8930    0.9830    0.1430 C   0  0  0  0  0  0  0  0  0  0  0  0
    4.6150   -0.4270   -0.9090 N   0  0  1  0  0  0  0  0  0  0  0  0
    5.4890   -0.3660    0.2050 C   0  0  0  0  0  0  0  0  0  0  0  0
    5.3610   -0.5750   -2.1490 C   0  0  0  0  0  0  0  0  0  0  0  0
    1.5150   -0.3510    2.7800 N   0  0  0  0  0  0  0  0  0  0  0  0
    0.5110   -0.0180    3.5800 N   0  0  0  0  0  0  0  0  0  0  0  0
   -4.0680    0.7830    0.4570 C   0  0  0  0  0  0  0  0  0  0  0  0
   -4.4510    2.1210    0.4040 C   0  0  0  0  0  0  0  0  0  0  0  0
   -5.3380    2.5450   -0.5640 C   0  0  0  0  0  0  0  0  0  0  0  0
   -5.8160    1.6070   -1.4550 C   0  0  0  0  0  0  0  0  0  0  0  0
   -5.4280    0.2720   -1.3960 C   0  0  0  0  0  0  0  0  0  0  0  0
   -4.5480   -0.1500   -0.4360 C   0  0  0  0  0  0  0  0  0  0  0  0
  1  2  1  0
  2  3  1  0
  2 29  1  0
  3  4  2  0
  3  5  1  0
  5  6  2  0
  6  7  1  0
  6 24  1  0
  7  8  1  0
  8  9  1  0
  9 10  2  0
  9 23  1  0
 10 11  1  0
 12 11  1  1
 11 22  1  0
 12 13  1  0
 12 18  1  0
 14 13  1  1
 14 15  1  0
 14 19  1  0
 15 16  2  0
 16 17  1  0
 17 18  1  1
 17 19  1  0
 19 20  1  1
 19 21  1  0
 22 23  2  0
 24 25  2  0
 24 29  1  0
 25 26  1  0
 26 27  2  0
 27 28  1  0
 28 29  2  0
M  CHG  1  19   1
M  END
