
     RDKit          3D

 29 31  0  0  0  0  0  0  0  0999 V2000
   -2.7580   -1.5880    1.8440 C   0  0  0  0  0  0  0  0  0  0  0  0
   -3.3200   -0.6770    0.7820 C   0  0  0  0  0  0  0  0  0  0  0  0
   -4.6210   -0.5640    0.8430 C   0  0  0  0  0  0  0  0  0  0  0  0
   -5.4540   -1.4970    2.1510 S   0  0  0  0  0  0  0  0  0  0  0  0
   -7.2340   -1.2240    2.0930 C   0  0  0  0  0  0  0  0  0  0  0  0
   -7.8110   -1.7450    0.9340 F   0  0  0  0  0  0  0  0  0  0  0  0
   -5.5580    0.2080    0.0060 C   0  0  0  0  0  0  0  0  0  0  0  0
   -4.9650    1.5320   -0.2760 C   0  0  0  0  0  0  0  0  0  0  0  0
   -5.7140    2.5050   -0.0360 O   0  0  0  0  0  0  0  0  0  0  0  0
   -3.6660    1.8420   -0.7810 N   0  0  0  0  0  0  0  0  0  0  0  0
   -2.4950    1.0210   -0.8110 C   0  0  0  0  0  0  0  0  0  0  0  0
   -1.3650    1.4410   -1.6760 C   0  0  2  0  0  0  0  0  0  0  0  0
   -1.7690    1.5130   -3.1360 C   0  0  0  0  0  0  0  0  0  0  0  0
   -0.1830    0.6600   -1.4520 N   0  0  0  0  0  0  0  0  0  0  0  0
    1.0380    1.2200   -0.9560 C   0  0  0  0  0  0  0  0  0  0  0  0
    1.0370    2.4500   -0.7160 O   0  0  0  0  0  0  0  0  0  0  0  0
    2.2300    0.4260   -0.7320 C   0  0  0  0  0  0  0  0  0  0  0  0
    2.2060   -0.7870   -0.9750 O   0  0  0  0  0  0  0  0  0  0  0  0
    3.3940    1.0410   -0.2430 N   0  0  0  0  0  0  0  0  0  0  0  0
    4.6310    0.4530    0.0400 C   0  0  0  0  0  0  0  0  0  0  0  0
    5.7550    1.2600    0.2870 C   0  0  0  0  0  0  0  0  0  0  0  0
    6.9810    0.7140    0.5810 C   0  0  0  0  0  0  0  0  0  0  0  0
    7.1350   -0.6540    0.6400 C   0  0  0  0  0  0  0  0  0  0  0  0
    6.0380   -1.4360    0.3980 C   0  0  0  0  0  0  0  0  0  0  0  0
    4.7900   -0.9040    0.1000 C   0  0  0  0  0  0  0  0  0  0  0  0
    6.4520   -2.7500    0.5160 O   0  0  0  0  0  0  0  0  0  0  0  0
    7.8580   -2.7480    0.3970 C   0  0  0  0  0  0  0  0  0  0  0  0
    8.2280   -1.4780    0.9070 O   0  0  0  0  0  0  0  0  0  0  0  0
   -2.3670   -0.0780   -0.1170 N   0  0  0  0  0  0  0  0  0  0  0  0
  1  2  1  0
  2  3  2  0
  2 29  1  0
  3  4  1  0
  3  7  1  0
  4  5  1  0
  5  6  1  0
  7  8  1  0
  8  9  2  0
  8 10  1  0
 10 11  1  0
 11 12  1  0
 11 29  2  0
 12 13  1  6
 12 14  1  0
 14 15  1  0
 15 16  2  0
 15 17  1  0
 17 18  2  0
 17 19  1  0
 19 20  1  0
 20 21  2  0
 20 25  1  0
 21 22  1  0
 22 23  2  0
 23 24  1  0
 23 28  1  0
 24 25  2  0
 24 26  1  0
 26 27  1  0
 27 28  1  0
M  END
