
     RDKit          3D

 29 33  0  0  0  0  0  0  0  0999 V2000
    2.8550   -0.0690   -4.1140 C   0  0  0  0  0  0  0  0  0  0  0  0
    2.0450   -0.0500   -2.9510 O   0  0  0  0  0  0  0  0  0  0  0  0
    2.6330   -0.2370   -1.7170 C   0  0  0  0  0  0  0  0  0  0  0  0
    3.9800   -0.4420   -1.5890 C   0  0  0  0  0  0  0  0  0  0  0  0
    4.5810   -0.6310   -0.3570 C   0  0  0  0  0  0  0  0  0  0  0  0
    3.7840   -0.6100    0.7620 C   0  0  0  0  0  0  0  0  0  0  0  0
    2.4080   -0.4000    0.6130 C   0  0  0  0  0  0  0  0  0  0  0  0
    1.7910   -0.2100   -0.5960 C   0  0  0  0  0  0  0  0  0  0  0  0
    0.4050    0.0050   -0.7870 N   0  0  0  0  0  0  0  0  0  0  0  0
   -0.5450    0.0550    0.2460 C   0  0  0  0  0  0  0  0  0  0  0  0
   -0.2550   -0.0880    1.4590 O   0  0  0  0  0  0  0  0  0  0  0  0
   -1.9540    0.2850   -0.0780 C   0  0  0  0  0  0  0  0  0  0  0  0
   -2.8490    0.3340    0.8750 C   0  0  0  0  0  0  0  0  0  0  0  0
   -4.2580    0.5580    0.6170 C   0  0  0  0  0  0  0  0  0  0  0  0
   -4.7970    0.7390   -0.6330 C   0  0  0  0  0  0  0  0  0  0  0  0
   -6.1320    0.9460   -0.8080 C   0  0  0  0  0  0  0  0  0  0  0  0
   -6.9750    0.9770    0.2720 C   0  0  0  0  0  0  0  0  0  0  0  0
   -6.4810    0.8000    1.5430 C   0  0  0  0  0  0  0  0  0  0  0  0
   -5.1310    0.5910    1.7140 C   0  0  0  0  0  0  0  0  0  0  0  0
   -7.5940    0.8790    2.5020 C   0  0  0  0  0  0  0  0  0  0  0  0
   -8.7060    1.0950    1.8310 C   0  0  0  0  0  0  0  0  0  0  0  0
   -8.4490    1.1790    0.3850 C   0  0  0  0  0  0  0  0  0  0  0  0
    4.5520   -0.8060    1.7980 O   0  0  0  0  0  0  0  0  0  0  0  0
    5.8100   -0.9590    1.4650 C   0  0  0  0  0  0  0  0  0  0  0  0
    6.9680   -1.1870    2.2040 C   0  0  0  0  0  0  0  0  0  0  0  0
    8.1690   -1.3050    1.5500 C   0  0  0  0  0  0  0  0  0  0  0  0
    8.2290   -1.1990    0.1720 C   0  0  0  0  0  0  0  0  0  0  0  0
    7.0830   -0.9730   -0.5590 C   0  0  0  0  0  0  0  0  0  0  0  0
    5.8610   -0.8520    0.0930 C   0  0  0  0  0  0  0  0  0  0  0  0
  1  2  1  0
  2  3  1  0
  3  4  2  0
  3  8  1  0
  4  5  1  0
  5  6  2  0
  5 29  1  0
  6  7  1  0
  6 23  1  0
  7  8  2  0
  8  9  1  0
  9 10  1  0
 10 11  2  0
 10 12  1  0
 12 13  2  3
 13 14  1  0
 14 15  2  0
 14 19  1  0
 15 16  1  0
 16 17  2  0
 17 18  1  0
 17 22  1  0
 18 19  2  0
 18 20  1  0
 20 21  2  0
 21 22  1  0
 23 24  1  0
 24 25  2  0
 24 29  1  0
 25 26  1  0
 26 27  2  0
 27 28  1  0
 28 29  2  0
M  END
