
     RDKit          3D

 29 31  0  0  0  0  0  0  0  0999 V2000
    6.3500   -0.1990   -0.5490 C   0  0  0  0  0  0  0  0  0  0  0  0
    4.9540   -0.0210   -0.0570 C   0  0  0  0  0  0  0  0  0  0  0  0
    4.2480   -1.1480    0.3910 C   0  0  0  0  0  0  0  0  0  0  0  0
    4.9050   -2.3700    0.4030 O   0  0  0  0  0  0  0  0  0  0  0  0
    4.3170   -3.5510    0.8900 C   0  0  0  0  0  0  0  0  0  0  0  0
    4.0070   -3.4150    2.2610 F   0  0  0  0  0  0  0  0  0  0  0  0
    2.9290   -0.9860    0.7960 C   0  0  0  0  0  0  0  0  0  0  0  0
    2.3300    0.2310    0.7720 C   0  0  0  0  0  0  0  0  0  0  0  0
    0.8500    0.3280    1.1160 C   0  0  0  0  0  0  0  0  0  0  0  0
    0.1200   -0.5860   -0.2670 S   0  0  0  0  0  0  0  0  0  0  0  0
   -1.6250   -0.6910   -0.2450 C   0  0  0  0  0  0  0  0  0  0  0  0
   -2.2720   -0.3870   -1.4140 N   0  0  0  0  0  0  0  0  0  0  0  0
   -3.6350   -0.5330   -1.2230 C   0  0  1  0  0  0  0  0  0  0  0  0
   -3.7530   -1.0100    0.2420 C   0  0  0  0  0  0  0  0  0  0  0  0
   -2.5870   -1.0520    0.6570 N   0  0  0  0  0  0  0  0  0  0  0  0
   -5.1010   -1.3120    0.6050 N   0  0  0  0  0  0  0  0  0  0  0  0
   -5.3030   -2.2300    1.6830 C   0  0  0  0  0  0  0  0  0  0  0  0
   -6.1110   -0.6690   -0.1540 C   0  0  0  0  0  0  0  0  0  0  0  0
   -7.3050   -0.9580    0.1950 O   0  0  0  0  0  0  0  0  0  0  0  0
   -5.8470    0.2190   -1.1890 O   0  0  0  0  0  0  0  0  0  0  0  0
   -4.4900    0.7220   -1.2070 C   0  0  2  0  0  0  0  0  0  0  0  0
   -4.2480    1.6160   -2.3590 C   0  0  0  0  0  0  0  0  0  0  0  0
   -4.3170    1.4490    0.1280 C   0  0  0  0  0  0  0  0  0  0  0  0
    2.9820    1.3470    0.3650 C   0  0  0  0  0  0  0  0  0  0  0  0
    2.4060    2.6050    0.3540 O   0  0  0  0  0  0  0  0  0  0  0  0
    4.3240    1.2030   -0.0670 C   0  0  0  0  0  0  0  0  0  0  0  0
    4.9540    2.3750   -0.5760 C   0  0  0  0  0  0  0  0  0  0  0  0
    4.4290    3.6540   -0.6910 N   0  0  0  0  0  0  0  0  0  0  0  0
    6.1640    2.2150   -0.9910 O   0  0  0  0  0  0  0  0  0  0  0  0
  1  2  1  0
  2  3  2  0
  2 26  1  0
  3  4  1  0
  3  7  1  0
  4  5  1  0
  5  6  1  0
  7  8  2  0
  8  9  1  0
  8 24  1  0
  9 10  1  0
 10 11  1  0
 11 12  2  0
 11 15  1  0
 13 12  1  1
 13 14  1  0
 13 21  1  0
 14 15  2  0
 14 16  1  0
 16 17  1  0
 16 18  1  0
 18 19  2  0
 18 20  1  0
 20 21  1  0
 21 22  1  6
 21 23  1  0
 24 25  1  0
 24 26  2  0
 26 27  1  0
 27 28  1  0
 27 29  2  0
M  END
