
     RDKit          3D

 29 31  0  0  0  0  0  0  0  0999 V2000
    7.7930    3.0480    1.0220 N   0  0  0  0  0  0  0  0  0  0  0  0
    7.8340    1.8490    0.6000 C   0  0  0  0  0  0  0  0  0  0  0  0
    9.0520    1.1490    0.4100 O   0  0  0  0  0  0  0  0  0  0  0  0
    9.1680    0.2980   -0.7760 C   0  0  0  0  0  0  0  0  0  0  0  0
    8.2740   -0.8500   -0.3380 C   0  0  0  0  0  0  0  0  0  0  0  0
    6.9140   -0.3040   -0.2880 C   0  0  0  0  0  0  0  0  0  0  0  0
    5.3530   -0.8790   -0.5730 S   0  0  0  0  0  0  0  0  0  0  0  0
    4.4180    0.4500   -0.0700 C   0  0  0  0  0  0  0  0  0  0  0  0
    2.9360    0.4370    0.1000 N   0  0  0  0  0  0  0  0  0  0  0  0
    2.2900   -0.7210   -0.5260 C   0  0  0  0  0  0  0  0  0  0  0  0
    2.9450   -1.4240   -1.2160 O   0  0  0  0  0  0  0  0  0  0  0  0
    0.8970   -0.8630   -0.1630 C   0  0  0  0  0  0  0  0  0  0  0  0
    0.3930   -0.2260    0.9510 O   0  0  0  0  0  0  0  0  0  0  0  0
   -0.2080   -1.6310   -0.7240 N   0  0  0  0  0  0  0  0  0  0  0  0
   -1.3610   -1.5750    0.0690 C   0  0  0  0  0  0  0  0  0  0  0  0
   -1.8460   -0.0310   -0.2640 C   0  0  0  0  0  0  0  0  0  0  0  0
   -2.9040   -0.0210    0.6570 O   0  0  0  0  0  0  0  0  0  0  0  0
   -4.0620    0.2750    0.4930 N   0  0  0  0  0  0  0  0  0  0  0  0
   -5.2510   -0.0660    0.1420 C   0  0  0  0  0  0  0  0  0  0  0  0
   -5.4520   -1.5190   -0.3600 C   0  0  0  0  0  0  0  0  0  0  0  0
   -6.6630   -2.1650    0.2230 C   0  0  0  0  0  0  0  0  0  0  0  0
   -7.5820   -1.3410    1.0250 C   0  0  0  0  0  0  0  0  0  0  0  0
   -7.4500    0.0530    1.0800 O   0  0  0  0  0  0  0  0  0  0  0  0
   -6.3200    0.7040    0.5610 C   0  0  0  0  0  0  0  0  0  0  0  0
   -6.3520    2.0200    0.5010 C   0  0  0  0  0  0  0  0  0  0  0  0
   -5.1770    2.7470   -0.2050 C   0  0  0  0  0  0  0  0  0  0  0  0
   -5.8380    3.8250   -0.9840 F   0  0  0  0  0  0  0  0  0  0  0  0
    5.3050    1.4180    0.3400 C   0  0  0  0  0  0  0  0  0  0  0  0
    6.6000    1.0640    0.2520 C   0  0  0  0  0  0  0  0  0  0  0  0
  1  2  2  0
  2  3  1  0
  2 29  1  0
  3  4  1  0
  4  5  1  0
  5  6  1  0
  6  7  1  0
  6 29  2  0
  7  8  1  0
  8  9  1  0
  8 28  2  0
  9 10  1  0
 10 11  2  0
 10 12  1  0
 12 13  2  0
 12 14  1  0
 14 15  1  0
 15 16  1  0
 16 17  1  0
 17 18  1  0
 18 19  2  3
 19 20  1  0
 19 24  1  0
 20 21  1  0
 21 22  1  0
 22 23  1  0
 23 24  1  0
 24 25  2  3
 25 26  1  0
 26 27  1  0
 28 29  1  0
M  END
