
     RDKit          3D

 28 30  0  0  0  0  0  0  0  0999 V2000
    7.4030   -2.8330   -0.6610 C   0  0  0  0  0  0  0  0  0  0  0  0
    7.4820   -1.4120   -0.6360 O   0  0  0  0  0  0  0  0  0  0  0  0
    6.3150   -0.6780   -0.4970 C   0  0  0  0  0  0  0  0  0  0  0  0
    5.0750   -1.2550   -0.3800 C   0  0  0  0  0  0  0  0  0  0  0  0
    3.9040   -0.4910   -0.2390 C   0  0  0  0  0  0  0  0  0  0  0  0
    2.6870   -1.1640   -0.1340 N   0  0  0  0  0  0  0  0  0  0  0  0
    1.4160   -0.6200    0.1340 C   0  0  0  0  0  0  0  0  0  0  0  0
    1.3060    0.6120    0.3110 O   0  0  0  0  0  0  0  0  0  0  0  0
    0.2400   -1.4500    0.2090 N   0  0  0  0  0  0  0  0  0  0  0  0
   -1.0020   -0.7980    0.4870 N   0  0  0  0  0  0  0  0  0  0  0  0
   -1.1590   -0.0820    1.6660 C   0  0  0  0  0  0  0  0  0  0  0  0
   -0.1310   -0.0500    2.4530 O   0  0  0  0  0  0  0  0  0  0  0  0
   -2.3360    0.6060    2.0690 C   0  0  0  0  0  0  0  0  0  0  0  0
   -3.5040    0.7460    1.5240 C   0  0  0  0  0  0  0  0  0  0  0  0
   -4.7180    1.7520    2.4470 S   0  0  0  0  0  0  0  0  0  0  0  0
   -6.2530    1.9290    1.5510 C   0  0  0  0  0  0  0  0  0  0  0  0
   -3.9190    0.1950    0.2980 N   0  0  0  0  0  0  0  0  0  0  0  0
   -3.7610    1.0210   -0.8970 C   0  0  0  0  0  0  0  0  0  0  0  0
   -4.4080    0.3400   -2.0900 C   0  0  0  0  0  0  0  0  0  0  0  0
   -5.7850   -0.1700   -1.7510 C   0  0  0  0  0  0  0  0  0  0  0  0
   -5.8710   -0.9700   -0.4960 C   0  0  0  0  0  0  0  0  0  0  0  0
   -4.5150   -1.1150    0.1320 C   0  0  0  0  0  0  0  0  0  0  0  0
    4.0590    0.8630   -0.2240 C   0  0  0  0  0  0  0  0  0  0  0  0
    5.3060    1.4960   -0.3400 C   0  0  0  0  0  0  0  0  0  0  0  0
    6.4190    0.7020   -0.4750 C   0  0  0  0  0  0  0  0  0  0  0  0
    7.5120    1.5470   -0.5700 O   0  0  0  0  0  0  0  0  0  0  0  0
    7.0810    2.8480   -0.1470 C   0  0  0  0  0  0  0  0  0  0  0  0
    5.6800    2.8340   -0.3480 O   0  0  0  0  0  0  0  0  0  0  0  0
  1  2  1  0
  2  3  1  0
  3  4  2  0
  3 25  1  0
  4  5  1  0
  5  6  1  0
  5 23  2  0
  6  7  1  0
  7  8  2  0
  7  9  1  0
  9 10  1  0
 10 11  1  0
 11 12  2  0
 11 13  1  0
 13 14  2  3
 14 15  1  0
 14 17  1  0
 15 16  1  0
 17 18  1  0
 17 22  1  0
 18 19  1  0
 19 20  1  0
 20 21  1  0
 21 22  1  0
 23 24  1  0
 24 25  2  0
 24 28  1  0
 25 26  1  0
 26 27  1  0
 27 28  1  0
M  END
