
     RDKit          3D

 13 14  0  0  0  0  0  0  0  0999 V2000
   -1.2450   -1.8740    0.8470 C   0  0  0  0  0  0  0  0  0  0  0  0
   -0.9720   -0.4650    0.3710 C   0  0  0  0  0  0  0  0  0  0  0  0
   -1.6670    0.4830    0.9560 C   0  0  0  0  0  0  0  0  0  0  0  0
   -1.3200    2.2070    0.3590 P   0  0  0  0  0  0  0  0  0  0  0  0
   -2.8050    3.0700    0.1180 O   0  0  0  0  0  0  0  0  0  0  0  0
   -0.6310    1.9500   -1.2380 O   0  0  0  0  0  0  0  0  0  0  0  0
    0.3930    1.0600   -1.0810 C   0  0  1  0  0  0  0  0  0  0  0  0
    1.3110    1.4190   -0.0370 O   0  0  0  0  0  0  0  0  0  0  0  0
    2.0090    0.2460    0.2270 C   0  0  0  0  0  0  0  0  0  0  0  0
    3.3120    0.2340    0.8110 N   0  0  0  0  0  0  0  0  0  0  0  0
    1.3290   -0.8110   -0.1230 C   0  0  0  0  0  0  0  0  0  0  0  0
    0.0340   -0.3260   -0.6830 C   0  0  1  0  0  0  0  0  0  0  0  0
   -0.3710   -1.1140   -1.8290 N   0  0  0  0  0  0  0  0  0  0  0  0
  1  2  1  0
  2  3  2  0
  2 12  1  0
  3  4  1  0
  4  5  1  0
  4  6  1  0
  7  6  1  1
  7  8  1  0
  7 12  1  0
  8  9  1  0
  9 10  1  0
  9 11  2  0
 11 12  1  0
 12 13  1  6
M  END
