
     RDKit          3D

 13 13  0  0  0  0  0  0  0  0999 V2000
   -1.4140   -0.5930   -1.3630 C   0  0  0  0  0  0  0  0  0  0  0  0
   -0.8470    0.2340   -0.5380 C   0  0  0  0  0  0  0  0  0  0  0  0
   -1.6370    1.1960    0.1470 N   0  0  0  0  0  0  0  0  0  0  0  0
   -2.6340    0.8620    0.8670 C   0  0  0  0  0  0  0  0  0  0  0  0
   -3.4960    1.7940    1.6050 C   0  0  0  0  0  0  0  0  0  0  0  0
    0.5960    0.1660   -0.2870 C   0  0  0  0  0  0  0  0  0  0  0  0
    1.1690    1.3980   -0.1970 N   0  0  0  0  0  0  0  0  0  0  0  0
    2.4050    1.6450    0.0290 O   0  0  0  0  0  0  0  0  0  0  0  0
    3.4210    0.3440    0.2340 P   0  0  0  0  0  0  0  0  0  0  0  0
    5.1360    0.3920    0.3630 O   0  0  0  0  0  0  0  0  0  0  0  0
    2.6040   -1.1310    0.1020 N   0  0  0  0  0  0  0  0  0  0  0  0
    1.2690   -1.0130   -0.1470 C   0  0  0  0  0  0  0  0  0  0  0  0
    0.5410   -2.3350   -0.2170 C   0  0  0  0  0  0  0  0  0  0  0  0
  1  2  2  0
  2  3  1  0
  2  6  1  0
  3  4  2  3
  4  5  1  0
  6  7  1  0
  6 12  2  0
  7  8  1  0
  8  9  1  0
  9 10  1  0
  9 11  1  0
 11 12  1  0
 12 13  1  0
M  END
