
     RDKit          3D

 13 13  0  0  0  0  0  0  0  0999 V2000
    4.8630    0.0980    0.5640 C   0  0  0  0  0  0  0  0  0  0  0  0
    3.9890   -0.8110    0.7470 N   0  0  0  0  0  0  0  0  0  0  0  0
    2.6060   -0.6100    0.6470 C   0  0  0  0  0  0  0  0  0  0  0  0
    1.7560   -0.7850    1.5600 N   0  0  0  0  0  0  0  0  0  0  0  0
    0.4330   -0.6080    1.5150 O   0  0  0  0  0  0  0  0  0  0  0  0
   -0.3230   -0.1930    0.4690 C   0  0  0  0  0  0  0  0  0  0  0  0
   -1.7880   -0.0720    0.6630 C   0  0  0  0  0  0  0  0  0  0  0  0
   -2.3650   -0.3530    1.8110 C   0  0  0  0  0  0  0  0  0  0  0  0
   -2.6010    0.3600   -0.4150 N   0  0  0  0  0  0  0  0  0  0  0  0
   -3.7560   -0.4560   -0.7580 C   0  0  0  0  0  0  0  0  0  0  0  0
    0.1780    0.1050   -0.7050 C   0  0  0  0  0  0  0  0  0  0  0  0
    1.9830   -0.0340   -0.9790 P   0  0  0  0  0  0  0  0  0  0  0  0
    2.6930    1.4500   -1.4650 O   0  0  0  0  0  0  0  0  0  0  0  0
  1  2  2  0
  2  3  1  0
  3  4  2  0
  3 12  1  0
  4  5  1  0
  5  6  1  0
  6  7  1  0
  6 11  2  0
  7  8  2  0
  7  9  1  0
  9 10  1  0
 11 12  1  0
 12 13  1  0
M  END
