
     RDKit          3D

 13 14  0  0  0  0  0  0  0  0999 V2000
    3.4960   -0.1530    1.3440 C   0  0  0  0  0  0  0  0  0  0  0  0
    2.4110   -0.1320    0.2910 C   0  0  0  0  0  0  0  0  0  0  0  0
    1.4150   -1.0720    0.5780 O   0  0  0  0  0  0  0  0  0  0  0  0
    0.4820   -0.9980   -0.3990 N   0  0  0  0  0  0  0  0  0  0  0  0
    0.5950   -1.7130   -1.5680 N   0  0  0  0  0  0  0  0  0  0  0  0
   -0.0790   -1.2320   -2.6020 O   0  0  0  0  0  0  0  0  0  0  0  0
   -1.4300   -0.9960   -2.3520 C   0  0  0  0  0  0  0  0  0  0  0  0
   -1.5550   -0.0000   -1.3070 N   0  0  0  0  0  0  0  0  0  0  0  0
   -2.3610    1.1600   -1.0330 C   0  0  0  0  0  0  0  0  0  0  0  0
   -2.3430    1.2750    0.4540 C   0  0  0  0  0  0  0  0  0  0  0  0
   -1.0840    0.5800    0.8270 C   0  0  0  0  0  0  0  0  0  0  0  0
   -0.3450    0.6250    2.1180 C   0  0  0  0  0  0  0  0  0  0  0  0
   -0.6500   -0.1450   -0.1940 C   0  0  0  0  0  0  0  0  0  0  0  0
  1  2  1  0
  2  3  1  0
  3  4  1  0
  4  5  1  0
  4 13  1  0
  5  6  1  0
  6  7  1  0
  7  8  1  0
  8  9  1  0
  8 13  1  0
  9 10  1  0
 10 11  1  0
 11 12  1  0
 11 13  2  0
M  END
