
     RDKit          3D

 11 10  0  0  0  0  0  0  0  0999 V2000
    2.1450   -1.3660   -0.9720 O   0  0  0  0  0  0  0  0  0  0  0  0
    2.5880   -0.3500   -0.3800 C   0  0  0  0  0  0  0  0  0  0  0  0
    3.8980   -0.4160    0.1000 O   0  0  0  0  0  0  0  0  0  0  0  0
    1.7840    0.7420   -0.2420 O   0  0  0  0  0  0  0  0  0  0  0  0
    0.4750    0.9120   -0.6590 C   0  0  0  0  0  0  0  0  0  0  0  0
   -0.6130    0.1680   -0.0180 C   0  0  2  0  0  0  0  0  0  0  0  0
   -0.6150   -1.3220   -0.0520 C   0  0  0  0  0  0  0  0  0  0  0  0
   -1.8690   -1.6790    0.5550 O   0  0  0  0  0  0  0  0  0  0  0  0
   -1.8120    0.5370   -0.7100 O   0  0  0  0  0  0  0  0  0  0  0  0
   -2.6510    1.1020    0.1200 O   0  0  0  0  0  0  0  0  0  0  0  0
   -2.1730    2.2900    0.4320 O   0  0  0  0  0  0  0  0  0  0  0  0
  1  2  2  0
  2  3  1  0
  2  4  1  0
  4  5  1  0
  6  5  1  6
  6  7  1  0
  6  9  1  0
  7  8  1  0
  9 10  1  0
 10 11  1  0
M  END
