
     RDKit          3D

 28 32  0  0  0  0  0  0  0  0999 V2000
    6.7030   -1.2660   -0.8740 N   0  0  0  0  0  0  0  0  0  0  0  0
    5.8620   -0.1930   -0.4690 C   0  0  0  0  0  0  0  0  0  0  0  0
    4.5470   -0.3640   -0.5720 N   0  0  0  0  0  0  0  0  0  0  0  0
    3.6890    0.6040   -0.2100 C   0  0  0  0  0  0  0  0  0  0  0  0
    4.2060    1.7940    0.2770 C   0  0  0  0  0  0  0  0  0  0  0  0
    3.1600    2.5670    0.5570 N   0  0  0  0  0  0  0  0  0  0  0  0
    2.0340    1.9110    0.2670 C   0  0  0  0  0  0  0  0  0  0  0  0
    2.3320    0.7080   -0.2040 N   0  0  0  0  0  0  0  0  0  0  0  0
    1.4880   -0.3760   -0.6570 C   0  0  2  0  0  0  0  0  0  0  0  0
    0.2090    0.0590   -1.0000 O   0  0  0  0  0  0  0  0  0  0  0  0
   -0.5760   -1.0650   -1.0390 C   0  0  2  0  0  0  0  0  0  0  0  0
   -2.0340   -0.7710   -0.7300 C   0  0  0  0  0  0  0  0  0  0  0  0
   -2.0760   -0.2370    0.5270 O   0  0  0  0  0  0  0  0  0  0  0  0
   -3.5630    0.1670    1.0910 P   0  0  0  0  0  0  0  0  0  0  0  0
   -3.4240    1.6830    1.2570 O   0  0  0  0  0  0  0  0  0  0  0  0
   -4.4170   -0.9050    0.3610 O   0  0  0  0  0  0  0  0  0  0  0  0
   -4.5520    0.8280    0.1770 O   0  0  1  0  0  0  0  0  0  0  0  0
   -5.9250    1.3210   -0.1590 P   0  0  0  0  0  0  0  0  0  0  0  0
   -6.0190    2.8270   -0.8170 O   0  0  0  0  0  0  0  0  0  0  0  0
   -6.1160    1.4920    1.3830 O   0  0  0  0  0  0  0  0  0  0  0  0
   -7.1790    0.3110   -0.5250 O   0  0  0  0  0  0  0  0  0  0  0  0
   -0.0330   -2.0620   -0.0710 C   0  0  1  0  0  0  0  0  0  0  0  0
    0.5050   -3.1830   -0.7310 O   0  0  0  0  0  0  0  0  0  0  0  0
    1.1650   -1.3140    0.5130 C   0  0  1  0  0  0  0  0  0  0  0  0
    2.2130   -2.1550    0.8000 O   0  0  0  0  0  0  0  0  0  0  0  0
    5.5700    1.9630    0.3800 C   0  0  0  0  0  0  0  0  0  0  0  0
    6.0350    3.0310    0.8170 O   0  0  0  0  0  0  0  0  0  0  0  0
    6.3820    0.9610    0.0030 N   0  0  0  0  0  0  0  0  0  0  0  0
  1  2  1  0
  2  3  1  0
  2 28  2  0
  3  4  1  0
  4  5  2  0
  4  8  1  0
  5  6  1  0
  5 26  1  0
  6  7  2  0
  7  8  1  0
  9  8  1  1
  9 10  1  0
  9 24  1  0
 10 11  1  0
 11 12  1  1
 11 22  1  0
 12 13  1  0
 13 14  1  0
 14 15  1  0
 14 16  1  0
 14 17  1  0
 17 18  1  1
 18 19  1  0
 18 20  1  0
 18 21  1  0
 22 23  1  6
 22 24  1  0
 24 25  1  6
 26 27  2  0
 26 28  1  0
 17 16  1  0
 17 15  1  0
M  CHG  1  28   1
M  END
