
     RDKit          3D

 13 14  0  0  0  0  0  0  0  0999 V2000
   -1.6550   -1.3620   -0.7790 C   0  0  0  0  0  0  0  0  0  0  0  0
   -1.1170   -0.2510    0.1560 C   0  0  2  0  0  0  0  0  0  0  0  0
   -2.2110    0.7750    0.3220 C   0  0  0  0  0  0  0  0  0  0  0  0
   -2.2690    1.2900   -1.1010 C   0  0  0  0  0  0  0  0  0  0  0  0
   -1.0650    1.1770   -1.6420 C   0  0  0  0  0  0  0  0  0  0  0  0
   -0.1530    0.5890   -0.6150 C   0  0  0  0  0  0  0  0  0  0  0  0
    1.0550    0.8090   -0.3980 N   0  0  0  0  0  0  0  0  0  0  0  0
    1.8610    0.3500    0.6290 N   0  0  0  0  0  0  0  0  0  0  0  0
    3.2680    0.6690    0.7770 C   0  0  0  0  0  0  0  0  0  0  0  0
    4.0510    0.2330   -0.3520 N   0  0  0  0  0  0  0  0  0  0  0  0
    0.9350   -0.7110    1.7820 P   0  0  0  0  0  0  0  0  0  0  0  0
   -0.6500   -0.8910    1.3350 C   0  0  0  0  0  0  0  0  0  0  0  0
   -1.5010   -1.6610    2.1100 O   0  0  0  0  0  0  0  0  0  0  0  0
  2  1  1  6
  2  3  1  0
  2  6  1  0
  2 12  1  0
  3  4  1  0
  4  5  2  0
  5  6  1  0
  6  7  2  0
  7  8  1  0
  8  9  1  0
  8 11  1  0
  9 10  1  0
 11 12  2  0
 12 13  1  0
M  END
