
     RDKit          3D

 11 10  0  0  0  0  0  0  0  0999 V2000
   -3.1500   -0.3390    1.4580 O   0  0  0  0  0  0  0  0  0  0  0  0
   -2.3550    0.2670    0.6980 C   0  0  0  0  0  0  0  0  0  0  0  0
   -2.4450    1.6380    0.5670 O   0  0  0  0  0  0  0  0  0  0  0  0
   -1.3160   -0.4920   -0.0590 C   0  0  2  0  0  0  0  0  0  0  0  0
   -1.4050   -1.8520    0.2220 O   0  0  0  0  0  0  0  0  0  0  0  0
   -1.5890   -2.5160   -0.8750 O   0  0  0  0  0  0  0  0  0  0  0  0
   -0.0560   -0.0740    0.3680 O   0  0  0  0  0  0  0  0  0  0  0  0
    0.6690    0.4580   -0.7060 C   0  0  0  0  0  0  0  0  0  0  0  0
    2.0300    0.8880   -0.1530 C   0  0  0  0  0  0  0  0  0  0  0  0
    2.6940   -0.1890    0.3840 O   0  0  0  0  0  0  0  0  0  0  0  0
    3.8520    0.2100    0.8490 O   0  0  0  0  0  0  0  0  0  0  0  0
  1  2  2  0
  2  3  1  0
  2  4  1  0
  4  5  1  1
  4  7  1  0
  5  6  1  0
  7  8  1  0
  8  9  1  0
  9 10  1  0
 10 11  1  0
M  END
