
     RDKit          3D

 11 11  0  0  0  0  0  0  0  0999 V2000
    3.8610   -0.6710   -0.1300 C   0  0  0  0  0  0  0  0  0  0  0  0
    2.4630   -0.1160    0.0060 C   0  0  0  0  0  0  0  0  0  0  0  0
    1.2210   -1.2570   -0.6310 S   0  0  0  0  0  0  0  0  0  0  0  0
   -0.3860   -0.4840   -0.4120 C   0  0  0  0  0  0  0  0  0  0  0  0
   -0.5280    0.7680    0.1570 C   0  0  0  0  0  0  0  0  0  0  0  0
   -1.8010    1.3040    0.2950 C   0  0  0  0  0  0  0  0  0  0  0  0
   -2.9010    0.5970   -0.1280 C   0  0  0  0  0  0  0  0  0  0  0  0
   -4.2110    1.0970   -0.0100 O   0  0  0  0  0  0  0  0  0  0  0  0
   -2.7070   -0.6470   -0.6880 C   0  0  0  0  0  0  0  0  0  0  0  0
   -1.4760   -1.1880   -0.8330 N   0  0  0  0  0  0  0  0  0  0  0  0
   -1.3250   -2.4370   -1.3990 O   0  0  0  0  0  0  0  0  0  0  0  0
  1  2  1  0
  2  3  1  0
  3  4  1  0
  4  5  2  0
  4 10  1  0
  5  6  1  0
  6  7  2  0
  7  8  1  0
  7  9  1  0
  9 10  2  0
 10 11  1  0
M  CHG  2  10   1  11  -1
M  END
