
     RDKit          3D

 16 17  0  0  0  0  0  0  0  0999 V2000
    2.8090    0.3430    0.4020 C   0  0  0  0  0  0  0  0  0  0  0  0
    1.6420   -0.6240    0.3780 C   0  0  0  0  0  0  0  0  0  0  0  0
    0.3590    0.1060    0.1760 C   0  0  2  0  0  0  0  0  0  0  0  0
    0.2270    1.0080    1.2630 O   0  0  0  0  0  0  0  0  0  0  0  0
   -0.8660    1.8500    1.4050 C   0  0  0  0  0  0  0  0  0  0  0  0
   -0.7980    3.0250    1.8560 O   0  0  0  0  0  0  0  0  0  0  0  0
   -2.1070    1.2840    0.9960 N   0  0  0  0  0  0  0  0  0  0  0  0
   -2.0460   -0.0490    0.5060 C   0  0  0  0  0  0  0  0  0  0  0  0
   -3.0930   -0.7780    0.6390 O   0  0  0  0  0  0  0  0  0  0  0  0
   -0.8420   -0.6390   -0.1470 C   0  0  2  0  0  0  0  0  0  0  0  0
   -0.8820   -2.1070    0.0720 C   0  0  0  0  0  0  0  0  0  0  0  0
   -1.0820   -0.4180   -1.6240 C   0  0  0  0  0  0  0  0  0  0  0  0
   -1.8970   -1.0960   -2.3170 O   0  0  0  0  0  0  0  0  0  0  0  0
   -0.2730    0.6310   -2.0780 N   0  0  0  0  0  0  0  0  0  0  0  0
    0.5730    1.0000   -1.0250 C   0  0  0  0  0  0  0  0  0  0  0  0
    1.4010    1.9410   -1.0620 O   0  0  0  0  0  0  0  0  0  0  0  0
  1  2  1  0
  3  2  1  1
  3  4  1  0
  3 10  1  0
  3 15  1  0
  4  5  1  0
  5  6  2  0
  5  7  1  0
  7  8  1  0
  8  9  2  0
  8 10  1  0
 10 11  1  6
 10 12  1  0
 12 13  2  0
 12 14  1  0
 14 15  1  0
 15 16  2  0
M  END
