
     RDKit          3D

 16 17  0  0  0  0  0  0  0  0999 V2000
   -1.2960   -3.4680   -0.9280 O   0  0  0  0  0  0  0  0  0  0  0  0
   -0.6870   -2.3720   -0.7480 C   0  0  0  0  0  0  0  0  0  0  0  0
   -1.4130   -1.0650   -0.8900 C   0  0  0  0  0  0  0  0  0  0  0  0
   -2.2100   -0.7820    0.2830 N   0  0  0  0  0  0  0  0  0  0  0  0
   -1.8800    0.1900    1.2630 C   0  0  0  0  0  0  0  0  0  0  0  0
   -2.1950   -0.0920    2.4500 O   0  0  0  0  0  0  0  0  0  0  0  0
   -1.2630    1.3780    1.0110 O   0  0  0  0  0  0  0  0  0  0  0  0
   -1.4600    2.2470   -0.0540 C   0  0  0  0  0  0  0  0  0  0  0  0
   -0.1420    2.7820   -0.4820 C   0  0  0  0  0  0  0  0  0  0  0  0
   -0.0030    4.0080   -0.8030 O   0  0  0  0  0  0  0  0  0  0  0  0
    0.9820    1.9860   -0.5500 O   0  0  0  0  0  0  0  0  0  0  0  0
    1.3830    1.0170    0.3680 C   0  0  2  0  0  0  0  0  0  0  0  0
    2.8260    0.5950    0.2630 C   0  0  0  0  0  0  0  0  0  0  0  0
    1.6770   -0.2610   -0.2830 C   0  0  1  0  0  0  0  0  0  0  0  0
    1.2880   -1.4760    0.5310 C   0  0  0  0  0  0  0  0  0  0  0  0
    0.6840   -2.4310   -0.4110 N   0  0  0  0  0  0  0  0  0  0  0  0
  1  2  2  0
  2  3  1  0
  2 16  1  0
  3  4  1  0
  4  5  1  0
  5  6  2  0
  5  7  1  0
  7  8  1  0
  8  9  1  0
  9 10  2  0
  9 11  1  0
 11 12  1  0
 12 13  1  6
 12 14  1  0
 14 13  1  1
 14 15  1  0
 15 16  1  0
M  END
