
     RDKit          3D

 16 17  0  0  0  0  0  0  0  0999 V2000
   -0.4640   -1.2560    1.1520 O   0  0  0  0  0  0  0  0  0  0  0  0
    0.0160   -0.2020    0.6610 C   0  0  0  0  0  0  0  0  0  0  0  0
    1.4830    0.1040    0.6810 C   0  0  0  0  0  0  0  0  0  0  0  0
    2.2760   -0.9710    1.3410 C   0  0  2  0  0  0  0  0  0  0  0  0
    3.7380   -0.5460    1.2990 C   0  0  0  0  0  0  0  0  0  0  0  0
    4.1060   -0.9780    0.0020 O   0  0  0  0  0  0  0  0  0  0  0  0
    3.3900   -2.1320   -0.2810 C   0  0  0  0  0  0  0  0  0  0  0  0
    3.6250   -3.0200   -1.1460 O   0  0  0  0  0  0  0  0  0  0  0  0
    2.2620   -2.1960    0.6030 N   0  0  0  0  0  0  0  0  0  0  0  0
   -0.8930    0.7120    0.0710 N   0  0  0  0  0  0  0  0  0  0  0  0
   -2.3190    0.5160   -0.0020 C   0  0  2  0  0  0  0  0  0  0  0  0
   -2.8350    0.4390   -1.4150 C   0  0  0  0  0  0  0  0  0  0  0  0
   -3.5230    1.7860   -1.5460 C   0  0  0  0  0  0  0  0  0  0  0  0
   -3.9870    2.0730   -0.2490 O   0  0  0  0  0  0  0  0  0  0  0  0
   -3.0950    1.5580    0.6640 C   0  0  0  0  0  0  0  0  0  0  0  0
   -2.9850    1.9260    1.8470 O   0  0  0  0  0  0  0  0  0  0  0  0
  1  2  2  0
  2  3  1  0
  2 10  1  0
  4  3  1  6
  4  5  1  0
  4  9  1  0
  5  6  1  0
  6  7  1  0
  7  8  2  0
  7  9  1  0
 11 10  1  6
 11 12  1  0
 11 15  1  0
 12 13  1  0
 13 14  1  0
 14 15  1  0
 15 16  2  0
M  END
