
     RDKit          3D

 16 16  0  0  0  0  0  0  0  0999 V2000
   -4.1990   -0.8910   -0.3170 C   0  0  0  0  0  0  0  0  0  0  0  0
   -2.9750   -0.2030    0.2700 C   0  0  2  0  0  0  0  0  0  0  0  0
   -3.1960    1.3140    0.3120 C   0  0  0  0  0  0  0  0  0  0  0  0
   -1.9420    1.9210    0.7200 N   0  0  0  0  0  0  0  0  0  0  0  0
   -0.7140    1.2400    0.4590 C   0  0  0  0  0  0  0  0  0  0  0  0
    0.3570    1.9260    0.4350 O   0  0  0  0  0  0  0  0  0  0  0  0
   -0.7070   -0.2250    0.2250 C   0  0  2  0  0  0  0  0  0  0  0  0
    0.4890   -0.6610   -0.5480 C   0  0  0  0  0  0  0  0  0  0  0  0
    0.3730   -1.2140   -1.6670 O   0  0  0  0  0  0  0  0  0  0  0  0
    1.7490   -0.4640   -0.0470 O   0  0  0  0  0  0  0  0  0  0  0  0
    2.9470   -0.8320   -0.6820 C   0  0  2  0  0  0  0  0  0  0  0  0
    3.6770   -1.8370    0.1650 C   0  0  0  0  0  0  0  0  0  0  0  0
    3.7960    0.3490   -0.9950 C   0  0  0  0  0  0  0  0  0  0  0  0
    3.3340    1.6330   -0.6410 N   0  0  0  0  0  0  0  0  0  0  0  0
    4.8990    0.1960   -1.5620 O   0  0  0  0  0  0  0  0  0  0  0  0
   -1.8610   -0.5330   -0.4910 O   0  0  0  0  0  0  0  0  0  0  0  0
  2  1  1  6
  2  3  1  0
  2 16  1  0
  3  4  1  0
  4  5  1  0
  5  6  2  0
  5  7  1  0
  7  8  1  6
  7 16  1  0
  8  9  2  0
  8 10  1  0
 10 11  1  0
 11 12  1  1
 11 13  1  0
 13 14  1  0
 13 15  2  0
M  END
