
     RDKit          3D

 15 16  0  0  0  0  0  0  0  0999 V2000
   -4.2340    1.1200   -0.5470 C   0  0  0  0  0  0  0  0  0  0  0  0
   -3.4540    0.0110   -0.8830 O   0  0  0  0  0  0  0  0  0  0  0  0
   -2.1370   -0.1510   -0.5070 C   0  0  0  0  0  0  0  0  0  0  0  0
   -1.4730    0.7840    0.2410 C   0  0  0  0  0  0  0  0  0  0  0  0
   -0.1490    0.5710    0.5910 C   0  0  0  0  0  0  0  0  0  0  0  0
    0.4820   -0.5820    0.1800 C   0  0  0  0  0  0  0  0  0  0  0  0
    1.7790   -1.0730    0.3700 C   0  0  0  0  0  0  0  0  0  0  0  0
    2.7830   -0.2940    1.1200 C   0  0  0  0  0  0  0  0  0  0  0  0
    3.4340    0.7350    0.2950 C   0  0  0  0  0  0  0  0  0  0  0  0
    4.3350    0.3840   -0.5330 O   0  0  0  0  0  0  0  0  0  0  0  0
    3.1020    2.0630    0.3740 O   0  0  0  0  0  0  0  0  0  0  0  0
    1.8000   -2.2710   -0.2810 C   0  0  0  0  0  0  0  0  0  0  0  0
    0.6130   -2.5050   -0.8290 O   0  0  0  0  0  0  0  0  0  0  0  0
   -0.2000   -1.5040   -0.5690 C   0  0  0  0  0  0  0  0  0  0  0  0
   -1.5280   -1.3430   -0.9480 C   0  0  0  0  0  0  0  0  0  0  0  0
  1  2  1  0
  2  3  1  0
  3  4  2  0
  3 15  1  0
  4  5  1  0
  5  6  2  0
  6  7  1  0
  6 14  1  0
  7  8  1  0
  7 12  2  0
  8  9  1  0
  9 10  2  0
  9 11  1  0
 12 13  1  0
 13 14  1  0
 14 15  2  0
M  END
