
     RDKit          3D

 16 16  0  0  0  0  0  0  0  0999 V2000
   -3.5610    1.3900   -0.5430 C   0  0  0  0  0  0  0  0  0  0  0  0
   -2.8210    0.3900    0.3500 C   0  0  2  0  0  0  0  0  0  0  0  0
   -1.5690    0.1620   -0.2300 O   0  0  0  0  0  0  0  0  0  0  0  0
   -0.3610    0.4260    0.3950 C   0  0  0  0  0  0  0  0  0  0  0  0
   -0.4000    0.9000    1.5570 O   0  0  0  0  0  0  0  0  0  0  0  0
    0.8930    0.1510   -0.2990 C   0  0  2  0  0  0  0  0  0  0  0  0
    0.9900   -1.3270   -0.6160 C   0  0  0  0  0  0  0  0  0  0  0  0
    2.0980   -1.6300   -1.3820 O   0  0  0  0  0  0  0  0  0  0  0  0
    3.2950   -1.2420   -0.8470 C   0  0  0  0  0  0  0  0  0  0  0  0
    3.2510   -0.0820    0.0330 C   0  0  0  0  0  0  0  0  0  0  0  0
    4.3760    0.4690    0.4350 C   0  0  0  0  0  0  0  0  0  0  0  0
    4.3930    1.5990    1.2920 N   0  0  0  0  0  0  0  0  0  0  0  0
    2.0370    0.4730    0.4700 O   0  0  0  0  0  0  0  0  0  0  0  0
   -3.6070   -0.8700    0.3000 C   0  0  0  0  0  0  0  0  0  0  0  0
   -4.9360   -0.9560    0.8190 N   0  0  0  0  0  0  0  0  0  0  0  0
   -3.1270   -1.9180   -0.2050 O   0  0  0  0  0  0  0  0  0  0  0  0
  2  1  1  6
  2  3  1  0
  2 14  1  0
  3  4  1  0
  4  5  2  0
  6  4  1  1
  6  7  1  0
  6 13  1  0
  7  8  1  0
  8  9  1  0
  9 10  1  0
 10 11  2  3
 10 13  1  0
 11 12  1  0
 14 15  1  0
 14 16  2  0
M  END
