
     RDKit          3D

 16 17  0  0  0  0  0  0  0  0999 V2000
    4.8490    2.2200    0.0200 O   0  0  0  0  0  0  0  0  0  0  0  0
    4.2160    1.1590    0.2080 C   0  0  0  0  0  0  0  0  0  0  0  0
    4.7670   -0.1340    0.0190 N   0  0  0  0  0  0  0  0  0  0  0  0
    3.7290   -1.1110    0.2730 C   0  0  0  0  0  0  0  0  0  0  0  0
    2.5070   -0.3100    0.6220 C   0  0  2  0  0  0  0  0  0  0  0  0
    1.3970   -0.5560   -0.3890 C   0  0  0  0  0  0  0  0  0  0  0  0
    0.2530    0.2660   -0.0590 N   0  0  0  0  0  0  0  0  0  0  0  0
   -0.9140    0.2060   -0.8690 C   0  0  0  0  0  0  0  0  0  0  0  0
   -0.9080   -0.5700   -1.8550 O   0  0  0  0  0  0  0  0  0  0  0  0
   -2.1180    1.0210   -0.5850 C   0  0  1  0  0  0  0  0  0  0  0  0
   -3.0820    0.7650   -1.5180 O   0  0  0  0  0  0  0  0  0  0  0  0
   -4.0510   -0.0340   -0.9880 C   0  0  0  0  0  0  0  0  0  0  0  0
   -3.5900   -0.5030    0.3700 C   0  0  0  0  0  0  0  0  0  0  0  0
   -2.7150    0.6900    0.7810 C   0  0  1  0  0  0  0  0  0  0  0  0
   -1.7760    0.3460    1.7100 O   0  0  0  0  0  0  0  0  0  0  0  0
    2.9070    1.0310    0.6210 O   0  0  0  0  0  0  0  0  0  0  0  0
  1  2  2  0
  2  3  1  0
  2 16  1  0
  3  4  1  0
  4  5  1  0
  5  6  1  6
  5 16  1  0
  6  7  1  0
  7  8  1  0
  8  9  2  0
 10  8  1  6
 10 11  1  0
 10 14  1  0
 11 12  1  0
 12 13  1  0
 13 14  1  0
 14 15  1  1
M  END
