
     RDKit          3D

 12 12  0  0  0  0  0  0  0  0999 V2000
    3.7200    0.7210    0.3650 C   0  0  0  0  0  0  0  0  0  0  0  0
    2.5400    0.7260   -0.4520 O   0  0  0  0  0  0  0  0  0  0  0  0
    1.6930   -0.3730   -0.4110 C   0  0  0  0  0  0  0  0  0  0  0  0
    1.9880   -1.3320    0.3390 O   0  0  0  0  0  0  0  0  0  0  0  0
    0.4430   -0.4440   -1.2310 C   0  0  0  0  0  0  0  0  0  0  0  0
   -0.7400   -0.1460   -0.3840 C   0  0  0  0  0  0  0  0  0  0  0  0
   -1.7560   -0.9710   -0.1750 C   0  0  0  0  0  0  0  0  0  0  0  0
   -1.8290   -2.2460   -0.7460 O   0  0  0  0  0  0  0  0  0  0  0  0
   -2.7270   -0.3170    0.7230 C   0  0  0  0  0  0  0  0  0  0  0  0
   -2.4100    1.1460    0.5690 C   0  0  0  0  0  0  0  0  0  0  0  0
   -0.9550    1.1000    0.3290 C   0  0  0  0  0  0  0  0  0  0  0  0
   -0.0820    1.9170    0.6460 O   0  0  0  0  0  0  0  0  0  0  0  0
  1  2  1  0
  2  3  1  0
  3  4  2  0
  3  5  1  0
  5  6  1  0
  6  7  2  0
  6 11  1  0
  7  8  1  0
  7  9  1  0
  9 10  1  0
 10 11  1  0
 11 12  2  0
M  END
