
     RDKit          3D

 12 13  0  0  0  0  0  0  0  0999 V2000
    3.6160   -1.3140   -0.0310 O   0  0  0  0  0  0  0  0  0  0  0  0
    2.3790   -0.6590    0.0110 C   0  0  0  0  0  0  0  0  0  0  0  0
    2.2700    0.7020   -0.1110 C   0  0  0  0  0  0  0  0  0  0  0  0
    1.0320    1.3530   -0.0680 C   0  0  0  0  0  0  0  0  0  0  0  0
    0.9390    2.7270   -0.1920 O   0  0  0  0  0  0  0  0  0  0  0  0
   -0.1230    0.6330    0.0980 C   0  0  0  0  0  0  0  0  0  0  0  0
   -0.0130   -0.7360    0.2200 C   0  0  0  0  0  0  0  0  0  0  0  0
    1.2100   -1.3720    0.1770 C   0  0  0  0  0  0  0  0  0  0  0  0
   -1.1850   -1.4500    0.3870 O   0  0  0  0  0  0  0  0  0  0  0  0
   -2.4720   -0.9330    0.3400 C   0  0  0  0  0  0  0  0  0  0  0  0
   -2.5550    0.4930   -0.1290 C   0  0  0  0  0  0  0  0  0  0  0  0
   -1.3770    1.2230    0.1470 O   0  0  0  0  0  0  0  0  0  0  0  0
  1  2  1  0
  2  3  2  0
  2  8  1  0
  3  4  1  0
  4  5  1  0
  4  6  2  0
  6  7  1  0
  6 12  1  0
  7  8  2  0
  7  9  1  0
  9 10  1  0
 10 11  1  0
 11 12  1  0
M  END
