
     RDKit          3D

 12 13  0  0  0  0  0  0  0  0999 V2000
   -1.3960   -2.5770   -1.1190 O   0  0  0  0  0  0  0  0  0  0  0  0
   -1.3080   -1.9520    0.1700 C   0  0  0  0  0  0  0  0  0  0  0  0
   -0.2450   -0.9370   -0.0200 C   0  0  0  0  0  0  0  0  0  0  0  0
    1.0660   -1.2500   -0.1040 C   0  0  0  0  0  0  0  0  0  0  0  0
    2.0440   -0.2870   -0.2020 C   0  0  0  0  0  0  0  0  0  0  0  0
    3.4160   -0.4850   -0.2880 O   0  0  0  0  0  0  0  0  0  0  0  0
    1.6030    1.0680   -0.2150 C   0  0  0  0  0  0  0  0  0  0  0  0
    0.2720    1.4040   -0.1360 C   0  0  0  0  0  0  0  0  0  0  0  0
   -0.6250    0.4050   -0.0260 C   0  0  0  0  0  0  0  0  0  0  0  0
   -1.8830    1.0180    0.0920 O   0  0  0  0  0  0  0  0  0  0  0  0
   -1.7300    2.4160    0.2080 C   0  0  0  0  0  0  0  0  0  0  0  0
   -0.3750    2.6820   -0.1510 O   0  0  0  0  0  0  0  0  0  0  0  0
  1  2  1  0
  2  3  1  0
  3  4  2  0
  3  9  1  0
  4  5  1  0
  5  6  1  0
  5  7  2  0
  7  8  1  0
  8  9  2  0
  8 12  1  0
  9 10  1  0
 10 11  1  0
 11 12  1  0
M  END
