
     RDKit          3D

 12 12  0  0  0  0  0  0  0  0999 V2000
    4.3340   -0.4660   -0.3340 C   0  0  0  0  0  0  0  0  0  0  0  0
    2.9250   -0.2920   -0.2100 O   0  0  0  0  0  0  0  0  0  0  0  0
    2.3660    0.7640    0.4800 C   0  0  0  0  0  0  0  0  0  0  0  0
    3.1450    1.5950    1.0150 O   0  0  0  0  0  0  0  0  0  0  0  0
    0.8860    0.9540    0.6160 C   0  0  0  0  0  0  0  0  0  0  0  0
    0.1870   -0.0680   -0.0430 O   0  0  0  0  0  0  0  0  0  0  0  0
   -1.2070   -0.0260   -0.0040 C   0  0  0  0  0  0  0  0  0  0  0  0
   -2.0020    1.0060   -0.1920 C   0  0  0  0  0  0  0  0  0  0  0  0
   -3.3980    0.5750   -0.0550 C   0  0  0  0  0  0  0  0  0  0  0  0
   -3.3010   -0.8680    0.2430 C   0  0  0  0  0  0  0  0  0  0  0  0
   -2.0250   -1.1920    0.2670 C   0  0  0  0  0  0  0  0  0  0  0  0
   -1.5620   -2.4980    0.5240 O   0  0  0  0  0  0  0  0  0  0  0  0
  1  2  1  0
  2  3  1  0
  3  4  2  0
  3  5  1  0
  5  6  1  0
  6  7  1  0
  7  8  2  0
  7 11  1  0
  8  9  1  0
  9 10  1  0
 10 11  2  0
 11 12  1  0
M  END
