
     RDKit          3D

 12 12  0  0  0  0  0  0  0  0999 V2000
   -4.8090    0.4040    0.2370 C   0  0  0  0  0  0  0  0  0  0  0  0
   -3.4970    0.2690    0.7210 O   0  0  0  0  0  0  0  0  0  0  0  0
   -2.3890    0.2170   -0.0930 C   0  0  0  0  0  0  0  0  0  0  0  0
   -2.5260    0.2920   -1.3260 O   0  0  0  0  0  0  0  0  0  0  0  0
   -1.0500    0.0740    0.4980 C   0  0  0  0  0  0  0  0  0  0  0  0
   -0.0940    0.0470   -0.5430 O   0  0  0  0  0  0  0  0  0  0  0  0
    1.2590   -0.0790   -0.3070 C   0  0  0  0  0  0  0  0  0  0  0  0
    2.1820    0.8090   -0.6260 C   0  0  0  0  0  0  0  0  0  0  0  0
    3.4900    0.3060   -0.2110 C   0  0  0  0  0  0  0  0  0  0  0  0
    4.6990    0.9510   -0.3740 O   0  0  0  0  0  0  0  0  0  0  0  0
    3.3380   -0.8780    0.3520 C   0  0  0  0  0  0  0  0  0  0  0  0
    1.8890   -1.2480    0.3490 C   0  0  0  0  0  0  0  0  0  0  0  0
  1  2  1  0
  2  3  1  0
  3  4  2  0
  3  5  1  0
  5  6  1  0
  6  7  1  0
  7  8  2  0
  7 12  1  0
  8  9  1  0
  9 10  1  0
  9 11  2  0
 11 12  1  0
M  END
