
     RDKit          3D

 12 13  0  0  0  0  0  0  0  0999 V2000
    3.4510   -0.8490    1.0720 O   0  0  0  0  0  0  0  0  0  0  0  0
    2.7380    0.0840    0.6210 C   0  0  0  0  0  0  0  0  0  0  0  0
    3.3600    1.3000    0.4080 O   0  0  0  0  0  0  0  0  0  0  0  0
    1.3240   -0.1410    0.3460 C   0  0  0  0  0  0  0  0  0  0  0  0
    0.7630   -1.3790    0.5800 C   0  0  0  0  0  0  0  0  0  0  0  0
   -0.5560   -1.6590    0.3450 C   0  0  0  0  0  0  0  0  0  0  0  0
   -1.3560   -0.6370   -0.1540 C   0  0  0  0  0  0  0  0  0  0  0  0
   -0.8240    0.6110   -0.3990 C   0  0  0  0  0  0  0  0  0  0  0  0
    0.5170    0.8560   -0.1480 C   0  0  0  0  0  0  0  0  0  0  0  0
   -1.8640    1.4160   -0.8910 O   0  0  0  0  0  0  0  0  0  0  0  0
   -3.1080    0.7610   -0.6060 C   0  0  0  0  0  0  0  0  0  0  0  0
   -2.7070   -0.5910   -0.4950 O   0  0  0  0  0  0  0  0  0  0  0  0
  1  2  2  0
  2  3  1  0
  2  4  1  0
  4  5  2  0
  4  9  1  0
  5  6  1  0
  6  7  2  0
  7  8  1  0
  7 12  1  0
  8  9  2  0
  8 10  1  0
 10 11  1  0
 11 12  1  0
M  END
