
     RDKit          3D

 12 13  0  0  0  0  0  0  0  0999 V2000
   -3.5960   -0.4410   -0.1450 C   0  0  0  0  0  0  0  0  0  0  0  0
   -2.1710   -0.0000   -0.2500 C   0  0  0  0  0  0  0  0  0  0  0  0
   -1.7070    1.2650   -0.5950 C   0  0  0  0  0  0  0  0  0  0  0  0
   -0.3360    1.2160   -0.5650 C   0  0  0  0  0  0  0  0  0  0  0  0
    0.0120   -0.0640   -0.2060 C   0  0  0  0  0  0  0  0  0  0  0  0
    1.3980   -0.5660   -0.0510 C   0  0  0  0  0  0  0  0  0  0  0  0
    1.5790   -1.8740    0.3140 N   0  0  0  0  0  0  0  0  0  0  0  0
    3.4020   -2.0530    0.3850 S   0  0  0  0  0  0  0  0  0  0  0  0
    3.6030   -0.2410   -0.1150 C   0  0  0  0  0  0  0  0  0  0  0  0
    4.9270    0.1690   -0.2130 O   0  0  0  0  0  0  0  0  0  0  0  0
    2.5160    0.0800   -0.2170 N   0  0  0  0  0  0  0  0  0  0  0  0
   -1.1080   -0.7150   -0.0390 O   0  0  0  0  0  0  0  0  0  0  0  0
  1  2  1  0
  2  3  2  0
  2 12  1  0
  3  4  1  0
  4  5  2  0
  5  6  1  0
  5 12  1  0
  6  7  2  0
  6 11  1  0
  7  8  1  0
  8  9  1  0
  9 10  1  0
  9 11  2  0
M  END
