
     RDKit          3D

 12 13  0  0  0  0  0  0  0  0999 V2000
   -4.4410   -0.3880   -0.9290 O   0  0  0  0  0  0  0  0  0  0  0  0
   -3.2510   -0.2090   -0.5610 C   0  0  0  0  0  0  0  0  0  0  0  0
   -2.2650   -1.0890   -0.7920 N   0  0  0  0  0  0  0  0  0  0  0  0
   -1.1580   -0.5630   -0.2610 C   0  0  0  0  0  0  0  0  0  0  0  0
    0.1340   -0.9860   -0.1830 N   0  0  0  0  0  0  0  0  0  0  0  0
    1.0800   -0.2720    0.4080 C   0  0  0  0  0  0  0  0  0  0  0  0
    2.5090   -0.7220    0.5040 C   0  0  0  0  0  0  0  0  0  0  0  0
    3.3590   -0.1020   -0.9580 S   0  0  0  0  0  0  0  0  0  0  0  0
    0.7260    0.9420    0.9580 C   0  0  0  0  0  0  0  0  0  0  0  0
   -0.5450    1.4330    0.9200 C   0  0  0  0  0  0  0  0  0  0  0  0
   -1.5160    0.6470    0.2860 C   0  0  0  0  0  0  0  0  0  0  0  0
   -2.7970    0.8330    0.0870 O   0  0  0  0  0  0  0  0  0  0  0  0
  1  2  2  0
  2  3  1  0
  2 12  1  0
  3  4  1  0
  4  5  2  0
  4 11  1  0
  5  6  1  0
  6  7  1  0
  6  9  2  0
  7  8  1  0
  9 10  1  0
 10 11  2  0
 11 12  1  0
M  END
