
     RDKit          3D

 12 13  0  0  0  0  0  0  0  0999 V2000
   -3.0760   -0.4000   -0.2470 O   0  0  0  0  0  0  0  0  0  0  0  0
   -1.8440   -0.5990   -0.1190 C   0  0  0  0  0  0  0  0  0  0  0  0
   -1.3070   -1.9120   -0.0670 N   0  0  0  0  0  0  0  0  0  0  0  0
    0.0960   -2.1410    0.0780 C   0  0  0  0  0  0  0  0  0  0  0  0
    0.5570   -3.3290    0.1230 O   0  0  0  0  0  0  0  0  0  0  0  0
    0.9760   -0.9890    0.1720 C   0  0  0  0  0  0  0  0  0  0  0  0
    2.7260   -1.2780    0.3530 S   0  0  0  0  0  0  0  0  0  0  0  0
    0.5020    0.2420    0.1260 C   0  0  0  0  0  0  0  0  0  0  0  0
    1.1330    1.5750    0.1940 C   0  0  0  0  0  0  0  0  0  0  0  0
    0.2020    2.5080    0.1000 C   0  0  0  0  0  0  0  0  0  0  0  0
   -1.0910    1.8580   -0.0350 C   0  0  0  0  0  0  0  0  0  0  0  0
   -0.9360    0.5340   -0.0230 C   0  0  0  0  0  0  0  0  0  0  0  0
  1  2  2  0
  2  3  1  0
  2 12  1  0
  3  4  1  0
  4  5  2  0
  4  6  1  0
  6  7  1  0
  6  8  2  0
  8  9  1  0
  8 12  1  0
  9 10  2  0
 10 11  1  0
 11 12  2  0
M  END
