
     RDKit          3D

 12 13  0  0  0  0  0  0  0  0999 V2000
    3.8030    1.0080    0.3790 C   0  0  0  0  0  0  0  0  0  0  0  0
    2.9890    0.1550   -0.9900 S   0  0  0  0  0  0  0  0  0  0  0  0
    1.3140   -0.3080   -0.5690 C   0  0  0  0  0  0  0  0  0  0  0  0
    0.3110    0.5600   -0.8290 N   0  0  0  0  0  0  0  0  0  0  0  0
   -0.9730    0.2650   -0.5320 C   0  0  0  0  0  0  0  0  0  0  0  0
   -1.2560   -0.9560    0.0500 C   0  0  0  0  0  0  0  0  0  0  0  0
   -0.2330   -1.8650    0.3250 C   0  0  0  0  0  0  0  0  0  0  0  0
   -0.4840   -2.9890    0.8600 O   0  0  0  0  0  0  0  0  0  0  0  0
    0.9980   -1.4810   -0.0040 N   0  0  0  0  0  0  0  0  0  0  0  0
   -2.6380   -1.0480    0.2680 O   0  0  0  0  0  0  0  0  0  0  0  0
   -3.1770    0.2690    0.3190 C   0  0  0  0  0  0  0  0  0  0  0  0
   -2.2670    0.9770   -0.6850 C   0  0  0  0  0  0  0  0  0  0  0  0
  1  2  1  0
  2  3  1  0
  3  4  2  0
  3  9  1  0
  4  5  1  0
  5  6  2  0
  5 12  1  0
  6  7  1  0
  6 10  1  0
  7  8  2  0
  7  9  1  0
 10 11  1  0
 11 12  1  0
M  END
