
     RDKit          3D

 12 13  0  0  0  0  0  0  0  0999 V2000
   -4.3230    0.7590   -0.3380 O   0  0  0  0  0  0  0  0  0  0  0  0
   -3.1180    0.5080   -0.0930 C   0  0  0  0  0  0  0  0  0  0  0  0
   -2.2020    0.2250   -1.0390 N   0  0  0  0  0  0  0  0  0  0  0  0
   -1.0100    0.0080   -0.4280 C   0  0  0  0  0  0  0  0  0  0  0  0
    0.2540   -0.3160   -0.9120 C   0  0  0  0  0  0  0  0  0  0  0  0
    1.3160   -0.4830   -0.0520 C   0  0  0  0  0  0  0  0  0  0  0  0
    2.5970   -0.8140   -0.5820 N   0  0  0  0  0  0  0  0  0  0  0  0
    3.7110    0.4770   -1.0140 S   0  0  0  0  0  0  0  0  0  0  0  0
    1.0830   -0.3210    1.2910 C   0  0  0  0  0  0  0  0  0  0  0  0
   -0.1720    0.0010    1.7900 C   0  0  0  0  0  0  0  0  0  0  0  0
   -1.2450    0.1710    0.9230 C   0  0  0  0  0  0  0  0  0  0  0  0
   -2.5070    0.4660    1.0650 O   0  0  0  0  0  0  0  0  0  0  0  0
  1  2  2  0
  2  3  1  0
  2 12  1  0
  3  4  1  0
  4  5  2  0
  4 11  1  0
  5  6  1  0
  6  7  1  0
  6  9  2  0
  7  8  1  0
  9 10  1  0
 10 11  2  0
 11 12  1  0
M  END
