
     RDKit          3D

 12 13  0  0  0  0  0  0  0  0999 V2000
    2.8970   -0.6310    0.1930 C   0  0  0  0  0  0  0  0  0  0  0  0
    1.8560    0.3620   -0.2040 C   0  0  0  0  0  0  0  0  0  0  0  0
    2.0080    1.6480   -0.5630 N   0  0  0  0  0  0  0  0  0  0  0  0
    0.8230    2.1610   -0.8370 N   0  0  0  0  0  0  0  0  0  0  0  0
   -0.1500    1.2310   -0.6670 C   0  0  0  0  0  0  0  0  0  0  0  0
    0.4830    0.0810   -0.2650 C   0  0  0  0  0  0  0  0  0  0  0  0
   -0.0840   -1.2180    0.0540 C   0  0  0  0  0  0  0  0  0  0  0  0
    0.6810   -2.2000   -0.1400 O   0  0  0  0  0  0  0  0  0  0  0  0
   -1.3650   -1.4190    0.5380 O   0  0  0  0  0  0  0  0  0  0  0  0
   -2.5950   -0.8920    0.2300 C   0  0  0  0  0  0  0  0  0  0  0  0
   -2.7610    0.5740    0.3990 C   0  0  0  0  0  0  0  0  0  0  0  0
   -1.8890    1.4950   -0.9260 S   0  0  0  0  0  0  0  0  0  0  0  0
  1  2  1  0
  2  3  1  0
  2  6  2  0
  3  4  1  0
  4  5  2  0
  5  6  1  0
  5 12  1  0
  6  7  1  0
  7  8  2  0
  7  9  1  0
  9 10  1  0
 10 11  1  0
 11 12  1  0
M  END
