
     RDKit          3D

 11 12  0  0  0  0  0  0  0  0999 V2000
    4.3670    0.6340    0.0530 O   0  0  0  0  0  0  0  0  0  0  0  0
    3.2190    0.2420   -0.1110 C   0  0  0  0  0  0  0  0  0  0  0  0
    2.6270   -0.8300   -0.6000 N   0  0  0  0  0  0  0  0  0  0  0  0
    1.3350   -0.8570   -0.5910 N   0  0  0  0  0  0  0  0  0  0  0  0
    0.5690   -0.0890   -0.2220 C   0  0  0  0  0  0  0  0  0  0  0  0
   -0.8750    0.1190   -0.1020 C   0  0  0  0  0  0  0  0  0  0  0  0
   -1.8620   -0.7560   -0.4930 C   0  0  0  0  0  0  0  0  0  0  0  0
   -3.0610   -0.1650   -0.1990 C   0  0  0  0  0  0  0  0  0  0  0  0
   -2.8200    1.0060    0.3420 O   0  0  0  0  0  0  0  0  0  0  0  0
   -1.5420    1.2070    0.4140 C   0  0  0  0  0  0  0  0  0  0  0  0
    1.7260    1.2700    0.3910 S   0  0  0  0  0  0  0  0  0  0  0  0
  1  2  2  0
  2  3  1  0
  2 11  1  0
  3  4  1  0
  4  5  2  0
  5  6  1  0
  5 11  1  0
  6  7  1  0
  6 10  2  0
  7  8  2  0
  8  9  1  0
  9 10  1  0
M  END
