
     RDKit          3D

 12 13  0  0  0  0  0  0  0  0999 V2000
   -2.5000   -1.8440   -0.1140 O   0  0  0  0  0  0  0  0  0  0  0  0
   -2.2540   -0.6420    0.1250 C   0  0  0  0  0  0  0  0  0  0  0  0
   -3.2350    0.2780    0.3950 O   0  0  0  0  0  0  0  0  0  0  0  0
   -0.8480   -0.1930    0.1180 C   0  0  0  0  0  0  0  0  0  0  0  0
   -0.5270    1.1180    0.3750 C   0  0  0  0  0  0  0  0  0  0  0  0
    0.8230    1.4790    0.3530 C   0  0  0  0  0  0  0  0  0  0  0  0
    1.8010    0.5410    0.0790 C   0  0  0  0  0  0  0  0  0  0  0  0
    3.1680    0.8690    0.0490 N   0  0  0  0  0  0  0  0  0  0  0  0
    3.9690   -0.5050   -0.3050 S   0  0  0  0  0  0  0  0  0  0  0  0
    2.5080   -1.6060   -0.4330 N   0  0  0  0  0  0  0  0  0  0  0  0
    1.5310   -0.7080   -0.1680 C   0  0  0  0  0  0  0  0  0  0  0  0
    0.1610   -1.0850   -0.1480 C   0  0  0  0  0  0  0  0  0  0  0  0
  1  2  2  0
  2  3  1  0
  2  4  1  0
  4  5  1  0
  4 12  2  0
  5  6  2  0
  6  7  1  0
  7  8  2  0
  7 11  1  0
  8  9  1  0
  9 10  1  0
 10 11  2  0
 11 12  1  0
M  END
