
     RDKit          3D

 23 23  0  0  0  0  0  0  0  0999 V2000
   -5.1300    1.6660   -0.3950 C   0  0  0  0  0  0  0  0  0  0  0  0
   -4.2370    0.9410    0.4130 O   0  0  0  0  0  0  0  0  0  0  0  0
   -3.0390    0.4830   -0.1830 C   0  0  0  0  0  0  0  0  0  0  0  0
   -2.9020    0.7750   -1.3720 O   0  0  0  0  0  0  0  0  0  0  0  0
   -2.0660   -0.2680    0.5720 C   0  0  0  0  0  0  0  0  0  0  0  0
   -2.4350   -0.5280    1.9820 C   0  0  0  0  0  0  0  0  0  0  0  0
   -1.5980   -1.2770    2.9340 C   0  0  0  0  0  0  0  0  0  0  0  0
   -3.5500   -0.0870    2.4360 O   0  0  0  0  0  0  0  0  0  0  0  0
   -0.9440   -0.6790    0.0940 C   0  0  0  0  0  0  0  0  0  0  0  0
   -0.1390   -1.4150    1.0350 O   0  0  0  0  0  0  0  0  0  0  0  0
   -0.3160   -0.5580   -1.2080 C   0  0  2  0  0  0  0  0  0  0  0  0
   -0.5780    0.6610   -1.8060 O   0  0  0  0  0  0  0  0  0  0  0  0
   -0.7800   -1.6170   -2.1970 C   0  0  0  0  0  0  0  0  0  0  0  0
   -0.1650   -1.2980   -3.4720 N   0  0  0  0  0  0  0  0  0  0  0  0
    1.1060   -0.6610   -1.1660 O   0  0  0  0  0  0  0  0  0  0  0  0
    1.9230    0.2110   -0.4610 C   0  0  0  0  0  0  0  0  0  0  0  0
    1.6350    1.4790   -0.2050 C   0  0  0  0  0  0  0  0  0  0  0  0
    2.7350    2.1080    0.5700 C   0  0  2  0  0  0  0  0  0  0  0  0
    3.3100    3.1590   -0.1580 O   0  0  0  0  0  0  0  0  0  0  0  0
    3.7040    1.0080    0.7210 C   0  0  0  0  0  0  0  0  0  0  0  0
    4.9470    1.0320    1.3770 O   0  0  0  0  0  0  0  0  0  0  0  0
    3.2370   -0.0760    0.1310 C   0  0  0  0  0  0  0  0  0  0  0  0
    3.9100   -1.4060    0.0550 C   0  0  0  0  0  0  0  0  0  0  0  0
  1  2  1  0
  2  3  1  0
  3  4  2  0
  3  5  1  0
  5  6  1  0
  5  9  2  3
  6  7  1  0
  6  8  2  0
  9 10  1  0
  9 11  1  0
 11 12  1  6
 11 13  1  0
 11 15  1  0
 13 14  1  0
 15 16  1  0
 16 17  2  0
 16 22  1  0
 17 18  1  0
 18 19  1  6
 18 20  1  0
 20 21  1  0
 20 22  2  0
 22 23  1  0
M  CHG  1  12  -1
M  END
