
     RDKit          3D

 24 24  0  0  0  0  0  0  0  0999 V2000
    4.5200   -3.8500    0.0210 C   0  0  0  0  0  0  0  0  0  0  0  0
    4.3480   -2.5350   -0.2720 C   0  0  0  0  0  0  0  0  0  0  0  0
    3.0270   -2.0540   -0.4580 C   0  0  0  0  0  0  0  0  0  0  0  0
    2.5260   -0.8960   -0.7170 C   0  0  0  0  0  0  0  0  0  0  0  0
    1.0280   -0.9100   -0.8380 N   0  0  0  0  0  0  0  0  0  0  0  0
    0.2770   -0.3460    0.2240 C   0  0  0  0  0  0  0  0  0  0  0  0
    0.8090    0.1610    1.2590 O   0  0  0  0  0  0  0  0  0  0  0  0
   -1.1120   -0.3120    0.1930 O   0  0  0  0  0  0  0  0  0  0  0  0
   -1.8900    0.2400    1.2290 C   0  0  1  0  0  0  0  0  0  0  0  0
   -2.6910    1.4370    0.7810 C   0  0  0  0  0  0  0  0  0  0  0  0
   -3.8920    1.0780   -0.0270 C   0  0  0  0  0  0  0  0  0  0  0  0
   -4.5200   -0.2300    0.3060 C   0  0  2  0  0  0  0  0  0  0  0  0
   -6.0420   -0.1540    0.2110 C   0  0  0  0  0  0  0  0  0  0  0  0
   -6.3230    0.3460   -1.0770 O   0  0  0  0  0  0  0  0  0  0  0  0
   -4.1170   -0.7230    1.5700 O   0  0  0  0  0  0  0  0  0  0  0  0
   -2.7780   -0.7320    1.8770 C   0  0  0  0  0  0  0  0  0  0  0  0
   -2.3190   -1.5510    2.6930 O   0  0  0  0  0  0  0  0  0  0  0  0
    3.0460    0.4530   -0.7220 C   0  0  0  0  0  0  0  0  0  0  0  0
    4.2880    0.9040   -0.1400 C   0  0  0  0  0  0  0  0  0  0  0  0
    4.7630    2.2330   -0.2460 N   0  0  0  0  0  0  0  0  0  0  0  0
    5.0130    0.1140    0.4960 O   0  0  0  0  0  0  0  0  0  0  0  0
    2.2490    1.4330   -1.1860 C   0  0  0  0  0  0  0  0  0  0  0  0
    0.9790    1.1110   -1.6440 O   0  0  0  0  0  0  0  0  0  0  0  0
    2.6980    2.7310   -1.2020 O   0  0  0  0  0  0  0  0  0  0  0  0
  1  2  2  0
  2  3  1  0
  3  4  2  3
  4  5  1  0
  4 18  1  0
  5  6  1  0
  6  7  2  0
  6  8  1  0
  9  8  1  6
  9 10  1  0
  9 16  1  0
 10 11  1  0
 11 12  1  0
 12 13  1  1
 12 15  1  0
 13 14  1  0
 15 16  1  0
 16 17  2  0
 18 19  1  0
 18 22  2  3
 19 20  1  0
 19 21  2  0
 22 23  1  0
 22 24  1  0
M  CHG  2  20   1  23  -1
M  END
