
     RDKit          3D

 25 28  0  0  0  0  0  0  0  0999 V2000
   -5.4910    1.7640   -1.9570 O   0  0  0  0  0  0  0  0  0  0  0  0
   -4.9900    0.9070   -1.1690 C   0  0  0  0  0  0  0  0  0  0  0  0
   -5.7800   -0.1640   -0.7970 O   0  0  0  0  0  0  0  0  0  0  0  0
   -5.3990   -1.3490   -0.1530 C   0  0  0  0  0  0  0  0  0  0  0  0
   -4.2010   -1.2470    0.7370 C   0  0  0  0  0  0  0  0  0  0  0  0
   -2.9070   -1.1360   -0.0850 C   0  0  0  0  0  0  0  0  0  0  0  0
   -2.6560    0.3040   -0.2290 C   0  0  0  0  0  0  0  0  0  0  0  0
   -1.5190    0.9990    0.0290 C   0  0  0  0  0  0  0  0  0  0  0  0
   -0.2190    0.6030    0.5810 C   0  0  0  0  0  0  0  0  0  0  0  0
    0.0180   -0.4940    1.3380 C   0  0  0  0  0  0  0  0  0  0  0  0
    1.3120   -0.8220    1.7360 C   0  0  0  0  0  0  0  0  0  0  0  0
    2.3440   -0.0140    1.3510 C   0  0  0  0  0  0  0  0  0  0  0  0
    2.1640    1.1180    0.5810 C   0  0  0  0  0  0  0  0  0  0  0  0
    3.2290    1.9240    0.2000 O   0  0  0  0  0  0  0  0  0  0  0  0
    4.5660    1.6520    0.5520 C   0  0  0  0  0  0  0  0  0  0  0  0
    4.9420    0.3270   -0.0400 C   0  0  0  0  0  0  0  0  0  0  0  0
    4.2550   -0.4070   -1.0110 C   0  0  0  0  0  0  0  0  0  0  0  0
    4.9600   -1.5660   -1.2590 C   0  0  0  0  0  0  0  0  0  0  0  0
    6.0570   -1.4970   -0.4270 C   0  0  0  0  0  0  0  0  0  0  0  0
    5.9960   -0.3810    0.2550 O   0  0  0  0  0  0  0  0  0  0  0  0
    0.8710    1.3980    0.2130 C   0  0  0  0  0  0  0  0  0  0  0  0
   -1.7910    2.2670   -0.3480 O   0  0  0  0  0  0  0  0  0  0  0  0
   -2.9910    2.3670   -0.8010 N   0  0  0  0  0  0  0  0  0  0  0  0
   -3.5620    3.5390   -1.2640 O   0  0  0  0  0  0  0  0  0  0  0  0
   -3.6200    1.1970   -0.7680 C   0  0  0  0  0  0  0  0  0  0  0  0
  1  2  2  0
  2  3  1  0
  2 25  1  0
  3  4  1  0
  4  5  1  0
  5  6  1  0
  6  7  1  0
  7  8  2  0
  7 25  1  0
  8  9  1  0
  8 22  1  0
  9 10  2  0
  9 21  1  0
 10 11  1  0
 11 12  2  0
 12 13  1  0
 13 14  1  0
 13 21  2  0
 14 15  1  0
 15 16  1  0
 16 17  2  0
 16 20  1  0
 17 18  1  0
 18 19  2  0
 19 20  1  0
 22 23  1  0
 23 24  1  0
 23 25  2  0
M  CHG  2  23   1  24  -1
M  END
