
     RDKit          3D

 25 28  0  0  0  0  0  0  0  0999 V2000
   -3.2150    2.7440    2.5390 O   0  0  0  0  0  0  0  0  0  0  0  0
   -3.5810    1.8290    1.7290 C   0  0  0  0  0  0  0  0  0  0  0  0
   -4.9210    1.6020    1.5800 C   0  0  0  0  0  0  0  0  0  0  0  0
   -5.3710    0.6190    0.7130 C   0  0  0  0  0  0  0  0  0  0  0  0
   -4.4220   -0.1250    0.0040 C   0  0  0  0  0  0  0  0  0  0  0  0
   -4.7920   -1.0670   -0.8300 O   0  0  0  0  0  0  0  0  0  0  0  0
   -3.8970   -1.7580   -1.4890 C   0  0  0  0  0  0  0  0  0  0  0  0
   -4.2300   -2.6750   -2.3010 O   0  0  0  0  0  0  0  0  0  0  0  0
   -2.5450   -1.5300   -1.3380 C   0  0  0  0  0  0  0  0  0  0  0  0
   -1.6010   -2.2630   -2.0370 C   0  0  0  0  0  0  0  0  0  0  0  0
   -0.2690   -1.9860   -1.8430 C   0  0  0  0  0  0  0  0  0  0  0  0
    0.1790   -1.0110   -0.9830 C   0  0  0  0  0  0  0  0  0  0  0  0
    1.5210   -0.7360   -0.7910 O   0  0  0  0  0  0  0  0  0  0  0  0
    1.8860    0.2850    0.1140 C   0  0  0  0  0  0  0  0  0  0  0  0
    3.3590    0.4330    0.1870 C   0  0  0  0  0  0  0  0  0  0  0  0
    4.1370   -0.2780    1.0950 C   0  0  0  0  0  0  0  0  0  0  0  0
    5.5070   -0.1110    1.1290 C   0  0  0  0  0  0  0  0  0  0  0  0
    6.1310    0.7380    0.2930 N   0  0  0  0  0  0  0  0  0  0  0  0
    7.5100    0.9060    0.3280 O   0  0  0  0  0  0  0  0  0  0  0  0
    5.3820    1.4330   -0.5930 C   0  0  0  0  0  0  0  0  0  0  0  0
    4.0130    1.2960   -0.6610 C   0  0  0  0  0  0  0  0  0  0  0  0
   -0.7780   -0.2950   -0.2990 C   0  0  0  0  0  0  0  0  0  0  0  0
   -2.1380   -0.5440   -0.4670 C   0  0  0  0  0  0  0  0  0  0  0  0
   -3.0930    0.1750    0.2200 C   0  0  0  0  0  0  0  0  0  0  0  0
   -2.7120    1.1180    1.0540 O   0  0  0  0  0  0  0  0  0  0  0  0
  1  2  2  0
  2  3  1  0
  2 25  1  0
  3  4  2  0
  4  5  1  0
  5  6  1  0
  5 24  2  0
  6  7  1  0
  7  8  2  0
  7  9  1  0
  9 10  2  0
  9 23  1  0
 10 11  1  0
 11 12  2  0
 12 13  1  0
 12 22  1  0
 13 14  1  0
 14 15  1  0
 15 16  2  0
 15 21  1  0
 16 17  1  0
 17 18  2  0
 18 19  1  0
 18 20  1  0
 20 21  2  0
 22 23  2  0
 23 24  1  0
 24 25  1  0
M  CHG  2  18   1  19  -1
M  END
