
     RDKit          3D

 23 26  0  0  0  0  0  0  0  0999 V2000
    1.4550   -0.0440   -2.2200 O   0  0  0  0  0  0  0  0  0  0  0  0
    1.4770    0.1800   -0.9530 C   0  0  0  0  0  0  0  0  0  0  0  0
    0.3340   -0.0860   -0.1920 N   0  0  0  0  0  0  0  0  0  0  0  0
   -0.8870   -0.6210   -0.6990 C   0  0  0  0  0  0  0  0  0  0  0  0
   -0.9680   -1.3620   -1.8440 C   0  0  0  0  0  0  0  0  0  0  0  0
   -2.2180   -1.7990   -2.2690 C   0  0  0  0  0  0  0  0  0  0  0  0
   -3.3550   -1.4820   -1.5340 C   0  0  0  0  0  0  0  0  0  0  0  0
   -3.2880   -0.7360   -0.3790 C   0  0  0  0  0  0  0  0  0  0  0  0
   -4.5060   -0.3950    0.3690 C   0  0  0  0  0  0  0  0  0  0  0  0
   -4.5590    0.2990    1.5280 N   0  0  0  0  0  0  0  0  0  0  0  0
   -5.8250    0.4120    1.8750 N   0  0  0  0  0  0  0  0  0  0  0  0
   -6.6090   -0.2000    0.9590 N   0  0  0  0  0  0  0  0  0  0  0  0
   -5.7760   -0.6680    0.0790 N   0  0  0  0  0  0  0  0  0  0  0  0
   -2.0480   -0.3080    0.0350 C   0  0  0  0  0  0  0  0  0  0  0  0
    2.6880    0.7090   -0.3590 C   0  0  0  0  0  0  0  0  0  0  0  0
    3.3570    1.6870   -1.1020 C   0  0  0  0  0  0  0  0  0  0  0  0
    4.4610    2.2800   -0.5500 C   0  0  0  0  0  0  0  0  0  0  0  0
    4.9230    1.9370    0.7070 C   0  0  0  0  0  0  0  0  0  0  0  0
    4.2730    0.9760    1.4380 C   0  0  0  0  0  0  0  0  0  0  0  0
    4.4900    0.4250    2.6370 N   0  0  0  0  0  0  0  0  0  0  0  0
    3.5490   -0.4950    2.8410 C   0  0  0  0  0  0  0  0  0  0  0  0
    2.7160   -0.5500    1.7820 N   0  0  0  0  0  0  0  0  0  0  0  0
    3.1540    0.3670    0.8930 C   0  0  0  0  0  0  0  0  0  0  0  0
  1  2  2  0
  2  3  1  0
  2 15  1  0
  3  4  1  0
  4  5  2  0
  4 14  1  0
  5  6  1  0
  6  7  2  0
  7  8  1  0
  8  9  1  0
  8 14  2  0
  9 10  1  0
  9 13  2  0
 10 11  2  0
 11 12  1  0
 12 13  1  0
 15 16  2  0
 15 23  1  0
 16 17  1  0
 17 18  2  0
 18 19  1  0
 19 20  1  0
 19 23  2  0
 20 21  2  0
 21 22  1  0
 22 23  1  0
M  END
