
     RDKit          3D

 25 28  0  0  0  0  0  0  0  0999 V2000
   -1.4840   -3.9800    0.4830 C   0  0  0  0  0  0  0  0  0  0  0  0
   -2.1340   -3.1170    1.5410 C   0  0  0  0  0  0  0  0  0  0  0  0
   -2.4060   -1.8180    1.0900 O   0  0  0  0  0  0  0  0  0  0  0  0
   -1.4580   -0.9160    0.6410 C   0  0  0  0  0  0  0  0  0  0  0  0
   -0.1220   -1.1900    0.5870 C   0  0  0  0  0  0  0  0  0  0  0  0
    0.8010   -0.2650    0.1320 C   0  0  0  0  0  0  0  0  0  0  0  0
    2.1410   -0.5850    0.0940 C   0  0  0  0  0  0  0  0  0  0  0  0
    3.0480    0.3430   -0.3600 C   0  0  0  0  0  0  0  0  0  0  0  0
    4.4650    0.0320   -0.4100 C   0  0  0  0  0  0  0  0  0  0  0  0
    5.3210    0.8620   -0.8220 O   0  0  0  0  0  0  0  0  0  0  0  0
    4.9560   -1.2130   -0.0030 O   0  0  0  0  0  0  0  0  0  0  0  0
    6.3350   -1.4820   -0.0650 C   0  0  0  0  0  0  0  0  0  0  0  0
    2.6210    1.5830   -0.7730 C   0  0  0  0  0  0  0  0  0  0  0  0
    1.2930    1.8900   -0.7310 N   0  0  0  0  0  0  0  0  0  0  0  0
    0.9830    3.1370   -1.1610 O   0  0  0  0  0  0  0  0  0  0  0  0
    0.3990    0.9980   -0.2920 C   0  0  0  0  0  0  0  0  0  0  0  0
   -0.9610    1.2740   -0.2350 C   0  0  0  0  0  0  0  0  0  0  0  0
   -1.4280    2.4970   -0.6370 C   0  0  0  0  0  0  0  0  0  0  0  0
   -2.8040    2.7750   -0.5790 C   0  0  0  0  0  0  0  0  0  0  0  0
   -3.7010    1.8560   -0.1300 C   0  0  0  0  0  0  0  0  0  0  0  0
   -3.2510    0.6290    0.2750 C   0  0  0  0  0  0  0  0  0  0  0  0
   -1.8870    0.3230    0.2290 C   0  0  0  0  0  0  0  0  0  0  0  0
   -4.9700    2.4620   -0.2070 O   0  0  0  0  0  0  0  0  0  0  0  0
   -4.8690    3.7840   -0.6620 C   0  0  0  0  0  0  0  0  0  0  0  0
   -3.4810    3.9210   -0.9270 O   0  0  0  0  0  0  0  0  0  0  0  0
  1  2  1  0
  2  3  1  0
  3  4  1  0
  4  5  2  0
  4 22  1  0
  5  6  1  0
  6  7  2  0
  6 16  1  0
  7  8  1  0
  8  9  1  0
  8 13  2  0
  9 10  2  0
  9 11  1  0
 11 12  1  0
 13 14  1  0
 14 15  1  0
 14 16  2  0
 16 17  1  0
 17 18  2  0
 17 22  1  0
 18 19  1  0
 19 20  2  0
 19 25  1  0
 20 21  1  0
 20 23  1  0
 21 22  2  0
 23 24  1  0
 24 25  1  0
M  CHG  2  14   1  15  -1
M  END
