
     RDKit          3D

 25 28  0  0  0  0  0  0  0  0999 V2000
    6.4360    1.7160    0.7360 C   0  0  0  0  0  0  0  0  0  0  0  0
    6.5640    0.4880   -0.1620 C   0  0  0  0  0  0  0  0  0  0  0  0
    5.4040   -0.2830    0.0300 O   0  0  0  0  0  0  0  0  0  0  0  0
    4.1510    0.2560   -0.2530 C   0  0  0  0  0  0  0  0  0  0  0  0
    4.0420    1.4280   -0.6800 O   0  0  0  0  0  0  0  0  0  0  0  0
    2.9630   -0.5370   -0.0540 C   0  0  0  0  0  0  0  0  0  0  0  0
    2.9870   -1.8360    0.4120 C   0  0  0  0  0  0  0  0  0  0  0  0
    1.8070   -2.5300    0.5760 C   0  0  0  0  0  0  0  0  0  0  0  0
    0.5810   -1.9680    0.2870 C   0  0  0  0  0  0  0  0  0  0  0  0
   -0.6710   -2.3650    0.3390 O   0  0  0  0  0  0  0  0  0  0  0  0
   -1.4680   -1.4000   -0.0630 C   0  0  0  0  0  0  0  0  0  0  0  0
   -2.8430   -1.3310   -0.1870 C   0  0  0  0  0  0  0  0  0  0  0  0
   -3.4380   -0.1780   -0.6380 C   0  0  0  0  0  0  0  0  0  0  0  0
   -2.6870    0.9480   -0.9900 C   0  0  0  0  0  0  0  0  0  0  0  0
   -1.3240    0.8660   -0.8640 C   0  0  0  0  0  0  0  0  0  0  0  0
   -0.7240   -0.2840   -0.4090 C   0  0  0  0  0  0  0  0  0  0  0  0
    0.5940   -0.6650   -0.1790 C   0  0  0  0  0  0  0  0  0  0  0  0
    1.7500   -0.0080   -0.3310 N   0  0  0  0  0  0  0  0  0  0  0  0
    1.6700    1.2920   -0.8010 O   0  0  0  0  0  0  0  0  0  0  0  0
   -4.8850   -0.3710   -0.5890 C   0  0  2  0  0  0  0  0  0  0  0  0
   -5.5260    0.4740    0.4850 C   0  0  0  0  0  0  0  0  0  0  0  0
   -5.2770    1.9240    0.2100 C   0  0  0  0  0  0  0  0  0  0  0  0
   -5.0850   -1.7280   -0.3670 O   0  0  0  0  0  0  0  0  0  0  0  0
   -3.9090   -2.3220   -0.0100 C   0  0  0  0  0  0  0  0  0  0  0  0
   -3.6620   -3.4850    0.4050 O   0  0  0  0  0  0  0  0  0  0  0  0
  1  2  1  0
  2  3  1  0
  3  4  1  0
  4  5  2  0
  4  6  1  0
  6  7  2  0
  6 18  1  0
  7  8  1  0
  8  9  2  0
  9 10  1  0
  9 17  1  0
 10 11  1  0
 11 12  2  0
 11 16  1  0
 12 13  1  0
 12 24  1  0
 13 14  2  0
 13 20  1  0
 14 15  1  0
 15 16  2  0
 16 17  1  0
 17 18  2  0
 18 19  1  0
 20 21  1  1
 20 23  1  0
 21 22  1  0
 23 24  1  0
 24 25  2  0
M  CHG  2  18   1  19  -1
M  END
