
     RDKit          3D

 24 25  0  0  0  0  0  0  0  0999 V2000
   -5.5720   -2.4780    0.3710 C   0  0  0  0  0  0  0  0  0  0  0  0
   -4.8040   -1.6260    1.2050 O   0  0  0  0  0  0  0  0  0  0  0  0
   -4.0500   -0.6280    0.6140 C   0  0  0  0  0  0  0  0  0  0  0  0
   -2.7530   -0.8660    0.2310 C   0  0  0  0  0  0  0  0  0  0  0  0
   -2.2200   -2.1190    0.4480 O   0  0  0  0  0  0  0  0  0  0  0  0
   -1.9450    0.1050   -0.3700 C   0  0  0  0  0  0  0  0  0  0  0  0
   -0.6250   -0.2520   -0.7220 N   0  0  0  0  0  0  0  0  0  0  0  0
    0.3410    0.5700   -1.3300 C   0  0  0  0  0  0  0  0  0  0  0  0
    0.0830    1.7490   -1.6200 O   0  0  0  0  0  0  0  0  0  0  0  0
    1.6860    0.0250   -1.6320 C   0  0  2  0  0  0  0  0  0  0  0  0
    2.4340   -0.3510   -0.3450 C   0  0  0  0  0  0  0  0  0  0  0  0
    3.8460    0.0320   -0.7260 C   0  0  2  0  0  0  0  0  0  0  0  0
    4.7330    0.2350    0.4700 C   0  0  2  0  0  0  0  0  0  0  0  0
    4.7640   -1.0790    1.2360 C   0  0  0  0  0  0  0  0  0  0  0  0
    4.3130    1.3080    1.3160 N   0  0  0  0  0  0  0  0  0  0  0  0
    3.6340    1.2580   -1.5160 C   0  0  0  0  0  0  0  0  0  0  0  0
    4.3680    2.2730   -1.5310 O   0  0  0  0  0  0  0  0  0  0  0  0
    2.4560    1.0440   -2.2340 O   0  0  0  0  0  0  0  0  0  0  0  0
   -2.5270    1.3390   -0.5620 C   0  0  0  0  0  0  0  0  0  0  0  0
   -3.8490    1.6030   -0.1790 C   0  0  0  0  0  0  0  0  0  0  0  0
   -4.3770    2.8510   -0.3950 O   0  0  0  0  0  0  0  0  0  0  0  0
   -3.6630    3.8300   -0.9660 O   0  0  0  0  0  0  0  0  0  0  0  0
   -4.6010    0.6190    0.4060 C   0  0  0  0  0  0  0  0  0  0  0  0
   -5.9240    0.8200    0.8100 O   0  0  0  0  0  0  0  0  0  0  0  0
  1  2  1  0
  2  3  1  0
  3  4  2  0
  3 23  1  0
  4  5  1  0
  4  6  1  0
  6  7  1  0
  6 19  2  0
  7  8  1  0
  8  9  2  0
 10  8  1  1
 10 11  1  0
 10 18  1  0
 12 11  1  1
 12 13  1  0
 12 16  1  0
 13 14  1  1
 13 15  1  0
 16 17  2  0
 16 18  1  0
 19 20  1  0
 20 21  1  0
 20 23  2  0
 21 22  1  0
 23 24  1  0
M  CHG  2  15   1  22  -1
M  END
