
     RDKit          3D

 10 11  0  0  0  0  0  0  0  0999 V2000
   -0.6450    2.4680   -0.1450 C   0  0  0  0  0  0  0  0  0  0  0  0
   -0.6190    1.1490   -0.0280 C   0  0  0  0  0  0  0  0  0  0  0  0
   -1.8720    0.4110    0.1550 C   0  0  0  0  0  0  0  0  0  0  0  0
   -1.5690   -0.9990    0.6270 C   0  0  0  0  0  0  0  0  0  0  0  0
   -0.5680   -1.6670   -0.2990 C   0  0  0  0  0  0  0  0  0  0  0  0
    0.7240   -0.9470   -0.2150 C   0  0  0  0  0  0  0  0  0  0  0  0
    2.0420   -1.3530   -0.2400 C   0  0  0  0  0  0  0  0  0  0  0  0
    2.7860   -0.2410   -0.1240 N   0  0  0  0  0  0  0  0  0  0  0  0
    1.9830    0.8450   -0.0290 C   0  0  0  0  0  0  0  0  0  0  0  0
    0.6530    0.4400   -0.0820 C   0  0  0  0  0  0  0  0  0  0  0  0
  1  2  2  0
  2  3  1  0
  2 10  1  0
  3  4  1  0
  4  5  1  0
  5  6  1  0
  6  7  2  0
  6 10  1  0
  7  8  1  0
  8  9  1  0
  9 10  2  0
M  END
