
     RDKit          3D

 10 10  0  0  0  0  0  0  0  0999 V2000
    3.3190    0.4380   -0.3290 C   0  0  0  0  0  0  0  0  0  0  0  0
    1.8820    0.5480   -0.0140 C   0  0  0  0  0  0  0  0  0  0  0  0
    1.0340   -0.4580   -0.1650 C   0  0  0  0  0  0  0  0  0  0  0  0
    1.5660   -1.7400   -0.6720 C   0  0  0  0  0  0  0  0  0  0  0  0
   -0.3330   -0.2480    0.1680 N   0  0  0  0  0  0  0  0  0  0  0  0
   -1.2080   -1.3630    0.5420 C   0  0  0  0  0  0  0  0  0  0  0  0
   -2.5560   -0.7770    0.8000 C   0  0  0  0  0  0  0  0  0  0  0  0
   -2.5050    0.4680   -0.0960 C   0  0  0  0  0  0  0  0  0  0  0  0
   -1.1040    0.9510    0.2170 C   0  0  2  0  0  0  0  0  0  0  0  0
   -0.7230    1.9710   -0.8150 C   0  0  0  0  0  0  0  0  0  0  0  0
  1  2  1  0
  2  3  2  3
  3  4  1  0
  3  5  1  0
  5  6  1  0
  5  9  1  0
  6  7  1  0
  7  8  1  0
  8  9  1  0
  9 10  1  6
M  END
