
     RDKit          3D

 10 11  0  0  0  0  0  0  0  0999 V2000
   -3.0040    0.0720   -0.0180 C   0  0  0  0  0  0  0  0  0  0  0  0
   -1.5340   -0.1730    0.0700 C   0  0  0  0  0  0  0  0  0  0  0  0
   -0.6700    0.8300   -0.3150 C   0  0  0  0  0  0  0  0  0  0  0  0
    0.7000    0.7150   -0.2760 C   0  0  0  0  0  0  0  0  0  0  0  0
    1.7710    1.5140   -0.5840 C   0  0  0  0  0  0  0  0  0  0  0  0
    2.9260    0.8140   -0.3210 C   0  0  0  0  0  0  0  0  0  0  0  0
    2.5970   -0.4360    0.1570 C   0  0  0  0  0  0  0  0  0  0  0  0
    1.2310   -0.5680    0.2120 C   0  0  0  0  0  0  0  0  0  0  0  0
    0.3180   -1.5160    0.5760 C   0  0  0  0  0  0  0  0  0  0  0  0
   -1.0150   -1.3340    0.5120 N   0  0  0  0  0  0  0  0  0  0  0  0
  1  2  1  0
  2  3  2  0
  2 10  1  0
  3  4  1  0
  4  5  2  0
  4  8  1  0
  5  6  1  0
  6  7  2  0
  7  8  1  0
  8  9  2  0
  9 10  1  0
M  END
