
     RDKit          3D

 10 11  0  0  0  0  0  0  0  0999 V2000
    2.8870   -0.4990    0.0560 C   0  0  0  0  0  0  0  0  0  0  0  0
    1.6700    0.3010   -0.1600 C   0  0  0  0  0  0  0  0  0  0  0  0
    1.5770    1.5720   -0.5690 N   0  0  0  0  0  0  0  0  0  0  0  0
    0.2920    1.9280   -0.6390 C   0  0  0  0  0  0  0  0  0  0  0  0
   -0.5140    0.8490   -0.2600 C   0  0  0  0  0  0  0  0  0  0  0  0
    0.3790   -0.1420    0.0300 C   0  0  0  0  0  0  0  0  0  0  0  0
   -0.1290   -1.4450    0.4780 C   0  0  0  0  0  0  0  0  0  0  0  0
   -1.4110   -1.6280    0.5900 C   0  0  0  0  0  0  0  0  0  0  0  0
   -2.4240   -0.6340    0.3060 C   0  0  0  0  0  0  0  0  0  0  0  0
   -1.9610    0.6750   -0.1590 C   0  0  0  0  0  0  0  0  0  0  0  0
  1  2  1  0
  2  3  1  0
  2  6  2  0
  3  4  1  0
  4  5  2  0
  5  6  1  0
  5 10  1  0
  6  7  1  0
  7  8  2  0
  8  9  1  0
  9 10  1  0
M  END
