
     RDKit          3D

 10 11  0  0  0  0  0  0  0  0999 V2000
    2.9460   -1.0020   -0.1800 C   0  0  0  0  0  0  0  0  0  0  0  0
    1.4800   -0.7240   -0.1520 C   0  0  0  0  0  0  0  0  0  0  0  0
    0.4660   -1.5790   -0.3280 N   0  0  0  0  0  0  0  0  0  0  0  0
   -0.7260   -0.9460   -0.2290 C   0  0  0  0  0  0  0  0  0  0  0  0
   -0.4740    0.3840    0.0220 C   0  0  0  0  0  0  0  0  0  0  0  0
    0.8950    0.5120    0.0680 C   0  0  0  0  0  0  0  0  0  0  0  0
    1.6180    1.8060    0.3190 C   0  0  0  0  0  0  0  0  0  0  0  0
   -1.7260    1.1640    0.1470 C   0  0  0  0  0  0  0  0  0  0  0  0
   -2.7960    0.1050    0.2900 C   0  0  0  0  0  0  0  0  0  0  0  0
   -2.2030   -1.1360   -0.2890 C   0  0  0  0  0  0  0  0  0  0  0  0
  1  2  1  0
  2  3  1  0
  2  6  2  0
  3  4  1  0
  4  5  2  0
  4 10  1  0
  5  6  1  0
  5  8  1  0
  6  7  1  0
  8  9  1  0
  9 10  1  0
M  END
