
     RDKit          3D

 23 26  0  0  0  0  0  0  0  0999 V2000
    0.8130   -2.5140    0.2050 O   0  0  0  0  0  0  0  0  0  0  0  0
    0.9610   -1.2880    0.1400 C   0  0  0  0  0  0  0  0  0  0  0  0
   -0.1820   -0.4730    0.1100 N   0  0  0  0  0  0  0  0  0  0  0  0
   -1.5370   -0.8830    0.1470 C   0  0  0  0  0  0  0  0  0  0  0  0
   -1.9570   -2.1530    0.3470 C   0  0  0  0  0  0  0  0  0  0  0  0
   -3.3170   -2.4230    0.3500 C   0  0  0  0  0  0  0  0  0  0  0  0
   -4.2590   -1.4320    0.1550 C   0  0  0  0  0  0  0  0  0  0  0  0
   -3.8550   -0.1280   -0.0510 C   0  0  0  0  0  0  0  0  0  0  0  0
   -4.8420    0.9350   -0.2600 C   0  0  0  0  0  0  0  0  0  0  0  0
   -6.1590    0.7990   -0.2780 N   0  0  0  0  0  0  0  0  0  0  0  0
   -6.7020    2.0070   -0.4980 N   0  0  0  0  0  0  0  0  0  0  0  0
   -5.7180    2.9020   -0.6170 N   0  0  0  0  0  0  0  0  0  0  0  0
   -4.5780    2.2360   -0.4700 N   0  0  0  0  0  0  0  0  0  0  0  0
   -2.5050    0.1190   -0.0510 C   0  0  0  0  0  0  0  0  0  0  0  0
    2.3420   -0.7620    0.0990 C   0  0  0  0  0  0  0  0  0  0  0  0
    3.4070   -1.6370    0.1360 C   0  0  0  0  0  0  0  0  0  0  0  0
    4.7360   -1.2100    0.1000 C   0  0  0  0  0  0  0  0  0  0  0  0
    5.0050    0.1270    0.0270 C   0  0  0  0  0  0  0  0  0  0  0  0
    6.1700    0.7960   -0.0190 N   0  0  0  0  0  0  0  0  0  0  0  0
    5.8870    2.0890   -0.0850 N   0  0  0  0  0  0  0  0  0  0  0  0
    4.5430    2.2740   -0.0820 C   0  0  0  0  0  0  0  0  0  0  0  0
    3.9640    1.0260   -0.0100 C   0  0  0  0  0  0  0  0  0  0  0  0
    2.6420    0.5730    0.0260 C   0  0  0  0  0  0  0  0  0  0  0  0
  1  2  2  0
  2  3  1  0
  2 15  1  0
  3  4  1  0
  4  5  2  0
  4 14  1  0
  5  6  1  0
  6  7  2  0
  7  8  1  0
  8  9  1  0
  8 14  2  0
  9 10  2  0
  9 13  1  0
 10 11  1  0
 11 12  2  0
 12 13  1  0
 15 16  1  0
 15 23  2  0
 16 17  2  0
 17 18  1  0
 18 19  2  0
 18 22  1  0
 19 20  1  0
 20 21  1  0
 21 22  2  0
 22 23  1  0
M  END
