
     RDKit          3D

 10 11  0  0  0  0  0  0  0  0999 V2000
    2.9720   -0.2490    0.4530 C   0  0  0  0  0  0  0  0  0  0  0  0
    1.5350   -0.0030    0.1350 C   0  0  0  0  0  0  0  0  0  0  0  0
    1.1980    1.0210   -0.7250 C   0  0  0  0  0  0  0  0  0  0  0  0
   -0.1150    1.2990   -1.0600 C   0  0  0  0  0  0  0  0  0  0  0  0
   -1.1400    0.5460   -0.5330 C   0  0  0  0  0  0  0  0  0  0  0  0
   -2.5170    0.5340   -0.6370 C   0  0  0  0  0  0  0  0  0  0  0  0
   -3.0190   -0.4960    0.1580 C   0  0  0  0  0  0  0  0  0  0  0  0
   -1.9500   -1.1280    0.7600 C   0  0  0  0  0  0  0  0  0  0  0  0
   -0.7620   -0.5350    0.3760 C   0  0  0  0  0  0  0  0  0  0  0  0
    0.5420   -0.7470    0.6570 N   0  0  0  0  0  0  0  0  0  0  0  0
  1  2  1  0
  2  3  2  0
  2 10  1  0
  3  4  1  0
  4  5  2  0
  5  6  1  0
  5  9  1  0
  6  7  2  0
  7  8  1  0
  8  9  2  0
  9 10  1  0
M  END
