
     RDKit          3D

 16 16  0  0  0  0  0  0  0  0999 V2000
   -2.3690   -2.0400    1.0790 C   0  0  0  0  0  0  0  0  0  0  0  0
   -0.9520   -1.4490    0.8360 C   0  0  0  0  0  0  0  0  0  0  0  0
   -1.1020   -0.0230    0.6230 C   0  0  0  0  0  0  0  0  0  0  0  0
   -2.0600    0.5060    1.3580 C   0  0  0  0  0  0  0  0  0  0  0  0
   -2.6080    1.8420    1.5140 N   0  0  0  0  0  0  0  0  0  0  0  0
   -2.8490    2.7540    0.5890 C   0  0  0  0  0  0  0  0  0  0  0  0
   -2.6700    2.7850   -0.8710 C   0  0  0  0  0  0  0  0  0  0  0  0
   -1.7450    2.2470   -1.6950 C   0  0  0  0  0  0  0  0  0  0  0  0
   -1.9870    2.6010   -3.5370 Br  0  0  0  0  0  0  0  0  0  0  0  0
   -0.5510    1.4460   -1.3760 C   0  0  0  0  0  0  0  0  0  0  0  0
   -0.2490    0.5010   -0.4240 C   0  0  0  0  0  0  0  0  0  0  0  0
    1.0420   -0.0540   -0.5560 C   0  0  0  0  0  0  0  0  0  0  0  0
    1.7510    0.3430   -1.8530 C   0  0  0  0  0  0  0  0  0  0  0  0
    1.6760   -0.8780    0.2130 C   0  0  0  0  0  0  0  0  0  0  0  0
    3.0570   -1.4310   -0.0030 C   0  0  0  0  0  0  0  0  0  0  0  0
    3.8350   -1.0150    1.1720 N   0  0  0  0  0  0  0  0  0  0  0  0
  1  2  1  0
  2  3  1  0
  3  4  2  0
  3 11  1  0
  4  5  1  0
  5  6  2  0
  6  7  1  0
  7  8  2  0
  8  9  1  0
  8 10  1  0
 10 11  2  0
 11 12  1  0
 12 13  1  0
 12 14  2  3
 14 15  1  0
 15 16  1  0
M  CHG  1  16   1
M  END
