
     RDKit          3D

 16 17  0  0  0  0  0  0  0  0999 V2000
    4.8750   -0.5260    0.0990 C   0  0  0  0  0  0  0  0  0  0  0  0
    3.4340   -0.1270   -0.0550 C   0  0  0  0  0  0  0  0  0  0  0  0
    2.4050   -0.8950    0.4470 C   0  0  0  0  0  0  0  0  0  0  0  0
    1.0760   -0.5480    0.3170 C   0  0  0  0  0  0  0  0  0  0  0  0
    0.0520   -1.3230    0.8220 C   0  0  0  0  0  0  0  0  0  0  0  0
    0.4610   -2.8050    1.6600 Cl  0  0  0  0  0  0  0  0  0  0  0  0
   -1.2830   -0.9750    0.6920 C   0  0  0  0  0  0  0  0  0  0  0  0
   -1.5870    0.2130    0.0190 C   0  0  0  0  0  0  0  0  0  0  0  0
   -3.0220    0.5880   -0.1210 C   0  0  1  0  0  0  0  0  0  0  0  0
   -3.6070   -0.3230   -1.1830 C   0  0  0  0  0  0  0  0  0  0  0  0
   -3.6440    0.3750    1.1690 N   0  0  0  0  0  0  0  0  0  0  0  0
   -0.5770    1.0130   -0.5000 C   0  0  0  0  0  0  0  0  0  0  0  0
    0.7410    0.6240   -0.3450 C   0  0  0  0  0  0  0  0  0  0  0  0
    1.7610    1.4040   -0.8530 C   0  0  0  0  0  0  0  0  0  0  0  0
    3.0970    1.0380   -0.7120 C   0  0  0  0  0  0  0  0  0  0  0  0
    4.3830    2.0380   -1.3620 Cl  0  0  0  0  0  0  0  0  0  0  0  0
  1  2  1  0
  2  3  2  0
  2 15  1  0
  3  4  1  0
  4  5  2  0
  4 13  1  0
  5  6  1  0
  5  7  1  0
  7  8  2  0
  8  9  1  0
  8 12  1  0
  9 10  1  6
  9 11  1  0
 12 13  2  0
 13 14  1  0
 14 15  2  0
 15 16  1  0
M  CHG  1  11   1
M  END
