
     RDKit          3D

 16 17  0  0  0  0  0  0  0  0999 V2000
    4.9910    1.0960    0.4120 Cl  0  0  0  0  0  0  0  0  0  0  0  0
    4.9320   -0.4330   -0.4050 C   0  0  0  0  0  0  0  0  0  0  0  0
    6.3950   -1.1190   -1.0540 Cl  0  0  0  0  0  0  0  0  0  0  0  0
    3.7970   -1.0910   -0.5400 C   0  0  0  0  0  0  0  0  0  0  0  0
    2.5990   -0.4770    0.0360 C   0  0  0  0  0  0  0  0  0  0  0  0
    2.6040   -0.0070    1.3330 C   0  0  0  0  0  0  0  0  0  0  0  0
    1.5140    0.6140    1.9010 C   0  0  0  0  0  0  0  0  0  0  0  0
    0.3780    0.7750    1.1500 C   0  0  0  0  0  0  0  0  0  0  0  0
    0.3570    0.3110   -0.1450 C   0  0  0  0  0  0  0  0  0  0  0  0
   -0.8600    0.4670   -0.9420 C   0  0  0  0  0  0  0  0  0  0  0  0
   -2.0470    0.1140   -0.5520 C   0  0  0  0  0  0  0  0  0  0  0  0
   -3.3140    0.2570   -1.3190 C   0  0  0  0  0  0  0  0  0  0  0  0
   -4.2820    0.3210   -0.4250 C   0  0  0  0  0  0  0  0  0  0  0  0
   -3.7570    0.2320    0.8890 N   0  0  0  0  0  0  0  0  0  0  0  0
   -2.5250   -0.5400    0.6820 C   0  0  0  0  0  0  0  0  0  0  0  0
    1.4650   -0.3190   -0.7170 C   0  0  0  0  0  0  0  0  0  0  0  0
  1  2  1  0
  2  3  1  0
  2  4  2  3
  4  5  1  0
  5  6  2  0
  5 16  1  0
  6  7  1  0
  7  8  2  0
  8  9  1  0
  9 10  1  0
  9 16  2  0
 10 11  2  3
 11 12  1  0
 11 15  1  0
 12 13  2  0
 13 14  1  0
 14 15  1  0
M  CHG  1  14   1
M  END
