
     RDKit          3D

 16 16  0  0  0  0  0  0  0  0999 V2000
    0.7740    3.8190    0.1490 C   0  0  0  0  0  0  0  0  0  0  0  0
    1.3240    2.5260    0.5250 C   0  0  0  0  0  0  0  0  0  0  0  0
    1.1530    1.2940    0.4930 C   0  0  0  0  0  0  0  0  0  0  0  0
    0.3810    0.1560    0.1200 C   0  0  0  0  0  0  0  0  0  0  0  0
    1.0200   -1.0280    0.4890 C   0  0  0  0  0  0  0  0  0  0  0  0
    2.2720   -1.1430    1.1430 C   0  0  0  0  0  0  0  0  0  0  0  0
    2.6760   -2.4240    1.3980 C   0  0  0  0  0  0  0  0  0  0  0  0
    3.9570   -2.6780    2.0720 C   0  0  0  0  0  0  0  0  0  0  0  0
    1.5890   -3.8910    0.8880 Br  0  0  0  0  0  0  0  0  0  0  0  0
   -0.8110   -0.1380   -0.5970 C   0  0  0  0  0  0  0  0  0  0  0  0
   -1.7520    0.6700   -1.0300 C   0  0  0  0  0  0  0  0  0  0  0  0
   -1.6380    2.0290   -0.7830 N   0  0  0  0  0  0  0  0  0  0  0  0
   -2.9470    0.0810   -1.7600 C   0  0  0  0  0  0  0  0  0  0  0  0
   -3.4480   -1.1560   -1.0480 C   0  0  0  0  0  0  0  0  0  0  0  0
   -2.3650   -1.9050   -0.4250 N   0  0  0  0  0  0  0  0  0  0  0  0
   -1.1450   -1.5750   -1.0800 C   0  0  0  0  0  0  0  0  0  0  0  0
  1  2  1  0
  2  3  2  3
  3  4  1  0
  4  5  2  3
  4 10  1  0
  5  6  1  0
  6  7  2  3
  7  8  1  0
  7  9  1  0
 10 11  2  0
 10 16  1  0
 11 12  1  0
 11 13  1  0
 13 14  1  0
 14 15  1  0
 15 16  1  0
M  CHG  1  12   1
M  END
