
     RDKit          3D

 16 16  0  0  0  0  0  0  0  0999 V2000
    2.4420   -0.2260    1.7240 C   0  0  0  0  0  0  0  0  0  0  0  0
    2.4650    0.3090    0.3080 C   0  0  1  0  0  0  0  0  0  0  0  0
    3.0620    1.7010    0.3700 C   0  0  0  0  0  0  0  0  0  0  0  0
    3.2090   -0.5670   -0.5560 N   0  0  0  0  0  0  0  0  0  0  0  0
    1.0750    0.4510   -0.2690 C   0  0  0  0  0  0  0  0  0  0  0  0
    0.3700   -0.8900   -0.2990 C   0  0  0  0  0  0  0  0  0  0  0  0
   -1.0240   -0.7820   -0.8720 C   0  0  2  0  0  0  0  0  0  0  0  0
   -1.5870   -2.2150   -0.8290 C   0  0  0  0  0  0  0  0  0  0  0  0
   -1.0170   -0.3890   -2.3150 C   0  0  0  0  0  0  0  0  0  0  0  0
   -1.9310    0.0220   -0.0330 C   0  0  0  0  0  0  0  0  0  0  0  0
   -2.5550    1.1380   -0.3570 C   0  0  0  0  0  0  0  0  0  0  0  0
   -2.4510    1.9480   -1.8950 Cl  0  0  0  0  0  0  0  0  0  0  0  0
   -3.3720    1.6230    0.7900 C   0  0  0  0  0  0  0  0  0  0  0  0
   -3.1120    0.5970    1.8280 C   0  0  0  0  0  0  0  0  0  0  0  0
   -2.2830   -0.3170    1.3410 C   0  0  0  0  0  0  0  0  0  0  0  0
   -1.7120   -1.7260    2.2500 Cl  0  0  0  0  0  0  0  0  0  0  0  0
  2  1  1  1
  2  3  1  0
  2  4  1  0
  2  5  1  0
  5  6  1  0
  6  7  1  0
  7  8  1  6
  7  9  1  0
  7 10  1  0
 10 11  2  0
 10 15  1  0
 11 12  1  0
 11 13  1  0
 13 14  1  0
 14 15  2  0
 15 16  1  0
M  END
