
     RDKit          3D

 16 17  0  0  0  0  0  0  0  0999 V2000
    4.6310   -0.1560   -0.3360 C   0  0  0  0  0  0  0  0  0  0  0  0
    3.1480   -0.1150   -0.2060 C   0  0  0  0  0  0  0  0  0  0  0  0
    2.3360   -0.1110   -1.3290 C   0  0  0  0  0  0  0  0  0  0  0  0
    3.1000   -0.1560   -2.9050 Cl  0  0  0  0  0  0  0  0  0  0  0  0
    0.9610   -0.0730   -1.2020 C   0  0  0  0  0  0  0  0  0  0  0  0
    0.3300   -0.0370    0.0560 C   0  0  0  0  0  0  0  0  0  0  0  0
   -1.0820    0.0420    0.0860 C   0  0  1  0  0  0  0  0  0  0  0  0
   -1.4940    1.3120    0.7100 N   0  0  0  0  0  0  0  0  0  0  0  0
   -1.6260    0.0790   -1.3460 C   0  0  0  0  0  0  0  0  0  0  0  0
   -3.1340    0.1100   -1.1670 C   0  0  0  0  0  0  0  0  0  0  0  0
   -3.3350   -0.5090    0.1750 C   0  0  0  0  0  0  0  0  0  0  0  0
   -1.9560   -0.9890    0.6760 C   0  0  0  0  0  0  0  0  0  0  0  0
    1.1320   -0.0420    1.1730 C   0  0  0  0  0  0  0  0  0  0  0  0
    0.5040   -0.0340    2.4860 C   0  0  0  0  0  0  0  0  0  0  0  0
    2.5300   -0.0810    1.0210 C   0  0  0  0  0  0  0  0  0  0  0  0
    3.5130   -0.0840    2.4530 Cl  0  0  0  0  0  0  0  0  0  0  0  0
  1  2  1  0
  2  3  2  0
  2 15  1  0
  3  4  1  0
  3  5  1  0
  5  6  2  0
  6  7  1  0
  6 13  1  0
  7  8  1  1
  7  9  1  0
  7 12  1  0
  9 10  1  0
 10 11  1  0
 11 12  1  0
 13 14  1  0
 13 15  2  0
 15 16  1  0
M  CHG  1   8   1
M  END
