
     RDKit          3D

 16 17  0  0  0  0  0  0  0  0999 V2000
   -2.9210   -0.9920   -1.5670 C   0  0  0  0  0  0  0  0  0  0  0  0
   -2.7470   -0.1920   -0.5500 C   0  0  0  0  0  0  0  0  0  0  0  0
   -3.6280    0.9590   -0.1900 C   0  0  0  0  0  0  0  0  0  0  0  0
   -3.5150    0.9040    1.3350 C   0  0  0  0  0  0  0  0  0  0  0  0
   -2.0920    0.4530    1.5030 C   0  0  0  0  0  0  0  0  0  0  0  0
   -1.6710   -0.1630    0.4120 C   0  0  0  0  0  0  0  0  0  0  0  0
   -0.3780   -0.7170    0.2970 N   0  0  0  0  0  0  0  0  0  0  0  0
    0.5250    0.0130   -0.5310 C   0  0  0  0  0  0  0  0  0  0  0  0
    1.9750   -0.0620   -0.2370 C   0  0  0  0  0  0  0  0  0  0  0  0
    2.6240    0.5740    0.7700 C   0  0  0  0  0  0  0  0  0  0  0  0
    4.0150    0.5390    0.8790 C   0  0  0  0  0  0  0  0  0  0  0  0
    4.9230    1.3560    2.1210 Cl  0  0  0  0  0  0  0  0  0  0  0  0
    4.7830   -0.1570   -0.0450 C   0  0  0  0  0  0  0  0  0  0  0  0
    4.1540   -0.8110   -1.0680 C   0  0  0  0  0  0  0  0  0  0  0  0
    2.7410   -0.7390   -1.1280 C   0  0  0  0  0  0  0  0  0  0  0  0
    1.9950   -1.6650   -2.4280 Cl  0  0  0  0  0  0  0  0  0  0  0  0
  1  2  2  0
  2  3  1  0
  2  6  1  0
  3  4  1  0
  4  5  1  0
  5  6  2  0
  6  7  1  0
  7  8  1  0
  8  9  1  0
  9 10  2  0
  9 15  1  0
 10 11  1  0
 11 12  1  0
 11 13  2  0
 13 14  1  0
 14 15  2  0
 15 16  1  0
M  CHG  1   7   1
M  END
