
     RDKit          3D

 24 26  0  0  0  0  0  0  0  0999 V2000
   -5.5070    0.6590    1.6870 C   0  0  0  0  0  0  0  0  0  0  0  0
   -4.2480    0.5100    0.9390 N   0  0  2  0  0  0  0  0  0  0  0  0
   -3.7400    1.8560    0.7650 C   0  0  0  0  0  0  0  0  0  0  0  0
   -4.5390   -0.0330   -0.3610 C   0  0  0  0  0  0  0  0  0  0  0  0
   -3.3170   -0.4210   -1.1020 C   0  0  0  0  0  0  0  0  0  0  0  0
   -3.4090   -0.9830   -2.3610 C   0  0  0  0  0  0  0  0  0  0  0  0
   -2.2970   -1.3560   -3.0800 C   0  0  0  0  0  0  0  0  0  0  0  0
   -1.0430   -1.1770   -2.5590 C   0  0  0  0  0  0  0  0  0  0  0  0
   -0.8980   -0.6250   -1.3180 C   0  0  0  0  0  0  0  0  0  0  0  0
    0.4370   -0.4280   -0.7350 C   0  0  0  0  0  0  0  0  0  0  0  0
    0.4920    0.2750    0.3030 O   0  0  0  0  0  0  0  0  0  0  0  0
    1.6280   -0.9550   -1.2390 N   0  0  0  0  0  0  0  0  0  0  0  0
    2.9330   -0.8050   -0.7320 C   0  0  0  0  0  0  0  0  0  0  0  0
    3.9640   -1.4440   -1.4370 C   0  0  0  0  0  0  0  0  0  0  0  0
    5.2760   -1.3720   -1.0430 C   0  0  0  0  0  0  0  0  0  0  0  0
    5.6070   -0.6620    0.0670 C   0  0  0  0  0  0  0  0  0  0  0  0
    4.6440   -0.0120    0.8020 C   0  0  0  0  0  0  0  0  0  0  0  0
    4.9610    0.7590    1.9980 C   0  0  0  0  0  0  0  0  0  0  0  0
    4.1350    1.4370    2.8060 N   0  0  0  0  0  0  0  0  0  0  0  0
    4.8470    1.9970    3.7800 N   0  0  0  0  0  0  0  0  0  0  0  0
    6.1170    1.6810    3.6000 N   0  0  0  0  0  0  0  0  0  0  0  0
    6.1890    0.9220    2.5060 N   0  0  0  0  0  0  0  0  0  0  0  0
    3.3210   -0.1110    0.3660 C   0  0  0  0  0  0  0  0  0  0  0  0
   -2.0370   -0.2620   -0.6250 C   0  0  0  0  0  0  0  0  0  0  0  0
  2  1  1  1
  2  3  1  0
  2  4  1  0
  4  5  1  0
  5  6  2  0
  5 24  1  0
  6  7  1  0
  7  8  2  0
  8  9  1  0
  9 10  1  0
  9 24  2  0
 10 11  2  0
 10 12  1  0
 12 13  1  0
 13 14  2  0
 13 23  1  0
 14 15  1  0
 15 16  2  0
 16 17  1  0
 17 18  1  0
 17 23  2  0
 18 19  1  0
 18 22  2  0
 19 20  2  0
 20 21  1  0
 21 22  1  0
M  CHG  1   2   1
M  END
