
     RDKit          3D

 24 27  0  0  0  0  0  0  0  0999 V2000
    6.2230   -0.1200   -1.3910 C   0  0  0  0  0  0  0  0  0  0  0  0
    5.0140   -0.0260   -0.5270 C   0  0  0  0  0  0  0  0  0  0  0  0
    5.0610   -0.6950    0.6750 C   0  0  0  0  0  0  0  0  0  0  0  0
    3.9820   -0.6470    1.5150 C   0  0  0  0  0  0  0  0  0  0  0  0
    2.8570    0.0950    1.1050 C   0  0  0  0  0  0  0  0  0  0  0  0
    2.8200    0.7500   -0.0800 C   0  0  0  0  0  0  0  0  0  0  0  0
    1.6860    1.5430   -0.5800 C   0  0  0  0  0  0  0  0  0  0  0  0
    0.7060    0.7770   -1.3820 C   0  0  0  0  0  0  0  0  0  0  0  0
   -0.0680   -0.3090   -0.7070 C   0  0  0  0  0  0  0  0  0  0  0  0
   -0.9880    0.0940    0.3070 N   0  0  0  0  0  0  0  0  0  0  0  0
   -0.9170    0.6550    1.6200 C   0  0  0  0  0  0  0  0  0  0  0  0
   -2.0280    1.7260    1.5390 C   0  0  0  0  0  0  0  0  0  0  0  0
   -3.0570    0.9340    0.8230 C   0  0  0  0  0  0  0  0  0  0  0  0
   -4.3970    0.7970    0.6070 N   0  0  0  0  0  0  0  0  0  0  0  0
   -4.6320   -0.2290   -0.2310 C   0  0  0  0  0  0  0  0  0  0  0  0
   -5.7800   -0.7860   -0.7670 C   0  0  0  0  0  0  0  0  0  0  0  0
   -6.8970   -0.2750   -0.4470 O   0  0  0  0  0  0  0  0  0  0  0  0
   -5.7590   -1.8380   -1.6050 N   0  0  0  0  0  0  0  0  0  0  0  0
   -4.5310   -2.3400   -1.9070 C   0  0  0  0  0  0  0  0  0  0  0  0
   -4.5450   -3.3310   -2.7000 O   0  0  0  0  0  0  0  0  0  0  0  0
   -3.3940   -1.8180   -1.4000 N   0  0  0  0  0  0  0  0  0  0  0  0
   -3.4070   -0.7700   -0.5650 C   0  0  0  0  0  0  0  0  0  0  0  0
   -2.4290   -0.0460    0.0890 C   0  0  0  0  0  0  0  0  0  0  0  0
    3.9220    0.6630   -0.8670 N   0  0  0  0  0  0  0  0  0  0  0  0
  1  2  1  0
  2  3  2  0
  2 24  1  0
  3  4  1  0
  4  5  2  0
  5  6  1  0
  6  7  1  0
  6 24  2  0
  7  8  1  0
  8  9  1  0
  9 10  1  0
 10 11  1  0
 10 23  1  0
 11 12  1  0
 12 13  1  0
 13 14  1  0
 13 23  2  0
 14 15  1  0
 15 16  1  0
 15 22  2  0
 16 17  2  0
 16 18  1  0
 18 19  1  0
 19 20  2  0
 19 21  1  0
 21 22  1  0
 22 23  1  0
M  CHG  1  24   1
M  END
