
     RDKit          3D

 24 27  0  0  0  0  0  0  0  0999 V2000
    6.2860    0.0360    0.9070 C   0  0  0  0  0  0  0  0  0  0  0  0
    5.3490   -1.0840    0.9030 C   0  0  0  0  0  0  0  0  0  0  0  0
    5.4990   -2.0730    1.6590 O   0  0  0  0  0  0  0  0  0  0  0  0
    4.2340   -1.0730    0.0290 N   0  0  0  0  0  0  0  0  0  0  0  0
    3.2720   -2.1580   -0.0180 C   0  0  0  0  0  0  0  0  0  0  0  0
    1.9140   -1.6470    0.3190 C   0  0  0  0  0  0  0  0  0  0  0  0
    1.7500   -0.1550   -0.0160 C   0  0  2  0  0  0  0  0  0  0  0  0
    0.3140    0.0970   -0.0830 C   0  0  0  0  0  0  0  0  0  0  0  0
   -0.2480    0.5230   -1.1990 C   0  0  0  0  0  0  0  0  0  0  0  0
   -1.6360    0.8500   -1.5390 C   0  0  0  0  0  0  0  0  0  0  0  0
   -2.6790    0.7660   -0.7040 C   0  0  0  0  0  0  0  0  0  0  0  0
   -3.9070    1.1670   -1.3790 C   0  0  0  0  0  0  0  0  0  0  0  0
   -5.0210    1.1430   -0.7050 N   0  0  0  0  0  0  0  0  0  0  0  0
   -5.0830    0.7520    0.6250 N   0  0  0  0  0  0  0  0  0  0  0  0
   -6.3270    0.7450    1.3130 C   0  0  0  0  0  0  0  0  0  0  0  0
   -3.9030    0.3580    1.3040 C   0  0  0  0  0  0  0  0  0  0  0  0
   -3.9730   -0.0340    2.6430 N   0  0  0  0  0  0  0  0  0  0  0  0
   -2.7260    0.3520    0.6930 C   0  0  0  0  0  0  0  0  0  0  0  0
   -1.6030   -0.0770    1.5160 C   0  0  0  0  0  0  0  0  0  0  0  0
   -0.3710   -0.1600    1.1350 N   0  0  0  0  0  0  0  0  0  0  0  0
   -3.4890    1.5160   -2.7600 C   0  0  0  0  0  0  0  0  0  0  0  0
   -2.0920    1.2940   -2.7710 O   0  0  0  0  0  0  0  0  0  0  0  0
    2.5270    0.0910   -1.2470 C   0  0  0  0  0  0  0  0  0  0  0  0
    4.0140    0.0350   -0.8590 C   0  0  0  0  0  0  0  0  0  0  0  0
  1  2  1  0
  2  3  2  0
  2  4  1  0
  4  5  1  0
  4 24  1  0
  5  6  1  0
  6  7  1  0
  7  8  1  6
  7 23  1  0
  8  9  2  0
  8 20  1  0
  9 10  1  0
 10 11  2  0
 10 22  1  0
 11 12  1  0
 11 18  1  0
 12 13  2  0
 12 21  1  0
 13 14  1  0
 14 15  1  0
 14 16  1  0
 16 17  1  0
 16 18  2  0
 18 19  1  0
 19 20  2  0
 21 22  1  0
 23 24  1  0
M  END
