
     RDKit          3D

 24 28  0  0  0  0  0  0  0  0999 V2000
    3.8450   -2.7670    1.5470 O   0  0  0  0  0  0  0  0  0  0  0  0
    3.6980   -1.6830    0.8850 C   0  0  0  0  0  0  0  0  0  0  0  0
    4.8500   -1.0570    0.4330 O   0  0  0  0  0  0  0  0  0  0  0  0
    4.9290    0.1120   -0.3030 C   0  0  0  0  0  0  0  0  0  0  0  0
    6.2410    0.4620   -0.5990 C   0  0  0  0  0  0  0  0  0  0  0  0
    6.5560    1.5810   -1.3170 C   0  0  0  0  0  0  0  0  0  0  0  0
    5.5720    2.3840   -1.7620 N   0  0  0  0  0  0  0  0  0  0  0  0
    4.3010    2.0860   -1.5010 C   0  0  0  0  0  0  0  0  0  0  0  0
    3.9500    0.9710   -0.7830 C   0  0  0  0  0  0  0  0  0  0  0  0
    2.5240    0.8560   -0.6280 N   0  0  0  0  0  0  0  0  0  0  0  0
    1.8570   -0.0580   -0.0190 C   0  0  0  0  0  0  0  0  0  0  0  0
    0.4620    0.2160   -0.1080 N   0  0  0  0  0  0  0  0  0  0  0  0
   -0.4770   -0.6790    0.5050 C   0  0  0  0  0  0  0  0  0  0  0  0
   -1.8930   -0.3590    0.3880 C   0  0  0  0  0  0  0  0  0  0  0  0
   -2.9470   -1.0900    0.9060 C   0  0  0  0  0  0  0  0  0  0  0  0
   -4.0990   -0.4500    0.5740 C   0  0  0  0  0  0  0  0  0  0  0  0
   -3.7710    0.6740   -0.1460 C   0  0  0  0  0  0  0  0  0  0  0  0
   -2.4350    0.6980   -0.2390 N   0  0  0  0  0  0  0  0  0  0  0  0
   -5.0570    1.3480   -0.4900 C   0  0  0  0  0  0  0  0  0  0  0  0
   -5.9770    0.2340   -0.5180 N   0  0  0  0  0  0  0  0  0  0  0  0
   -5.6030   -0.4910    0.6880 C   0  0  0  0  0  0  0  0  0  0  0  0
   -0.0250   -1.7400    1.1390 C   0  0  0  0  0  0  0  0  0  0  0  0
    1.4140   -2.0390    1.2410 C   0  0  0  0  0  0  0  0  0  0  0  0
    2.3190   -1.2420    0.6920 C   0  0  0  0  0  0  0  0  0  0  0  0
  1  2  2  0
  2  3  1  0
  2 24  1  0
  3  4  1  0
  4  5  2  0
  4  9  1  0
  5  6  1  0
  6  7  2  0
  7  8  1  0
  8  9  2  0
  9 10  1  0
 10 11  2  0
 11 12  1  0
 11 24  1  0
 12 13  1  0
 13 14  1  0
 13 22  2  0
 14 15  2  0
 14 18  1  0
 15 16  1  0
 16 17  2  0
 16 21  1  0
 17 18  1  0
 17 19  1  0
 19 20  1  0
 20 21  1  0
 22 23  1  0
 23 24  2  0
M  CHG  1  20   1
M  END
