
     RDKit          3D

 24 28  0  0  0  0  0  0  0  0999 V2000
   -5.4490    3.1330   -0.3060 O   0  0  0  0  0  0  0  0  0  0  0  0
   -4.9810    1.9850   -0.1020 C   0  0  0  0  0  0  0  0  0  0  0  0
   -5.7190    0.8640    0.3600 N   0  0  0  0  0  0  0  0  0  0  0  0
   -4.8560   -0.2710    0.4740 C   0  0  0  0  0  0  0  0  0  0  0  0
   -5.1560   -1.4370    0.8520 O   0  0  0  0  0  0  0  0  0  0  0  0
   -3.5380    0.2000    0.0580 C   0  0  0  0  0  0  0  0  0  0  0  0
   -3.6070    1.5510   -0.2880 C   0  0  0  0  0  0  0  0  0  0  0  0
   -2.4960    2.2480   -0.7190 C   0  0  0  0  0  0  0  0  0  0  0  0
   -1.2870    1.5660   -0.8020 C   0  0  0  0  0  0  0  0  0  0  0  0
   -1.2250    0.2280   -0.4580 C   0  0  0  0  0  0  0  0  0  0  0  0
   -2.3380   -0.4650   -0.0280 C   0  0  0  0  0  0  0  0  0  0  0  0
   -2.1430   -1.8980    0.3120 C   0  0  0  0  0  0  0  0  0  0  0  0
   -0.9050   -2.0180    1.1550 C   0  0  0  0  0  0  0  0  0  0  0  0
    0.2000   -1.2350    0.7220 N   0  0  0  0  0  0  0  0  0  0  0  0
    1.4770   -1.8710    0.9000 C   0  0  0  0  0  0  0  0  0  0  0  0
    2.5340   -0.9290    0.4010 C   0  0  0  0  0  0  0  0  0  0  0  0
    3.1660    0.0100    1.1430 N   0  0  0  0  0  0  0  0  0  0  0  0
    4.0630    0.6920    0.3980 C   0  0  0  0  0  0  0  0  0  0  0  0
    5.0150    1.6950    0.3760 C   0  0  0  0  0  0  0  0  0  0  0  0
    5.4910    1.7470   -0.8810 N   0  0  0  0  0  0  0  0  0  0  0  0
    4.8790    0.8230   -1.6410 C   0  0  0  0  0  0  0  0  0  0  0  0
    3.9560    0.1200   -0.8760 C   0  0  0  0  0  0  0  0  0  0  0  0
    3.0310   -0.8500   -0.8400 N   0  0  0  0  0  0  0  0  0  0  0  0
    0.0390   -0.5630   -0.5250 C   0  0  0  0  0  0  0  0  0  0  0  0
  1  2  2  0
  2  3  1  0
  2  7  1  0
  3  4  1  0
  4  5  2  0
  4  6  1  0
  6  7  2  0
  6 11  1  0
  7  8  1  0
  8  9  2  0
  9 10  1  0
 10 11  2  0
 10 24  1  0
 11 12  1  0
 12 13  1  0
 13 14  1  0
 14 15  1  0
 14 24  1  0
 15 16  1  0
 16 17  1  0
 16 23  2  0
 17 18  1  0
 18 19  2  0
 18 22  1  0
 19 20  1  0
 20 21  1  0
 21 22  2  0
 22 23  1  0
M  CHG  1  23   1
M  END
