
     RDKit          3D

 24 27  0  0  0  0  0  0  0  0999 V2000
    5.1400   -0.3450   -1.7000 O   0  0  0  0  0  0  0  0  0  0  0  0
    3.9510   -0.5040   -1.3200 C   0  0  0  0  0  0  0  0  0  0  0  0
    2.9440   -1.1040   -1.9550 N   0  0  0  0  0  0  0  0  0  0  0  0
    1.8310   -1.0640   -1.2120 C   0  0  0  0  0  0  0  0  0  0  0  0
    0.6500   -1.5610   -1.5300 C   0  0  0  0  0  0  0  0  0  0  0  0
   -0.5100   -1.4690   -0.6540 C   0  0  0  0  0  0  0  0  0  0  0  0
   -0.6110   -2.3320    0.4230 C   0  0  0  0  0  0  0  0  0  0  0  0
   -1.7140   -2.2410    1.2500 C   0  0  0  0  0  0  0  0  0  0  0  0
   -2.6900   -1.3290    1.0270 N   0  0  0  0  0  0  0  0  0  0  0  0
   -2.5720   -0.5020   -0.0240 C   0  0  0  0  0  0  0  0  0  0  0  0
   -3.6200    0.5330   -0.3290 C   0  0  2  0  0  0  0  0  0  0  0  0
   -3.8560    1.4430    0.8280 C   0  0  0  0  0  0  0  0  0  0  0  0
   -5.3470    1.6940    0.7670 C   0  0  0  0  0  0  0  0  0  0  0  0
   -5.8690    0.2840    0.4880 C   0  0  0  0  0  0  0  0  0  0  0  0
   -4.9590   -0.1500   -0.6310 C   0  0  0  0  0  0  0  0  0  0  0  0
   -1.5060   -0.5870   -0.8270 N   0  0  0  0  0  0  0  0  0  0  0  0
    2.1480   -0.4090   -0.0560 N   0  0  0  0  0  0  0  0  0  0  0  0
    3.4370   -0.0620   -0.1100 C   0  0  0  0  0  0  0  0  0  0  0  0
    4.1010    0.5890    0.8330 C   0  0  0  0  0  0  0  0  0  0  0  0
    5.5080    0.9120    0.6590 C   0  0  0  0  0  0  0  0  0  0  0  0
    6.5470    0.4750    1.4550 C   0  0  0  0  0  0  0  0  0  0  0  0
    7.6940    0.9820    0.9780 N   0  0  0  0  0  0  0  0  0  0  0  0
    7.3500    1.7180   -0.0940 C   0  0  0  0  0  0  0  0  0  0  0  0
    6.0620    1.6690   -0.2720 O   0  0  0  0  0  0  0  0  0  0  0  0
  1  2  2  0
  2  3  1  0
  2 18  1  0
  3  4  1  0
  4  5  2  3
  4 17  1  0
  5  6  1  0
  6  7  2  0
  6 16  1  0
  7  8  1  0
  8  9  2  0
  9 10  1  0
 11 10  1  1
 10 16  2  0
 11 12  1  0
 11 15  1  0
 12 13  1  0
 13 14  1  0
 14 15  1  0
 17 18  1  0
 18 19  2  3
 19 20  1  0
 20 21  2  0
 20 24  1  0
 21 22  1  0
 22 23  2  0
 23 24  1  0
M  CHG  1  16   1
M  END
