
     RDKit          3D

 23 26  0  0  0  0  0  0  0  0999 V2000
   -1.4640   -1.6320    0.1990 C   0  0  0  0  0  0  0  0  0  0  0  0
   -1.8160   -0.4760    0.9780 N   0  0  0  0  0  0  0  0  0  0  0  0
   -3.2050   -0.0630    0.9660 C   0  0  0  0  0  0  0  0  0  0  0  0
   -3.3790    0.9070   -0.1680 C   0  0  2  0  0  0  0  0  0  0  0  0
   -4.8240    1.3260   -0.3420 C   0  0  0  0  0  0  0  0  0  0  0  0
   -5.3770    0.1760   -1.1570 C   0  0  0  0  0  0  0  0  0  0  0  0
   -4.1390   -0.4610   -1.7140 C   0  0  0  0  0  0  0  0  0  0  0  0
   -3.0720    0.3740   -1.3990 O   0  0  0  0  0  0  0  0  0  0  0  0
   -0.8150    0.1980    1.7090 C   0  0  0  0  0  0  0  0  0  0  0  0
   -1.1210    1.2000    2.3840 O   0  0  0  0  0  0  0  0  0  0  0  0
    0.5580   -0.2680    1.6790 C   0  0  0  0  0  0  0  0  0  0  0  0
    1.1800   -1.1750    2.5080 C   0  0  0  0  0  0  0  0  0  0  0  0
    2.4540   -1.3270    2.1400 N   0  0  0  0  0  0  0  0  0  0  0  0
    2.6590   -0.5280    1.0820 N   0  0  0  0  0  0  0  0  0  0  0  0
    1.5530    0.1330    0.7630 C   0  0  0  0  0  0  0  0  0  0  0  0
    1.4930    1.0970   -0.3240 C   0  0  0  0  0  0  0  0  0  0  0  0
    2.6420    1.1350   -1.2450 C   0  0  0  0  0  0  0  0  0  0  0  0
    3.8770    0.4790   -0.8010 C   0  0  0  0  0  0  0  0  0  0  0  0
    5.0190    0.6520   -1.4760 C   0  0  0  0  0  0  0  0  0  0  0  0
    6.1600    0.0380   -1.0540 O   0  0  0  0  0  0  0  0  0  0  0  0
    6.2450   -0.9180   -0.0400 C   0  0  0  0  0  0  0  0  0  0  0  0
    4.9760   -1.0300    0.7070 C   0  0  0  0  0  0  0  0  0  0  0  0
    3.8880   -0.4050    0.3390 C   0  0  0  0  0  0  0  0  0  0  0  0
  1  2  1  0
  2  3  1  0
  2  9  1  0
  4  3  1  1
  4  5  1  0
  4  8  1  0
  5  6  1  0
  6  7  1  0
  7  8  1  0
  9 10  2  0
  9 11  1  0
 11 12  1  0
 11 15  2  0
 12 13  2  0
 13 14  1  0
 14 15  1  0
 14 23  1  0
 15 16  1  0
 16 17  1  0
 17 18  1  0
 18 19  2  0
 18 23  1  0
 19 20  1  0
 20 21  1  0
 21 22  1  0
 22 23  2  0
M  END
