
     RDKit          3D

 23 26  0  0  0  0  0  0  0  0999 V2000
    5.6880   -0.7140   -1.6270 C   0  0  0  0  0  0  0  0  0  0  0  0
    4.4920   -0.3000   -0.8350 C   0  0  0  0  0  0  0  0  0  0  0  0
    3.4040    0.2910   -1.4410 C   0  0  0  0  0  0  0  0  0  0  0  0
    2.2790    0.6840   -0.7140 C   0  0  0  0  0  0  0  0  0  0  0  0
    1.1140    1.2630   -1.0340 N   0  0  0  0  0  0  0  0  0  0  0  0
    0.3760    1.4180    0.0800 C   0  0  0  0  0  0  0  0  0  0  0  0
    1.1000    0.9280    1.0920 N   0  0  0  0  0  0  0  0  0  0  0  0
    2.3020    0.4550    0.6420 C   0  0  0  0  0  0  0  0  0  0  0  0
    3.3930   -0.1360    1.2440 C   0  0  0  0  0  0  0  0  0  0  0  0
    4.5090   -0.5260    0.5250 C   0  0  0  0  0  0  0  0  0  0  0  0
    5.6910   -1.1650    1.1680 C   0  0  0  0  0  0  0  0  0  0  0  0
    0.3610    1.0590    2.3170 C   0  0  0  0  0  0  0  0  0  0  0  0
   -0.5180    2.2560    2.0440 C   0  0  0  0  0  0  0  0  0  0  0  0
   -0.9420    1.9370    0.6070 C   0  0  2  0  0  0  0  0  0  0  0  0
   -1.8740    0.8550    0.5330 N   0  0  0  0  0  0  0  0  0  0  0  0
   -3.0740    1.0450   -0.2020 C   0  0  0  0  0  0  0  0  0  0  0  0
   -3.2830    2.1530   -0.7640 O   0  0  0  0  0  0  0  0  0  0  0  0
   -4.1020   -0.0350   -0.3300 C   0  0  2  0  0  0  0  0  0  0  0  0
   -3.5040   -1.3350   -0.7810 C   0  0  0  0  0  0  0  0  0  0  0  0
   -4.4340   -2.3430   -0.6110 O   0  0  0  0  0  0  0  0  0  0  0  0
   -5.7360   -1.9110   -0.5480 C   0  0  0  0  0  0  0  0  0  0  0  0
   -5.9400   -0.7050   -1.4700 C   0  0  0  0  0  0  0  0  0  0  0  0
   -5.1770    0.3680   -1.0820 O   0  0  0  0  0  0  0  0  0  0  0  0
  1  2  1  0
  2  3  2  0
  2 10  1  0
  3  4  1  0
  4  5  1  0
  4  8  2  0
  5  6  2  0
  6  7  1  0
  6 14  1  0
  7  8  1  0
  7 12  1  0
  8  9  1  0
  9 10  2  0
 10 11  1  0
 12 13  1  0
 13 14  1  0
 14 15  1  1
 15 16  1  0
 16 17  2  0
 18 16  1  6
 18 19  1  0
 18 23  1  0
 19 20  1  0
 20 21  1  0
 21 22  1  0
 22 23  1  0
M  END
