
     RDKit          3D

 13 12  0  0  0  0  0  0  0  0999 V2000
   -3.6650    1.5960   -0.9280 C   0  0  0  0  0  0  0  0  0  0  0  0
   -2.9460    0.8580    0.0420 O   0  0  0  0  0  0  0  0  0  0  0  0
   -2.0140   -0.1090   -0.2550 C   0  0  0  0  0  0  0  0  0  0  0  0
   -1.8040   -0.3350   -1.4930 O   0  0  0  0  0  0  0  0  0  0  0  0
   -1.2690   -0.8720    0.7950 C   0  0  1  0  0  0  0  0  0  0  0  0
   -2.2370   -1.5080    1.7660 C   0  0  0  0  0  0  0  0  0  0  0  0
   -0.4170   -1.7590    0.2050 O   0  0  0  0  0  0  0  0  0  0  0  0
    0.9140   -1.5490    0.4370 C   0  0  0  0  0  0  0  0  0  0  0  0
    1.3850   -0.2580   -0.0210 N   0  0  0  0  0  0  0  0  0  0  0  0
    2.7940   -0.1250    0.2650 C   0  0  0  0  0  0  0  0  0  0  0  0
    3.5120    1.4640   -0.2650 P   0  0  0  0  0  0  0  0  0  0  0  0
    5.1890    1.3950   -0.6090 O   0  0  0  0  0  0  0  0  0  0  0  0
    2.5940    2.3110   -1.4270 O   0  0  0  0  0  0  0  0  0  0  0  0
  1  2  1  0
  2  3  1  0
  3  4  2  0
  3  5  1  0
  5  6  1  1
  5  7  1  0
  7  8  1  0
  8  9  1  0
  9 10  1  0
 10 11  1  0
 11 12  1  0
 11 13  1  0
M  END
