
     RDKit          3D

 13 12  0  0  0  0  0  0  0  0999 V2000
   -2.8900   -2.0040    1.3920 C   0  0  0  0  0  0  0  0  0  0  0  0
   -1.8870   -1.7640    0.2900 C   0  0  0  0  0  0  0  0  0  0  0  0
   -1.4700   -0.4250    0.3070 O   0  0  0  0  0  0  0  0  0  0  0  0
   -0.5960   -0.2840   -0.6810 O   0  0  0  0  0  0  0  0  0  0  0  0
    0.2550    0.8050   -0.7970 C   0  0  0  0  0  0  0  0  0  0  0  0
   -0.2940    2.1580   -0.8500 C   0  0  0  0  0  0  0  0  0  0  0  0
   -1.5740    2.3520   -0.7890 N   0  0  0  0  0  0  0  0  0  0  0  0
   -2.0650    3.6160   -0.8390 O   0  0  0  0  0  0  0  0  0  0  0  0
   -1.5060    4.6580   -0.1790 O   0  0  0  0  0  0  0  0  0  0  0  0
    1.5680    0.6580   -0.8630 C   0  0  0  0  0  0  0  0  0  0  0  0
    2.1850   -0.7030   -0.8140 C   0  0  0  0  0  0  0  0  0  0  0  0
    3.3270   -0.9120    0.6000 P   0  0  0  0  0  0  0  0  0  0  0  0
    4.5560   -2.0770    0.3270 O   0  0  0  0  0  0  0  0  0  0  0  0
  1  2  1  0
  2  3  1  0
  3  4  1  0
  4  5  1  0
  5  6  1  0
  5 10  2  3
  6  7  2  3
  7  8  1  0
  8  9  1  0
 10 11  1  0
 11 12  1  0
 12 13  1  0
M  END
