
     RDKit          3D

 13 12  0  0  0  0  0  0  0  0999 V2000
    3.1950    2.7600   -0.0870 C   0  0  0  0  0  0  0  0  0  0  0  0
    2.5440    1.6300    0.4140 O   0  0  0  0  0  0  0  0  0  0  0  0
    1.4440    1.0690   -0.1970 C   0  0  0  0  0  0  0  0  0  0  0  0
    1.0230    1.5990   -1.2390 O   0  0  0  0  0  0  0  0  0  0  0  0
    0.8400   -0.1170    0.4190 C   0  0  0  0  0  0  0  0  0  0  0  0
   -0.3020   -0.6560   -0.2140 N   0  0  0  0  0  0  0  0  0  0  0  0
   -0.8100   -1.8000    0.4580 C   0  0  0  0  0  0  0  0  0  0  0  0
    0.0680   -3.0190    0.4030 C   0  0  0  0  0  0  0  0  0  0  0  0
    0.2380   -3.3620   -0.9420 O   0  0  0  0  0  0  0  0  0  0  0  0
   -1.3430    0.2290   -0.5830 C   0  0  0  0  0  0  0  0  0  0  0  0
   -1.9360    1.0970    0.9650 P   0  0  0  0  0  0  0  0  0  0  0  0
   -2.3340    2.7470    0.6230 O   0  0  0  0  0  0  0  0  0  0  0  0
   -3.2330    0.2450    1.7110 O   0  0  0  0  0  0  0  0  0  0  0  0
  1  2  1  0
  2  3  1  0
  3  4  2  0
  3  5  1  0
  5  6  1  0
  6  7  1  0
  6 10  1  0
  7  8  1  0
  8  9  1  0
 10 11  1  0
 11 12  1  0
 11 13  1  0
M  END
