
     RDKit          3D

 13 12  0  0  0  0  0  0  0  0999 V2000
   -4.2580   -0.1740   -0.4140 C   0  0  0  0  0  0  0  0  0  0  0  0
   -2.8380   -0.1510   -0.3130 O   0  0  0  0  0  0  0  0  0  0  0  0
   -2.2510   -0.3470    0.9270 C   0  0  0  0  0  0  0  0  0  0  0  0
   -3.0500   -0.5330    1.9100 O   0  0  0  0  0  0  0  0  0  0  0  0
   -0.7860   -0.3510    1.1640 C   0  0  0  0  0  0  0  0  0  0  0  0
   -0.0740   -0.0450   -0.0230 N   0  0  0  0  0  0  0  0  0  0  0  0
   -0.2080    1.2940   -0.4980 C   0  0  0  0  0  0  0  0  0  0  0  0
    1.2090   -0.6300   -0.1590 C   0  0  2  0  0  0  0  0  0  0  0  0
    2.1980   -0.1940    0.8970 C   0  0  0  0  0  0  0  0  0  0  0  0
    1.7660   -0.5120    2.1770 O   0  0  0  0  0  0  0  0  0  0  0  0
    1.9440   -0.1940   -1.8040 P   0  0  0  0  0  0  0  0  0  0  0  0
    3.4020   -1.1030   -2.0180 O   0  0  0  0  0  0  0  0  0  0  0  0
    2.3920    1.4990   -1.7160 O   0  0  0  0  0  0  0  0  0  0  0  0
  1  2  1  0
  2  3  1  0
  3  4  2  0
  3  5  1  0
  5  6  1  0
  6  7  1  0
  6  8  1  0
  8  9  1  1
  8 11  1  0
  9 10  1  0
 11 12  1  0
 11 13  1  0
M  END
