
     RDKit          3D

 13 12  0  0  0  0  0  0  0  0999 V2000
   -4.0760    0.4130   -0.1490 C   0  0  0  0  0  0  0  0  0  0  0  0
   -3.5600   -1.0730   -0.2490 C   0  0  0  0  0  0  0  0  0  0  0  0
   -2.6340   -1.2380    0.6810 O   0  0  0  0  0  0  0  0  0  0  0  0
   -1.4380   -0.7820    0.6110 O   0  0  0  0  0  0  0  0  0  0  0  0
   -1.3300    0.5560    0.4730 O   0  0  0  0  0  0  0  0  0  0  0  0
    0.1050    0.9870    0.2860 C   0  0  0  0  0  0  0  0  0  0  0  0
    0.3900    2.2520   -0.3070 C   0  0  0  0  0  0  0  0  0  0  0  0
    0.7950    0.0280    0.7140 N   0  0  0  0  0  0  0  0  0  0  0  0
    2.3020    0.1610    0.6990 C   0  0  2  0  0  0  0  0  0  0  0  0
    2.5550    0.3810   -0.7950 C   0  0  0  0  0  0  0  0  0  0  0  0
    2.8440   -1.6140    1.0350 P   0  0  0  0  0  0  0  0  0  0  0  0
    1.5760   -2.6780    0.4610 O   0  0  0  0  0  0  0  0  0  0  0  0
    4.2800   -1.9710    0.1090 O   0  0  0  0  0  0  0  0  0  0  0  0
  1  2  1  0
  2  3  1  0
  3  4  1  0
  4  5  1  0
  5  6  1  0
  6  7  1  0
  6  8  2  3
  8  9  1  0
  9 10  1  6
  9 11  1  0
 11 12  1  0
 11 13  1  0
M  END
