
     RDKit          3D

 13 12  0  0  0  0  0  0  0  0999 V2000
   -3.9770   -1.1610   -1.0960 C   0  0  0  0  0  0  0  0  0  0  0  0
   -2.8250   -0.4500   -0.7330 O   0  0  0  0  0  0  0  0  0  0  0  0
   -2.8520    0.5200    0.2350 C   0  0  0  0  0  0  0  0  0  0  0  0
   -3.9870    0.7350    0.7820 O   0  0  0  0  0  0  0  0  0  0  0  0
   -1.7010    1.3220    0.6890 C   0  0  0  0  0  0  0  0  0  0  0  0
   -0.4180    0.9700   -0.0070 C   0  0  2  0  0  0  0  0  0  0  0  0
   -0.5490    1.1770   -1.3740 O   0  0  0  0  0  0  0  0  0  0  0  0
    0.0130   -0.3670    0.2690 N   0  0  0  0  0  0  0  0  0  0  0  0
    1.3530   -0.6650   -0.1560 C   0  0  0  0  0  0  0  0  0  0  0  0
    2.4120    0.0530    0.6190 C   0  0  0  0  0  0  0  0  0  0  0  0
    4.0980   -0.4070   -0.0030 P   0  0  0  0  0  0  0  0  0  0  0  0
    3.9470   -1.5240   -1.3320 O   0  0  0  0  0  0  0  0  0  0  0  0
    5.0010    0.9910   -0.4800 O   0  0  0  0  0  0  0  0  0  0  0  0
  1  2  1  0
  2  3  1  0
  3  4  2  0
  3  5  1  0
  5  6  1  0
  6  7  1  6
  6  8  1  0
  8  9  1  0
  9 10  1  0
 10 11  1  0
 11 12  1  0
 11 13  1  0
M  END
