
     RDKit          3D

 20 19  0  0  0  0  0  0  0  0999 V2000
   -5.8210    0.6530    1.6900 C   0  0  0  0  0  0  0  0  0  0  0  0
   -5.1750   -0.4190    0.8010 C   0  0  0  0  0  0  0  0  0  0  0  0
   -4.4710    0.2880   -0.2280 N   0  0  2  0  0  0  0  0  0  0  0  0
   -4.2710   -0.5690   -1.3740 C   0  0  0  0  0  0  0  0  0  0  0  0
   -3.2150    0.7640    0.3210 C   0  0  0  0  0  0  0  0  0  0  0  0
   -2.1850    0.9950   -0.7430 C   0  0  0  0  0  0  0  0  0  0  0  0
   -0.9080    1.4840   -0.1100 C   0  0  0  0  0  0  0  0  0  0  0  0
   -0.4360    0.4360    0.8500 C   0  0  0  0  0  0  0  0  0  0  0  0
   -0.6290    0.5610    2.0400 O   0  0  0  0  0  0  0  0  0  0  0  0
    0.2670   -0.7410    0.2810 C   0  0  0  0  0  0  0  0  0  0  0  0
    1.6620   -0.2870   -0.1030 C   0  0  0  0  0  0  0  0  0  0  0  0
    2.4570   -1.4040   -0.6660 C   0  0  0  0  0  0  0  0  0  0  0  0
    2.0000   -2.5960   -0.6500 O   0  0  0  0  0  0  0  0  0  0  0  0
    3.7160   -1.1320   -1.2130 N   0  0  0  0  0  0  0  0  0  0  0  0
    4.5270   -2.2110   -1.7370 C   0  0  0  0  0  0  0  0  0  0  0  0
    4.2070    0.2070   -1.2820 C   0  0  0  0  0  0  0  0  0  0  0  0
    4.9620    0.6830   -0.1290 C   0  0  0  0  0  0  0  0  0  0  0  0
    5.3980    1.8790   -0.2100 O   0  0  0  0  0  0  0  0  0  0  0  0
    5.2620    0.0030    1.0270 O   0  0  0  0  0  0  0  0  0  0  0  0
    6.0180    0.6010    2.0850 C   0  0  0  0  0  0  0  0  0  0  0  0
  1  2  1  0
  2  3  1  0
  3  4  1  6
  3  5  1  0
  5  6  1  0
  6  7  1  0
  7  8  1  0
  8  9  2  0
  8 10  1  0
 10 11  1  0
 11 12  1  0
 12 13  2  0
 12 14  1  0
 14 15  1  0
 14 16  1  0
 16 17  1  0
 17 18  2  0
 17 19  1  0
 19 20  1  0
M  CHG  1   3   1
M  END
