
     RDKit          3D

 20 20  0  0  0  0  0  0  0  0999 V2000
    3.2230    0.4770   -1.8570 C   0  0  0  0  0  0  0  0  0  0  0  0
    3.7180   -0.4900   -0.8200 C   0  0  1  0  0  0  0  0  0  0  0  0
    5.2370   -0.3930   -0.7770 C   0  0  0  0  0  0  0  0  0  0  0  0
    3.1540   -0.1730    0.4500 N   0  0  0  0  0  0  0  0  0  0  0  0
    3.3730   -0.8520    1.6960 C   0  0  0  0  0  0  0  0  0  0  0  0
    3.1720   -0.0430    2.6750 N   0  0  0  0  0  0  0  0  0  0  0  0
    3.2980   -0.3760    4.0950 C   0  0  0  0  0  0  0  0  0  0  0  0
    2.8000    1.2590    2.1610 C   0  0  0  0  0  0  0  0  0  0  0  0
    2.2200    0.9040    0.8280 C   0  0  2  0  0  0  0  0  0  0  0  0
    0.9640    0.2790    0.9110 O   0  0  0  0  0  0  0  0  0  0  0  0
   -0.1260    0.6340    0.1350 C   0  0  0  0  0  0  0  0  0  0  0  0
    0.0500    1.5640   -0.6740 O   0  0  0  0  0  0  0  0  0  0  0  0
   -1.3820   -0.1000    0.3200 C   0  0  0  0  0  0  0  0  0  0  0  0
   -2.4160    0.3420   -0.5170 O   0  0  0  0  0  0  0  0  0  0  0  0
   -3.6670   -0.2830   -0.4330 C   0  0  0  0  0  0  0  0  0  0  0  0
   -3.7940   -1.2190    0.4010 O   0  0  0  0  0  0  0  0  0  0  0  0
   -4.8120    0.1020   -1.2610 C   0  0  2  0  0  0  0  0  0  0  0  0
   -6.0010   -0.7640   -0.9220 C   0  0  0  0  0  0  0  0  0  0  0  0
   -4.4330   -0.0710   -2.7200 C   0  0  0  0  0  0  0  0  0  0  0  0
   -5.2290    1.5440   -1.0430 C   0  0  0  0  0  0  0  0  0  0  0  0
  2  1  1  6
  2  3  1  0
  2  4  1  0
  4  5  1  0
  4  9  1  0
  5  6  2  0
  6  7  1  0
  6  8  1  0
  8  9  1  0
  9 10  1  1
 10 11  1  0
 11 12  2  0
 11 13  1  0
 13 14  1  0
 14 15  1  0
 15 16  2  0
 15 17  1  0
 17 18  1  1
 17 19  1  0
 17 20  1  0
M  CHG  1   6   1
M  END
