
     RDKit          3D

 20 21  0  0  0  0  0  0  0  0999 V2000
   -2.7580   -1.7520    2.1520 C   0  0  0  0  0  0  0  0  0  0  0  0
   -1.8280   -2.1820    1.2400 O   0  0  0  0  0  0  0  0  0  0  0  0
   -2.1210   -1.9250   -0.0830 C   0  0  0  0  0  0  0  0  0  0  0  0
   -2.2670   -0.4740   -0.3670 C   0  0  2  0  0  0  0  0  0  0  0  0
   -2.7230   -0.2230   -1.8130 C   0  0  0  0  0  0  0  0  0  0  0  0
   -3.1120    1.2390   -1.8670 C   0  0  0  0  0  0  0  0  0  0  0  0
   -1.9230    2.0850   -1.5110 C   0  0  0  0  0  0  0  0  0  0  0  0
   -1.4550    1.6900   -0.1190 C   0  0  0  0  0  0  0  0  0  0  0  0
   -1.0910    0.3070   -0.0710 N   0  0  0  0  0  0  0  0  0  0  0  0
    0.0510   -0.0500   -0.8440 C   0  0  0  0  0  0  0  0  0  0  0  0
    1.2670    0.5870   -0.1720 C   0  0  1  0  0  0  0  0  0  0  0  0
    1.2920    0.0120    1.1920 C   0  0  0  0  0  0  0  0  0  0  0  0
    2.5330   -0.3540    1.4510 C   0  0  0  0  0  0  0  0  0  0  0  0
    3.1020   -1.1030    2.9600 Cl  0  0  0  0  0  0  0  0  0  0  0  0
    3.4430   -0.0780    0.3550 C   0  0  0  0  0  0  0  0  0  0  0  0
    4.7610   -0.0170    0.3220 C   0  0  0  0  0  0  0  0  0  0  0  0
    5.6290   -0.2410    1.5070 C   0  0  2  0  0  0  0  0  0  0  0  0
    5.2160    1.0680    2.6740 Cl  0  0  0  0  0  0  0  0  0  0  0  0
    7.3410    0.0200    1.0890 Cl  0  0  0  0  0  0  0  0  0  0  0  0
    2.5480    0.1560   -0.8360 C   0  0  0  0  0  0  0  0  0  0  0  0
  1  2  1  0
  2  3  1  0
  4  3  1  6
  4  5  1  0
  4  9  1  0
  5  6  1  0
  6  7  1  0
  7  8  1  0
  8  9  1  0
  9 10  1  0
 11 10  1  6
 11 12  1  0
 11 20  1  0
 12 13  2  0
 13 14  1  0
 13 15  1  0
 15 16  2  3
 15 20  1  0
 16 17  1  0
 17 18  1  1
 17 19  1  0
M  END
