
     RDKit          3D

 20 20  0  0  0  0  0  0  0  0999 V2000
    2.0670   -3.4920   -0.2300 C   0  0  0  0  0  0  0  0  0  0  0  0
    1.8800   -2.3420   -1.1880 C   0  0  0  0  0  0  0  0  0  0  0  0
    2.8120   -1.2890   -0.7670 N   0  0  0  0  0  0  0  0  0  0  0  0
    2.7320   -0.1570   -1.6130 C   0  0  0  0  0  0  0  0  0  0  0  0
    1.4240    0.6100   -1.4880 C   0  0  0  0  0  0  0  0  0  0  0  0
    1.2610    1.0630   -0.2200 O   0  0  0  0  0  0  0  0  0  0  0  0
    0.1540    1.7840    0.0790 C   0  0  0  0  0  0  0  0  0  0  0  0
   -1.0820    0.9970   -0.0860 C   0  0  0  0  0  0  0  0  0  0  0  0
   -1.0570   -0.1480   -0.4030 O   0  0  0  0  0  0  0  0  0  0  0  0
   -2.3740    1.7150    0.1660 C   0  0  0  0  0  0  0  0  0  0  0  0
   -3.4470    0.7770   -0.0540 N   0  0  2  0  0  0  0  0  0  0  0  0
   -4.7450    1.4290   -0.0440 C   0  0  0  0  0  0  0  0  0  0  0  0
   -5.7410    0.3770    0.3580 C   0  0  0  0  0  0  0  0  0  0  0  0
   -4.9050   -0.8370    0.6640 C   0  0  0  0  0  0  0  0  0  0  0  0
   -3.5540   -0.2030    1.0120 C   0  0  0  0  0  0  0  0  0  0  0  0
    2.7850   -1.0940    0.6330 C   0  0  0  0  0  0  0  0  0  0  0  0
    3.7780   -0.1060    1.0860 C   0  0  0  0  0  0  0  0  0  0  0  0
    3.7290    0.2900    2.3160 O   0  0  0  0  0  0  0  0  0  0  0  0
    4.7830    0.4680    0.3540 O   0  0  0  0  0  0  0  0  0  0  0  0
    5.6950    1.4190    0.9010 C   0  0  0  0  0  0  0  0  0  0  0  0
  1  2  1  0
  2  3  1  0
  3  4  1  0
  3 16  1  0
  4  5  1  0
  5  6  1  0
  6  7  1  0
  7  8  1  0
  8  9  2  0
  8 10  1  0
 11 10  1  1
 11 12  1  0
 11 15  1  0
 12 13  1  0
 13 14  1  0
 14 15  1  0
 16 17  1  0
 17 18  2  0
 17 19  1  0
 19 20  1  0
M  CHG  1  11   1
M  END
