
     RDKit          3D

 20 20  0  0  0  0  0  0  0  0999 V2000
    7.4010   -0.6740    0.5420 C   0  0  0  0  0  0  0  0  0  0  0  0
    6.3370   -0.0540   -0.2190 N   0  0  0  0  0  0  0  0  0  0  0  0
    6.2910    1.3620   -0.0220 C   0  0  0  0  0  0  0  0  0  0  0  0
    5.0910   -0.6970    0.1800 C   0  0  0  0  0  0  0  0  0  0  0  0
    4.0630   -0.0790   -0.5730 O   0  0  0  0  0  0  0  0  0  0  0  0
    2.7130   -0.4630   -0.4380 C   0  0  0  0  0  0  0  0  0  0  0  0
    2.5030   -1.3730    0.3840 O   0  0  0  0  0  0  0  0  0  0  0  0
    1.6810    0.2170   -1.2490 C   0  0  0  0  0  0  0  0  0  0  0  0
    1.0740    1.3360   -0.4420 C   0  0  0  0  0  0  0  0  0  0  0  0
    0.4410    0.8020    0.8000 C   0  0  0  0  0  0  0  0  0  0  0  0
   -0.5540   -0.1130    0.4750 O   0  0  0  0  0  0  0  0  0  0  0  0
   -1.6630    0.2220   -0.2750 C   0  0  0  0  0  0  0  0  0  0  0  0
   -1.7770    1.4030   -0.6770 O   0  0  0  0  0  0  0  0  0  0  0  0
   -2.6980   -0.8150   -0.5900 C   0  0  1  0  0  0  0  0  0  0  0  0
   -3.2570   -1.3290    0.6760 C   0  0  0  0  0  0  0  0  0  0  0  0
   -4.6410   -0.8760    1.0090 C   0  0  0  0  0  0  0  0  0  0  0  0
   -5.0730    0.2600    0.2220 N   0  0  2  0  0  0  0  0  0  0  0  0
   -6.4440    0.5500    0.5930 C   0  0  0  0  0  0  0  0  0  0  0  0
   -5.0710   -0.2160   -1.1650 C   0  0  0  0  0  0  0  0  0  0  0  0
   -3.6480   -0.3020   -1.5930 C   0  0  0  0  0  0  0  0  0  0  0  0
  1  2  1  0
  2  3  1  0
  2  4  1  0
  4  5  1  0
  5  6  1  0
  6  7  2  0
  6  8  1  0
  8  9  1  0
  9 10  1  0
 10 11  1  0
 11 12  1  0
 12 13  2  0
 14 12  1  1
 14 15  1  0
 14 20  1  0
 15 16  1  0
 16 17  1  0
 17 18  1  1
 17 19  1  0
 19 20  1  0
M  CHG  1  17   1
M  END
