
     RDKit          3D

 19 20  0  0  0  0  0  0  0  0999 V2000
   -0.5980   -0.3210    1.0560 O   0  0  0  0  0  0  0  0  0  0  0  0
   -0.8140    0.6310    0.2880 C   0  0  0  0  0  0  0  0  0  0  0  0
   -2.2400    0.9070   -0.0930 C   0  0  0  0  0  0  0  0  0  0  0  0
   -3.1810   -0.0570    0.5500 C   0  0  1  0  0  0  0  0  0  0  0  0
   -4.5650    0.2850    0.1230 C   0  0  0  0  0  0  0  0  0  0  0  0
   -5.0550   -0.6210   -0.7020 C   0  0  0  0  0  0  0  0  0  0  0  0
   -4.0470   -1.7040   -0.9390 C   0  0  0  0  0  0  0  0  0  0  0  0
   -2.9650   -1.4780    0.0950 C   0  0  0  0  0  0  0  0  0  0  0  0
    0.2560    1.4120   -0.1980 N   0  0  0  0  0  0  0  0  0  0  0  0
    1.6280    1.1350    0.1770 C   0  0  0  0  0  0  0  0  0  0  0  0
    2.3340    2.0420    0.7970 C   0  0  0  0  0  0  0  0  0  0  0  0
    3.7140    1.7810    1.1830 C   0  0  0  0  0  0  0  0  0  0  0  0
    4.2760    0.6330    0.9190 C   0  0  0  0  0  0  0  0  0  0  0  0
    5.9600    0.4680    1.4500 Cl  0  0  0  0  0  0  0  0  0  0  0  0
    3.5760   -0.4510    0.2460 C   0  0  2  0  0  0  0  0  0  0  0  0
    3.5620   -1.8810    1.3700 Cl  0  0  0  0  0  0  0  0  0  0  0  0
    4.3570   -0.9370   -0.9830 C   0  0  0  0  0  0  0  0  0  0  0  0
    5.9520   -1.5330   -0.5570 Cl  0  0  0  0  0  0  0  0  0  0  0  0
    2.1860   -0.1690   -0.1690 C   0  0  0  0  0  0  0  0  0  0  0  0
  1  2  2  0
  2  3  1  0
  2  9  1  0
  4  3  1  6
  4  5  1  0
  4  8  1  0
  5  6  2  0
  6  7  1  0
  7  8  1  0
  9 10  1  0
 10 11  2  0
 10 19  1  0
 11 12  1  0
 12 13  2  0
 13 14  1  0
 13 15  1  0
 15 16  1  1
 15 17  1  0
 15 19  1  0
 17 18  1  0
M  END
