
     RDKit          3D

 20 22  0  0  0  0  0  0  0  0999 V2000
   -1.9070   -2.9060   -0.4080 O   0  0  0  0  0  0  0  0  0  0  0  0
   -1.4450   -1.7720   -0.1460 C   0  0  0  0  0  0  0  0  0  0  0  0
   -0.0920   -1.5770   -0.2910 C   0  0  0  0  0  0  0  0  0  0  0  0
    0.4710   -0.3630   -0.0210 C   0  0  0  0  0  0  0  0  0  0  0  0
    1.8980   -0.1560   -0.1740 C   0  0  0  0  0  0  0  0  0  0  0  0
    2.7940   -1.1130   -0.5870 C   0  0  0  0  0  0  0  0  0  0  0  0
    4.1600   -0.8530   -0.7160 C   0  0  0  0  0  0  0  0  0  0  0  0
    4.6330    0.4090   -0.4180 C   0  0  0  0  0  0  0  0  0  0  0  0
    5.9910    0.6680   -0.5460 O   0  0  0  0  0  0  0  0  0  0  0  0
    3.7330    1.3710   -0.0030 C   0  0  0  0  0  0  0  0  0  0  0  0
    2.3930    1.1260    0.1260 C   0  0  0  0  0  0  0  0  0  0  0  0
   -0.3110    0.6060    0.3780 O   0  0  0  0  0  0  0  0  0  0  0  0
   -1.6110    0.4890    0.5390 C   0  0  0  0  0  0  0  0  0  0  0  0
   -2.3750    1.5570    0.9650 C   0  0  0  0  0  0  0  0  0  0  0  0
   -3.7330    1.4080    1.1240 C   0  0  0  0  0  0  0  0  0  0  0  0
   -4.5230    2.4840    1.5570 O   0  0  0  0  0  0  0  0  0  0  0  0
   -4.3630    0.2300    0.8750 C   0  0  0  0  0  0  0  0  0  0  0  0
   -3.6120   -0.8810    0.4380 C   0  0  0  0  0  0  0  0  0  0  0  0
   -4.2380   -2.0610    0.1870 O   0  0  0  0  0  0  0  0  0  0  0  0
   -2.2460   -0.7360    0.2760 C   0  0  0  0  0  0  0  0  0  0  0  0
  1  2  2  0
  2  3  1  0
  2 20  1  0
  3  4  2  0
  4  5  1  0
  4 12  1  0
  5  6  2  0
  5 11  1  0
  6  7  1  0
  7  8  2  0
  8  9  1  0
  8 10  1  0
 10 11  2  0
 12 13  1  0
 13 14  2  0
 13 20  1  0
 14 15  1  0
 15 16  1  0
 15 17  2  0
 17 18  1  0
 18 19  1  0
 18 20  2  0
M  END
