
     RDKit          3D

 23 25  0  0  0  0  0  0  0  0999 V2000
    5.0470    1.9590    0.1560 C   0  0  0  0  0  0  0  0  0  0  0  0
    4.8580    1.4710   -1.2520 C   0  0  0  0  0  0  0  0  0  0  0  0
    4.2910    0.0590   -1.2550 C   0  0  0  0  0  0  0  0  0  0  0  0
    2.9540    0.0750   -0.5440 C   0  0  0  0  0  0  0  0  0  0  0  0
    2.4190   -1.3370   -0.5650 C   0  0  0  0  0  0  0  0  0  0  0  0
    1.1260   -1.4320    0.0990 N   0  0  0  0  0  0  0  0  0  0  0  0
    0.0020   -1.2630   -0.5770 N   0  0  0  0  0  0  0  0  0  0  0  0
   -1.2200   -1.3370   -0.0300 C   0  0  0  0  0  0  0  0  0  0  0  0
   -2.4040   -1.1610   -0.7310 O   0  0  0  0  0  0  0  0  0  0  0  0
   -2.9810    0.1170   -0.7170 C   0  0  0  0  0  0  0  0  0  0  0  0
   -4.1570    0.3820   -1.3870 C   0  0  0  0  0  0  0  0  0  0  0  0
   -4.7610    1.6230   -1.4010 C   0  0  0  0  0  0  0  0  0  0  0  0
   -4.1540    2.6710   -0.7020 C   0  0  0  0  0  0  0  0  0  0  0  0
   -2.9770    2.4240   -0.0260 C   0  0  0  0  0  0  0  0  0  0  0  0
   -2.3980    1.1710   -0.0320 C   0  0  0  0  0  0  0  0  0  0  0  0
   -1.3240   -1.6040    1.3220 C   0  0  0  0  0  0  0  0  0  0  0  0
   -2.3840   -1.7410    2.1590 C   0  0  0  0  0  0  0  0  0  0  0  0
   -3.8090   -1.6230    1.7760 C   0  0  0  0  0  0  0  0  0  0  0  0
   -1.8850   -2.0010    3.3810 N   0  0  0  0  0  0  0  0  0  0  0  0
   -0.5630   -2.0310    3.3360 N   0  0  0  0  0  0  0  0  0  0  0  0
   -0.1650   -1.7920    2.0870 C   0  0  0  0  0  0  0  0  0  0  0  0
    1.0320   -1.6920    1.4140 C   0  0  0  0  0  0  0  0  0  0  0  0
    2.0970   -1.8540    2.0610 O   0  0  0  0  0  0  0  0  0  0  0  0
  1  2  1  0
  2  3  1  0
  3  4  1  0
  4  5  1  0
  5  6  1  0
  6  7  1  0
  6 22  1  0
  7  8  2  0
  8  9  1  0
  8 16  1  0
  9 10  1  0
 10 11  2  0
 10 15  1  0
 11 12  1  0
 12 13  2  0
 13 14  1  0
 14 15  2  0
 16 17  2  0
 16 21  1  0
 17 18  1  0
 17 19  1  0
 19 20  1  0
 20 21  2  0
 21 22  1  0
 22 23  2  0
M  END
