
     RDKit          3D

 23 25  0  0  0  0  0  0  0  0999 V2000
    5.2410    1.4390   -0.3100 C   0  0  0  0  0  0  0  0  0  0  0  0
    4.2550    0.7470    0.5260 N   0  0  0  0  0  0  0  0  0  0  0  0
    2.9760    0.5150   -0.0370 C   0  0  0  0  0  0  0  0  0  0  0  0
    2.7310    0.9400   -1.3010 N   0  0  0  0  0  0  0  0  0  0  0  0
    1.5500    0.7600   -1.9040 C   0  0  0  0  0  0  0  0  0  0  0  0
    0.5710    0.1170   -1.1850 C   0  0  0  0  0  0  0  0  0  0  0  0
    0.7410   -0.3460    0.1200 C   0  0  0  0  0  0  0  0  0  0  0  0
   -0.2690   -1.0240    0.7370 C   0  0  0  0  0  0  0  0  0  0  0  0
   -1.6500   -1.0840    0.3170 C   0  0  0  0  0  0  0  0  0  0  0  0
   -2.3410   -0.1380   -0.1820 C   0  0  0  0  0  0  0  0  0  0  0  0
   -2.1090    1.2030   -0.4950 N   0  0  0  0  0  0  0  0  0  0  0  0
   -2.3940    1.8060   -1.6570 C   0  0  0  0  0  0  0  0  0  0  0  0
   -2.0410    3.1230   -1.5550 C   0  0  0  0  0  0  0  0  0  0  0  0
   -1.5300    3.3110   -0.2950 C   0  0  0  0  0  0  0  0  0  0  0  0
   -1.5810    2.1060    0.3490 C   0  0  0  0  0  0  0  0  0  0  0  0
   -2.2900   -2.4380    0.5160 C   0  0  0  0  0  0  0  0  0  0  0  0
   -1.6670   -3.3860    0.9950 O   0  0  0  0  0  0  0  0  0  0  0  0
   -3.6180   -2.6220    0.1500 O   0  0  0  0  0  0  0  0  0  0  0  0
   -4.2870   -3.8590    0.3050 C   0  0  0  0  0  0  0  0  0  0  0  0
    0.0180   -1.5250    2.0070 N   0  0  0  0  0  0  0  0  0  0  0  0
    1.2020   -1.3440    2.5820 C   0  0  0  0  0  0  0  0  0  0  0  0
    2.2110   -0.6410    1.9310 C   0  0  0  0  0  0  0  0  0  0  0  0
    1.9850   -0.1330    0.6870 C   0  0  0  0  0  0  0  0  0  0  0  0
  1  2  1  0
  2  3  1  0
  3  4  2  0
  3 23  1  0
  4  5  1  0
  5  6  2  0
  6  7  1  0
  7  8  2  0
  7 23  1  0
  8  9  1  0
  8 20  1  0
  9 10  2  3
  9 16  1  0
 10 11  1  0
 11 12  1  0
 11 15  1  0
 12 13  2  0
 13 14  1  0
 14 15  2  0
 16 17  2  0
 16 18  1  0
 18 19  1  0
 20 21  2  0
 21 22  1  0
 22 23  2  0
M  END
