
     RDKit          3D

 23 25  0  0  0  0  0  0  0  0999 V2000
    6.5300    0.8260   -1.0580 C   0  0  0  0  0  0  0  0  0  0  0  0
    6.0710   -0.4820   -0.4100 C   0  0  0  0  0  0  0  0  0  0  0  0
    4.6000   -0.4290   -0.3490 C   0  0  0  0  0  0  0  0  0  0  0  0
    3.9070    0.1100    0.7090 C   0  0  0  0  0  0  0  0  0  0  0  0
    2.5270    0.0150    0.4610 C   0  0  0  0  0  0  0  0  0  0  0  0
    1.4530    0.4980    1.3590 C   0  0  0  0  0  0  0  0  0  0  0  0
    0.1770    0.4620    0.8730 O   0  0  0  0  0  0  0  0  0  0  0  0
   -0.6110   -0.5850    0.4730 C   0  0  0  0  0  0  0  0  0  0  0  0
   -0.3670   -1.9340    0.4460 C   0  0  0  0  0  0  0  0  0  0  0  0
   -1.4300   -2.6190   -0.0230 N   0  0  0  0  0  0  0  0  0  0  0  0
   -1.5340   -4.0640   -0.1940 C   0  0  0  0  0  0  0  0  0  0  0  0
   -2.3620   -1.7010   -0.2990 N   0  0  0  0  0  0  0  0  0  0  0  0
   -1.9270   -0.4880   -0.0240 C   0  0  0  0  0  0  0  0  0  0  0  0
   -2.6300    0.7750   -0.1890 C   0  0  0  0  0  0  0  0  0  0  0  0
   -2.0080    1.7680   -0.9560 C   0  0  0  0  0  0  0  0  0  0  0  0
   -2.6390    2.9800   -1.1240 C   0  0  0  0  0  0  0  0  0  0  0  0
   -3.8630    3.1650   -0.5260 C   0  0  0  0  0  0  0  0  0  0  0  0
   -4.4860    2.1860    0.2360 C   0  0  0  0  0  0  0  0  0  0  0  0
   -3.8500    0.9560    0.4080 C   0  0  0  0  0  0  0  0  0  0  0  0
   -4.4540   -0.0540    1.1710 O   0  0  0  0  0  0  0  0  0  0  0  0
   -5.7130    0.2400    1.7420 C   0  0  0  0  0  0  0  0  0  0  0  0
    2.4570   -0.5800   -0.7380 N   0  0  0  0  0  0  0  0  0  0  0  0
    3.6700   -0.8420   -1.2160 N   0  0  0  0  0  0  0  0  0  0  0  0
  1  2  1  0
  2  3  1  0
  3  4  1  0
  3 23  2  0
  4  5  2  0
  5  6  1  0
  5 22  1  0
  6  7  1  0
  7  8  1  0
  8  9  2  0
  8 13  1  0
  9 10  1  0
 10 11  1  0
 10 12  1  0
 12 13  2  0
 13 14  1  0
 14 15  2  0
 14 19  1  0
 15 16  1  0
 16 17  2  0
 17 18  1  0
 18 19  2  0
 19 20  1  0
 20 21  1  0
 22 23  1  0
M  END
