
     RDKit          3D

 23 25  0  0  0  0  0  0  0  0999 V2000
    3.5490    3.1210   -0.4300 C   0  0  0  0  0  0  0  0  0  0  0  0
    4.1430    1.8860    0.1440 C   0  0  0  0  0  0  0  0  0  0  0  0
    3.5050    0.7450    0.0860 C   0  0  0  0  0  0  0  0  0  0  0  0
    2.2400    0.6830   -0.5290 N   0  0  0  0  0  0  0  0  0  0  0  0
    1.1280    0.2970    0.2630 C   0  0  0  0  0  0  0  0  0  0  0  0
    1.2920    0.0270    1.4730 O   0  0  0  0  0  0  0  0  0  0  0  0
   -0.2070    0.2040   -0.2910 C   0  0  0  0  0  0  0  0  0  0  0  0
   -1.3380   -0.1400    0.3170 N   0  0  0  0  0  0  0  0  0  0  0  0
   -2.3760   -0.1090   -0.5320 C   0  0  0  0  0  0  0  0  0  0  0  0
   -3.7400   -0.3830   -0.3720 C   0  0  0  0  0  0  0  0  0  0  0  0
   -4.1230   -0.7590    0.8810 O   0  0  0  0  0  0  0  0  0  0  0  0
   -5.4370   -1.0550    1.2200 C   0  0  0  0  0  0  0  0  0  0  0  0
   -6.3010    0.1700    1.0230 C   0  0  0  0  0  0  0  0  0  0  0  0
   -4.5490   -0.2520   -1.4710 C   0  0  0  0  0  0  0  0  0  0  0  0
   -4.0270    0.1400   -2.6950 C   0  0  0  0  0  0  0  0  0  0  0  0
   -2.6810    0.3900   -2.7710 C   0  0  0  0  0  0  0  0  0  0  0  0
   -1.8690    0.2680   -1.7100 N   0  0  0  0  0  0  0  0  0  0  0  0
   -0.5470    0.4600   -1.5690 N   0  0  0  0  0  0  0  0  0  0  0  0
    4.0760   -0.4670    0.6390 C   0  0  0  0  0  0  0  0  0  0  0  0
    3.5890   -1.6940    0.6690 C   0  0  0  0  0  0  0  0  0  0  0  0
    4.5240   -2.6290    1.3430 C   0  0  0  0  0  0  0  0  0  0  0  0
    5.6590   -1.7540    1.7140 C   0  0  0  0  0  0  0  0  0  0  0  0
    5.3870   -0.5320    1.3070 C   0  0  0  0  0  0  0  0  0  0  0  0
  1  2  1  0
  2  3  2  3
  3  4  1  0
  3 19  1  0
  4  5  1  0
  5  6  2  0
  5  7  1  0
  7  8  1  0
  7 18  2  0
  8  9  2  0
  9 10  1  0
  9 17  1  0
 10 11  1  0
 10 14  2  0
 11 12  1  0
 12 13  1  0
 14 15  1  0
 15 16  2  0
 16 17  1  0
 17 18  1  0
 19 20  2  0
 19 23  1  0
 20 21  1  0
 21 22  1  0
 22 23  2  0
M  END
