
     RDKit          3D

 19 21  0  0  0  0  0  0  0  0999 V2000
   -1.4370   -3.0940   -0.1250 O   0  0  0  0  0  0  0  0  0  0  0  0
   -1.0090   -1.9190   -0.0730 C   0  0  0  0  0  0  0  0  0  0  0  0
    0.3390   -1.5800   -0.1090 C   0  0  0  0  0  0  0  0  0  0  0  0
    0.7870   -0.2770   -0.0510 C   0  0  0  0  0  0  0  0  0  0  0  0
    2.2090    0.0430   -0.0910 C   0  0  0  0  0  0  0  0  0  0  0  0
    3.1940   -0.8980   -0.1880 C   0  0  0  0  0  0  0  0  0  0  0  0
    4.5360   -0.5560   -0.2240 C   0  0  0  0  0  0  0  0  0  0  0  0
    4.9050    0.7810   -0.1600 C   0  0  0  0  0  0  0  0  0  0  0  0
    3.9150    1.7340   -0.0620 C   0  0  0  0  0  0  0  0  0  0  0  0
    2.5750    1.3920   -0.0270 C   0  0  0  0  0  0  0  0  0  0  0  0
   -0.1210    0.6690    0.0430 O   0  0  0  0  0  0  0  0  0  0  0  0
   -1.4080    0.4320    0.0830 C   0  0  0  0  0  0  0  0  0  0  0  0
   -2.3230    1.4630    0.1820 C   0  0  0  0  0  0  0  0  0  0  0  0
   -3.6750    1.1960    0.2220 C   0  0  0  0  0  0  0  0  0  0  0  0
   -4.6260    2.2030    0.3220 O   0  0  0  0  0  0  0  0  0  0  0  0
   -4.1400   -0.0970    0.1650 C   0  0  0  0  0  0  0  0  0  0  0  0
   -3.2390   -1.1290    0.0670 C   0  0  0  0  0  0  0  0  0  0  0  0
   -3.6500   -2.4530    0.0060 O   0  0  0  0  0  0  0  0  0  0  0  0
   -1.8940   -0.8690    0.0260 C   0  0  0  0  0  0  0  0  0  0  0  0
  1  2  2  0
  2  3  1  0
  2 19  1  0
  3  4  2  0
  4  5  1  0
  4 11  1  0
  5  6  2  0
  5 10  1  0
  6  7  1  0
  7  8  2  0
  8  9  1  0
  9 10  2  0
 11 12  1  0
 12 13  2  0
 12 19  1  0
 13 14  1  0
 14 15  1  0
 14 16  2  0
 16 17  1  0
 17 18  1  0
 17 19  2  0
M  END
