
     RDKit          3D

 23 25  0  0  0  0  0  0  0  0999 V2000
   -4.5730   -2.4680    0.1900 C   0  0  0  0  0  0  0  0  0  0  0  0
   -3.6710   -1.2830    0.2790 C   0  0  0  0  0  0  0  0  0  0  0  0
   -2.9040   -1.0320   -0.9010 O   0  0  0  0  0  0  0  0  0  0  0  0
   -2.0570    0.0620   -0.8340 C   0  0  0  0  0  0  0  0  0  0  0  0
   -2.5540    1.3170   -1.1930 C   0  0  0  0  0  0  0  0  0  0  0  0
   -3.9850    1.4790   -1.6050 C   0  0  0  0  0  0  0  0  0  0  0  0
   -1.6710    2.3550   -1.0790 C   0  0  0  0  0  0  0  0  0  0  0  0
   -0.3490    2.1840   -0.6340 C   0  0  0  0  0  0  0  0  0  0  0  0
    0.5330    3.3450   -0.5490 C   0  0  0  0  0  0  0  0  0  0  0  0
    1.2080    3.6200    0.6340 N   0  0  0  0  0  0  0  0  0  0  0  0
    1.9230    4.7240    0.4450 C   0  0  0  0  0  0  0  0  0  0  0  0
    1.6950    5.1330   -0.8510 N   0  0  0  0  0  0  0  0  0  0  0  0
    0.8640    4.2850   -1.3990 O   0  0  0  0  0  0  0  0  0  0  0  0
    0.1080    0.9460   -0.3020 C   0  0  0  0  0  0  0  0  0  0  0  0
    1.3970    0.7150    0.0320 N   0  0  0  0  0  0  0  0  0  0  0  0
    1.8880   -0.5200    0.2640 C   0  0  0  0  0  0  0  0  0  0  0  0
    3.3340   -0.7330    0.3710 C   0  0  0  0  0  0  0  0  0  0  0  0
    3.8820   -1.4300    1.4810 N   0  0  0  0  0  0  0  0  0  0  0  0
    5.3240   -1.4760    1.2600 C   0  0  0  0  0  0  0  0  0  0  0  0
    1.0390   -1.6340    0.1650 C   0  0  0  0  0  0  0  0  0  0  0  0
    1.6050   -2.9760    0.4420 C   0  0  0  0  0  0  0  0  0  0  0  0
   -0.2800   -1.4110   -0.1730 C   0  0  0  0  0  0  0  0  0  0  0  0
   -0.7890   -0.1220   -0.4150 C   0  0  0  0  0  0  0  0  0  0  0  0
  1  2  1  0
  2  3  1  0
  3  4  1  0
  4  5  2  0
  4 23  1  0
  5  6  1  0
  5  7  1  0
  7  8  2  0
  8  9  1  0
  8 14  1  0
  9 10  2  0
  9 13  1  0
 10 11  1  0
 11 12  2  0
 12 13  1  0
 14 15  2  0
 14 23  1  0
 15 16  1  0
 16 17  1  0
 16 20  2  0
 17 18  1  0
 18 19  1  0
 20 21  1  0
 20 22  1  0
 22 23  2  0
M  END
