
     RDKit          3D

 23 25  0  0  0  0  0  0  0  0999 V2000
   -6.2150    0.8380    0.4340 C   0  0  0  0  0  0  0  0  0  0  0  0
   -5.0820    0.2220    0.7110 C   0  0  0  0  0  0  0  0  0  0  0  0
   -3.7540    0.6980    0.1740 C   0  0  0  0  0  0  0  0  0  0  0  0
   -3.1700   -0.3590   -0.6210 N   0  0  0  0  0  0  0  0  0  0  0  0
   -3.8110   -0.7130   -1.8630 C   0  0  0  0  0  0  0  0  0  0  0  0
   -1.9930   -1.0570   -0.2240 C   0  0  0  0  0  0  0  0  0  0  0  0
   -2.0070   -2.4090    0.0600 C   0  0  0  0  0  0  0  0  0  0  0  0
   -0.8900   -3.1090    0.4580 C   0  0  0  0  0  0  0  0  0  0  0  0
    0.2970   -2.4380    0.5790 C   0  0  0  0  0  0  0  0  0  0  0  0
    0.3320   -1.0910    0.3000 C   0  0  0  0  0  0  0  0  0  0  0  0
    1.5310   -0.3890    0.4150 C   0  0  0  0  0  0  0  0  0  0  0  0
    1.6720    0.9530    0.1570 C   0  0  0  0  0  0  0  0  0  0  0  0
    2.7850    1.6420    0.2500 O   0  0  0  0  0  0  0  0  0  0  0  0
    4.0850    1.7110    0.2830 C   0  0  0  0  0  0  0  0  0  0  0  0
    4.7480    2.9240    0.4650 N   0  0  0  0  0  0  0  0  0  0  0  0
    6.0230    2.7410    0.4590 N   0  0  0  0  0  0  0  0  0  0  0  0
    6.2370    1.4510    0.2790 C   0  0  0  0  0  0  0  0  0  0  0  0
    7.3880    0.9340    0.2240 O   0  0  0  0  0  0  0  0  0  0  0  0
    5.0660    0.7980    0.1680 N   0  0  0  0  0  0  0  0  0  0  0  0
    4.9780   -0.6370   -0.0580 C   0  0  0  0  0  0  0  0  0  0  0  0
    0.4960    1.6340   -0.2490 C   0  0  0  0  0  0  0  0  0  0  0  0
   -0.6910    0.9620   -0.3670 C   0  0  0  0  0  0  0  0  0  0  0  0
   -0.7810   -0.3870   -0.0970 C   0  0  0  0  0  0  0  0  0  0  0  0
  1  2  2  0
  2  3  1  0
  3  4  1  0
  4  5  1  0
  4  6  1  0
  6  7  2  0
  6 23  1  0
  7  8  1  0
  8  9  2  0
  9 10  1  0
 10 11  2  0
 10 23  1  0
 11 12  1  0
 12 13  1  0
 12 21  2  0
 13 14  1  0
 14 15  2  0
 14 19  1  0
 15 16  1  0
 16 17  1  0
 17 18  2  0
 17 19  1  0
 19 20  1  0
 21 22  1  0
 22 23  2  0
M  END
