
     RDKit          3D

 23 25  0  0  0  0  0  0  0  0999 V2000
   -0.5450   -3.6630   -0.5900 C   0  0  0  0  0  0  0  0  0  0  0  0
   -0.8320   -2.2530   -0.2500 C   0  0  0  0  0  0  0  0  0  0  0  0
   -2.1320   -1.7770   -0.1010 C   0  0  0  0  0  0  0  0  0  0  0  0
   -2.3950   -0.4640    0.2150 C   0  0  0  0  0  0  0  0  0  0  0  0
   -3.6960    0.0790    0.3740 N   0  0  0  0  0  0  0  0  0  0  0  0
   -4.8770   -0.6690    0.0990 C   0  0  0  0  0  0  0  0  0  0  0  0
   -5.8630    0.1860   -0.7000 C   0  0  0  0  0  0  0  0  0  0  0  0
   -6.2410    1.3400    0.2200 C   0  0  0  0  0  0  0  0  0  0  0  0
   -4.9950    2.1880    0.3430 C   0  0  0  0  0  0  0  0  0  0  0  0
   -3.8080    1.4400    0.8440 C   0  0  0  0  0  0  0  0  0  0  0  0
   -1.2900    0.3240    0.3700 N   0  0  0  0  0  0  0  0  0  0  0  0
   -0.0490   -0.0950    0.2360 C   0  0  0  0  0  0  0  0  0  0  0  0
    1.0790    0.8420    0.4260 C   0  0  0  0  0  0  0  0  0  0  0  0
    0.8130    2.0330    0.7140 O   0  0  0  0  0  0  0  0  0  0  0  0
    2.4210    0.4600    0.2980 N   0  0  0  0  0  0  0  0  0  0  0  0
    3.5410    1.3560    0.4780 C   0  0  0  0  0  0  0  0  0  0  0  0
    4.8440    0.6900    0.2840 C   0  0  0  0  0  0  0  0  0  0  0  0
    5.0970   -0.6270   -0.0330 C   0  0  0  0  0  0  0  0  0  0  0  0
    6.4660   -0.7550   -0.1020 C   0  0  0  0  0  0  0  0  0  0  0  0
    6.9760    0.4960    0.1780 C   0  0  0  0  0  0  0  0  0  0  0  0
    8.4410    0.7800    0.2030 C   0  0  0  0  0  0  0  0  0  0  0  0
    5.9850    1.3240    0.4010 O   0  0  0  0  0  0  0  0  0  0  0  0
    0.1660   -1.3840   -0.0730 N   0  0  0  0  0  0  0  0  0  0  0  0
  1  2  1  0
  2  3  2  0
  2 23  1  0
  3  4  1  0
  4  5  1  0
  4 11  2  0
  5  6  1  0
  5 10  1  0
  6  7  1  0
  7  8  1  0
  8  9  1  0
  9 10  1  0
 11 12  1  0
 12 13  1  0
 12 23  2  0
 13 14  2  0
 13 15  1  0
 15 16  1  0
 16 17  1  0
 17 18  2  0
 17 22  1  0
 18 19  1  0
 19 20  2  0
 20 21  1  0
 20 22  1  0
M  END
