
     RDKit          3D

 21 23  0  0  0  0  0  0  0  0999 V2000
   -6.2310   -0.6350   -0.6570 O   0  0  0  0  0  0  0  0  0  0  0  0
   -4.9960   -0.2040   -0.1360 C   0  0  0  0  0  0  0  0  0  0  0  0
   -4.3650   -0.9230    0.8480 C   0  0  0  0  0  0  0  0  0  0  0  0
   -3.1610   -0.5420    1.3860 C   0  0  0  0  0  0  0  0  0  0  0  0
   -2.5690    0.6190    0.9080 C   0  0  0  0  0  0  0  0  0  0  0  0
   -1.3550    1.0360    1.4250 O   0  0  0  0  0  0  0  0  0  0  0  0
   -0.1980    0.5980    0.8360 C   0  0  0  0  0  0  0  0  0  0  0  0
   -0.1910   -0.2460   -0.2550 C   0  0  0  0  0  0  0  0  0  0  0  0
    0.9730   -0.6860   -0.8460 C   0  0  0  0  0  0  0  0  0  0  0  0
    0.9320   -1.5370   -1.9480 O   0  0  0  0  0  0  0  0  0  0  0  0
    2.1950   -0.2500   -0.3050 C   0  0  0  0  0  0  0  0  0  0  0  0
    2.2110    0.5900    0.7810 C   0  0  0  0  0  0  0  0  0  0  0  0
    1.0180    1.0070    1.3430 C   0  0  0  0  0  0  0  0  0  0  0  0
    3.4380    0.9980    1.2860 O   0  0  0  0  0  0  0  0  0  0  0  0
    4.5150    1.0090    0.3660 C   0  0  0  0  0  0  0  0  0  0  0  0
    4.6360   -0.4060   -0.1350 C   0  0  2  0  0  0  0  0  0  0  0  0
    5.7980   -0.5400   -0.8920 O   0  0  0  0  0  0  0  0  0  0  0  0
    3.4250   -0.7500   -0.9650 C   0  0  0  0  0  0  0  0  0  0  0  0
   -3.1870    1.3530   -0.0790 C   0  0  0  0  0  0  0  0  0  0  0  0
   -4.4000    0.9370   -0.5960 C   0  0  0  0  0  0  0  0  0  0  0  0
   -4.9680    1.7180   -1.5830 O   0  0  0  0  0  0  0  0  0  0  0  0
  1  2  1  0
  2  3  2  0
  2 20  1  0
  3  4  1  0
  4  5  2  0
  5  6  1  0
  5 19  1  0
  6  7  1  0
  7  8  2  0
  7 13  1  0
  8  9  1  0
  9 10  1  0
  9 11  2  0
 11 12  1  0
 11 18  1  0
 12 13  2  0
 12 14  1  0
 14 15  1  0
 15 16  1  0
 16 17  1  6
 16 18  1  0
 19 20  2  0
 20 21  1  0
M  END
