
     RDKit          3D

 21 23  0  0  0  0  0  0  0  0999 V2000
   -3.4100    1.4600    1.5410 C   0  0  0  0  0  0  0  0  0  0  0  0
   -2.4480    1.2940    0.3590 C   0  0  1  0  0  0  0  0  0  0  0  0
   -2.6120    2.4620   -0.4310 O   0  0  0  0  0  0  0  0  0  0  0  0
   -1.0480    1.2030    0.7870 C   0  0  0  0  0  0  0  0  0  0  0  0
   -0.2520    0.0330    0.4250 C   0  0  0  0  0  0  0  0  0  0  0  0
   -0.7430   -1.0150   -0.2770 C   0  0  0  0  0  0  0  0  0  0  0  0
    0.0520   -2.0990   -0.5880 C   0  0  0  0  0  0  0  0  0  0  0  0
    1.3650   -2.1270   -0.1840 C   0  0  0  0  0  0  0  0  0  0  0  0
    2.1690   -3.2180   -0.4940 O   0  0  0  0  0  0  0  0  0  0  0  0
    1.9050   -1.0620    0.5420 C   0  0  0  0  0  0  0  0  0  0  0  0
    3.2000   -1.0790    0.9470 O   0  0  0  0  0  0  0  0  0  0  0  0
    4.3560   -0.7060    0.2940 C   0  0  0  0  0  0  0  0  0  0  0  0
    4.4940    0.7030   -0.1470 C   0  0  0  0  0  0  0  0  0  0  0  0
    4.4450    1.5910    0.8950 O   0  0  0  0  0  0  0  0  0  0  0  0
    1.0780   -0.0120    0.8250 C   0  0  0  0  0  0  0  0  0  0  0  0
    1.5390    1.0880    1.5470 O   0  0  0  0  0  0  0  0  0  0  0  0
   -2.1330   -0.9720   -0.7060 C   0  0  0  0  0  0  0  0  0  0  0  0
   -2.8300   -1.8560   -1.3880 O   0  0  0  0  0  0  0  0  0  0  0  0
   -4.0520   -1.4360   -1.5670 C   0  0  0  0  0  0  0  0  0  0  0  0
   -4.1580   -0.2000   -0.9630 C   0  0  0  0  0  0  0  0  0  0  0  0
   -2.9140    0.1160   -0.3970 C   0  0  0  0  0  0  0  0  0  0  0  0
  2  1  1  1
  2  3  1  0
  2  4  1  0
  2 21  1  0
  4  5  1  0
  5  6  2  0
  5 15  1  0
  6  7  1  0
  6 17  1  0
  7  8  2  0
  8  9  1  0
  8 10  1  0
 10 11  1  0
 10 15  2  0
 11 12  1  0
 12 13  1  0
 13 14  1  0
 15 16  1  0
 17 18  1  0
 17 21  2  0
 18 19  1  0
 19 20  2  0
 20 21  1  0
M  END
