
     RDKit          3D

 21 23  0  0  0  0  0  0  0  0999 V2000
   -2.4640    3.9340   -0.2970 C   0  0  0  0  0  0  0  0  0  0  0  0
   -2.8470    2.5850   -0.3060 O   0  0  0  0  0  0  0  0  0  0  0  0
   -1.8710    1.5890   -0.2280 C   0  0  0  0  0  0  0  0  0  0  0  0
   -0.5520    1.9240   -0.1450 C   0  0  0  0  0  0  0  0  0  0  0  0
    0.3950    0.9210   -0.0690 C   0  0  0  0  0  0  0  0  0  0  0  0
    1.7380    1.2480    0.0160 O   0  0  0  0  0  0  0  0  0  0  0  0
    2.1840    2.5890    0.0290 C   0  0  0  0  0  0  0  0  0  0  0  0
    3.7130    2.5240    0.1310 C   0  0  0  0  0  0  0  0  0  0  0  0
    4.0270    1.8540    1.3180 O   0  0  0  0  0  0  0  0  0  0  0  0
   -0.0030   -0.4020   -0.0790 C   0  0  0  0  0  0  0  0  0  0  0  0
    0.9840   -1.3570   -0.0010 C   0  0  0  0  0  0  0  0  0  0  0  0
    0.6400   -2.6850   -0.0070 C   0  0  0  0  0  0  0  0  0  0  0  0
   -0.6910   -3.0010   -0.0920 C   0  0  0  0  0  0  0  0  0  0  0  0
   -1.7170   -2.0510   -0.1720 C   0  0  0  0  0  0  0  0  0  0  0  0
   -3.0350   -2.4730   -0.2540 O   0  0  0  0  0  0  0  0  0  0  0  0
   -1.3630   -0.7180   -0.1650 C   0  0  0  0  0  0  0  0  0  0  0  0
   -2.3450    0.2580   -0.2430 C   0  0  0  0  0  0  0  0  0  0  0  0
   -3.6860    0.0320   -0.3290 O   0  0  0  0  0  0  0  0  0  0  0  0
   -0.7540   -4.4920   -0.0780 C   0  0  0  0  0  0  0  0  0  0  0  0
    0.4440   -4.8820    0.4630 O   0  0  0  0  0  0  0  0  0  0  0  0
    1.4060   -3.9560    0.0620 C   0  0  0  0  0  0  0  0  0  0  0  0
  1  2  1  0
  2  3  1  0
  3  4  2  0
  3 17  1  0
  4  5  1  0
  5  6  1  0
  5 10  2  0
  6  7  1  0
  7  8  1  0
  8  9  1  0
 10 11  1  0
 10 16  1  0
 11 12  2  0
 12 13  1  0
 12 21  1  0
 13 14  2  0
 13 19  1  0
 14 15  1  0
 14 16  1  0
 16 17  2  0
 17 18  1  0
 19 20  1  0
 20 21  1  0
M  END
