
     RDKit          3D

 21 23  0  0  0  0  0  0  0  0999 V2000
    1.4620   -2.1480    2.3960 O   0  0  0  0  0  0  0  0  0  0  0  0
    1.1770   -1.3520    1.4810 C   0  0  0  0  0  0  0  0  0  0  0  0
   -0.1480   -1.0860    1.1460 C   0  0  0  0  0  0  0  0  0  0  0  0
   -1.0990   -1.7530    1.8830 O   0  0  0  0  0  0  0  0  0  0  0  0
   -0.5440   -0.2330    0.1620 C   0  0  0  0  0  0  0  0  0  0  0  0
   -1.9170    0.0760   -0.2240 C   0  0  0  0  0  0  0  0  0  0  0  0
   -3.0490   -0.4420    0.3400 C   0  0  0  0  0  0  0  0  0  0  0  0
   -4.3330   -0.0760   -0.1090 C   0  0  0  0  0  0  0  0  0  0  0  0
   -4.5190    0.8160   -1.1320 C   0  0  0  0  0  0  0  0  0  0  0  0
   -5.7720    1.1930   -1.5920 O   0  0  0  0  0  0  0  0  0  0  0  0
   -3.3840    1.3430   -1.7050 C   0  0  0  0  0  0  0  0  0  0  0  0
   -2.1320    0.9880   -1.2690 C   0  0  0  0  0  0  0  0  0  0  0  0
    0.4450    0.3620   -0.4920 O   0  0  0  0  0  0  0  0  0  0  0  0
    1.7160    0.1720   -0.2450 C   0  0  0  0  0  0  0  0  0  0  0  0
    2.6430    0.8690   -1.0170 C   0  0  0  0  0  0  0  0  0  0  0  0
    3.9790    0.6900   -0.7800 C   0  0  0  0  0  0  0  0  0  0  0  0
    4.9610    1.3680   -1.5300 O   0  0  0  0  0  0  0  0  0  0  0  0
    4.4210   -0.1590    0.1990 C   0  0  0  0  0  0  0  0  0  0  0  0
    3.4950   -0.8730    0.9910 C   0  0  0  0  0  0  0  0  0  0  0  0
    3.9590   -1.7060    1.9540 O   0  0  0  0  0  0  0  0  0  0  0  0
    2.1560   -0.6980    0.7590 C   0  0  0  0  0  0  0  0  0  0  0  0
  1  2  2  0
  2  3  1  0
  2 21  1  0
  3  4  1  0
  3  5  2  0
  5  6  1  0
  5 13  1  0
  6  7  2  0
  6 12  1  0
  7  8  1  0
  8  9  2  0
  9 10  1  0
  9 11  1  0
 11 12  2  0
 13 14  1  0
 14 15  2  0
 14 21  1  0
 15 16  1  0
 16 17  1  0
 16 18  2  0
 18 19  1  0
 19 20  1  0
 19 21  2  0
M  END
