
     RDKit          3D

 21 22  0  0  0  0  0  0  0  0999 V2000
   -4.8740   -1.1210    0.4210 C   0  0  0  0  0  0  0  0  0  0  0  0
   -3.7390   -0.6080    0.0840 C   0  0  0  0  0  0  0  0  0  0  0  0
   -2.5790   -1.4590   -0.2820 C   0  0  0  0  0  0  0  0  0  0  0  0
   -1.3720   -0.7110    0.2570 C   0  0  0  0  0  0  0  0  0  0  0  0
   -1.1190    0.4700   -0.6690 C   0  0  2  0  0  0  0  0  0  0  0  0
   -0.7730   -0.0450   -1.9080 O   0  0  0  0  0  0  0  0  0  0  0  0
   -0.0960    1.4070   -0.0810 C   0  0  0  0  0  0  0  0  0  0  0  0
    1.1670    0.8710    0.1460 O   0  0  0  0  0  0  0  0  0  0  0  0
    2.0630    0.3770   -0.7720 C   0  0  0  0  0  0  0  0  0  0  0  0
    1.7460    0.3980   -1.9840 O   0  0  0  0  0  0  0  0  0  0  0  0
    3.3750   -0.1690   -0.3590 C   0  0  0  0  0  0  0  0  0  0  0  0
    4.3050   -0.6750   -1.2390 C   0  0  0  0  0  0  0  0  0  0  0  0
    5.3950   -1.0890   -0.5010 C   0  0  0  0  0  0  0  0  0  0  0  0
    5.0680   -0.8100    0.8110 C   0  0  0  0  0  0  0  0  0  0  0  0
    5.9650   -1.0960    1.9740 C   0  0  0  0  0  0  0  0  0  0  0  0
    3.8680   -0.2710    0.8310 O   0  0  0  0  0  0  0  0  0  0  0  0
   -2.4030    1.2690   -0.8620 C   0  0  1  0  0  0  0  0  0  0  0  0
   -2.1810    2.6320   -0.6680 O   0  0  0  0  0  0  0  0  0  0  0  0
   -2.8890    1.1360   -2.1690 O   0  0  0  0  0  0  0  0  0  0  0  0
   -3.4980    0.8310    0.0380 C   0  0  0  0  0  0  0  0  0  0  0  0
   -4.2230    1.6810    0.7600 C   0  0  0  0  0  0  0  0  0  0  0  0
  1  2  2  0
  2  3  1  0
  2 20  1  0
  3  4  1  0
  4  5  1  0
  5  6  1  6
  5  7  1  0
  5 17  1  0
  7  8  1  0
  8  9  1  0
  9 10  2  0
  9 11  1  0
 11 12  2  0
 11 16  1  0
 12 13  1  0
 13 14  2  0
 14 15  1  0
 14 16  1  0
 17 18  1  1
 17 19  1  0
 17 20  1  0
 20 21  2  0
M  END
