
     RDKit          3D

 21 23  0  0  0  0  0  0  0  0999 V2000
   -1.7480    1.6090   -1.3560 C   0  0  0  0  0  0  0  0  0  0  0  0
   -2.2980    0.9790   -0.1000 C   0  0  1  0  0  0  0  0  0  0  0  0
   -1.7070    1.4900    1.0430 O   0  0  0  0  0  0  0  0  0  0  0  0
   -3.8170    1.1560   -0.0220 C   0  0  0  0  0  0  0  0  0  0  0  0
   -4.1270    0.2500    1.1590 C   0  0  0  0  0  0  0  0  0  0  0  0
   -3.2810   -0.9590    0.8600 C   0  0  0  0  0  0  0  0  0  0  0  0
   -2.1910   -0.5130   -0.0850 C   0  0  1  0  0  0  0  0  0  0  0  0
   -2.4840   -1.0530   -1.3320 O   0  0  0  0  0  0  0  0  0  0  0  0
   -0.8340   -1.0150    0.3450 C   0  0  0  0  0  0  0  0  0  0  0  0
    0.1670   -0.6270   -0.5770 O   0  0  0  0  0  0  0  0  0  0  0  0
    1.4960   -0.9680   -0.4020 C   0  0  0  0  0  0  0  0  0  0  0  0
    1.9870   -2.1430   -0.9270 C   0  0  0  0  0  0  0  0  0  0  0  0
    1.1150   -2.9630   -1.6290 O   0  0  0  0  0  0  0  0  0  0  0  0
    3.3150   -2.4830   -0.7520 C   0  0  0  0  0  0  0  0  0  0  0  0
    4.1890   -1.6710   -0.0530 C   0  0  0  0  0  0  0  0  0  0  0  0
    3.6850   -0.4990    0.4670 C   0  0  0  0  0  0  0  0  0  0  0  0
    2.3630   -0.1470    0.3000 C   0  0  0  0  0  0  0  0  0  0  0  0
    1.9430    1.0410    0.8520 O   0  0  0  0  0  0  0  0  0  0  0  0
    2.7920    2.1570    1.0370 C   0  0  0  0  0  0  0  0  0  0  0  0
    4.2370    1.7960    1.1400 C   0  0  0  0  0  0  0  0  0  0  0  0
    4.4730    0.4040    1.1930 O   0  0  0  0  0  0  0  0  0  0  0  0
  2  1  1  6
  2  3  1  0
  2  4  1  0
  2  7  1  0
  4  5  1  0
  5  6  1  0
  6  7  1  0
  7  8  1  6
  7  9  1  0
  9 10  1  0
 10 11  1  0
 11 12  2  0
 11 17  1  0
 12 13  1  0
 12 14  1  0
 14 15  2  0
 15 16  1  0
 16 17  2  0
 16 21  1  0
 17 18  1  0
 18 19  1  0
 19 20  1  0
 20 21  1  0
M  END
