
     RDKit          3D

  7  6  0  0  0  0  0  0  0  0999 V2000
    2.6150   -0.2460    0.0930 C   0  0  0  0  0  0  0  0  0  0  0  0
    1.1630   -0.2810    0.4010 C   0  0  0  0  0  0  0  0  0  0  0  0
    0.7340   -0.8030    1.5010 N   0  0  0  0  0  0  0  0  0  0  0  0
    0.1800    0.2630   -0.5150 C   0  0  0  0  0  0  0  0  0  0  0  0
   -1.1120    0.2480   -0.2740 C   0  0  0  0  0  0  0  0  0  0  0  0
   -2.1170    0.8070   -1.2130 C   0  0  0  0  0  0  0  0  0  0  0  0
   -1.6240   -0.3170    0.9270 N   0  0  0  0  0  0  0  0  0  0  0  0
  1  2  1  0
  2  3  2  0
  2  4  1  0
  4  5  2  3
  5  6  1  0
  5  7  1  0
M  END
