
     RDKit          3D

  8  7  0  0  0  0  0  0  0  0999 V2000
   -1.1520    1.1630   -1.3670 C   0  0  0  0  0  0  0  0  0  0  0  0
   -0.9580    0.6030   -0.0060 C   0  0  0  0  0  0  0  0  0  0  0  0
   -1.9320    0.8800    1.0130 N   0  0  0  0  0  0  0  0  0  0  0  0
    0.0900   -0.1500    0.3060 C   0  0  0  0  0  0  0  0  0  0  0  0
    0.2010   -0.6690    1.6990 C   0  0  0  0  0  0  0  0  0  0  0  0
    1.1330   -0.4950   -0.6350 C   0  0  0  0  0  0  0  0  0  0  0  0
    1.0440   -0.0530   -1.8350 N   0  0  0  0  0  0  0  0  0  0  0  0
    2.2270   -1.3020   -0.2430 N   0  0  0  0  0  0  0  0  0  0  0  0
  1  2  1  0
  2  3  1  0
  2  4  2  3
  4  5  1  0
  4  6  1  0
  6  7  2  0
  6  8  1  0
M  END
