
     RDKit          3D

  8  8  0  0  0  0  0  0  0  0999 V2000
   -1.9670   -0.6400    0.4290 C   0  0  0  0  0  0  0  0  0  0  0  0
   -1.2510    0.2810   -0.5240 C   0  0  0  0  0  0  0  0  0  0  0  0
    0.0870    0.6360   -0.0790 C   0  0  0  0  0  0  0  0  0  0  0  0
    0.4460    1.8050    0.4660 N   0  0  0  0  0  0  0  0  0  0  0  0
    1.7310    1.7560    0.7410 N   0  0  0  0  0  0  0  0  0  0  0  0
    2.2560    0.5710    0.3930 C   0  0  0  0  0  0  0  0  0  0  0  0
    1.2170   -0.1690   -0.1390 C   0  0  0  0  0  0  0  0  0  0  0  0
    1.3250   -1.4860   -0.6390 N   0  0  0  0  0  0  0  0  0  0  0  0
  1  2  1  0
  2  3  1  0
  3  4  1  0
  3  7  2  0
  4  5  1  0
  5  6  2  0
  6  7  1  0
  7  8  1  0
M  END
