
     RDKit          3D

  8  7  0  0  0  0  0  0  0  0999 V2000
    1.7170    1.4130    0.3440 C   0  0  0  0  0  0  0  0  0  0  0  0
    1.4250    0.0130   -0.0340 C   0  0  0  0  0  0  0  0  0  0  0  0
    2.4770   -0.7540   -0.2740 N   0  0  0  0  0  0  0  0  0  0  0  0
    0.1300   -0.5950   -0.1670 C   0  0  0  0  0  0  0  0  0  0  0  0
    0.1330   -1.9950   -0.5590 N   0  0  0  0  0  0  0  0  0  0  0  0
   -1.0490   -0.0270    0.0290 C   0  0  0  0  0  0  0  0  0  0  0  0
   -1.3170    1.3530    0.4300 C   0  0  0  0  0  0  0  0  0  0  0  0
   -2.2060   -0.8660   -0.1780 N   0  0  0  0  0  0  0  0  0  0  0  0
  1  2  1  0
  2  3  2  0
  2  4  1  0
  4  5  1  0
  4  6  2  3
  6  7  1  0
  6  8  1  0
M  END
