
     RDKit          3D

  8  7  0  0  0  0  0  0  0  0999 V2000
   -2.4920    1.2110   -0.2880 C   0  0  0  0  0  0  0  0  0  0  0  0
   -1.2870    0.3560   -0.2860 C   0  0  0  0  0  0  0  0  0  0  0  0
   -1.3970   -1.0140   -0.8070 C   0  0  0  0  0  0  0  0  0  0  0  0
   -0.1610    0.8250    0.1720 C   0  0  0  0  0  0  0  0  0  0  0  0
    1.1140    0.1610    0.2610 C   0  0  0  0  0  0  0  0  0  0  0  0
    1.2710   -1.1650   -0.1760 N   0  0  0  0  0  0  0  0  0  0  0  0
    2.1270    0.7760    0.7430 N   0  0  0  0  0  0  0  0  0  0  0  0
    3.3920    0.2640    0.8840 N   0  0  0  0  0  0  0  0  0  0  0  0
  1  2  1  0
  2  3  1  0
  2  4  2  3
  4  5  1  0
  5  6  1  0
  5  7  2  3
  7  8  1  0
M  END
