
     RDKit          3D

  8  7  0  0  0  0  0  0  0  0999 V2000
   -2.3500   -0.5100    0.1480 C   0  0  0  0  0  0  0  0  0  0  0  0
   -0.9690   -0.5990   -0.3480 C   0  0  0  0  0  0  0  0  0  0  0  0
   -0.6860   -1.4180   -1.2980 N   0  0  0  0  0  0  0  0  0  0  0  0
    0.1060    0.2110    0.1950 C   0  0  0  0  0  0  0  0  0  0  0  0
   -0.2140    1.1590    1.2900 C   0  0  0  0  0  0  0  0  0  0  0  0
    1.3420    0.1210   -0.2610 C   0  0  0  0  0  0  0  0  0  0  0  0
    1.6460   -0.7970   -1.3200 N   0  0  0  0  0  0  0  0  0  0  0  0
    2.4170    0.8890    0.2390 N   0  0  0  0  0  0  0  0  0  0  0  0
  1  2  1  0
  2  3  2  0
  2  4  1  0
  4  5  1  0
  4  6  2  3
  6  7  1  0
  6  8  1  0
M  END
