
     RDKit          3D

  8  8  0  0  0  0  0  0  0  0999 V2000
   -2.4310    0.8180    0.2700 N   0  0  0  0  0  0  0  0  0  0  0  0
   -1.5130   -0.2860    0.0900 C   0  0  0  0  0  0  0  0  0  0  0  0
   -0.0980    0.1830    0.1420 C   0  0  0  0  0  0  0  0  0  0  0  0
    0.3710    1.4210    0.3230 N   0  0  0  0  0  0  0  0  0  0  0  0
    1.7100    1.4120    0.3030 C   0  0  0  0  0  0  0  0  0  0  0  0
    2.1130    0.1090    0.1000 C   0  0  0  0  0  0  0  0  0  0  0  0
    0.9840   -0.6540    0.0000 C   0  0  0  0  0  0  0  0  0  0  0  0
    0.9240   -2.0650   -0.2130 N   0  0  0  0  0  0  0  0  0  0  0  0
  1  2  1  0
  2  3  1  0
  3  4  1  0
  3  7  2  0
  4  5  1  0
  5  6  2  0
  6  7  1  0
  7  8  1  0
M  END
