
     RDKit          3D

 23 26  0  0  0  0  0  0  0  0999 V2000
    1.1490    1.4550   -1.6620 O   0  0  0  0  0  0  0  0  0  0  0  0
    1.9480    0.8800   -0.8870 C   0  0  0  0  0  0  0  0  0  0  0  0
    3.2660    1.1900   -0.9950 N   0  0  0  0  0  0  0  0  0  0  0  0
    4.1650    0.5950   -0.1790 C   0  0  0  0  0  0  0  0  0  0  0  0
    5.5270    0.8790   -0.2360 C   0  0  0  0  0  0  0  0  0  0  0  0
    6.0820    2.0590   -1.4280 Cl  0  0  0  0  0  0  0  0  0  0  0  0
    6.4580    0.2900    0.5910 C   0  0  0  0  0  0  0  0  0  0  0  0
    6.0490   -0.6320    1.5340 C   0  0  0  0  0  0  0  0  0  0  0  0
    7.2130   -1.3950    2.6050 Cl  0  0  0  0  0  0  0  0  0  0  0  0
    4.7020   -0.9210    1.6000 C   0  0  0  0  0  0  0  0  0  0  0  0
    3.7730   -0.3310    0.7710 C   0  0  0  0  0  0  0  0  0  0  0  0
    2.4360   -0.6110    0.8420 C   0  0  0  0  0  0  0  0  0  0  0  0
    1.4730   -0.0290    0.0290 C   0  0  0  0  0  0  0  0  0  0  0  0
    0.0630   -0.3800    0.1780 C   0  0  0  0  0  0  0  0  0  0  0  0
   -1.0560    0.1250   -0.4130 C   0  0  0  0  0  0  0  0  0  0  0  0
   -2.1510   -0.5400    0.0950 C   0  0  0  0  0  0  0  0  0  0  0  0
   -3.5160   -0.3360   -0.2030 N   0  0  0  0  0  0  0  0  0  0  0  0
   -4.1570   -0.5530   -1.4670 C   0  0  0  0  0  0  0  0  0  0  0  0
   -5.1890    0.5220   -1.5490 C   0  0  0  0  0  0  0  0  0  0  0  0
   -5.6960    0.5690   -0.1200 C   0  0  0  0  0  0  0  0  0  0  0  0
   -4.5340    0.1180    0.7310 C   0  0  0  0  0  0  0  0  0  0  0  0
   -1.6740   -1.4350    0.9830 N   0  0  0  0  0  0  0  0  0  0  0  0
   -0.3700   -1.3480    1.0380 N   0  0  0  0  0  0  0  0  0  0  0  0
  1  2  2  0
  2  3  1  0
  2 13  1  0
  3  4  1  0
  4  5  2  0
  4 11  1  0
  5  6  1  0
  5  7  1  0
  7  8  2  0
  8  9  1  0
  8 10  1  0
 10 11  2  0
 11 12  1  0
 12 13  2  0
 13 14  1  0
 14 15  1  0
 14 23  2  0
 15 16  2  0
 16 17  1  0
 16 22  1  0
 17 18  1  0
 17 21  1  0
 18 19  1  0
 19 20  1  0
 20 21  1  0
 22 23  1  0
M  END
