
     RDKit          3D

 21 23  0  0  0  0  0  0  0  0999 V2000
   -3.1140   -3.0030    1.4920 O   0  0  0  0  0  0  0  0  0  0  0  0
   -3.1870   -1.7900    0.8070 C   0  0  0  0  0  0  0  0  0  0  0  0
   -4.4050   -1.1370    0.8710 C   0  0  0  0  0  0  0  0  0  0  0  0
   -4.5860    0.0650    0.2300 C   0  0  0  0  0  0  0  0  0  0  0  0
   -3.5260    0.5970   -0.4730 C   0  0  0  0  0  0  0  0  0  0  0  0
   -2.3140   -0.0700   -0.5270 C   0  0  0  0  0  0  0  0  0  0  0  0
   -2.1030   -1.2650    0.1000 C   0  0  0  0  0  0  0  0  0  0  0  0
   -0.8930   -2.0380    0.0870 C   0  0  0  0  0  0  0  0  0  0  0  0
    0.3610   -1.4800   -0.4160 C   0  0  0  0  0  0  0  0  0  0  0  0
    0.8320   -0.3110    0.4050 C   0  0  0  0  0  0  0  0  0  0  0  0
    2.1240    0.2080   -0.1930 C   0  0  2  0  0  0  0  0  0  0  0  0
    1.8790    0.5860   -1.5130 O   0  0  0  0  0  0  0  0  0  0  0  0
    3.2590   -0.7440   -0.1220 C   0  0  0  0  0  0  0  0  0  0  0  0
    4.3480   -0.2240   -0.8030 O   0  0  0  0  0  0  0  0  0  0  0  0
    4.8330    0.9410   -0.2080 C   0  0  0  0  0  0  0  0  0  0  0  0
    3.7380    2.0100   -0.2890 C   0  0  0  0  0  0  0  0  0  0  0  0
    2.5510    1.4950    0.5110 C   0  0  2  0  0  0  0  0  0  0  0  0
    2.8940    1.2510    1.8380 O   0  0  0  0  0  0  0  0  0  0  0  0
   -3.9300    1.8120   -1.0380 O   0  0  0  0  0  0  0  0  0  0  0  0
   -5.2200    2.1530   -0.5290 C   0  0  0  0  0  0  0  0  0  0  0  0
   -5.6490    0.9580    0.0950 O   0  0  0  0  0  0  0  0  0  0  0  0
  1  2  1  0
  2  3  2  0
  2  7  1  0
  3  4  1  0
  4  5  2  0
  4 21  1  0
  5  6  1  0
  5 19  1  0
  6  7  2  0
  7  8  1  0
  8  9  1  0
  9 10  1  0
 10 11  1  0
 11 12  1  6
 11 13  1  0
 11 17  1  0
 13 14  1  0
 14 15  1  0
 15 16  1  0
 16 17  1  0
 17 18  1  1
 19 20  1  0
 20 21  1  0
M  END
