
     RDKit          3D

 20 22  0  0  0  0  0  0  0  0999 V2000
    5.4850    1.3820    0.0580 C   0  0  0  0  0  0  0  0  0  0  0  0
    4.9830    0.0560    0.0960 O   0  0  0  0  0  0  0  0  0  0  0  0
    3.5910   -0.1100    0.1220 C   0  0  0  0  0  0  0  0  0  0  0  0
    2.7330    0.9680    0.1120 C   0  0  0  0  0  0  0  0  0  0  0  0
    1.3530    0.7750    0.1390 C   0  0  0  0  0  0  0  0  0  0  0  0
    0.3390    1.6120    0.1370 O   0  0  0  0  0  0  0  0  0  0  0  0
   -0.8050    1.0160    0.1690 C   0  0  0  0  0  0  0  0  0  0  0  0
   -2.1070    1.4670    0.1800 C   0  0  0  0  0  0  0  0  0  0  0  0
   -3.1810    0.5670    0.2170 C   0  0  0  0  0  0  0  0  0  0  0  0
   -4.5210    1.1220    0.2270 C   0  0  0  0  0  0  0  0  0  0  0  0
   -5.4960    0.3370    0.2600 O   0  0  0  0  0  0  0  0  0  0  0  0
   -4.7660    2.4830    0.2010 O   0  0  0  0  0  0  0  0  0  0  0  0
   -2.9490   -0.7800    0.2430 C   0  0  0  0  0  0  0  0  0  0  0  0
   -4.0520   -1.7570    0.2830 C   0  0  0  0  0  0  0  0  0  0  0  0
   -1.6240   -1.2210    0.2310 C   0  0  0  0  0  0  0  0  0  0  0  0
   -0.5690   -0.3370    0.1950 C   0  0  0  0  0  0  0  0  0  0  0  0
    0.8010   -0.4860    0.1760 C   0  0  0  0  0  0  0  0  0  0  0  0
    1.6530   -1.5690    0.1860 C   0  0  0  0  0  0  0  0  0  0  0  0
    3.0180   -1.3680    0.1590 C   0  0  0  0  0  0  0  0  0  0  0  0
    3.8800   -2.4620    0.1690 O   0  0  0  0  0  0  0  0  0  0  0  0
  1  2  1  0
  2  3  1  0
  3  4  2  0
  3 19  1  0
  4  5  1  0
  5  6  1  0
  5 17  2  0
  6  7  1  0
  7  8  2  0
  7 16  1  0
  8  9  1  0
  9 10  1  0
  9 13  2  0
 10 11  2  0
 10 12  1  0
 13 14  1  0
 13 15  1  0
 15 16  2  0
 16 17  1  0
 17 18  1  0
 18 19  2  0
 19 20  1  0
M  END
