
     RDKit          3D

 21 22  0  0  0  0  0  0  0  0999 V2000
   -2.2950   -4.2380    1.4570 O   0  0  0  0  0  0  0  0  0  0  0  0
   -3.2860   -3.4210    0.9420 C   0  0  0  0  0  0  0  0  0  0  0  0
   -3.0180   -2.2660    0.3720 C   0  0  0  0  0  0  0  0  0  0  0  0
   -4.0090   -1.4600   -0.1370 O   0  0  0  0  0  0  0  0  0  0  0  0
   -1.6080   -1.8460    0.2870 C   0  0  0  0  0  0  0  0  0  0  0  0
   -1.3310   -0.7060   -0.2750 C   0  0  0  0  0  0  0  0  0  0  0  0
   -2.3460    0.1230   -0.7970 O   0  0  0  0  0  0  0  0  0  0  0  0
   -2.0900    1.5320   -0.7120 C   0  0  1  0  0  0  0  0  0  0  0  0
   -2.0460    1.9730    0.7260 C   0  0  0  0  0  0  0  0  0  0  0  0
   -1.7970    3.3340    0.7810 O   0  0  0  0  0  0  0  0  0  0  0  0
   -0.7970    1.8920   -1.3690 C   0  0  0  0  0  0  0  0  0  0  0  0
    0.2020    0.9980   -1.0120 O   0  0  0  0  0  0  0  0  0  0  0  0
    0.0390   -0.2300   -0.3930 C   0  0  0  0  0  0  0  0  0  0  0  0
    1.0810   -0.9100    0.0530 C   0  0  0  0  0  0  0  0  0  0  0  0
    2.4140   -0.3570   -0.1040 C   0  0  0  0  0  0  0  0  0  0  0  0
    3.4080   -1.1770   -0.6390 C   0  0  0  0  0  0  0  0  0  0  0  0
    4.6850   -0.6770   -0.7720 C   0  0  0  0  0  0  0  0  0  0  0  0
    4.9930    0.6000   -0.3930 C   0  0  0  0  0  0  0  0  0  0  0  0
    4.0320    1.4180    0.1340 C   0  0  0  0  0  0  0  0  0  0  0  0
    2.7360    0.9180    0.2720 C   0  0  0  0  0  0  0  0  0  0  0  0
    1.7720    1.7400    0.8050 O   0  0  0  0  0  0  0  0  0  0  0  0
  1  2  1  0
  2  3  2  3
  3  4  1  0
  3  5  1  0
  5  6  2  3
  6  7  1  0
  6 13  1  0
  7  8  1  0
  8  9  1  1
  8 11  1  0
  9 10  1  0
 11 12  1  0
 12 13  1  0
 13 14  2  3
 14 15  1  0
 15 16  2  0
 15 20  1  0
 16 17  1  0
 17 18  2  0
 18 19  1  0
 19 20  2  0
 20 21  1  0
M  END
