
     RDKit          3D

 20 22  0  0  0  0  0  0  0  0999 V2000
   -5.2590    2.1830    0.3670 O   0  0  0  0  0  0  0  0  0  0  0  0
   -5.2990    0.8730   -0.0920 C   0  0  0  0  0  0  0  0  0  0  0  0
   -3.9290    0.3010   -0.0300 C   0  0  0  0  0  0  0  0  0  0  0  0
   -2.8720    1.0500    0.4270 C   0  0  0  0  0  0  0  0  0  0  0  0
   -1.6090    0.4690    0.4650 C   0  0  0  0  0  0  0  0  0  0  0  0
   -1.3340   -0.8210    0.0710 C   0  0  0  0  0  0  0  0  0  0  0  0
   -0.1410   -1.4300    0.0820 O   0  0  0  0  0  0  0  0  0  0  0  0
    1.1500   -1.1230    0.1360 C   0  0  0  0  0  0  0  0  0  0  0  0
    2.0470   -2.1350    0.5240 C   0  0  0  0  0  0  0  0  0  0  0  0
    3.4030   -1.9220    0.6100 C   0  0  0  0  0  0  0  0  0  0  0  0
    3.9240   -0.6750    0.3090 C   0  0  0  0  0  0  0  0  0  0  0  0
    3.0550    0.3130   -0.0700 C   0  0  0  0  0  0  0  0  0  0  0  0
    1.6860    0.1000   -0.1570 C   0  0  0  0  0  0  0  0  0  0  0  0
    3.8930    1.5340   -0.3280 C   0  0  1  0  0  0  0  0  0  0  0  0
    4.0340    2.2380    0.8830 O   0  0  0  0  0  0  0  0  0  0  0  0
    5.2380    0.9160   -0.6310 C   0  0  0  0  0  0  0  0  0  0  0  0
    5.2400   -0.1700    0.3070 O   0  0  0  0  0  0  0  0  0  0  0  0
   -2.4420   -1.5660   -0.3940 C   0  0  0  0  0  0  0  0  0  0  0  0
   -3.6930   -1.0030   -0.4350 C   0  0  0  0  0  0  0  0  0  0  0  0
   -4.7780   -1.7410   -0.8930 O   0  0  0  0  0  0  0  0  0  0  0  0
  1  2  1  0
  2  3  1  0
  3  4  2  0
  3 19  1  0
  4  5  1  0
  5  6  2  0
  6  7  1  0
  6 18  1  0
  7  8  1  0
  8  9  2  0
  8 13  1  0
  9 10  1  0
 10 11  2  0
 11 12  1  0
 11 17  1  0
 12 13  2  0
 12 14  1  0
 14 15  1  1
 14 16  1  0
 16 17  1  0
 18 19  2  0
 19 20  1  0
M  END
