
     RDKit          3D

 21 23  0  0  0  0  0  0  0  0999 V2000
    4.8950    0.3770   -1.0050 C   0  0  0  0  0  0  0  0  0  0  0  0
    4.2910    1.1140    0.1780 C   0  0  2  0  0  0  0  0  0  0  0  0
    4.7360    0.5970    1.3950 O   0  0  0  0  0  0  0  0  0  0  0  0
    2.7890    0.9870    0.1110 C   0  0  0  0  0  0  0  0  0  0  0  0
    2.4130   -0.3560    0.2100 O   0  0  0  0  0  0  0  0  0  0  0  0
    1.0670   -0.6830    0.1690 C   0  0  0  0  0  0  0  0  0  0  0  0
    0.1020    0.2730    0.0360 C   0  0  0  0  0  0  0  0  0  0  0  0
   -1.2320   -0.0840   -0.0020 C   0  0  0  0  0  0  0  0  0  0  0  0
   -1.5610   -1.4200    0.0990 C   0  0  0  0  0  0  0  0  0  0  0  0
   -0.5910   -2.4060    0.2350 C   0  0  0  0  0  0  0  0  0  0  0  0
    0.7370   -2.0350    0.2710 C   0  0  0  0  0  0  0  0  0  0  0  0
    1.7040   -3.0130    0.4070 O   0  0  0  0  0  0  0  0  0  0  0  0
   -3.0440   -1.5320    0.0320 C   0  0  1  0  0  0  0  0  0  0  0  0
   -3.5360   -2.0650    1.2210 O   0  0  0  0  0  0  0  0  0  0  0  0
   -3.4940   -0.1320   -0.1140 C   0  0  0  0  0  0  0  0  0  0  0  0
   -4.7830    0.3830   -0.2260 C   0  0  0  0  0  0  0  0  0  0  0  0
   -4.8990    1.7530   -0.3520 C   0  0  0  0  0  0  0  0  0  0  0  0
   -3.7760    2.5560   -0.3650 C   0  0  0  0  0  0  0  0  0  0  0  0
   -3.9560    3.8130   -0.4850 O   0  0  0  0  0  0  0  0  0  0  0  0
   -2.5910    2.0430   -0.2590 O   0  0  0  0  0  0  0  0  0  0  0  0
   -2.4300    0.7360   -0.1360 C   0  0  0  0  0  0  0  0  0  0  0  0
  2  1  1  6
  2  3  1  0
  2  4  1  0
  4  5  1  0
  5  6  1  0
  6  7  2  0
  6 11  1  0
  7  8  1  0
  8  9  2  0
  8 21  1  0
  9 10  1  0
  9 13  1  0
 10 11  2  0
 11 12  1  0
 13 14  1  1
 13 15  1  0
 15 16  1  0
 15 21  2  0
 16 17  2  0
 17 18  1  0
 18 19  2  0
 18 20  1  0
 20 21  1  0
M  END
