
     RDKit          3D

 26 27  0  0  0  0  0  0  0  0999 V2000
    6.1440    1.4050    1.0030 C   0  0  0  0  0  0  0  0  0  0  0  0
    5.9060    0.1250    0.4490 O   0  0  0  0  0  0  0  0  0  0  0  0
    4.5920   -0.2240    0.1740 C   0  0  0  0  0  0  0  0  0  0  0  0
    3.5480    0.6130    0.4170 C   0  0  0  0  0  0  0  0  0  0  0  0
    2.1990    0.3140    0.1590 C   0  0  0  0  0  0  0  0  0  0  0  0
    1.2430    1.2830    0.5000 N   0  0  0  0  0  0  0  0  0  0  0  0
    0.0000    1.4190   -0.1340 C   0  0  0  0  0  0  0  0  0  0  0  0
   -0.4470    0.4900   -1.3880 S   0  0  0  0  0  0  0  0  0  0  0  0
   -0.9300    2.4400    0.3010 N   0  0  0  0  0  0  0  0  0  0  0  0
   -2.1430    2.5430   -0.3470 N   0  0  0  0  0  0  0  0  0  0  0  0
   -3.0400    1.6430   -0.1420 C   0  0  0  0  0  0  0  0  0  0  0  0
   -2.7850    0.5330    0.7570 C   0  0  0  0  0  0  0  0  0  0  0  0
   -3.7430   -0.3660    0.9330 C   0  0  0  0  0  0  0  0  0  0  0  0
   -5.0480   -0.3320    0.2880 C   0  0  0  0  0  0  0  0  0  0  0  0
   -6.0800   -1.3330    0.4990 C   0  0  0  0  0  0  0  0  0  0  0  0
   -7.3700   -1.1860   -0.2160 C   0  0  0  0  0  0  0  0  0  0  0  0
   -5.8970   -2.3130    1.2740 N   0  0  0  0  0  0  0  0  0  0  0  0
   -5.2900    0.6710   -0.5300 N   0  0  0  0  0  0  0  0  0  0  0  0
   -4.3440    1.6850   -0.7910 C   0  0  0  0  0  0  0  0  0  0  0  0
   -4.5600    2.6480   -1.5690 O   0  0  0  0  0  0  0  0  0  0  0  0
    1.9610   -0.9250   -0.3770 C   0  0  0  0  0  0  0  0  0  0  0  0
    3.0070   -1.8170   -0.6440 C   0  0  0  0  0  0  0  0  0  0  0  0
    4.3080   -1.4710   -0.3720 C   0  0  0  0  0  0  0  0  0  0  0  0
    5.3820   -2.3100   -0.6140 O   0  0  0  0  0  0  0  0  0  0  0  0
    6.1560   -2.2390   -2.1310 S   0  0  0  0  0  0  0  0  0  0  0  0
    7.1150   -3.4040   -2.3440 O   0  0  0  0  0  0  0  0  0  0  0  0
  1  2  1  0
  2  3  1  0
  3  4  2  0
  3 23  1  0
  4  5  1  0
  5  6  1  0
  5 21  2  0
  6  7  1  0
  7  8  2  0
  7  9  1  0
  9 10  1  0
 10 11  2  3
 11 12  1  0
 11 19  1  0
 12 13  2  0
 13 14  1  0
 14 15  1  0
 14 18  2  0
 15 16  1  0
 15 17  2  0
 18 19  1  0
 19 20  2  0
 21 22  1  0
 22 23  2  0
 23 24  1  0
 24 25  1  0
 25 26  2  0
M  END
