
     RDKit          3D

 22 25  0  0  0  0  0  0  0  0999 V2000
   -4.8500   -0.5600   -0.9460 C   0  0  0  0  0  0  0  0  0  0  0  0
   -3.8710    0.3960   -0.6230 O   0  0  0  0  0  0  0  0  0  0  0  0
   -2.5560    0.0930   -0.3720 C   0  0  0  0  0  0  0  0  0  0  0  0
   -2.1280   -1.2130   -0.4280 C   0  0  0  0  0  0  0  0  0  0  0  0
   -0.8190   -1.5710   -0.1870 C   0  0  0  0  0  0  0  0  0  0  0  0
    0.1010   -0.5830    0.1250 C   0  0  0  0  0  0  0  0  0  0  0  0
   -0.2990    0.7210    0.1910 C   0  0  0  0  0  0  0  0  0  0  0  0
   -1.6330    1.0560   -0.0610 C   0  0  0  0  0  0  0  0  0  0  0  0
   -2.0750    2.3750   -0.0060 O   0  0  0  0  0  0  0  0  0  0  0  0
   -1.2380    3.4510    0.2990 C   0  0  0  0  0  0  0  0  0  0  0  0
    1.4570   -0.9960    0.5160 C   0  0  0  0  0  0  0  0  0  0  0  0
    2.5270   -0.2310    0.8170 C   0  0  0  0  0  0  0  0  0  0  0  0
    2.8620    1.1840    0.6890 C   0  0  0  0  0  0  0  0  0  0  0  0
    3.7420    1.9060    1.4730 C   0  0  0  0  0  0  0  0  0  0  0  0
    3.8700    3.1810    1.1550 N   0  0  0  0  0  0  0  0  0  0  0  0
    3.3890    3.7670    0.3630 C   0  0  0  0  0  0  0  0  0  0  0  0
    2.2990    2.4600   -0.4560 S   0  0  0  0  0  0  0  0  0  0  0  0
    3.5520   -1.1340    1.1040 N   0  0  0  0  0  0  0  0  0  0  0  0
    3.0830   -2.3540    0.9620 C   0  0  0  0  0  0  0  0  0  0  0  0
    1.7610   -2.2930    0.5900 N   0  0  0  0  0  0  0  0  0  0  0  0
    0.8310   -3.3470    0.3440 C   0  0  0  0  0  0  0  0  0  0  0  0
   -0.4310   -2.9740   -0.2940 C   0  0  0  0  0  0  0  0  0  0  0  0
  1  2  1  0
  2  3  1  0
  3  4  2  0
  3  8  1  0
  4  5  1  0
  5  6  2  0
  5 22  1  0
  6  7  1  0
  6 11  1  0
  7  8  2  0
  8  9  1  0
  9 10  1  0
 11 12  2  0
 11 20  1  0
 12 13  1  0
 12 18  1  0
 13 14  2  0
 13 17  1  0
 14 15  1  0
 15 16  2  0
 16 17  1  0
 18 19  2  0
 19 20  1  0
 20 21  1  0
 21 22  1  0
M  END
