
     RDKit          3D

 26 28  0  0  0  0  0  0  0  0999 V2000
   -8.0750    0.9810    0.0660 C   0  0  0  0  0  0  0  0  0  0  0  0
   -6.9230    0.1920    0.6510 C   0  0  1  0  0  0  0  0  0  0  0  0
   -6.9070   -1.2300    0.0800 C   0  0  0  0  0  0  0  0  0  0  0  0
   -5.8750   -1.9270    0.8460 N   0  0  0  0  0  0  0  0  0  0  0  0
   -4.5720   -1.3010    0.8320 C   0  0  0  0  0  0  0  0  0  0  0  0
   -4.4090   -0.0090    0.6120 C   0  0  0  0  0  0  0  0  0  0  0  0
   -3.0770    0.6260    0.5980 C   0  0  0  0  0  0  0  0  0  0  0  0
   -2.9860    1.8730    0.3870 O   0  0  0  0  0  0  0  0  0  0  0  0
   -1.8880   -0.0880    0.8080 N   0  0  0  0  0  0  0  0  0  0  0  0
   -0.6020    0.4990    0.7930 N   0  0  0  0  0  0  0  0  0  0  0  0
    0.1720    0.3040   -0.3830 C   0  0  0  0  0  0  0  0  0  0  0  0
   -0.3260   -0.3680   -1.3530 O   0  0  0  0  0  0  0  0  0  0  0  0
    1.5440    0.8210   -0.5980 C   0  0  0  0  0  0  0  0  0  0  0  0
    2.6900   -0.5240   -0.1940 S   0  0  0  0  0  0  0  0  0  0  0  0
    4.3370    0.1050   -0.4500 C   0  0  0  0  0  0  0  0  0  0  0  0
    4.8620    1.1440   -0.8020 N   0  0  0  0  0  0  0  0  0  0  0  0
    6.1400    1.3090   -0.8940 N   0  0  0  0  0  0  0  0  0  0  0  0
    6.9610    0.4530   -0.6430 C   0  0  0  0  0  0  0  0  0  0  0  0
    8.4170    0.2460   -0.6190 C   0  0  0  0  0  0  0  0  0  0  0  0
    9.1610   -0.8680   -0.3260 C   0  0  0  0  0  0  0  0  0  0  0  0
   10.4970   -0.5520   -0.4370 C   0  0  0  0  0  0  0  0  0  0  0  0
   10.4900    0.7850   -0.8070 C   0  0  0  0  0  0  0  0  0  0  0  0
    9.2470    1.1930   -0.8960 O   0  0  0  0  0  0  0  0  0  0  0  0
    5.8270   -0.9510   -0.1550 S   0  0  0  0  0  0  0  0  0  0  0  0
   -5.6010    0.7910    0.3750 C   0  0  0  0  0  0  0  0  0  0  0  0
   -5.4920    1.9860   -0.0630 O   0  0  0  0  0  0  0  0  0  0  0  0
  2  1  1  6
  2  3  1  0
  2 25  1  0
  3  4  1  0
  4  5  1  0
  5  6  2  0
  6  7  1  0
  6 25  1  0
  7  8  2  0
  7  9  1  0
  9 10  1  0
 10 11  1  0
 11 12  2  0
 11 13  1  0
 13 14  1  0
 14 15  1  0
 15 16  2  0
 15 24  1  0
 16 17  1  0
 17 18  2  0
 18 19  1  0
 18 24  1  0
 19 20  2  0
 19 23  1  0
 20 21  1  0
 21 22  2  0
 22 23  1  0
 25 26  2  0
M  END
