
     RDKit          3D

 26 28  0  0  0  0  0  0  0  0999 V2000
    3.7860    2.3420    1.3830 O   0  0  0  0  0  0  0  0  0  0  0  0
    4.6410    1.6320    0.7920 C   0  0  0  0  0  0  0  0  0  0  0  0
    5.9680    1.8670    0.8440 N   0  0  0  0  0  0  0  0  0  0  0  0
    6.5480    0.9100    0.0980 C   0  0  0  0  0  0  0  0  0  0  0  0
    8.0100    0.7790   -0.1280 C   0  0  0  0  0  0  0  0  0  0  0  0
    8.5000    1.7180   -1.5920 S   0  0  0  0  0  0  0  0  0  0  0  0
    5.5700    0.1190   -0.3900 N   0  0  0  0  0  0  0  0  0  0  0  0
    4.3920    0.5520    0.0300 N   0  0  0  0  0  0  0  0  0  0  0  0
    3.1080    0.0040   -0.2540 C   0  0  0  0  0  0  0  0  0  0  0  0
    2.7120   -1.2320    0.2070 C   0  0  0  0  0  0  0  0  0  0  0  0
    1.4510   -1.7800   -0.0670 C   0  0  0  0  0  0  0  0  0  0  0  0
    0.5670   -1.0600   -0.8260 C   0  0  0  0  0  0  0  0  0  0  0  0
   -0.6830   -1.5030   -1.1530 O   0  0  0  0  0  0  0  0  0  0  0  0
   -1.8790   -1.3770   -0.4950 C   0  0  0  0  0  0  0  0  0  0  0  0
   -2.9390   -0.7040   -1.1540 C   0  0  0  0  0  0  0  0  0  0  0  0
   -4.1660   -0.5280   -0.5820 C   0  0  0  0  0  0  0  0  0  0  0  0
   -5.1900    0.1370   -1.2480 O   0  0  0  0  0  0  0  0  0  0  0  0
   -6.4230    0.2680   -0.5730 C   0  0  0  0  0  0  0  0  0  0  0  0
   -7.4540    1.0010   -1.3870 C   0  0  0  0  0  0  0  0  0  0  0  0
   -6.9210    2.6580   -1.8010 S   0  0  0  0  0  0  0  0  0  0  0  0
   -4.3310   -1.0440    0.6870 C   0  0  0  0  0  0  0  0  0  0  0  0
   -3.3240   -1.7000    1.3500 C   0  0  0  0  0  0  0  0  0  0  0  0
   -2.0670   -1.8780    0.7580 C   0  0  0  0  0  0  0  0  0  0  0  0
   -1.0740   -2.5560    1.4800 O   0  0  0  0  0  0  0  0  0  0  0  0
    1.0080    0.1660   -1.2620 N   0  0  0  0  0  0  0  0  0  0  0  0
    2.1880    0.6560   -0.9950 N   0  0  0  0  0  0  0  0  0  0  0  0
  1  2  2  0
  2  3  1  0
  2  8  1  0
  3  4  1  0
  4  5  1  0
  4  7  2  0
  5  6  1  0
  7  8  1  0
  8  9  1  0
  9 10  2  0
  9 26  1  0
 10 11  1  0
 11 12  2  0
 12 13  1  0
 12 25  1  0
 13 14  1  0
 14 15  2  0
 14 23  1  0
 15 16  1  0
 16 17  1  0
 16 21  2  0
 17 18  1  0
 18 19  1  0
 19 20  1  0
 21 22  1  0
 22 23  2  0
 23 24  1  0
 25 26  2  0
M  END
