
     RDKit          3D

 26 28  0  0  0  0  0  0  0  0999 V2000
   -5.2690    3.7640   -1.0490 O   0  0  0  0  0  0  0  0  0  0  0  0
   -5.4590    2.5360   -1.2180 C   0  0  0  0  0  0  0  0  0  0  0  0
   -4.6290    1.3930   -0.8660 C   0  0  0  0  0  0  0  0  0  0  0  0
   -5.2430    0.2800   -1.2420 C   0  0  0  0  0  0  0  0  0  0  0  0
   -4.6670   -1.4190   -1.0500 S   0  0  0  0  0  0  0  0  0  0  0  0
   -3.0820   -1.3600   -0.2380 C   0  0  0  0  0  0  0  0  0  0  0  0
   -2.9770   -1.3970    1.1350 C   0  0  0  0  0  0  0  0  0  0  0  0
   -1.7950   -1.3560    1.8070 C   0  0  0  0  0  0  0  0  0  0  0  0
   -0.5880   -1.2720    1.1040 C   0  0  0  0  0  0  0  0  0  0  0  0
    0.6080   -1.2190    1.8750 N   0  0  0  0  0  0  0  0  0  0  0  0
    1.9200   -1.3620    1.3810 C   0  0  0  0  0  0  0  0  0  0  0  0
    2.1150   -1.5590    0.1700 O   0  0  0  0  0  0  0  0  0  0  0  0
    3.1020   -1.2760    2.3270 C   0  0  0  0  0  0  0  0  0  0  0  0
    4.5980   -1.4960    1.3580 S   0  0  0  0  0  0  0  0  0  0  0  0
    4.8060   -0.1210    0.2590 C   0  0  0  0  0  0  0  0  0  0  0  0
    5.8650   -0.1140   -0.5700 N   0  0  0  0  0  0  0  0  0  0  0  0
    6.0570    0.9060   -1.4190 C   0  0  0  0  0  0  0  0  0  0  0  0
    7.0670    0.8990   -2.1980 O   0  0  0  0  0  0  0  0  0  0  0  0
    5.1820    1.9080   -1.4250 N   0  0  0  0  0  0  0  0  0  0  0  0
    4.1160    1.9280   -0.6090 C   0  0  0  0  0  0  0  0  0  0  0  0
    3.2720    2.8550   -0.5890 O   0  0  0  0  0  0  0  0  0  0  0  0
    3.9300    0.8970    0.2410 N   0  0  0  0  0  0  0  0  0  0  0  0
   -0.6560   -1.2340   -0.2570 C   0  0  0  0  0  0  0  0  0  0  0  0
   -1.8940   -1.2780   -0.9200 C   0  0  0  0  0  0  0  0  0  0  0  0
   -6.5000    0.7120   -1.8510 C   0  0  0  0  0  0  0  0  0  0  0  0
   -6.6120    1.9820   -1.8330 N   0  0  0  0  0  0  0  0  0  0  0  0
  1  2  2  0
  2  3  1  0
  2 26  1  0
  3  4  2  0
  4  5  1  0
  4 25  1  0
  5  6  1  0
  6  7  2  0
  6 24  1  0
  7  8  1  0
  8  9  2  0
  9 10  1  0
  9 23  1  0
 10 11  1  0
 11 12  2  0
 11 13  1  0
 13 14  1  0
 14 15  1  0
 15 16  2  0
 15 22  1  0
 16 17  1  0
 17 18  2  0
 17 19  1  0
 19 20  1  0
 20 21  2  0
 20 22  1  0
 23 24  2  0
 25 26  2  0
M  END
