
     RDKit          3D

 26 28  0  0  0  0  0  0  0  0999 V2000
    4.6770   -2.9990    0.7560 C   0  0  0  0  0  0  0  0  0  0  0  0
    3.7680   -1.9960    0.1910 N   0  0  0  0  0  0  0  0  0  0  0  0
    4.3290   -0.8100   -0.3410 C   0  0  0  0  0  0  0  0  0  0  0  0
    5.7130   -0.6210   -0.3180 C   0  0  0  0  0  0  0  0  0  0  0  0
    6.2270    0.5410   -0.8420 C   0  0  0  0  0  0  0  0  0  0  0  0
    7.4910    0.6910   -0.8100 O   0  0  0  0  0  0  0  0  0  0  0  0
    5.4390    1.4910   -1.3710 N   0  0  0  0  0  0  0  0  0  0  0  0
    4.1480    1.2750   -1.3740 N   0  0  0  0  0  0  0  0  0  0  0  0
    3.5460    0.1560   -0.8780 C   0  0  0  0  0  0  0  0  0  0  0  0
    2.1140    0.1120   -0.9720 C   0  0  0  0  0  0  0  0  0  0  0  0
    1.4410   -0.8450   -0.5580 O   0  0  0  0  0  0  0  0  0  0  0  0
    1.3920    1.1840   -1.5550 N   0  0  0  0  0  0  0  0  0  0  0  0
   -0.0740    1.0700   -1.6140 C   0  0  0  0  0  0  0  0  0  0  0  0
   -0.9760    0.4110   -1.3600 N   0  0  0  0  0  0  0  0  0  0  0  0
   -2.2660    0.5860   -1.5480 C   0  0  0  0  0  0  0  0  0  0  0  0
   -3.3820   -0.3320   -1.1820 C   0  0  0  0  0  0  0  0  0  0  0  0
   -3.8730   -0.0350    0.2080 C   0  0  0  0  0  0  0  0  0  0  0  0
   -5.1140    0.3200    0.4050 C   0  0  0  0  0  0  0  0  0  0  0  0
   -5.6970    0.6310    1.7030 C   0  0  0  0  0  0  0  0  0  0  0  0
   -7.0110    0.9990    1.8220 O   0  0  0  0  0  0  0  0  0  0  0  0
   -4.8220    0.5480    3.0070 S   0  0  2  0  0  0  0  0  0  0  0  0
   -4.8300    1.8780    3.7440 O   0  0  0  0  0  0  0  0  0  0  0  0
   -3.2140    0.0650    2.5600 C   0  0  0  0  0  0  0  0  0  0  0  0
   -2.9480   -0.1550    1.2970 C   0  0  0  0  0  0  0  0  0  0  0  0
   -2.5310    1.8230   -2.1780 C   0  0  0  0  0  0  0  0  0  0  0  0
   -0.9640    2.5450   -2.4100 S   0  0  0  0  0  0  0  0  0  0  0  0
  1  2  1  0
  2  3  1  0
  3  4  2  0
  3  9  1  0
  4  5  1  0
  5  6  2  0
  5  7  1  0
  7  8  1  0
  8  9  2  0
  9 10  1  0
 10 11  2  0
 10 12  1  0
 12 13  1  0
 13 14  2  0
 13 26  1  0
 14 15  1  0
 15 16  1  0
 15 25  2  0
 16 17  1  0
 17 18  2  0
 17 24  1  0
 18 19  1  0
 19 20  1  0
 19 21  2  0
 21 22  2  0
 21 23  1  6
 23 24  2  0
 25 26  1  0
M  END
