
     RDKit          3D

 26 28  0  0  0  0  0  0  0  0999 V2000
   -4.6160   -0.9660   -0.9180 C   0  0  0  0  0  0  0  0  0  0  0  0
   -4.6040   -1.7800    0.6400 S   0  0  2  0  0  0  0  0  0  0  0  0
   -6.0150   -2.2760    0.9150 O   0  0  0  0  0  0  0  0  0  0  0  0
   -4.2360   -0.7800    1.7230 O   0  0  0  0  0  0  0  0  0  0  0  0
   -3.4850   -3.1320    0.7240 C   0  0  0  0  0  0  0  0  0  0  0  0
   -2.0670   -2.7470    0.4850 C   0  0  0  0  0  0  0  0  0  0  0  0
   -1.6870   -1.5070    0.2380 C   0  0  0  0  0  0  0  0  0  0  0  0
   -0.3060   -1.1090    0.0020 C   0  0  0  0  0  0  0  0  0  0  0  0
    0.6950   -2.0820    0.0330 C   0  0  0  0  0  0  0  0  0  0  0  0
    2.0170   -1.7280   -0.1890 C   0  0  0  0  0  0  0  0  0  0  0  0
    3.0440   -2.7030   -0.1560 N   0  0  0  0  0  0  0  0  0  0  0  0
    4.4070   -2.4160   -0.4360 C   0  0  0  0  0  0  0  0  0  0  0  0
    4.9200   -1.6610   -1.3760 N   0  0  0  0  0  0  0  0  0  0  0  0
    6.5220   -1.9580   -0.8870 S   0  0  2  0  0  0  0  0  0  0  0  0
    7.2100   -0.7620   -0.3150 O   0  0  0  0  0  0  0  0  0  0  0  0
    7.3310   -2.7560   -1.8610 O   0  0  0  0  0  0  0  0  0  0  0  0
    5.6030   -2.8770    0.2260 N   0  0  0  0  0  0  0  0  0  0  0  0
    2.3440   -0.4200   -0.4410 C   0  0  0  0  0  0  0  0  0  0  0  0
    1.3630    0.5490   -0.4740 C   0  0  0  0  0  0  0  0  0  0  0  0
    0.0350    0.2070   -0.2530 C   0  0  0  0  0  0  0  0  0  0  0  0
   -0.9510    1.2090   -0.2920 N   0  0  0  0  0  0  0  0  0  0  0  0
   -0.5820    2.5290   -0.5500 N   0  0  0  0  0  0  0  0  0  0  0  0
   -1.2130    3.5280   -0.0600 C   0  0  0  0  0  0  0  0  0  0  0  0
   -0.8020    4.9220   -0.3490 C   0  0  1  0  0  0  0  0  0  0  0  0
   -0.3330    5.7200    0.8690 C   0  0  0  0  0  0  0  0  0  0  0  0
    0.6040    5.3500   -0.2100 C   0  0  0  0  0  0  0  0  0  0  0  0
  2  1  1  6
  2  3  2  0
  2  4  2  0
  2  5  1  0
  5  6  1  0
  6  7  2  3
  7  8  1  0
  8  9  2  0
  8 20  1  0
  9 10  1  0
 10 11  1  0
 10 18  2  0
 11 12  1  0
 12 13  2  0
 12 17  1  0
 13 14  1  0
 14 15  2  0
 14 16  2  0
 14 17  1  1
 18 19  1  0
 19 20  2  0
 20 21  1  0
 21 22  1  0
 22 23  2  3
 24 23  1  1
 24 25  1  0
 24 26  1  0
 25 26  1  0
M  END
