
     RDKit          3D

 25 27  0  0  0  0  0  0  0  0999 V2000
    3.0100    1.2910   -1.9440 C   0  0  0  0  0  0  0  0  0  0  0  0
    2.5420    0.4450   -0.8490 N   0  0  0  0  0  0  0  0  0  0  0  0
    1.1590    0.1970   -0.6910 C   0  0  0  0  0  0  0  0  0  0  0  0
    0.7750   -0.5280    0.2490 O   0  0  0  0  0  0  0  0  0  0  0  0
    0.2000    0.7820   -1.6170 C   0  0  0  0  0  0  0  0  0  0  0  0
   -1.2510    0.3790   -1.2560 C   0  0  0  0  0  0  0  0  0  0  0  0
   -1.5960    0.8070    0.0350 N   0  0  0  0  0  0  0  0  0  0  0  0
   -2.7620    0.6950    0.8340 C   0  0  0  0  0  0  0  0  0  0  0  0
   -2.8530    1.3860    2.4790 S   0  0  0  0  0  0  0  0  0  0  0  0
   -4.5320    0.8620    2.8130 N   0  0  0  0  0  0  0  0  0  0  0  0
   -4.8710    0.2100    1.6460 C   0  0  0  0  0  0  0  0  0  0  0  0
   -6.1330   -0.3400    1.5460 N   0  0  0  0  0  0  0  0  0  0  0  0
   -6.5300   -0.9770    0.4660 C   0  0  0  0  0  0  0  0  0  0  0  0
   -8.0610   -1.6130    0.4140 S   0  0  0  0  0  0  0  0  0  0  0  0
   -5.6970   -1.0960   -0.5560 N   0  0  0  0  0  0  0  0  0  0  0  0
   -4.4530   -0.5660   -0.4840 C   0  0  0  0  0  0  0  0  0  0  0  0
   -3.7700   -0.7430   -1.5020 O   0  0  0  0  0  0  0  0  0  0  0  0
   -4.0020    0.1210    0.6580 C   0  0  0  0  0  0  0  0  0  0  0  0
    3.4800   -0.1270    0.0550 C   0  0  0  0  0  0  0  0  0  0  0  0
    3.5550   -1.4450    0.1680 C   0  0  0  0  0  0  0  0  0  0  0  0
    4.4980   -2.1350    1.0800 C   0  0  0  0  0  0  0  0  0  0  0  0
    5.3000   -1.2430    1.8080 O   0  0  0  0  0  0  0  0  0  0  0  0
    5.2190    0.1330    1.6870 C   0  0  0  0  0  0  0  0  0  0  0  0
    6.0540    0.9370    2.4490 O   0  0  0  0  0  0  0  0  0  0  0  0
    4.3550    0.6980    0.8540 C   0  0  0  0  0  0  0  0  0  0  0  0
  1  2  1  0
  2  3  1  0
  2 19  1  0
  3  4  2  0
  3  5  1  0
  5  6  1  0
  6  7  1  0
  7  8  1  0
  8  9  1  0
  8 18  2  0
  9 10  1  0
 10 11  2  0
 11 12  1  0
 11 18  1  0
 12 13  1  0
 13 14  2  0
 13 15  1  0
 15 16  1  0
 16 17  2  0
 16 18  1  0
 19 20  2  0
 19 25  1  0
 20 21  1  0
 21 22  1  0
 22 23  1  0
 23 24  1  0
 23 25  2  0
M  END
