
     RDKit          3D

 26 28  0  0  0  0  0  0  0  0999 V2000
    7.7890    0.1770    1.3380 C   0  0  0  0  0  0  0  0  0  0  0  0
    7.4660    1.1480    0.4170 O   0  0  0  0  0  0  0  0  0  0  0  0
    6.6920    0.8660   -0.6430 C   0  0  0  0  0  0  0  0  0  0  0  0
    5.3260    0.4020   -0.3380 C   0  0  0  0  0  0  0  0  0  0  0  0
    5.0330   -0.5360    0.5580 N   0  0  0  0  0  0  0  0  0  0  0  0
    3.7380   -0.7580    0.5690 N   0  0  0  0  0  0  0  0  0  0  0  0
    3.1870    0.0400   -0.3290 C   0  0  0  0  0  0  0  0  0  0  0  0
    1.7270    0.0510   -0.6940 C   0  0  0  0  0  0  0  0  0  0  0  0
    0.9980   -0.8950   -0.1860 C   0  0  0  0  0  0  0  0  0  0  0  0
   -0.3680   -1.1120   -0.3490 N   0  0  0  0  0  0  0  0  0  0  0  0
   -1.2260   -0.3340   -1.1000 C   0  0  0  0  0  0  0  0  0  0  0  0
   -2.4830   -0.3150   -0.9750 N   0  0  0  0  0  0  0  0  0  0  0  0
   -3.4480   -0.9230   -0.1860 C   0  0  0  0  0  0  0  0  0  0  0  0
   -3.3250   -2.0400    0.5870 C   0  0  0  0  0  0  0  0  0  0  0  0
   -4.3390   -2.4510    1.4670 C   0  0  0  0  0  0  0  0  0  0  0  0
   -5.5000   -1.7590    1.5890 C   0  0  0  0  0  0  0  0  0  0  0  0
   -5.6260   -0.6040    0.7840 C   0  0  0  0  0  0  0  0  0  0  0  0
   -6.8590    0.0660    0.9370 O   0  0  0  0  0  0  0  0  0  0  0  0
   -4.6800   -0.1810   -0.0630 C   0  0  0  0  0  0  0  0  0  0  0  0
   -4.8420    0.9400   -1.0640 C   0  0  0  0  0  0  0  0  0  0  0  0
   -4.6780    2.5060   -0.1820 S   0  0  1  0  0  0  0  0  0  0  0  0
   -3.7040    3.3990   -0.9420 O   0  0  0  0  0  0  0  0  0  0  0  0
   -5.9410    3.2230   -0.0340 O   0  0  0  0  0  0  0  0  0  0  0  0
   -0.3950    0.7490   -2.3230 S   0  0  0  0  0  0  0  0  0  0  0  0
    1.2140    1.1400   -1.5840 C   0  0  0  0  0  0  0  0  0  0  0  0
    4.1510    0.7710   -0.9050 N   0  0  0  0  0  0  0  0  0  0  0  0
  1  2  1  0
  2  3  1  0
  3  4  1  0
  4  5  2  0
  4 26  1  0
  5  6  1  0
  6  7  1  0
  7  8  1  0
  7 26  2  0
  8  9  2  0
  8 25  1  0
  9 10  1  0
 10 11  1  0
 11 12  2  3
 11 24  1  0
 12 13  1  0
 13 14  2  0
 13 19  1  0
 14 15  1  0
 15 16  2  0
 16 17  1  0
 17 18  1  0
 17 19  2  0
 19 20  1  0
 21 20  1  6
 21 22  2  0
 21 23  2  0
 24 25  1  0
M  END
