
     RDKit          3D

 26 28  0  0  0  0  0  0  0  0999 V2000
    7.1760    0.9530    1.5110 C   0  0  0  0  0  0  0  0  0  0  0  0
    6.0920    1.4420    0.7050 N   0  0  0  0  0  0  0  0  0  0  0  0
    5.1870    0.4690    0.1450 C   0  0  0  0  0  0  0  0  0  0  0  0
    5.3510   -0.7550    0.3650 O   0  0  0  0  0  0  0  0  0  0  0  0
    4.0590    0.9370   -0.6940 C   0  0  0  0  0  0  0  0  0  0  0  0
    3.2530   -0.2250   -1.1660 C   0  0  0  0  0  0  0  0  0  0  0  0
    3.2040   -0.7990   -2.3740 N   0  0  0  0  0  0  0  0  0  0  0  0
    2.3570   -1.7820   -2.3560 O   0  0  0  0  0  0  0  0  0  0  0  0
    1.8490   -1.8640   -1.1560 N   0  0  0  0  0  0  0  0  0  0  0  0
    2.3730   -0.9140   -0.3660 C   0  0  0  0  0  0  0  0  0  0  0  0
    2.0540   -0.6930    1.0620 C   0  0  0  0  0  0  0  0  0  0  0  0
    0.7830   -1.9200    1.5620 S   0  0  0  0  0  0  0  0  0  0  0  0
   -0.7130   -1.5670    0.6860 C   0  0  0  0  0  0  0  0  0  0  0  0
   -1.7810   -0.8050    0.9180 C   0  0  0  0  0  0  0  0  0  0  0  0
   -2.7930   -0.7130    0.0460 C   0  0  0  0  0  0  0  0  0  0  0  0
   -4.0300    0.1250    0.2040 C   0  0  0  0  0  0  0  0  0  0  0  0
   -4.4750    0.9460   -0.8080 C   0  0  0  0  0  0  0  0  0  0  0  0
   -5.5990    1.7100   -0.6320 C   0  0  0  0  0  0  0  0  0  0  0  0
   -6.0000    2.4530   -1.5510 O   0  0  0  0  0  0  0  0  0  0  0  0
   -6.2810    1.6680    0.5290 N   0  0  0  0  0  0  0  0  0  0  0  0
   -5.8550    0.8880    1.4830 N   0  0  0  0  0  0  0  0  0  0  0  0
   -4.7520    0.1150    1.3600 C   0  0  0  0  0  0  0  0  0  0  0  0
   -4.4360   -0.5930    2.3390 O   0  0  0  0  0  0  0  0  0  0  0  0
   -2.6800   -1.4500   -1.1130 C   0  0  0  0  0  0  0  0  0  0  0  0
   -3.5480   -1.6050   -2.2650 C   0  0  0  0  0  0  0  0  0  0  0  0
   -1.1260   -2.2900   -0.9850 S   0  0  0  0  0  0  0  0  0  0  0  0
  1  2  1  0
  2  3  1  0
  3  4  2  0
  3  5  1  0
  5  6  1  0
  6  7  2  0
  6 10  1  0
  7  8  1  0
  8  9  1  0
  9 10  2  0
 10 11  1  0
 11 12  1  0
 12 13  1  0
 13 14  2  0
 13 26  1  0
 14 15  1  0
 15 16  1  0
 15 24  2  0
 16 17  2  0
 16 22  1  0
 17 18  1  0
 18 19  2  0
 18 20  1  0
 20 21  1  0
 21 22  1  0
 22 23  2  0
 24 25  1  0
 24 26  1  0
M  END
