
     RDKit          3D

 43 48  0  0  0  0  0  0  0  0999 V2000
    6.5180    5.2640   -0.6730 C   0  0  0  0  0  0  0  0  0  0  0  0
    6.0510    3.8460   -0.7800 C   0  0  0  0  0  0  0  0  0  0  0  0
    6.6480    2.9040    0.0250 C   0  0  0  0  0  0  0  0  0  0  0  0
    6.2470    1.5890   -0.0440 C   0  0  0  0  0  0  0  0  0  0  0  0
    5.2390    1.1690   -0.9140 C   0  0  0  0  0  0  0  0  0  0  0  0
    4.8300   -0.2490   -0.9690 C   0  0  2  0  0  0  0  0  0  0  0  0
    5.4190   -0.8870   -2.2340 C   0  0  0  0  0  0  0  0  0  0  0  0
    3.3900   -0.4160   -0.9510 N   0  0  0  0  0  0  0  0  0  0  0  0
    2.9600   -0.5060    0.4110 C   0  0  1  0  0  0  0  0  0  0  0  0
    1.4910   -0.8120    0.4580 C   0  0  0  0  0  0  0  0  0  0  0  0
    1.0210   -1.8650    1.0890 C   0  0  0  0  0  0  0  0  0  0  0  0
   -0.3480   -2.1970    1.1630 N   0  0  0  0  0  0  0  0  0  0  0  0
   -0.5960   -3.4010    1.9250 C   0  0  0  0  0  0  0  0  0  0  0  0
   -1.4860   -4.3000    1.1390 C   0  0  0  0  0  0  0  0  0  0  0  0
   -2.9550   -4.0600    1.4180 C   0  0  0  0  0  0  0  0  0  0  0  0
   -3.3610   -2.6800    1.1430 C   0  0  0  0  0  0  0  0  0  0  0  0
   -4.5260   -2.3820    1.5150 O   0  0  0  0  0  0  0  0  0  0  0  0
   -2.6470   -1.5440    0.4980 C   0  0  0  0  0  0  0  0  0  0  0  0
   -1.3380   -1.3490    0.5140 C   0  0  0  0  0  0  0  0  0  0  0  0
   -0.8020   -0.1910   -0.1780 C   0  0  0  0  0  0  0  0  0  0  0  0
    0.5230    0.0440   -0.1940 C   0  0  0  0  0  0  0  0  0  0  0  0
   -1.7050    0.7430   -0.8810 C   0  0  0  0  0  0  0  0  0  0  0  0
   -3.0900    0.7830   -0.2320 C   0  0  1  0  0  0  0  0  0  0  0  0
   -4.0220    1.5590   -1.0860 C   0  0  0  0  0  0  0  0  0  0  0  0
   -3.5700    1.8440   -2.2520 O   0  0  0  0  0  0  0  0  0  0  0  0
   -5.3140    1.9830   -0.7190 N   0  0  0  0  0  0  0  0  0  0  0  0
   -6.0200    2.7130   -1.7560 C   0  0  0  0  0  0  0  0  0  0  0  0
   -7.4070    2.1260   -1.8900 C   0  0  0  0  0  0  0  0  0  0  0  0
   -8.2870    2.4790   -0.7170 C   0  0  0  0  0  0  0  0  0  0  0  0
   -8.2890    1.4750    0.3040 N   0  0  0  0  0  0  0  0  0  0  0  0
   -7.0370    0.7780    0.4280 C   0  0  0  0  0  0  0  0  0  0  0  0
   -5.8560    1.7130    0.5870 C   0  0  0  0  0  0  0  0  0  0  0  0
   -3.6260   -0.6400   -0.1730 C   0  0  0  0  0  0  0  0  0  0  0  0
    3.6860   -1.5770    1.1460 C   0  0  0  0  0  0  0  0  0  0  0  0
    4.1100   -1.2860    2.4100 C   0  0  0  0  0  0  0  0  0  0  0  0
    4.7960   -2.2160    3.1590 C   0  0  0  0  0  0  0  0  0  0  0  0
    5.0380   -3.4460    2.5880 C   0  0  0  0  0  0  0  0  0  0  0  0
    4.6210   -3.7590    1.3180 C   0  0  0  0  0  0  0  0  0  0  0  0
    4.8880   -4.9980    0.7980 F   0  0  0  0  0  0  0  0  0  0  0  0
    3.9380   -2.8090    0.5950 C   0  0  0  0  0  0  0  0  0  0  0  0
    4.6620    2.1250   -1.7030 C   0  0  0  0  0  0  0  0  0  0  0  0
    5.0680    3.4510   -1.6330 C   0  0  0  0  0  0  0  0  0  0  0  0
    4.4700    4.3680   -2.4320 F   0  0  0  0  0  0  0  0  0  0  0  0
  1  2  1  0
  2  3  2  0
  2 42  1  0
  3  4  1  0
  4  5  2  0
  5  6  1  0
  5 41  1  0
  6  7  1  6
  6  8  1  0
  9  8  1  6
  9 10  1  0
  9 34  1  0
 10 11  2  0
 10 21  1  0
 11 12  1  0
 12 13  1  0
 12 19  1  0
 13 14  1  0
 14 15  1  0
 15 16  1  0
 16 17  2  0
 16 18  1  0
 18 19  2  0
 18 33  1  0
 19 20  1  0
 20 21  2  0
 20 22  1  0
 22 23  1  0
 23 24  1  6
 23 33  1  0
 24 25  2  0
 24 26  1  0
 26 27  1  0
 26 32  1  0
 27 28  1  0
 28 29  1  0
 29 30  1  0
 30 31  1  0
 31 32  1  0
 34 35  2  0
 34 40  1  0
 35 36  1  0
 36 37  2  0
 37 38  1  0
 38 39  1  0
 38 40  2  0
 41 42  2  0
 42 43  1  0
M  CHG  1   8   1
M  END
