
     RDKit          3D

 44 47  0  0  0  0  0  0  0  0999 V2000
   -6.9900   -8.0680    1.5420 C   0  0  0  0  0  0  0  0  0  0  0  0
   -7.6940   -6.8880    0.7770 C   0  0  0  0  0  0  0  0  0  0  0  0
   -6.5690   -5.9820    0.3730 C   0  0  0  0  0  0  0  0  0  0  0  0
   -5.6100   -5.2150    0.0520 C   0  0  0  0  0  0  0  0  0  0  0  0
   -4.4830   -4.3260   -0.3280 C   0  0  0  0  0  0  0  0  0  0  0  0
   -4.7200   -3.3130   -1.0260 C   0  0  0  0  0  0  0  0  0  0  0  0
   -3.8740   -2.1660   -1.3000 C   0  0  0  0  0  0  0  0  0  0  0  0
   -2.6380   -2.4290   -0.5720 C   0  0  0  0  0  0  0  0  0  0  0  0
   -1.7450   -1.2250   -0.6360 C   0  0  0  0  0  0  0  0  0  0  0  0
   -1.9130   -0.2140   -1.5080 C   0  0  0  0  0  0  0  0  0  0  0  0
   -1.1080    0.9630   -1.5010 C   0  0  0  0  0  0  0  0  0  0  0  0
   -0.1490    0.9760   -0.5340 C   0  0  0  0  0  0  0  0  0  0  0  0
    0.0730   -0.0150    0.3220 C   0  0  0  0  0  0  0  0  0  0  0  0
   -0.7100   -1.1730    0.3200 N   0  0  0  0  0  0  0  0  0  0  0  0
    1.1840    0.1440    1.3040 C   0  0  1  0  0  0  0  0  0  0  0  0
    2.5140    0.3650    0.7310 C   0  0  0  0  0  0  0  0  0  0  0  0
    3.1570   -0.5170   -0.1390 N   0  0  0  0  0  0  0  0  0  0  0  0
    3.5360   -1.8440    0.0510 C   0  0  0  0  0  0  0  0  0  0  0  0
    3.2070   -2.4790    1.0900 O   0  0  0  0  0  0  0  0  0  0  0  0
    4.3220   -2.5120   -0.9120 N   0  0  0  0  0  0  0  0  0  0  0  0
    4.8710   -3.8260   -0.8950 C   0  0  0  0  0  0  0  0  0  0  0  0
    5.8450   -3.8270   -2.1580 C   0  0  1  0  0  0  0  0  0  0  0  0
    5.0980   -3.5140   -3.2170 O   0  0  0  0  0  0  0  0  0  0  0  0
    6.8920   -2.7410   -1.8530 C   0  0  0  0  0  0  0  0  0  0  0  0
    7.6570   -3.1610   -0.7500 O   0  0  0  0  0  0  0  0  0  0  0  0
    8.7790   -2.2630   -0.0750 S   0  0  0  0  0  0  0  0  0  0  0  0
    8.8140   -1.9440    1.6550 C   0  0  0  0  0  0  0  0  0  0  0  0
   10.0780   -2.0330   -0.7960 O   0  0  0  0  0  0  0  0  0  0  0  0
    0.8590    1.5080    2.0270 C   0  0  0  0  0  0  0  0  0  0  0  0
    1.0950    2.5150    0.9500 C   0  0  0  0  0  0  0  0  0  0  0  0
    1.8890    3.5010    1.0690 O   0  0  0  0  0  0  0  0  0  0  0  0
    0.3720    2.3170   -0.2570 N   0  0  0  0  0  0  0  0  0  0  0  0
    0.1980    3.3660   -1.1950 C   0  0  0  0  0  0  0  0  0  0  0  0
   -0.8950    4.2150   -1.3070 N   0  0  0  0  0  0  0  0  0  0  0  0
   -1.5510    5.1370   -0.4880 C   0  0  0  0  0  0  0  0  0  0  0  0
   -1.0370    5.7640    0.6150 C   0  0  0  0  0  0  0  0  0  0  0  0
   -1.7110    6.6910    1.3900 C   0  0  0  0  0  0  0  0  0  0  0  0
   -2.9770    7.0350    1.0790 C   0  0  0  0  0  0  0  0  0  0  0  0
   -3.6300    8.1620    1.8130 C   0  0  0  0  0  0  0  0  0  0  0  0
   -3.6360    9.3800    0.9150 C   0  0  0  0  0  0  0  0  0  0  0  0
   -3.6080    6.4590    0.0070 C   0  0  0  0  0  0  0  0  0  0  0  0
   -2.8950    5.5250   -0.7650 C   0  0  0  0  0  0  0  0  0  0  0  0
   -2.3510   -3.4350    0.1310 C   0  0  0  0  0  0  0  0  0  0  0  0
   -3.2540   -4.5830    0.3740 C   0  0  0  0  0  0  0  0  0  0  0  0
  1  2  1  0
  2  3  1  0
  3  4  3  0
  4  5  1  0
  5  6  2  0
  5 44  1  0
  6  7  1  0
  7  8  2  0
  8  9  1  0
  8 43  1  0
  9 10  2  0
  9 14  1  0
 10 11  1  0
 11 12  2  0
 12 13  1  0
 12 32  1  0
 13 14  2  0
 13 15  1  0
 15 16  1  6
 15 29  1  0
 16 17  1  0
 17 18  1  0
 18 19  2  0
 18 20  1  0
 20 21  1  0
 21 22  1  0
 22 23  1  6
 22 24  1  0
 24 25  1  0
 25 26  1  0
 26 27  1  1
 26 28  2  0
 29 30  1  0
 30 31  2  0
 30 32  1  0
 32 33  1  0
 33 34  1  0
 34 35  1  0
 35 36  2  0
 35 42  1  0
 36 37  1  0
 37 38  2  0
 38 39  1  0
 38 41  1  0
 39 40  1  0
 41 42  2  0
 43 44  2  0
M  END
