
     RDKit          3D

 43 48  0  0  0  0  0  0  0  0999 V2000
    3.4710    3.3190   -0.6180 C   0  0  0  0  0  0  0  0  0  0  0  0
    3.7490    2.6440   -1.9110 C   0  0  0  0  0  0  0  0  0  0  0  0
    3.9500    1.1810   -1.8820 C   0  0  2  0  0  0  0  0  0  0  0  0
    2.7690    0.4070   -1.4240 C   0  0  0  0  0  0  0  0  0  0  0  0
    2.8930   -0.8650   -1.5950 O   0  0  0  0  0  0  0  0  0  0  0  0
    1.6040    0.8630   -0.8660 N   0  0  0  0  0  0  0  0  0  0  0  0
    0.4810    0.1040   -0.4070 C   0  0  0  0  0  0  0  0  0  0  0  0
   -0.7870    0.6510   -0.3610 C   0  0  0  0  0  0  0  0  0  0  0  0
   -1.8800   -0.0270    0.0890 C   0  0  0  0  0  0  0  0  0  0  0  0
   -1.7050   -1.3200    0.5170 C   0  0  0  0  0  0  0  0  0  0  0  0
   -0.4310   -1.9330    0.4940 C   0  0  0  0  0  0  0  0  0  0  0  0
   -0.3160   -3.1650    0.9200 C   0  0  0  0  0  0  0  0  0  0  0  0
    0.8500   -3.9730    0.9880 C   0  0  0  0  0  0  0  0  0  0  0  0
    1.9760   -3.5950    0.6250 O   0  0  0  0  0  0  0  0  0  0  0  0
    0.7470   -5.2620    1.4860 F   0  0  0  0  0  0  0  0  0  0  0  0
    0.6410   -1.2000    0.0290 C   0  0  0  0  0  0  0  0  0  0  0  0
   -2.6870   -1.9770    0.9460 N   0  0  0  0  0  0  0  0  0  0  0  0
   -4.0550   -1.5620    1.0710 C   0  0  2  0  0  0  0  0  0  0  0  0
   -4.8620   -2.5720    0.2530 C   0  0  0  0  0  0  0  0  0  0  0  0
   -4.3090   -0.2090    0.6030 C   0  0  0  0  0  0  0  0  0  0  0  0
   -5.6150    0.4440    0.3610 C   0  0  0  0  0  0  0  0  0  0  0  0
   -5.6850    1.3810   -0.6970 C   0  0  0  0  0  0  0  0  0  0  0  0
   -6.8120    2.0970   -1.0050 C   0  0  0  0  0  0  0  0  0  0  0  0
   -7.9260    1.8880   -0.2450 C   0  0  0  0  0  0  0  0  0  0  0  0
   -7.9230    0.9860    0.8040 C   0  0  0  0  0  0  0  0  0  0  0  0
   -9.0750    0.8430    1.5380 C   0  0  0  0  0  0  0  0  0  0  0  0
   -9.0660   -0.0350    2.5950 C   0  0  0  0  0  0  0  0  0  0  0  0
   -7.9040   -0.7130    2.8500 C   0  0  0  0  0  0  0  0  0  0  0  0
   -6.7760   -0.5680    2.1230 N   0  0  0  0  0  0  0  0  0  0  0  0
   -6.7410    0.2760    1.0810 C   0  0  0  0  0  0  0  0  0  0  0  0
   -3.2280    0.4780    0.1530 C   0  0  0  0  0  0  0  0  0  0  0  0
    5.0100    0.8770   -0.8390 C   0  0  0  0  0  0  0  0  0  0  0  0
    6.1280    0.2600   -1.0280 C   0  0  0  0  0  0  0  0  0  0  0  0
    7.1310   -0.0180    0.0160 C   0  0  0  0  0  0  0  0  0  0  0  0
    6.9450    0.3960    1.2960 C   0  0  0  0  0  0  0  0  0  0  0  0
    7.9040    0.1150    2.2740 C   0  0  0  0  0  0  0  0  0  0  0  0
    9.0330   -0.5710    1.9730 C   0  0  0  0  0  0  0  0  0  0  0  0
    9.9470   -0.8400    2.9060 F   0  0  0  0  0  0  0  0  0  0  0  0
    9.2260   -0.9920    0.6780 C   0  0  0  0  0  0  0  0  0  0  0  0
    8.2820   -0.7170   -0.2900 C   0  0  0  0  0  0  0  0  0  0  0  0
    6.4420   -0.1790   -2.3760 N   0  0  0  0  0  0  0  0  0  0  0  0
    5.6260    0.0490   -3.3340 C   0  0  0  0  0  0  0  0  0  0  0  0
    4.4160    0.7180   -3.1450 N   0  0  0  0  0  0  0  0  0  0  0  0
  1  2  1  0
  3  2  1  6
  3  4  1  0
  3 32  1  0
  3 43  1  0
  4  5  2  0
  4  6  1  0
  6  7  1  0
  7  8  1  0
  7 16  2  0
  8  9  2  0
  9 10  1  0
  9 31  1  0
 10 11  1  0
 10 17  2  0
 11 12  2  3
 11 16  1  0
 12 13  1  0
 13 14  2  0
 13 15  1  0
 17 18  1  0
 18 19  1  6
 18 20  1  0
 20 21  1  0
 20 31  2  0
 21 22  2  0
 21 30  1  0
 22 23  1  0
 23 24  2  0
 24 25  1  0
 25 26  2  0
 25 30  1  0
 26 27  1  0
 27 28  2  0
 28 29  1  0
 29 30  2  0
 32 33  2  0
 33 34  1  0
 33 41  1  0
 34 35  2  0
 34 40  1  0
 35 36  1  0
 36 37  2  0
 37 38  1  0
 37 39  1  0
 39 40  2  0
 41 42  2  0
 42 43  1  0
M  CHG  1  29   1
M  END
