
     RDKit          3D

 44 47  0  0  0  0  0  0  0  0999 V2000
    2.0270    7.7550   -0.6210 C   0  0  0  0  0  0  0  0  0  0  0  0
    2.0510    6.3290   -0.7780 N   0  0  0  0  0  0  0  0  0  0  0  0
    3.2260    5.7080   -1.0790 C   0  0  0  0  0  0  0  0  0  0  0  0
    4.3580    6.3800   -1.2850 O   0  0  0  0  0  0  0  0  0  0  0  0
    3.4180    4.2200   -1.2030 C   0  0  0  0  0  0  0  0  0  0  0  0
    2.2420    3.3550   -1.2820 N   0  0  0  0  0  0  0  0  0  0  0  0
    2.4740    1.9900   -1.5390 C   0  0  0  0  0  0  0  0  0  0  0  0
    3.7000    1.7160   -1.8600 O   0  0  0  0  0  0  0  0  0  0  0  0
    1.6310    0.8240   -1.5340 C   0  0  0  0  0  0  0  0  0  0  0  0
    1.3950    0.5520   -0.0100 N   0  0  0  0  0  0  0  0  0  0  0  0
    2.5180   -0.0460    0.5340 C   0  0  0  0  0  0  0  0  0  0  0  0
    2.4890   -1.2590    0.7170 O   0  0  0  0  0  0  0  0  0  0  0  0
    3.6490    0.8530    0.7810 C   0  0  0  0  0  0  0  0  0  0  0  0
    4.8700    0.4880    0.8150 C   0  0  0  0  0  0  0  0  0  0  0  0
    5.4930   -0.8420    0.6340 C   0  0  0  0  0  0  0  0  0  0  0  0
    4.9220   -1.7310   -0.2880 C   0  0  0  0  0  0  0  0  0  0  0  0
    5.4830   -2.9740   -0.5130 C   0  0  0  0  0  0  0  0  0  0  0  0
    6.6210   -3.3450    0.1860 C   0  0  0  0  0  0  0  0  0  0  0  0
    7.3700   -4.4430    0.1790 O   0  0  0  0  0  0  0  0  0  0  0  0
    8.0200   -5.5180    0.1160 C   0  0  0  0  0  0  0  0  0  0  0  0
    7.1720   -2.3990    1.1060 C   0  0  0  0  0  0  0  0  0  0  0  0
    6.6170   -1.2240    1.2900 C   0  0  0  0  0  0  0  0  0  0  0  0
    0.1940    0.7920    0.6410 C   0  0  0  0  0  0  0  0  0  0  0  0
    0.2350    1.8720    1.5500 C   0  0  0  0  0  0  0  0  0  0  0  0
   -0.8740    2.3800    2.0510 C   0  0  0  0  0  0  0  0  0  0  0  0
   -2.0780    1.7980    1.6640 C   0  0  0  0  0  0  0  0  0  0  0  0
   -2.1690    0.7060    0.7830 C   0  0  0  0  0  0  0  0  0  0  0  0
   -3.3630   -0.0280    0.5820 C   0  0  1  0  0  0  0  0  0  0  0  0
   -4.6620    0.9780    1.4580 S   0  0  0  0  0  0  0  0  0  0  0  0
   -6.0040   -0.0580    2.1640 C   0  0  2  0  0  0  0  0  0  0  0  0
   -5.3490   -0.8550    3.3020 C   0  0  0  0  0  0  0  0  0  0  0  0
   -5.2400   -2.2550    2.8010 C   0  0  0  0  0  0  0  0  0  0  0  0
   -5.7740   -2.2740    1.3730 C   0  0  0  0  0  0  0  0  0  0  0  0
   -6.4980   -0.9750    1.1360 C   0  0  2  0  0  0  0  0  0  0  0  0
   -6.3170   -0.4680   -0.2350 N   0  0  0  0  0  0  0  0  0  0  0  0
   -5.2090   -0.5640   -1.0520 C   0  0  0  0  0  0  0  0  0  0  0  0
   -5.4500   -0.5660   -2.5540 C   0  0  0  0  0  0  0  0  0  0  0  0
   -3.8400   -0.4020   -0.6970 C   0  0  0  0  0  0  0  0  0  0  0  0
   -3.0890   -0.9270   -1.8290 C   0  0  0  0  0  0  0  0  0  0  0  0
   -2.7520   -0.1970   -2.7920 O   0  0  0  0  0  0  0  0  0  0  0  0
   -2.7020   -2.2970   -1.9570 N   0  0  0  0  0  0  0  0  0  0  0  0
   -2.4040   -3.0920   -0.8330 C   0  0  0  0  0  0  0  0  0  0  0  0
   -2.7560   -2.9260   -3.2600 C   0  0  0  0  0  0  0  0  0  0  0  0
   -0.9820    0.2610    0.2770 C   0  0  0  0  0  0  0  0  0  0  0  0
  1  2  1  0
  2  3  1  0
  3  4  2  0
  3  5  1  0
  5  6  1  0
  6  7  1  0
  7  8  2  0
  7  9  1  0
  9 10  1  0
 10 11  1  0
 10 23  1  0
 11 12  2  0
 11 13  1  0
 13 14  2  3
 14 15  1  0
 15 16  2  0
 15 22  1  0
 16 17  1  0
 17 18  2  0
 18 19  1  0
 18 21  1  0
 19 20  1  0
 21 22  2  0
 23 24  2  0
 23 44  1  0
 24 25  1  0
 25 26  2  0
 26 27  1  0
 28 27  1  6
 27 44  2  0
 28 29  1  0
 28 38  1  0
 29 30  1  0
 30 31  1  1
 30 34  1  0
 31 32  1  0
 32 33  1  0
 34 33  1  6
 34 35  1  0
 35 36  1  0
 36 37  1  0
 36 38  2  0
 38 39  1  0
 39 40  2  0
 39 41  1  0
 41 42  1  0
 41 43  1  0
M  END
