
     RDKit          3D

 44 47  0  0  0  0  0  0  0  0999 V2000
   -4.6830    3.0300   -2.8090 C   0  0  0  0  0  0  0  0  0  0  0  0
   -4.8320    4.1910   -1.8920 C   0  0  0  0  0  0  0  0  0  0  0  0
   -4.4540    3.9090   -0.4870 C   0  0  0  0  0  0  0  0  0  0  0  0
   -3.8740    2.7600   -0.0210 C   0  0  0  0  0  0  0  0  0  0  0  0
   -3.5310    2.5380    1.3020 C   0  0  0  0  0  0  0  0  0  0  0  0
   -2.9470    1.4820    1.9920 C   0  0  0  0  0  0  0  0  0  0  0  0
   -2.5330    0.2260    1.4000 C   0  0  0  0  0  0  0  0  0  0  0  0
   -1.3250    0.0730    0.8790 C   0  0  0  0  0  0  0  0  0  0  0  0
   -0.4590    1.2260    0.9380 C   0  0  0  0  0  0  0  0  0  0  0  0
   -0.9250    2.2950    1.4710 O   0  0  0  0  0  0  0  0  0  0  0  0
    0.8790    1.3520    0.4710 N   0  0  0  0  0  0  0  0  0  0  0  0
    1.5070    2.6450    0.6340 C   0  0  0  0  0  0  0  0  0  0  0  0
    2.8770    2.6750    0.1450 C   0  0  0  0  0  0  0  0  0  0  0  0
    3.5240    3.8020    0.2260 O   0  0  0  0  0  0  0  0  0  0  0  0
    3.6130    1.6000   -0.4250 N   0  0  0  0  0  0  0  0  0  0  0  0
    4.9630    1.8660   -0.8160 C   0  0  0  0  0  0  0  0  0  0  0  0
    5.9480    1.0560    0.0370 C   0  0  0  0  0  0  0  0  0  0  0  0
    5.8840    1.1470    1.4060 C   0  0  0  0  0  0  0  0  0  0  0  0
    4.9380    1.7900    2.3470 C   0  0  0  0  0  0  0  0  0  0  0  0
    7.3090    0.1820    1.9600 S   0  0  0  0  0  0  0  0  0  0  0  0
    7.8620   -0.2520    0.3430 C   0  0  0  0  0  0  0  0  0  0  0  0
    9.0610   -1.0950    0.0480 C   0  0  0  0  0  0  0  0  0  0  0  0
    6.9730    0.3330   -0.4970 C   0  0  0  0  0  0  0  0  0  0  0  0
    7.1620    0.1210   -2.0070 C   0  0  0  0  0  0  0  0  0  0  0  0
    6.4110   -1.0700   -2.5010 C   0  0  0  0  0  0  0  0  0  0  0  0
    5.0430   -1.0690   -2.3030 O   0  0  0  0  0  0  0  0  0  0  0  0
   -0.9210   -1.1890    0.3270 C   0  0  0  0  0  0  0  0  0  0  0  0
    0.2680   -1.1600   -0.2120 O   0  0  0  0  0  0  0  0  0  0  0  0
   -1.5130   -2.4490    0.2300 N   0  0  0  0  0  0  0  0  0  0  0  0
   -0.7880   -3.4570   -0.5720 C   0  0  0  0  0  0  0  0  0  0  0  0
   -1.7290   -4.2540   -1.4400 C   0  0  2  0  0  0  0  0  0  0  0  0
   -2.1330   -3.4890   -2.6890 C   0  0  0  0  0  0  0  0  0  0  0  0
   -2.9400   -4.7350   -0.6530 C   0  0  0  0  0  0  0  0  0  0  0  0
   -2.7320   -4.4170    0.7890 C   0  0  2  0  0  0  0  0  0  0  0  0
   -3.7380   -5.0180    1.7200 C   0  0  0  0  0  0  0  0  0  0  0  0
   -3.6640   -6.5170    1.5600 C   0  0  0  0  0  0  0  0  0  0  0  0
   -2.3740   -6.9560    1.8730 O   0  0  0  0  0  0  0  0  0  0  0  0
   -2.7060   -2.8630    0.8860 C   0  0  0  0  0  0  0  0  0  0  0  0
   -2.8750    1.8760    3.2750 N   0  0  0  0  0  0  0  0  0  0  0  0
   -3.3770    3.0960    3.4090 N   0  0  0  0  0  0  0  0  0  0  0  0
   -3.8000    3.5560    2.2100 C   0  0  0  0  0  0  0  0  0  0  0  0
   -4.3840    4.7350    1.7890 C   0  0  0  0  0  0  0  0  0  0  0  0
   -4.7110    4.9090    0.4390 C   0  0  0  0  0  0  0  0  0  0  0  0
   -5.3520    6.1940   -0.0260 C   0  0  0  0  0  0  0  0  0  0  0  0
  1  2  1  0
  2  3  1  0
  3  4  2  0
  3 43  1  0
  4  5  1  0
  5  6  1  0
  5 41  2  0
  6  7  1  0
  6 39  2  0
  7  8  2  3
  8  9  1  0
  8 27  1  0
  9 10  2  0
  9 11  1  0
 11 12  1  0
 12 13  1  0
 13 14  2  0
 13 15  1  0
 15 16  1  0
 16 17  1  0
 17 18  2  0
 17 23  1  0
 18 19  1  0
 18 20  1  0
 20 21  1  0
 21 22  1  0
 21 23  2  0
 23 24  1  0
 24 25  1  0
 25 26  1  0
 27 28  2  0
 27 29  1  0
 29 30  1  0
 29 38  1  0
 30 31  1  0
 31 32  1  6
 31 33  1  0
 33 34  1  0
 34 35  1  1
 34 38  1  0
 35 36  1  0
 36 37  1  0
 39 40  1  0
 40 41  1  0
 41 42  1  0
 42 43  2  0
 43 44  1  0
M  END
