
     RDKit          3D

 44 47  0  0  0  0  0  0  0  0999 V2000
    6.1760   -3.1490   -3.3060 C   0  0  0  0  0  0  0  0  0  0  0  0
    5.6710   -3.3820   -2.0100 O   0  0  0  0  0  0  0  0  0  0  0  0
    6.2400   -2.9040   -0.8360 C   0  0  0  0  0  0  0  0  0  0  0  0
    7.2850   -2.2180   -0.9720 O   0  0  0  0  0  0  0  0  0  0  0  0
    5.6800   -3.1690    0.4380 N   0  0  0  0  0  0  0  0  0  0  0  0
    6.2890   -2.6620    1.6110 C   0  0  2  0  0  0  0  0  0  0  0  0
    6.3650   -3.6850    2.7560 C   0  0  0  0  0  0  0  0  0  0  0  0
    5.0210   -3.7040    3.2060 O   0  0  0  0  0  0  0  0  0  0  0  0
    4.5770   -2.4070    3.2410 C   0  0  2  0  0  0  0  0  0  0  0  0
    3.1640   -2.2420    2.6460 C   0  0  0  0  0  0  0  0  0  0  0  0
    3.2700   -0.8660    2.1240 C   0  0  2  0  0  0  0  0  0  0  0  0
    2.1940   -0.3270    1.4310 O   0  0  0  0  0  0  0  0  0  0  0  0
    1.4540    0.7770    1.7160 C   0  0  0  0  0  0  0  0  0  0  0  0
    1.7820    1.4010    2.7750 O   0  0  0  0  0  0  0  0  0  0  0  0
    0.3760    1.2640    0.9300 N   0  0  0  0  0  0  0  0  0  0  0  0
   -0.3910    2.4410    1.2540 C   0  0  1  0  0  0  0  0  0  0  0  0
    0.0310    3.6720    0.5610 C   0  0  0  0  0  0  0  0  0  0  0  0
    0.0090    3.7790   -0.8720 C   0  0  0  0  0  0  0  0  0  0  0  0
   -1.0700    4.3600   -1.5180 C   0  0  0  0  0  0  0  0  0  0  0  0
   -1.1580    4.4860   -2.8730 C   0  0  0  0  0  0  0  0  0  0  0  0
   -0.1390    4.0220   -3.6690 C   0  0  0  0  0  0  0  0  0  0  0  0
    0.9510    3.4380   -3.0600 C   0  0  0  0  0  0  0  0  0  0  0  0
    1.0220    3.3190   -1.6820 C   0  0  0  0  0  0  0  0  0  0  0  0
   -1.8430    2.1660    1.3980 C   0  0  2  0  0  0  0  0  0  0  0  0
   -2.0040    1.2710    2.4900 O   0  0  0  0  0  0  0  0  0  0  0  0
   -2.4610    1.4450    0.2320 C   0  0  0  0  0  0  0  0  0  0  0  0
   -3.8300    1.2130    0.4720 N   0  0  0  0  0  0  0  0  0  0  0  0
   -4.7350    1.8750   -0.4070 C   0  0  0  0  0  0  0  0  0  0  0  0
   -5.7070    2.8140    0.1990 C   0  0  1  0  0  0  0  0  0  0  0  0
   -5.1130    3.9650    0.9440 C   0  0  0  0  0  0  0  0  0  0  0  0
   -6.4980    3.4340   -0.9660 C   0  0  0  0  0  0  0  0  0  0  0  0
   -4.3310   -0.2470    1.1110 S   0  0  2  0  0  0  0  0  0  0  0  0
   -5.8530   -0.3280    1.2010 O   0  0  0  0  0  0  0  0  0  0  0  0
   -3.7820   -0.6170    2.4510 O   0  0  0  0  0  0  0  0  0  0  0  0
   -3.8720   -1.5200   -0.0250 C   0  0  0  0  0  0  0  0  0  0  0  0
   -2.6980   -2.2080    0.0940 C   0  0  0  0  0  0  0  0  0  0  0  0
   -2.3480   -3.1990   -0.8180 C   0  0  0  0  0  0  0  0  0  0  0  0
   -3.1610   -3.5380   -1.8840 C   0  0  0  0  0  0  0  0  0  0  0  0
   -2.8630   -4.5110   -2.8210 O   0  0  0  0  0  0  0  0  0  0  0  0
   -1.6490   -5.2190   -2.7020 C   0  0  0  0  0  0  0  0  0  0  0  0
   -4.3600   -2.8270   -1.9950 C   0  0  0  0  0  0  0  0  0  0  0  0
   -4.6940   -1.8530   -1.0900 C   0  0  0  0  0  0  0  0  0  0  0  0
    4.5550   -0.8690    1.3570 C   0  0  0  0  0  0  0  0  0  0  0  0
    5.4650   -1.5950    2.3060 C   0  0  2  0  0  0  0  0  0  0  0  0
  1  2  1  0
  2  3  1  0
  3  4  2  0
  3  5  1  0
  6  5  1  6
  6  7  1  0
  6 44  1  0
  7  8  1  0
  8  9  1  0
  9 10  1  6
  9 44  1  0
 10 11  1  0
 11 12  1  6
 11 43  1  0
 12 13  1  0
 13 14  2  0
 13 15  1  0
 15 16  1  0
 16 17  1  6
 16 24  1  0
 17 18  1  0
 18 19  2  0
 18 23  1  0
 19 20  1  0
 20 21  2  0
 21 22  1  0
 22 23  2  0
 24 25  1  1
 24 26  1  0
 26 27  1  0
 27 28  1  0
 32 27  1  6
 28 29  1  0
 29 30  1  6
 29 31  1  0
 32 33  2  0
 32 34  2  0
 32 35  1  0
 35 36  2  0
 35 42  1  0
 36 37  1  0
 37 38  2  0
 38 39  1  0
 38 41  1  0
 39 40  1  0
 41 42  2  0
 44 43  1  6
M  END
