
     RDKit          3D

 32 36  0  0  0  0  0  0  0  0999 V2000
   -0.9000   -0.5940    1.1220 C   0  0  0  0  0  0  0  0  0  0  0  0
   -1.5380    0.2880    0.0420 C   0  0  1  0  0  0  0  0  0  0  0  0
   -1.2540   -0.3030   -1.2250 N   0  0  0  0  0  0  0  0  0  0  0  0
    0.0840   -0.4900   -1.7150 C   0  0  0  0  0  0  0  0  0  0  0  0
    0.2890   -1.0980   -2.9340 C   0  0  0  0  0  0  0  0  0  0  0  0
    1.5510   -1.3030   -3.4560 C   0  0  0  0  0  0  0  0  0  0  0  0
    2.6350   -0.8780   -2.7190 C   0  0  0  0  0  0  0  0  0  0  0  0
    2.4920   -0.2630   -1.4930 C   0  0  0  0  0  0  0  0  0  0  0  0
    3.6130    0.1780   -0.7280 N   0  0  0  0  0  0  0  0  0  0  0  0
    3.7700    1.4270   -0.3230 N   0  0  0  0  0  0  0  0  0  0  0  0
    4.8210    1.8660    0.4010 C   0  0  0  0  0  0  0  0  0  0  0  0
    5.8250    1.0040    0.7710 C   0  0  0  0  0  0  0  0  0  0  0  0
    6.9120    1.4280    1.5130 C   0  0  0  0  0  0  0  0  0  0  0  0
    7.0330    2.7300    1.9100 F   0  0  0  0  0  0  0  0  0  0  0  0
    7.8880    0.5430    1.8620 C   0  0  0  0  0  0  0  0  0  0  0  0
    7.7770   -0.7770    1.4660 C   0  0  0  0  0  0  0  0  0  0  0  0
    6.6860   -1.1780    0.7280 C   0  0  0  0  0  0  0  0  0  0  0  0
    5.6840   -0.3050    0.3610 C   0  0  0  0  0  0  0  0  0  0  0  0
    4.5850   -0.6930   -0.3780 C   0  0  0  0  0  0  0  0  0  0  0  0
    4.4570   -1.8970   -0.7550 O   0  0  0  0  0  0  0  0  0  0  0  0
    1.1960   -0.0890   -1.0280 C   0  0  0  0  0  0  0  0  0  0  0  0
   -3.0060    0.2820    0.2600 C   0  0  0  0  0  0  0  0  0  0  0  0
   -3.6560   -0.0700    1.3840 N   0  0  0  0  0  0  0  0  0  0  0  0
   -4.9710    0.0430    1.2340 C   0  0  0  0  0  0  0  0  0  0  0  0
   -6.0840   -0.1730    2.0220 C   0  0  0  0  0  0  0  0  0  0  0  0
   -7.3300    0.0340    1.5860 N   0  0  0  0  0  0  0  0  0  0  0  0
   -7.5140    0.4740    0.3190 C   0  0  0  0  0  0  0  0  0  0  0  0
   -8.9020    0.6960   -0.1430 C   0  0  0  0  0  0  0  0  0  0  0  0
   -9.2840    2.0060    0.1330 F   0  0  0  0  0  0  0  0  0  0  0  0
   -6.4400    0.6880   -0.4590 N   0  0  0  0  0  0  0  0  0  0  0  0
   -5.1740    0.4920   -0.0570 C   0  0  0  0  0  0  0  0  0  0  0  0
   -3.9580    0.6270   -0.6220 N   0  0  0  0  0  0  0  0  0  0  0  0
  2  1  1  1
  2  3  1  0
  2 22  1  0
  3  4  1  0
  4  5  2  0
  4 21  1  0
  5  6  1  0
  6  7  2  0
  7  8  1  0
  8  9  1  0
  8 21  2  0
  9 10  1  0
  9 19  1  0
 10 11  2  0
 11 12  1  0
 12 13  2  0
 12 18  1  0
 13 14  1  0
 13 15  1  0
 15 16  2  0
 16 17  1  0
 17 18  2  0
 18 19  1  0
 19 20  2  0
 22 23  2  0
 22 32  1  0
 23 24  1  0
 24 25  2  0
 24 31  1  0
 25 26  1  0
 26 27  2  0
 27 28  1  0
 27 30  1  0
 28 29  1  0
 30 31  2  0
 31 32  1  0
M  CHG  1  26   1
M  END
