
     RDKit          3D

 31 35  0  0  0  0  0  0  0  0999 V2000
    6.2390   -1.7290   -0.4180 C   0  0  0  0  0  0  0  0  0  0  0  0
    6.1920   -0.7210    0.6160 N   0  0  0  0  0  0  0  0  0  0  0  0
    5.0050   -0.6270    1.4100 C   0  0  0  0  0  0  0  0  0  0  0  0
    3.8280   -0.3340    0.5490 C   0  0  0  0  0  0  0  0  0  0  0  0
    3.8760   -0.1900   -0.7830 N   0  0  0  0  0  0  0  0  0  0  0  0
    2.6380    0.0650   -1.2280 C   0  0  0  0  0  0  0  0  0  0  0  0
    1.8110    0.0740   -0.1170 C   0  0  0  0  0  0  0  0  0  0  0  0
    0.3450    0.3130   -0.0960 C   0  0  0  0  0  0  0  0  0  0  0  0
   -0.3510   -0.9540   -0.2450 N   0  0  0  0  0  0  0  0  0  0  0  0
   -1.7820   -0.9690   -0.2530 C   0  0  0  0  0  0  0  0  0  0  0  0
   -2.4630   -2.1600   -0.3930 C   0  0  0  0  0  0  0  0  0  0  0  0
   -3.8420   -2.1930   -0.4030 C   0  0  0  0  0  0  0  0  0  0  0  0
   -4.5300   -3.3770   -0.5390 C   0  0  0  0  0  0  0  0  0  0  0  0
   -5.9060   -3.4080   -0.5450 C   0  0  0  0  0  0  0  0  0  0  0  0
   -6.5670   -2.2140   -0.4100 C   0  0  0  0  0  0  0  0  0  0  0  0
   -7.9190   -2.2410   -0.4150 F   0  0  0  0  0  0  0  0  0  0  0  0
   -5.9040   -1.0040   -0.2720 C   0  0  0  0  0  0  0  0  0  0  0  0
   -4.5400   -1.0010   -0.2690 C   0  0  0  0  0  0  0  0  0  0  0  0
   -3.8540    0.1780   -0.1310 C   0  0  0  0  0  0  0  0  0  0  0  0
   -4.4590    1.4470   -0.0030 N   0  0  0  0  0  0  0  0  0  0  0  0
   -5.2540    2.0950   -1.0170 C   0  0  0  0  0  0  0  0  0  0  0  0
   -6.3350    2.8040   -0.2140 C   0  0  0  0  0  0  0  0  0  0  0  0
   -5.8810    2.7640    1.2260 C   0  0  0  0  0  0  0  0  0  0  0  0
   -4.4260    2.3530    1.1200 C   0  0  0  0  0  0  0  0  0  0  0  0
   -2.4890    0.1440   -0.1290 N   0  0  0  0  0  0  0  0  0  0  0  0
    2.5940   -0.1740    0.9190 O   0  0  0  0  0  0  0  0  0  0  0  0
    7.2880    0.1550    0.8440 C   0  0  0  0  0  0  0  0  0  0  0  0
    8.4420    0.1330    0.1400 N   0  0  0  0  0  0  0  0  0  0  0  0
    9.2760    1.0650    0.5780 C   0  0  0  0  0  0  0  0  0  0  0  0
    8.6340    1.7110    1.6040 C   0  0  0  0  0  0  0  0  0  0  0  0
    7.4130    1.1260    1.7410 N   0  0  0  0  0  0  0  0  0  0  0  0
  1  2  1  0
  2  3  1  0
  2 27  1  0
  3  4  1  0
  4  5  2  0
  4 26  1  0
  5  6  1  0
  6  7  2  0
  7  8  1  0
  7 26  1  0
  8  9  1  0
  9 10  1  0
 10 11  2  0
 10 25  1  0
 11 12  1  0
 12 13  2  0
 12 18  1  0
 13 14  1  0
 14 15  2  0
 15 16  1  0
 15 17  1  0
 17 18  2  0
 18 19  1  0
 19 20  1  0
 19 25  2  0
 20 21  1  0
 20 24  1  0
 21 22  1  0
 22 23  1  0
 23 24  1  0
 27 28  1  0
 27 31  2  0
 28 29  1  0
 29 30  2  0
 30 31  1  0
M  CHG  1  31   1
M  END
