
     RDKit          3D

 33 37  0  0  0  0  0  0  0  0999 V2000
   -1.7820   -1.6330    3.7300 C   0  0  0  0  0  0  0  0  0  0  0  0
   -1.7680   -0.2320    3.1870 C   0  0  0  0  0  0  0  0  0  0  0  0
   -2.1940   -0.1370    1.8690 O   0  0  0  0  0  0  0  0  0  0  0  0
   -1.6390   -0.7150    0.7480 C   0  0  0  0  0  0  0  0  0  0  0  0
   -0.4850   -1.5000    0.8670 C   0  0  0  0  0  0  0  0  0  0  0  0
    0.0980   -2.0900   -0.2270 C   0  0  0  0  0  0  0  0  0  0  0  0
    1.2650   -2.9560   -0.0350 C   0  0  0  0  0  0  0  0  0  0  0  0
    2.6450   -2.6720   -1.1040 S   0  0  0  0  0  0  0  0  0  0  0  0
    3.4580   -1.1110   -0.9710 C   0  0  0  0  0  0  0  0  0  0  0  0
    3.0410   -0.0720   -1.7380 N   0  0  0  0  0  0  0  0  0  0  0  0
    3.6830    1.0950   -1.6880 C   0  0  0  0  0  0  0  0  0  0  0  0
    4.7340    1.2460   -0.8880 N   0  0  0  0  0  0  0  0  0  0  0  0
    5.1920    0.2570   -0.1070 C   0  0  0  0  0  0  0  0  0  0  0  0
    6.3430    0.4750    0.7540 C   0  0  0  0  0  0  0  0  0  0  0  0
    6.8680   -0.4710    1.6410 C   0  0  0  0  0  0  0  0  0  0  0  0
    7.9270    0.1050    2.2530 N   0  0  0  0  0  0  0  0  0  0  0  0
    8.0930    1.3320    1.8100 N   0  0  0  0  0  0  0  0  0  0  0  0
    7.1440    1.5700    0.9040 C   0  0  0  0  0  0  0  0  0  0  0  0
    7.0040    2.8490    0.1710 C   0  0  0  0  0  0  0  0  0  0  0  0
    4.5310   -0.9160   -0.1680 N   0  0  0  0  0  0  0  0  0  0  0  0
   -0.4440   -1.9270   -1.5090 C   0  0  0  0  0  0  0  0  0  0  0  0
    0.2240   -2.5660   -2.5310 O   0  0  0  0  0  0  0  0  0  0  0  0
   -0.2020   -2.4910   -3.8650 C   0  0  0  0  0  0  0  0  0  0  0  0
   -1.5690   -1.1590   -1.6200 C   0  0  0  0  0  0  0  0  0  0  0  0
   -2.1630   -0.5590   -0.5120 C   0  0  0  0  0  0  0  0  0  0  0  0
   -3.3900    0.2020   -0.6730 C   0  0  0  0  0  0  0  0  0  0  0  0
   -4.3640    0.5670    0.1640 C   0  0  0  0  0  0  0  0  0  0  0  0
   -5.4300    1.2620   -0.3170 C   0  0  0  0  0  0  0  0  0  0  0  0
   -5.4630    1.5590   -1.6160 C   0  0  0  0  0  0  0  0  0  0  0  0
   -3.9720    0.8560   -2.2410 S   0  0  0  0  0  0  0  0  0  0  0  0
   -6.6740    2.3590   -2.0180 C   0  0  0  0  0  0  0  0  0  0  0  0
   -7.0590    2.9200   -0.6670 C   0  0  0  0  0  0  0  0  0  0  0  0
   -6.7330    1.8210    0.2650 C   0  0  0  0  0  0  0  0  0  0  0  0
  1  2  1  0
  2  3  1  0
  3  4  1  0
  4  5  2  0
  4 25  1  0
  5  6  1  0
  6  7  1  0
  6 21  2  0
  7  8  1  0
  8  9  1  0
  9 10  2  0
  9 20  1  0
 10 11  1  0
 11 12  2  0
 12 13  1  0
 13 14  1  0
 13 20  2  0
 14 15  2  0
 14 18  1  0
 15 16  1  0
 16 17  1  0
 17 18  2  0
 18 19  1  0
 21 22  1  0
 21 24  1  0
 22 23  1  0
 24 25  2  0
 25 26  1  0
 26 27  2  0
 26 30  1  0
 27 28  1  0
 28 29  2  0
 28 33  1  0
 29 30  1  0
 29 31  1  0
 31 32  1  0
 32 33  1  0
M  END
