
     RDKit          3D

 33 37  0  0  0  0  0  0  0  0999 V2000
    6.2290    3.5660    0.1670 C   0  0  0  0  0  0  0  0  0  0  0  0
    5.1140    2.6230    0.6530 C   0  0  1  0  0  0  0  0  0  0  0  0
    4.4260    3.3620    1.7960 C   0  0  0  0  0  0  0  0  0  0  0  0
    4.0000    2.3830   -0.7170 S   0  0  0  0  0  0  0  0  0  0  0  0
    2.6100    1.3340   -0.3840 C   0  0  0  0  0  0  0  0  0  0  0  0
    1.4550    1.8050    0.1310 N   0  0  0  0  0  0  0  0  0  0  0  0
    0.3710    1.0380    0.3590 C   0  0  0  0  0  0  0  0  0  0  0  0
   -0.6890    1.5350    0.8450 O   0  0  0  0  0  0  0  0  0  0  0  0
    0.4260   -0.3050    0.0560 C   0  0  0  0  0  0  0  0  0  0  0  0
    1.6080   -0.7720   -0.4680 C   0  0  0  0  0  0  0  0  0  0  0  0
    1.4260   -2.0780   -0.6790 N   0  0  0  0  0  0  0  0  0  0  0  0
    0.1750   -2.3950   -0.2960 C   0  0  0  0  0  0  0  0  0  0  0  0
   -0.4130   -3.7590   -0.3720 C   0  0  1  0  0  0  0  0  0  0  0  0
    0.1390   -4.6950   -1.4290 C   0  0  0  0  0  0  0  0  0  0  0  0
    0.4880   -4.8810   -0.0030 C   0  0  0  0  0  0  0  0  0  0  0  0
   -0.4710   -1.3050    0.1660 N   0  0  0  0  0  0  0  0  0  0  0  0
   -1.8050   -1.2490    0.6580 C   0  0  0  0  0  0  0  0  0  0  0  0
   -2.7680   -0.4060    0.1080 C   0  0  0  0  0  0  0  0  0  0  0  0
   -4.0520   -0.3680    0.6010 C   0  0  0  0  0  0  0  0  0  0  0  0
   -5.0540    0.5120    0.0330 C   0  0  0  0  0  0  0  0  0  0  0  0
   -6.4030    0.2180   -0.0010 C   0  0  0  0  0  0  0  0  0  0  0  0
   -7.2740    1.1360   -0.5680 C   0  0  0  0  0  0  0  0  0  0  0  0
   -6.8520    2.3360   -1.1020 C   0  0  0  0  0  0  0  0  0  0  0  0
   -8.0110    3.5060   -1.8300 S   0  0  0  0  0  0  0  0  0  0  0  0
   -5.5140    2.6110   -1.0610 C   0  0  0  0  0  0  0  0  0  0  0  0
   -4.6390    1.7260   -0.5090 C   0  0  0  0  0  0  0  0  0  0  0  0
   -4.3700   -1.1880    1.6610 C   0  0  0  0  0  0  0  0  0  0  0  0
   -3.4070   -2.0390    2.2210 C   0  0  0  0  0  0  0  0  0  0  0  0
   -2.1570   -2.0330    1.6920 N   0  0  0  0  0  0  0  0  0  0  0  0
    2.6850    0.0330   -0.6850 N   0  0  0  0  0  0  0  0  0  0  0  0
    3.8480   -0.6100   -1.2680 C   0  0  0  0  0  0  0  0  0  0  0  0
    4.6980   -1.2020   -0.1920 C   0  0  0  0  0  0  0  0  0  0  0  0
    5.8140   -1.8090   -0.7670 O   0  0  0  0  0  0  0  0  0  0  0  0
  2  1  1  6
  2  3  1  0
  2  4  1  0
  4  5  1  0
  5  6  2  0
  5 30  1  0
  6  7  1  0
  7  8  2  0
  7  9  1  0
  9 10  2  0
  9 16  1  0
 10 11  1  0
 10 30  1  0
 11 12  2  0
 13 12  1  6
 12 16  1  0
 13 14  1  0
 13 15  1  0
 14 15  1  0
 16 17  1  0
 17 18  2  0
 17 29  1  0
 18 19  1  0
 19 20  1  0
 19 27  2  0
 20 21  2  0
 20 26  1  0
 21 22  1  0
 22 23  2  0
 23 24  1  0
 23 25  1  0
 25 26  2  0
 27 28  1  0
 28 29  2  0
 30 31  1  0
 31 32  1  0
 32 33  1  0
M  END
