
     RDKit          3D

 33 37  0  0  0  0  0  0  0  0999 V2000
   -3.3760   -5.3890   -0.5060 C   0  0  0  0  0  0  0  0  0  0  0  0
   -2.0630   -4.7760   -0.2090 N   0  0  0  0  0  0  0  0  0  0  0  0
   -1.8510   -4.9160    1.2070 C   0  0  0  0  0  0  0  0  0  0  0  0
   -2.0780   -3.3920   -0.6640 C   0  0  0  0  0  0  0  0  0  0  0  0
   -0.8110   -2.7040   -0.4970 C   0  0  0  0  0  0  0  0  0  0  0  0
    0.2820   -3.2350    0.0600 N   0  0  0  0  0  0  0  0  0  0  0  0
    1.2430   -2.3310    0.0400 N   0  0  0  0  0  0  0  0  0  0  0  0
    0.8380   -1.1910   -0.5190 C   0  0  0  0  0  0  0  0  0  0  0  0
    1.5520    0.0590   -0.8500 C   0  0  0  0  0  0  0  0  0  0  0  0
    1.7790    1.1060   -1.2170 N   0  0  0  0  0  0  0  0  0  0  0  0
    2.7610    1.9150   -1.3450 C   0  0  0  0  0  0  0  0  0  0  0  0
    3.9440    1.3890   -0.9010 C   0  0  0  0  0  0  0  0  0  0  0  0
    5.2970    1.9990   -0.8510 C   0  0  0  0  0  0  0  0  0  0  0  0
    6.3160    1.4360   -0.1130 C   0  0  0  0  0  0  0  0  0  0  0  0
    7.5690    2.0040   -0.1330 C   0  0  0  0  0  0  0  0  0  0  0  0
    7.8390    3.1250   -0.8630 C   0  0  0  0  0  0  0  0  0  0  0  0
    6.8030    3.6920   -1.6100 C   0  0  0  0  0  0  0  0  0  0  0  0
    5.5500    3.1260   -1.5940 C   0  0  0  0  0  0  0  0  0  0  0  0
    3.4870   -0.2440   -0.3460 S   0  0  0  0  0  0  0  0  0  0  0  0
   -0.5070   -1.4240   -0.8690 C   0  0  0  0  0  0  0  0  0  0  0  0
   -1.3340   -0.4140   -1.5500 C   0  0  0  0  0  0  0  0  0  0  0  0
   -2.4160    0.0550   -0.7400 N   0  0  0  0  0  0  0  0  0  0  0  0
   -3.6850   -0.4400   -0.8160 C   0  0  0  0  0  0  0  0  0  0  0  0
   -4.4740    0.2440    0.0600 C   0  0  0  0  0  0  0  0  0  0  0  0
   -3.7140    1.1730    0.7020 C   0  0  0  0  0  0  0  0  0  0  0  0
   -4.0050    2.1030    1.6690 C   0  0  0  0  0  0  0  0  0  0  0  0
   -3.0410    2.9410    2.1650 C   0  0  0  0  0  0  0  0  0  0  0  0
   -3.4510    4.1160    3.4210 S   0  0  2  0  0  0  0  0  0  0  0  0
   -4.9080    4.4220    3.3960 O   0  0  0  0  0  0  0  0  0  0  0  0
   -2.7240    5.4110    3.1310 O   0  0  0  0  0  0  0  0  0  0  0  0
   -1.7430    2.8320    1.6700 C   0  0  0  0  0  0  0  0  0  0  0  0
   -1.4680    1.8820    0.6910 C   0  0  0  0  0  0  0  0  0  0  0  0
   -2.4240    1.0350    0.1820 C   0  0  0  0  0  0  0  0  0  0  0  0
  1  2  1  0
  2  3  1  0
  2  4  1  0
  4  5  1  0
  5  6  1  0
  5 20  2  0
  6  7  1  0
  7  8  2  0
  8  9  1  0
  8 20  1  0
  9 10  2  0
  9 19  1  0
 10 11  1  0
 11 12  2  0
 12 13  1  0
 12 19  1  0
 13 14  2  0
 13 18  1  0
 14 15  1  0
 15 16  2  0
 16 17  1  0
 17 18  2  0
 20 21  1  0
 21 22  1  0
 22 23  1  0
 22 33  1  0
 23 24  2  0
 24 25  1  0
 25 26  2  0
 25 33  1  0
 26 27  1  0
 28 27  1  6
 27 31  2  0
 28 29  2  0
 28 30  2  0
 31 32  1  0
 32 33  2  0
M  END
