
     RDKit          3D

 33 37  0  0  0  0  0  0  0  0999 V2000
    2.1370    5.6160    1.4750 C   0  0  0  0  0  0  0  0  0  0  0  0
    2.5350    4.9670    0.1650 C   0  0  0  0  0  0  0  0  0  0  0  0
    1.5950    3.8650   -0.1340 C   0  0  0  0  0  0  0  0  0  0  0  0
    1.9590    2.5450    0.0220 C   0  0  0  0  0  0  0  0  0  0  0  0
    1.0900    1.4810   -0.2660 C   0  0  0  0  0  0  0  0  0  0  0  0
    1.5390    0.1430   -0.0830 N   0  0  0  0  0  0  0  0  0  0  0  0
    1.0760   -0.7970    0.7520 C   0  0  0  0  0  0  0  0  0  0  0  0
    1.7970   -1.9600    0.6220 C   0  0  0  0  0  0  0  0  0  0  0  0
    2.7520   -1.7180   -0.3430 C   0  0  0  0  0  0  0  0  0  0  0  0
    3.7930   -2.6090   -0.8620 C   0  0  0  0  0  0  0  0  0  0  0  0
    4.5000   -3.4000   -0.1110 C   0  0  0  0  0  0  0  0  0  0  0  0
    5.5460   -4.2830   -0.7180 C   0  0  0  0  0  0  0  0  0  0  0  0
    4.3160   -3.4570    1.3730 C   0  0  0  0  0  0  0  0  0  0  0  0
    2.5600   -0.4220   -0.7480 C   0  0  0  0  0  0  0  0  0  0  0  0
   -0.1810    1.7720   -0.7230 C   0  0  0  0  0  0  0  0  0  0  0  0
   -1.0880    0.7200   -1.0570 N   0  0  0  0  0  0  0  0  0  0  0  0
   -2.7320    0.8660   -0.6450 S   0  0  1  0  0  0  0  0  0  0  0  0
   -2.9740    2.2060    0.0380 O   0  0  0  0  0  0  0  0  0  0  0  0
   -3.5620    0.7460   -1.8710 O   0  0  0  0  0  0  0  0  0  0  0  0
   -3.2720   -0.3430    0.4830 C   0  0  0  0  0  0  0  0  0  0  0  0
   -3.2130   -0.3000    2.2200 S   0  0  0  0  0  0  0  0  0  0  0  0
   -4.0020   -1.9220    2.4750 C   0  0  0  0  0  0  0  0  0  0  0  0
   -4.4210   -2.8170    3.3980 N   0  0  0  0  0  0  0  0  0  0  0  0
   -4.9420   -3.8490    2.6610 C   0  0  0  0  0  0  0  0  0  0  0  0
   -4.8140   -3.5310    1.3840 N   0  0  0  0  0  0  0  0  0  0  0  0
   -4.2130   -2.3000    1.2460 N   0  0  0  0  0  0  0  0  0  0  0  0
   -3.8790   -1.5710    0.2120 C   0  0  0  0  0  0  0  0  0  0  0  0
   -4.0840   -1.9290   -1.2640 C   0  0  1  0  0  0  0  0  0  0  0  0
   -4.9030   -3.1130   -1.6140 C   0  0  0  0  0  0  0  0  0  0  0  0
   -5.5210   -1.7550   -1.7270 C   0  0  0  0  0  0  0  0  0  0  0  0
   -0.5120    3.1030   -0.8670 C   0  0  0  0  0  0  0  0  0  0  0  0
    0.3310    4.1580   -0.5890 C   0  0  0  0  0  0  0  0  0  0  0  0
   -0.1260    5.5780   -0.7770 C   0  0  0  0  0  0  0  0  0  0  0  0
  1  2  1  0
  2  3  1  0
  3  4  2  0
  3 32  1  0
  4  5  1  0
  5  6  1  0
  5 15  2  0
  6  7  1  0
  6 14  1  0
  7  8  2  0
  8  9  1  0
  9 10  1  0
  9 14  2  0
 10 11  2  3
 11 12  1  0
 11 13  1  0
 15 16  1  0
 15 31  1  0
 17 16  1  6
 17 18  2  0
 17 19  2  0
 17 20  1  0
 20 21  1  0
 20 27  2  0
 21 22  1  0
 22 23  2  0
 22 26  1  0
 23 24  1  0
 24 25  2  0
 25 26  1  0
 26 27  1  0
 28 27  1  1
 28 29  1  0
 28 30  1  0
 29 30  1  0
 31 32  2  0
 32 33  1  0
M  END
