
     RDKit          3D

 33 37  0  0  0  0  0  0  0  0999 V2000
   -7.1450    1.5200   -0.1960 C   0  0  0  0  0  0  0  0  0  0  0  0
   -6.4530    0.3040    0.3430 C   0  0  0  0  0  0  0  0  0  0  0  0
   -6.9760   -0.4460    1.3750 C   0  0  0  0  0  0  0  0  0  0  0  0
   -6.2990   -1.5610    1.8380 C   0  0  0  0  0  0  0  0  0  0  0  0
   -5.0890   -1.9680    1.2980 C   0  0  0  0  0  0  0  0  0  0  0  0
   -4.4350   -3.0900    1.7830 C   0  0  0  0  0  0  0  0  0  0  0  0
   -3.2300   -3.4710    1.2240 C   0  0  0  0  0  0  0  0  0  0  0  0
   -2.6810   -2.7330    0.1820 C   0  0  0  0  0  0  0  0  0  0  0  0
   -1.5770   -2.8510   -0.5300 O   0  0  0  0  0  0  0  0  0  0  0  0
   -1.4990   -1.8890   -1.4170 C   0  0  0  0  0  0  0  0  0  0  0  0
   -0.4200   -1.6630   -2.4080 C   0  0  0  0  0  0  0  0  0  0  0  0
    0.8880   -0.6000   -1.7430 S   0  0  0  0  0  0  0  0  0  0  0  0
    0.2750    1.0540   -1.4490 C   0  0  0  0  0  0  0  0  0  0  0  0
   -1.0040    1.2980   -1.7370 N   0  0  0  0  0  0  0  0  0  0  0  0
   -1.5430    2.5050   -1.5470 C   0  0  0  0  0  0  0  0  0  0  0  0
   -0.7620    3.5160   -1.0440 C   0  0  0  0  0  0  0  0  0  0  0  0
    0.5860    3.2540   -0.7420 C   0  0  0  0  0  0  0  0  0  0  0  0
    1.1340    2.0200   -0.9370 C   0  0  0  0  0  0  0  0  0  0  0  0
    2.4720    1.6690   -0.6630 N   0  0  0  0  0  0  0  0  0  0  0  0
    3.4440    2.5490   -0.1430 C   0  0  0  0  0  0  0  0  0  0  0  0
    3.2150    3.7330    0.1280 O   0  0  0  0  0  0  0  0  0  0  0  0
    4.8340    2.0220    0.0950 C   0  0  0  0  0  0  0  0  0  0  0  0
    4.9210    0.2560   -0.3800 S   0  0  0  0  0  0  0  0  0  0  0  0
    6.6140   -0.2780   -0.0610 C   0  0  0  0  0  0  0  0  0  0  0  0
    7.6430   -0.2230   -0.9250 N   0  0  0  0  0  0  0  0  0  0  0  0
    8.7580   -0.7050   -0.3530 C   0  0  0  0  0  0  0  0  0  0  0  0
    8.4040   -1.0730    0.9170 C   0  0  0  0  0  0  0  0  0  0  0  0
    7.0970   -0.8060    1.0770 N   0  0  0  0  0  0  0  0  0  0  0  0
    6.3070   -1.0440    2.2840 C   0  0  0  0  0  0  0  0  0  0  0  0
   -2.5950   -1.1250   -1.2680 N   0  0  0  0  0  0  0  0  0  0  0  0
   -3.3630   -1.6240   -0.2710 C   0  0  0  0  0  0  0  0  0  0  0  0
   -4.5660   -1.2160    0.2630 C   0  0  0  0  0  0  0  0  0  0  0  0
   -5.2490   -0.1110   -0.1860 C   0  0  0  0  0  0  0  0  0  0  0  0
  1  2  1  0
  2  3  2  0
  2 33  1  0
  3  4  1  0
  4  5  2  0
  5  6  1  0
  5 32  1  0
  6  7  2  0
  7  8  1  0
  8  9  1  0
  8 31  2  0
  9 10  1  0
 10 11  1  0
 10 30  2  0
 11 12  1  0
 12 13  1  0
 13 14  2  0
 13 18  1  0
 14 15  1  0
 15 16  2  0
 16 17  1  0
 17 18  2  0
 18 19  1  0
 19 20  1  0
 20 21  2  0
 20 22  1  0
 22 23  1  0
 23 24  1  0
 24 25  2  0
 24 28  1  0
 25 26  1  0
 26 27  2  0
 27 28  1  0
 28 29  1  0
 30 31  1  0
 31 32  1  0
 32 33  2  0
M  END
