
     RDKit          3D

 10  9  0  0  0  0  0  0  0  0999 V2000
   -1.8160    0.1810   -2.6590 C   0  0  0  0  0  0  0  0  0  0  0  0
   -0.7810    0.2900   -1.8560 C   0  0  0  0  0  0  0  0  0  0  0  0
   -0.8400   -0.1520   -0.4590 C   0  0  0  0  0  0  0  0  0  0  0  0
   -2.1280   -0.7210   -0.0220 C   0  0  0  0  0  0  0  0  0  0  0  0
   -2.2330   -1.1640    1.3270 N   0  0  0  0  0  0  0  0  0  0  0  0
    0.1910   -0.0360    0.3140 C   0  0  0  0  0  0  0  0  0  0  0  0
    0.2390   -0.4350    1.6880 N   0  0  0  0  0  0  0  0  0  0  0  0
    1.4700    0.5400   -0.1590 C   0  0  0  0  0  0  0  0  0  0  0  0
    2.5060    0.6380    0.6790 C   0  0  0  0  0  0  0  0  0  0  0  0
    3.7060    1.1930    0.1920 N   0  0  0  0  0  0  0  0  0  0  0  0
  1  2  2  0
  2  3  1  0
  3  4  1  0
  3  6  2  3
  4  5  1  0
  6  7  1  0
  6  8  1  0
  8  9  2  3
  9 10  1  0
M  CHG  2   5   1  10   1
M  END
