
     RDKit          3D

 10  9  0  0  0  0  0  0  0  0999 V2000
    0.0250   -0.7630    1.4710 C   0  0  0  0  0  0  0  0  0  0  0  0
    0.1640   -0.3750    0.0320 C   0  0  0  0  0  0  0  0  0  0  0  0
    1.3270   -0.5550   -0.5810 C   0  0  0  0  0  0  0  0  0  0  0  0
    2.5100   -1.1200    0.0670 C   0  0  0  0  0  0  0  0  0  0  0  0
    3.6070   -0.1710    0.0450 N   0  0  0  0  0  0  0  0  0  0  0  0
   -0.9970    0.2090   -0.6800 C   0  0  2  0  0  0  0  0  0  0  0  0
   -1.3520    1.5870   -0.1200 C   0  0  0  0  0  0  0  0  0  0  0  0
   -0.1960    2.4440   -0.2940 N   0  0  0  0  0  0  0  0  0  0  0  0
   -2.1930   -0.6650   -0.7730 C   0  0  0  0  0  0  0  0  0  0  0  0
   -2.7860   -1.0910    0.4470 N   0  0  0  0  0  0  0  0  0  0  0  0
  1  2  1  0
  2  3  2  3
  2  6  1  0
  3  4  1  0
  4  5  1  0
  6  7  1  1
  6  9  1  0
  7  8  1  0
  9 10  1  0
M  CHG  3   5   1   8   1  10   1
M  END
