
     RDKit          3D

 10  9  0  0  0  0  0  0  0  0999 V2000
    0.9650   -1.8770   -0.8980 C   0  0  0  0  0  0  0  0  0  0  0  0
    1.0480   -0.8460   -0.0860 C   0  0  0  0  0  0  0  0  0  0  0  0
    2.3030   -0.6800    0.6820 C   0  0  0  0  0  0  0  0  0  0  0  0
    3.0180    0.5320    0.3500 N   0  0  0  0  0  0  0  0  0  0  0  0
   -0.1060    0.0640    0.0190 C   0  0  0  0  0  0  0  0  0  0  0  0
    0.0320    1.0720    0.8600 C   0  0  0  0  0  0  0  0  0  0  0  0
   -0.8870    2.0830    1.1600 N   0  0  0  0  0  0  0  0  0  0  0  0
   -1.2890   -0.2600   -0.7910 C   0  0  1  0  0  0  0  0  0  0  0  0
   -1.9720   -1.5330   -0.3240 C   0  0  0  0  0  0  0  0  0  0  0  0
   -2.2720    0.7610   -0.9530 N   0  0  0  0  0  0  0  0  0  0  0  0
  1  2  2  0
  2  3  1  0
  2  5  1  0
  3  4  1  0
  5  6  2  3
  5  8  1  0
  6  7  1  0
  8  9  1  1
  8 10  1  0
M  CHG  3   4   1   7   1  10   1
M  END
