
     RDKit          3D

 10  9  0  0  0  0  0  0  0  0999 V2000
    3.0510   -0.9780   -0.1460 C   0  0  0  0  0  0  0  0  0  0  0  0
    1.9460   -0.4760   -0.5300 C   0  0  0  0  0  0  0  0  0  0  0  0
    0.7170   -0.2800    0.2070 C   0  0  0  0  0  0  0  0  0  0  0  0
    0.5560   -0.4720    1.6120 C   0  0  0  0  0  0  0  0  0  0  0  0
    1.2670   -1.0010    2.5440 C   0  0  0  0  0  0  0  0  0  0  0  0
   -0.2590    0.2750   -0.5000 C   0  0  0  0  0  0  0  0  0  0  0  0
    0.1260    0.5950   -1.8890 N   0  0  0  0  0  0  0  0  0  0  0  0
   -1.6380    0.4570   -0.2370 C   0  0  0  0  0  0  0  0  0  0  0  0
   -2.3970    0.0850    0.7060 N   0  0  0  0  0  0  0  0  0  0  0  0
   -2.3990    1.2560   -1.2480 N   0  0  0  0  0  0  0  0  0  0  0  0
  1  2  2  0
  2  3  1  0
  3  4  1  0
  3  6  2  3
  4  5  2  0
  6  7  1  0
  6  8  1  0
  8  9  2  0
  8 10  1  0
M  CHG  2   9   1  10   1
M  END
