
     RDKit          3D

 10 10  0  0  0  0  0  0  0  0999 V2000
   -0.9980   -1.9940   -1.4980 N   0  0  0  0  0  0  0  0  0  0  0  0
   -1.3870   -0.6720   -1.3750 C   0  0  0  0  0  0  0  0  0  0  0  0
   -0.7310    0.2250   -0.3580 C   0  0  0  0  0  0  0  0  0  0  0  0
   -1.3060    1.5960   -0.4180 C   0  0  0  0  0  0  0  0  0  0  0  0
   -0.7700    2.6330    0.3550 N   0  0  0  0  0  0  0  0  0  0  0  0
    0.2440   -0.1310    0.4180 C   0  0  0  0  0  0  0  0  0  0  0  0
    0.9170    0.6620    1.4290 C   0  0  0  0  0  0  0  0  0  0  0  0
    2.1110    0.1210    1.7380 C   0  0  0  0  0  0  0  0  0  0  0  0
    2.3440   -1.0300    1.0040 N   0  0  0  0  0  0  0  0  0  0  0  0
    1.0300   -1.4290    0.4640 C   0  0  0  0  0  0  0  0  0  0  0  0
  1  2  1  0
  2  3  1  0
  3  4  1  0
  3  6  2  3
  4  5  1  0
  6  7  1  0
  6 10  1  0
  7  8  2  0
  8  9  1  0
  9 10  1  0
M  CHG  3   1   1   5   1   9   1
M  END
