
     RDKit          3D

 10 10  0  0  0  0  0  0  0  0999 V2000
   -3.3080   -1.1560   -0.5050 N   0  0  0  0  0  0  0  0  0  0  0  0
   -2.7870    0.0880    0.0690 C   0  0  0  0  0  0  0  0  0  0  0  0
   -1.3590    0.1650   -0.3230 C   0  0  0  0  0  0  0  0  0  0  0  0
   -0.3760    0.2140    0.5670 C   0  0  0  0  0  0  0  0  0  0  0  0
   -0.6560    0.1950    1.9520 N   0  0  0  0  0  0  0  0  0  0  0  0
    0.9960    0.2870    0.1090 C   0  0  0  0  0  0  0  0  0  0  0  0
    2.0490    0.3390    0.8840 C   0  0  0  0  0  0  0  0  0  0  0  0
    3.2550    0.4050    0.0240 C   0  0  0  0  0  0  0  0  0  0  0  0
    2.7950   -0.0310   -1.2530 N   0  0  0  0  0  0  0  0  0  0  0  0
    1.3870    0.3100   -1.3080 C   0  0  0  0  0  0  0  0  0  0  0  0
  1  2  1  0
  2  3  1  0
  3  4  2  3
  4  5  1  0
  4  6  1  0
  6  7  2  0
  6 10  1  0
  7  8  1  0
  8  9  1  0
  9 10  1  0
M  CHG  3   1   1   5   1   9   1
M  END
