
     RDKit          3D

 10 10  0  0  0  0  0  0  0  0999 V2000
    2.8310   -0.3160    0.4280 N   0  0  0  0  0  0  0  0  0  0  0  0
    1.8870   -0.3650   -0.7070 C   0  0  0  0  0  0  0  0  0  0  0  0
    0.6630    0.3580   -0.3600 C   0  0  0  0  0  0  0  0  0  0  0  0
   -0.5000   -0.1890   -0.3390 C   0  0  0  0  0  0  0  0  0  0  0  0
   -0.7140   -1.6350   -0.6790 C   0  0  0  0  0  0  0  0  0  0  0  0
   -1.2790   -2.2570    0.4900 N   0  0  0  0  0  0  0  0  0  0  0  0
   -1.7190    0.5230    0.0630 C   0  0  0  0  0  0  0  0  0  0  0  0
   -1.6140    1.9110    0.2270 N   0  0  0  0  0  0  0  0  0  0  0  0
   -0.3470    2.4550    0.2040 C   0  0  0  0  0  0  0  0  0  0  0  0
    0.7330    1.7880   -0.0610 C   0  0  0  0  0  0  0  0  0  0  0  0
  1  2  1  0
  2  3  1  0
  3  4  2  0
  3 10  1  0
  4  5  1  0
  4  7  1  0
  5  6  1  0
  7  8  1  0
  8  9  1  0
  9 10  2  0
M  CHG  3   1   1   6   1   8   1
M  END
