
     RDKit          3D

 10  9  0  0  0  0  0  0  0  0999 V2000
    2.2730   -0.4880   -1.6690 C   0  0  0  0  0  0  0  0  0  0  0  0
    1.1300    0.2490   -1.0990 N   0  0  0  0  0  0  0  0  0  0  0  0
    0.5990   -0.3970    0.0530 C   0  0  1  0  0  0  0  0  0  0  0  0
    1.2380   -0.0190    1.3560 C   0  0  0  0  0  0  0  0  0  0  0  0
    1.1760    1.3520    1.7240 N   0  0  0  0  0  0  0  0  0  0  0  0
   -0.9020   -0.5320    0.1040 C   0  0  1  0  0  0  0  0  0  0  0  0
   -1.2980   -1.3580   -1.1060 C   0  0  0  0  0  0  0  0  0  0  0  0
   -1.2360   -1.3640    1.3270 C   0  0  0  0  0  0  0  0  0  0  0  0
   -1.6620    0.7440    0.1960 C   0  0  0  0  0  0  0  0  0  0  0  0
   -1.5100    1.6770   -0.8600 N   0  0  0  0  0  0  0  0  0  0  0  0
  1  2  1  0
  2  3  1  0
  3  4  1  1
  3  6  1  0
  4  5  1  0
  6  7  1  6
  6  8  1  0
  6  9  1  0
  9 10  1  0
M  CHG  3   2   1   5   1  10   1
M  END
