
     RDKit          3D

 20 19  0  0  0  0  0  0  0  0999 V2000
   -3.3410   -3.5010    0.3590 C   0  0  0  0  0  0  0  0  0  0  0  0
   -2.1230   -2.6640   -0.0530 C   0  0  0  0  0  0  0  0  0  0  0  0
   -2.1820   -1.5060    0.7170 O   0  0  0  0  0  0  0  0  0  0  0  0
   -0.9310   -0.4100    0.4480 P   0  0  0  0  0  0  0  0  0  0  0  0
   -1.0850    0.6760   -1.0000 C   0  0  0  0  0  0  0  0  0  0  0  0
   -1.9710    1.8610   -0.5910 C   0  0  0  0  0  0  0  0  0  0  0  0
   -2.1620    2.7620   -1.6010 O   0  0  0  0  0  0  0  0  0  0  0  0
   -2.7650    2.2670   -2.7370 C   0  0  0  0  0  0  0  0  0  0  0  0
    0.6220   -0.8900    0.9010 O   0  0  0  0  0  0  0  0  0  0  0  0
    1.2350    0.0880    1.6850 C   0  0  2  0  0  0  0  0  0  0  0  0
    0.3950    0.3250    2.9330 C   0  0  0  0  0  0  0  0  0  0  0  0
    1.3810    1.6280    0.8010 S   0  0  0  0  0  0  0  0  0  0  0  0
    2.4750    1.6210   -0.5290 O   0  0  0  0  0  0  0  0  0  0  0  0
    2.7630    0.5520   -1.3400 C   0  0  0  0  0  0  0  0  0  0  0  0
    3.7340    0.6370   -2.4790 C   0  0  0  0  0  0  0  0  0  0  0  0
    2.1930   -0.5390   -1.1210 O   0  0  0  0  0  0  0  0  0  0  0  0
    2.5540   -0.4050    2.1960 C   0  0  0  0  0  0  0  0  0  0  0  0
    2.9080   -1.5560    1.8630 O   0  0  0  0  0  0  0  0  0  0  0  0
    3.3670    0.3480    2.9980 O   0  0  0  0  0  0  0  0  0  0  0  0
    4.5490   -0.0530    3.4760 O   0  0  0  0  0  0  0  0  0  0  0  0
  1  2  1  0
  2  3  1  0
  3  4  1  0
  4  5  1  0
  4  9  1  0
  5  6  1  0
  6  7  1  0
  7  8  1  0
  9 10  1  0
 10 11  1  1
 10 12  1  0
 10 17  1  0
 12 13  1  0
 13 14  1  0
 14 15  1  0
 14 16  2  0
 17 18  2  0
 17 19  1  0
 19 20  1  0
M  END
