
     RDKit          3D

 20 20  0  0  0  0  0  0  0  0999 V2000
    3.4280    1.7190   -0.3290 C   0  0  0  0  0  0  0  0  0  0  0  0
    2.8630    1.5330    0.8480 C   0  0  0  0  0  0  0  0  0  0  0  0
    2.1180    0.3040    1.2240 C   0  0  2  0  0  0  0  0  0  0  0  0
    3.0860   -0.6160    1.8740 C   0  0  0  0  0  0  0  0  0  0  0  0
    4.1100   -0.9200    1.2940 O   0  0  0  0  0  0  0  0  0  0  0  0
    1.4210   -0.5710   -0.2530 P   0  0  0  0  0  0  0  0  0  0  0  0
    1.2240   -2.3620    0.2340 C   0  0  0  0  0  0  0  0  0  0  0  0
   -0.2490    0.0630   -0.7240 C   0  0  2  0  0  0  0  0  0  0  0  0
   -0.6480   -0.5380   -2.0360 C   0  0  0  0  0  0  0  0  0  0  0  0
   -0.7130   -2.3720   -1.9170 P   0  0  0  0  0  0  0  0  0  0  0  0
   -2.3020   -3.0020   -2.1650 O   0  0  0  0  0  0  0  0  0  0  0  0
   -0.3140    1.5500   -0.8330 C   0  0  0  0  0  0  0  0  0  0  0  0
   -0.8900    1.9010    0.4100 O   0  0  0  0  0  0  0  0  0  0  0  0
   -1.9110    0.9540    0.4790 C   0  0  2  0  0  0  0  0  0  0  0  0
   -2.8050    1.2670   -0.5570 O   0  0  0  0  0  0  0  0  0  0  0  0
   -4.1220    0.1890   -0.6060 S   0  0  0  0  0  0  0  0  0  0  0  0
   -2.5970    0.9440    1.7690 C   0  0  0  0  0  0  0  0  0  0  0  0
   -3.5410    0.1470    1.9890 O   0  0  0  0  0  0  0  0  0  0  0  0
   -2.1940    1.8290    2.7560 O   0  0  0  0  0  0  0  0  0  0  0  0
   -1.2190   -0.2280    0.2130 O   0  0  0  0  0  0  0  0  0  0  0  0
  1  2  2  0
  2  3  1  0
  3  4  1  0
  3  6  1  6
  4  5  2  0
  6  7  1  0
  6  8  1  0
  8  9  1  6
  8 12  1  0
  8 20  1  0
  9 10  1  0
 10 11  1  0
 12 13  1  0
 13 14  1  0
 14 15  1  6
 14 17  1  0
 14 20  1  0
 15 16  1  0
 17 18  2  0
 17 19  1  0
M  END
