
     RDKit          3D

 28 30  0  0  0  0  0  0  0  0999 V2000
   -6.0630    0.9930    1.4410 N   0  0  0  0  0  0  0  0  0  0  0  0
   -5.2680    0.8350    0.2650 C   0  0  0  0  0  0  0  0  0  0  0  0
   -4.0850    0.1960    0.3050 N   0  0  0  0  0  0  0  0  0  0  0  0
   -3.3060    0.0230   -0.7680 C   0  0  0  0  0  0  0  0  0  0  0  0
   -3.7770    0.5450   -1.9730 C   0  0  0  0  0  0  0  0  0  0  0  0
   -2.8570    0.2640   -2.9030 N   0  0  0  0  0  0  0  0  0  0  0  0
   -1.8410   -0.4060   -2.3310 C   0  0  0  0  0  0  0  0  0  0  0  0
   -2.1160   -0.5530   -1.0230 N   0  0  0  0  0  0  0  0  0  0  0  0
   -1.2970   -1.2060   -0.0610 C   0  0  2  0  0  0  0  0  0  0  0  0
   -0.4040   -0.3330    0.5590 O   0  0  0  0  0  0  0  0  0  0  0  0
    0.5590   -1.1160    1.1750 C   0  0  2  0  0  0  0  0  0  0  0  0
    1.9030   -0.4730    1.2390 C   0  0  0  0  0  0  0  0  0  0  0  0
    2.4260   -0.1680   -0.0130 O   0  0  0  0  0  0  0  0  0  0  0  0
    3.9290    0.5510    0.0670 P   0  0  2  0  0  0  0  0  0  0  0  0
    4.8070    0.2110   -1.1300 O   0  0  0  0  0  0  0  0  0  0  0  0
    4.7270    0.0840    1.5060 O   0  0  0  0  0  0  0  0  0  0  0  0
    3.8240    2.2510    0.1140 O   0  0  0  0  0  0  0  0  0  0  0  0
    5.3710    2.7990    0.5890 P   0  0  1  0  0  0  0  0  0  0  0  0
    5.4050    4.2810    0.7730 O   0  0  0  0  0  0  0  0  0  0  0  0
    5.8610    1.9910    1.9910 O   0  0  0  0  0  0  0  0  0  0  0  0
    6.4260    2.3740   -0.6820 O   0  0  0  0  0  0  0  0  0  0  0  0
    0.5740   -2.4510    0.4990 C   0  0  1  0  0  0  0  0  0  0  0  0
   -0.0520   -3.4360    1.2730 O   0  0  0  0  0  0  0  0  0  0  0  0
   -0.3120   -2.1910   -0.7030 C   0  0  1  0  0  0  0  0  0  0  0  0
   -0.9620   -3.3450   -1.1170 O   0  0  0  0  0  0  0  0  0  0  0  0
   -4.9810    1.2030   -2.0500 C   0  0  0  0  0  0  0  0  0  0  0  0
   -5.3700    1.6580   -3.1510 O   0  0  0  0  0  0  0  0  0  0  0  0
   -5.6960    1.3300   -0.9230 N   0  0  0  0  0  0  0  0  0  0  0  0
  1  2  1  0
  2  3  2  0
  2 28  1  0
  3  4  1  0
  4  5  2  0
  4  8  1  0
  5  6  1  0
  5 26  1  0
  6  7  2  0
  7  8  1  0
  9  8  1  6
  9 10  1  0
  9 24  1  0
 10 11  1  0
 11 12  1  6
 11 22  1  0
 12 13  1  0
 13 14  1  0
 14 15  2  0
 14 16  1  1
 14 17  1  0
 17 18  1  0
 18 19  2  0
 18 20  1  1
 18 21  1  0
 22 23  1  1
 22 24  1  0
 24 25  1  1
 26 27  2  0
 26 28  1  0
M  END
