
     RDKit          3D

 19 19  0  0  0  0  0  0  0  0999 V2000
   -2.2810    4.2610    1.1880 C   0  0  0  0  0  0  0  0  0  0  0  0
   -1.8710    3.0280    0.9770 C   0  0  0  0  0  0  0  0  0  0  0  0
   -2.6700    1.9090    1.1680 O   0  0  0  0  0  0  0  0  0  0  0  0
   -2.2050    0.6790    1.3840 O   0  0  0  0  0  0  0  0  0  0  0  0
   -1.2740    0.2840    0.4210 C   0  0  2  0  0  0  0  0  0  0  0  0
   -1.8240    0.7880   -0.9230 C   0  0  0  0  0  0  0  0  0  0  0  0
   -1.1400   -1.0520    0.3170 O   0  0  0  0  0  0  0  0  0  0  0  0
   -2.2570   -1.7640   -0.0220 C   0  0  0  0  0  0  0  0  0  0  0  0
   -1.8650   -3.2310   -0.0770 C   0  0  0  0  0  0  0  0  0  0  0  0
    0.0530    0.9230    0.7230 C   0  0  1  0  0  0  0  0  0  0  0  0
    0.1730    0.8510    2.1440 O   0  0  0  0  0  0  0  0  0  0  0  0
    1.3340    1.4100    2.4160 O   0  0  0  0  0  0  0  0  0  0  0  0
    1.1630    0.4450    0.0880 O   0  0  0  0  0  0  0  0  0  0  0  0
    1.7000   -0.8060    0.1950 C   0  0  0  0  0  0  0  0  0  0  0  0
    1.1930   -1.6730    0.9420 O   0  0  0  0  0  0  0  0  0  0  0  0
    2.9180   -1.2430   -0.5590 C   0  0  0  0  0  0  0  0  0  0  0  0
    3.4050   -0.2150   -1.3580 O   0  0  0  0  0  0  0  0  0  0  0  0
    4.5280   -0.6960   -2.0200 C   0  0  0  0  0  0  0  0  0  0  0  0
   -0.2010    2.7220    0.4120 S   0  0  0  0  0  0  0  0  0  0  0  0
  1  2  2  0
  2  3  1  0
  2 19  1  0
  3  4  1  0
  4  5  1  0
  5  6  1  6
  5  7  1  0
  5 10  1  0
  7  8  1  0
  8  9  1  0
 10 11  1  1
 10 13  1  0
 10 19  1  0
 11 12  1  0
 13 14  1  0
 14 15  2  0
 14 16  1  0
 16 17  1  0
 17 18  1  0
M  END
