
     RDKit          3D

 20 20  0  0  0  0  0  0  0  0999 V2000
   -1.7230    1.7460   -0.8290 C   0  0  0  0  0  0  0  0  0  0  0  0
   -2.4990    0.6930   -0.0280 C   0  0  2  0  0  0  0  0  0  0  0  0
   -3.8100    0.7530   -0.4970 O   0  0  0  0  0  0  0  0  0  0  0  0
   -2.5170    0.9900    1.3120 O   0  0  0  0  0  0  0  0  0  0  0  0
   -1.9120   -0.6680   -0.2530 C   0  0  2  0  0  0  0  0  0  0  0  0
   -2.6950   -1.5930    0.4350 O   0  0  0  0  0  0  0  0  0  0  0  0
   -3.3660   -2.7920   -0.5940 P   0  0  0  0  0  0  0  0  0  0  0  0
   -5.1020   -2.6040   -0.5690 O   0  0  0  0  0  0  0  0  0  0  0  0
   -0.5110   -0.8120    0.2170 C   0  0  1  0  0  0  0  0  0  0  0  0
    0.3820    0.0680   -0.3960 O   0  0  0  0  0  0  0  0  0  0  0  0
    1.5020   -0.1250    0.4000 C   0  0  1  0  0  0  0  0  0  0  0  0
    2.6080    0.8480    0.1310 C   0  0  1  0  0  0  0  0  0  0  0  0
    3.0820    0.7550   -1.2930 C   0  0  0  0  0  0  0  0  0  0  0  0
    2.1740    2.5460    0.5410 S   0  0  0  0  0  0  0  0  0  0  0  0
    3.7840    0.4290    1.0120 C   0  0  0  0  0  0  0  0  0  0  0  0
    4.3060   -1.3180    0.5670 P   0  0  0  0  0  0  0  0  0  0  0  0
    5.7340   -1.8100    0.9310 O   0  0  0  0  0  0  0  0  0  0  0  0
    0.9480    0.1410    1.6940 O   0  0  0  0  0  0  0  0  0  0  0  0
   -0.2960   -0.5180    1.6400 C   0  0  0  0  0  0  0  0  0  0  0  0
   -1.0630   -0.8020    2.5730 O   0  0  0  0  0  0  0  0  0  0  0  0
  2  1  1  6
  2  3  1  0
  2  4  1  0
  2  5  1  0
  5  6  1  1
  5  9  1  0
  6  7  1  0
  7  8  1  0
  9 10  1  6
  9 19  1  0
 11 10  1  6
 11 12  1  0
 11 18  1  0
 12 13  1  6
 12 14  1  0
 12 15  1  0
 15 16  1  0
 16 17  2  0
 18 19  1  0
 19 20  2  0
M  END
