
     RDKit          3D

 20 19  0  0  0  0  0  0  0  0999 V2000
   -3.2890    3.3570    2.6630 C   0  0  0  0  0  0  0  0  0  0  0  0
   -3.8530    1.9630    2.3770 C   0  0  0  0  0  0  0  0  0  0  0  0
   -3.3470    1.5050    0.7420 S   0  0  0  0  0  0  0  0  0  0  0  0
   -1.6480    1.2640    0.4160 C   0  0  0  0  0  0  0  0  0  0  0  0
   -0.9710   -0.0030    0.9130 C   0  0  2  0  0  0  0  0  0  0  0  0
   -1.1050   -0.0590    2.4130 C   0  0  0  0  0  0  0  0  0  0  0  0
   -0.2010   -1.6220    2.9550 P   0  0  0  0  0  0  0  0  0  0  0  0
    0.1490   -0.1500    0.3610 O   0  0  0  0  0  0  0  0  0  0  0  0
    1.0380   -0.6500   -0.3710 C   0  0  2  0  0  0  0  0  0  0  0  0
    1.4250   -1.9990   -0.1190 O   0  0  0  0  0  0  0  0  0  0  0  0
    2.2560    0.0500   -0.2120 O   0  0  0  0  0  0  0  0  0  0  0  0
    3.3130   -0.3590   -0.9260 C   0  0  0  0  0  0  0  0  0  0  0  0
    3.3200   -0.2050   -2.3890 C   0  0  0  0  0  0  0  0  0  0  0  0
    2.4980    0.3620   -3.0640 O   0  0  0  0  0  0  0  0  0  0  0  0
    4.7750   -0.9840   -3.2650 P   0  0  0  0  0  0  0  0  0  0  0  0
    6.0340    0.2110   -3.2730 O   0  0  0  0  0  0  0  0  0  0  0  0
    0.7310   -0.6520   -1.7130 O   0  0  0  0  0  0  0  0  0  0  0  0
   -0.3590   -1.3510   -2.1020 C   0  0  2  0  0  0  0  0  0  0  0  0
   -0.0380   -2.2950   -3.1000 O   0  0  0  0  0  0  0  0  0  0  0  0
   -1.3470   -0.5420   -2.6690 O   0  0  0  0  0  0  0  0  0  0  0  0
  1  2  1  0
  2  3  1  0
  3  4  1  0
  5  4  1  1
  5  6  1  0
  5  8  1  0
  6  7  1  0
  8  9  1  0
  9 10  1  1
  9 11  1  0
  9 17  1  0
 11 12  1  0
 12 13  1  0
 13 14  2  0
 13 15  1  0
 15 16  1  0
 17 18  1  0
 18 19  1  6
 18 20  1  0
M  END
