
     RDKit          3D

 19 19  0  0  0  0  0  0  0  0999 V2000
    0.9900    1.3450   -0.5380 O   0  0  0  0  0  0  0  0  0  0  0  0
    0.0670    1.0170    0.2520 C   0  0  0  0  0  0  0  0  0  0  0  0
    0.4150    0.4190    1.4400 O   0  0  0  0  0  0  0  0  0  0  0  0
    1.7730    0.1810    1.7620 C   0  0  0  0  0  0  0  0  0  0  0  0
    2.3620   -0.6510    0.8130 O   0  0  0  0  0  0  0  0  0  0  0  0
    3.6860   -0.8770    1.1370 C   0  0  0  0  0  0  0  0  0  0  0  0
    4.3390   -1.7770    0.1160 C   0  0  2  0  0  0  0  0  0  0  0  0
    5.6710   -1.9700    0.4930 O   0  0  0  0  0  0  0  0  0  0  0  0
    4.2620   -1.1870   -1.2760 C   0  0  0  0  0  0  0  0  0  0  0  0
    4.9190    0.0320   -1.2900 O   0  0  0  0  0  0  0  0  0  0  0  0
   -1.3190    1.3070   -0.1740 C   0  0  2  0  0  0  0  0  0  0  0  0
   -2.2540    0.8980    0.7830 O   0  0  0  0  0  0  0  0  0  0  0  0
   -3.4310    0.9510    0.0390 C   0  0  2  0  0  0  0  0  0  0  0  0
   -4.5990    0.3390    0.7670 C   0  0  0  0  0  0  0  0  0  0  0  0
   -5.8090    0.4640   -0.1510 C   0  0  0  0  0  0  0  0  0  0  0  0
   -6.9270   -0.0970    0.4900 O   0  0  0  0  0  0  0  0  0  0  0  0
   -3.0750    0.2040   -1.1140 O   0  0  0  0  0  0  0  0  0  0  0  0
   -1.7350    0.5040   -1.3460 C   0  0  0  0  0  0  0  0  0  0  0  0
   -1.0750    0.1430   -2.3530 O   0  0  0  0  0  0  0  0  0  0  0  0
  1  2  2  0
  2  3  1  0
 11  2  1  1
  3  4  1  0
  4  5  1  0
  5  6  1  0
  6  7  1  0
  7  8  1  1
  7  9  1  0
  9 10  1  0
 11 12  1  0
 11 18  1  0
 12 13  1  0
 13 14  1  1
 13 17  1  0
 14 15  1  0
 15 16  1  0
 17 18  1  0
 18 19  2  0
M  END
