
     RDKit          3D

 40 42  0  0  0  0  0  0  0  0999 V2000
   -6.9780    3.0520    0.3290 C   0  0  0  0  0  0  0  0  0  0  0  0
   -6.5660    2.0760   -0.7420 C   0  0  0  0  0  0  0  0  0  0  0  0
   -5.9790    0.8090   -0.1990 C   0  0  0  0  0  0  0  0  0  0  0  0
   -6.8780    0.0250    0.6810 C   0  0  1  0  0  0  0  0  0  0  0  0
   -8.1490   -0.4470    0.0770 C   0  0  0  0  0  0  0  0  0  0  0  0
   -8.1130   -1.7910   -0.5580 C   0  0  0  0  0  0  0  0  0  0  0  0
   -7.6470   -2.9140    0.3060 C   0  0  0  0  0  0  0  0  0  0  0  0
   -7.0330   -2.3130    1.5570 C   0  0  0  0  0  0  0  0  0  0  0  0
   -6.1070   -1.1700    1.2110 C   0  0  1  0  0  0  0  0  0  0  0  0
   -5.1930   -1.6480    0.2430 O   0  0  0  0  0  0  0  0  0  0  0  0
   -3.8400   -1.7090    0.4020 C   0  0  0  0  0  0  0  0  0  0  0  0
   -3.3740   -1.2940    1.5090 O   0  0  0  0  0  0  0  0  0  0  0  0
   -2.9490   -2.2230   -0.6440 C   0  0  0  0  0  0  0  0  0  0  0  0
   -2.6030   -1.2010   -1.6760 C   0  0  0  0  0  0  0  0  0  0  0  0
   -1.9480   -0.0140   -1.1310 C   0  0  0  0  0  0  0  0  0  0  0  0
   -2.5770    0.9980   -0.6940 O   0  0  0  0  0  0  0  0  0  0  0  0
   -0.5600    0.0790   -1.0580 O   0  0  0  0  0  0  0  0  0  0  0  0
    0.0810    1.2150   -0.5430 C   0  0  1  0  0  0  0  0  0  0  0  0
    0.8750    0.8270    0.6280 C   0  0  0  0  0  0  0  0  0  0  0  0
    2.1890    0.7180    0.7300 C   0  0  0  0  0  0  0  0  0  0  0  0
    2.7690    0.3050    2.0460 C   0  0  0  0  0  0  0  0  0  0  0  0
    3.0170    0.9060   -0.4450 C   0  0  0  0  0  0  0  0  0  0  0  0
    4.3280    0.9000   -0.4750 C   0  0  0  0  0  0  0  0  0  0  0  0
    4.9700    1.1090   -1.8310 C   0  0  0  0  0  0  0  0  0  0  0  0
    5.2830    0.8400    0.6070 C   0  0  0  0  0  0  0  0  0  0  0  0
    6.1610   -0.2160    0.7330 C   0  0  0  0  0  0  0  0  0  0  0  0
    6.1540   -1.6370   -0.3250 S   0  0  0  0  0  0  0  0  0  0  0  0
    7.2850   -1.5050   -1.7190 C   0  0  0  0  0  0  0  0  0  0  0  0
    8.7330   -1.4520   -1.2690 C   0  0  0  0  0  0  0  0  0  0  0  0
    8.9300   -0.3480   -0.4730 O   0  0  0  0  0  0  0  0  0  0  0  0
   10.2740   -0.3400   -0.0760 C   0  0  0  0  0  0  0  0  0  0  0  0
    7.0700   -0.1680    1.7460 N   0  0  0  0  0  0  0  0  0  0  0  0
    7.1410    0.8520    2.6080 C   0  0  0  0  0  0  0  0  0  0  0  0
    7.9870    0.8870    3.5430 O   0  0  0  0  0  0  0  0  0  0  0  0
    6.2720    1.8820    2.4700 N   0  0  0  0  0  0  0  0  0  0  0  0
    5.3490    1.9100    1.5030 C   0  0  0  0  0  0  0  0  0  0  0  0
    4.5760    2.9080    1.4380 O   0  0  0  0  0  0  0  0  0  0  0  0
    2.2550    1.2020   -1.6890 C   0  0  0  0  0  0  0  0  0  0  0  0
    2.6690    0.8720   -2.7970 O   0  0  0  0  0  0  0  0  0  0  0  0
    0.9670    1.9130   -1.5610 C   0  0  0  0  0  0  0  0  0  0  0  0
  1  2  1  0
  2  3  1  0
  4  3  1  6
  4  5  1  0
  4  9  1  0
  5  6  1  0
  6  7  1  0
  7  8  1  0
  8  9  1  0
  9 10  1  6
 10 11  1  0
 11 12  2  0
 11 13  1  0
 13 14  1  0
 14 15  1  0
 15 16  2  0
 15 17  1  0
 18 17  1  6
 18 19  1  0
 18 40  1  0
 19 20  2  0
 20 21  1  0
 20 22  1  0
 22 23  2  3
 22 38  1  0
 23 24  1  0
 23 25  1  0
 25 26  2  0
 25 36  1  0
 26 27  1  0
 26 32  1  0
 27 28  1  0
 28 29  1  0
 29 30  1  0
 30 31  1  0
 32 33  1  0
 33 34  2  0
 33 35  1  0
 35 36  1  0
 36 37  2  0
 38 39  2  0
 38 40  1  0
M  END
