
     RDKit          3D

 40 41  0  0  0  0  0  0  0  0999 V2000
   -1.3060    3.5590   -0.0370 C   0  0  0  0  0  0  0  0  0  0  0  0
   -1.7500    2.1180   -0.3730 C   0  0  0  0  0  0  0  0  0  0  0  0
   -0.6390    1.4760   -1.1220 C   0  0  2  0  0  0  0  0  0  0  0  0
   -0.4260    2.3400   -2.3800 C   0  0  0  0  0  0  0  0  0  0  0  0
   -0.8190    0.0440   -1.5010 C   0  0  0  0  0  0  0  0  0  0  0  0
   -1.0240   -0.8660   -0.4570 N   0  0  0  0  0  0  0  0  0  0  0  0
   -0.1490   -0.8730    0.6370 C   0  0  0  0  0  0  0  0  0  0  0  0
    0.7650   -2.0700    0.7760 C   0  0  1  0  0  0  0  0  0  0  0  0
    0.0780   -3.2500    0.8870 O   0  0  0  0  0  0  0  0  0  0  0  0
    1.8650   -2.0080   -0.1980 C   0  0  2  0  0  0  0  0  0  0  0  0
    2.8710   -3.1360   -0.1480 C   0  0  0  0  0  0  0  0  0  0  0  0
    2.3020   -4.4720   -0.3910 C   0  0  0  0  0  0  0  0  0  0  0  0
    1.9130   -5.2740    0.6520 C   0  0  0  0  0  0  0  0  0  0  0  0
    1.3670   -6.5270    0.4740 C   0  0  0  0  0  0  0  0  0  0  0  0
    1.1940   -7.0200   -0.8070 C   0  0  0  0  0  0  0  0  0  0  0  0
    1.5750   -6.2390   -1.8740 C   0  0  0  0  0  0  0  0  0  0  0  0
    2.1200   -4.9860   -1.6690 C   0  0  0  0  0  0  0  0  0  0  0  0
    2.4980   -0.7100   -0.2210 N   0  0  0  0  0  0  0  0  0  0  0  0
    3.5370   -0.3170    0.6340 C   0  0  0  0  0  0  0  0  0  0  0  0
    3.9700   -1.0950    1.5010 O   0  0  0  0  0  0  0  0  0  0  0  0
    4.1430    0.9400    0.5770 O   0  0  0  0  0  0  0  0  0  0  0  0
    5.1610    1.2350    1.4890 C   0  0  0  0  0  0  0  0  0  0  0  0
    5.7900    2.5800    1.3150 C   0  0  0  0  0  0  0  0  0  0  0  0
    4.8690    3.6710    1.4440 N   0  0  0  0  0  0  0  0  0  0  0  0
    3.7760    3.9310    0.5870 C   0  0  0  0  0  0  0  0  0  0  0  0
    3.5660    3.1700   -0.3840 O   0  0  0  0  0  0  0  0  0  0  0  0
    2.8640    5.1140    0.8290 C   0  0  2  0  0  0  0  0  0  0  0  0
    1.7060    5.2820   -0.5000 Cl  0  0  0  0  0  0  0  0  0  0  0  0
    3.8750    6.5500    1.0000 Cl  0  0  0  0  0  0  0  0  0  0  0  0
   -2.5180   -1.5950   -0.2670 S   0  0  1  0  0  0  0  0  0  0  0  0
   -2.9410   -2.4150   -1.4740 O   0  0  0  0  0  0  0  0  0  0  0  0
   -2.4410   -2.5100    0.9540 O   0  0  0  0  0  0  0  0  0  0  0  0
   -3.8100   -0.4820    0.0400 C   0  0  0  0  0  0  0  0  0  0  0  0
   -4.1130   -0.1440    1.3420 C   0  0  0  0  0  0  0  0  0  0  0  0
   -5.1400    0.7320    1.6360 C   0  0  0  0  0  0  0  0  0  0  0  0
   -5.9030    1.3040    0.6380 C   0  0  0  0  0  0  0  0  0  0  0  0
   -6.9120    2.1710    1.0230 O   0  0  0  0  0  0  0  0  0  0  0  0
   -7.7650    2.8240    0.1040 C   0  0  0  0  0  0  0  0  0  0  0  0
   -5.6120    0.9770   -0.6480 C   0  0  0  0  0  0  0  0  0  0  0  0
   -4.5850    0.1000   -0.9420 C   0  0  0  0  0  0  0  0  0  0  0  0
  1  2  1  0
  2  3  1  0
  3  4  1  6
  3  5  1  0
  5  6  1  0
  6  7  1  0
 30  6  1  6
  7  8  1  0
  8  9  1  6
  8 10  1  0
 10 11  1  1
 10 18  1  0
 11 12  1  0
 12 13  2  0
 12 17  1  0
 13 14  1  0
 14 15  2  0
 15 16  1  0
 16 17  2  0
 18 19  1  0
 19 20  2  0
 19 21  1  0
 21 22  1  0
 22 23  1  0
 23 24  1  0
 24 25  1  0
 25 26  2  0
 25 27  1  0
 27 28  1  6
 27 29  1  0
 30 31  2  0
 30 32  2  0
 30 33  1  0
 33 34  2  0
 33 40  1  0
 34 35  1  0
 35 36  2  0
 36 37  1  0
 36 39  1  0
 37 38  1  0
 39 40  2  0
M  END
