
     RDKit          3D

 40 42  0  0  0  0  0  0  0  0999 V2000
   10.2610    0.7490   -0.4270 C   0  0  0  0  0  0  0  0  0  0  0  0
    9.0800    0.1280   -0.8900 O   0  0  0  0  0  0  0  0  0  0  0  0
    8.4320   -0.8540   -0.1400 C   0  0  0  0  0  0  0  0  0  0  0  0
    8.9420   -1.1640    0.9610 O   0  0  0  0  0  0  0  0  0  0  0  0
    7.2050   -1.4640   -0.6750 C   0  0  0  0  0  0  0  0  0  0  0  0
    6.5960   -2.4690    0.2530 C   0  0  1  0  0  0  0  0  0  0  0  0
    7.6370   -3.5660    0.4930 C   0  0  0  0  0  0  0  0  0  0  0  0
    6.1620   -1.9080    1.5640 C   0  0  0  0  0  0  0  0  0  0  0  0
    5.2250   -0.9120    1.5220 O   0  0  0  0  0  0  0  0  0  0  0  0
    4.0220   -1.2420    0.9180 C   0  0  0  0  0  0  0  0  0  0  0  0
    3.1430   -0.0270    1.0310 C   0  0  2  0  0  0  0  0  0  0  0  0
    1.6960   -0.3000    0.5820 C   0  0  0  0  0  0  0  0  0  0  0  0
    1.4830    0.3540   -0.6870 N   0  0  0  0  0  0  0  0  0  0  0  0
    0.2810    0.8580   -1.1200 C   0  0  0  0  0  0  0  0  0  0  0  0
    0.3230    1.5100   -2.2690 O   0  0  0  0  0  0  0  0  0  0  0  0
   -1.0170    0.7780   -0.4920 C   0  0  0  0  0  0  0  0  0  0  0  0
   -1.3490   -0.1190    0.4690 C   0  0  0  0  0  0  0  0  0  0  0  0
   -2.5870   -0.0930    1.0830 C   0  0  0  0  0  0  0  0  0  0  0  0
   -3.5240    0.8890    0.6990 C   0  0  0  0  0  0  0  0  0  0  0  0
   -4.8400    0.7430    1.2910 C   0  0  0  0  0  0  0  0  0  0  0  0
   -4.8830    0.5890    2.5630 O   0  0  0  0  0  0  0  0  0  0  0  0
   -6.0390    0.7520    0.5620 N   0  0  0  0  0  0  0  0  0  0  0  0
   -7.3370    0.6130    1.2020 C   0  0  1  0  0  0  0  0  0  0  0  0
   -8.1530    1.8960    0.9600 C   0  0  0  0  0  0  0  0  0  0  0  0
   -8.3110    2.0750   -0.3920 O   0  0  0  0  0  0  0  0  0  0  0  0
   -8.0970   -0.5570    0.6210 C   0  0  0  0  0  0  0  0  0  0  0  0
   -7.5310   -1.3160   -0.2670 C   0  0  0  0  0  0  0  0  0  0  0  0
   -8.0540   -2.4920   -0.9700 C   0  0  0  0  0  0  0  0  0  0  0  0
   -9.7120   -2.8950   -0.4260 S   0  0  0  0  0  0  0  0  0  0  0  0
  -10.2430   -1.7180    0.7750 C   0  0  0  0  0  0  0  0  0  0  0  0
   -9.4590   -0.7440    1.1560 C   0  0  0  0  0  0  0  0  0  0  0  0
   -3.2270    1.8020   -0.2510 C   0  0  0  0  0  0  0  0  0  0  0  0
   -4.1090    2.9230   -0.5590 C   0  0  0  0  0  0  0  0  0  0  0  0
   -3.7750    3.8470   -1.6870 C   0  0  0  0  0  0  0  0  0  0  0  0
   -5.1360    3.1300    0.0940 O   0  0  0  0  0  0  0  0  0  0  0  0
   -1.9710    1.7430   -0.8490 C   0  0  0  0  0  0  0  0  0  0  0  0
    2.6410    0.4620   -1.6050 C   0  0  0  0  0  0  0  0  0  0  0  0
    3.7220    1.2070   -0.8910 C   0  0  1  0  0  0  0  0  0  0  0  0
    3.6790    2.6920   -1.2600 C   0  0  0  0  0  0  0  0  0  0  0  0
    3.6730    1.0590    0.4430 O   0  0  0  0  0  0  0  0  0  0  0  0
  1  2  1  0
  2  3  1  0
  3  4  2  0
  3  5  1  0
  5  6  1  0
  6  7  1  1
  6  8  1  0
  8  9  1  0
  9 10  1  0
 11 10  1  6
 11 12  1  0
 11 40  1  0
 12 13  1  0
 13 14  1  0
 13 37  1  0
 14 15  2  0
 14 16  1  0
 16 17  2  0
 16 36  1  0
 17 18  1  0
 18 19  2  0
 19 20  1  0
 19 32  1  0
 20 21  2  0
 20 22  1  0
 22 23  1  0
 23 24  1  6
 23 26  1  0
 24 25  1  0
 26 27  2  0
 26 31  1  0
 27 28  1  0
 28 29  1  0
 29 30  1  0
 30 31  2  0
 32 33  1  0
 32 36  2  0
 33 34  1  0
 33 35  2  0
 37 38  1  0
 38 39  1  1
 38 40  1  0
M  END
