
     RDKit          3D

 40 43  0  0  0  0  0  0  0  0999 V2000
    6.7420    1.3830    3.4150 C   0  0  0  0  0  0  0  0  0  0  0  0
    7.8340    1.5040    2.6600 C   0  0  0  0  0  0  0  0  0  0  0  0
    8.7410    0.3680    2.4260 C   0  0  0  0  0  0  0  0  0  0  0  0
    8.1260   -1.1020    3.2780 S   0  0  0  0  0  0  0  0  0  0  0  0
    6.5980   -1.6250    2.4930 C   0  0  0  0  0  0  0  0  0  0  0  0
    5.9490   -2.7200    3.0370 C   0  0  0  0  0  0  0  0  0  0  0  0
    4.7790   -3.1560    2.4610 C   0  0  0  0  0  0  0  0  0  0  0  0
    4.2840   -2.4810    1.3470 C   0  0  0  0  0  0  0  0  0  0  0  0
    4.9110   -1.3940    0.7930 C   0  0  0  0  0  0  0  0  0  0  0  0
    4.4350   -0.7210   -0.3020 O   0  0  0  0  0  0  0  0  0  0  0  0
    3.2890   -0.9720   -1.0390 C   0  0  2  0  0  0  0  0  0  0  0  0
    3.7310   -1.1250   -2.5020 C   0  0  0  0  0  0  0  0  0  0  0  0
    2.3860    0.2360   -1.0520 C   0  0  0  0  0  0  0  0  0  0  0  0
    2.7130    1.2890   -0.4530 O   0  0  0  0  0  0  0  0  0  0  0  0
    1.1450    0.2160   -1.7390 N   0  0  0  0  0  0  0  0  0  0  0  0
    0.2460    1.3890   -1.7630 C   0  0  2  0  0  0  0  0  0  0  0  0
   -1.0290    0.9360   -1.1670 C   0  0  0  0  0  0  0  0  0  0  0  0
   -1.1280   -0.2890   -0.8870 O   0  0  0  0  0  0  0  0  0  0  0  0
   -2.1480    1.7370   -0.8770 N   0  0  0  0  0  0  0  0  0  0  0  0
   -3.3800    1.3520   -0.3150 C   0  0  0  0  0  0  0  0  0  0  0  0
   -4.3820    2.3230   -0.2220 C   0  0  0  0  0  0  0  0  0  0  0  0
   -5.6230    2.1010    0.3040 C   0  0  0  0  0  0  0  0  0  0  0  0
   -5.8930    0.8360    0.7680 C   0  0  0  0  0  0  0  0  0  0  0  0
   -4.9650   -0.1700    0.7120 C   0  0  0  0  0  0  0  0  0  0  0  0
   -3.7200    0.1230    0.1650 C   0  0  0  0  0  0  0  0  0  0  0  0
   -5.5570   -1.3000    1.2580 O   0  0  0  0  0  0  0  0  0  0  0  0
   -6.7200   -0.8750    1.9450 C   0  0  1  0  0  0  0  0  0  0  0  0
   -7.8840   -1.7950    1.7940 C   0  0  0  0  0  0  0  0  0  0  0  0
   -8.5200   -1.8710    3.1770 C   0  0  0  0  0  0  0  0  0  0  0  0
   -7.4250   -1.4930    4.1360 C   0  0  0  0  0  0  0  0  0  0  0  0
   -6.4980   -0.6130    3.3730 C   0  0  0  0  0  0  0  0  0  0  0  0
   -5.7260    0.1580    3.9090 O   0  0  0  0  0  0  0  0  0  0  0  0
   -7.0760    0.3660    1.3430 O   0  0  0  0  0  0  0  0  0  0  0  0
    0.2050    1.8730   -3.1580 C   0  0  2  0  0  0  0  0  0  0  0  0
   -0.6740    3.1220   -3.2890 C   0  0  0  0  0  0  0  0  0  0  0  0
   -0.2230    0.8910   -4.1790 C   0  0  0  0  0  0  0  0  0  0  0  0
   -0.6220   -0.2330   -3.8990 O   0  0  0  0  0  0  0  0  0  0  0  0
   -0.1590    1.2930   -5.5030 O   0  0  0  0  0  0  0  0  0  0  0  0
   -0.5280    0.4830   -6.5850 C   0  0  0  0  0  0  0  0  0  0  0  0
    6.0870   -0.9780    1.3940 C   0  0  0  0  0  0  0  0  0  0  0  0
  1  2  2  0
  2  3  1  0
  3  4  1  0
  4  5  1  0
  5  6  2  0
  5 40  1  0
  6  7  1  0
  7  8  2  0
  8  9  1  0
  9 10  1  0
  9 40  2  0
 10 11  1  0
 11 12  1  6
 11 13  1  0
 13 14  2  0
 13 15  1  0
 16 15  1  6
 16 17  1  0
 16 34  1  0
 17 18  2  0
 17 19  1  0
 19 20  1  0
 20 21  2  0
 20 25  1  0
 21 22  1  0
 22 23  2  0
 23 24  1  0
 23 33  1  0
 24 25  2  0
 24 26  1  0
 26 27  1  0
 27 28  1  1
 27 31  1  0
 27 33  1  0
 28 29  1  0
 29 30  1  0
 30 31  1  0
 31 32  2  0
 34 35  1  1
 34 36  1  0
 36 37  2  0
 36 38  1  0
 38 39  1  0
M  END
