
     RDKit          3D

 40 42  0  0  0  0  0  0  0  0999 V2000
   -5.2560   -3.4530    0.1250 C   0  0  0  0  0  0  0  0  0  0  0  0
   -4.1920   -3.2350    0.8350 C   0  0  0  0  0  0  0  0  0  0  0  0
   -3.8330   -1.9740    1.4430 C   0  0  0  0  0  0  0  0  0  0  0  0
   -2.7030   -1.9800    2.1660 C   0  0  0  0  0  0  0  0  0  0  0  0
   -1.8470   -3.1580    2.3610 C   0  0  0  0  0  0  0  0  0  0  0  0
   -4.6440   -0.7410    1.3330 C   0  0  0  0  0  0  0  0  0  0  0  0
   -4.7260   -0.1670   -0.0140 C   0  0  2  0  0  0  0  0  0  0  0  0
   -3.5210    0.2180   -0.6110 O   0  0  0  0  0  0  0  0  0  0  0  0
   -3.0260   -0.1450   -1.8240 C   0  0  0  0  0  0  0  0  0  0  0  0
   -3.7310   -0.9100   -2.4800 O   0  0  0  0  0  0  0  0  0  0  0  0
   -1.6980    0.3530   -2.3430 C   0  0  0  0  0  0  0  0  0  0  0  0
   -1.2720   -0.0650   -3.5690 C   0  0  0  0  0  0  0  0  0  0  0  0
    0.3420    0.7970   -3.7290 S   0  0  0  0  0  0  0  0  0  0  0  0
    0.2560    1.5890   -2.1840 C   0  0  0  0  0  0  0  0  0  0  0  0
    1.3080    2.5080   -1.6370 C   0  0  0  0  0  0  0  0  0  0  0  0
    2.2080    1.8170   -0.7730 N   0  0  0  0  0  0  0  0  0  0  0  0
    2.9930    0.7350   -1.2630 C   0  0  0  0  0  0  0  0  0  0  0  0
    2.9280    0.3510   -2.4530 O   0  0  0  0  0  0  0  0  0  0  0  0
    3.9350    0.0140   -0.3540 C   0  0  2  0  0  0  0  0  0  0  0  0
    4.9120    0.9920    0.2200 C   0  0  0  0  0  0  0  0  0  0  0  0
    4.7570    2.2480    0.1150 O   0  0  0  0  0  0  0  0  0  0  0  0
    6.0530    0.4960    0.9050 N   0  0  0  0  0  0  0  0  0  0  0  0
    6.6620   -0.7350    0.4530 C   0  0  1  0  0  0  0  0  0  0  0  0
    6.8080   -1.6290    1.6720 C   0  0  1  0  0  0  0  0  0  0  0  0
    7.5250   -2.9250    1.3100 C   0  0  0  0  0  0  0  0  0  0  0  0
    7.6140   -0.9570    2.5730 O   0  0  0  0  0  0  0  0  0  0  0  0
    6.9480   -0.9050    3.7820 C   0  0  0  0  0  0  0  0  0  0  0  0
    5.5140   -1.2920    3.4820 C   0  0  0  0  0  0  0  0  0  0  0  0
    5.6090   -1.9130    2.2610 O   0  0  0  0  0  0  0  0  0  0  0  0
    5.8880   -1.3850   -0.6240 C   0  0  0  0  0  0  0  0  0  0  0  0
    4.6620   -1.0820   -1.0210 C   0  0  0  0  0  0  0  0  0  0  0  0
    4.0240   -1.8740   -2.1470 C   0  0  0  0  0  0  0  0  0  0  0  0
   -0.9070    1.1910   -1.6590 C   0  0  0  0  0  0  0  0  0  0  0  0
   -5.5840    1.0780    0.0130 C   0  0  0  0  0  0  0  0  0  0  0  0
   -6.7550    1.0560    0.5040 O   0  0  0  0  0  0  0  0  0  0  0  0
   -5.1330    2.2780   -0.4900 O   0  0  0  0  0  0  0  0  0  0  0  0
   -5.8750    3.4740   -0.4970 C   0  0  1  0  0  0  0  0  0  0  0  0
   -5.2380    4.5360    0.3960 C   0  0  0  0  0  0  0  0  0  0  0  0
   -6.1260    4.0200   -1.8720 C   0  0  0  0  0  0  0  0  0  0  0  0
   -6.8980    3.0290   -2.7080 C   0  0  0  0  0  0  0  0  0  0  0  0
  1  2  2  0
  2  3  1  0
  3  4  2  3
  3  6  1  0
  4  5  1  0
  7  6  1  1
  7  8  1  0
  7 34  1  0
  8  9  1  0
  9 10  2  0
  9 11  1  0
 11 12  2  0
 11 33  1  0
 12 13  1  0
 13 14  1  0
 14 15  1  0
 14 33  2  0
 15 16  1  0
 16 17  1  0
 17 18  2  0
 19 17  1  6
 19 20  1  0
 19 31  1  0
 20 21  2  0
 20 22  1  0
 23 22  1  1
 23 24  1  0
 23 30  1  0
 24 25  1  6
 24 26  1  0
 24 29  1  0
 26 27  1  0
 27 28  1  0
 28 29  1  0
 30 31  2  0
 31 32  1  0
 34 35  2  0
 34 36  1  0
 36 37  1  0
 37 38  1  1
 37 39  1  0
 39 40  1  0
M  END
