
     RDKit          3D

 40 42  0  0  0  0  0  0  0  0999 V2000
   -8.7470    2.0970    0.1900 C   0  0  0  0  0  0  0  0  0  0  0  0
   -8.8980    1.3440   -1.1220 C   0  0  0  0  0  0  0  0  0  0  0  0
   -7.8740    0.2360   -1.1370 C   0  0  1  0  0  0  0  0  0  0  0  0
   -8.0080   -0.5180   -2.4270 C   0  0  0  0  0  0  0  0  0  0  0  0
   -6.5840    0.6900   -0.8430 O   0  0  0  0  0  0  0  0  0  0  0  0
   -5.9030    0.2570    0.3180 C   0  0  0  0  0  0  0  0  0  0  0  0
   -6.5430   -0.5380    1.0240 O   0  0  0  0  0  0  0  0  0  0  0  0
   -4.5560    0.7090    0.6530 C   0  0  0  0  0  0  0  0  0  0  0  0
   -3.9420   -0.0600    1.7580 C   0  0  1  0  0  0  0  0  0  0  0  0
   -4.9440    0.1210    2.9500 C   0  0  0  0  0  0  0  0  0  0  0  0
   -3.9270   -1.5180    1.4660 C   0  0  0  0  0  0  0  0  0  0  0  0
   -3.2060   -1.9080    0.1990 C   0  0  0  0  0  0  0  0  0  0  0  0
   -2.6770    0.5160    2.3060 C   0  0  0  0  0  0  0  0  0  0  0  0
   -1.5480    0.6810    1.4480 N   0  0  0  0  0  0  0  0  0  0  0  0
   -0.6250   -0.4190    1.4100 C   0  0  0  0  0  0  0  0  0  0  0  0
   -0.7410   -1.4280    2.1360 O   0  0  0  0  0  0  0  0  0  0  0  0
    0.5510   -0.3980    0.4700 C   0  0  2  0  0  0  0  0  0  0  0  0
    1.6210   -1.2570    1.0850 C   0  0  1  0  0  0  0  0  0  0  0  0
    1.2050   -2.7170    1.1800 C   0  0  0  0  0  0  0  0  0  0  0  0
    2.8760   -1.1530    0.3310 N   0  0  0  0  0  0  0  0  0  0  0  0
    4.0580   -0.8970    1.0220 C   0  0  0  0  0  0  0  0  0  0  0  0
    3.9410   -0.7850    2.2880 O   0  0  0  0  0  0  0  0  0  0  0  0
    5.3760   -0.7530    0.4380 C   0  0  0  0  0  0  0  0  0  0  0  0
    6.7680   -0.4900    1.5240 S   0  0  0  0  0  0  0  0  0  0  0  0
    8.0280   -0.3980    0.2560 C   0  0  0  0  0  0  0  0  0  0  0  0
    9.4450   -0.1880    0.5130 C   0  0  0  0  0  0  0  0  0  0  0  0
    9.8730   -0.0580    1.6960 O   0  0  0  0  0  0  0  0  0  0  0  0
   10.3410   -0.1270   -0.5130 O   0  0  0  0  0  0  0  0  0  0  0  0
   11.7340    0.0780   -0.2460 C   0  0  0  0  0  0  0  0  0  0  0  0
    7.2950   -0.5730   -0.8610 C   0  0  0  0  0  0  0  0  0  0  0  0
    5.9550   -0.7500   -0.7590 C   0  0  0  0  0  0  0  0  0  0  0  0
    5.2840   -0.8940   -2.1240 C   0  0  0  0  0  0  0  0  0  0  0  0
    5.6670    0.3220   -3.0010 C   0  0  0  0  0  0  0  0  0  0  0  0
    7.1500    0.5000   -3.0280 C   0  0  0  0  0  0  0  0  0  0  0  0
    7.8590   -0.6100   -2.2770 C   0  0  0  0  0  0  0  0  0  0  0  0
    1.0480    0.9400    0.4500 O   0  0  0  0  0  0  0  0  0  0  0  0
    0.1220    1.9200    0.2060 C   0  0  0  0  0  0  0  0  0  0  0  0
    0.4950    2.9710   -0.4610 O   0  0  0  0  0  0  0  0  0  0  0  0
   -1.2560    1.8140    0.6690 C   0  0  2  0  0  0  0  0  0  0  0  0
   -1.6200    3.1320    1.3160 C   0  0  0  0  0  0  0  0  0  0  0  0
  1  2  1  0
  2  3  1  0
  3  4  1  6
  3  5  1  0
  5  6  1  0
  6  7  2  0
  6  8  1  0
  8  9  1  0
  9 10  1  1
  9 11  1  0
  9 13  1  0
 11 12  1  0
 13 14  1  0
 14 15  1  0
 14 39  1  0
 15 16  2  0
 15 17  1  0
 17 18  1  0
 17 36  1  1
 18 19  1  6
 18 20  1  0
 20 21  1  0
 21 22  2  0
 21 23  1  0
 23 24  1  0
 23 31  2  0
 24 25  1  0
 25 26  1  0
 25 30  2  0
 26 27  2  0
 26 28  1  0
 28 29  1  0
 30 31  1  0
 30 35  1  0
 31 32  1  0
 32 33  1  0
 33 34  1  0
 34 35  1  0
 36 37  1  0
 37 38  2  0
 37 39  1  0
 39 40  1  1
M  END
