
     RDKit          3D

 38 40  0  0  0  0  0  0  0  0999 V2000
   -3.9870   -0.2560    3.5660 C   0  0  0  0  0  0  0  0  0  0  0  0
   -4.1520   -0.7350    2.2430 O   0  0  0  0  0  0  0  0  0  0  0  0
   -3.0540   -1.1450    1.4740 C   0  0  0  0  0  0  0  0  0  0  0  0
   -1.9480   -1.0610    2.0190 O   0  0  0  0  0  0  0  0  0  0  0  0
   -3.2410   -1.6320    0.1260 C   0  0  1  0  0  0  0  0  0  0  0  0
   -3.8770   -0.4200   -0.6360 C   0  0  0  0  0  0  0  0  0  0  0  0
   -2.7630    0.4730   -1.0720 C   0  0  0  0  0  0  0  0  0  0  0  0
   -2.9690    1.9390   -0.8740 C   0  0  1  0  0  0  0  0  0  0  0  0
   -4.4140    2.3250   -0.9040 C   0  0  0  0  0  0  0  0  0  0  0  0
   -5.3940    1.7210   -1.3840 O   0  0  0  0  0  0  0  0  0  0  0  0
   -4.4540    3.5910   -0.2390 N   0  0  0  0  0  0  0  0  0  0  0  0
   -3.1460    3.8680    0.3770 C   0  0  0  0  0  0  0  0  0  0  0  0
   -2.5730    2.4390    0.4680 C   0  0  2  0  0  0  0  0  0  0  0  0
   -1.1280    2.5250    0.7430 C   0  0  0  0  0  0  0  0  0  0  0  0
   -0.8660    3.4340    1.6280 O   0  0  0  0  0  0  0  0  0  0  0  0
   -0.0630    1.7950    0.2050 N   0  0  0  0  0  0  0  0  0  0  0  0
    0.4500    1.7570   -1.1370 C   0  0  0  0  0  0  0  0  0  0  0  0
    0.8240    0.3850   -1.6370 C   0  0  1  0  0  0  0  0  0  0  0  0
    1.6510    0.5440   -2.7530 O   0  0  0  0  0  0  0  0  0  0  0  0
    1.4830   -0.4890   -0.5870 C   0  0  1  0  0  0  0  0  0  0  0  0
    2.4220    0.3070    0.0340 O   0  0  0  0  0  0  0  0  0  0  0  0
    3.7300   -0.0910   -0.1660 C   0  0  0  0  0  0  0  0  0  0  0  0
    4.6020    0.9030    0.5690 C   0  0  0  0  0  0  0  0  0  0  0  0
    5.9670    0.6710    0.4850 O   0  0  0  0  0  0  0  0  0  0  0  0
    6.7980    0.6460   -0.5920 C   0  0  0  0  0  0  0  0  0  0  0  0
    6.5190    0.8600   -1.9060 C   0  0  0  0  0  0  0  0  0  0  0  0
    7.7320    0.7130   -2.5930 C   0  0  0  0  0  0  0  0  0  0  0  0
    8.6630    0.4300   -1.7200 O   0  0  0  0  0  0  0  0  0  0  0  0
    8.1600    0.3790   -0.5170 C   0  0  0  0  0  0  0  0  0  0  0  0
    0.5060   -1.0270    0.1830 O   0  0  0  0  0  0  0  0  0  0  0  0
    0.7570   -2.2200    0.8120 C   0  0  0  0  0  0  0  0  0  0  0  0
   -0.1400   -3.3490    0.4740 C   0  0  1  0  0  0  0  0  0  0  0  0
   -0.7590   -4.0100    1.6600 C   0  0  0  0  0  0  0  0  0  0  0  0
   -1.6510   -5.0830    1.3960 N   0  0  0  0  0  0  0  0  0  0  0  0
   -0.5470   -3.6870    2.8420 O   0  0  0  0  0  0  0  0  0  0  0  0
   -1.2060   -3.1080   -0.5020 C   0  0  0  0  0  0  0  0  0  0  0  0
   -1.2720   -4.0540   -1.4060 O   0  0  0  0  0  0  0  0  0  0  0  0
   -2.1260   -2.0780   -0.6270 N   0  0  0  0  0  0  0  0  0  0  0  0
  1  2  1  0
  2  3  1  0
  3  4  2  0
  5  3  1  1
  5  6  1  0
  5 38  1  0
  6  7  1  0
  8  7  1  1
  8  9  1  0
  8 13  1  0
  9 10  2  0
  9 11  1  0
 11 12  1  0
 13 12  1  6
 13 14  1  0
 14 15  2  0
 14 16  1  0
 16 17  1  0
 17 18  1  0
 18 19  1  6
 18 20  1  0
 20 21  1  1
 20 30  1  0
 21 22  1  0
 22 23  1  0
 23 24  1  0
 24 25  1  0
 25 26  1  0
 25 29  2  0
 26 27  2  0
 27 28  1  0
 28 29  1  0
 30 31  1  0
 31 32  1  0
 32 33  1  1
 32 36  1  0
 33 34  1  0
 33 35  2  0
 36 37  2  0
 36 38  1  0
M  END
