
     RDKit          3D

 38 39  0  0  0  0  0  0  0  0999 V2000
   10.5820    1.4530    1.1110 N   0  0  0  0  0  0  0  0  0  0  0  0
    9.2230    1.5850    0.6800 C   0  0  0  0  0  0  0  0  0  0  0  0
    8.6630    2.7100    0.6410 O   0  0  0  0  0  0  0  0  0  0  0  0
    8.4730    0.4840    0.2910 O   0  0  0  0  0  0  0  0  0  0  0  0
    7.1370    0.6620   -0.1270 C   0  0  1  0  0  0  0  0  0  0  0  0
    6.9760    0.1230   -1.4640 N   0  0  0  0  0  0  0  0  0  0  0  0
    6.2400   -0.1420    0.7840 C   0  0  0  0  0  0  0  0  0  0  0  0
    4.7990    0.0660    0.3140 C   0  0  1  0  0  0  0  0  0  0  0  0
    4.7040   -0.3780   -0.9970 O   0  0  0  0  0  0  0  0  0  0  0  0
    3.9270   -0.6810    1.2640 C   0  0  0  0  0  0  0  0  0  0  0  0
    2.4920   -0.5900    0.9370 N   0  0  0  0  0  0  0  0  0  0  0  0
    1.9900   -1.6340    0.0600 C   0  0  0  0  0  0  0  0  0  0  0  0
    1.5620   -1.1930   -1.2890 C   0  0  0  0  0  0  0  0  0  0  0  0
    0.4950   -1.8900   -1.8440 O   0  0  0  0  0  0  0  0  0  0  0  0
   -0.5760   -0.9670   -2.1620 C   0  0  0  0  0  0  0  0  0  0  0  0
   -1.0120   -0.4480   -0.8570 C   0  0  0  0  0  0  0  0  0  0  0  0
   -2.4420   -0.1430   -0.5430 C   0  0  1  0  0  0  0  0  0  0  0  0
   -3.3050   -0.6320   -1.6030 C   0  0  0  0  0  0  0  0  0  0  0  0
   -3.1100    0.0110   -2.9160 C   0  0  0  0  0  0  0  0  0  0  0  0
   -3.6990   -0.6580   -4.0490 O   0  0  0  0  0  0  0  0  0  0  0  0
   -2.4810    1.1050   -3.2290 C   0  0  0  0  0  0  0  0  0  0  0  0
   -1.8140    1.9730   -2.3750 O   0  0  0  0  0  0  0  0  0  0  0  0
   -2.7070   -0.6360    0.8330 N   0  0  0  0  0  0  0  0  0  0  0  0
   -4.0290   -0.6370    1.4360 C   0  0  2  0  0  0  0  0  0  0  0  0
   -4.9900   -1.6560    0.9070 C   0  0  0  0  0  0  0  0  0  0  0  0
   -6.3490   -1.2310    0.5250 C   0  0  2  0  0  0  0  0  0  0  0  0
   -6.7210   -1.7680   -0.7450 O   0  0  0  0  0  0  0  0  0  0  0  0
   -6.6980    0.2000    0.5180 C   0  0  0  0  0  0  0  0  0  0  0  0
   -5.5620    1.1780    0.5750 C   0  0  0  0  0  0  0  0  0  0  0  0
   -4.6500    0.7080    1.6600 C   0  0  2  0  0  0  0  0  0  0  0  0
   -3.7270    1.7370    2.2090 C   0  0  0  0  0  0  0  0  0  0  0  0
   -4.4830    2.9250    2.3490 O   0  0  0  0  0  0  0  0  0  0  0  0
   -1.6230   -1.1130    1.6730 C   0  0  0  0  0  0  0  0  0  0  0  0
   -2.0100   -2.1210    2.4030 O   0  0  0  0  0  0  0  0  0  0  0  0
   -0.3550   -0.7220    1.8240 O   0  0  0  0  0  0  0  0  0  0  0  0
    0.3580    0.4070    2.0670 C   0  0  0  0  0  0  0  0  0  0  0  0
    1.7120    0.4510    1.4680 C   0  0  0  0  0  0  0  0  0  0  0  0
    2.2270    1.6150    1.4400 O   0  0  0  0  0  0  0  0  0  0  0  0
  1  2  1  0
  2  3  2  0
  2  4  1  0
  4  5  1  0
  5  6  1  6
  5  7  1  0
  7  8  1  0
  8  9  1  6
  8 10  1  0
 10 11  1  0
 11 12  1  0
 11 37  1  0
 12 13  1  0
 13 14  1  0
 14 15  1  0
 15 16  1  0
 16 17  1  0
 17 18  1  6
 17 23  1  0
 18 19  1  0
 19 20  1  0
 19 21  2  3
 21 22  1  0
 24 23  1  6
 23 33  1  0
 24 25  1  0
 24 30  1  0
 25 26  1  0
 26 27  1  6
 26 28  1  0
 28 29  1  0
 29 30  1  0
 30 31  1  6
 31 32  1  0
 33 34  2  0
 33 35  1  0
 35 36  1  0
 36 37  1  0
 37 38  2  0
M  END
