
     RDKit          3D

 38 39  0  0  0  0  0  0  0  0999 V2000
   -1.3100    4.6650    1.5370 C   0  0  0  0  0  0  0  0  0  0  0  0
   -0.7350    3.5170    1.4430 C   0  0  0  0  0  0  0  0  0  0  0  0
   -1.2620    2.3730    0.7720 C   0  0  0  0  0  0  0  0  0  0  0  0
   -0.6290    1.1430    0.6740 C   0  0  0  0  0  0  0  0  0  0  0  0
    0.6470    1.0830    1.3080 C   0  0  0  0  0  0  0  0  0  0  0  0
    1.9130    1.1650    0.8880 C   0  0  0  0  0  0  0  0  0  0  0  0
    2.9870    1.0590    1.7880 O   0  0  0  0  0  0  0  0  0  0  0  0
    2.8170    0.9860    3.1890 C   0  0  0  0  0  0  0  0  0  0  0  0
    2.3410    1.3780   -0.5150 C   0  0  2  0  0  0  0  0  0  0  0  0
    1.2610    1.6600   -1.3050 O   0  0  0  0  0  0  0  0  0  0  0  0
    3.1880    0.2660   -1.0650 C   0  0  2  0  0  0  0  0  0  0  0  0
    4.5400    0.7600   -1.4520 C   0  0  0  0  0  0  0  0  0  0  0  0
    5.3230    1.3890   -0.4490 N   0  0  0  0  0  0  0  0  0  0  0  0
    5.0250    0.6570   -2.5950 O   0  0  0  0  0  0  0  0  0  0  0  0
    2.5100   -0.3440   -2.1910 N   0  0  0  0  0  0  0  0  0  0  0  0
    2.1710   -1.7170   -2.2370 C   0  0  0  0  0  0  0  0  0  0  0  0
    2.2020   -2.2970   -3.3410 O   0  0  0  0  0  0  0  0  0  0  0  0
    1.7820   -2.4980   -1.0370 C   0  0  0  0  0  0  0  0  0  0  0  0
    1.4140   -1.6950    0.0300 O   0  0  0  0  0  0  0  0  0  0  0  0
    0.5610   -1.9110    1.0690 C   0  0  0  0  0  0  0  0  0  0  0  0
    1.0480   -1.9970    2.2540 O   0  0  0  0  0  0  0  0  0  0  0  0
   -0.9250   -2.0660    0.9980 C   0  0  0  0  0  0  0  0  0  0  0  0
   -1.7740   -1.2070    0.5070 C   0  0  0  0  0  0  0  0  0  0  0  0
   -3.2250   -1.5110    0.4970 C   0  0  2  0  0  0  0  0  0  0  0  0
   -4.0500   -0.4350    0.8740 O   0  0  0  0  0  0  0  0  0  0  0  0
   -3.6150   -2.7540    1.0780 C   0  0  0  0  0  0  0  0  0  0  0  0
   -5.0800   -3.1790    1.1500 C   0  0  0  0  0  0  0  0  0  0  0  0
   -2.7810   -3.6080    1.5800 C   0  0  0  0  0  0  0  0  0  0  0  0
   -1.3440   -3.3650    1.5960 C   0  0  0  0  0  0  0  0  0  0  0  0
   -0.5730   -4.2040    2.0850 O   0  0  0  0  0  0  0  0  0  0  0  0
   -1.4040    0.1250   -0.0130 N   0  0  0  0  0  0  0  0  0  0  0  0
   -1.9040    0.5140   -1.3200 C   0  0  0  0  0  0  0  0  0  0  0  0
   -1.3710   -0.1680   -2.5110 C   0  0  2  0  0  0  0  0  0  0  0  0
   -1.9770    0.3970   -3.6940 O   0  0  0  0  0  0  0  0  0  0  0  0
   -1.5310   -1.6680   -2.5890 C   0  0  0  0  0  0  0  0  0  0  0  0
   -0.8430   -2.0280   -3.7870 O   0  0  0  0  0  0  0  0  0  0  0  0
    0.5170    3.3700    2.0480 O   0  0  0  0  0  0  0  0  0  0  0  0
    1.4580    4.3690    2.0240 N   0  0  0  0  0  0  0  0  0  0  0  0
  1  2  2  0
  2  3  1  0
  2 37  1  0
  3  4  2  3
  4  5  1  0
  4 31  1  0
  5  6  2  0
  6  7  1  0
  6  9  1  0
  7  8  1  0
  9 10  1  6
  9 11  1  0
 11 12  1  6
 11 15  1  0
 12 13  1  0
 12 14  2  0
 15 16  1  0
 16 17  2  0
 16 18  1  0
 18 19  1  0
 19 20  1  0
 20 21  2  0
 20 22  1  0
 22 23  2  0
 22 29  1  0
 23 24  1  0
 23 31  1  0
 24 25  1  1
 24 26  1  0
 26 27  1  0
 26 28  2  0
 28 29  1  0
 29 30  2  0
 31 32  1  0
 32 33  1  0
 33 34  1  6
 33 35  1  0
 35 36  1  0
 37 38  1  0
M  END
