
     RDKit          3D

 39 41  0  0  0  0  0  0  0  0999 V2000
    5.2210   -2.0800   -0.1280 C   0  0  0  0  0  0  0  0  0  0  0  0
    4.2060   -0.9640    0.2250 C   0  0  2  0  0  0  0  0  0  0  0  0
    4.3550   -0.0290   -0.7830 O   0  0  0  0  0  0  0  0  0  0  0  0
    4.7600   -0.3870    1.5110 C   0  0  2  0  0  0  0  0  0  0  0  0
    4.1660    0.8110    1.9780 N   0  0  0  0  0  0  0  0  0  0  0  0
    4.7460    1.8640    1.1840 C   0  0  0  0  0  0  0  0  0  0  0  0
    4.1680    3.2210    0.9650 C   0  0  0  0  0  0  0  0  0  0  0  0
    5.0970    4.0310    0.0630 C   0  0  0  0  0  0  0  0  0  0  0  0
    6.3540    4.1580    0.6540 O   0  0  0  0  0  0  0  0  0  0  0  0
    5.8610    1.4350    0.6870 N   0  0  0  0  0  0  0  0  0  0  0  0
    6.0670    0.1300    1.1100 O   0  0  0  0  0  0  0  0  0  0  0  0
    2.8440   -1.5460    0.3150 C   0  0  1  0  0  0  0  0  0  0  0  0
    2.5730   -2.1890   -1.0650 C   0  0  0  0  0  0  0  0  0  0  0  0
    2.6520   -1.1990   -2.0210 O   0  0  0  0  0  0  0  0  0  0  0  0
    2.7230   -2.6100    1.3440 C   0  0  0  0  0  0  0  0  0  0  0  0
    1.3360   -3.1910    1.4480 C   0  0  0  0  0  0  0  0  0  0  0  0
    0.3250   -2.0620    1.6840 C   0  0  0  0  0  0  0  0  0  0  0  0
    0.4990   -1.1490    0.5870 N   0  0  0  0  0  0  0  0  0  0  0  0
   -0.5880   -0.9390   -0.3170 C   0  0  0  0  0  0  0  0  0  0  0  0
   -0.4320   -0.1480   -1.2680 O   0  0  0  0  0  0  0  0  0  0  0  0
   -1.7880   -1.5670   -0.1840 O   0  0  0  0  0  0  0  0  0  0  0  0
   -2.9550   -1.5770   -0.8600 C   0  0  0  0  0  0  0  0  0  0  0  0
   -3.7300   -0.3180   -1.0600 C   0  0  2  0  0  0  0  0  0  0  0  0
   -5.0060   -0.5690   -1.6340 O   0  0  0  0  0  0  0  0  0  0  0  0
   -6.1080   -1.1100   -1.0360 C   0  0  0  0  0  0  0  0  0  0  0  0
   -7.0690   -1.3650   -1.8830 O   0  0  0  0  0  0  0  0  0  0  0  0
   -6.3740   -1.4360    0.3360 C   0  0  0  0  0  0  0  0  0  0  0  0
   -6.5240   -2.8690    0.5220 O   0  0  0  0  0  0  0  0  0  0  0  0
   -6.4980   -0.6700    1.3950 C   0  0  0  0  0  0  0  0  0  0  0  0
   -6.4200    0.7570    1.5700 C   0  0  0  0  0  0  0  0  0  0  0  0
   -7.1040    1.2070    2.5960 O   0  0  0  0  0  0  0  0  0  0  0  0
   -5.7840    1.7230    0.8950 O   0  0  0  0  0  0  0  0  0  0  0  0
   -5.7900    2.3700   -0.2950 C   0  0  0  0  0  0  0  0  0  0  0  0
   -4.4000    3.0100   -0.4710 C   0  0  0  0  0  0  0  0  0  0  0  0
   -3.9140    2.9130   -1.8710 C   0  0  0  0  0  0  0  0  0  0  0  0
   -2.8720    1.9170   -2.0420 N   0  0  0  0  0  0  0  0  0  0  0  0
   -3.0630    0.5260   -2.1300 C   0  0  0  0  0  0  0  0  0  0  0  0
   -2.6430   -0.0600   -3.1940 O   0  0  0  0  0  0  0  0  0  0  0  0
    1.7580   -0.4800    0.4180 C   0  0  0  0  0  0  0  0  0  0  0  0
  2  1  1  6
  2  3  1  0
  2  4  1  0
  2 12  1  0
  4  5  1  6
  4 11  1  0
  5  6  1  0
  6  7  1  0
  6 10  2  0
  7  8  1  0
  8  9  1  0
 10 11  1  0
 12 13  1  6
 12 15  1  0
 12 39  1  0
 13 14  1  0
 15 16  1  0
 16 17  1  0
 17 18  1  0
 18 19  1  0
 18 39  1  0
 19 20  2  0
 19 21  1  0
 21 22  1  0
 23 22  1  6
 23 24  1  0
 23 37  1  0
 24 25  1  0
 25 26  2  0
 25 27  1  0
 27 28  1  0
 27 29  2  0
 29 30  1  0
 30 31  2  0
 30 32  1  0
 32 33  1  0
 33 34  1  0
 34 35  1  0
 35 36  1  0
 36 37  1  0
 37 38  2  0
M  END
