
     RDKit          3D

 39 40  0  0  0  0  0  0  0  0999 V2000
   -5.0340   -2.4770   -3.0380 C   0  0  0  0  0  0  0  0  0  0  0  0
   -5.3070   -1.3580   -2.0570 C   0  0  0  0  0  0  0  0  0  0  0  0
   -4.0730   -0.4510   -1.8840 C   0  0  2  0  0  0  0  0  0  0  0  0
   -3.8150    0.0910   -3.2690 C   0  0  0  0  0  0  0  0  0  0  0  0
   -2.9480   -1.1970   -1.2820 C   0  0  0  0  0  0  0  0  0  0  0  0
   -1.7220   -0.4640   -1.0490 N   0  0  0  0  0  0  0  0  0  0  0  0
   -0.5570   -1.2600   -1.2980 C   0  0  0  0  0  0  0  0  0  0  0  0
    0.4080   -0.8230   -2.3370 C   0  0  1  0  0  0  0  0  0  0  0  0
   -0.4600   -0.8050   -3.5220 O   0  0  0  0  0  0  0  0  0  0  0  0
    0.9250    0.5620   -2.3540 C   0  0  2  0  0  0  0  0  0  0  0  0
    1.3090    0.9270   -3.7650 C   0  0  0  0  0  0  0  0  0  0  0  0
    1.8400    2.3010   -3.8570 C   0  0  0  0  0  0  0  0  0  0  0  0
    1.0020    3.3770   -4.0510 C   0  0  0  0  0  0  0  0  0  0  0  0
    1.4710    4.6670   -4.1520 C   0  0  0  0  0  0  0  0  0  0  0  0
    2.8240    4.8860   -4.0560 C   0  0  0  0  0  0  0  0  0  0  0  0
    3.6970    3.8370   -3.8630 C   0  0  0  0  0  0  0  0  0  0  0  0
    3.1860    2.5580   -3.7670 C   0  0  0  0  0  0  0  0  0  0  0  0
    1.9050    1.0010   -1.4640 N   0  0  0  0  0  0  0  0  0  0  0  0
    2.5420    0.3960   -0.3830 C   0  0  0  0  0  0  0  0  0  0  0  0
    2.2570   -0.7690   -0.1050 O   0  0  0  0  0  0  0  0  0  0  0  0
    3.4920    1.0320    0.4150 O   0  0  0  0  0  0  0  0  0  0  0  0
    4.1080    0.3880    1.4830 C   0  0  0  0  0  0  0  0  0  0  0  0
    3.2010   -0.1090    2.5670 C   0  0  2  0  0  0  0  0  0  0  0  0
    2.4610    1.0910    3.1380 C   0  0  0  0  0  0  0  0  0  0  0  0
    4.0470   -0.7310    3.6160 C   0  0  0  0  0  0  0  0  0  0  0  0
    3.9050   -1.9600    3.8450 O   0  0  0  0  0  0  0  0  0  0  0  0
    4.9840   -0.0400    4.3610 O   0  0  0  0  0  0  0  0  0  0  0  0
    5.7710   -0.7050    5.3640 C   0  0  0  0  0  0  0  0  0  0  0  0
   -1.7350    0.4760    0.3440 S   0  0  2  0  0  0  0  0  0  0  0  0
   -2.7890    1.5730    0.3110 O   0  0  0  0  0  0  0  0  0  0  0  0
   -0.4350    1.1850    0.4830 O   0  0  0  0  0  0  0  0  0  0  0  0
   -1.9410   -0.3690    1.8570 C   0  0  0  0  0  0  0  0  0  0  0  0
   -0.9120   -0.8000    2.6500 C   0  0  0  0  0  0  0  0  0  0  0  0
   -1.1900   -1.4520    3.8330 C   0  0  0  0  0  0  0  0  0  0  0  0
   -2.4820   -1.6960    4.2680 C   0  0  0  0  0  0  0  0  0  0  0  0
   -2.7480   -2.3510    5.4600 O   0  0  0  0  0  0  0  0  0  0  0  0
   -1.7660   -2.8230    6.3370 C   0  0  0  0  0  0  0  0  0  0  0  0
   -3.5070   -1.2600    3.4670 C   0  0  0  0  0  0  0  0  0  0  0  0
   -3.2380   -0.6040    2.2750 C   0  0  0  0  0  0  0  0  0  0  0  0
  1  2  1  0
  2  3  1  0
  3  4  1  6
  3  5  1  0
  5  6  1  0
  6  7  1  0
 29  6  1  6
  7  8  1  0
  8  9  1  6
  8 10  1  0
 10 11  1  6
 10 18  1  0
 11 12  1  0
 12 13  2  0
 12 17  1  0
 13 14  1  0
 14 15  2  0
 15 16  1  0
 16 17  2  0
 18 19  1  0
 19 20  2  0
 19 21  1  0
 21 22  1  0
 22 23  1  0
 23 24  1  1
 23 25  1  0
 25 26  2  0
 25 27  1  0
 27 28  1  0
 29 30  2  0
 29 31  2  0
 29 32  1  0
 32 33  2  0
 32 39  1  0
 33 34  1  0
 34 35  2  0
 35 36  1  0
 35 38  1  0
 36 37  1  0
 38 39  2  0
M  END
