
     RDKit          3D

 39 42  0  0  0  0  0  0  0  0999 V2000
   -1.7510    4.7570   -0.6150 C   0  0  0  0  0  0  0  0  0  0  0  0
   -2.2320    3.4090   -0.1490 C   0  0  0  0  0  0  0  0  0  0  0  0
   -1.5950    2.2670   -0.9400 C   0  0  0  0  0  0  0  0  0  0  0  0
   -0.6290    2.7020   -1.7100 C   0  0  0  0  0  0  0  0  0  0  0  0
    0.2120    1.7890   -2.6260 C   0  0  0  0  0  0  0  0  0  0  0  0
    1.1660    1.2610   -1.8010 C   0  0  0  0  0  0  0  0  0  0  0  0
    1.9530    0.8130   -1.0980 C   0  0  0  0  0  0  0  0  0  0  0  0
    2.8810    0.2800   -0.2440 C   0  0  0  0  0  0  0  0  0  0  0  0
    4.0700   -0.1890   -0.4380 C   0  0  0  0  0  0  0  0  0  0  0  0
    4.7160   -0.6470    0.6470 N   0  0  0  0  0  0  0  0  0  0  0  0
    5.5080   -1.0720    1.4100 C   0  0  0  0  0  0  0  0  0  0  0  0
    6.9560   -1.4710    1.2310 C   0  0  0  0  0  0  0  0  0  0  0  0
    7.3030   -2.0710    2.5720 C   0  0  0  0  0  0  0  0  0  0  0  0
    5.9360   -2.5890    3.0410 C   0  0  0  0  0  0  0  0  0  0  0  0
    5.1890   -1.3380    2.8270 N   0  0  0  0  0  0  0  0  0  0  0  0
    4.3940   -0.5710    3.7080 C   0  0  0  0  0  0  0  0  0  0  0  0
    2.3120    0.3700    1.1630 N   0  0  0  0  0  0  0  0  0  0  0  0
    1.0460   -0.1920    1.4740 C   0  0  0  0  0  0  0  0  0  0  0  0
    0.6270    0.3420    2.6200 O   0  0  0  0  0  0  0  0  0  0  0  0
    0.1280   -1.1420    0.9100 C   0  0  0  0  0  0  0  0  0  0  0  0
    0.3410   -2.5660    1.6000 C   0  0  1  0  0  0  0  0  0  0  0  0
    0.4240   -2.3960    2.9610 F   0  0  0  0  0  0  0  0  0  0  0  0
   -0.8100   -3.3280    1.4450 F   0  0  0  0  0  0  0  0  0  0  0  0
    1.3270   -3.2630    0.9980 F   0  0  0  0  0  0  0  0  0  0  0  0
   -0.8890   -1.0790    0.0830 C   0  0  0  0  0  0  0  0  0  0  0  0
   -1.7570   -0.3340   -0.7300 N   0  0  0  0  0  0  0  0  0  0  0  0
   -2.5620   -1.1300   -1.7020 C   0  0  0  0  0  0  0  0  0  0  0  0
   -3.1700   -2.2370   -1.1960 C   0  0  0  0  0  0  0  0  0  0  0  0
   -3.9160   -3.0680   -1.9890 C   0  0  0  0  0  0  0  0  0  0  0  0
   -4.0630   -2.8020   -3.2820 N   0  0  0  0  0  0  0  0  0  0  0  0
   -3.4960   -1.7270   -3.8380 C   0  0  0  0  0  0  0  0  0  0  0  0
   -2.7340   -0.8830   -3.0220 C   0  0  0  0  0  0  0  0  0  0  0  0
   -2.1720    0.9940   -0.7920 N   0  0  0  0  0  0  0  0  0  0  0  0
   -3.6650    1.1940   -0.7050 C   0  0  0  0  0  0  0  0  0  0  0  0
   -4.4370    1.6360   -1.6550 C   0  0  0  0  0  0  0  0  0  0  0  0
   -5.8020    1.8370   -1.5280 C   0  0  0  0  0  0  0  0  0  0  0  0
   -6.3310    1.5260   -0.2840 C   0  0  0  0  0  0  0  0  0  0  0  0
   -5.5140    1.0480    0.7360 C   0  0  0  0  0  0  0  0  0  0  0  0
   -4.1630    0.8640    0.5770 C   0  0  0  0  0  0  0  0  0  0  0  0
  1  2  1  0
  2  3  1  0
  3  4  2  0
  3 33  1  0
  4  5  1  0
  5  6  1  0
  6  7  3  0
  7  8  1  0
  8  9  2  3
  8 17  1  0
  9 10  1  0
 10 11  2  3
 11 12  1  0
 11 15  1  0
 12 13  1  0
 13 14  1  0
 14 15  1  0
 15 16  1  0
 17 18  1  0
 18 19  2  0
 18 20  1  0
 20 21  1  0
 20 25  2  0
 21 22  1  1
 21 23  1  0
 21 24  1  0
 25 26  1  0
 26 27  1  0
 26 33  1  0
 27 28  2  0
 27 32  1  0
 28 29  1  0
 29 30  2  0
 30 31  1  0
 31 32  2  0
 33 34  1  0
 34 35  2  0
 34 39  1  0
 35 36  1  0
 36 37  2  0
 37 38  1  0
 38 39  2  0
M  CHG  1  30   1
M  END
