
     RDKit          3D

 44 50  0  0  0  0  0  0  0  0999 V2000
   -4.4040   -0.0910    3.2460 C   0  0  0  0  0  0  0  0  0  0  0  0
   -4.4260   -0.0220    1.7810 C   0  0  0  0  0  0  0  0  0  0  0  0
   -3.2710    0.2120    1.0250 C   0  0  0  0  0  0  0  0  0  0  0  0
   -3.2540    0.2840   -0.3610 C   0  0  0  0  0  0  0  0  0  0  0  0
   -2.1050    0.5190   -1.1420 N   0  0  0  0  0  0  0  0  0  0  0  0
   -0.7760    0.7120   -0.6690 C   0  0  0  0  0  0  0  0  0  0  0  0
   -0.5690    0.6750    0.5530 O   0  0  0  0  0  0  0  0  0  0  0  0
    0.3060    0.9430   -1.5480 N   0  0  0  0  0  0  0  0  0  0  0  0
    1.6540    1.1380   -1.1730 C   0  0  0  0  0  0  0  0  0  0  0  0
    2.5690    1.6070   -2.1370 C   0  0  0  0  0  0  0  0  0  0  0  0
    3.8880    1.8030   -1.8490 C   0  0  0  0  0  0  0  0  0  0  0  0
    4.4050    1.5460   -0.5750 C   0  0  0  0  0  0  0  0  0  0  0  0
    5.8150    1.8050   -0.3270 C   0  0  0  0  0  0  0  0  0  0  0  0
    6.2840    3.1210   -0.4650 C   0  0  0  0  0  0  0  0  0  0  0  0
    7.5730    3.4810   -0.2360 C   0  0  0  0  0  0  0  0  0  0  0  0
    8.0240    4.7650   -0.3730 F   0  0  0  0  0  0  0  0  0  0  0  0
    8.4950    2.5370    0.1540 C   0  0  0  0  0  0  0  0  0  0  0  0
    9.7970    2.8660    0.3920 F   0  0  0  0  0  0  0  0  0  0  0  0
    8.0560    1.2260    0.2980 C   0  0  0  0  0  0  0  0  0  0  0  0
    6.7380    0.8550    0.0630 C   0  0  0  0  0  0  0  0  0  0  0  0
    6.3160   -0.5350    0.2260 C   0  0  0  0  0  0  0  0  0  0  0  0
    7.3040   -1.4910    0.5610 N   0  0  0  0  0  0  0  0  0  0  0  0
    8.3020   -1.7920   -0.3930 C   0  0  0  0  0  0  0  0  0  0  0  0
    9.6520   -2.1540    0.1320 C   0  0  0  0  0  0  0  0  0  0  0  0
    9.5710   -2.8230    1.3640 O   0  0  0  0  0  0  0  0  0  0  0  0
    9.0420   -1.8880    2.2660 C   0  0  0  0  0  0  0  0  0  0  0  0
    7.5970   -1.6900    1.9290 C   0  0  0  0  0  0  0  0  0  0  0  0
    3.5160    1.0930    0.3530 C   0  0  0  0  0  0  0  0  0  0  0  0
    2.1550    0.8900    0.0590 C   0  0  0  0  0  0  0  0  0  0  0  0
   -4.4470    0.1160   -1.0830 C   0  0  0  0  0  0  0  0  0  0  0  0
   -4.8930    0.1030   -2.3720 C   0  0  0  0  0  0  0  0  0  0  0  0
   -4.1580    0.2780   -3.3690 O   0  0  0  0  0  0  0  0  0  0  0  0
   -6.2570   -0.1280   -2.4080 N   0  0  0  0  0  0  0  0  0  0  0  0
   -6.7070   -0.2660   -1.1530 C   0  0  0  0  0  0  0  0  0  0  0  0
   -7.8990   -0.5030   -0.4830 C   0  0  0  0  0  0  0  0  0  0  0  0
   -7.9230   -0.5750    0.8940 C   0  0  0  0  0  0  0  0  0  0  0  0
   -9.2550   -0.8340    1.4990 C   0  0  0  0  0  0  0  0  0  0  0  0
  -10.3640   -0.1510    0.7840 C   0  0  0  0  0  0  0  0  0  0  0  0
  -10.2790   -0.0700   -0.6280 N   0  0  0  0  0  0  0  0  0  0  0  0
   -9.1450   -0.6780   -1.2510 C   0  0  2  0  0  0  0  0  0  0  0  0
   -9.3950   -2.1570   -1.5690 C   0  0  0  0  0  0  0  0  0  0  0  0
   -6.8200   -0.4270    1.6930 N   0  0  0  0  0  0  0  0  0  0  0  0
   -5.6220   -0.1930    1.1140 C   0  0  0  0  0  0  0  0  0  0  0  0
   -5.5930   -0.1180   -0.2990 N   0  0  0  0  0  0  0  0  0  0  0  0
  1  2  1  0
  2  3  2  0
  2 43  1  0
  3  4  1  0
  4  5  1  0
  4 30  2  0
  5  6  1  0
  6  7  2  0
  6  8  1  0
  8  9  1  0
  9 10  2  0
  9 29  1  0
 10 11  1  0
 11 12  2  0
 12 13  1  0
 12 28  1  0
 13 14  2  0
 13 20  1  0
 14 15  1  0
 15 16  1  0
 15 17  2  0
 17 18  1  0
 17 19  1  0
 19 20  2  0
 20 21  1  0
 21 22  1  0
 22 23  1  0
 22 27  1  0
 23 24  1  0
 24 25  1  0
 25 26  1  0
 26 27  1  0
 28 29  2  0
 30 31  1  0
 30 44  1  0
 31 32  2  0
 31 33  1  0
 33 34  2  0
 34 35  1  0
 34 44  1  0
 35 36  2  0
 35 40  1  0
 36 37  1  0
 36 42  1  0
 37 38  1  0
 38 39  1  0
 39 40  1  0
 40 41  1  1
 42 43  2  0
 43 44  1  0
M  CHG  1  39   1
M  END
