
     RDKit          3D

 48 53  0  0  0  0  0  0  0  0999 V2000
   -8.1920   -2.7290    0.0780 C   0  0  0  0  0  0  0  0  0  0  0  0
   -9.2020   -1.6280    0.3220 C   0  0  0  0  0  0  0  0  0  0  0  0
   -9.3540   -0.7450   -0.8520 C   0  0  0  0  0  0  0  0  0  0  0  0
  -10.4570   -0.7890   -1.6840 C   0  0  0  0  0  0  0  0  0  0  0  0
  -10.5850    0.0400   -2.7730 C   0  0  0  0  0  0  0  0  0  0  0  0
   -9.5890    0.9500   -3.0510 C   0  0  0  0  0  0  0  0  0  0  0  0
   -9.7470    1.7870   -4.1300 C   0  0  0  0  0  0  0  0  0  0  0  0
   -8.7540    2.7080   -4.3770 C   0  0  0  0  0  0  0  0  0  0  0  0
   -7.6380    2.8140   -3.5970 C   0  0  0  0  0  0  0  0  0  0  0  0
   -7.5020    1.9580   -2.5170 C   0  0  0  0  0  0  0  0  0  0  0  0
   -8.4580    1.0180   -2.2240 C   0  0  0  0  0  0  0  0  0  0  0  0
   -8.3650    0.1680   -1.1440 C   0  0  0  0  0  0  0  0  0  0  0  0
   -7.2040    0.2110   -0.2600 C   0  0  0  0  0  0  0  0  0  0  0  0
   -7.3700    0.2770    1.0030 O   0  0  0  0  0  0  0  0  0  0  0  0
   -5.8670    0.1750   -0.7040 N   0  0  0  0  0  0  0  0  0  0  0  0
   -4.6840    0.2170    0.0610 C   0  0  0  0  0  0  0  0  0  0  0  0
   -4.6320    0.2550    1.4360 C   0  0  0  0  0  0  0  0  0  0  0  0
   -3.3900    0.2820    2.0920 C   0  0  0  0  0  0  0  0  0  0  0  0
   -2.1980    0.2720    1.4210 C   0  0  0  0  0  0  0  0  0  0  0  0
   -2.2410    0.2350    0.0560 C   0  0  0  0  0  0  0  0  0  0  0  0
   -3.4450    0.2080   -0.6030 C   0  0  0  0  0  0  0  0  0  0  0  0
   -3.4740    0.1710   -1.9920 O   0  0  0  0  0  0  0  0  0  0  0  0
   -2.2690    0.1590   -2.7200 C   0  0  0  0  0  0  0  0  0  0  0  0
   -0.9100    0.2880    2.1540 C   0  0  0  0  0  0  0  0  0  0  0  0
   -0.9130    0.3100    3.4490 C   0  0  0  0  0  0  0  0  0  0  0  0
    0.3500    0.3260    4.2030 C   0  0  0  0  0  0  0  0  0  0  0  0
    0.3000    0.3440    5.4720 O   0  0  0  0  0  0  0  0  0  0  0  0
    1.6220    0.3220    3.6230 N   0  0  0  0  0  0  0  0  0  0  0  0
    2.8830    0.3210    4.2600 C   0  0  0  0  0  0  0  0  0  0  0  0
    3.0830    0.3020    5.6100 C   0  0  0  0  0  0  0  0  0  0  0  0
    4.3610    0.3030    6.2010 C   0  0  0  0  0  0  0  0  0  0  0  0
    5.4270    0.3240    5.3330 C   0  0  0  0  0  0  0  0  0  0  0  0
    5.2520    0.3430    3.9670 C   0  0  0  0  0  0  0  0  0  0  0  0
    6.3990    0.3670    3.1090 N   0  0  0  0  0  0  0  0  0  0  0  0
    6.2310    0.3960    1.7040 C   0  0  0  0  0  0  0  0  0  0  0  0
    5.0680    0.3970    1.2420 O   0  0  0  0  0  0  0  0  0  0  0  0
    7.3490    0.4240    0.8320 N   0  0  0  0  0  0  0  0  0  0  0  0
    7.2280    0.4550   -0.6110 C   0  0  1  0  0  0  0  0  0  0  0  0
    7.7470    1.8390   -1.0260 C   0  0  0  0  0  0  0  0  0  0  0  0
    8.0450   -0.6350   -1.2690 C   0  0  2  0  0  0  0  0  0  0  0  0
    9.5030   -0.5270   -0.9610 C   0  0  0  0  0  0  0  0  0  0  0  0
   10.3630   -0.4660   -2.2020 C   0  0  0  0  0  0  0  0  0  0  0  0
    9.9900   -1.5760   -3.1610 C   0  0  0  0  0  0  0  0  0  0  0  0
    8.5820   -1.6010   -3.4490 N   0  0  0  0  0  0  0  0  0  0  0  0
    7.8390   -0.5780   -2.7650 C   0  0  0  0  0  0  0  0  0  0  0  0
    4.0220    0.3410    3.5030 N   0  0  0  0  0  0  0  0  0  0  0  0
   -2.1770    0.3230    4.2490 C   0  0  0  0  0  0  0  0  0  0  0  0
   -3.3310    0.3210    3.4800 O   0  0  0  0  0  0  0  0  0  0  0  0
  1  2  1  0
  2  3  1  0
  3  4  2  0
  3 12  1  0
  4  5  1  0
  5  6  2  0
  6  7  1  0
  6 11  1  0
  7  8  2  0
  8  9  1  0
  9 10  2  0
 10 11  1  0
 11 12  2  0
 12 13  1  0
 13 14  2  0
 13 15  1  0
 15 16  1  0
 16 17  2  0
 16 21  1  0
 17 18  1  0
 18 19  2  0
 18 48  1  0
 19 20  1  0
 19 24  1  0
 20 21  2  0
 21 22  1  0
 22 23  1  0
 24 25  2  0
 25 26  1  0
 25 47  1  0
 26 27  2  0
 26 28  1  0
 28 29  1  0
 29 30  2  0
 29 46  1  0
 30 31  1  0
 31 32  2  0
 32 33  1  0
 33 34  1  0
 33 46  2  0
 34 35  1  0
 35 36  2  0
 35 37  1  0
 37 38  1  0
 38 39  1  6
 38 40  1  0
 40 41  1  6
 40 45  1  0
 41 42  1  0
 42 43  1  0
 43 44  1  0
 44 45  1  0
 47 48  1  0
M  CHG  1  44   1
M  END
