
     RDKit          3D

 48 52  0  0  0  0  0  0  0  0999 V2000
    5.6340   -2.0780    1.1820 C   0  0  0  0  0  0  0  0  0  0  0  0
    4.7230   -0.9190    0.9660 C   0  0  0  0  0  0  0  0  0  0  0  0
    3.8720   -0.4630    1.9370 C   0  0  0  0  0  0  0  0  0  0  0  0
    2.9990    0.6250    1.7470 C   0  0  0  0  0  0  0  0  0  0  0  0
    2.9720    1.2790    0.5500 C   0  0  0  0  0  0  0  0  0  0  0  0
    2.0570    2.4160    0.2100 C   0  0  0  0  0  0  0  0  0  0  0  0
    0.7680    1.8430   -0.1340 N   0  0  0  0  0  0  0  0  0  0  0  0
   -0.2370    1.5120    0.8180 C   0  0  0  0  0  0  0  0  0  0  0  0
   -0.0670    1.7920    2.0180 O   0  0  0  0  0  0  0  0  0  0  0  0
   -1.4440    0.8630    0.4420 N   0  0  0  0  0  0  0  0  0  0  0  0
   -2.5040    0.5300    1.4190 C   0  0  1  0  0  0  0  0  0  0  0  0
   -3.7980    0.9460    0.9040 C   0  0  0  0  0  0  0  0  0  0  0  0
   -3.9160    1.3550   -0.3170 O   0  0  0  0  0  0  0  0  0  0  0  0
   -4.9740    0.9450    1.6730 N   0  0  0  0  0  0  0  0  0  0  0  0
   -6.2500    1.3790    1.1270 C   0  0  0  0  0  0  0  0  0  0  0  0
   -6.7440    0.5040    0.0240 C   0  0  1  0  0  0  0  0  0  0  0  0
   -6.9660   -0.9090    0.5280 C   0  0  0  0  0  0  0  0  0  0  0  0
   -8.3850   -1.3680    0.5020 C   0  0  0  0  0  0  0  0  0  0  0  0
   -8.9040   -1.1750   -0.8990 C   0  0  0  0  0  0  0  0  0  0  0  0
   -8.9670    0.2990   -1.1330 C   0  0  0  0  0  0  0  0  0  0  0  0
  -10.0430    0.8350   -1.8060 C   0  0  0  0  0  0  0  0  0  0  0  0
  -11.1390   -0.0320   -2.2440 C   0  0  0  0  0  0  0  0  0  0  0  0
  -12.0230   -0.7140   -2.6110 N   0  0  0  0  0  0  0  0  0  0  0  0
  -10.0560    2.1870   -2.0140 C   0  0  0  0  0  0  0  0  0  0  0  0
   -9.0560    3.0090   -1.5830 C   0  0  0  0  0  0  0  0  0  0  0  0
   -7.9710    2.4350   -0.8980 C   0  0  0  0  0  0  0  0  0  0  0  0
   -7.9100    1.0730   -0.6630 C   0  0  0  0  0  0  0  0  0  0  0  0
   -2.3590   -0.9650    1.6120 C   0  0  0  0  0  0  0  0  0  0  0  0
   -1.0820   -1.5060    1.6850 C   0  0  0  0  0  0  0  0  0  0  0  0
   -0.8520   -2.8650    1.8680 C   0  0  0  0  0  0  0  0  0  0  0  0
   -1.9460   -3.6910    1.9790 C   0  0  0  0  0  0  0  0  0  0  0  0
   -3.1810   -3.1470    1.9050 C   0  0  0  0  0  0  0  0  0  0  0  0
   -3.4510   -1.7960    1.7240 C   0  0  0  0  0  0  0  0  0  0  0  0
    3.8550    0.8050   -0.4460 C   0  0  0  0  0  0  0  0  0  0  0  0
    4.6990   -0.2560   -0.2400 C   0  0  0  0  0  0  0  0  0  0  0  0
    5.5920   -0.6970   -1.3360 C   0  0  0  0  0  0  0  0  0  0  0  0
    5.8090    0.1370   -2.2890 O   0  0  0  0  0  0  0  0  0  0  0  0
    6.1880   -1.9120   -1.3990 O   0  0  0  0  0  0  0  0  0  0  0  0
    7.0420   -2.2520   -2.4610 C   0  0  0  0  0  0  0  0  0  0  0  0
    8.3190   -1.4440   -2.3950 C   0  0  0  0  0  0  0  0  0  0  0  0
    9.1390   -1.5610   -3.3350 O   0  0  0  0  0  0  0  0  0  0  0  0
    8.6170   -0.5760   -1.3170 N   0  0  0  0  0  0  0  0  0  0  0  0
    9.7610    0.2120   -1.1350 C   0  0  0  0  0  0  0  0  0  0  0  0
   10.8650    0.1180   -1.9270 C   0  0  0  0  0  0  0  0  0  0  0  0
   11.9690    0.9400   -1.7090 C   0  0  0  0  0  0  0  0  0  0  0  0
   11.9930    1.8580   -0.7080 C   0  0  0  0  0  0  0  0  0  0  0  0
   10.8570    1.9720    0.1290 C   0  0  0  0  0  0  0  0  0  0  0  0
    9.7950    1.1430   -0.1250 C   0  0  0  0  0  0  0  0  0  0  0  0
  1  2  1  0
  2  3  2  0
  2 35  1  0
  3  4  1  0
  4  5  2  0
  5  6  1  0
  5 34  1  0
  6  7  1  0
  7  8  1  0
  8  9  2  0
  8 10  1  0
 11 10  1  6
 11 12  1  0
 11 28  1  0
 12 13  2  0
 12 14  1  0
 14 15  1  0
 16 15  1  1
 16 17  1  0
 16 27  1  0
 17 18  1  0
 18 19  1  0
 19 20  1  0
 20 21  2  0
 20 27  1  0
 21 22  1  0
 21 24  1  0
 22 23  3  0
 24 25  2  0
 25 26  1  0
 26 27  2  0
 28 29  2  0
 28 33  1  0
 29 30  1  0
 30 31  2  0
 31 32  1  0
 32 33  2  0
 34 35  2  0
 35 36  1  0
 36 37  2  0
 36 38  1  0
 38 39  1  0
 39 40  1  0
 40 41  2  0
 40 42  1  0
 42 43  1  0
 43 44  2  0
 43 48  1  0
 44 45  1  0
 45 46  2  0
 46 47  1  0
 47 48  2  0
M  END
