
     RDKit          3D

 48 53  0  0  0  0  0  0  0  0999 V2000
    3.4760   -4.2760    3.0710 C   0  0  0  0  0  0  0  0  0  0  0  0
    2.9030   -3.6190    1.8680 C   0  0  0  0  0  0  0  0  0  0  0  0
    2.4670   -4.4080    0.8500 C   0  0  0  0  0  0  0  0  0  0  0  0
    1.9320   -3.7850   -0.2530 C   0  0  0  0  0  0  0  0  0  0  0  0
    1.8080   -2.4050   -0.3960 C   0  0  0  0  0  0  0  0  0  0  0  0
    2.2520   -1.6100    0.6420 C   0  0  0  0  0  0  0  0  0  0  0  0
    2.7930   -2.2530    1.7540 C   0  0  0  0  0  0  0  0  0  0  0  0
    2.1960   -0.1990    0.7320 N   0  0  0  0  0  0  0  0  0  0  0  0
    2.6570    0.8820    0.0030 C   0  0  0  0  0  0  0  0  0  0  0  0
    1.7310    1.5710   -0.5950 O   0  0  0  0  0  0  0  0  0  0  0  0
    3.9940    1.4310   -0.2410 C   0  0  0  0  0  0  0  0  0  0  0  0
    4.0890    2.8390   -0.2200 C   0  0  0  0  0  0  0  0  0  0  0  0
    5.2570    3.5440   -0.3720 C   0  0  0  0  0  0  0  0  0  0  0  0
    5.3090    4.9190   -0.3390 C   0  0  0  0  0  0  0  0  0  0  0  0
    6.5220    5.5540   -0.4940 C   0  0  0  0  0  0  0  0  0  0  0  0
    7.6990    4.8510   -0.6840 C   0  0  0  0  0  0  0  0  0  0  0  0
    7.6350    3.4780   -0.7150 C   0  0  0  0  0  0  0  0  0  0  0  0
    6.4240    2.8380   -0.5610 C   0  0  0  0  0  0  0  0  0  0  0  0
    6.3370    1.4630   -0.5840 C   0  0  0  0  0  0  0  0  0  0  0  0
    5.1500    0.7350   -0.4320 C   0  0  0  0  0  0  0  0  0  0  0  0
    5.3150   -0.6750   -0.5370 N   0  0  0  0  0  0  0  0  0  0  0  0
    4.7820   -1.6030   -1.4710 C   0  0  0  0  0  0  0  0  0  0  0  0
    4.8960   -2.8360   -1.0690 O   0  0  0  0  0  0  0  0  0  0  0  0
    4.1780   -1.4390   -2.7050 N   0  0  0  0  0  0  0  0  0  0  0  0
    2.9930   -0.8730   -3.2180 C   0  0  2  0  0  0  0  0  0  0  0  0
    3.2080    0.5810   -3.5810 C   0  0  0  0  0  0  0  0  0  0  0  0
    1.7070   -1.0370   -2.5640 C   0  0  0  0  0  0  0  0  0  0  0  0
    0.8330   -0.1420   -2.9010 O   0  0  0  0  0  0  0  0  0  0  0  0
    1.2050   -1.9800   -1.6340 N   0  0  0  0  0  0  0  0  0  0  0  0
   -0.0750   -2.6470   -1.9230 C   0  0  0  0  0  0  0  0  0  0  0  0
   -1.2700   -1.9160   -1.5080 C   0  0  0  0  0  0  0  0  0  0  0  0
   -1.9820   -1.2460   -2.4980 C   0  0  0  0  0  0  0  0  0  0  0  0
   -3.1170   -0.5510   -2.2620 C   0  0  0  0  0  0  0  0  0  0  0  0
   -3.6440   -0.4750   -0.9520 C   0  0  0  0  0  0  0  0  0  0  0  0
   -4.9140    0.2150   -0.7900 C   0  0  0  0  0  0  0  0  0  0  0  0
   -5.1450    1.1790   -1.6070 O   0  0  0  0  0  0  0  0  0  0  0  0
   -5.9270   -0.0370    0.1370 N   0  0  0  0  0  0  0  0  0  0  0  0
   -7.1650    0.7260    0.2040 C   0  0  1  0  0  0  0  0  0  0  0  0
   -8.2360   -0.2480   -0.3430 C   0  0  0  0  0  0  0  0  0  0  0  0
   -7.5960    1.0830    1.5520 C   0  0  0  0  0  0  0  0  0  0  0  0
   -8.6270    0.5600    2.3150 C   0  0  0  0  0  0  0  0  0  0  0  0
   -8.6640    1.2040    3.5130 C   0  0  0  0  0  0  0  0  0  0  0  0
   -7.6880    2.1130    3.5160 N   0  0  0  0  0  0  0  0  0  0  0  0
   -7.0270    2.0630    2.3490 C   0  0  0  0  0  0  0  0  0  0  0  0
   -5.8770    2.9260    2.0070 C   0  0  0  0  0  0  0  0  0  0  0  0
   -2.9680   -1.1160    0.0320 C   0  0  0  0  0  0  0  0  0  0  0  0
   -3.4240   -1.0370    1.4430 C   0  0  0  0  0  0  0  0  0  0  0  0
   -1.7970   -1.8270   -0.2490 C   0  0  0  0  0  0  0  0  0  0  0  0
  1  2  1  0
  2  3  2  0
  2  7  1  0
  3  4  1  0
  4  5  2  0
  5  6  1  0
  5 29  1  0
  6  7  2  0
  6  8  1  0
  8  9  1  0
  9 10  2  0
  9 11  1  0
 11 12  2  0
 11 20  1  0
 12 13  1  0
 13 14  2  0
 13 18  1  0
 14 15  1  0
 15 16  2  0
 16 17  1  0
 17 18  2  0
 18 19  1  0
 19 20  2  0
 20 21  1  0
 21 22  1  0
 22 23  2  0
 22 24  1  0
 24 25  1  0
 25 26  1  1
 25 27  1  0
 27 28  2  0
 27 29  1  0
 29 30  1  0
 30 31  1  0
 31 32  2  0
 31 48  1  0
 32 33  1  0
 33 34  2  0
 34 35  1  0
 34 46  1  0
 35 36  2  0
 35 37  1  0
 37 38  1  0
 38 39  1  1
 38 40  1  0
 40 41  1  0
 40 44  2  0
 41 42  2  0
 42 43  1  0
 43 44  1  0
 44 45  1  0
 46 47  1  0
 46 48  2  0
M  END
