
     RDKit          3D

 48 54  0  0  0  0  0  0  0  0999 V2000
    5.9050    1.0450    2.8450 C   0  0  0  0  0  0  0  0  0  0  0  0
    6.3700    0.6940    1.4700 C   0  0  0  0  0  0  0  0  0  0  0  0
    7.4960    1.3920    1.0310 C   0  0  0  0  0  0  0  0  0  0  0  0
    7.9450    1.0890   -0.2350 C   0  0  0  0  0  0  0  0  0  0  0  0
    7.3400    0.1560   -1.0460 C   0  0  0  0  0  0  0  0  0  0  0  0
    7.8380   -0.1040   -2.3030 C   0  0  0  0  0  0  0  0  0  0  0  0
    7.1910   -1.0600   -3.0910 C   0  0  0  0  0  0  0  0  0  0  0  0
    6.0870   -1.7140   -2.6040 C   0  0  0  0  0  0  0  0  0  0  0  0
    5.5570   -1.4720   -1.3310 C   0  0  0  0  0  0  0  0  0  0  0  0
    4.3680   -2.2030   -0.8840 C   0  0  2  0  0  0  0  0  0  0  0  0
    4.0010   -3.2590   -1.9380 C   0  0  0  0  0  0  0  0  0  0  0  0
    3.1730   -1.3610   -0.7900 N   0  0  0  0  0  0  0  0  0  0  0  0
    2.2580   -1.5170    0.2640 C   0  0  0  0  0  0  0  0  0  0  0  0
    2.5290   -2.4260    1.1190 O   0  0  0  0  0  0  0  0  0  0  0  0
    1.0710   -0.7040    0.3870 C   0  0  0  0  0  0  0  0  0  0  0  0
    0.7600    0.2980   -0.5090 C   0  0  0  0  0  0  0  0  0  0  0  0
   -0.4000    1.0410   -0.3250 C   0  0  0  0  0  0  0  0  0  0  0  0
   -1.2520    0.8030    0.7310 C   0  0  0  0  0  0  0  0  0  0  0  0
   -2.3920    1.5970    0.8640 N   0  0  0  0  0  0  0  0  0  0  0  0
   -3.5460    1.3400    1.6550 C   0  0  0  0  0  0  0  0  0  0  0  0
   -3.5800    0.2850    2.3200 O   0  0  0  0  0  0  0  0  0  0  0  0
   -4.6810    2.3170    1.6780 C   0  0  0  0  0  0  0  0  0  0  0  0
   -5.8950    1.8560    2.3970 C   0  0  0  0  0  0  0  0  0  0  0  0
   -6.5320    0.6820    1.9160 C   0  0  1  0  0  0  0  0  0  0  0  0
   -7.7470    0.1450    2.6860 C   0  0  0  0  0  0  0  0  0  0  0  0
   -7.6080   -1.3560    2.7510 C   0  0  0  0  0  0  0  0  0  0  0  0
   -6.4710   -1.9720    1.9680 C   0  0  0  0  0  0  0  0  0  0  0  0
   -6.5170   -1.4230    0.6270 N   0  0  0  0  0  0  0  0  0  0  0  0
   -6.6630   -2.1770   -0.5520 C   0  0  0  0  0  0  0  0  0  0  0  0
   -7.2640   -3.2740   -0.4860 O   0  0  0  0  0  0  0  0  0  0  0  0
   -6.0790   -1.5770   -1.7610 C   0  0  0  0  0  0  0  0  0  0  0  0
   -6.5240   -0.1750   -1.8970 C   0  0  2  0  0  0  0  0  0  0  0  0
   -5.5830    0.6010   -2.7130 N   0  0  0  0  0  0  0  0  0  0  0  0
   -5.8070    1.9930   -2.8140 C   0  0  0  0  0  0  0  0  0  0  0  0
   -5.4080    2.6510   -3.8350 O   0  0  0  0  0  0  0  0  0  0  0  0
   -6.4830    2.7300   -1.7920 N   0  0  0  0  0  0  0  0  0  0  0  0
   -6.9180    2.0240   -0.6780 C   0  0  0  0  0  0  0  0  0  0  0  0
   -7.5320    2.4790    0.3170 O   0  0  0  0  0  0  0  0  0  0  0  0
   -6.6560    0.5670   -0.6130 C   0  0  0  0  0  0  0  0  0  0  0  0
   -6.5090    0.0600    0.5920 C   0  0  0  0  0  0  0  0  0  0  0  0
   -0.9160   -0.1900    1.5960 C   0  0  0  0  0  0  0  0  0  0  0  0
    0.2320   -0.9600    1.4550 C   0  0  0  0  0  0  0  0  0  0  0  0
    0.5580   -1.9940    2.3740 N   0  0  0  0  0  0  0  0  0  0  0  0
    6.2120   -0.5290   -0.5800 C   0  0  0  0  0  0  0  0  0  0  0  0
    5.7430   -0.2390    0.6930 C   0  0  0  0  0  0  0  0  0  0  0  0
    9.0360    0.6110   -2.8000 C   0  0  0  0  0  0  0  0  0  0  0  0
    9.0390    2.0040   -2.2300 C   0  0  0  0  0  0  0  0  0  0  0  0
    9.1540    1.8450   -0.7190 C   0  0  0  0  0  0  0  0  0  0  0  0
  1  2  1  0
  2  3  2  0
  2 45  1  0
  3  4  1  0
  4  5  2  0
  4 48  1  0
  5  6  1  0
  5 44  1  0
  6  7  2  0
  6 46  1  0
  7  8  1  0
  8  9  2  0
  9 10  1  0
  9 44  1  0
 10 11  1  6
 10 12  1  0
 12 13  1  0
 13 14  2  0
 13 15  1  0
 15 16  2  0
 15 42  1  0
 16 17  1  0
 17 18  2  0
 18 19  1  0
 18 41  1  0
 19 20  1  0
 20 21  2  0
 20 22  1  0
 22 23  1  0
 24 23  1  6
 24 25  1  0
 24 40  1  0
 25 26  1  0
 26 27  1  0
 27 28  1  0
 28 29  1  0
 28 40  1  0
 29 30  2  0
 29 31  1  0
 32 31  1  1
 32 33  1  0
 32 39  1  0
 33 34  1  0
 34 35  2  0
 34 36  1  0
 36 37  1  0
 37 38  2  0
 37 39  1  0
 39 40  2  0
 41 42  2  0
 42 43  1  0
 44 45  2  0
 46 47  1  0
 47 48  1  0
M  END
