
     RDKit          3D

 48 52  0  0  0  0  0  0  0  0999 V2000
    4.2420    0.4400   -2.5190 C   0  0  0  0  0  0  0  0  0  0  0  0
    3.0130   -0.2000   -1.8210 C   0  0  1  0  0  0  0  0  0  0  0  0
    3.4390   -0.6820   -0.5590 N   0  0  0  0  0  0  0  0  0  0  0  0
    3.8750    0.2210    0.4910 C   0  0  0  0  0  0  0  0  0  0  0  0
    3.8580    1.4250    0.2400 O   0  0  0  0  0  0  0  0  0  0  0  0
    4.2980   -0.2560    1.7410 N   0  0  0  0  0  0  0  0  0  0  0  0
    4.7370    0.5160    2.8330 C   0  0  0  0  0  0  0  0  0  0  0  0
    4.7970    1.8720    2.8270 C   0  0  0  0  0  0  0  0  0  0  0  0
    5.2390    2.6180    3.9350 C   0  0  0  0  0  0  0  0  0  0  0  0
    5.6220    1.9300    5.0610 C   0  0  0  0  0  0  0  0  0  0  0  0
    5.5660    0.5390    5.0810 C   0  0  0  0  0  0  0  0  0  0  0  0
    5.1330   -0.1670    3.9930 C   0  0  0  0  0  0  0  0  0  0  0  0
    5.0890   -1.5630    4.0450 O   0  0  0  0  0  0  0  0  0  0  0  0
    1.8510    0.7070   -1.8670 C   0  0  1  0  0  0  0  0  0  0  0  0
    1.4210    1.0650   -3.2360 C   0  0  0  0  0  0  0  0  0  0  0  0
    1.1940    2.3590   -3.6730 C   0  0  0  0  0  0  0  0  0  0  0  0
    0.8070    2.6610   -4.9490 C   0  0  0  0  0  0  0  0  0  0  0  0
    0.6220    1.6640   -5.8730 C   0  0  0  0  0  0  0  0  0  0  0  0
    0.8390    0.3660   -5.4760 C   0  0  0  0  0  0  0  0  0  0  0  0
    1.2310    0.0820   -4.1780 C   0  0  0  0  0  0  0  0  0  0  0  0
    0.6900    0.3990   -0.9530 C   0  0  1  0  0  0  0  0  0  0  0  0
   -0.3420    1.4480   -1.1870 C   0  0  0  0  0  0  0  0  0  0  0  0
   -0.4750    2.5760   -0.5100 C   0  0  0  0  0  0  0  0  0  0  0  0
    0.3270    3.0230    0.5720 N   0  0  0  0  0  0  0  0  0  0  0  0
    0.4550    2.4300    1.8590 C   0  0  0  0  0  0  0  0  0  0  0  0
    1.6140    2.1250    2.2490 O   0  0  0  0  0  0  0  0  0  0  0  0
   -0.6600    2.1380    2.7910 C   0  0  2  0  0  0  0  0  0  0  0  0
   -0.8590    0.8380    3.4340 C   0  0  0  0  0  0  0  0  0  0  0  0
   -1.6850    1.2350    2.2670 C   0  0  1  0  0  0  0  0  0  0  0  0
   -3.0730    1.7150    2.4750 C   0  0  0  0  0  0  0  0  0  0  0  0
   -4.0090    1.1060    3.1680 C   0  0  0  0  0  0  0  0  0  0  0  0
   -3.9350   -0.1440    3.8840 C   0  0  0  0  0  0  0  0  0  0  0  0
   -3.7060   -1.3520    3.4360 C   0  0  0  0  0  0  0  0  0  0  0  0
   -3.4670   -1.7570    2.1020 N   0  0  0  0  0  0  0  0  0  0  0  0
   -4.4600   -1.3080    1.1490 C   0  0  0  0  0  0  0  0  0  0  0  0
   -4.4670   -2.2170   -0.0570 C   0  0  0  0  0  0  0  0  0  0  0  0
   -5.1470   -3.4050    0.1210 C   0  0  0  0  0  0  0  0  0  0  0  0
   -5.2300   -4.3380   -0.8820 C   0  0  0  0  0  0  0  0  0  0  0  0
   -4.6160   -4.0710   -2.0870 C   0  0  0  0  0  0  0  0  0  0  0  0
   -3.9310   -2.8600   -2.2440 C   0  0  0  0  0  0  0  0  0  0  0  0
   -3.8490   -1.9160   -1.2280 C   0  0  0  0  0  0  0  0  0  0  0  0
   -3.0950   -0.6770   -1.5370 C   0  0  0  0  0  0  0  0  0  0  0  0
   -1.9710   -0.9390   -2.4550 N   0  0  0  0  0  0  0  0  0  0  0  0
   -2.1270   -0.6940   -3.8780 C   0  0  0  0  0  0  0  0  0  0  0  0
   -0.7100   -1.4560   -2.0120 C   0  0  0  0  0  0  0  0  0  0  0  0
   -0.3180   -2.5530   -2.5870 O   0  0  0  0  0  0  0  0  0  0  0  0
    0.1700   -0.9500   -1.0420 N   0  0  0  0  0  0  0  0  0  0  0  0
    0.6200   -1.9060   -0.0090 C   0  0  0  0  0  0  0  0  0  0  0  0
  2  1  1  1
  2  3  1  0
  2 14  1  0
  3  4  1  0
  4  5  2  0
  4  6  1  0
  6  7  1  0
  7  8  2  0
  7 12  1  0
  8  9  1  0
  9 10  2  0
 10 11  1  0
 11 12  2  0
 12 13  1  0
 14 15  1  6
 14 21  1  0
 15 16  2  0
 15 20  1  0
 16 17  1  0
 17 18  2  0
 18 19  1  0
 19 20  2  0
 21 22  1  0
 21 47  1  6
 22 23  2  0
 23 24  1  0
 24 25  1  0
 25 26  2  0
 25 27  1  0
 27 28  1  1
 27 29  1  0
 29 28  1  1
 29 30  1  0
 30 31  2  0
 31 32  1  0
 32 33  2  0
 33 34  1  0
 34 35  1  0
 35 36  1  0
 36 37  2  0
 36 41  1  0
 37 38  1  0
 38 39  2  0
 39 40  1  0
 40 41  2  0
 41 42  1  0
 42 43  1  0
 43 44  1  0
 43 45  1  0
 45 46  2  0
 45 47  1  0
 47 48  1  0
M  CHG  1  34   1
M  END
