
     RDKit          3D

 40 42  0  0  0  0  0  0  0  0999 V2000
   -1.7730   -0.3850   -3.8760 C   0  0  0  0  0  0  0  0  0  0  0  0
   -3.0370    0.0030   -3.1860 C   0  0  0  0  0  0  0  0  0  0  0  0
   -3.4690   -0.9750   -2.1110 C   0  0  2  0  0  0  0  0  0  0  0  0
   -4.7500   -0.5360   -1.4490 C   0  0  0  0  0  0  0  0  0  0  0  0
   -2.4210   -1.5220   -1.2580 C   0  0  0  0  0  0  0  0  0  0  0  0
   -1.5800   -0.8030   -0.4550 N   0  0  0  0  0  0  0  0  0  0  0  0
   -0.1850   -1.1380   -0.5780 C   0  0  0  0  0  0  0  0  0  0  0  0
    0.1980   -2.5070   -0.1840 C   0  0  1  0  0  0  0  0  0  0  0  0
   -0.3790   -3.5510   -0.8680 O   0  0  0  0  0  0  0  0  0  0  0  0
    1.6950   -2.6560   -0.3650 C   0  0  2  0  0  0  0  0  0  0  0  0
    2.0780   -4.0200    0.0790 C   0  0  0  0  0  0  0  0  0  0  0  0
    1.7790   -4.2900    1.5270 C   0  0  0  0  0  0  0  0  0  0  0  0
    2.7370   -3.9890    2.4980 C   0  0  0  0  0  0  0  0  0  0  0  0
    2.5330   -4.2070    3.8360 C   0  0  0  0  0  0  0  0  0  0  0  0
    1.3540   -4.7410    4.2840 C   0  0  0  0  0  0  0  0  0  0  0  0
    0.4030   -5.0430    3.3430 C   0  0  0  0  0  0  0  0  0  0  0  0
    0.6110   -4.8230    1.9980 C   0  0  0  0  0  0  0  0  0  0  0  0
    2.3130   -1.5650    0.3020 N   0  0  0  0  0  0  0  0  0  0  0  0
    3.1490   -0.5670   -0.2350 C   0  0  0  0  0  0  0  0  0  0  0  0
    3.3840   -0.6430   -1.4540 O   0  0  0  0  0  0  0  0  0  0  0  0
    3.7030    0.4570    0.5040 O   0  0  0  0  0  0  0  0  0  0  0  0
    4.5310    1.4170   -0.0840 C   0  0  0  0  0  0  0  0  0  0  0  0
    3.9050    2.2290   -1.1350 C   0  0  0  0  0  0  0  0  0  0  0  0
    4.7570    3.2210   -1.7420 N   0  0  0  0  0  0  0  0  0  0  0  0
    4.8520    4.5770   -1.1910 C   0  0  0  0  0  0  0  0  0  0  0  0
    6.0960    5.1660   -1.8340 C   0  0  0  0  0  0  0  0  0  0  0  0
    6.4350    4.2560   -2.9120 N   0  0  0  0  0  0  0  0  0  0  0  0
    5.6020    3.1160   -2.8760 C   0  0  0  0  0  0  0  0  0  0  0  0
    5.5720    2.1550   -3.6760 O   0  0  0  0  0  0  0  0  0  0  0  0
   -1.8800   -0.3100    1.1060 S   0  0  2  0  0  0  0  0  0  0  0  0
   -0.6770    0.4790    1.5920 O   0  0  0  0  0  0  0  0  0  0  0  0
   -1.9260   -1.4630    2.1180 O   0  0  0  0  0  0  0  0  0  0  0  0
   -3.2250    0.7620    1.3550 C   0  0  0  0  0  0  0  0  0  0  0  0
   -3.0250    2.1080    1.1350 C   0  0  0  0  0  0  0  0  0  0  0  0
   -4.0260    3.0520    1.3200 C   0  0  0  0  0  0  0  0  0  0  0  0
   -5.2690    2.6590    1.7350 C   0  0  0  0  0  0  0  0  0  0  0  0
   -6.3180    3.5500    1.9400 O   0  0  0  0  0  0  0  0  0  0  0  0
   -6.1000    4.9210    1.7130 C   0  0  0  0  0  0  0  0  0  0  0  0
   -5.4660    1.2910    1.9560 C   0  0  0  0  0  0  0  0  0  0  0  0
   -4.4690    0.3650    1.7710 C   0  0  0  0  0  0  0  0  0  0  0  0
  1  2  1  0
  2  3  1  0
  3  4  1  1
  3  5  1  0
  5  6  1  0
  6  7  1  0
 30  6  1  6
  7  8  1  0
  8  9  1  6
  8 10  1  0
 10 11  1  1
 10 18  1  0
 11 12  1  0
 12 13  2  0
 12 17  1  0
 13 14  1  0
 14 15  2  0
 15 16  1  0
 16 17  2  0
 18 19  1  0
 19 20  2  0
 19 21  1  0
 21 22  1  0
 22 23  1  0
 23 24  1  0
 24 25  1  0
 24 28  1  0
 25 26  1  0
 26 27  1  0
 27 28  1  0
 28 29  2  0
 30 31  2  0
 30 32  2  0
 30 33  1  0
 33 34  2  0
 33 40  1  0
 34 35  1  0
 35 36  2  0
 36 37  1  0
 36 39  1  0
 37 38  1  0
 39 40  2  0
M  END
