
     RDKit          3D

 48 53  0  0  0  0  0  0  0  0999 V2000
   -5.1060   -4.8060    2.0630 N   0  0  0  0  0  0  0  0  0  0  0  0
   -5.3610   -3.5280    2.6120 C   0  0  0  0  0  0  0  0  0  0  0  0
   -6.3420   -3.4340    3.3870 O   0  0  0  0  0  0  0  0  0  0  0  0
   -4.5690   -2.3290    2.3390 C   0  0  0  0  0  0  0  0  0  0  0  0
   -3.4670   -2.5640    1.4350 N   0  0  0  0  0  0  0  0  0  0  0  0
   -2.1700   -2.9390    1.8840 C   0  0  0  0  0  0  0  0  0  0  0  0
   -1.8000   -2.6230    3.0410 O   0  0  0  0  0  0  0  0  0  0  0  0
   -1.3270   -3.6970    0.9280 C   0  0  0  0  0  0  0  0  0  0  0  0
   -1.3610   -3.1980   -0.4710 C   0  0  0  0  0  0  0  0  0  0  0  0
   -2.3900   -2.1220   -0.7410 C   0  0  2  0  0  0  0  0  0  0  0  0
   -1.8900   -0.7760   -0.3630 C   0  0  0  0  0  0  0  0  0  0  0  0
   -0.6620   -0.6350    0.2880 C   0  0  0  0  0  0  0  0  0  0  0  0
   -0.1730    0.5750    0.6900 C   0  0  0  0  0  0  0  0  0  0  0  0
    1.0610    0.8000    1.3420 N   0  0  0  0  0  0  0  0  0  0  0  0
    1.9780   -0.1830    1.7630 C   0  0  0  0  0  0  0  0  0  0  0  0
    1.7440   -1.3770    1.5870 O   0  0  0  0  0  0  0  0  0  0  0  0
    3.2100    0.1480    2.4070 N   0  0  0  0  0  0  0  0  0  0  0  0
    4.1700   -0.8330    2.8570 C   0  0  0  0  0  0  0  0  0  0  0  0
    4.9120   -1.4030    1.7310 C   0  0  0  0  0  0  0  0  0  0  0  0
    4.6150   -2.6590    1.2390 C   0  0  0  0  0  0  0  0  0  0  0  0
    5.3110   -3.2050    0.1790 C   0  0  0  0  0  0  0  0  0  0  0  0
    6.3340   -2.4890   -0.4160 C   0  0  0  0  0  0  0  0  0  0  0  0
    6.6300   -1.2360    0.0740 C   0  0  0  0  0  0  0  0  0  0  0  0
    5.9260   -0.6870    1.1450 C   0  0  0  0  0  0  0  0  0  0  0  0
    7.7200   -0.3730   -0.5010 C   0  0  0  0  0  0  0  0  0  0  0  0
    7.9610   -0.8740   -1.9120 C   0  0  0  0  0  0  0  0  0  0  0  0
    8.3150   -2.3460   -1.8490 C   0  0  0  0  0  0  0  0  0  0  0  0
    7.0590   -3.1240   -1.5550 C   0  0  0  0  0  0  0  0  0  0  0  0
   -0.9740    1.7090    0.4170 C   0  0  0  0  0  0  0  0  0  0  0  0
   -0.4860    2.9240    0.8240 O   0  0  0  0  0  0  0  0  0  0  0  0
   -1.0190    4.1840    0.6660 C   0  0  0  0  0  0  0  0  0  0  0  0
   -1.0420    4.6070   -0.7600 C   0  0  0  0  0  0  0  0  0  0  0  0
   -1.6410    5.9550   -0.9550 C   0  0  0  0  0  0  0  0  0  0  0  0
   -0.9330    7.1310   -0.9230 C   0  0  0  0  0  0  0  0  0  0  0  0
   -1.5800    8.3360   -1.1180 C   0  0  0  0  0  0  0  0  0  0  0  0
   -2.9060    8.3550   -1.3380 N   0  0  0  0  0  0  0  0  0  0  0  0
   -3.6490    7.2210   -1.3780 C   0  0  0  0  0  0  0  0  0  0  0  0
   -2.9960    6.0260   -1.1840 C   0  0  0  0  0  0  0  0  0  0  0  0
   -2.1730    1.5820   -0.2170 C   0  0  0  0  0  0  0  0  0  0  0  0
   -2.6550    0.3310   -0.6220 C   0  0  0  0  0  0  0  0  0  0  0  0
   -3.9410    0.2830   -1.3350 C   0  0  0  0  0  0  0  0  0  0  0  0
   -4.0280   -0.1150   -2.6240 C   0  0  0  0  0  0  0  0  0  0  0  0
   -5.2620   -0.1660   -3.2500 C   0  0  0  0  0  0  0  0  0  0  0  0
   -6.3810    0.1960   -2.5350 C   0  0  0  0  0  0  0  0  0  0  0  0
   -6.3090    0.6050   -1.2210 C   0  0  0  0  0  0  0  0  0  0  0  0
   -5.0640    0.6410   -0.6340 C   0  0  0  0  0  0  0  0  0  0  0  0
   -3.6400   -2.4300    0.0150 C   0  0  0  0  0  0  0  0  0  0  0  0
   -4.7710   -2.5710   -0.4890 O   0  0  0  0  0  0  0  0  0  0  0  0
  1  2  1  0
  2  3  2  0
  2  4  1  0
  4  5  1  0
  5  6  1  0
  5 47  1  0
  6  7  2  0
  6  8  1  0
  8  9  1  0
  9 10  1  0
 10 11  1  1
 10 47  1  0
 11 12  2  0
 11 40  1  0
 12 13  1  0
 13 14  1  0
 13 29  2  0
 14 15  1  0
 15 16  2  0
 15 17  1  0
 17 18  1  0
 18 19  1  0
 19 20  2  0
 19 24  1  0
 20 21  1  0
 21 22  2  0
 22 23  1  0
 22 28  1  0
 23 24  2  0
 23 25  1  0
 25 26  1  0
 26 27  1  0
 27 28  1  0
 29 30  1  0
 29 39  1  0
 30 31  1  0
 31 32  1  0
 32 33  1  0
 33 34  2  0
 33 38  1  0
 34 35  1  0
 35 36  2  0
 36 37  1  0
 37 38  2  0
 39 40  2  0
 40 41  1  0
 41 42  2  0
 41 46  1  0
 42 43  1  0
 43 44  2  0
 44 45  1  0
 45 46  2  0
 47 48  2  0
M  END
