
     RDKit          3D

 40 43  0  0  0  0  0  0  0  0999 V2000
    8.3730    0.9550    3.3770 C   0  0  0  0  0  0  0  0  0  0  0  0
    7.0870    0.5080    2.7910 C   0  0  0  0  0  0  0  0  0  0  0  0
    6.4460    1.1840    1.7790 C   0  0  0  0  0  0  0  0  0  0  0  0
    5.2630    0.7660    1.2370 C   0  0  0  0  0  0  0  0  0  0  0  0
    4.6570   -0.3960    1.7150 C   0  0  0  0  0  0  0  0  0  0  0  0
    3.4570   -0.8770    1.1830 N   0  0  0  0  0  0  0  0  0  0  0  0
    3.4150   -2.1840    0.5890 C   0  0  0  0  0  0  0  0  0  0  0  0
    2.5280   -2.0870   -0.6280 C   0  0  0  0  0  0  0  0  0  0  0  0
    2.3430   -0.8410   -1.1340 O   0  0  0  0  0  0  0  0  0  0  0  0
    1.8870    0.1430   -0.2690 C   0  0  1  0  0  0  0  0  0  0  0  0
    0.5220    0.5290   -0.6780 C   0  0  2  0  0  0  0  0  0  0  0  0
   -0.1560    1.5580    0.1040 N   0  0  0  0  0  0  0  0  0  0  0  0
   -0.9700    2.5990   -0.4130 C   0  0  0  0  0  0  0  0  0  0  0  0
   -0.6110    3.7840    0.0590 O   0  0  0  0  0  0  0  0  0  0  0  0
   -2.0840    2.6040   -1.3260 C   0  0  0  0  0  0  0  0  0  0  0  0
   -1.7850    3.1260   -2.7070 C   0  0  0  0  0  0  0  0  0  0  0  0
   -0.5820    3.6150   -3.1670 N   0  0  0  0  0  0  0  0  0  0  0  0
   -2.7870    3.0970   -3.5070 O   0  0  0  0  0  0  0  0  0  0  0  0
   -3.3700    2.3060   -1.0720 C   0  0  0  0  0  0  0  0  0  0  0  0
   -4.0650    1.9030    0.1400 C   0  0  0  0  0  0  0  0  0  0  0  0
   -5.0220    2.7830    0.5830 C   0  0  0  0  0  0  0  0  0  0  0  0
   -5.3410    4.0530   -0.1150 C   0  0  0  0  0  0  0  0  0  0  0  0
   -6.6370    4.1320   -0.5530 F   0  0  0  0  0  0  0  0  0  0  0  0
   -3.9140    0.6900    0.9220 C   0  0  0  0  0  0  0  0  0  0  0  0
   -3.3850    0.9220    2.6350 Cl  0  0  0  0  0  0  0  0  0  0  0  0
   -4.1090   -0.5700    0.6100 C   0  0  0  0  0  0  0  0  0  0  0  0
   -4.5600   -1.1340   -0.6890 C   0  0  0  0  0  0  0  0  0  0  0  0
   -4.8350   -2.5940   -0.6550 C   0  0  0  0  0  0  0  0  0  0  0  0
   -4.5010   -3.3490   -1.8180 N   0  0  0  0  0  0  0  0  0  0  0  0
   -3.1860   -3.9670   -1.5970 C   0  0  0  0  0  0  0  0  0  0  0  0
   -2.1210   -2.9080   -1.3930 C   0  0  0  0  0  0  0  0  0  0  0  0
   -1.7750   -2.5500   -0.1280 C   0  0  0  0  0  0  0  0  0  0  0  0
   -0.8880   -1.4490    0.0720 C   0  0  0  0  0  0  0  0  0  0  0  0
   -0.3430   -0.7070   -0.9450 C   0  0  0  0  0  0  0  0  0  0  0  0
   -0.7010   -1.0970   -2.2080 C   0  0  0  0  0  0  0  0  0  0  0  0
   -1.5860   -2.1920   -2.4310 C   0  0  0  0  0  0  0  0  0  0  0  0
    2.1820   -0.1260    1.1590 C   0  0  0  0  0  0  0  0  0  0  0  0
    5.2940   -1.0810    2.7340 C   0  0  0  0  0  0  0  0  0  0  0  0
    4.5130   -2.5520    3.3360 Cl  0  0  0  0  0  0  0  0  0  0  0  0
    6.4800   -0.6430    3.2620 C   0  0  0  0  0  0  0  0  0  0  0  0
  1  2  1  0
  2  3  2  0
  2 40  1  0
  3  4  1  0
  4  5  2  0
  5  6  1  0
  5 38  1  0
  6  7  1  0
  6 37  1  0
  7  8  1  0
  8  9  1  0
  9 10  1  0
 10 11  1  0
 10 37  1  1
 11 12  1  1
 11 34  1  0
 12 13  1  0
 13 14  2  0
 13 15  1  0
 15 16  1  0
 15 19  2  0
 16 17  1  0
 16 18  2  0
 19 20  1  0
 20 21  2  3
 20 24  1  0
 21 22  1  0
 22 23  1  0
 24 25  1  0
 24 26  2  0
 26 27  1  0
 27 28  1  0
 28 29  1  0
 29 30  1  0
 30 31  1  0
 31 32  2  0
 31 36  1  0
 32 33  1  0
 33 34  2  0
 34 35  1  0
 35 36  2  0
 38 39  1  0
 38 40  2  0
M  END
