
     RDKit          3D

 40 43  0  0  0  0  0  0  0  0999 V2000
   -5.3150    0.2070   -0.3410 C   0  0  0  0  0  0  0  0  0  0  0  0
   -4.1990    1.0770    0.1680 C   0  0  0  0  0  0  0  0  0  0  0  0
   -3.3690    1.6840   -0.8920 C   0  0  2  0  0  0  0  0  0  0  0  0
   -4.1430    2.5540   -1.8540 C   0  0  0  0  0  0  0  0  0  0  0  0
   -2.4070    0.8090   -1.6180 C   0  0  0  0  0  0  0  0  0  0  0  0
   -1.3960    0.1830   -0.8690 N   0  0  0  0  0  0  0  0  0  0  0  0
   -0.0750    0.6490   -1.1320 C   0  0  0  0  0  0  0  0  0  0  0  0
    0.6790    1.2010    0.0300 C   0  0  1  0  0  0  0  0  0  0  0  0
    0.8360    0.2380    1.0230 O   0  0  0  0  0  0  0  0  0  0  0  0
    2.0820    1.5630   -0.4590 C   0  0  2  0  0  0  0  0  0  0  0  0
    2.0620    2.7680   -1.3830 C   0  0  0  0  0  0  0  0  0  0  0  0
    1.5230    3.9160   -0.6510 C   0  0  0  0  0  0  0  0  0  0  0  0
    2.4010    4.7140    0.0550 C   0  0  0  0  0  0  0  0  0  0  0  0
    1.9750    5.8030    0.7580 C   0  0  0  0  0  0  0  0  0  0  0  0
    0.6250    6.1170    0.7630 C   0  0  0  0  0  0  0  0  0  0  0  0
   -0.2780    5.3500    0.0750 C   0  0  0  0  0  0  0  0  0  0  0  0
    0.1950    4.2400   -0.6350 C   0  0  0  0  0  0  0  0  0  0  0  0
    2.7680    0.4280   -1.0220 N   0  0  0  0  0  0  0  0  0  0  0  0
    3.9260   -0.0870   -0.3730 C   0  0  0  0  0  0  0  0  0  0  0  0
    4.3730    0.4280    0.6930 O   0  0  0  0  0  0  0  0  0  0  0  0
    4.5770   -1.1780   -0.9240 O   0  0  0  0  0  0  0  0  0  0  0  0
    5.7290   -1.7800   -0.3760 C   0  0  0  0  0  0  0  0  0  0  0  0
    5.3990   -2.2900    0.9920 C   0  0  2  0  0  0  0  0  0  0  0  0
    6.5550   -3.0650    1.6030 C   0  0  0  0  0  0  0  0  0  0  0  0
    6.3450   -4.4600    1.0670 C   0  0  0  0  0  0  0  0  0  0  0  0
    4.8600   -4.5670    1.0910 C   0  0  0  0  0  0  0  0  0  0  0  0
    4.1580   -5.6020    1.2500 O   0  0  0  0  0  0  0  0  0  0  0  0
    4.3240   -3.2660    0.8970 N   0  0  0  0  0  0  0  0  0  0  0  0
   -1.4090   -1.4870   -0.6580 S   0  0  1  0  0  0  0  0  0  0  0  0
   -1.3660   -2.1000   -2.0830 O   0  0  0  0  0  0  0  0  0  0  0  0
   -0.0950   -1.9150   -0.0340 O   0  0  0  0  0  0  0  0  0  0  0  0
   -2.7540   -2.1800    0.1630 C   0  0  0  0  0  0  0  0  0  0  0  0
   -2.8150   -2.1970    1.5320 C   0  0  0  0  0  0  0  0  0  0  0  0
   -3.8310   -2.7550    2.2720 C   0  0  0  0  0  0  0  0  0  0  0  0
   -4.8950   -3.3570    1.6120 C   0  0  0  0  0  0  0  0  0  0  0  0
   -5.9630   -3.9470    2.1130 N   0  0  0  0  0  0  0  0  0  0  0  0
   -6.8430   -4.4440    1.6220 C   0  0  0  0  0  0  0  0  0  0  0  0
   -6.3520   -4.1930   -0.2230 S   0  0  0  0  0  0  0  0  0  0  0  0
   -4.8560   -3.3520    0.2420 C   0  0  0  0  0  0  0  0  0  0  0  0
   -3.8170   -2.7810   -0.5000 C   0  0  0  0  0  0  0  0  0  0  0  0
  1  2  1  0
  2  3  1  0
  3  4  1  6
  3  5  1  0
  5  6  1  0
  6  7  1  0
 29  6  1  6
  7  8  1  0
  8  9  1  1
  8 10  1  0
 10 11  1  6
 10 18  1  0
 11 12  1  0
 12 13  2  0
 12 17  1  0
 13 14  1  0
 14 15  2  0
 15 16  1  0
 16 17  2  0
 18 19  1  0
 19 20  2  0
 19 21  1  0
 21 22  1  0
 23 22  1  6
 23 24  1  0
 23 28  1  0
 24 25  1  0
 25 26  1  0
 26 27  2  0
 26 28  1  0
 29 30  2  0
 29 31  2  0
 29 32  1  0
 32 33  2  0
 32 40  1  0
 33 34  1  0
 34 35  2  0
 35 36  1  0
 35 39  1  0
 36 37  2  0
 37 38  1  0
 38 39  1  0
 39 40  2  0
M  END
