
     RDKit          3D

 40 44  0  0  0  0  0  0  0  0999 V2000
   -7.7020    1.8890    1.6120 C   0  0  0  0  0  0  0  0  0  0  0  0
   -6.4250    1.8560    0.8470 C   0  0  0  0  0  0  0  0  0  0  0  0
   -5.7170    3.0030    0.6680 C   0  0  0  0  0  0  0  0  0  0  0  0
   -4.5160    2.9850   -0.0540 C   0  0  0  0  0  0  0  0  0  0  0  0
   -4.0490    1.8080   -0.5830 C   0  0  0  0  0  0  0  0  0  0  0  0
   -4.7650    0.6610   -0.3980 C   0  0  0  0  0  0  0  0  0  0  0  0
   -5.9680    0.6650    0.3220 C   0  0  0  0  0  0  0  0  0  0  0  0
   -6.8680   -0.4800    0.6190 C   0  0  0  0  0  0  0  0  0  0  0  0
   -6.0270   -1.6860    0.5830 N   0  0  0  0  0  0  0  0  0  0  0  0
   -5.9490   -2.1740   -0.7660 C   0  0  2  0  0  0  0  0  0  0  0  0
   -5.5320   -3.6320   -0.7510 C   0  0  0  0  0  0  0  0  0  0  0  0
   -6.5100   -4.3460   -0.0200 O   0  0  0  0  0  0  0  0  0  0  0  0
   -5.1060   -1.3670   -1.6920 C   0  0  0  0  0  0  0  0  0  0  0  0
   -4.0860   -0.4930   -1.0410 C   0  0  1  0  0  0  0  0  0  0  0  0
   -3.2750    0.1840   -2.1360 C   0  0  0  0  0  0  0  0  0  0  0  0
   -2.8480    1.4540   -1.3860 C   0  0  2  0  0  0  0  0  0  0  0  0
   -1.7130    1.1470   -0.5430 N   0  0  0  0  0  0  0  0  0  0  0  0
   -0.4880    1.9050   -0.5770 C   0  0  0  0  0  0  0  0  0  0  0  0
   -0.4820    2.8580   -1.3940 O   0  0  0  0  0  0  0  0  0  0  0  0
    0.5990    1.5880    0.2460 N   0  0  0  0  0  0  0  0  0  0  0  0
    1.8030    2.3100    0.2720 C   0  0  0  0  0  0  0  0  0  0  0  0
    1.8960    3.6030   -0.1750 C   0  0  0  0  0  0  0  0  0  0  0  0
    3.1560    4.2090   -0.1070 C   0  0  0  0  0  0  0  0  0  0  0  0
    4.2670    3.5620    0.3810 C   0  0  0  0  0  0  0  0  0  0  0  0
    5.8390    4.3300    0.4530 Cl  0  0  0  0  0  0  0  0  0  0  0  0
    4.1660    2.2340    0.8390 C   0  0  0  0  0  0  0  0  0  0  0  0
    5.3250    1.6090    1.3520 N   0  0  0  0  0  0  0  0  0  0  0  0
    5.4840    0.2740    1.7490 C   0  0  0  0  0  0  0  0  0  0  0  0
    4.5350   -0.5280    1.6610 O   0  0  0  0  0  0  0  0  0  0  0  0
    6.7630   -0.2680    2.2890 C   0  0  0  0  0  0  0  0  0  0  0  0
    7.3580   -1.2920    1.4180 C   0  0  0  0  0  0  0  0  0  0  0  0
    7.0900   -2.6370    1.4510 C   0  0  0  0  0  0  0  0  0  0  0  0
    7.7110   -3.5200    0.5780 C   0  0  0  0  0  0  0  0  0  0  0  0
    8.6190   -3.0810   -0.3500 C   0  0  0  0  0  0  0  0  0  0  0  0
    9.3210   -3.9730   -1.3230 C   0  0  2  0  0  0  0  0  0  0  0  0
    8.4770   -4.1890   -2.4080 F   0  0  0  0  0  0  0  0  0  0  0  0
    9.9030   -5.4460   -0.5740 Cl  0  0  0  0  0  0  0  0  0  0  0  0
    8.8930   -1.7190   -0.3850 C   0  0  0  0  0  0  0  0  0  0  0  0
    8.2780   -0.8440    0.4780 C   0  0  0  0  0  0  0  0  0  0  0  0
    2.9440    1.6470    0.7730 C   0  0  0  0  0  0  0  0  0  0  0  0
  1  2  1  0
  2  3  2  0
  2  7  1  0
  3  4  1  0
  4  5  2  0
  5  6  1  0
  5 16  1  0
  6  7  2  0
  6 14  1  0
  7  8  1  0
  8  9  1  0
  9 10  1  0
 10 11  1  1
 10 13  1  0
 11 12  1  0
 14 13  1  6
 14 15  1  0
 15 16  1  0
 16 17  1  1
 17 18  1  0
 18 19  2  0
 18 20  1  0
 20 21  1  0
 21 22  2  0
 21 40  1  0
 22 23  1  0
 23 24  2  0
 24 25  1  0
 24 26  1  0
 26 27  1  0
 26 40  2  0
 27 28  1  0
 28 29  2  0
 28 30  1  0
 30 31  1  0
 31 32  2  0
 31 39  1  0
 32 33  1  0
 33 34  2  0
 34 35  1  0
 34 38  1  0
 35 36  1  6
 35 37  1  0
 38 39  2  0
M  END
