
     RDKit          3D

 40 44  0  0  0  0  0  0  0  0999 V2000
    8.8040    0.6010    1.0570 C   0  0  0  0  0  0  0  0  0  0  0  0
    8.0270   -0.4770    0.3970 C   0  0  0  0  0  0  0  0  0  0  0  0
    7.0450   -0.0690   -0.6420 C   0  0  0  0  0  0  0  0  0  0  0  0
    5.9620    0.7970   -0.2780 C   0  0  0  0  0  0  0  0  0  0  0  0
    6.4450    2.2500   -0.1100 C   0  0  0  0  0  0  0  0  0  0  0  0
    4.7030    0.6170   -0.0600 C   0  0  0  0  0  0  0  0  0  0  0  0
    3.7490    1.7200    0.3040 C   0  0  0  0  0  0  0  0  0  0  0  0
    2.5500    1.2160    0.4920 C   0  0  0  0  0  0  0  0  0  0  0  0
    1.5540    2.2790    0.8580 C   0  0  0  0  0  0  0  0  0  0  0  0
    2.4120    3.4370    1.2410 C   0  0  0  0  0  0  0  0  0  0  0  0
    3.7150    3.1920    0.4970 C   0  0  0  0  0  0  0  0  0  0  0  0
    2.5420   -0.2280    0.2900 C   0  0  0  0  0  0  0  0  0  0  0  0
    3.8480   -0.5790   -0.0420 C   0  0  0  0  0  0  0  0  0  0  0  0
    4.0680   -1.9020   -0.2710 C   0  0  0  0  0  0  0  0  0  0  0  0
    5.6560   -2.5250   -0.6090 Cl  0  0  0  0  0  0  0  0  0  0  0  0
    3.0310   -2.8390   -0.1820 C   0  0  0  0  0  0  0  0  0  0  0  0
    1.7580   -2.4910    0.1380 C   0  0  0  0  0  0  0  0  0  0  0  0
    0.6920   -3.5550    0.2340 C   0  0  0  0  0  0  0  0  0  0  0  0
    1.3080   -4.7950   -0.0560 O   0  0  0  0  0  0  0  0  0  0  0  0
    1.5030   -1.1610    0.3800 C   0  0  0  0  0  0  0  0  0  0  0  0
    0.1620   -0.7990    0.7910 C   0  0  0  0  0  0  0  0  0  0  0  0
   -0.1190   -0.3550    1.9570 O   0  0  0  0  0  0  0  0  0  0  0  0
   -0.9030   -0.9350   -0.1330 N   0  0  0  0  0  0  0  0  0  0  0  0
   -2.2740   -0.5840    0.2520 C   0  0  2  0  0  0  0  0  0  0  0  0
   -3.0960   -1.8380    0.1810 C   0  0  0  0  0  0  0  0  0  0  0  0
   -4.1220   -1.6780   -0.9240 C   0  0  0  0  0  0  0  0  0  0  0  0
   -4.9440   -0.4740   -0.5800 C   0  0  0  0  0  0  0  0  0  0  0  0
   -6.2330   -0.6130   -0.3980 C   0  0  0  0  0  0  0  0  0  0  0  0
   -7.1620    0.4380   -0.0640 C   0  0  0  0  0  0  0  0  0  0  0  0
   -6.7800    1.6190    0.0830 O   0  0  0  0  0  0  0  0  0  0  0  0
   -8.5680    0.1380    0.1100 C   0  0  0  0  0  0  0  0  0  0  0  0
   -9.1440   -1.1060   -0.0160 C   0  0  0  0  0  0  0  0  0  0  0  0
  -10.4580   -0.9640    0.2200 N   0  0  0  0  0  0  0  0  0  0  0  0
  -10.7100    0.3020    0.4830 N   0  0  0  0  0  0  0  0  0  0  0  0
   -9.5650    1.0280    0.4270 C   0  0  0  0  0  0  0  0  0  0  0  0
   -9.4670    2.4260    0.6560 N   0  0  0  0  0  0  0  0  0  0  0  0
   -4.2150    0.8080   -0.4690 C   0  0  2  0  0  0  0  0  0  0  0  0
   -4.3420    1.3830    0.7990 F   0  0  0  0  0  0  0  0  0  0  0  0
   -4.6550    1.9650   -1.7360 Cl  0  0  0  0  0  0  0  0  0  0  0  0
   -2.7380    0.4990   -0.6630 C   0  0  0  0  0  0  0  0  0  0  0  0
  1  2  1  0
  2  3  1  0
  3  4  1  0
  4  5  1  0
  4  6  2  3
  6  7  1  0
  6 13  1  0
  7  8  2  0
  7 11  1  0
  8  9  1  0
  8 12  1  0
  9 10  1  0
 10 11  1  0
 12 13  2  0
 12 20  1  0
 13 14  1  0
 14 15  1  0
 14 16  2  0
 16 17  1  0
 17 18  1  0
 17 20  2  0
 18 19  1  0
 20 21  1  0
 21 22  2  0
 21 23  1  0
 24 23  1  6
 24 25  1  0
 24 40  1  0
 25 26  1  0
 26 27  1  0
 27 28  2  3
 27 37  1  0
 28 29  1  0
 29 30  2  0
 29 31  1  0
 31 32  2  0
 31 35  1  0
 32 33  1  0
 33 34  1  0
 34 35  2  0
 35 36  1  0
 37 38  1  1
 37 39  1  0
 37 40  1  0
M  END
