
     RDKit          3D

 40 44  0  0  0  0  0  0  0  0999 V2000
   -2.7440    5.5980   -3.1900 C   0  0  0  0  0  0  0  0  0  0  0  0
   -2.8310    4.0980   -3.1520 C   0  0  0  0  0  0  0  0  0  0  0  0
   -3.7180    3.4670   -3.9890 C   0  0  0  0  0  0  0  0  0  0  0  0
   -3.7920    2.1100   -3.9510 C   0  0  0  0  0  0  0  0  0  0  0  0
   -4.6390    1.4200   -4.7430 F   0  0  0  0  0  0  0  0  0  0  0  0
   -2.9850    1.3710   -3.0830 C   0  0  0  0  0  0  0  0  0  0  0  0
   -2.0970    1.9550   -2.2400 C   0  0  0  0  0  0  0  0  0  0  0  0
   -1.2360    1.3130   -1.2990 N   0  0  0  0  0  0  0  0  0  0  0  0
   -1.2990   -0.0100   -0.8710 C   0  0  0  0  0  0  0  0  0  0  0  0
   -2.2740   -0.6700   -1.4240 O   0  0  0  0  0  0  0  0  0  0  0  0
   -0.4880   -0.7620    0.0610 C   0  0  0  0  0  0  0  0  0  0  0  0
    0.5320   -0.5170    0.8010 C   0  0  0  0  0  0  0  0  0  0  0  0
    1.2260    0.7180    0.9160 N   0  0  0  0  0  0  0  0  0  0  0  0
    2.3670    0.8220    1.8050 C   0  0  0  0  0  0  0  0  0  0  0  0
    2.7210   -0.1780    2.4560 O   0  0  0  0  0  0  0  0  0  0  0  0
    3.0710    2.0390    1.9350 N   0  0  0  0  0  0  0  0  0  0  0  0
    4.2180    2.1940    2.7910 C   0  0  0  0  0  0  0  0  0  0  0  0
    5.3350    1.3690    2.3040 C   0  0  0  0  0  0  0  0  0  0  0  0
    5.2670    0.6290    1.1550 C   0  0  0  0  0  0  0  0  0  0  0  0
    6.3740   -0.1150    0.7370 C   0  0  0  0  0  0  0  0  0  0  0  0
    6.3500   -0.9300   -0.4960 C   0  0  0  0  0  0  0  0  0  0  0  0
    7.5140   -0.0690    1.5180 C   0  0  0  0  0  0  0  0  0  0  0  0
    8.9170   -0.9920    1.0190 Cl  0  0  0  0  0  0  0  0  0  0  0  0
    7.5880    0.6710    2.6700 C   0  0  0  0  0  0  0  0  0  0  0  0
    6.5020    1.3940    3.0710 C   0  0  0  0  0  0  0  0  0  0  0  0
    6.6070    2.3310    4.5350 Cl  0  0  0  0  0  0  0  0  0  0  0  0
    0.9230   -1.6820    1.5450 O   0  0  0  0  0  0  0  0  0  0  0  0
   -0.3250   -2.3860    1.7110 C   0  0  2  0  0  0  0  0  0  0  0  0
   -0.0480   -3.8200    2.0860 C   0  0  0  0  0  0  0  0  0  0  0  0
   -0.8160   -2.2400    0.3010 C   0  0  1  0  0  0  0  0  0  0  0  0
   -2.2460   -2.5050    0.1360 C   0  0  0  0  0  0  0  0  0  0  0  0
   -2.6480   -3.4380   -0.8080 C   0  0  0  0  0  0  0  0  0  0  0  0
   -3.9790   -3.7510   -1.0290 C   0  0  0  0  0  0  0  0  0  0  0  0
   -4.9570   -3.1170   -0.2860 C   0  0  0  0  0  0  0  0  0  0  0  0
   -6.3360   -3.2190   -0.2800 C   0  0  0  0  0  0  0  0  0  0  0  0
   -6.7700   -2.3370    0.6780 C   0  0  0  0  0  0  0  0  0  0  0  0
   -5.7050   -1.7330    1.2230 N   0  0  0  0  0  0  0  0  0  0  0  0
   -4.5580   -2.1870    0.6550 C   0  0  0  0  0  0  0  0  0  0  0  0
   -3.2270   -1.8890    0.8600 C   0  0  0  0  0  0  0  0  0  0  0  0
   -2.0430    3.3560   -2.3010 C   0  0  0  0  0  0  0  0  0  0  0  0
  1  2  1  0
  2  3  2  0
  2 40  1  0
  3  4  1  0
  4  5  1  0
  4  6  2  0
  6  7  1  0
  7  8  1  0
  7 40  2  0
  8  9  1  0
  9 10  2  0
  9 11  1  0
 11 12  2  0
 11 30  1  0
 12 13  1  0
 12 27  1  0
 13 14  1  0
 14 15  2  0
 14 16  1  0
 16 17  1  0
 17 18  1  0
 18 19  2  0
 18 25  1  0
 19 20  1  0
 20 21  1  0
 20 22  2  0
 22 23  1  0
 22 24  1  0
 24 25  2  0
 25 26  1  0
 27 28  1  0
 28 29  1  6
 28 30  1  0
 30 31  1  1
 31 32  2  0
 31 39  1  0
 32 33  1  0
 33 34  2  0
 34 35  1  0
 34 38  1  0
 35 36  2  0
 36 37  1  0
 37 38  1  0
 38 39  2  0
M  END
