
     RDKit          3D

 40 44  0  0  0  0  0  0  0  0999 V2000
   -6.0900    3.4140   -0.5370 C   0  0  0  0  0  0  0  0  0  0  0  0
   -6.3000    2.0260    0.0290 C   0  0  0  0  0  0  0  0  0  0  0  0
   -5.0990    1.6980    0.8810 C   0  0  1  0  0  0  0  0  0  0  0  0
   -5.2390    0.2940    1.4950 C   0  0  0  0  0  0  0  0  0  0  0  0
   -4.0970    0.2130    2.4800 C   0  0  0  0  0  0  0  0  0  0  0  0
   -2.7340    0.3320    1.8400 C   0  0  1  0  0  0  0  0  0  0  0  0
   -2.2350   -1.0120    1.5530 C   0  0  0  0  0  0  0  0  0  0  0  0
   -1.4800   -1.4420    0.5230 C   0  0  0  0  0  0  0  0  0  0  0  0
   -1.1350   -2.8540    0.5130 N   0  0  0  0  0  0  0  0  0  0  0  0
   -1.3440   -3.8000   -0.5210 C   0  0  0  0  0  0  0  0  0  0  0  0
   -2.0570   -4.8760   -0.2740 O   0  0  0  0  0  0  0  0  0  0  0  0
   -0.8550   -3.7520   -1.8930 C   0  0  0  0  0  0  0  0  0  0  0  0
   -1.8580   -3.8050   -2.9950 C   0  0  0  0  0  0  0  0  0  0  0  0
   -3.0030   -2.5010   -3.0860 Cl  0  0  0  0  0  0  0  0  0  0  0  0
    0.4620   -3.7640   -2.1850 C   0  0  0  0  0  0  0  0  0  0  0  0
    1.5220   -3.8350   -1.2850 N   0  0  0  0  0  0  0  0  0  0  0  0
    1.9300   -3.1560   -0.1540 C   0  0  0  0  0  0  0  0  0  0  0  0
    1.8620   -3.7930    0.9710 O   0  0  0  0  0  0  0  0  0  0  0  0
    2.4560   -1.7680   -0.0270 C   0  0  0  0  0  0  0  0  0  0  0  0
    3.4730   -1.5640    0.9270 C   0  0  0  0  0  0  0  0  0  0  0  0
    4.1400   -0.3790    1.0930 C   0  0  0  0  0  0  0  0  0  0  0  0
    3.8130    0.6910    0.2880 C   0  0  0  0  0  0  0  0  0  0  0  0
    4.4770    1.9510    0.3610 N   0  0  0  0  0  0  0  0  0  0  0  0
    5.8670    2.1100    0.5570 C   0  0  0  0  0  0  0  0  0  0  0  0
    6.7860    1.0910    0.4770 C   0  0  0  0  0  0  0  0  0  0  0  0
    8.1380    1.3790    0.6550 C   0  0  0  0  0  0  0  0  0  0  0  0
    9.0090    0.3510    0.5700 F   0  0  0  0  0  0  0  0  0  0  0  0
    8.6010    2.6510    0.9090 C   0  0  0  0  0  0  0  0  0  0  0  0
    7.6830    3.6730    0.9880 C   0  0  0  0  0  0  0  0  0  0  0  0
    6.3510    3.4050    0.8160 C   0  0  0  0  0  0  0  0  0  0  0  0
    5.2290    4.7660    0.9320 Cl  0  0  0  0  0  0  0  0  0  0  0  0
    2.8200    0.4910   -0.6380 C   0  0  0  0  0  0  0  0  0  0  0  0
    2.1140   -0.7250   -0.8210 C   0  0  0  0  0  0  0  0  0  0  0  0
    1.0650   -0.6300   -1.8210 C   0  0  0  0  0  0  0  0  0  0  0  0
    1.5420   -0.5200   -3.0330 O   0  0  0  0  0  0  0  0  0  0  0  0
   -0.3690   -0.6280   -1.6770 N   0  0  0  0  0  0  0  0  0  0  0  0
   -1.2030   -0.5000   -0.5390 C   0  0  0  0  0  0  0  0  0  0  0  0
   -1.7660    0.7260   -0.4010 C   0  0  0  0  0  0  0  0  0  0  0  0
   -2.6170    1.2200    0.6830 C   0  0  1  0  0  0  0  0  0  0  0  0
   -3.9140    1.6090   -0.0070 C   0  0  0  0  0  0  0  0  0  0  0  0
  1  2  1  0
  3  2  1  6
  3  4  1  0
  3 40  1  0
  4  5  1  0
  6  5  1  6
  6  7  1  0
  6 39  1  0
  7  8  2  0
  8  9  1  0
  8 37  1  0
  9 10  1  0
 10 11  2  0
 10 12  1  0
 12 13  1  0
 12 15  2  0
 13 14  1  0
 15 16  1  0
 16 17  1  0
 17 18  2  0
 17 19  1  0
 19 20  2  0
 19 33  1  0
 20 21  1  0
 21 22  2  0
 22 23  1  0
 22 32  1  0
 23 24  1  0
 24 25  2  0
 24 30  1  0
 25 26  1  0
 26 27  1  0
 26 28  2  0
 28 29  1  0
 29 30  2  0
 30 31  1  0
 32 33  2  0
 33 34  1  0
 34 35  2  0
 34 36  1  0
 36 37  1  0
 37 38  2  0
 38 39  1  0
 39 40  1  6
M  END
