
     RDKit          3D

 40 43  0  0  0  0  0  0  0  0999 V2000
    9.3480   -0.5820   -0.0410 C   0  0  0  0  0  0  0  0  0  0  0  0
    7.8640   -0.5500   -0.0360 C   0  0  0  0  0  0  0  0  0  0  0  0
    7.1350   -0.1160   -1.1350 C   0  0  0  0  0  0  0  0  0  0  0  0
    5.7570   -0.0670   -1.1680 C   0  0  0  0  0  0  0  0  0  0  0  0
    5.0710    0.0300   -2.4940 C   0  0  0  0  0  0  0  0  0  0  0  0
    5.0140   -0.4540   -0.0560 C   0  0  0  0  0  0  0  0  0  0  0  0
    5.7310   -0.9030    1.0430 C   0  0  0  0  0  0  0  0  0  0  0  0
    7.0990   -0.9400    1.0400 C   0  0  0  0  0  0  0  0  0  0  0  0
    4.9340   -1.4750    2.1040 C   0  0  0  0  0  0  0  0  0  0  0  0
    5.4720   -1.9150    3.1450 O   0  0  0  0  0  0  0  0  0  0  0  0
    3.4540   -1.5490    1.9750 C   0  0  0  0  0  0  0  0  0  0  0  0
    2.6240   -2.3040    3.3480 Cl  0  0  0  0  0  0  0  0  0  0  0  0
    2.7630   -1.1190    0.9550 C   0  0  0  0  0  0  0  0  0  0  0  0
    1.3990   -1.1510    0.7490 N   0  0  0  0  0  0  0  0  0  0  0  0
    0.3740   -1.6320    1.5750 C   0  0  0  0  0  0  0  0  0  0  0  0
    0.5790   -2.1200    2.6680 O   0  0  0  0  0  0  0  0  0  0  0  0
   -1.0410   -1.5390    1.0860 C   0  0  0  0  0  0  0  0  0  0  0  0
   -1.5860   -2.5690    0.3640 C   0  0  0  0  0  0  0  0  0  0  0  0
   -2.9000   -2.5190   -0.1090 C   0  0  0  0  0  0  0  0  0  0  0  0
   -3.6460   -1.4010    0.1680 C   0  0  0  0  0  0  0  0  0  0  0  0
   -3.1160   -0.3480    0.8960 C   0  0  0  0  0  0  0  0  0  0  0  0
   -1.7990   -0.4280    1.3550 C   0  0  0  0  0  0  0  0  0  0  0  0
   -1.1650    0.9250    2.2720 Cl  0  0  0  0  0  0  0  0  0  0  0  0
   -3.9180    0.7900    1.1620 N   0  0  0  0  0  0  0  0  0  0  0  0
   -5.2910    0.8820    0.7370 C   0  0  1  0  0  0  0  0  0  0  0  0
   -5.6390    2.3260    0.4300 C   0  0  0  0  0  0  0  0  0  0  0  0
   -7.0770    2.4580   -0.0200 C   0  0  1  0  0  0  0  0  0  0  0  0
   -8.0470    1.9750    1.0370 C   0  0  0  0  0  0  0  0  0  0  0  0
   -7.3030    3.8220   -0.2450 O   0  0  0  0  0  0  0  0  0  0  0  0
   -5.5350    0.0610   -0.4850 C   0  0  0  0  0  0  0  0  0  0  0  0
   -5.0490   -1.3640   -0.3440 C   0  0  1  0  0  0  0  0  0  0  0  0
   -5.1020   -2.0500   -1.6860 C   0  0  0  0  0  0  0  0  0  0  0  0
   -5.8880   -2.1550    0.6260 C   0  0  0  0  0  0  0  0  0  0  0  0
    3.5890   -0.4810   -0.2040 C   0  0  0  0  0  0  0  0  0  0  0  0
    2.8760    0.4700   -0.7720 C   0  0  0  0  0  0  0  0  0  0  0  0
    3.2460    1.7650   -1.3340 C   0  0  0  0  0  0  0  0  0  0  0  0
    4.4300    2.4400   -0.7520 C   0  0  0  0  0  0  0  0  0  0  0  0
    4.6690    2.4120    0.6690 N   0  0  0  0  0  0  0  0  0  0  0  0
    5.2510    3.1080   -1.4700 N   0  0  0  0  0  0  0  0  0  0  0  0
    6.3150    3.7110   -0.9270 F   0  0  0  0  0  0  0  0  0  0  0  0
  1  2  1  0
  2  3  2  0
  2  8  1  0
  3  4  1  0
  4  5  1  0
  4  6  2  0
  6  7  1  0
  6 34  1  0
  7  8  2  0
  7  9  1  0
  9 10  2  0
  9 11  1  0
 11 12  1  0
 11 13  2  0
 13 14  1  0
 13 34  1  0
 14 15  1  0
 15 16  2  0
 15 17  1  0
 17 18  2  0
 17 22  1  0
 18 19  1  0
 19 20  2  0
 20 21  1  0
 20 31  1  0
 21 22  2  0
 21 24  1  0
 22 23  1  0
 24 25  1  0
 25 26  1  6
 25 30  1  0
 26 27  1  0
 27 28  1  1
 27 29  1  0
 30 31  1  0
 31 32  1  6
 31 33  1  0
 34 35  2  3
 35 36  1  0
 36 37  1  0
 37 38  1  0
 37 39  2  3
 39 40  1  0
M  END
