
     RDKit          3D

 40 44  0  0  0  0  0  0  0  0999 V2000
    9.6920    3.8500    2.1160 C   0  0  0  0  0  0  0  0  0  0  0  0
    8.5730    2.9580    1.7260 C   0  0  0  0  0  0  0  0  0  0  0  0
    8.5670    2.2970    0.5200 C   0  0  0  0  0  0  0  0  0  0  0  0
    7.5160    1.4590    0.1550 C   0  0  0  0  0  0  0  0  0  0  0  0
    6.4210    1.2280    0.9510 C   0  0  0  0  0  0  0  0  0  0  0  0
    5.3320    0.4000    0.6350 N   0  0  0  0  0  0  0  0  0  0  0  0
    5.1340   -0.3560   -0.5330 C   0  0  0  0  0  0  0  0  0  0  0  0
    5.9980   -0.3270   -1.4340 O   0  0  0  0  0  0  0  0  0  0  0  0
    3.9220   -1.1820   -0.7120 C   0  0  0  0  0  0  0  0  0  0  0  0
    2.7070   -0.5690   -0.5700 C   0  0  0  0  0  0  0  0  0  0  0  0
    1.5710   -1.3130   -0.7210 C   0  0  0  0  0  0  0  0  0  0  0  0
    0.2690   -0.6370   -0.5770 C   0  0  0  0  0  0  0  0  0  0  0  0
    0.1980    0.5910   -0.7180 O   0  0  0  0  0  0  0  0  0  0  0  0
   -0.8630   -1.4140   -0.2830 N   0  0  0  0  0  0  0  0  0  0  0  0
   -2.1640   -0.9200   -0.1250 C   0  0  0  0  0  0  0  0  0  0  0  0
   -2.4980    0.4160   -0.2740 C   0  0  0  0  0  0  0  0  0  0  0  0
   -3.8100    0.8880   -0.1140 C   0  0  0  0  0  0  0  0  0  0  0  0
   -4.1380    2.5920   -0.1760 Cl  0  0  0  0  0  0  0  0  0  0  0  0
   -4.8170    0.0110    0.1990 C   0  0  0  0  0  0  0  0  0  0  0  0
   -4.4320   -1.2840    0.3410 C   0  0  0  0  0  0  0  0  0  0  0  0
   -3.1900   -1.8210    0.2010 C   0  0  0  0  0  0  0  0  0  0  0  0
   -2.9380   -3.2770    0.3260 C   0  0  0  0  0  0  0  0  0  0  0  0
   -4.2370   -4.0120    0.1020 C   0  0  0  0  0  0  0  0  0  0  0  0
   -4.1990   -5.2100   -0.1910 O   0  0  0  0  0  0  0  0  0  0  0  0
   -5.5210   -3.3560    0.2180 N   0  0  0  0  0  0  0  0  0  0  0  0
   -5.5880   -2.0740    0.8440 C   0  0  2  0  0  0  0  0  0  0  0  0
   -6.7010   -1.2360    0.6290 N   0  0  0  0  0  0  0  0  0  0  0  0
   -6.2480    0.1600    0.3550 C   0  0  0  0  0  0  0  0  0  0  0  0
   -7.1130    1.0820    0.1590 C   0  0  0  0  0  0  0  0  0  0  0  0
   -7.1230    2.4440   -0.3360 C   0  0  1  0  0  0  0  0  0  0  0  0
   -8.3700    2.4410   -1.3760 C   0  0  0  0  0  0  0  0  0  0  0  0
   -7.5140    3.4970    0.6810 C   0  0  0  0  0  0  0  0  0  0  0  0
   -6.6490    3.4800    1.7310 F   0  0  0  0  0  0  0  0  0  0  0  0
    1.6480   -2.6450   -1.0080 C   0  0  0  0  0  0  0  0  0  0  0  0
    2.8910   -3.2750   -1.1530 C   0  0  0  0  0  0  0  0  0  0  0  0
    4.0410   -2.5120   -0.9990 C   0  0  0  0  0  0  0  0  0  0  0  0
    5.3550   -3.1930   -1.1630 C   0  0  0  0  0  0  0  0  0  0  0  0
    6.4460    1.9120    2.1800 C   0  0  0  0  0  0  0  0  0  0  0  0
    5.0680    1.6560    3.2490 Cl  0  0  0  0  0  0  0  0  0  0  0  0
    7.4820    2.7350    2.5360 C   0  0  0  0  0  0  0  0  0  0  0  0
  1  2  1  0
  2  3  2  0
  2 40  1  0
  3  4  1  0
  4  5  2  0
  5  6  1  0
  5 38  1  0
  6  7  1  0
  7  8  2  0
  7  9  1  0
  9 10  2  0
  9 36  1  0
 10 11  1  0
 11 12  1  0
 11 34  2  0
 12 13  2  0
 12 14  1  0
 14 15  1  0
 15 16  2  0
 15 21  1  0
 16 17  1  0
 17 18  1  0
 17 19  2  0
 19 20  1  0
 19 28  1  0
 20 21  2  0
 20 26  1  0
 21 22  1  0
 22 23  1  0
 23 24  2  0
 23 25  1  0
 26 25  1  6
 26 27  1  0
 27 28  1  0
 28 29  2  3
 29 30  1  0
 30 31  1  6
 30 32  1  0
 32 33  1  0
 34 35  1  0
 35 36  2  0
 36 37  1  0
 38 39  1  0
 38 40  2  0
M  END
