
     RDKit          3D

 23 25  0  0  0  0  0  0  0  0999 V2000
   -4.0660    0.6080    2.0710 C   0  0  0  0  0  0  0  0  0  0  0  0
   -4.7930    0.0410    1.1780 C   0  0  0  0  0  0  0  0  0  0  0  0
   -4.7240    0.1550   -0.2480 C   0  0  0  0  0  0  0  0  0  0  0  0
   -5.6460   -0.5880   -0.9550 C   0  0  0  0  0  0  0  0  0  0  0  0
   -6.6020   -1.4150   -0.2370 C   0  0  0  0  0  0  0  0  0  0  0  0
   -3.8450    0.9270   -1.0160 N   0  0  0  0  0  0  0  0  0  0  0  0
   -2.6360    1.5550   -0.6420 C   0  0  0  0  0  0  0  0  0  0  0  0
   -1.5110    0.6510   -0.2860 C   0  0  1  0  0  0  0  0  0  0  0  0
   -1.0890   -0.2640   -1.4120 C   0  0  0  0  0  0  0  0  0  0  0  0
    0.0140   -1.1720   -0.9570 C   0  0  0  0  0  0  0  0  0  0  0  0
    1.0570   -0.4230   -0.2300 N   0  0  0  0  0  0  0  0  0  0  0  0
    2.3810   -0.7420   -0.5260 C   0  0  0  0  0  0  0  0  0  0  0  0
    2.5080   -1.7330   -1.3760 O   0  0  0  0  0  0  0  0  0  0  0  0
    3.5720   -0.1580   -0.0460 N   0  0  0  0  0  0  0  0  0  0  0  0
    3.7760    0.9630    0.8080 C   0  0  0  0  0  0  0  0  0  0  0  0
    5.2300    1.3720    0.6850 C   0  0  0  0  0  0  0  0  0  0  0  0
    5.9010    0.1990    0.0590 C   0  0  0  0  0  0  0  0  0  0  0  0
    7.1000   -0.2630   -0.2150 N   0  0  0  0  0  0  0  0  0  0  0  0
    6.9500   -1.5340   -0.8670 C   0  0  0  0  0  0  0  0  0  0  0  0
    5.4960   -1.7650   -0.9330 C   0  0  0  0  0  0  0  0  0  0  0  0
    4.8760   -0.7090   -0.3730 C   0  0  0  0  0  0  0  0  0  0  0  0
    0.6720    0.5430    0.7410 C   0  0  0  0  0  0  0  0  0  0  0  0
   -0.2850    1.5180    0.0270 C   0  0  0  0  0  0  0  0  0  0  0  0
  1  2  2  0
  2  3  1  0
  3  4  2  3
  3  6  1  0
  4  5  1  0
  6  7  1  0
  8  7  1  6
  8  9  1  0
  8 23  1  0
  9 10  1  0
 10 11  1  0
 11 12  1  0
 11 22  1  0
 12 13  2  0
 12 14  1  0
 14 15  1  0
 14 21  1  0
 15 16  1  0
 16 17  1  0
 17 18  2  0
 17 21  1  0
 18 19  1  0
 19 20  1  0
 20 21  2  0
 22 23  1  0
M  END
