
     RDKit          3D

 20 22  0  0  0  0  0  0  0  0999 V2000
    5.0220    1.5790   -1.7160 C   0  0  0  0  0  0  0  0  0  0  0  0
    4.0410    0.7110   -1.0160 C   0  0  0  0  0  0  0  0  0  0  0  0
    2.7180    0.6750   -1.3910 C   0  0  0  0  0  0  0  0  0  0  0  0
    1.7730   -0.1360   -0.7450 C   0  0  0  0  0  0  0  0  0  0  0  0
    2.1450   -0.9380    0.3050 C   0  0  0  0  0  0  0  0  0  0  0  0
    1.2070   -1.8210    1.0340 C   0  0  0  0  0  0  0  0  0  0  0  0
   -0.1290   -1.8420    0.4950 N   0  0  0  0  0  0  0  0  0  0  0  0
   -0.8170   -0.6580    0.9660 C   0  0  2  0  0  0  0  0  0  0  0  0
   -1.5440   -0.9050    2.2660 C   0  0  0  0  0  0  0  0  0  0  0  0
   -2.5850    0.1450    2.1940 C   0  0  0  0  0  0  0  0  0  0  0  0
   -3.0550    0.8010    3.1360 O   0  0  0  0  0  0  0  0  0  0  0  0
   -2.9150    0.2180    0.7750 C   0  0  0  0  0  0  0  0  0  0  0  0
   -1.9070   -0.2420    0.0540 C   0  0  0  0  0  0  0  0  0  0  0  0
   -2.0200   -0.2630   -1.3810 N   0  0  0  0  0  0  0  0  0  0  0  0
   -2.8050    0.7350   -2.0970 C   0  0  0  0  0  0  0  0  0  0  0  0
   -3.8390    1.3190   -1.2050 C   0  0  0  0  0  0  0  0  0  0  0  0
   -4.4570    2.3610   -1.5830 N   0  0  0  0  0  0  0  0  0  0  0  0
   -4.1550    0.7140    0.1010 C   0  0  0  0  0  0  0  0  0  0  0  0
    3.4950   -0.8920    0.6780 C   0  0  0  0  0  0  0  0  0  0  0  0
    4.4140   -0.0930    0.0380 C   0  0  0  0  0  0  0  0  0  0  0  0
  1  2  1  0
  2  3  2  0
  2 20  1  0
  3  4  1  0
  4  5  2  0
  5  6  1  0
  5 19  1  0
  6  7  1  0
  8  7  1  6
  8  9  1  0
  8 13  1  0
  9 10  1  0
 10 11  2  0
 10 12  1  0
 12 13  2  0
 12 18  1  0
 13 14  1  0
 14 15  1  0
 15 16  1  0
 16 17  2  0
 16 18  1  0
 19 20  2  0
M  CHG  1   7   1
M  END
