
     RDKit          3D

 23 26  0  0  0  0  0  0  0  0999 V2000
    6.6130    1.2500    1.2120 C   0  0  0  0  0  0  0  0  0  0  0  0
    6.4080    0.1790    0.1830 C   0  0  0  0  0  0  0  0  0  0  0  0
    5.2620   -0.5910    0.3650 O   0  0  0  0  0  0  0  0  0  0  0  0
    4.0170   -0.0040    0.3630 C   0  0  0  0  0  0  0  0  0  0  0  0
    2.8490   -0.7560    0.5440 C   0  0  0  0  0  0  0  0  0  0  0  0
    1.6200   -0.1310    0.5360 C   0  0  0  0  0  0  0  0  0  0  0  0
    0.4040   -0.8130    0.7510 N   0  0  0  0  0  0  0  0  0  0  0  0
   -0.9190   -0.2870    0.6970 C   0  0  0  0  0  0  0  0  0  0  0  0
   -1.6450   -0.3500   -0.5880 C   0  0  1  0  0  0  0  0  0  0  0  0
   -1.7840   -1.7850   -1.0130 C   0  0  0  0  0  0  0  0  0  0  0  0
   -2.7260   -2.5990   -0.2340 C   0  0  0  0  0  0  0  0  0  0  0  0
   -3.9300   -1.9940    0.3640 C   0  0  0  0  0  0  0  0  0  0  0  0
   -4.0610   -0.5880   -0.0440 C   0  0  0  0  0  0  0  0  0  0  0  0
   -5.3030    0.0660   -0.0080 C   0  0  0  0  0  0  0  0  0  0  0  0
   -5.3860    1.3830   -0.4040 C   0  0  0  0  0  0  0  0  0  0  0  0
   -4.3040    2.0830   -0.8330 N   0  0  0  0  0  0  0  0  0  0  0  0
   -3.0990    1.4960   -0.8820 C   0  0  0  0  0  0  0  0  0  0  0  0
   -3.0340    0.1800   -0.4830 C   0  0  0  0  0  0  0  0  0  0  0  0
   -1.7340    1.9470   -1.3040 C   0  0  0  0  0  0  0  0  0  0  0  0
   -1.1160    0.5780   -1.6410 C   0  0  0  0  0  0  0  0  0  0  0  0
    1.6260    1.1900    0.3500 N   0  0  0  0  0  0  0  0  0  0  0  0
    2.7300    1.9190    0.1760 C   0  0  0  0  0  0  0  0  0  0  0  0
    3.9250    1.3240    0.1820 N   0  0  0  0  0  0  0  0  0  0  0  0
  1  2  1  0
  2  3  1  0
  3  4  1  0
  4  5  2  0
  4 23  1  0
  5  6  1  0
  6  7  1  0
  6 21  2  0
  7  8  1  0
  9  8  1  1
  9 10  1  0
  9 18  1  0
  9 20  1  0
 10 11  1  0
 11 12  1  0
 12 13  1  0
 13 14  2  0
 13 18  1  0
 14 15  1  0
 15 16  2  0
 16 17  1  0
 17 18  2  0
 17 19  1  0
 19 20  1  0
 21 22  1  0
 22 23  2  0
M  END
