
     RDKit          3D

 20 22  0  0  0  0  0  0  0  0999 V2000
   -2.6290   -2.2260    1.6610 C   0  0  0  0  0  0  0  0  0  0  0  0
   -1.6520   -1.5350    0.8180 N   0  0  0  0  0  0  0  0  0  0  0  0
   -0.9360   -0.3520    1.1410 C   0  0  0  0  0  0  0  0  0  0  0  0
   -0.9980    0.3110    2.1830 O   0  0  0  0  0  0  0  0  0  0  0  0
   -0.0900   -0.0760   -0.0500 C   0  0  2  0  0  0  0  0  0  0  0  0
    1.3100   -0.1840    0.3740 C   0  0  0  0  0  0  0  0  0  0  0  0
    1.8650    0.6030    1.3670 C   0  0  0  0  0  0  0  0  0  0  0  0
    3.1820    0.4850    1.7510 C   0  0  0  0  0  0  0  0  0  0  0  0
    4.0000   -0.4400    1.1440 C   0  0  0  0  0  0  0  0  0  0  0  0
    3.4640   -1.2370    0.1490 C   0  0  0  0  0  0  0  0  0  0  0  0
    2.1300   -1.1030   -0.2250 C   0  0  0  0  0  0  0  0  0  0  0  0
   -0.4290    1.2450   -0.6120 C   0  0  0  0  0  0  0  0  0  0  0  0
    0.3460    1.8240   -1.5810 C   0  0  0  0  0  0  0  0  0  0  0  0
   -0.0310    3.0530   -2.0690 C   0  0  0  0  0  0  0  0  0  0  0  0
   -1.1500    3.7270   -1.6290 C   0  0  0  0  0  0  0  0  0  0  0  0
   -1.9160    3.1350   -0.6580 C   0  0  0  0  0  0  0  0  0  0  0  0
   -1.5410    1.8990   -0.1650 C   0  0  0  0  0  0  0  0  0  0  0  0
   -0.4010   -1.1500   -0.9580 N   0  0  0  0  0  0  0  0  0  0  0  0
   -1.2720   -1.9660   -0.4800 C   0  0  0  0  0  0  0  0  0  0  0  0
   -1.8010   -3.1420   -1.1350 N   0  0  0  0  0  0  0  0  0  0  0  0
  1  2  1  0
  2  3  1  0
  2 19  1  0
  3  4  2  0
  3  5  1  0
  5  6  1  1
  5 12  1  0
  5 18  1  0
  6  7  2  0
  6 11  1  0
  7  8  1  0
  8  9  2  0
  9 10  1  0
 10 11  2  0
 12 13  2  0
 12 17  1  0
 13 14  1  0
 14 15  2  0
 15 16  1  0
 16 17  2  0
 18 19  2  0
 19 20  1  0
M  CHG  1  18   1
M  END
