
     RDKit          3D

 23 26  0  0  0  0  0  0  0  0999 V2000
   -0.5820    3.7440   -1.6900 C   0  0  0  0  0  0  0  0  0  0  0  0
   -0.6830    2.6260   -0.6810 C   0  0  0  0  0  0  0  0  0  0  0  0
   -0.9830    1.3070   -1.3930 C   0  0  0  0  0  0  0  0  0  0  0  0
   -1.0850    0.1690   -0.4830 C   0  0  0  0  0  0  0  0  0  0  0  0
   -0.0710   -0.5330    0.1040 C   0  0  0  0  0  0  0  0  0  0  0  0
    1.3020   -0.6750    0.2310 C   0  0  0  0  0  0  0  0  0  0  0  0
    2.3360    0.1010   -0.4090 C   0  0  0  0  0  0  0  0  0  0  0  0
    2.0740    1.0260   -1.1760 O   0  0  0  0  0  0  0  0  0  0  0  0
    3.6910   -0.2070   -0.1510 N   0  0  0  0  0  0  0  0  0  0  0  0
    4.2820   -1.2070    0.6860 C   0  0  0  0  0  0  0  0  0  0  0  0
    5.5940   -0.5780    1.1350 C   0  0  0  0  0  0  0  0  0  0  0  0
    6.0520    0.1500   -0.1130 C   0  0  0  0  0  0  0  0  0  0  0  0
    4.7770    0.5280   -0.7800 C   0  0  0  0  0  0  0  0  0  0  0  0
    1.4410   -1.7170    1.0880 N   0  0  0  0  0  0  0  0  0  0  0  0
    0.2930   -2.1950    1.4730 N   0  0  0  0  0  0  0  0  0  0  0  0
   -0.6600   -1.4860    0.8830 C   0  0  0  0  0  0  0  0  0  0  0  0
   -2.0470   -1.3690    0.7730 C   0  0  0  0  0  0  0  0  0  0  0  0
   -2.2470   -0.3630   -0.0570 N   0  0  0  0  0  0  0  0  0  0  0  0
   -3.6060   -0.0320   -0.3540 C   0  0  0  0  0  0  0  0  0  0  0  0
   -4.6140   -0.6790    0.1550 C   0  0  0  0  0  0  0  0  0  0  0  0
   -6.0370   -0.2850   -0.1930 C   0  0  0  0  0  0  0  0  0  0  0  0
   -4.4770   -1.8050    1.0620 C   0  0  0  0  0  0  0  0  0  0  0  0
   -3.1000   -2.1600    1.4250 C   0  0  0  0  0  0  0  0  0  0  0  0
  1  2  1  0
  2  3  1  0
  3  4  1  0
  4  5  2  0
  4 18  1  0
  5  6  1  0
  5 16  1  0
  6  7  1  0
  6 14  2  0
  7  8  2  0
  7  9  1  0
  9 10  1  0
  9 13  1  0
 10 11  1  0
 11 12  1  0
 12 13  1  0
 14 15  1  0
 15 16  1  0
 16 17  2  0
 17 18  1  0
 17 23  1  0
 18 19  1  0
 19 20  2  0
 20 21  1  0
 20 22  1  0
 22 23  1  0
M  END
