
     RDKit          3D

 23 25  0  0  0  0  0  0  0  0999 V2000
   -2.1790   -3.4170    1.8130 C   0  0  0  0  0  0  0  0  0  0  0  0
   -1.5650   -2.5140    1.0710 C   0  0  0  0  0  0  0  0  0  0  0  0
   -2.1370   -1.2130    0.8050 C   0  0  0  0  0  0  0  0  0  0  0  0
   -1.6520   -0.1840    0.0880 C   0  0  0  0  0  0  0  0  0  0  0  0
   -0.3470   -0.1580   -0.6090 C   0  0  0  0  0  0  0  0  0  0  0  0
    0.5560    0.7200   -0.0370 N   0  0  0  0  0  0  0  0  0  0  0  0
    1.0560    0.3850    1.2620 C   0  0  0  0  0  0  0  0  0  0  0  0
    1.9120   -0.7970    1.4030 C   0  0  0  0  0  0  0  0  0  0  0  0
    3.1620   -0.8280    0.6320 C   0  0  0  0  0  0  0  0  0  0  0  0
    3.6100    0.0980   -0.1990 N   0  0  0  0  0  0  0  0  0  0  0  0
    4.7670   -0.0620   -0.8400 C   0  0  0  0  0  0  0  0  0  0  0  0
    5.5260   -1.1510   -0.6810 N   0  0  0  0  0  0  0  0  0  0  0  0
    5.0760   -2.0950    0.1620 C   0  0  0  0  0  0  0  0  0  0  0  0
    5.7970   -3.1120    0.3030 O   0  0  0  0  0  0  0  0  0  0  0  0
    3.9250   -1.9460    0.8060 N   0  0  0  0  0  0  0  0  0  0  0  0
    1.1220    1.8400   -0.6140 C   0  0  2  0  0  0  0  0  0  0  0  0
    0.2160    3.0170   -0.9920 C   0  0  0  0  0  0  0  0  0  0  0  0
    0.9960    2.2520   -2.0070 C   0  0  0  0  0  0  0  0  0  0  0  0
   -2.7340    0.8150   -0.0220 C   0  0  0  0  0  0  0  0  0  0  0  0
   -3.2160    1.4740   -1.0290 C   0  0  0  0  0  0  0  0  0  0  0  0
   -2.7760    1.3770   -2.4300 C   0  0  0  0  0  0  0  0  0  0  0  0
   -3.3190    0.7720    1.3770 C   0  0  0  0  0  0  0  0  0  0  0  0
   -3.4260   -0.7620    1.4520 C   0  0  0  0  0  0  0  0  0  0  0  0
  1  2  2  0
  2  3  1  0
  3  4  2  0
  3 23  1  0
  4  5  1  0
  4 19  1  0
  5  6  1  0
  6  7  1  0
 16  6  1  6
  7  8  1  0
  8  9  1  0
  9 10  2  0
  9 15  1  0
 10 11  1  0
 11 12  2  0
 12 13  1  0
 13 14  2  0
 13 15  1  0
 16 17  1  0
 16 18  1  0
 17 18  1  0
 19 20  2  3
 19 22  1  0
 20 21  1  0
 22 23  1  0
M  END
