
     RDKit          3D

 23 25  0  0  0  0  0  0  0  0999 V2000
    5.0930    2.1850    0.5780 C   0  0  0  0  0  0  0  0  0  0  0  0
    3.9560    1.2410    0.5380 C   0  0  0  0  0  0  0  0  0  0  0  0
    3.7030    0.3960    1.5990 C   0  0  0  0  0  0  0  0  0  0  0  0
    2.6380   -0.4940    1.5700 C   0  0  0  0  0  0  0  0  0  0  0  0
    2.4210   -1.3450    2.6930 N   0  0  0  0  0  0  0  0  0  0  0  0
    1.8260   -0.5230    0.4550 C   0  0  0  0  0  0  0  0  0  0  0  0
    0.7640   -1.4910    0.3380 C   0  0  0  0  0  0  0  0  0  0  0  0
    1.1310   -2.8140    0.2460 N   0  0  0  0  0  0  0  0  0  0  0  0
    0.0770   -3.5060    0.1720 O   0  0  0  0  0  0  0  0  0  0  0  0
   -0.9940   -2.7600    0.2060 C   0  0  0  0  0  0  0  0  0  0  0  0
   -0.6000   -1.4040    0.3190 C   0  0  0  0  0  0  0  0  0  0  0  0
   -1.6120   -0.3520    0.4290 C   0  0  1  0  0  0  0  0  0  0  0  0
   -1.4840    0.9280   -0.2870 C   0  0  2  0  0  0  0  0  0  0  0  0
   -1.3130    0.7870   -1.7910 C   0  0  0  0  0  0  0  0  0  0  0  0
   -0.5270    1.9320    0.2560 C   0  0  0  0  0  0  0  0  0  0  0  0
   -2.8500    1.6990   -0.2070 C   0  0  0  0  0  0  0  0  0  0  0  0
   -3.1980    1.9400    1.1050 O   0  0  0  0  0  0  0  0  0  0  0  0
   -2.9960   -0.9270    0.4570 C   0  0  0  0  0  0  0  0  0  0  0  0
   -3.1930   -2.0730   -0.4930 C   0  0  0  0  0  0  0  0  0  0  0  0
   -2.3890   -3.2240    0.1390 C   0  0  0  0  0  0  0  0  0  0  0  0
    2.1010    0.3250   -0.5810 C   0  0  0  0  0  0  0  0  0  0  0  0
    3.1500    1.2090   -0.5650 C   0  0  0  0  0  0  0  0  0  0  0  0
    3.3820    2.0280   -1.6120 F   0  0  0  0  0  0  0  0  0  0  0  0
  1  2  1  0
  2  3  2  0
  2 22  1  0
  3  4  1  0
  4  5  1  0
  4  6  2  0
  6  7  1  0
  6 21  1  0
  7  8  2  0
  7 11  1  0
  8  9  1  0
  9 10  1  0
 10 11  2  0
 10 20  1  0
 11 12  1  0
 12 13  1  0
 12 18  1  6
 13 14  1  6
 13 15  1  0
 13 16  1  0
 16 17  1  0
 18 19  1  0
 19 20  1  0
 21 22  2  0
 22 23  1  0
M  END
