
     RDKit          3D

 23 25  0  0  0  0  0  0  0  0999 V2000
   -0.2410   -3.1630   -1.6620 C   0  0  0  0  0  0  0  0  0  0  0  0
   -1.1960   -2.1010   -1.2360 C   0  0  0  0  0  0  0  0  0  0  0  0
   -2.5180   -2.1970   -1.0610 N   0  0  0  0  0  0  0  0  0  0  0  0
   -3.0210   -0.9990   -0.6680 C   0  0  0  0  0  0  0  0  0  0  0  0
   -1.9900   -0.0890   -0.5840 C   0  0  0  0  0  0  0  0  0  0  0  0
   -0.8460   -0.7740   -0.9380 C   0  0  0  0  0  0  0  0  0  0  0  0
    0.5220   -0.2560   -1.0210 C   0  0  0  0  0  0  0  0  0  0  0  0
    1.4550   -1.0170   -1.3850 O   0  0  0  0  0  0  0  0  0  0  0  0
    0.8310    1.1540   -0.6830 C   0  0  0  0  0  0  0  0  0  0  0  0
    2.1910    1.4530   -0.8020 O   0  0  0  0  0  0  0  0  0  0  0  0
    3.2270    0.9080   -0.0900 C   0  0  0  0  0  0  0  0  0  0  0  0
    2.9840   -0.0320    0.8820 C   0  0  0  0  0  0  0  0  0  0  0  0
    4.0460   -0.5800    1.5960 C   0  0  0  0  0  0  0  0  0  0  0  0
    5.3460   -0.1990    1.3510 C   0  0  0  0  0  0  0  0  0  0  0  0
    6.3890   -0.7300    2.0460 F   0  0  0  0  0  0  0  0  0  0  0  0
    5.6060    0.7410    0.3830 C   0  0  0  0  0  0  0  0  0  0  0  0
    6.9400    1.1230    0.1410 N   0  0  0  0  0  0  0  0  0  0  0  0
    4.5450    1.2690   -0.3110 C   0  0  0  0  0  0  0  0  0  0  0  0
   -2.5300    1.2410   -0.1510 C   0  0  0  0  0  0  0  0  0  0  0  0
   -3.7410    0.7710    0.6530 C   0  0  2  0  0  0  0  0  0  0  0  0
   -4.7190    1.8880    0.8790 C   0  0  0  0  0  0  0  0  0  0  0  0
   -3.2840    0.1150    1.9180 C   0  0  0  0  0  0  0  0  0  0  0  0
   -4.2740   -0.2810   -0.2930 C   0  0  0  0  0  0  0  0  0  0  0  0
  1  2  1  0
  2  3  1  0
  2  6  2  0
  3  4  1  0
  4  5  2  0
  4 23  1  0
  5  6  1  0
  5 19  1  0
  6  7  1  0
  7  8  2  0
  7  9  1  0
  9 10  1  0
 10 11  1  0
 11 12  2  0
 11 18  1  0
 12 13  1  0
 13 14  2  0
 14 15  1  0
 14 16  1  0
 16 17  1  0
 16 18  2  0
 19 20  1  0
 20 21  1  1
 20 22  1  0
 20 23  1  0
M  END
