
     RDKit          3D

 28 31  0  0  0  0  0  0  0  0999 V2000
    4.2140    3.0350    0.3030 C   0  0  0  0  0  0  0  0  0  0  0  0
    5.0580    1.9400    0.5120 O   0  0  0  0  0  0  0  0  0  0  0  0
    4.6840    0.6140    0.3990 C   0  0  0  0  0  0  0  0  0  0  0  0
    5.6330   -0.3580    0.6370 C   0  0  0  0  0  0  0  0  0  0  0  0
    5.3410   -1.7120    0.5450 C   0  0  0  0  0  0  0  0  0  0  0  0
    4.0520   -2.0990    0.2030 C   0  0  0  0  0  0  0  0  0  0  0  0
    3.0820   -1.1490   -0.0410 C   0  0  0  0  0  0  0  0  0  0  0  0
    1.7120   -1.5110   -0.4080 C   0  0  0  0  0  0  0  0  0  0  0  0
    1.4300   -2.6530   -1.1440 C   0  0  0  0  0  0  0  0  0  0  0  0
    0.1520   -3.0070   -1.4980 C   0  0  0  0  0  0  0  0  0  0  0  0
   -0.9000   -2.2010   -1.1100 C   0  0  0  0  0  0  0  0  0  0  0  0
   -0.6770   -1.0590   -0.3800 C   0  0  0  0  0  0  0  0  0  0  0  0
   -1.8230   -0.2230    0.0160 C   0  0  1  0  0  0  0  0  0  0  0  0
   -1.7050    1.1690   -0.4370 C   0  0  0  0  0  0  0  0  0  0  0  0
   -1.6160    2.2030    0.4630 C   0  0  0  0  0  0  0  0  0  0  0  0
   -1.5010    3.5330    0.0350 C   0  0  0  0  0  0  0  0  0  0  0  0
   -1.4750    3.8390   -1.3080 C   0  0  0  0  0  0  0  0  0  0  0  0
   -1.5660    2.7880   -2.2020 C   0  0  0  0  0  0  0  0  0  0  0  0
   -1.6790    1.4760   -1.7720 C   0  0  0  0  0  0  0  0  0  0  0  0
   -3.0190   -0.7710   -0.6450 N   0  0  0  0  0  0  0  0  0  0  0  0
   -3.8910   -1.1400    0.1980 C   0  0  0  0  0  0  0  0  0  0  0  0
   -5.1520   -1.7090   -0.1640 N   0  0  0  0  0  0  0  0  0  0  0  0
   -3.4770   -0.9340    1.5240 N   0  0  0  0  0  0  0  0  0  0  0  0
   -4.2400   -1.2490    2.7180 C   0  0  0  0  0  0  0  0  0  0  0  0
   -2.1580   -0.3560    1.4410 C   0  0  0  0  0  0  0  0  0  0  0  0
   -1.5290   -0.0700    2.4860 O   0  0  0  0  0  0  0  0  0  0  0  0
    0.6300   -0.7380   -0.0440 C   0  0  0  0  0  0  0  0  0  0  0  0
    3.4150    0.1990    0.0620 C   0  0  0  0  0  0  0  0  0  0  0  0
  1  2  1  0
  2  3  1  0
  3  4  2  0
  3 28  1  0
  4  5  1  0
  5  6  2  0
  6  7  1  0
  7  8  1  0
  7 28  2  0
  8  9  2  0
  8 27  1  0
  9 10  1  0
 10 11  2  0
 11 12  1  0
 13 12  1  1
 12 27  2  0
 13 14  1  0
 13 20  1  0
 13 25  1  0
 14 15  2  0
 14 19  1  0
 15 16  1  0
 16 17  2  0
 17 18  1  0
 18 19  2  0
 20 21  2  0
 21 22  1  0
 21 23  1  0
 23 24  1  0
 23 25  1  0
 25 26  2  0
M  CHG  1  20   1
M  END
