
     RDKit          3D

 23 25  0  0  0  0  0  0  0  0999 V2000
    5.6840   -1.2870   -0.6940 C   0  0  0  0  0  0  0  0  0  0  0  0
    4.3420   -1.0810   -0.0900 C   0  0  0  0  0  0  0  0  0  0  0  0
    4.1570   -1.2670    1.2650 C   0  0  0  0  0  0  0  0  0  0  0  0
    2.9110   -1.0780    1.8390 C   0  0  0  0  0  0  0  0  0  0  0  0
    2.6660   -1.2500    3.1930 O   0  0  0  0  0  0  0  0  0  0  0  0
    1.8540   -0.6990    1.0300 C   0  0  0  0  0  0  0  0  0  0  0  0
    2.0050   -0.5080   -0.3110 C   0  0  0  0  0  0  0  0  0  0  0  0
    0.8660   -0.0970   -1.1620 C   0  0  0  0  0  0  0  0  0  0  0  0
    0.9950   -0.1700   -2.4090 O   0  0  0  0  0  0  0  0  0  0  0  0
   -0.3530    0.3710   -0.6350 N   0  0  0  0  0  0  0  0  0  0  0  0
   -1.4870    0.7920   -1.3550 C   0  0  0  0  0  0  0  0  0  0  0  0
   -1.4020    1.1960   -2.6920 C   0  0  0  0  0  0  0  0  0  0  0  0
   -2.4880    1.7080   -3.3770 C   0  0  0  0  0  0  0  0  0  0  0  0
   -3.6920    1.8390   -2.7640 C   0  0  0  0  0  0  0  0  0  0  0  0
   -3.7890    1.4380   -1.4320 C   0  0  0  0  0  0  0  0  0  0  0  0
   -5.0070    1.5630   -0.8250 F   0  0  0  0  0  0  0  0  0  0  0  0
   -2.7300    0.9220   -0.7180 C   0  0  0  0  0  0  0  0  0  0  0  0
   -2.8980    0.4160    0.6550 C   0  0  0  0  0  0  0  0  0  0  0  0
   -3.9540    0.6180    1.4100 C   0  0  0  0  0  0  0  0  0  0  0  0
   -3.7410   -0.0650    2.7360 C   0  0  0  0  0  0  0  0  0  0  0  0
   -2.4320   -0.6740    2.5750 C   0  0  0  0  0  0  0  0  0  0  0  0
   -1.9870   -0.3900    1.4170 N   0  0  0  0  0  0  0  0  0  0  0  0
    3.2480   -0.6980   -0.8740 C   0  0  0  0  0  0  0  0  0  0  0  0
  1  2  1  0
  2  3  2  0
  2 23  1  0
  3  4  1  0
  4  5  1  0
  4  6  2  0
  6  7  1  0
  7  8  1  0
  7 23  2  0
  8  9  2  0
  8 10  1  0
 10 11  1  0
 11 12  2  0
 11 17  1  0
 12 13  1  0
 13 14  2  0
 14 15  1  0
 15 16  1  0
 15 17  2  0
 17 18  1  0
 18 19  2  0
 18 22  1  0
 19 20  1  0
 20 21  1  0
 21 22  2  0
M  END
