
     RDKit          3D

 25 27  0  0  0  0  0  0  0  0999 V2000
    7.4480   -0.2170   -0.8000 C   0  0  0  0  0  0  0  0  0  0  0  0
    6.6440   -0.9790   -0.0740 C   0  0  0  0  0  0  0  0  0  0  0  0
    5.4280   -1.6200   -0.6010 C   0  0  0  0  0  0  0  0  0  0  0  0
    4.2560   -1.2200    0.0620 O   0  0  0  0  0  0  0  0  0  0  0  0
    3.8080    0.0900    0.1200 C   0  0  0  0  0  0  0  0  0  0  0  0
    4.4770    1.0940   -0.4680 N   0  0  0  0  0  0  0  0  0  0  0  0
    4.0380    2.3610   -0.4090 C   0  0  0  0  0  0  0  0  0  0  0  0
    2.8700    2.6220    0.2750 C   0  0  0  0  0  0  0  0  0  0  0  0
    2.1990    1.6170    0.8630 N   0  0  0  0  0  0  0  0  0  0  0  0
    2.6410    0.3500    0.8030 C   0  0  0  0  0  0  0  0  0  0  0  0
    1.8830   -0.7210    1.4570 C   0  0  0  0  0  0  0  0  0  0  0  0
    0.8110   -0.4700    2.0830 N   0  0  0  0  0  0  0  0  0  0  0  0
    0.2100    0.7940    2.2430 C   0  0  0  0  0  0  0  0  0  0  0  0
   -0.9500    1.1800    1.8250 C   0  0  0  0  0  0  0  0  0  0  0  0
   -1.8840    0.3040    1.0690 C   0  0  0  0  0  0  0  0  0  0  0  0
   -1.6880   -1.0050    0.7000 C   0  0  0  0  0  0  0  0  0  0  0  0
   -2.8310   -1.3950    0.0160 C   0  0  0  0  0  0  0  0  0  0  0  0
   -3.6910   -0.2910   -0.0050 C   0  0  0  0  0  0  0  0  0  0  0  0
   -5.0010   -0.2700   -0.6240 C   0  0  0  0  0  0  0  0  0  0  0  0
   -5.4880   -1.3870   -1.2510 C   0  0  0  0  0  0  0  0  0  0  0  0
   -6.7310   -1.4030   -1.8510 C   0  0  0  0  0  0  0  0  0  0  0  0
   -7.4860   -0.2600   -1.8080 C   0  0  0  0  0  0  0  0  0  0  0  0
   -7.0190    0.8960   -1.1760 C   0  0  0  0  0  0  0  0  0  0  0  0
   -5.7560    0.8670   -0.5830 C   0  0  0  0  0  0  0  0  0  0  0  0
   -3.0610    0.6580    0.6310 O   0  0  0  0  0  0  0  0  0  0  0  0
  1  2  2  0
  2  3  1  0
  3  4  1  0
  4  5  1  0
  5  6  2  0
  5 10  1  0
  6  7  1  0
  7  8  2  0
  8  9  1  0
  9 10  2  0
 10 11  1  0
 11 12  2  3
 12 13  1  0
 13 14  2  3
 14 15  1  0
 15 16  2  0
 15 25  1  0
 16 17  1  0
 17 18  2  0
 18 19  1  0
 18 25  1  0
 19 20  2  0
 19 24  1  0
 20 21  1  0
 21 22  2  0
 22 23  1  0
 23 24  2  0
M  END
