
     RDKit          3D

 25 26  0  0  0  0  0  0  0  0999 V2000
    2.8180    0.9850    0.7700 C   0  0  0  0  0  0  0  0  0  0  0  0
    2.0580    0.3970   -0.2930 O   0  0  0  0  0  0  0  0  0  0  0  0
    1.6660   -0.9280   -0.2330 C   0  0  0  0  0  0  0  0  0  0  0  0
    0.3750   -1.4040    0.1640 C   0  0  0  0  0  0  0  0  0  0  0  0
   -0.6840   -0.8080    0.5070 C   0  0  0  0  0  0  0  0  0  0  0  0
   -0.9450    0.6060    0.6050 C   0  0  0  0  0  0  0  0  0  0  0  0
   -0.1320    1.5160    0.3290 O   0  0  0  0  0  0  0  0  0  0  0  0
   -2.2290    1.0980    1.0520 N   0  0  0  0  0  0  0  0  0  0  0  0
   -3.2350    0.1470    1.4260 C   0  0  0  0  0  0  0  0  0  0  0  0
   -4.0420   -0.3460    0.2810 C   0  0  0  0  0  0  0  0  0  0  0  0
   -3.7220    0.0100   -0.9880 C   0  0  0  0  0  0  0  0  0  0  0  0
   -4.4610   -0.4410   -2.0210 N   0  0  0  0  0  0  0  0  0  0  0  0
   -5.5090   -1.2450   -1.7390 C   0  0  0  0  0  0  0  0  0  0  0  0
   -5.8420   -1.6100   -0.4630 C   0  0  0  0  0  0  0  0  0  0  0  0
   -5.0860   -1.1460    0.5630 N   0  0  0  0  0  0  0  0  0  0  0  0
   -2.4470    2.4990    1.1070 C   0  0  1  0  0  0  0  0  0  0  0  0
   -3.6320    3.0020    0.3400 C   0  0  0  0  0  0  0  0  0  0  0  0
   -2.6630    2.9280    2.5610 C   0  0  0  0  0  0  0  0  0  0  0  0
    2.6150   -1.8480   -0.5880 C   0  0  0  0  0  0  0  0  0  0  0  0
    3.9130   -1.4190   -0.9950 C   0  0  0  0  0  0  0  0  0  0  0  0
    4.8310   -2.3460   -1.3280 C   0  0  0  0  0  0  0  0  0  0  0  0
    6.1620   -1.9500   -1.7470 C   0  0  0  0  0  0  0  0  0  0  0  0
    7.2400   -2.6060   -2.1230 C   0  0  0  0  0  0  0  0  0  0  0  0
    7.9760   -1.3620   -2.3160 C   0  0  0  0  0  0  0  0  0  0  0  0
    6.8810   -0.7040   -1.9360 C   0  0  0  0  0  0  0  0  0  0  0  0
  1  2  1  0
  2  3  1  0
  3  4  1  0
  3 19  2  3
  4  5  2  3
  5  6  1  0
  6  7  2  0
  6  8  1  0
  8  9  1  0
  8 16  1  0
  9 10  1  0
 10 11  2  0
 10 15  1  0
 11 12  1  0
 12 13  2  0
 13 14  1  0
 14 15  2  0
 16 17  1  6
 16 18  1  0
 19 20  1  0
 20 21  2  3
 21 22  1  0
 22 23  2  0
 22 25  1  0
 23 24  1  0
 24 25  2  0
M  END
