
     RDKit          3D

 18 19  0  0  0  0  0  0  0  0999 V2000
    5.9480    0.2100    1.5170 C   0  0  0  0  0  0  0  0  0  0  0  0
    5.0660   -1.0210    1.5680 C   0  0  0  0  0  0  0  0  0  0  0  0
    4.3770   -1.1330    0.3130 O   0  0  0  0  0  0  0  0  0  0  0  0
    3.5310   -0.1220   -0.1290 C   0  0  0  0  0  0  0  0  0  0  0  0
    3.3960    0.8740    0.5990 O   0  0  0  0  0  0  0  0  0  0  0  0
    2.8290   -0.1780   -1.3530 N   0  0  0  0  0  0  0  0  0  0  0  0
    1.9430    0.8680   -1.8280 C   0  0  0  0  0  0  0  0  0  0  0  0
    0.7950    1.1340   -0.9050 C   0  0  0  0  0  0  0  0  0  0  0  0
   -0.0960   -0.0410   -0.6700 C   0  0  2  0  0  0  0  0  0  0  0  0
   -0.7420   -0.5860   -1.8970 C   0  0  0  0  0  0  0  0  0  0  0  0
   -2.1280   -0.9300   -1.3830 C   0  0  0  0  0  0  0  0  0  0  0  0
   -2.3910    0.2690   -0.4950 C   0  0  1  0  0  0  0  0  0  0  0  0
   -3.5650    0.0710    0.3860 C   0  0  0  0  0  0  0  0  0  0  0  0
   -4.6370    0.8470    0.3670 C   0  0  0  0  0  0  0  0  0  0  0  0
   -5.6420    0.3890    1.3710 C   0  0  0  0  0  0  0  0  0  0  0  0
   -4.9680   -0.7810    1.9700 C   0  0  0  0  0  0  0  0  0  0  0  0
   -3.8000   -0.9360    1.3970 C   0  0  0  0  0  0  0  0  0  0  0  0
   -1.1480    0.3620    0.2440 N   0  0  0  0  0  0  0  0  0  0  0  0
  1  2  1  0
  2  3  1  0
  3  4  1  0
  4  5  2  0
  4  6  1  0
  6  7  1  0
  7  8  1  0
  9  8  1  6
  9 10  1  0
  9 18  1  0
 10 11  1  0
 11 12  1  0
 12 13  1  1
 12 18  1  0
 13 14  2  0
 13 17  1  0
 14 15  1  0
 15 16  1  0
 16 17  2  0
M  CHG  1  18   1
M  END
