
     RDKit          3D

 18 19  0  0  0  0  0  0  0  0999 V2000
    4.0220    1.4860    1.2420 C   0  0  0  0  0  0  0  0  0  0  0  0
    3.1110    0.3760    1.6430 C   0  0  0  0  0  0  0  0  0  0  0  0
    2.0160    0.1890    0.7830 O   0  0  0  0  0  0  0  0  0  0  0  0
    2.1360   -0.1170   -0.5680 C   0  0  0  0  0  0  0  0  0  0  0  0
    3.1730   -0.7630   -1.0360 C   0  0  0  0  0  0  0  0  0  0  0  0
    3.4240   -1.1450   -2.4090 C   0  0  0  0  0  0  0  0  0  0  0  0
    4.4630   -1.7700   -2.7610 O   0  0  0  0  0  0  0  0  0  0  0  0
    1.0180    0.3350   -1.4320 C   0  0  0  0  0  0  0  0  0  0  0  0
   -0.2400   -0.2290   -1.0620 N   0  0  0  0  0  0  0  0  0  0  0  0
   -0.4000   -1.6230   -1.2650 C   0  0  0  0  0  0  0  0  0  0  0  0
   -1.8880   -1.9410   -1.1290 C   0  0  0  0  0  0  0  0  0  0  0  0
   -2.2100   -1.7780    0.3340 C   0  0  0  0  0  0  0  0  0  0  0  0
   -1.5890   -0.5740    0.9600 C   0  0  2  0  0  0  0  0  0  0  0  0
   -2.6490    0.0990    1.8050 C   0  0  0  0  0  0  0  0  0  0  0  0
   -3.5510    0.9990    0.9880 C   0  0  0  0  0  0  0  0  0  0  0  0
   -2.6750    2.0550    0.4570 N   0  0  0  0  0  0  0  0  0  0  0  0
   -1.8540    1.4320   -0.5450 C   0  0  0  0  0  0  0  0  0  0  0  0
   -0.9270    0.3660    0.0200 C   0  0  2  0  0  0  0  0  0  0  0  0
  1  2  1  0
  2  3  1  0
  3  4  1  0
  4  5  2  3
  4  8  1  0
  5  6  1  0
  6  7  2  0
  8  9  1  0
  9 10  1  0
  9 18  1  0
 10 11  1  0
 11 12  1  0
 13 12  1  6
 13 14  1  0
 13 18  1  0
 14 15  1  0
 15 16  1  0
 16 17  1  0
 18 17  1  6
M  CHG  1  16   1
M  END
