
     RDKit          3D

 26 29  0  0  0  0  0  0  0  0999 V2000
   -2.8350   -2.9430    1.9050 C   0  0  0  0  0  0  0  0  0  0  0  0
   -2.4000   -1.9900    0.8930 N   0  0  0  0  0  0  0  0  0  0  0  0
   -1.4250   -0.9660    1.0000 C   0  0  0  0  0  0  0  0  0  0  0  0
   -0.7550   -0.7200    2.0360 O   0  0  0  0  0  0  0  0  0  0  0  0
   -1.3720   -0.2860   -0.3160 C   0  0  1  0  0  0  0  0  0  0  0  0
   -1.7030    1.1610   -0.2400 C   0  0  0  0  0  0  0  0  0  0  0  0
   -1.8170    1.8650   -1.4270 C   0  0  0  0  0  0  0  0  0  0  0  0
   -2.1230    3.2120   -1.4430 C   0  0  0  0  0  0  0  0  0  0  0  0
   -2.3310    3.9220   -0.2850 C   0  0  0  0  0  0  0  0  0  0  0  0
   -2.2180    3.2180    0.9130 C   0  0  0  0  0  0  0  0  0  0  0  0
   -1.9070    1.8520    0.9300 C   0  0  0  0  0  0  0  0  0  0  0  0
   -0.0120   -0.4620   -0.8490 C   0  0  0  0  0  0  0  0  0  0  0  0
    0.1850   -1.0440   -2.0690 C   0  0  0  0  0  0  0  0  0  0  0  0
    1.4770   -1.2170   -2.5920 C   0  0  0  0  0  0  0  0  0  0  0  0
    2.5390   -0.7850   -1.8400 C   0  0  0  0  0  0  0  0  0  0  0  0
    2.3740   -0.1920   -0.6020 C   0  0  0  0  0  0  0  0  0  0  0  0
    3.4830    0.2730    0.2130 C   0  0  0  0  0  0  0  0  0  0  0  0
    4.6990   -0.3720    0.1690 C   0  0  0  0  0  0  0  0  0  0  0  0
    5.7590    0.0800    0.9540 C   0  0  0  0  0  0  0  0  0  0  0  0
    5.5680    1.1630    1.7560 C   0  0  0  0  0  0  0  0  0  0  0  0
    4.4040    1.8080    1.8210 N   0  0  0  0  0  0  0  0  0  0  0  0
    3.3950    1.3570    1.0570 C   0  0  0  0  0  0  0  0  0  0  0  0
    1.0660   -0.0400   -0.1200 C   0  0  0  0  0  0  0  0  0  0  0  0
   -2.3590   -1.0010   -1.1170 N   0  0  0  0  0  0  0  0  0  0  0  0
   -2.9150   -1.9380   -0.4290 C   0  0  0  0  0  0  0  0  0  0  0  0
   -3.9330   -2.8180   -0.9420 N   0  0  0  0  0  0  0  0  0  0  0  0
  1  2  1  0
  2  3  1  0
  2 25  1  0
  3  4  2  0
  3  5  1  0
  5  6  1  1
  5 12  1  0
  5 24  1  0
  6  7  2  0
  6 11  1  0
  7  8  1  0
  8  9  2  0
  9 10  1  0
 10 11  2  0
 12 13  2  0
 12 23  1  0
 13 14  1  0
 14 15  2  0
 15 16  1  0
 16 17  1  0
 16 23  2  0
 17 18  2  0
 17 22  1  0
 18 19  1  0
 19 20  2  0
 20 21  1  0
 21 22  2  0
 24 25  2  0
 25 26  1  0
M  CHG  1  24   1
M  END
