
     RDKit          3D

 18 19  0  0  0  0  0  0  0  0999 V2000
    4.7290   -1.0540   -0.8380 C   0  0  0  0  0  0  0  0  0  0  0  0
    4.3110    0.3310   -0.9430 N   0  0  0  0  0  0  0  0  0  0  0  0
    4.5760    1.0440    0.2630 C   0  0  0  0  0  0  0  0  0  0  0  0
    3.2700    1.2910    0.9300 C   0  0  0  0  0  0  0  0  0  0  0  0
    2.2730    1.3290   -0.2380 C   0  0  2  0  0  0  0  0  0  0  0  0
    1.0730    0.7570    0.2550 N   0  0  0  0  0  0  0  0  0  0  0  0
    0.1000    0.4230   -0.7720 C   0  0  0  0  0  0  0  0  0  0  0  0
   -0.9640   -0.3410   -0.0370 C   0  0  1  0  0  0  0  0  0  0  0  0
   -1.6090    0.4580    1.0600 C   0  0  0  0  0  0  0  0  0  0  0  0
   -2.9060   -0.3150    1.2130 C   0  0  1  0  0  0  0  0  0  0  0  0
   -2.7240   -1.1880    2.4620 C   0  0  0  0  0  0  0  0  0  0  0  0
   -4.0020    0.6680    1.4990 C   0  0  0  0  0  0  0  0  0  0  0  0
   -3.0890   -1.0630    0.0870 O   0  0  0  0  0  0  0  0  0  0  0  0
   -2.1350   -0.7470   -0.8500 C   0  0  2  0  0  0  0  0  0  0  0  0
   -1.7540   -1.9390   -1.7000 C   0  0  0  0  0  0  0  0  0  0  0  0
   -2.6750    0.3520   -1.7310 C   0  0  0  0  0  0  0  0  0  0  0  0
   -3.8320   -0.1310   -2.3410 O   0  0  0  0  0  0  0  0  0  0  0  0
    2.9200    0.4660   -1.2660 C   0  0  0  0  0  0  0  0  0  0  0  0
  1  2  1  0
  2  3  1  0
  2 18  1  0
  3  4  1  0
  4  5  1  0
  5  6  1  1
  5 18  1  0
  6  7  1  0
  8  7  1  6
  8  9  1  0
  8 14  1  0
  9 10  1  0
 10 11  1  1
 10 12  1  0
 10 13  1  0
 13 14  1  0
 14 15  1  6
 14 16  1  0
 16 17  1  0
M  CHG  1   6   1
M  END
