
     RDKit          3D

 17 18  0  0  0  0  0  0  0  0999 V2000
    3.9150   -0.2790    0.5320 C   0  0  0  0  0  0  0  0  0  0  0  0
    2.9740   -0.8650   -0.4310 C   0  0  2  0  0  0  0  0  0  0  0  0
    3.7030   -1.2860   -1.7180 C   0  0  0  0  0  0  0  0  0  0  0  0
    1.6970   -0.1740   -0.7570 C   0  0  0  0  0  0  0  0  0  0  0  0
    0.7150    0.0520    0.3350 C   0  0  1  0  0  0  0  0  0  0  0  0
    1.2740    0.9420    1.3970 C   0  0  0  0  0  0  0  0  0  0  0  0
    1.6730    2.1370    0.7550 O   0  0  0  0  0  0  0  0  0  0  0  0
    0.6840    2.7270    0.0220 C   0  0  0  0  0  0  0  0  0  0  0  0
   -0.6520    2.0270    0.0570 C   0  0  0  0  0  0  0  0  0  0  0  0
   -0.5250    0.6140   -0.0880 N   0  0  0  0  0  0  0  0  0  0  0  0
   -1.7110   -0.1150    0.0950 C   0  0  2  0  0  0  0  0  0  0  0  0
   -2.6940    0.2970   -0.9740 C   0  0  0  0  0  0  0  0  0  0  0  0
   -3.9570   -0.3590   -0.9340 N   0  0  0  0  0  0  0  0  0  0  0  0
   -2.3870    0.0160    1.4180 C   0  0  0  0  0  0  0  0  0  0  0  0
   -2.5220   -1.4250    1.8670 C   0  0  0  0  0  0  0  0  0  0  0  0
   -1.4160   -2.0610    1.2810 O   0  0  0  0  0  0  0  0  0  0  0  0
   -1.4550   -1.5900   -0.0320 C   0  0  0  0  0  0  0  0  0  0  0  0
  2  1  1  6
  2  3  1  0
  2  4  1  0
  5  4  1  6
  5  6  1  0
  5 10  1  0
  6  7  1  0
  7  8  1  0
  8  9  1  0
  9 10  1  0
 10 11  1  0
 11 12  1  6
 11 14  1  0
 11 17  1  0
 12 13  1  0
 14 15  1  0
 15 16  1  0
 16 17  1  0
M  CHG  1  13   1
M  END
