
     RDKit          3D

 17 19  0  0  0  0  0  0  0  0999 V2000
    2.4810   -0.5730   -2.0830 C   0  0  0  0  0  0  0  0  0  0  0  0
    1.9230   -0.3450   -0.6840 C   0  0  2  0  0  0  0  0  0  0  0  0
    0.4260   -0.4180   -0.7710 C   0  0  0  0  0  0  0  0  0  0  0  0
   -0.1760   -0.2130    0.5120 N   0  0  0  0  0  0  0  0  0  0  0  0
   -1.5610   -0.5380    0.5800 C   0  0  2  0  0  0  0  0  0  0  0  0
   -2.2810   -0.5560   -0.7160 C   0  0  0  0  0  0  0  0  0  0  0  0
   -3.0650    0.6590   -0.8180 N   0  0  0  0  0  0  0  0  0  0  0  0
   -4.4160    0.4520   -0.3170 C   0  0  0  0  0  0  0  0  0  0  0  0
   -4.4290   -0.1430    1.0460 C   0  0  0  0  0  0  0  0  0  0  0  0
   -3.4350    0.2560    1.8820 O   0  0  0  0  0  0  0  0  0  0  0  0
   -2.2550    0.6130    1.3210 C   0  0  2  0  0  0  0  0  0  0  0  0
   -2.4590    1.5860    0.1530 C   0  0  0  0  0  0  0  0  0  0  0  0
    2.4340    0.9740   -0.2070 C   0  0  0  0  0  0  0  0  0  0  0  0
    3.9360    0.8020    0.0570 C   0  0  0  0  0  0  0  0  0  0  0  0
    4.0380   -0.0880    1.2910 C   0  0  0  0  0  0  0  0  0  0  0  0
    2.8890   -0.8450    1.4270 O   0  0  0  0  0  0  0  0  0  0  0  0
    2.5020   -1.4220    0.2060 C   0  0  0  0  0  0  0  0  0  0  0  0
  2  1  1  6
  2  3  1  0
  2 13  1  0
  2 17  1  0
  3  4  1  0
  5  4  1  6
  5  6  1  0
  5 11  1  0
  6  7  1  0
  7  8  1  0
  7 12  1  0
  8  9  1  0
  9 10  1  0
 11 10  1  6
 11 12  1  0
 13 14  1  0
 14 15  1  0
 15 16  1  0
 16 17  1  0
M  CHG  1   4   1
M  END
