
     RDKit          3D

 13 13  0  0  0  0  0  0  0  0999 V2000
   -2.3880   -0.7240    0.8240 C   0  0  0  0  0  0  0  0  0  0  0  0
   -1.2630   -0.4650   -0.1360 C   0  0  2  0  0  0  0  0  0  0  0  0
   -1.7640    0.3590   -1.3070 C   0  0  0  0  0  0  0  0  0  0  0  0
   -0.7310   -1.6790   -0.6800 O   0  0  0  0  0  0  0  0  0  0  0  0
    0.5960   -1.4110   -0.9940 C   0  0  0  0  0  0  0  0  0  0  0  0
    1.2960   -1.8570   -1.9500 O   0  0  0  0  0  0  0  0  0  0  0  0
    1.0770   -0.5020   -0.0190 N   0  0  0  0  0  0  0  0  0  0  0  0
    2.4430   -0.2550    0.3630 C   0  0  1  0  0  0  0  0  0  0  0  0
    3.0760   -1.3900    0.8480 O   0  0  0  0  0  0  0  0  0  0  0  0
    3.1890    0.1910   -0.7310 O   0  0  0  0  0  0  0  0  0  0  0  0
   -0.0900    0.1630    0.5530 C   0  0  1  0  0  0  0  0  0  0  0  0
   -0.0280    1.5850    0.2140 N   0  0  0  0  0  0  0  0  0  0  0  0
   -1.1860    2.1380    0.6380 O   0  0  0  0  0  0  0  0  0  0  0  0
  2  1  1  1
  2  3  1  0
  2  4  1  0
  2 11  1  0
  4  5  1  0
  5  6  2  0
  5  7  1  0
  7  8  1  0
  7 11  1  0
  8  9  1  6
  8 10  1  0
 11 12  1  6
 12 13  1  0
M  END
