
     RDKit          3D

 13 13  0  0  0  0  0  0  0  0999 V2000
   -1.9970   -1.7930   -0.3390 N   0  0  0  0  0  0  0  0  0  0  0  0
   -1.5530   -0.8800    0.4240 C   0  0  0  0  0  0  0  0  0  0  0  0
   -2.2440   -0.5270    1.6010 O   0  0  0  0  0  0  0  0  0  0  0  0
   -0.3050   -0.1660    0.0990 C   0  0  1  0  0  0  0  0  0  0  0  0
   -0.6460    1.2600   -0.1180 C   0  0  0  0  0  0  0  0  0  0  0  0
    0.3270    2.2280   -0.4490 N   0  0  0  0  0  0  0  0  0  0  0  0
   -1.8370    1.6280   -0.0050 O   0  0  0  0  0  0  0  0  0  0  0  0
    0.6410   -0.2310    1.2610 C   0  0  0  0  0  0  0  0  0  0  0  0
    1.9910   -0.1260    0.8940 O   0  0  0  0  0  0  0  0  0  0  0  0
    2.4300    0.0950   -0.3830 C   0  0  0  0  0  0  0  0  0  0  0  0
    3.5420    0.6050   -0.5750 O   0  0  0  0  0  0  0  0  0  0  0  0
    1.5930   -0.2710   -1.4170 O   0  0  0  0  0  0  0  0  0  0  0  0
    0.2670   -0.7190   -1.1740 C   0  0  0  0  0  0  0  0  0  0  0  0
  1  2  2  0
  2  3  1  0
  4  2  1  1
  4  5  1  0
  4  8  1  0
  4 13  1  0
  5  6  1  0
  5  7  2  0
  8  9  1  0
  9 10  1  0
 10 11  2  0
 10 12  1  0
 12 13  1  0
M  END
