
     RDKit          3D

 13 13  0  0  0  0  0  0  0  0999 V2000
    3.3130    0.3710   -1.1400 N   0  0  0  0  0  0  0  0  0  0  0  0
    2.0580    0.4280   -0.4710 C   0  0  0  0  0  0  0  0  0  0  0  0
    2.0120    1.1000    0.5940 O   0  0  0  0  0  0  0  0  0  0  0  0
    0.9640   -0.2400   -1.0040 O   0  0  0  0  0  0  0  0  0  0  0  0
   -0.2580   -0.1460   -0.2950 C   0  0  1  0  0  0  0  0  0  0  0  0
   -0.7190    1.2400   -0.1700 C   0  0  0  0  0  0  0  0  0  0  0  0
   -1.9060    1.5980    0.4930 N   0  0  0  0  0  0  0  0  0  0  0  0
   -0.0350    2.1660   -0.6730 O   0  0  0  0  0  0  0  0  0  0  0  0
   -1.3210   -1.0500   -0.9000 C   0  0  0  0  0  0  0  0  0  0  0  0
   -2.0530   -1.5510    0.2200 O   0  0  0  0  0  0  0  0  0  0  0  0
   -1.3310   -1.3880    1.3770 C   0  0  0  0  0  0  0  0  0  0  0  0
   -1.7330   -1.6860    2.5230 O   0  0  0  0  0  0  0  0  0  0  0  0
   -0.0350   -0.8150    1.0440 C   0  0  0  0  0  0  0  0  0  0  0  0
  1  2  1  0
  2  3  2  0
  2  4  1  0
  5  4  1  6
  5  6  1  0
  5  9  1  0
  5 13  1  0
  6  7  1  0
  6  8  2  0
  9 10  1  0
 10 11  1  0
 11 12  2  0
 11 13  1  0
M  END
