
     RDKit          3D

 22 23  0  0  0  0  0  0  0  0999 V2000
    7.5530    1.4660    0.1840 C   0  0  0  0  0  0  0  0  0  0  0  0
    6.1930    1.1210    0.3720 O   0  0  0  0  0  0  0  0  0  0  0  0
    5.6180   -0.0230   -0.1650 C   0  0  0  0  0  0  0  0  0  0  0  0
    6.3280   -0.7810   -0.8430 O   0  0  0  0  0  0  0  0  0  0  0  0
    4.2550   -0.3680    0.0240 N   0  0  0  0  0  0  0  0  0  0  0  0
    3.6520   -1.5290   -0.5150 C   0  0  0  0  0  0  0  0  0  0  0  0
    4.3300   -2.3120   -1.1990 O   0  0  0  0  0  0  0  0  0  0  0  0
    2.2270   -1.8220   -0.2750 C   0  0  2  0  0  0  0  0  0  0  0  0
    1.3310   -0.7000   -0.8210 C   0  0  0  0  0  0  0  0  0  0  0  0
    0.0200   -0.9760   -0.1250 C   0  0  2  0  0  0  0  0  0  0  0  0
   -0.3670   -2.2970   -0.2470 O   0  0  0  0  0  0  0  0  0  0  0  0
   -1.0000   -0.1030   -0.5250 O   0  0  0  0  0  0  0  0  0  0  0  0
   -2.2560   -0.2560    0.0440 C   0  0  0  0  0  0  0  0  0  0  0  0
   -2.5170   -1.1500    0.9070 O   0  0  0  0  0  0  0  0  0  0  0  0
   -3.3310    0.5700   -0.2960 O   0  0  0  0  0  0  0  0  0  0  0  0
   -4.6210    0.4000    0.3000 C   0  0  2  0  0  0  0  0  0  0  0  0
   -5.7100    0.2960   -0.7170 C   0  0  0  0  0  0  0  0  0  0  0  0
   -6.2410    1.7090   -0.7910 C   0  0  0  0  0  0  0  0  0  0  0  0
   -5.3750    2.4990   -0.0290 O   0  0  0  0  0  0  0  0  0  0  0  0
   -4.9180    1.7140    1.0130 C   0  0  0  0  0  0  0  0  0  0  0  0
    0.3090   -0.6770    1.3540 C   0  0  0  0  0  0  0  0  0  0  0  0
    1.8740   -1.6300    1.5200 S   0  0  0  0  0  0  0  0  0  0  0  0
  1  2  1  0
  2  3  1  0
  3  4  2  0
  3  5  1  0
  5  6  1  0
  6  7  2  0
  8  6  1  1
  8  9  1  0
  8 22  1  0
  9 10  1  0
 10 11  1  1
 10 12  1  0
 10 21  1  0
 12 13  1  0
 13 14  2  0
 13 15  1  0
 16 15  1  6
 16 17  1  0
 16 20  1  0
 17 18  1  0
 18 19  1  0
 19 20  1  0
 21 22  1  0
M  END
