
     RDKit          3D

 12 12  0  0  0  0  0  0  0  0999 V2000
    3.7990   -0.2950   -0.1720 N   0  0  0  0  0  0  0  0  0  0  0  0
    2.4460   -0.2890    0.3030 C   0  0  0  0  0  0  0  0  0  0  0  0
    2.1820   -0.1010    1.5140 O   0  0  0  0  0  0  0  0  0  0  0  0
    1.4000   -0.4900   -0.5630 O   0  0  0  0  0  0  0  0  0  0  0  0
    0.0690   -0.4990   -0.1900 C   0  0  0  0  0  0  0  0  0  0  0  0
   -0.5770    0.6640   -0.2220 C   0  0  0  0  0  0  0  0  0  0  0  0
    0.0800    1.8700   -0.6240 N   0  0  0  0  0  0  0  0  0  0  0  0
   -2.0080    0.7200    0.1710 C   0  0  0  0  0  0  0  0  0  0  0  0
   -2.7200   -0.5980    0.0750 C   0  0  0  0  0  0  0  0  0  0  0  0
   -1.9200   -1.6560    0.5720 O   0  0  0  0  0  0  0  0  0  0  0  0
   -0.5750   -1.7420    0.2140 C   0  0  0  0  0  0  0  0  0  0  0  0
    0.0110   -2.8510    0.2530 O   0  0  0  0  0  0  0  0  0  0  0  0
  1  2  1  0
  2  3  2  0
  2  4  1  0
  4  5  1  0
  5  6  2  0
  5 11  1  0
  6  7  1  0
  6  8  1  0
  8  9  1  0
  9 10  1  0
 10 11  1  0
 11 12  2  0
M  END
