
     RDKit          3D

 24 27  0  0  0  0  0  0  0  0999 V2000
   -2.5740    2.6780   -1.1600 C   0  0  0  0  0  0  0  0  0  0  0  0
   -2.2260    1.5010   -0.3520 N   0  0  0  0  0  0  0  0  0  0  0  0
   -1.8580    0.2210   -0.8430 C   0  0  0  0  0  0  0  0  0  0  0  0
   -1.7880   -0.0520   -2.0580 O   0  0  0  0  0  0  0  0  0  0  0  0
   -1.6070   -0.6150    0.3540 C   0  0  2  0  0  0  0  0  0  0  0  0
   -0.2060   -1.0790    0.4480 C   0  0  0  0  0  0  0  0  0  0  0  0
    0.0740   -2.3830    0.7890 C   0  0  0  0  0  0  0  0  0  0  0  0
    1.3800   -2.8130    0.8720 C   0  0  0  0  0  0  0  0  0  0  0  0
    2.4240   -1.9500    0.6160 C   0  0  0  0  0  0  0  0  0  0  0  0
    2.1820   -0.6160    0.2670 C   0  0  0  0  0  0  0  0  0  0  0  0
    3.3010    0.2570    0.0060 C   0  0  0  0  0  0  0  0  0  0  0  0
    4.4960    0.0970    0.6580 C   0  0  0  0  0  0  0  0  0  0  0  0
    5.5300    0.9370    0.3870 N   0  0  0  0  0  0  0  0  0  0  0  0
    5.4300    1.9290   -0.5030 C   0  0  0  0  0  0  0  0  0  0  0  0
    4.2530    2.1210   -1.1760 C   0  0  0  0  0  0  0  0  0  0  0  0
    4.1170    3.4160   -2.3420 Cl  0  0  0  0  0  0  0  0  0  0  0  0
    3.1720    1.2680   -0.9140 C   0  0  0  0  0  0  0  0  0  0  0  0
    0.8670   -0.2220    0.1940 C   0  0  0  0  0  0  0  0  0  0  0  0
   -2.5130   -1.8270    0.3910 C   0  0  2  0  0  0  0  0  0  0  0  0
   -2.3560   -2.7390   -0.8070 C   0  0  0  0  0  0  0  0  0  0  0  0
   -3.6190   -1.9620   -0.5870 C   0  0  0  0  0  0  0  0  0  0  0  0
   -1.8570    0.2740    1.4570 N   0  0  0  0  0  0  0  0  0  0  0  0
   -2.1990    1.4420    1.0660 C   0  0  0  0  0  0  0  0  0  0  0  0
   -2.5180    2.5610    1.9150 N   0  0  0  0  0  0  0  0  0  0  0  0
  1  2  1  0
  2  3  1  0
  2 23  1  0
  3  4  2  0
  3  5  1  0
  5  6  1  6
  5 19  1  0
  5 22  1  0
  6  7  2  0
  6 18  1  0
  7  8  1  0
  8  9  2  0
  9 10  1  0
 10 11  1  0
 10 18  2  0
 11 12  2  0
 11 17  1  0
 12 13  1  0
 13 14  2  0
 14 15  1  0
 15 16  1  0
 15 17  2  0
 19 20  1  6
 19 21  1  0
 20 21  1  0
 22 23  2  0
 23 24  1  0
M  CHG  1  22   1
M  END
