
     RDKit          3D

 27 30  0  0  0  0  0  0  0  0999 V2000
   -7.4580   -0.9920   -0.9290 C   0  0  0  0  0  0  0  0  0  0  0  0
   -5.9850   -1.1860   -0.9530 C   0  0  0  0  0  0  0  0  0  0  0  0
   -5.1640   -0.3300   -0.1770 N   0  0  0  0  0  0  0  0  0  0  0  0
   -3.7190   -0.5170   -0.4560 C   0  0  0  0  0  0  0  0  0  0  0  0
   -2.8670    0.3110    0.3560 C   0  0  0  0  0  0  0  0  0  0  0  0
   -1.3910    0.2880    0.1550 C   0  0  0  0  0  0  0  0  0  0  0  0
   -0.8050   -0.1820   -0.9170 N   0  0  0  0  0  0  0  0  0  0  0  0
    0.5300   -0.1250   -1.0290 C   0  0  0  0  0  0  0  0  0  0  0  0
    1.3010    0.4150   -0.0500 C   0  0  0  0  0  0  0  0  0  0  0  0
    2.6560    0.6560   -0.0750 N   0  0  0  0  0  0  0  0  0  0  0  0
    3.6960    0.6020   -1.0270 C   0  0  0  0  0  0  0  0  0  0  0  0
    4.5750   -0.5620   -0.6850 C   0  0  0  0  0  0  0  0  0  0  0  0
    4.4840   -1.8610   -0.8880 N   0  0  0  0  0  0  0  0  0  0  0  0
    5.6210   -2.4720   -0.5280 N   0  0  0  0  0  0  0  0  0  0  0  0
    6.4660   -1.5480   -0.0770 C   0  0  0  0  0  0  0  0  0  0  0  0
    7.7480   -1.6640    0.4900 C   0  0  0  0  0  0  0  0  0  0  0  0
    8.3100   -0.4910    0.9290 C   0  0  0  0  0  0  0  0  0  0  0  0
    7.7020    0.7190    0.8420 C   0  0  0  0  0  0  0  0  0  0  0  0
    6.4500    0.8080    0.2830 C   0  0  0  0  0  0  0  0  0  0  0  0
    5.8550   -0.3310   -0.1640 C   0  0  0  0  0  0  0  0  0  0  0  0
    0.6300    0.9040    1.0960 N   0  0  0  0  0  0  0  0  0  0  0  0
   -0.6540    0.8270    1.1640 N   0  0  0  0  0  0  0  0  0  0  0  0
   -3.3650    1.1570    1.2610 C   0  0  0  0  0  0  0  0  0  0  0  0
   -4.7900    1.3110    1.4790 C   0  0  0  0  0  0  0  0  0  0  0  0
   -5.2400    2.3640    2.4840 C   0  0  0  0  0  0  0  0  0  0  0  0
   -5.6270    0.6070    0.7960 C   0  0  0  0  0  0  0  0  0  0  0  0
   -7.3870    0.8140    1.0160 Cl  0  0  0  0  0  0  0  0  0  0  0  0
  1  2  1  0
  2  3  1  0
  3  4  1  0
  3 26  1  0
  4  5  1  0
  5  6  1  0
  5 23  2  0
  6  7  2  0
  6 22  1  0
  7  8  1  0
  8  9  2  0
  9 10  1  0
  9 21  1  0
 10 11  1  0
 11 12  1  0
 12 13  2  0
 12 20  1  0
 13 14  1  0
 14 15  1  0
 15 16  2  0
 15 20  1  0
 16 17  1  0
 17 18  2  0
 18 19  1  0
 19 20  2  0
 21 22  2  0
 23 24  1  0
 24 25  1  0
 24 26  2  0
 26 27  1  0
M  END
