
     RDKit          3D

 23 24  0  0  0  0  0  0  0  0999 V2000
   -1.0460   -3.4310    0.5900 C   0  0  0  0  0  0  0  0  0  0  0  0
   -0.7620   -2.1530   -0.1690 C   0  0  1  0  0  0  0  0  0  0  0  0
    0.0870   -2.4110   -1.3540 C   0  0  0  0  0  0  0  0  0  0  0  0
    1.4000   -2.2700   -1.3580 C   0  0  0  0  0  0  0  0  0  0  0  0
    2.2460   -1.8650   -0.3020 N   0  0  0  0  0  0  0  0  0  0  0  0
    2.4100   -0.6420    0.3520 C   0  0  0  0  0  0  0  0  0  0  0  0
    2.1420   -0.6660    1.6250 O   0  0  0  0  0  0  0  0  0  0  0  0
    2.8310    0.6590   -0.1410 C   0  0  0  0  0  0  0  0  0  0  0  0
    3.8530    1.4490    0.6210 C   0  0  0  0  0  0  0  0  0  0  0  0
    4.4210    0.9590    1.8240 N   0  0  0  0  0  0  0  0  0  0  0  0
    4.2610    2.5700    0.2510 O   0  0  0  0  0  0  0  0  0  0  0  0
    2.3510    1.2860   -1.2260 C   0  0  0  0  0  0  0  0  0  0  0  0
    1.3270    0.8320   -2.1250 C   0  0  0  0  0  0  0  0  0  0  0  0
   -0.0010    0.7560   -1.8920 C   0  0  0  0  0  0  0  0  0  0  0  0
   -0.4690    1.1350   -0.7090 O   0  0  0  0  0  0  0  0  0  0  0  0
   -1.4320    1.6870    0.0190 C   0  0  0  0  0  0  0  0  0  0  0  0
   -1.5170    3.0620    0.3150 C   0  0  0  0  0  0  0  0  0  0  0  0
   -2.5190    3.6220    1.0650 C   0  0  0  0  0  0  0  0  0  0  0  0
   -3.5000    2.8040    1.5610 C   0  0  0  0  0  0  0  0  0  0  0  0
   -3.4480    1.4660    1.2950 C   0  0  0  0  0  0  0  0  0  0  0  0
   -2.4320    0.8570    0.5290 C   0  0  0  0  0  0  0  0  0  0  0  0
   -2.5140   -0.5450    0.4010 N   0  0  0  0  0  0  0  0  0  0  0  0
   -2.0540   -1.4480   -0.6010 C   0  0  0  0  0  0  0  0  0  0  0  0
  2  1  1  6
  2  3  1  0
  2 23  1  0
  3  4  2  0
  4  5  1  0
  5  6  1  0
  6  7  2  0
  6  8  1  0
  8  9  1  0
  8 12  2  0
  9 10  1  0
  9 11  2  0
 12 13  1  0
 13 14  2  0
 14 15  1  0
 15 16  1  0
 16 17  2  0
 16 21  1  0
 17 18  1  0
 18 19  2  0
 19 20  1  0
 20 21  2  0
 21 22  1  0
 22 23  1  0
M  END
