
     RDKit          3D

 23 25  0  0  0  0  0  0  0  0999 V2000
    1.0600   -1.0580   -2.1960 C   0  0  0  0  0  0  0  0  0  0  0  0
    0.8910   -0.8280   -0.9110 C   0  0  0  0  0  0  0  0  0  0  0  0
    2.0540   -0.6230   -0.0670 C   0  0  0  0  0  0  0  0  0  0  0  0
    1.9340   -0.3880    1.2320 C   0  0  0  0  0  0  0  0  0  0  0  0
    3.1330   -0.1890    2.0390 C   0  0  0  0  0  0  0  0  0  0  0  0
    4.3280   -0.2380    1.5020 C   0  0  0  0  0  0  0  0  0  0  0  0
    4.5160   -0.4980    0.0510 C   0  0  0  0  0  0  0  0  0  0  0  0
    3.3100   -0.6750   -0.6340 O   0  0  0  0  0  0  0  0  0  0  0  0
   -0.4670   -0.8230   -0.4130 C   0  0  0  0  0  0  0  0  0  0  0  0
   -1.0640   -1.9820   -0.0050 N   0  0  0  0  0  0  0  0  0  0  0  0
   -2.3310   -2.0050    0.4660 C   0  0  0  0  0  0  0  0  0  0  0  0
   -2.9460   -3.2460    0.8940 C   0  0  0  0  0  0  0  0  0  0  0  0
   -4.2710   -3.2210    1.3780 N   0  0  0  0  0  0  0  0  0  0  0  0
   -2.3260   -4.3230    0.8400 O   0  0  0  0  0  0  0  0  0  0  0  0
   -3.0570   -0.8430    0.5440 C   0  0  0  0  0  0  0  0  0  0  0  0
   -2.4930    0.3460    0.1430 C   0  0  0  0  0  0  0  0  0  0  0  0
   -1.1950    0.3320   -0.3330 C   0  0  0  0  0  0  0  0  0  0  0  0
   -0.8460    1.7100   -0.6870 C   0  0  0  0  0  0  0  0  0  0  0  0
    0.2780    2.1930   -1.1860 C   0  0  0  0  0  0  0  0  0  0  0  0
    0.3390    3.6710   -1.4490 C   0  0  0  0  0  0  0  0  0  0  0  0
   -2.0090    2.5220   -0.3910 N   0  0  0  0  0  0  0  0  0  0  0  0
   -3.0290    1.6960    0.1200 C   0  0  0  0  0  0  0  0  0  0  0  0
   -4.1890    2.0410    0.4910 O   0  0  0  0  0  0  0  0  0  0  0  0
  1  2  2  0
  2  3  1  0
  2  9  1  0
  3  4  2  0
  3  8  1  0
  4  5  1  0
  5  6  2  0
  6  7  1  0
  7  8  1  0
  9 10  2  0
  9 17  1  0
 10 11  1  0
 11 12  1  0
 11 15  2  0
 12 13  1  0
 12 14  2  0
 15 16  1  0
 16 17  2  0
 16 22  1  0
 17 18  1  0
 18 19  2  3
 18 21  1  0
 19 20  1  0
 21 22  1  0
 22 23  2  0
M  END
