
     RDKit          3D

 23 23  0  0  0  0  0  0  0  0999 V2000
   -4.2050   -0.1150   -1.2740 C   0  0  0  0  0  0  0  0  0  0  0  0
   -3.0030   -0.7910   -1.8070 C   0  0  0  0  0  0  0  0  0  0  0  0
   -1.7720   -0.7220   -1.2600 C   0  0  0  0  0  0  0  0  0  0  0  0
   -0.6620   -1.4300   -1.8680 C   0  0  0  0  0  0  0  0  0  0  0  0
    0.1360   -2.3730   -1.4060 C   0  0  0  0  0  0  0  0  0  0  0  0
    0.1660   -3.0260   -0.1110 C   0  0  0  0  0  0  0  0  0  0  0  0
    0.5270   -2.5690    1.0650 C   0  0  0  0  0  0  0  0  0  0  0  0
    1.0170   -1.3000    1.5210 C   0  0  0  0  0  0  0  0  0  0  0  0
    2.1570   -0.6750    1.2400 C   0  0  0  0  0  0  0  0  0  0  0  0
    3.2010   -1.1250    0.3910 N   0  0  0  0  0  0  0  0  0  0  0  0
    3.2240   -1.2070   -1.0180 C   0  0  0  0  0  0  0  0  0  0  0  0
    3.2360   -0.2380   -1.9100 C   0  0  0  0  0  0  0  0  0  0  0  0
    3.2310    1.1470   -1.6830 N   0  0  0  0  0  0  0  0  0  0  0  0
    2.6590    1.9170   -0.6490 C   0  0  0  0  0  0  0  0  0  0  0  0
    3.4540    2.6380    0.0860 O   0  0  0  0  0  0  0  0  0  0  0  0
    1.3480    2.0250   -0.2910 O   0  0  0  0  0  0  0  0  0  0  0  0
    0.2100    1.4870   -0.8780 C   0  0  0  0  0  0  0  0  0  0  0  0
   -0.8220    1.1030    0.1640 C   0  0  0  0  0  0  0  0  0  0  0  0
   -0.7490    1.9150    1.3620 C   0  0  0  0  0  0  0  0  0  0  0  0
    0.0690    2.8270    1.5220 O   0  0  0  0  0  0  0  0  0  0  0  0
   -1.6580    1.6610    2.4150 N   0  0  0  0  0  0  0  0  0  0  0  0
   -1.6270    2.4560    3.6550 C   0  0  0  0  0  0  0  0  0  0  0  0
   -1.6780    0.1210   -0.0480 C   0  0  0  0  0  0  0  0  0  0  0  0
  1  2  1  0
  2  3  2  3
  3  4  1  0
  3 23  1  0
  4  5  2  0
  5  6  1  0
  6  7  2  0
  7  8  1  0
  8  9  2  0
  9 10  1  0
 10 11  1  0
 11 12  2  0
 12 13  1  0
 13 14  1  0
 14 15  2  0
 14 16  1  0
 16 17  1  0
 17 18  1  0
 18 19  1  0
 18 23  2  0
 19 20  2  0
 19 21  1  0
 21 22  1  0
M  END
