
     RDKit          3D

 27 30  0  0  0  0  0  0  0  0999 V2000
   -4.2200    2.0560    0.7680 C   0  0  0  0  0  0  0  0  0  0  0  0
   -4.6400    1.3160   -0.4790 C   0  0  0  0  0  0  0  0  0  0  0  0
   -4.1820   -0.1580   -0.4580 C   0  0  2  0  0  0  0  0  0  0  0  0
   -2.7060   -0.1480   -0.3420 C   0  0  0  0  0  0  0  0  0  0  0  0
   -1.9380    0.6540   -1.1170 N   0  0  0  0  0  0  0  0  0  0  0  0
   -0.6460    0.5050   -0.7180 C   0  0  0  0  0  0  0  0  0  0  0  0
    0.5270    1.1310   -1.0810 C   0  0  0  0  0  0  0  0  0  0  0  0
    1.6270    0.8430   -0.4320 N   0  0  0  0  0  0  0  0  0  0  0  0
    1.7220   -0.0320    0.5690 C   0  0  0  0  0  0  0  0  0  0  0  0
    2.8400   -0.1010    1.4760 N   0  0  0  0  0  0  0  0  0  0  0  0
    3.8020    0.9010    1.4910 C   0  0  0  0  0  0  0  0  0  0  0  0
    5.0640    1.0730    1.4270 C   0  0  0  0  0  0  0  0  0  0  0  0
    5.5550    2.8340    1.5510 Cl  0  0  0  0  0  0  0  0  0  0  0  0
    6.1950    0.2490    1.1280 C   0  0  0  0  0  0  0  0  0  0  0  0
    7.1360    0.0880    2.0590 N   0  0  0  0  0  0  0  0  0  0  0  0
    8.2980   -0.5970    1.8240 C   0  0  0  0  0  0  0  0  0  0  0  0
    8.4770   -1.1160    0.6100 N   0  0  0  0  0  0  0  0  0  0  0  0
    7.5620   -0.9880   -0.3660 C   0  0  0  0  0  0  0  0  0  0  0  0
    6.3730   -0.2820   -0.1160 C   0  0  0  0  0  0  0  0  0  0  0  0
    5.4090   -0.0390   -1.1840 C   0  0  0  0  0  0  0  0  0  0  0  0
    0.5530   -0.6710    0.9350 N   0  0  0  0  0  0  0  0  0  0  0  0
   -0.5940   -0.4100    0.3180 C   0  0  0  0  0  0  0  0  0  0  0  0
   -1.8930   -0.7920    0.5180 N   0  0  0  0  0  0  0  0  0  0  0  0
   -4.6610   -0.9050   -1.6390 C   0  0  0  0  0  0  0  0  0  0  0  0
   -6.0280   -1.3650   -1.2150 C   0  0  0  0  0  0  0  0  0  0  0  0
   -5.7750   -1.8250    0.1950 C   0  0  0  0  0  0  0  0  0  0  0  0
   -4.8490   -0.7860    0.7680 C   0  0  0  0  0  0  0  0  0  0  0  0
  1  2  1  0
  3  2  1  6
  3  4  1  0
  3 24  1  0
  3 27  1  0
  4  5  2  0
  4 23  1  0
  5  6  1  0
  6  7  2  0
  6 22  1  0
  7  8  1  0
  8  9  2  0
  9 10  1  0
  9 21  1  0
 10 11  1  0
 11 12  2  3
 12 13  1  0
 12 14  1  0
 14 15  2  0
 14 19  1  0
 15 16  1  0
 16 17  2  0
 17 18  1  0
 18 19  2  0
 19 20  1  0
 21 22  2  0
 22 23  1  0
 24 25  1  0
 25 26  1  0
 26 27  1  0
M  END
