
     RDKit          3D

 26 29  0  0  0  0  0  0  0  0999 V2000
    8.7900    0.2180   -1.3730 C   0  0  0  0  0  0  0  0  0  0  0  0
    7.2430    0.4760   -1.5710 C   0  0  0  0  0  0  0  0  0  0  0  0
    5.6540    0.7410   -1.7610 C   0  0  0  0  0  0  0  0  0  0  0  0
    4.6130    0.9080   -1.9040 C   0  0  0  0  0  0  0  0  0  0  0  0
    4.1790    2.1340   -2.7650 C   0  0  0  0  0  0  0  0  0  0  0  0
    2.8450    2.2120   -2.7300 N   0  0  0  0  0  0  0  0  0  0  0  0
    1.9180    1.6940   -2.2950 C   0  0  0  0  0  0  0  0  0  0  0  0
    2.1710    0.4120   -1.3750 C   0  0  0  0  0  0  0  0  0  0  0  0
    1.1430   -0.3140   -0.8660 C   0  0  0  0  0  0  0  0  0  0  0  0
    1.3060   -1.7910   -0.7680 C   0  0  0  0  0  0  0  0  0  0  0  0
    0.2910   -2.4710   -0.2450 C   0  0  0  0  0  0  0  0  0  0  0  0
   -0.8710   -2.0370    0.2210 C   0  0  0  0  0  0  0  0  0  0  0  0
   -1.0940   -0.5670    0.1470 C   0  0  0  0  0  0  0  0  0  0  0  0
   -2.3090   -0.0510    0.7220 C   0  0  1  0  0  0  0  0  0  0  0  0
   -2.7760    1.3060    0.2670 C   0  0  1  0  0  0  0  0  0  0  0  0
   -3.1150    1.7640   -1.0790 C   0  0  0  0  0  0  0  0  0  0  0  0
   -4.2550    1.4270   -0.2170 C   0  0  0  0  0  0  0  0  0  0  0  0
   -3.3720   -1.0530    0.5900 N   0  0  0  0  0  0  0  0  0  0  0  0
   -3.9220   -1.2820    1.6700 C   0  0  0  0  0  0  0  0  0  0  0  0
   -5.0670   -2.1920    1.9750 N   0  0  0  0  0  0  0  0  0  0  0  0
   -3.2900   -0.6420    2.7510 N   0  0  0  0  0  0  0  0  0  0  0  0
   -3.6820   -0.5760    4.1980 C   0  0  0  0  0  0  0  0  0  0  0  0
   -2.2000    0.0690    2.2230 C   0  0  0  0  0  0  0  0  0  0  0  0
   -1.2900    0.7040    2.8460 O   0  0  0  0  0  0  0  0  0  0  0  0
   -0.0650    0.1070   -0.3870 C   0  0  0  0  0  0  0  0  0  0  0  0
    3.5110    0.2910   -1.3740 C   0  0  0  0  0  0  0  0  0  0  0  0
  1  2  1  0
  2  3  3  0
  3  4  1  0
  4  5  2  0
  4 26  1  0
  5  6  1  0
  6  7  2  0
  7  8  1  0
  8  9  1  0
  8 26  2  0
  9 10  2  0
  9 25  1  0
 10 11  1  0
 11 12  2  0
 12 13  1  0
 14 13  1  6
 13 25  2  0
 14 15  1  0
 14 18  1  0
 14 23  1  0
 15 16  1  6
 15 17  1  0
 16 17  1  0
 18 19  2  0
 19 20  1  0
 19 21  1  0
 21 22  1  0
 21 23  1  0
 23 24  2  0
M  CHG  1  18   1
M  END
