
     RDKit          3D

 23 25  0  0  0  0  0  0  0  0999 V2000
   -2.4370    1.6680    1.4010 C   0  0  0  0  0  0  0  0  0  0  0  0
   -2.6790    1.0660    0.0130 C   0  0  2  0  0  0  0  0  0  0  0  0
   -2.0660    1.9720   -1.0500 C   0  0  0  0  0  0  0  0  0  0  0  0
   -4.1300    1.0120   -0.1640 C   0  0  0  0  0  0  0  0  0  0  0  0
   -4.7770   -0.1200   -0.3280 C   0  0  0  0  0  0  0  0  0  0  0  0
   -4.0750   -1.3900   -0.3410 C   0  0  0  0  0  0  0  0  0  0  0  0
   -2.7790   -1.4630   -0.1910 C   0  0  0  0  0  0  0  0  0  0  0  0
   -2.2540   -2.8310   -0.2350 C   0  0  0  0  0  0  0  0  0  0  0  0
   -3.1010   -3.7300   -0.1580 O   0  0  0  0  0  0  0  0  0  0  0  0
   -0.8870   -3.2070   -0.3580 N   0  0  0  0  0  0  0  0  0  0  0  0
    0.2290   -2.3740    0.0270 C   0  0  0  0  0  0  0  0  0  0  0  0
    0.3300   -1.0830    0.2640 C   0  0  0  0  0  0  0  0  0  0  0  0
    1.6330   -0.5150    0.6450 C   0  0  0  0  0  0  0  0  0  0  0  0
    1.6720    0.7410    0.8610 O   0  0  0  0  0  0  0  0  0  0  0  0
    2.8290   -1.2100    0.7950 N   0  0  0  0  0  0  0  0  0  0  0  0
    4.0790   -0.5490    1.1780 C   0  0  0  0  0  0  0  0  0  0  0  0
    4.4410    0.4760    0.1560 C   0  0  0  0  0  0  0  0  0  0  0  0
    3.8240    0.6920   -1.0570 C   0  0  0  0  0  0  0  0  0  0  0  0
    4.4870    1.7480   -1.6940 C   0  0  0  0  0  0  0  0  0  0  0  0
    5.4810    2.0990   -0.7920 C   0  0  0  0  0  0  0  0  0  0  0  0
    5.4200    1.3430    0.2590 O   0  0  0  0  0  0  0  0  0  0  0  0
   -0.7380   -0.1530    0.1870 N   0  0  0  0  0  0  0  0  0  0  0  0
   -2.0190   -0.2360    0.0050 C   0  0  0  0  0  0  0  0  0  0  0  0
  2  1  1  1
  2  3  1  0
  2  4  1  0
  2 23  1  0
  4  5  2  0
  5  6  1  0
  6  7  2  0
  7  8  1  0
  7 23  1  0
  8  9  2  0
  8 10  1  0
 10 11  1  0
 11 12  2  0
 12 13  1  0
 12 22  1  0
 13 14  2  0
 13 15  1  0
 15 16  1  0
 16 17  1  0
 17 18  2  0
 17 21  1  0
 18 19  1  0
 19 20  2  0
 20 21  1  0
 22 23  2  0
M  END
