
     RDKit          3D

 27 28  0  0  0  0  0  0  0  0999 V2000
    1.4820   -2.3770    1.0480 C   0  0  0  0  0  0  0  0  0  0  0  0
    1.1370   -1.4230    0.0240 N   0  0  0  0  0  0  0  0  0  0  0  0
   -0.1870   -0.9210   -0.0300 C   0  0  0  0  0  0  0  0  0  0  0  0
   -1.1310   -1.5850   -0.7880 C   0  0  0  0  0  0  0  0  0  0  0  0
   -2.4540   -1.1350   -0.8770 C   0  0  0  0  0  0  0  0  0  0  0  0
   -2.8430    0.0050   -0.1930 C   0  0  0  0  0  0  0  0  0  0  0  0
   -4.2170    0.5200   -0.2520 C   0  0  2  0  0  0  0  0  0  0  0  0
   -5.0610   -0.5460    0.1420 O   0  0  0  0  0  0  0  0  0  0  0  0
   -4.6490    0.8770   -1.6640 C   0  0  2  0  0  0  0  0  0  0  0  0
   -4.5940   -0.2300   -2.4840 F   0  0  0  0  0  0  0  0  0  0  0  0
   -3.8800    1.9120   -2.1790 F   0  0  0  0  0  0  0  0  0  0  0  0
   -5.9550    1.3240   -1.6630 F   0  0  0  0  0  0  0  0  0  0  0  0
   -4.4750    1.6590    0.6700 C   0  0  1  0  0  0  0  0  0  0  0  0
   -4.2560    1.3260    1.9900 F   0  0  0  0  0  0  0  0  0  0  0  0
   -3.8430    2.8090    0.2680 F   0  0  0  0  0  0  0  0  0  0  0  0
   -5.8570    1.9380    0.6110 F   0  0  0  0  0  0  0  0  0  0  0  0
   -1.8990    0.6560    0.5550 C   0  0  0  0  0  0  0  0  0  0  0  0
   -0.5870    0.2120    0.6450 C   0  0  0  0  0  0  0  0  0  0  0  0
    2.2670   -0.8630   -1.1470 S   0  0  1  0  0  0  0  0  0  0  0  0
    2.7990   -2.0140   -1.9710 O   0  0  0  0  0  0  0  0  0  0  0  0
    1.6240    0.0890   -2.1140 O   0  0  0  0  0  0  0  0  0  0  0  0
    3.6130   -0.0280   -0.3710 C   0  0  0  0  0  0  0  0  0  0  0  0
    3.4700    1.3360   -0.1790 C   0  0  0  0  0  0  0  0  0  0  0  0
    4.4650    2.0810    0.4180 C   0  0  0  0  0  0  0  0  0  0  0  0
    5.6160    1.4390    0.8240 C   0  0  0  0  0  0  0  0  0  0  0  0
    5.7500    0.0850    0.6290 C   0  0  0  0  0  0  0  0  0  0  0  0
    4.7470   -0.6730    0.0260 C   0  0  0  0  0  0  0  0  0  0  0  0
  1  2  1  0
  2  3  1  0
 19  2  1  1
  3  4  2  0
  3 18  1  0
  4  5  1  0
  5  6  2  0
  6  7  1  0
  6 17  1  0
  7  8  1  1
  7  9  1  0
  7 13  1  0
  9 10  1  6
  9 11  1  0
  9 12  1  0
 13 14  1  1
 13 15  1  0
 13 16  1  0
 17 18  2  0
 19 20  2  0
 19 21  2  0
 19 22  1  0
 22 23  2  0
 22 27  1  0
 23 24  1  0
 24 25  2  0
 25 26  1  0
 26 27  2  0
M  END
