
     RDKit          3D

 28 31  0  0  0  0  0  0  0  0999 V2000
    0.1550    1.3140    1.3730 C   0  0  0  0  0  0  0  0  0  0  0  0
   -0.3680    0.4840    0.2270 C   0  0  0  0  0  0  0  0  0  0  0  0
    0.4020    0.1570   -0.7490 N   0  0  0  0  0  0  0  0  0  0  0  0
    1.7730    0.6020   -0.7210 C   0  0  0  0  0  0  0  0  0  0  0  0
    2.2700    1.6960   -1.3250 N   0  0  0  0  0  0  0  0  0  0  0  0
    3.5860    1.7880   -1.0780 C   0  0  0  0  0  0  0  0  0  0  0  0
    4.4320    2.8100   -1.5520 N   0  0  0  0  0  0  0  0  0  0  0  0
    3.9500    0.6990   -0.2760 C   0  0  0  0  0  0  0  0  0  0  0  0
    5.2810    0.4150    0.2220 C   0  0  0  0  0  0  0  0  0  0  0  0
    6.4270    1.1380    0.0140 C   0  0  0  0  0  0  0  0  0  0  0  0
    7.4860    0.5150    0.6720 C   0  0  0  0  0  0  0  0  0  0  0  0
    6.9810   -0.5710    1.2690 N   0  0  0  0  0  0  0  0  0  0  0  0
    5.6430   -0.6490    1.0080 C   0  0  0  0  0  0  0  0  0  0  0  0
    2.8060    0.0190   -0.0960 N   0  0  0  0  0  0  0  0  0  0  0  0
   -1.7170    0.0820    0.2350 N   0  0  0  0  0  0  0  0  0  0  0  0
   -2.0700   -1.2310   -0.1590 C   0  0  0  0  0  0  0  0  0  0  0  0
   -1.1590   -2.2190   -0.4270 C   0  0  0  0  0  0  0  0  0  0  0  0
   -1.5260   -3.5240   -0.7770 C   0  0  0  0  0  0  0  0  0  0  0  0
   -2.8550   -3.8650   -0.8650 C   0  0  0  0  0  0  0  0  0  0  0  0
   -3.7690   -2.8780   -0.5980 C   0  0  0  0  0  0  0  0  0  0  0  0
   -3.4150   -1.5720   -0.2490 C   0  0  0  0  0  0  0  0  0  0  0  0
   -4.4780   -0.6040   -0.0210 C   0  0  0  0  0  0  0  0  0  0  0  0
   -4.5830    0.6160   -0.6470 C   0  0  0  0  0  0  0  0  0  0  0  0
   -5.6390    1.4870   -0.3530 C   0  0  0  0  0  0  0  0  0  0  0  0
   -6.6070    1.1510    0.5710 C   0  0  0  0  0  0  0  0  0  0  0  0
   -7.6670    1.9910    0.8840 O   0  0  0  0  0  0  0  0  0  0  0  0
   -6.4870   -0.0460    1.1710 N   0  0  0  0  0  0  0  0  0  0  0  0
   -5.4750   -0.9040    0.9040 C   0  0  0  0  0  0  0  0  0  0  0  0
  1  2  1  0
  2  3  2  3
  2 15  1  0
  3  4  1  0
  4  5  2  0
  4 14  1  0
  5  6  1  0
  6  7  1  0
  6  8  2  0
  8  9  1  0
  8 14  1  0
  9 10  1  0
  9 13  2  0
 10 11  2  0
 11 12  1  0
 12 13  1  0
 15 16  1  0
 16 17  2  0
 16 21  1  0
 17 18  1  0
 18 19  2  0
 19 20  1  0
 20 21  2  0
 21 22  1  0
 22 23  2  0
 22 28  1  0
 23 24  1  0
 24 25  2  0
 25 26  1  0
 25 27  1  0
 27 28  2  0
M  END
