
     RDKit          3D

 27 30  0  0  0  0  0  0  0  0999 V2000
   -2.5970   -4.0480    0.4200 C   0  0  0  0  0  0  0  0  0  0  0  0
   -2.6000   -2.5830    0.3430 C   0  0  0  0  0  0  0  0  0  0  0  0
   -1.3690   -1.9260    0.2500 C   0  0  0  0  0  0  0  0  0  0  0  0
   -1.3440   -0.5580    0.1800 C   0  0  0  0  0  0  0  0  0  0  0  0
   -2.5690    0.1400    0.2000 C   0  0  0  0  0  0  0  0  0  0  0  0
   -3.7630   -0.5470    0.2930 C   0  0  0  0  0  0  0  0  0  0  0  0
   -3.8020   -1.9200    0.3670 C   0  0  0  0  0  0  0  0  0  0  0  0
   -5.0240   -2.6270    0.4640 N   0  0  0  0  0  0  0  0  0  0  0  0
   -2.5980    1.5540    0.0690 N   0  0  0  0  0  0  0  0  0  0  0  0
   -1.3800    2.2620   -0.0790 C   0  0  0  0  0  0  0  0  0  0  0  0
   -1.4200    3.6600   -0.1840 C   0  0  0  0  0  0  0  0  0  0  0  0
   -0.2890    4.4230   -0.3030 C   0  0  0  0  0  0  0  0  0  0  0  0
   -0.3370    5.9120   -0.4150 C   0  0  0  0  0  0  0  0  0  0  0  0
    0.9110    3.7670   -0.3160 C   0  0  0  0  0  0  0  0  0  0  0  0
    2.1100    4.5310   -0.4370 N   0  0  0  0  0  0  0  0  0  0  0  0
    0.9640    2.3670   -0.2120 C   0  0  0  0  0  0  0  0  0  0  0  0
   -0.1660    1.6070   -0.0970 C   0  0  0  0  0  0  0  0  0  0  0  0
   -0.1230    0.1630    0.0360 N   0  0  0  0  0  0  0  0  0  0  0  0
    1.1090   -0.4750   -0.1020 C   0  0  0  0  0  0  0  0  0  0  0  0
    1.9610    0.1480   -0.8560 O   0  0  0  0  0  0  0  0  0  0  0  0
    1.6100   -1.6530    0.4310 N   0  0  0  0  0  0  0  0  0  0  0  0
    2.9120   -2.1880    0.1710 C   0  0  0  0  0  0  0  0  0  0  0  0
    3.9900   -1.4900   -0.2920 C   0  0  0  0  0  0  0  0  0  0  0  0
    5.2100   -2.1380   -0.5310 C   0  0  0  0  0  0  0  0  0  0  0  0
    5.3700   -3.4830   -0.3130 C   0  0  0  0  0  0  0  0  0  0  0  0
    4.2930   -4.1420    0.1430 N   0  0  0  0  0  0  0  0  0  0  0  0
    3.1160   -3.5690    0.3830 C   0  0  0  0  0  0  0  0  0  0  0  0
  1  2  1  0
  2  3  2  0
  2  7  1  0
  3  4  1  0
  4  5  2  0
  4 18  1  0
  5  6  1  0
  5  9  1  0
  6  7  2  0
  7  8  1  0
  9 10  1  0
 10 11  2  0
 10 17  1  0
 11 12  1  0
 12 13  1  0
 12 14  2  0
 14 15  1  0
 14 16  1  0
 16 17  2  0
 17 18  1  0
 18 19  1  0
 19 20  2  0
 19 21  1  0
 21 22  1  0
 22 23  2  0
 22 27  1  0
 23 24  1  0
 24 25  2  0
 25 26  1  0
 26 27  2  0
M  END
