
     RDKit          3D

 28 31  0  0  0  0  0  0  0  0999 V2000
   -2.0510    2.2500    0.7080 N   0  0  0  0  0  0  0  0  0  0  0  0
   -0.8810    2.0540   -0.1030 C   0  0  0  0  0  0  0  0  0  0  0  0
   -0.7350    0.9820   -0.8050 N   0  0  0  0  0  0  0  0  0  0  0  0
   -1.7620    0.0030   -0.7530 C   0  0  0  0  0  0  0  0  0  0  0  0
   -2.9190   -0.0000   -0.0640 N   0  0  0  0  0  0  0  0  0  0  0  0
   -3.5970   -1.1430   -0.3140 C   0  0  0  0  0  0  0  0  0  0  0  0
   -4.9060   -1.5510    0.2340 C   0  0  0  0  0  0  0  0  0  0  0  0
   -5.5780   -0.8010    1.0660 C   0  0  0  0  0  0  0  0  0  0  0  0
   -6.9070   -1.2020    1.6300 C   0  0  0  0  0  0  0  0  0  0  0  0
   -7.3320   -2.4540    1.1650 O   0  0  0  0  0  0  0  0  0  0  0  0
   -6.6330   -3.2590    0.2860 C   0  0  0  0  0  0  0  0  0  0  0  0
   -5.4550   -2.8200   -0.1660 C   0  0  0  0  0  0  0  0  0  0  0  0
   -2.8250   -1.8320   -1.1700 N   0  0  0  0  0  0  0  0  0  0  0  0
   -1.7180   -1.1590   -1.4460 N   0  0  0  0  0  0  0  0  0  0  0  0
    0.1430    3.0290   -0.1670 N   0  0  0  0  0  0  0  0  0  0  0  0
    1.4960    2.6440   -0.1120 C   0  0  0  0  0  0  0  0  0  0  0  0
    2.4490    3.6580   -0.2990 C   0  0  0  0  0  0  0  0  0  0  0  0
    3.7960    3.4380   -0.2660 C   0  0  0  0  0  0  0  0  0  0  0  0
    4.2190    2.1470   -0.0370 C   0  0  0  0  0  0  0  0  0  0  0  0
    5.6310    1.9100   -0.0020 N   0  0  0  0  0  0  0  0  0  0  0  0
    3.3450    1.1000    0.1550 C   0  0  0  0  0  0  0  0  0  0  0  0
    3.8040   -0.2640    0.3970 C   0  0  0  0  0  0  0  0  0  0  0  0
    4.8370   -0.5130    1.3000 C   0  0  0  0  0  0  0  0  0  0  0  0
    5.2780   -1.7980    1.5360 C   0  0  0  0  0  0  0  0  0  0  0  0
    4.7250   -2.8870    0.8990 C   0  0  0  0  0  0  0  0  0  0  0  0
    3.6990   -2.6500    0.0010 C   0  0  0  0  0  0  0  0  0  0  0  0
    3.2600   -1.3640   -0.2330 C   0  0  0  0  0  0  0  0  0  0  0  0
    1.9770    1.3950    0.1090 C   0  0  0  0  0  0  0  0  0  0  0  0
  1  2  1  0
  2  3  2  3
  2 15  1  0
  3  4  1  0
  4  5  2  0
  4 14  1  0
  5  6  1  0
  6  7  1  0
  6 13  2  0
  7  8  2  0
  7 12  1  0
  8  9  1  0
  9 10  1  0
 10 11  1  0
 11 12  2  0
 13 14  1  0
 15 16  1  0
 16 17  2  0
 16 28  1  0
 17 18  1  0
 18 19  2  0
 19 20  1  0
 19 21  1  0
 21 22  1  0
 21 28  2  0
 22 23  2  0
 22 27  1  0
 23 24  1  0
 24 25  2  0
 25 26  1  0
 26 27  2  0
M  END
