
     RDKit          3D

 28 31  0  0  0  0  0  0  0  0999 V2000
   -5.9710   -0.8510   -1.2360 C   0  0  0  0  0  0  0  0  0  0  0  0
   -4.7610   -0.5950   -0.4130 C   0  0  0  0  0  0  0  0  0  0  0  0
   -3.7760    0.2500   -0.8810 C   0  0  0  0  0  0  0  0  0  0  0  0
   -2.6450    0.5150   -0.1580 C   0  0  0  0  0  0  0  0  0  0  0  0
   -1.6210    1.4080   -0.6700 C   0  0  0  0  0  0  0  0  0  0  0  0
   -0.2660    1.0410   -0.5740 C   0  0  0  0  0  0  0  0  0  0  0  0
    0.7510    1.8320   -1.0350 C   0  0  0  0  0  0  0  0  0  0  0  0
    2.1340    1.5710   -0.9830 N   0  0  0  0  0  0  0  0  0  0  0  0
    2.7900    0.4990   -0.3300 C   0  0  0  0  0  0  0  0  0  0  0  0
    2.0790   -0.3210    0.2800 O   0  0  0  0  0  0  0  0  0  0  0  0
    4.1980    0.3840   -0.3800 N   0  0  0  0  0  0  0  0  0  0  0  0
    4.9240   -0.6340    0.2320 C   0  0  0  0  0  0  0  0  0  0  0  0
    4.4190   -1.6530    0.9550 C   0  0  0  0  0  0  0  0  0  0  0  0
    5.1970   -2.6100    1.5220 N   0  0  0  0  0  0  0  0  0  0  0  0
    6.5240   -2.6140    1.4050 C   0  0  0  0  0  0  0  0  0  0  0  0
    7.1120   -1.6030    0.6790 C   0  0  0  0  0  0  0  0  0  0  0  0
    6.3210   -0.6180    0.0960 C   0  0  0  0  0  0  0  0  0  0  0  0
    6.9260    0.4240   -0.6520 N   0  0  0  0  0  0  0  0  0  0  0  0
    0.3300    3.0380   -1.6120 C   0  0  0  0  0  0  0  0  0  0  0  0
   -0.9680    3.3740   -1.6960 N   0  0  0  0  0  0  0  0  0  0  0  0
   -1.9700    2.6040   -1.2460 C   0  0  0  0  0  0  0  0  0  0  0  0
   -3.3270    3.0340   -1.3740 N   0  0  0  0  0  0  0  0  0  0  0  0
   -2.4580   -0.0720    1.0890 C   0  0  0  0  0  0  0  0  0  0  0  0
   -3.4270   -0.9240    1.5860 C   0  0  0  0  0  0  0  0  0  0  0  0
   -3.5210   -1.6440    2.7740 C   0  0  0  0  0  0  0  0  0  0  0  0
   -4.7230   -2.3150    2.7010 C   0  0  0  0  0  0  0  0  0  0  0  0
   -5.3190   -2.0140    1.5340 N   0  0  0  0  0  0  0  0  0  0  0  0
   -4.5530   -1.1650    0.8260 C   0  0  0  0  0  0  0  0  0  0  0  0
  1  2  1  0
  2  3  2  0
  2 28  1  0
  3  4  1  0
  4  5  1  0
  4 23  2  0
  5  6  2  0
  5 21  1  0
  6  7  1  0
  7  8  1  0
  7 19  2  0
  8  9  1  0
  9 10  2  0
  9 11  1  0
 11 12  1  0
 12 13  2  0
 12 17  1  0
 13 14  1  0
 14 15  2  0
 15 16  1  0
 16 17  2  0
 17 18  1  0
 19 20  1  0
 20 21  2  0
 21 22  1  0
 23 24  1  0
 24 25  1  0
 24 28  2  0
 25 26  2  0
 26 27  1  0
 27 28  1  0
M  END
