
     RDKit          3D

 28 31  0  0  0  0  0  0  0  0999 V2000
   -6.0380    2.3520   -0.7430 C   0  0  0  0  0  0  0  0  0  0  0  0
   -5.1690    1.1840   -0.4190 C   0  0  0  0  0  0  0  0  0  0  0  0
   -3.7820    1.3000   -0.4410 C   0  0  0  0  0  0  0  0  0  0  0  0
   -2.9380    0.2650   -0.1530 C   0  0  0  0  0  0  0  0  0  0  0  0
   -1.4900    0.3920   -0.1770 C   0  0  0  0  0  0  0  0  0  0  0  0
   -0.9170    1.2710   -1.0740 C   0  0  0  0  0  0  0  0  0  0  0  0
    0.4470    1.4340   -1.1450 C   0  0  0  0  0  0  0  0  0  0  0  0
    1.2670    0.6920   -0.2870 C   0  0  0  0  0  0  0  0  0  0  0  0
    2.6560    0.9200   -0.3660 N   0  0  0  0  0  0  0  0  0  0  0  0
    3.6260   -0.0930   -0.3230 C   0  0  0  0  0  0  0  0  0  0  0  0
    3.4930   -1.4420   -0.4210 C   0  0  0  0  0  0  0  0  0  0  0  0
    2.4570   -2.1060   -0.6030 O   0  0  0  0  0  0  0  0  0  0  0  0
    4.7260   -1.9890   -0.2880 N   0  0  0  0  0  0  0  0  0  0  0  0
    5.6200   -1.0300   -0.1120 N   0  0  0  0  0  0  0  0  0  0  0  0
    6.9610   -1.1020    0.0630 C   0  0  0  0  0  0  0  0  0  0  0  0
    7.6040   -2.3620    0.0740 N   0  0  0  0  0  0  0  0  0  0  0  0
    7.6420    0.0440    0.2220 N   0  0  0  0  0  0  0  0  0  0  0  0
    7.0580    1.2630    0.2160 C   0  0  0  0  0  0  0  0  0  0  0  0
    7.7880    2.4630    0.3850 N   0  0  0  0  0  0  0  0  0  0  0  0
    5.7120    1.2910    0.0380 N   0  0  0  0  0  0  0  0  0  0  0  0
    4.9960    0.1660   -0.1240 C   0  0  0  0  0  0  0  0  0  0  0  0
    0.7200   -0.1820    0.6090 C   0  0  0  0  0  0  0  0  0  0  0  0
   -0.6500   -0.3190    0.6500 C   0  0  0  0  0  0  0  0  0  0  0  0
   -3.4810   -0.9740    0.1800 C   0  0  0  0  0  0  0  0  0  0  0  0
   -4.8510   -1.1300    0.2130 C   0  0  0  0  0  0  0  0  0  0  0  0
   -5.4680   -2.4260    0.5610 C   0  0  0  0  0  0  0  0  0  0  0  0
   -5.6840   -0.0500   -0.0870 C   0  0  0  0  0  0  0  0  0  0  0  0
   -7.1430   -0.2200   -0.0510 C   0  0  0  0  0  0  0  0  0  0  0  0
  1  2  1  0
  2  3  2  0
  2 27  1  0
  3  4  1  0
  4  5  1  0
  4 24  2  0
  5  6  2  0
  5 23  1  0
  6  7  1  0
  7  8  2  0
  8  9  1  0
  8 22  1  0
  9 10  1  0
 10 11  1  0
 10 21  2  0
 11 12  2  0
 11 13  1  0
 13 14  1  0
 14 15  1  0
 14 21  1  0
 15 16  1  0
 15 17  2  0
 17 18  1  0
 18 19  1  0
 18 20  2  0
 20 21  1  0
 22 23  2  0
 24 25  1  0
 25 26  1  0
 25 27  2  0
 27 28  1  0
M  END
