
     RDKit          3D

 26 28  0  0  0  0  0  0  0  0999 V2000
    5.4790    3.3860    2.6280 C   0  0  0  0  0  0  0  0  0  0  0  0
    5.2340    2.3870    1.7820 C   0  0  0  0  0  0  0  0  0  0  0  0
    3.8470    2.0300    1.5380 C   0  0  0  0  0  0  0  0  0  0  0  0
    3.5160    1.0610    0.7070 C   0  0  0  0  0  0  0  0  0  0  0  0
    2.1960    0.7600    0.5080 N   0  0  0  0  0  0  0  0  0  0  0  0
    1.8110   -0.2180   -0.3250 C   0  0  0  0  0  0  0  0  0  0  0  0
    0.4410   -0.5550   -0.5510 N   0  0  0  0  0  0  0  0  0  0  0  0
   -0.5030    0.1520    0.1060 C   0  0  0  0  0  0  0  0  0  0  0  0
   -0.1400    1.1200    0.9270 O   0  0  0  0  0  0  0  0  0  0  0  0
   -1.8330    0.0890    0.1160 N   0  0  0  0  0  0  0  0  0  0  0  0
   -3.1770    0.0170    0.1190 C   0  0  0  0  0  0  0  0  0  0  0  0
   -3.5770    0.9500    0.9450 O   0  0  0  0  0  0  0  0  0  0  0  0
   -4.0350   -0.7960   -0.5430 N   0  0  0  0  0  0  0  0  0  0  0  0
   -5.4370   -0.6790   -0.3800 C   0  0  1  0  0  0  0  0  0  0  0  0
   -6.1230   -0.2820   -1.6600 C   0  0  0  0  0  0  0  0  0  0  0  0
   -7.3170   -1.1730   -1.7070 C   0  0  0  0  0  0  0  0  0  0  0  0
   -6.7540   -2.5030   -1.1880 C   0  0  0  0  0  0  0  0  0  0  0  0
   -6.0690   -1.9600    0.0850 C   0  0  0  0  0  0  0  0  0  0  0  0
    2.7630   -0.9280   -0.9870 C   0  0  0  0  0  0  0  0  0  0  0  0
    2.1980   -2.1910   -2.0610 Cl  0  0  0  0  0  0  0  0  0  0  0  0
    4.0960   -0.6500   -0.8090 C   0  0  0  0  0  0  0  0  0  0  0  0
    4.5080    0.3670    0.0570 C   0  0  0  0  0  0  0  0  0  0  0  0
    5.7980    0.6040    0.2060 C   0  0  0  0  0  0  0  0  0  0  0  0
    6.8070   -0.2230   -0.5610 C   0  0  0  0  0  0  0  0  0  0  0  0
    6.3070    1.6530    1.1030 C   0  0  1  0  0  0  0  0  0  0  0  0
    7.2350    2.8670    0.1560 Cl  0  0  0  0  0  0  0  0  0  0  0  0
  1  2  2  0
  2  3  1  0
  2 25  1  0
  3  4  2  0
  4  5  1  0
  4 22  1  0
  5  6  2  0
  6  7  1  0
  6 19  1  0
  7  8  1  0
  8  9  2  0
  8 10  1  0
 10 11  1  0
 11 12  2  0
 11 13  1  0
 14 13  1  6
 14 15  1  0
 14 18  1  0
 15 16  1  0
 16 17  1  0
 17 18  1  0
 19 20  1  0
 19 21  2  0
 21 22  1  0
 22 23  2  0
 23 24  1  0
 23 25  1  0
 25 26  1  6
M  END
