
     RDKit          3D

 28 31  0  0  0  0  0  0  0  0999 V2000
    3.6770   -2.6160   -1.4310 C   0  0  0  0  0  0  0  0  0  0  0  0
    4.4290   -1.3580   -1.0680 C   0  0  0  0  0  0  0  0  0  0  0  0
    5.7460   -1.2040   -0.8950 N   0  0  0  0  0  0  0  0  0  0  0  0
    5.9980    0.0550   -0.5890 N   0  0  0  0  0  0  0  0  0  0  0  0
    4.8490    0.7600   -0.5540 C   0  0  0  0  0  0  0  0  0  0  0  0
    4.7120    2.2230   -0.2360 C   0  0  0  0  0  0  0  0  0  0  0  0
    3.8420   -0.1120   -0.8540 C   0  0  0  0  0  0  0  0  0  0  0  0
    2.4070    0.1300   -0.9430 C   0  0  0  0  0  0  0  0  0  0  0  0
    1.8380    0.4510   -1.9950 O   0  0  0  0  0  0  0  0  0  0  0  0
    1.6530   -0.0240    0.2600 N   0  0  0  0  0  0  0  0  0  0  0  0
    2.2910   -0.2660    1.5350 C   0  0  0  0  0  0  0  0  0  0  0  0
    0.2180    0.0690    0.2280 C   0  0  0  0  0  0  0  0  0  0  0  0
   -0.4110    1.2730    0.1020 C   0  0  0  0  0  0  0  0  0  0  0  0
   -1.7950    1.3360    0.0590 C   0  0  0  0  0  0  0  0  0  0  0  0
   -2.4160    2.5620   -0.0490 C   0  0  0  0  0  0  0  0  0  0  0  0
   -1.5960    3.7150   -0.1280 N   0  0  0  0  0  0  0  0  0  0  0  0
   -3.7360    2.6310   -0.0750 N   0  0  0  0  0  0  0  0  0  0  0  0
   -4.5120    1.5240    0.0000 C   0  0  0  0  0  0  0  0  0  0  0  0
   -5.8710    1.6530   -0.0440 C   0  0  0  0  0  0  0  0  0  0  0  0
   -6.6330    0.5710    0.0150 N   0  0  0  0  0  0  0  0  0  0  0  0
   -6.0900   -0.6400    0.1140 C   0  0  0  0  0  0  0  0  0  0  0  0
   -4.6910   -0.8730    0.1670 C   0  0  0  0  0  0  0  0  0  0  0  0
   -4.2110   -2.2450    0.2030 C   0  0  0  0  0  0  0  0  0  0  0  0
   -3.9100    0.2520    0.1110 C   0  0  0  0  0  0  0  0  0  0  0  0
   -2.5240    0.1580    0.1450 C   0  0  0  0  0  0  0  0  0  0  0  0
   -1.9180   -1.0520    0.2740 C   0  0  0  0  0  0  0  0  0  0  0  0
   -0.5100   -1.0870    0.3140 C   0  0  0  0  0  0  0  0  0  0  0  0
    0.1170   -2.3500    0.4440 N   0  0  0  0  0  0  0  0  0  0  0  0
  1  2  1  0
  2  3  2  0
  2  7  1  0
  3  4  1  0
  4  5  1  0
  5  6  1  0
  5  7  2  0
  7  8  1  0
  8  9  2  0
  8 10  1  0
 10 11  1  0
 10 12  1  0
 12 13  2  0
 12 27  1  0
 13 14  1  0
 14 15  2  0
 14 25  1  0
 15 16  1  0
 15 17  1  0
 17 18  2  0
 18 19  1  0
 18 24  1  0
 19 20  2  0
 20 21  1  0
 21 22  2  0
 22 23  1  0
 22 24  1  0
 24 25  2  0
 25 26  1  0
 26 27  2  0
 27 28  1  0
M  END
