
     RDKit          3D

 28 31  0  0  0  0  0  0  0  0999 V2000
   -4.1590    1.6240   -3.1350 C   0  0  0  0  0  0  0  0  0  0  0  0
   -3.4150    1.4280   -1.8820 C   0  0  0  0  0  0  0  0  0  0  0  0
   -3.8940    0.6750   -0.9340 C   0  0  0  0  0  0  0  0  0  0  0  0
   -5.2170    0.0150   -1.1500 C   0  0  0  0  0  0  0  0  0  0  0  0
   -5.6490   -0.8080   -0.0080 C   0  0  0  0  0  0  0  0  0  0  0  0
   -4.8860   -0.9040    1.0680 C   0  0  0  0  0  0  0  0  0  0  0  0
   -5.3240   -1.7030    2.1530 N   0  0  0  0  0  0  0  0  0  0  0  0
   -4.5330   -1.8330    3.3280 C   0  0  0  0  0  0  0  0  0  0  0  0
   -3.2670   -1.1100    3.3530 C   0  0  0  0  0  0  0  0  0  0  0  0
   -2.7820   -0.3500    2.3980 C   0  0  0  0  0  0  0  0  0  0  0  0
   -1.5310    0.2940    2.5620 N   0  0  0  0  0  0  0  0  0  0  0  0
   -0.4720   -0.0130    1.6210 C   0  0  0  0  0  0  0  0  0  0  0  0
   -0.6790   -0.8160    0.7110 O   0  0  0  0  0  0  0  0  0  0  0  0
    0.7980    0.6020    1.7400 N   0  0  0  0  0  0  0  0  0  0  0  0
    1.9130    0.4030    0.9030 C   0  0  0  0  0  0  0  0  0  0  0  0
    1.9890   -0.3730   -0.2080 C   0  0  0  0  0  0  0  0  0  0  0  0
    3.1810   -0.4790   -0.9470 C   0  0  0  0  0  0  0  0  0  0  0  0
    4.3230    0.1930   -0.5850 C   0  0  0  0  0  0  0  0  0  0  0  0
    5.5540    0.0780   -1.3560 C   0  0  0  0  0  0  0  0  0  0  0  0
    5.7690   -0.6670   -2.4920 C   0  0  0  0  0  0  0  0  0  0  0  0
    7.0650   -0.4670   -2.8590 N   0  0  0  0  0  0  0  0  0  0  0  0
    7.6480    0.3710   -1.9900 C   0  0  0  0  0  0  0  0  0  0  0  0
    8.9930    0.8420   -2.0070 N   0  0  0  0  0  0  0  0  0  0  0  0
    6.7140    0.6940   -1.0800 N   0  0  0  0  0  0  0  0  0  0  0  0
    4.2560    0.9890    0.5490 C   0  0  0  0  0  0  0  0  0  0  0  0
    3.0900    1.0770    1.2500 C   0  0  0  0  0  0  0  0  0  0  0  0
   -3.6060   -0.2230    1.1910 C   0  0  0  0  0  0  0  0  0  0  0  0
   -3.1500    0.5090    0.2580 N   0  0  0  0  0  0  0  0  0  0  0  0
  1  2  1  0
  2  3  2  3
  3  4  1  0
  3 28  1  0
  4  5  1  0
  5  6  2  0
  6  7  1  0
  6 27  1  0
  7  8  1  0
  8  9  1  0
  9 10  2  0
 10 11  1  0
 10 27  1  0
 11 12  1  0
 12 13  2  0
 12 14  1  0
 14 15  1  0
 15 16  2  0
 15 26  1  0
 16 17  1  0
 17 18  2  0
 18 19  1  0
 18 25  1  0
 19 20  2  0
 19 24  1  0
 20 21  1  0
 21 22  2  0
 22 23  1  0
 22 24  1  0
 25 26  2  0
 27 28  2  0
M  END
