
     RDKit          3D

 28 31  0  0  0  0  0  0  0  0999 V2000
    7.1820    0.3090   -0.3960 C   0  0  0  0  0  0  0  0  0  0  0  0
    5.8950    0.2310    0.3840 C   0  0  0  0  0  0  0  0  0  0  0  0
    5.0080   -0.6860    0.1140 C   0  0  0  0  0  0  0  0  0  0  0  0
    3.8070   -0.7340    0.8660 N   0  0  0  0  0  0  0  0  0  0  0  0
    2.8880    0.3270    0.7690 C   0  0  0  0  0  0  0  0  0  0  0  0
    3.2960    1.6310    1.1590 N   0  0  0  0  0  0  0  0  0  0  0  0
    1.6620    0.0790    0.3140 C   0  0  0  0  0  0  0  0  0  0  0  0
    0.5730    1.0580    0.1440 C   0  0  0  0  0  0  0  0  0  0  0  0
    0.6640    2.2730    0.4120 O   0  0  0  0  0  0  0  0  0  0  0  0
   -0.5220    0.3230   -0.3620 N   0  0  0  0  0  0  0  0  0  0  0  0
   -1.7360    0.8180   -0.8840 C   0  0  0  0  0  0  0  0  0  0  0  0
   -1.5130    1.6300   -2.0400 C   0  0  0  0  0  0  0  0  0  0  0  0
   -2.5150    1.8810   -2.9290 C   0  0  0  0  0  0  0  0  0  0  0  0
   -3.7540    1.3530   -2.7240 C   0  0  0  0  0  0  0  0  0  0  0  0
   -4.8100    1.5920   -3.6390 N   0  0  0  0  0  0  0  0  0  0  0  0
   -3.9960    0.5820   -1.6290 C   0  0  0  0  0  0  0  0  0  0  0  0
   -5.2230   -0.0080   -1.4400 C   0  0  0  0  0  0  0  0  0  0  0  0
   -5.4920   -0.8010   -0.4110 N   0  0  0  0  0  0  0  0  0  0  0  0
   -4.5610   -1.0590    0.5210 C   0  0  0  0  0  0  0  0  0  0  0  0
   -4.6180   -1.6990    1.6870 N   0  0  0  0  0  0  0  0  0  0  0  0
   -3.4690   -1.5600    2.3270 C   0  0  0  0  0  0  0  0  0  0  0  0
   -2.5930   -0.7850    1.5460 C   0  0  0  0  0  0  0  0  0  0  0  0
   -1.3750   -0.2170    2.1260 C   0  0  0  0  0  0  0  0  0  0  0  0
   -3.2850   -0.4930    0.3970 C   0  0  0  0  0  0  0  0  0  0  0  0
   -2.9710    0.3180   -0.6850 C   0  0  0  0  0  0  0  0  0  0  0  0
   -0.1140   -1.0370   -0.4910 N   0  0  0  0  0  0  0  0  0  0  0  0
    1.1080   -1.1880   -0.1170 C   0  0  0  0  0  0  0  0  0  0  0  0
    1.8440   -2.5040   -0.1300 C   0  0  0  0  0  0  0  0  0  0  0  0
  1  2  1  0
  2  3  2  3
  3  4  1  0
  4  5  1  0
  5  6  1  0
  5  7  2  3
  7  8  1  0
  7 27  1  0
  8  9  2  0
  8 10  1  0
 10 11  1  0
 10 26  1  0
 11 12  2  0
 11 25  1  0
 12 13  1  0
 13 14  2  0
 14 15  1  0
 14 16  1  0
 16 17  2  0
 16 25  1  0
 17 18  1  0
 18 19  2  0
 19 20  1  0
 19 24  1  0
 20 21  1  0
 21 22  2  0
 22 23  1  0
 22 24  1  0
 24 25  2  0
 26 27  2  0
 27 28  1  0
M  END
