
     RDKit          3D

 23 24  0  0  0  0  0  0  0  0999 V2000
    2.5740    2.3300   -0.1550 C   0  0  0  0  0  0  0  0  0  0  0  0
    2.8080    0.9770    0.2900 N   0  0  0  0  0  0  0  0  0  0  0  0
    3.9730    0.5110    0.6860 N   0  0  0  0  0  0  0  0  0  0  0  0
    3.9090   -0.7900    0.9930 C   0  0  0  0  0  0  0  0  0  0  0  0
    4.9700   -1.7020    1.4810 C   0  0  2  0  0  0  0  0  0  0  0  0
    4.6080   -3.0510    1.3380 F   0  0  0  0  0  0  0  0  0  0  0  0
    5.1450   -1.5130    2.8120 F   0  0  0  0  0  0  0  0  0  0  0  0
    6.1180   -1.4750    0.7670 F   0  0  0  0  0  0  0  0  0  0  0  0
    2.6020   -1.1730    0.7710 C   0  0  0  0  0  0  0  0  0  0  0  0
    1.9050   -0.0160    0.3180 C   0  0  0  0  0  0  0  0  0  0  0  0
    0.4930   -0.0580    0.0750 C   0  0  0  0  0  0  0  0  0  0  0  0
    0.0450   -1.1360   -0.5180 O   0  0  0  0  0  0  0  0  0  0  0  0
   -0.5170    0.8810    0.3850 N   0  0  0  0  0  0  0  0  0  0  0  0
   -1.8910    0.5880    0.0050 C   0  0  0  0  0  0  0  0  0  0  0  0
   -2.5980    1.3280   -0.8960 C   0  0  0  0  0  0  0  0  0  0  0  0
   -1.8650    2.8530   -1.5210 S   0  0  0  0  0  0  0  0  0  0  0  0
   -3.8750    0.9150   -1.3100 C   0  0  0  0  0  0  0  0  0  0  0  0
   -4.4590   -0.2460   -0.8250 C   0  0  0  0  0  0  0  0  0  0  0  0
   -3.7420   -0.9900    0.0860 C   0  0  0  0  0  0  0  0  0  0  0  0
   -4.3930   -2.5110    0.7330 S   0  0  0  0  0  0  0  0  0  0  0  0
   -5.4150   -3.1260   -0.2050 O   0  0  0  0  0  0  0  0  0  0  0  0
   -2.4760   -0.5790    0.4980 C   0  0  0  0  0  0  0  0  0  0  0  0
   -1.7650   -1.3020    1.3860 F   0  0  0  0  0  0  0  0  0  0  0  0
  1  2  1  0
  2  3  1  0
  2 10  1  0
  3  4  2  0
  4  5  1  0
  4  9  1  0
  5  6  1  1
  5  7  1  0
  5  8  1  0
  9 10  2  0
 10 11  1  0
 11 12  2  0
 11 13  1  0
 13 14  1  0
 14 15  2  0
 14 22  1  0
 15 16  1  0
 15 17  1  0
 17 18  2  0
 18 19  1  0
 19 20  1  0
 19 22  2  0
 20 21  2  0
 22 23  1  0
M  END
