
     RDKit          3D

  9  8  0  0  0  0  0  0  0  0999 V2000
   -2.7350    1.7050   -0.3360 O   0  0  0  0  0  0  0  0  0  0  0  0
   -2.2700    0.7790    0.3590 C   0  0  0  0  0  0  0  0  0  0  0  0
   -2.2890    0.9320    1.7380 O   0  0  0  0  0  0  0  0  0  0  0  0
   -1.7080   -0.4550   -0.2090 C   0  0  0  0  0  0  0  0  0  0  0  0
   -0.2300   -0.4910    0.0930 C   0  0  0  0  0  0  0  0  0  0  0  0
    0.2400   -1.3120    0.9050 O   0  0  0  0  0  0  0  0  0  0  0  0
    0.6030    0.4110   -0.5450 O   0  0  0  0  0  0  0  0  0  0  0  0
    2.0040    0.4080   -0.2950 C   0  0  0  0  0  0  0  0  0  0  0  0
    2.4970   -0.8310   -0.6690 O   0  0  0  0  0  0  0  0  0  0  0  0
  1  2  2  0
  2  3  1  0
  2  4  1  0
  4  5  1  0
  5  6  2  0
  5  7  1  0
  7  8  1  0
  8  9  1  0
M  CHG  1   3  -1
M  END
