
     RDKit          3D

 25 26  0  0  0  0  0  0  0  0999 V2000
   -4.1200   -1.6210   -0.0160 C   0  0  0  0  0  0  0  0  0  0  0  0
   -3.7140   -0.2330    0.1320 N   0  0  1  0  0  0  0  0  0  0  0  0
   -2.9380   -0.1030    1.3160 C   0  0  1  0  0  0  0  0  0  0  0  0
   -2.7310    1.2860    1.8090 C   0  0  0  0  0  0  0  0  0  0  0  0
   -3.6360   -0.8600    2.4570 C   0  0  0  0  0  0  0  0  0  0  0  0
   -1.5880   -0.7900    1.1580 C   0  0  0  0  0  0  0  0  0  0  0  0
   -0.9020   -0.1190   -0.0050 C   0  0  1  0  0  0  0  0  0  0  0  0
    0.4900   -0.4730   -0.1040 N   0  0  0  0  0  0  0  0  0  0  0  0
    1.5580    0.4270    0.0110 C   0  0  0  0  0  0  0  0  0  0  0  0
    1.3020    1.6420    0.2180 O   0  0  0  0  0  0  0  0  0  0  0  0
    2.9450   -0.0540   -0.1090 C   0  0  0  0  0  0  0  0  0  0  0  0
    3.1580   -1.2630   -0.3130 O   0  0  0  0  0  0  0  0  0  0  0  0
    4.0210    0.8430    0.0060 N   0  0  0  0  0  0  0  0  0  0  0  0
    5.3920    0.5360   -0.0820 C   0  0  0  0  0  0  0  0  0  0  0  0
    6.3240    1.5790   -0.0620 C   0  0  0  0  0  0  0  0  0  0  0  0
    7.6720    1.3260   -0.1390 C   0  0  0  0  0  0  0  0  0  0  0  0
    8.1690    0.0410   -0.2400 C   0  0  0  0  0  0  0  0  0  0  0  0
    9.8740   -0.2610   -0.3370 Cl  0  0  0  0  0  0  0  0  0  0  0  0
    7.2790   -1.0060   -0.2630 C   0  0  0  0  0  0  0  0  0  0  0  0
    7.7320   -2.2900   -0.3620 F   0  0  0  0  0  0  0  0  0  0  0  0
    5.9080   -0.7260   -0.1830 C   0  0  0  0  0  0  0  0  0  0  0  0
   -1.6840   -0.3890   -1.2550 C   0  0  0  0  0  0  0  0  0  0  0  0
   -3.0790    0.1400   -1.0840 C   0  0  1  0  0  0  0  0  0  0  0  0
   -3.9090   -0.4940   -2.2170 C   0  0  0  0  0  0  0  0  0  0  0  0
   -3.0750    1.6070   -1.3870 C   0  0  0  0  0  0  0  0  0  0  0  0
  2  1  1  6
  2  3  1  0
  2 23  1  0
  3  4  1  1
  3  5  1  0
  3  6  1  0
  6  7  1  0
  7  8  1  6
  7 22  1  0
  8  9  1  0
  9 10  2  0
  9 11  1  0
 11 12  2  0
 11 13  1  0
 13 14  1  0
 14 15  2  0
 14 21  1  0
 15 16  1  0
 16 17  2  0
 17 18  1  0
 17 19  1  0
 19 20  1  0
 19 21  2  0
 22 23  1  0
 23 24  1  6
 23 25  1  0
M  CHG  1   2   1
M  END
