
     RDKit          3D

 23 23  0  0  0  0  0  0  0  0999 V2000
    4.6280    1.3680   -0.1020 C   0  0  0  0  0  0  0  0  0  0  0  0
    4.7390    0.2620   -1.1260 C   0  0  1  0  0  0  0  0  0  0  0  0
    6.1920    0.3230   -1.6370 C   0  0  0  0  0  0  0  0  0  0  0  0
    4.3790   -1.3450   -0.4330 S   0  0  0  0  0  0  0  0  0  0  0  0
    2.7430   -1.6010    0.0800 C   0  0  0  0  0  0  0  0  0  0  0  0
    2.2010   -2.4680    0.6550 O   0  0  0  0  0  0  0  0  0  0  0  0
    1.6730   -0.2990   -0.3450 N   0  0  0  0  0  0  0  0  0  0  0  0
    0.5160   -0.8140    0.2080 C   0  0  0  0  0  0  0  0  0  0  0  0
    0.2860   -1.7590    0.8610 O   0  0  0  0  0  0  0  0  0  0  0  0
   -0.6040    0.0760   -0.1580 N   0  0  0  0  0  0  0  0  0  0  0  0
   -1.9120   -0.0720    0.1780 C   0  0  0  0  0  0  0  0  0  0  0  0
   -2.5900   -0.9390    0.8760 C   0  0  0  0  0  0  0  0  0  0  0  0
   -1.9280   -2.3690    1.6970 S   0  0  0  0  0  0  0  0  0  0  0  0
   -3.2680   -3.2650    2.5170 C   0  0  0  0  0  0  0  0  0  0  0  0
   -3.8350   -2.5200    3.5440 F   0  0  0  0  0  0  0  0  0  0  0  0
   -4.0370   -0.5890    0.9760 C   0  0  0  0  0  0  0  0  0  0  0  0
   -4.2140    0.4760    0.0570 N   0  0  0  0  0  0  0  0  0  0  0  0
   -2.9460    0.8740   -0.3720 C   0  0  0  0  0  0  0  0  0  0  0  0
   -2.6750    1.9270   -1.1490 C   0  0  0  0  0  0  0  0  0  0  0  0
   -3.8240    2.7600   -1.6070 C   0  0  1  0  0  0  0  0  0  0  0  0
   -4.5630    3.1680   -0.5000 F   0  0  0  0  0  0  0  0  0  0  0  0
   -3.3820    3.8310   -2.3470 F   0  0  0  0  0  0  0  0  0  0  0  0
   -4.6400    1.9850   -2.4330 F   0  0  0  0  0  0  0  0  0  0  0  0
  2  1  1  1
  2  3  1  0
  2  4  1  0
  4  5  1  0
  5  6  2  0
  5  7  1  0
  7  8  1  0
  8  9  2  0
  8 10  1  0
 10 11  1  0
 11 12  2  0
 11 18  1  0
 12 13  1  0
 12 16  1  0
 13 14  1  0
 14 15  1  0
 16 17  1  0
 17 18  1  0
 18 19  2  3
 19 20  1  0
 20 21  1  1
 20 22  1  0
 20 23  1  0
M  END
