
     RDKit          3D

 22 23  0  0  0  0  0  0  0  0999 V2000
    3.7220    1.3450   -1.3290 C   0  0  0  0  0  0  0  0  0  0  0  0
    2.9880    0.3510   -0.4990 C   0  0  0  0  0  0  0  0  0  0  0  0
    1.6580    0.2760   -0.3260 N   0  0  0  0  0  0  0  0  0  0  0  0
    1.3530   -0.7510    0.4910 C   0  0  0  0  0  0  0  0  0  0  0  0
    0.0400   -1.1900    0.9440 C   0  0  0  0  0  0  0  0  0  0  0  0
   -0.1060   -2.1650    1.7080 O   0  0  0  0  0  0  0  0  0  0  0  0
   -1.1580   -0.4990    0.5150 N   0  0  0  0  0  0  0  0  0  0  0  0
   -2.4370   -0.9060    0.9390 C   0  0  0  0  0  0  0  0  0  0  0  0
   -3.6130   -0.3470    0.6090 C   0  0  0  0  0  0  0  0  0  0  0  0
   -4.8240   -0.9810    1.2040 C   0  0  0  0  0  0  0  0  0  0  0  0
   -4.9840   -2.1230    1.6710 O   0  0  0  0  0  0  0  0  0  0  0  0
   -6.0730    0.3310    1.0940 S   0  0  0  0  0  0  0  0  0  0  0  0
   -5.2840    1.0780   -0.3510 C   0  0  0  0  0  0  0  0  0  0  0  0
   -6.0380    1.9220   -1.5000 S   0  0  0  0  0  0  0  0  0  0  0  0
   -3.9000    0.7390   -0.2070 N   0  0  0  0  0  0  0  0  0  0  0  0
   -2.9030    1.5590   -0.9360 C   0  0  0  0  0  0  0  0  0  0  0  0
    2.5560   -1.3300    0.8340 C   0  0  0  0  0  0  0  0  0  0  0  0
    3.5890   -0.6520    0.2220 C   0  0  0  0  0  0  0  0  0  0  0  0
    5.0570   -0.9580    0.3310 C   0  0  2  0  0  0  0  0  0  0  0  0
    5.5690   -1.2420   -0.9360 F   0  0  0  0  0  0  0  0  0  0  0  0
    5.2530   -2.0780    1.0920 F   0  0  0  0  0  0  0  0  0  0  0  0
    5.6610    0.1610    0.8390 F   0  0  0  0  0  0  0  0  0  0  0  0
  1  2  1  0
  2  3  1  0
  2 18  2  0
  3  4  1  0
  4  5  1  0
  4 17  2  0
  5  6  2  0
  5  7  1  0
  7  8  1  0
  8  9  2  3
  9 10  1  0
  9 15  1  0
 10 11  2  0
 10 12  1  0
 12 13  1  0
 13 14  2  0
 13 15  1  0
 15 16  1  0
 17 18  1  0
 18 19  1  0
 19 20  1  6
 19 21  1  0
 19 22  1  0
M  END
