
     RDKit          3D

  9  8  0  0  0  0  0  0  0  0999 V2000
   -2.1780   -1.7940   -0.9800 O   0  0  0  0  0  0  0  0  0  0  0  0
   -1.0580   -1.2260   -1.0710 C   0  0  0  0  0  0  0  0  0  0  0  0
   -0.1830   -1.7300   -2.0230 O   0  0  0  0  0  0  0  0  0  0  0  0
   -0.7200   -0.1010   -0.2130 C   0  0  0  0  0  0  0  0  0  0  0  0
   -1.5500    0.3660    0.6790 C   0  0  0  0  0  0  0  0  0  0  0  0
   -1.1770    1.4400    1.4710 O   0  0  0  0  0  0  0  0  0  0  0  0
    0.5190    0.4910   -0.3480 O   0  0  0  0  0  0  0  0  0  0  0  0
    1.6440   -0.2190    0.1450 C   0  0  0  0  0  0  0  0  0  0  0  0
    2.7590    0.5790   -0.1070 O   0  0  0  0  0  0  0  0  0  0  0  0
  1  2  2  0
  2  3  1  0
  2  4  1  0
  4  5  2  3
  4  7  1  0
  5  6  1  0
  7  8  1  0
  8  9  1  0
M  CHG  1   3  -1
M  END
