
     RDKit          3D

 23 24  0  0  0  0  0  0  0  0999 V2000
   -5.0220   -1.4030    1.1030 C   0  0  0  0  0  0  0  0  0  0  0  0
   -5.1790   -0.2230    0.1830 C   0  0  1  0  0  0  0  0  0  0  0  0
   -5.9590   -0.6680   -0.8950 O   0  0  0  0  0  0  0  0  0  0  0  0
   -5.9750    0.8940    0.8470 C   0  0  0  0  0  0  0  0  0  0  0  0
   -6.1030    1.9720   -0.0190 F   0  0  0  0  0  0  0  0  0  0  0  0
   -3.9000    0.2810   -0.3610 C   0  0  0  0  0  0  0  0  0  0  0  0
   -3.4450    1.0820   -1.1480 N   0  0  0  0  0  0  0  0  0  0  0  0
   -2.2400    1.3230   -1.4190 N   0  0  0  0  0  0  0  0  0  0  0  0
   -1.2790    0.6530   -0.8070 C   0  0  0  0  0  0  0  0  0  0  0  0
    0.1080    0.7490   -0.8890 N   0  0  0  0  0  0  0  0  0  0  0  0
    0.9940   -0.0930   -0.1720 C   0  0  0  0  0  0  0  0  0  0  0  0
    0.4940   -1.0000    0.5350 O   0  0  0  0  0  0  0  0  0  0  0  0
    2.4300    0.0690   -0.2340 C   0  0  0  0  0  0  0  0  0  0  0  0
    3.3620   -0.6180    0.3590 C   0  0  0  0  0  0  0  0  0  0  0  0
    4.7120   -0.2100    0.1070 C   0  0  0  0  0  0  0  0  0  0  0  0
    5.8110   -0.9840    0.1700 C   0  0  0  0  0  0  0  0  0  0  0  0
    7.1700   -0.4340   -0.1190 C   0  0  1  0  0  0  0  0  0  0  0  0
    7.3210   -0.2320   -1.4670 F   0  0  0  0  0  0  0  0  0  0  0  0
    7.3440    0.8030    0.5160 F   0  0  0  0  0  0  0  0  0  0  0  0
    8.1190   -1.2570    0.4100 F   0  0  0  0  0  0  0  0  0  0  0  0
    4.8280    1.2510   -0.2610 C   0  0  0  0  0  0  0  0  0  0  0  0
    3.2400    1.3530   -1.2020 S   0  0  0  0  0  0  0  0  0  0  0  0
   -2.2400   -0.4110    0.2480 S   0  0  0  0  0  0  0  0  0  0  0  0
  2  1  1  1
  2  3  1  0
  2  4  1  0
  2  6  1  0
  4  5  1  0
  6  7  2  0
  6 23  1  0
  7  8  1  0
  8  9  2  0
  9 10  1  0
  9 23  1  0
 10 11  1  0
 11 12  2  0
 11 13  1  0
 13 14  2  0
 13 22  1  0
 14 15  1  0
 15 16  2  3
 15 21  1  0
 16 17  1  0
 17 18  1  6
 17 19  1  0
 17 20  1  0
 21 22  1  0
M  END
