
     RDKit          3D

 18 19  0  0  0  0  0  0  0  0999 V2000
    0.9240    2.6640   -1.2880 O   0  0  0  0  0  0  0  0  0  0  0  0
    1.0930    1.2320   -0.8100 S   0  0  2  0  0  0  0  0  0  0  0  0
    0.6400    0.2740   -1.8550 O   0  0  0  0  0  0  0  0  0  0  0  0
    0.2980    0.9860    0.7410 C   0  0  0  0  0  0  0  0  0  0  0  0
   -1.1890    1.1620    0.6820 C   0  0  0  0  0  0  0  0  0  0  0  0
   -1.8610    0.2770   -0.2060 N   0  0  0  0  0  0  0  0  0  0  0  0
   -2.9490   -0.4560    0.3760 C   0  0  2  0  0  0  0  0  0  0  0  0
   -3.7540   -1.1020   -0.7460 C   0  0  0  0  0  0  0  0  0  0  0  0
   -5.0720   -1.3640   -0.0380 C   0  0  0  0  0  0  0  0  0  0  0  0
   -5.3260   -0.0450    0.6280 C   0  0  0  0  0  0  0  0  0  0  0  0
   -3.9330    0.3540    1.1250 C   0  0  0  0  0  0  0  0  0  0  0  0
    2.8390    0.9910   -0.5770 C   0  0  0  0  0  0  0  0  0  0  0  0
    3.1060   -0.4140   -0.0770 C   0  0  0  0  0  0  0  0  0  0  0  0
    4.5330   -0.6690    0.1330 C   0  0  0  0  0  0  0  0  0  0  0  0
    5.0600   -1.8240    0.5710 N   0  0  0  0  0  0  0  0  0  0  0  0
    6.3980   -1.7160    0.6500 C   0  0  0  0  0  0  0  0  0  0  0  0
    6.6980   -0.4350    0.2410 C   0  0  0  0  0  0  0  0  0  0  0  0
    5.5610    0.1910   -0.0700 N   0  0  0  0  0  0  0  0  0  0  0  0
  1  2  2  0
  2  3  2  0
  2  4  1  1
  2 12  1  0
  4  5  1  0
  5  6  1  0
  7  6  1  6
  7  8  1  0
  7 11  1  0
  8  9  1  0
  9 10  1  0
 10 11  1  0
 12 13  1  0
 13 14  1  0
 14 15  2  0
 14 18  1  0
 15 16  1  0
 16 17  2  0
 17 18  1  0
M  CHG  1   6   1
M  END
