
     RDKit          3D

 23 26  0  0  0  0  0  0  0  0999 V2000
   -2.3170    3.5700    0.9070 C   0  0  0  0  0  0  0  0  0  0  0  0
   -1.7940    2.9920   -0.3920 C   0  0  0  0  0  0  0  0  0  0  0  0
   -2.1280    1.5570   -0.5340 C   0  0  0  0  0  0  0  0  0  0  0  0
   -3.1570    1.1020   -1.1400 O   0  0  0  0  0  0  0  0  0  0  0  0
   -3.2420   -0.1920   -1.1230 C   0  0  0  0  0  0  0  0  0  0  0  0
   -2.1080   -0.6250   -0.4040 C   0  0  0  0  0  0  0  0  0  0  0  0
   -1.4030    0.4570   -0.0330 C   0  0  0  0  0  0  0  0  0  0  0  0
   -0.2560    0.6270    0.8060 C   0  0  0  0  0  0  0  0  0  0  0  0
    1.0680    0.5120    0.4700 N   0  0  1  0  0  0  0  0  0  0  0  0
    1.8160    0.9560    1.7030 C   0  0  0  0  0  0  0  0  0  0  0  0
    3.1450    0.2450    1.6250 C   0  0  0  0  0  0  0  0  0  0  0  0
    3.2460    0.1670    0.0860 C   0  0  1  0  0  0  0  0  0  0  0  0
    4.3750   -0.5000   -0.4160 C   0  0  0  0  0  0  0  0  0  0  0  0
    5.5350   -0.8520    0.3160 C   0  0  0  0  0  0  0  0  0  0  0  0
    6.3900   -1.4110   -0.4850 O   0  0  0  0  0  0  0  0  0  0  0  0
    5.9320   -1.4900   -1.7230 C   0  0  0  0  0  0  0  0  0  0  0  0
    4.6770   -0.9210   -1.6750 C   0  0  0  0  0  0  0  0  0  0  0  0
    3.8830   -0.8230   -2.7960 F   0  0  0  0  0  0  0  0  0  0  0  0
    1.8380   -0.4710   -0.1340 C   0  0  0  0  0  0  0  0  0  0  0  0
   -2.1660   -2.1170   -0.1560 C   0  0  0  0  0  0  0  0  0  0  0  0
   -3.6040   -2.2930    0.4410 C   0  0  0  0  0  0  0  0  0  0  0  0
   -4.6420   -2.1740   -0.6160 C   0  0  0  0  0  0  0  0  0  0  0  0
   -4.2270   -1.1820   -1.6810 C   0  0  0  0  0  0  0  0  0  0  0  0
  1  2  1  0
  2  3  1  0
  3  4  1  0
  3  7  2  0
  4  5  1  0
  5  6  2  0
  5 23  1  0
  6  7  1  0
  6 20  1  0
  7  8  1  0
  9  8  1  1
  9 10  1  0
  9 19  1  0
 10 11  1  0
 11 12  1  0
 12 13  1  1
 12 19  1  0
 13 14  2  0
 13 17  1  0
 14 15  1  0
 15 16  1  0
 16 17  2  0
 17 18  1  0
 20 21  1  0
 21 22  1  0
 22 23  1  0
M  CHG  1   9   1
M  END
