
     RDKit          3D

 24 27  0  0  0  0  0  0  0  0999 V2000
   -0.3080   -4.3830   -0.2340 C   0  0  0  0  0  0  0  0  0  0  0  0
   -0.8270   -2.9520   -0.0220 C   0  0  1  0  0  0  0  0  0  0  0  0
   -1.9010   -3.0460    1.0100 C   0  0  0  0  0  0  0  0  0  0  0  0
   -2.8200   -1.9630    0.7590 O   0  0  0  0  0  0  0  0  0  0  0  0
   -2.3940   -0.6590    0.4830 C   0  0  0  0  0  0  0  0  0  0  0  0
   -3.4380    0.1350    0.0720 C   0  0  0  0  0  0  0  0  0  0  0  0
   -3.2290    1.4700   -0.2540 C   0  0  0  0  0  0  0  0  0  0  0  0
   -1.9620    1.9710   -0.1560 C   0  0  0  0  0  0  0  0  0  0  0  0
   -0.9150    1.1600    0.2590 C   0  0  0  0  0  0  0  0  0  0  0  0
   -1.0900   -0.1570    0.5870 C   0  0  0  0  0  0  0  0  0  0  0  0
    0.0600   -0.9290    1.0190 C   0  0  2  0  0  0  0  0  0  0  0  0
    1.3640   -0.1680    1.0050 C   0  0  0  0  0  0  0  0  0  0  0  0
    1.6800    0.1040   -0.3490 O   0  0  0  0  0  0  0  0  0  0  0  0
    2.8270    0.7960   -0.7020 C   0  0  0  0  0  0  0  0  0  0  0  0
    3.6680    1.2220    0.2890 C   0  0  0  0  0  0  0  0  0  0  0  0
    4.8080    1.9110   -0.0960 C   0  0  0  0  0  0  0  0  0  0  0  0
    5.0950    2.1650   -1.4250 C   0  0  0  0  0  0  0  0  0  0  0  0
    4.2340    1.7270   -2.4090 C   0  0  0  0  0  0  0  0  0  0  0  0
    3.1040    1.0430   -2.0190 C   0  0  0  0  0  0  0  0  0  0  0  0
    2.2440    0.6040   -2.9640 F   0  0  0  0  0  0  0  0  0  0  0  0
    0.2880   -2.1400    0.2730 N   0  0  0  0  0  0  0  0  0  0  0  0
   -1.9870    3.3280   -0.5330 O   0  0  0  0  0  0  0  0  0  0  0  0
   -3.1290    3.5130   -1.3860 C   0  0  0  0  0  0  0  0  0  0  0  0
   -4.1050    2.5720   -0.7150 C   0  0  0  0  0  0  0  0  0  0  0  0
  2  1  1  1
  2  3  1  0
  2 21  1  0
  3  4  1  0
  4  5  1  0
  5  6  2  0
  5 10  1  0
  6  7  1  0
  7  8  2  0
  7 24  1  0
  8  9  1  0
  8 22  1  0
  9 10  2  0
 10 11  1  0
 11 12  1  6
 11 21  1  0
 12 13  1  0
 13 14  1  0
 14 15  2  0
 14 19  1  0
 15 16  1  0
 16 17  2  0
 17 18  1  0
 18 19  2  0
 19 20  1  0
 22 23  1  0
 23 24  1  0
M  CHG  1  21   1
M  END
