
     RDKit          3D

 18 19  0  0  0  0  0  0  0  0999 V2000
    7.0540   -1.9030    1.1540 O   0  0  0  0  0  0  0  0  0  0  0  0
    6.2490   -1.3220    0.4020 C   0  0  0  0  0  0  0  0  0  0  0  0
    6.4660   -0.4320   -0.6750 N   0  0  0  0  0  0  0  0  0  0  0  0
    5.3740    0.3200   -1.0910 C   0  0  0  0  0  0  0  0  0  0  0  0
    5.4170    1.1740   -2.0600 O   0  0  0  0  0  0  0  0  0  0  0  0
    4.1340    0.0990   -0.3640 C   0  0  0  0  0  0  0  0  0  0  0  0
    3.0490    0.8170   -0.3110 C   0  0  0  0  0  0  0  0  0  0  0  0
    1.9310    0.3690    0.5030 C   0  0  0  0  0  0  0  0  0  0  0  0
    0.8290    1.0800    0.5690 C   0  0  0  0  0  0  0  0  0  0  0  0
   -0.3020    0.6270    1.3930 C   0  0  0  0  0  0  0  0  0  0  0  0
   -1.4930    0.4480    0.4520 C   0  0  0  0  0  0  0  0  0  0  0  0
   -2.6930   -0.0190    1.2410 C   0  0  0  0  0  0  0  0  0  0  0  0
   -3.8530   -0.2110    0.4330 N   0  0  0  0  0  0  0  0  0  0  0  0
   -4.1540   -1.3940   -0.1670 C   0  0  0  0  0  0  0  0  0  0  0  0
   -5.3250   -1.2460   -0.8640 C   0  0  0  0  0  0  0  0  0  0  0  0
   -5.7460    0.0240   -0.6960 N   0  0  0  0  0  0  0  0  0  0  0  0
   -4.8410    0.6330    0.0920 C   0  0  0  0  0  0  0  0  0  0  0  0
    4.4470   -1.4730    0.4930 S   0  0  0  0  0  0  0  0  0  0  0  0
  1  2  2  0
  2  3  1  0
  2 18  1  0
  3  4  1  0
  4  5  2  0
  4  6  1  0
  6  7  2  3
  6 18  1  0
  7  8  1  0
  8  9  2  3
  9 10  1  0
 10 11  1  0
 11 12  1  0
 12 13  1  0
 13 14  1  0
 13 17  1  0
 14 15  2  0
 15 16  1  0
 16 17  2  0
M  CHG  1  16   1
M  END
