
     RDKit          3D

 24 26  0  0  0  0  0  0  0  0999 V2000
   -2.0870    1.8920    2.3580 N   0  0  0  0  0  0  0  0  0  0  0  0
   -2.6250    0.7180    1.7500 C   0  0  1  0  0  0  0  0  0  0  0  0
   -4.0970    0.8920    1.3490 C   0  0  0  0  0  0  0  0  0  0  0  0
   -4.2230   -0.2770    0.4120 C   0  0  0  0  0  0  0  0  0  0  0  0
   -5.2840   -1.0740    0.0340 C   0  0  0  0  0  0  0  0  0  0  0  0
   -5.1650   -2.1180   -0.8620 C   0  0  0  0  0  0  0  0  0  0  0  0
   -3.9110   -2.3780   -1.4110 C   0  0  0  0  0  0  0  0  0  0  0  0
   -2.8340   -1.5950   -1.0490 C   0  0  0  0  0  0  0  0  0  0  0  0
   -2.9940   -0.5580   -0.1470 C   0  0  0  0  0  0  0  0  0  0  0  0
   -2.0270    0.4080    0.3950 C   0  0  2  0  0  0  0  0  0  0  0  0
   -0.6910   -0.1320    0.5020 N   0  0  0  0  0  0  0  0  0  0  0  0
    0.3850    0.5510   -0.1390 C   0  0  0  0  0  0  0  0  0  0  0  0
    0.1520    1.6060   -0.7830 O   0  0  0  0  0  0  0  0  0  0  0  0
    1.7630    0.0120   -0.0410 C   0  0  0  0  0  0  0  0  0  0  0  0
    1.9620   -1.0260    0.5980 O   0  0  0  0  0  0  0  0  0  0  0  0
    2.8040    0.7200   -0.6920 N   0  0  0  0  0  0  0  0  0  0  0  0
    4.1750    0.3550   -0.7000 C   0  0  0  0  0  0  0  0  0  0  0  0
    5.0060    1.0800   -1.5570 C   0  0  0  0  0  0  0  0  0  0  0  0
    6.3420    0.7890   -1.6120 C   0  0  0  0  0  0  0  0  0  0  0  0
    6.9200   -0.1920   -0.8600 C   0  0  0  0  0  0  0  0  0  0  0  0
    8.6450   -0.5650   -0.9350 Cl  0  0  0  0  0  0  0  0  0  0  0  0
    6.0970   -0.8980   -0.0230 C   0  0  0  0  0  0  0  0  0  0  0  0
    6.6320   -1.8930    0.7520 F   0  0  0  0  0  0  0  0  0  0  0  0
    4.7310   -0.6340    0.0640 C   0  0  0  0  0  0  0  0  0  0  0  0
  2  1  1  6
  2  3  1  0
  2 10  1  0
  3  4  1  0
  4  5  2  0
  4  9  1  0
  5  6  1  0
  6  7  2  0
  7  8  1  0
  8  9  2  0
  9 10  1  0
 10 11  1  1
 11 12  1  0
 12 13  2  0
 12 14  1  0
 14 15  2  0
 14 16  1  0
 16 17  1  0
 17 18  2  0
 17 24  1  0
 18 19  1  0
 19 20  2  0
 20 21  1  0
 20 22  1  0
 22 23  1  0
 22 24  2  0
M  CHG  1   1   1
M  END
