
     RDKit          3D

 18 19  0  0  0  0  0  0  0  0999 V2000
   -4.6370    0.5670    1.3230 C   0  0  0  0  0  0  0  0  0  0  0  0
   -3.9500    0.6570    0.0520 N   0  0  0  0  0  0  0  0  0  0  0  0
   -2.5090    0.4290    0.2160 C   0  0  0  0  0  0  0  0  0  0  0  0
   -1.9260    0.2640   -1.1400 C   0  0  0  0  0  0  0  0  0  0  0  0
   -2.6150    0.3170   -2.3580 C   0  0  0  0  0  0  0  0  0  0  0  0
   -1.7510    0.1190   -3.3560 N   0  0  0  0  0  0  0  0  0  0  0  0
   -0.5650   -0.0530   -2.8240 N   0  0  0  0  0  0  0  0  0  0  0  0
   -0.6150    0.0250   -1.4830 C   0  0  0  0  0  0  0  0  0  0  0  0
    0.5410   -0.1370   -0.6250 C   0  0  0  0  0  0  0  0  0  0  0  0
    0.8810    0.6850    0.4220 C   0  0  0  0  0  0  0  0  0  0  0  0
    2.0040    0.4730    1.2170 C   0  0  0  0  0  0  0  0  0  0  0  0
    2.8170   -0.6040    0.9510 C   0  0  0  0  0  0  0  0  0  0  0  0
    4.0360   -0.9310    1.7250 C   0  0  0  0  0  0  0  0  0  0  0  0
    5.3930   -0.0700    0.9240 S   0  0  2  0  0  0  0  0  0  0  0  0
    4.9000    1.3290    0.6610 O   0  0  0  0  0  0  0  0  0  0  0  0
    5.8320   -0.7580   -0.3120 O   0  0  0  0  0  0  0  0  0  0  0  0
    2.4800   -1.4270   -0.0960 C   0  0  0  0  0  0  0  0  0  0  0  0
    1.3710   -1.2210   -0.8830 C   0  0  0  0  0  0  0  0  0  0  0  0
  1  2  1  0
  2  3  1  0
  3  4  1  0
  4  5  2  0
  4  8  1  0
  5  6  1  0
  6  7  1  0
  7  8  2  0
  8  9  1  0
  9 10  2  0
  9 18  1  0
 10 11  1  0
 11 12  2  0
 12 13  1  0
 12 17  1  0
 14 13  1  6
 14 15  2  0
 14 16  2  0
 17 18  2  0
M  CHG  1   2   1
M  END
