
     RDKit          3D

 24 27  0  0  0  0  0  0  0  0999 V2000
   -3.9170    0.4720    2.5720 C   0  0  0  0  0  0  0  0  0  0  0  0
   -4.2940    0.5740    1.1450 C   0  0  0  0  0  0  0  0  0  0  0  0
   -5.5710    0.8690    0.7930 C   0  0  0  0  0  0  0  0  0  0  0  0
   -5.9800    0.8470   -0.5330 C   0  0  0  0  0  0  0  0  0  0  0  0
   -7.2790    1.1490   -0.8900 F   0  0  0  0  0  0  0  0  0  0  0  0
   -5.0340    0.5100   -1.4740 C   0  0  0  0  0  0  0  0  0  0  0  0
   -3.6930    0.1940   -1.1150 C   0  0  0  0  0  0  0  0  0  0  0  0
   -3.3190    0.2300    0.2300 C   0  0  0  0  0  0  0  0  0  0  0  0
   -1.9140    0.0710    0.6910 C   0  0  1  0  0  0  0  0  0  0  0  0
   -1.5330   -1.3390    0.1600 C   0  0  0  0  0  0  0  0  0  0  0  0
   -0.9910    0.9580   -0.0330 N   0  0  0  0  0  0  0  0  0  0  0  0
    0.3610    0.6710    0.3380 C   0  0  0  0  0  0  0  0  0  0  0  0
    1.2220    0.0200   -0.6870 C   0  0  2  0  0  0  0  0  0  0  0  0
    0.8990   -1.2370   -1.1070 O   0  0  0  0  0  0  0  0  0  0  0  0
    1.9590   -1.8370   -1.7150 C   0  0  0  0  0  0  0  0  0  0  0  0
    3.1360   -1.1310   -1.0940 C   0  0  0  0  0  0  0  0  0  0  0  0
    4.4950   -1.4310   -1.1200 C   0  0  0  0  0  0  0  0  0  0  0  0
    5.3920   -0.6210   -0.4730 C   0  0  0  0  0  0  0  0  0  0  0  0
    4.9060    0.5090    0.2050 C   0  0  0  0  0  0  0  0  0  0  0  0
    3.5520    0.8040    0.2310 C   0  0  0  0  0  0  0  0  0  0  0  0
    2.6640   -0.0340   -0.4300 C   0  0  0  0  0  0  0  0  0  0  0  0
    6.0120    1.1320    0.7500 O   0  0  0  0  0  0  0  0  0  0  0  0
    7.1880    0.4030    0.4580 C   0  0  0  0  0  0  0  0  0  0  0  0
    6.7900   -0.7060   -0.3390 O   0  0  0  0  0  0  0  0  0  0  0  0
  1  2  1  0
  2  3  2  0
  2  8  1  0
  3  4  1  0
  4  5  1  0
  4  6  2  0
  6  7  1  0
  7  8  2  0
  8  9  1  0
  9 10  1  6
  9 11  1  0
 11 12  1  0
 13 12  1  1
 13 14  1  0
 13 21  1  0
 14 15  1  0
 15 16  1  0
 16 17  2  0
 16 21  1  0
 17 18  1  0
 18 19  2  0
 18 24  1  0
 19 20  1  0
 19 22  1  0
 20 21  2  0
 22 23  1  0
 23 24  1  0
M  CHG  1  11   1
M  END
