
     RDKit          3D

 18 18  0  0  0  0  0  0  0  0999 V2000
   -2.9220   -0.6860    1.7990 C   0  0  0  0  0  0  0  0  0  0  0  0
   -3.1230   -0.1490    0.6280 C   0  0  0  0  0  0  0  0  0  0  0  0
   -3.9450    1.0760    0.5120 C   0  0  0  0  0  0  0  0  0  0  0  0
   -4.4680    1.6150    1.5240 N   0  0  0  0  0  0  0  0  0  0  0  0
   -4.1260    1.6390   -0.8420 C   0  0  0  0  0  0  0  0  0  0  0  0
   -3.5660    1.0490   -1.8730 C   0  0  0  0  0  0  0  0  0  0  0  0
   -2.7620   -0.1570   -1.7260 C   0  0  0  0  0  0  0  0  0  0  0  0
   -2.5440   -0.7340   -0.5570 C   0  0  0  0  0  0  0  0  0  0  0  0
   -1.5910   -2.1700   -0.5460 S   0  0  2  0  0  0  0  0  0  0  0  0
   -1.6650   -2.8230   -1.9290 O   0  0  0  0  0  0  0  0  0  0  0  0
   -2.1600   -3.1650    0.4090 O   0  0  0  0  0  0  0  0  0  0  0  0
    0.0480   -1.7740   -0.2780 N   0  0  0  0  0  0  0  0  0  0  0  0
    0.3550   -1.1370    0.9480 C   0  0  0  0  0  0  0  0  0  0  0  0
    1.8610   -0.8920    0.9570 C   0  0  0  0  0  0  0  0  0  0  0  0
    2.2800   -0.0570   -0.1340 N   0  0  0  0  0  0  0  0  0  0  0  0
    3.5880    0.5090    0.1660 C   0  0  2  0  0  0  0  0  0  0  0  0
    3.4300    1.8760    0.7550 C   0  0  0  0  0  0  0  0  0  0  0  0
    4.4910    0.5110   -1.0550 C   0  0  0  0  0  0  0  0  0  0  0  0
  1  2  2  0
  2  3  1  0
  2  8  1  0
  3  4  2  0
  3  5  1  0
  5  6  2  0
  6  7  1  0
  7  8  2  0
  8  9  1  0
  9 10  2  0
  9 11  2  0
  9 12  1  1
 12 13  1  0
 13 14  1  0
 14 15  1  0
 15 16  1  0
 16 17  1  6
 16 18  1  0
M  CHG  1  15   1
M  END
