
     RDKit          3D

 18 19  0  0  0  0  0  0  0  0999 V2000
   -5.4980   -0.7740    0.4300 C   0  0  0  0  0  0  0  0  0  0  0  0
   -5.3110   -0.0060   -0.8550 C   0  0  0  0  0  0  0  0  0  0  0  0
   -3.9440    0.2630   -0.9950 O   0  0  0  0  0  0  0  0  0  0  0  0
   -3.2000   -0.8880   -1.0440 C   0  0  0  0  0  0  0  0  0  0  0  0
   -1.7750   -0.5560   -1.1900 C   0  0  0  0  0  0  0  0  0  0  0  0
   -0.8850   -1.4740   -1.2580 O   0  0  0  0  0  0  0  0  0  0  0  0
   -1.3770    0.8070   -1.2570 N   0  0  0  0  0  0  0  0  0  0  0  0
    0.0200    1.1040   -1.4000 C   0  0  0  0  0  0  0  0  0  0  0  0
    0.7910    0.5290   -0.1990 C   0  0  0  0  0  0  0  0  0  0  0  0
    0.0790    0.0340    0.8610 C   0  0  0  0  0  0  0  0  0  0  0  0
    1.4560   -0.5020    1.9470 S   0  0  0  0  0  0  0  0  0  0  0  0
    2.7180   -0.0060    0.8700 C   0  0  0  0  0  0  0  0  0  0  0  0
    4.1540   -0.1570    1.1460 C   0  0  0  0  0  0  0  0  0  0  0  0
    5.1340    0.1960    0.3780 C   0  0  0  0  0  0  0  0  0  0  0  0
    6.4450   -0.1320    1.0250 C   0  0  0  0  0  0  0  0  0  0  0  0
    6.0190   -0.7210    2.2700 N   0  0  0  0  0  0  0  0  0  0  0  0
    4.7250   -0.7390    2.3450 C   0  0  0  0  0  0  0  0  0  0  0  0
    2.0970    0.4900   -0.1540 N   0  0  0  0  0  0  0  0  0  0  0  0
  1  2  1  0
  2  3  1  0
  3  4  1  0
  4  5  1  0
  5  6  2  0
  5  7  1  0
  7  8  1  0
  8  9  1  0
  9 10  2  0
  9 18  1  0
 10 11  1  0
 11 12  1  0
 12 13  1  0
 12 18  2  0
 13 14  2  0
 13 17  1  0
 14 15  1  0
 15 16  1  0
 16 17  2  0
M  CHG  1  18   1
M  END
