
     RDKit          3D

 24 26  0  0  0  0  0  0  0  0999 V2000
   -2.3670    4.3950   -0.6070 C   0  0  0  0  0  0  0  0  0  0  0  0
   -2.3560    3.0140    0.0320 C   0  0  0  0  0  0  0  0  0  0  0  0
   -1.8290    1.9670   -0.9420 C   0  0  0  0  0  0  0  0  0  0  0  0
   -1.8460    0.6710   -0.2600 C   0  0  0  0  0  0  0  0  0  0  0  0
   -0.7730   -0.0800    0.0750 C   0  0  0  0  0  0  0  0  0  0  0  0
    0.5390    0.4280   -0.2610 C   0  0  0  0  0  0  0  0  0  0  0  0
    1.7170   -0.1480   -0.0770 C   0  0  0  0  0  0  0  0  0  0  0  0
    2.1990   -1.4100    0.4730 C   0  0  0  0  0  0  0  0  0  0  0  0
    3.4840   -1.6840    0.5640 C   0  0  0  0  0  0  0  0  0  0  0  0
    4.5670   -0.7920    0.1390 C   0  0  1  0  0  0  0  0  0  0  0  0
    5.4100   -1.4600   -0.7430 F   0  0  0  0  0  0  0  0  0  0  0  0
    4.0800    0.4720   -0.4150 C   0  0  0  0  0  0  0  0  0  0  0  0
    5.0960    1.4060   -0.8610 N   0  0  0  0  0  0  0  0  0  0  0  0
    2.8100    0.7560   -0.5100 C   0  0  0  0  0  0  0  0  0  0  0  0
    2.1180    1.9610   -1.0300 C   0  0  0  0  0  0  0  0  0  0  0  0
    0.7820    1.6910   -0.8710 O   0  0  0  0  0  0  0  0  0  0  0  0
   -1.0720   -1.3170    0.8090 C   0  0  2  0  0  0  0  0  0  0  0  0
   -1.7950   -2.2290    0.0410 O   0  0  0  0  0  0  0  0  0  0  0  0
   -1.2480   -3.4860    0.2160 C   0  0  0  0  0  0  0  0  0  0  0  0
   -1.9940   -4.5380   -0.5870 C   0  0  0  0  0  0  0  0  0  0  0  0
   -2.1110   -0.8690    1.9080 C   0  0  0  0  0  0  0  0  0  0  0  0
   -3.4120   -0.7730    1.1580 C   0  0  0  0  0  0  0  0  0  0  0  0
   -3.2010    0.1570    0.0490 C   0  0  0  0  0  0  0  0  0  0  0  0
   -4.1550    0.5310   -0.6530 O   0  0  0  0  0  0  0  0  0  0  0  0
  1  2  1  0
  2  3  1  0
  3  4  1  0
  4  5  2  0
  4 23  1  0
  5  6  1  0
  5 17  1  0
  6  7  2  0
  6 16  1  0
  7  8  1  0
  7 14  1  0
  8  9  2  0
  9 10  1  0
 10 11  1  6
 10 12  1  0
 12 13  1  0
 12 14  2  0
 14 15  1  0
 15 16  1  0
 17 18  1  6
 17 21  1  0
 18 19  1  0
 19 20  1  0
 21 22  1  0
 22 23  1  0
 23 24  2  0
M  CHG  1  13   1
M  END
