
     RDKit          3D

 11 12  0  0  0  0  0  0  0  0999 V2000
    2.9200   -0.2770   -0.0260 C   0  0  0  0  0  0  0  0  0  0  0  0
    1.4470   -0.0560   -0.0220 C   0  0  0  0  0  0  0  0  0  0  0  0
    0.8800    1.1890   -0.1000 C   0  0  0  0  0  0  0  0  0  0  0  0
   -0.4970    1.3990   -0.0960 C   0  0  0  0  0  0  0  0  0  0  0  0
   -1.0380    2.6670   -0.1770 O   0  0  0  0  0  0  0  0  0  0  0  0
   -1.3360    0.3100   -0.0100 C   0  0  0  0  0  0  0  0  0  0  0  0
   -2.7100    0.1360    0.0190 C   0  0  0  0  0  0  0  0  0  0  0  0
   -2.9740   -1.1920    0.1140 N   0  0  0  0  0  0  0  0  0  0  0  0
   -1.8210   -1.8370    0.1440 N   0  0  0  0  0  0  0  0  0  0  0  0
   -0.7980   -0.9660    0.0700 C   0  0  0  0  0  0  0  0  0  0  0  0
    0.5870   -1.1420    0.0640 C   0  0  0  0  0  0  0  0  0  0  0  0
  1  2  1  0
  2  3  2  0
  2 11  1  0
  3  4  1  0
  4  5  1  0
  4  6  2  0
  6  7  1  0
  6 10  1  0
  7  8  2  0
  8  9  1  0
  9 10  1  0
 10 11  2  0
M  END
