
     RDKit          3D

 11 11  0  0  0  0  0  0  0  0999 V2000
   -2.9650    0.2980   -0.4860 C   0  0  0  0  0  0  0  0  0  0  0  0
   -2.0060    0.5370    0.5240 O   0  0  0  0  0  0  0  0  0  0  0  0
   -0.6620    0.3610    0.3930 C   0  0  0  0  0  0  0  0  0  0  0  0
    0.0380    1.4630    0.1060 C   0  0  0  0  0  0  0  0  0  0  0  0
    1.4280    1.8250   -0.1280 C   0  0  0  0  0  0  0  0  0  0  0  0
    2.5200    1.1330   -0.3800 C   0  0  0  0  0  0  0  0  0  0  0  0
    2.7700   -0.3060   -0.5250 C   0  0  0  0  0  0  0  0  0  0  0  0
    2.0560   -1.3800   -0.2250 C   0  0  0  0  0  0  0  0  0  0  0  0
    0.7890   -1.6880    0.3430 N   0  0  0  0  0  0  0  0  0  0  0  0
   -0.3090   -1.0480    0.6080 C   0  0  0  0  0  0  0  0  0  0  0  0
   -1.3250   -1.8330    1.1990 N   0  0  0  0  0  0  0  0  0  0  0  0
  1  2  1  0
  2  3  1  0
  3  4  2  0
  3 10  1  0
  4  5  1  0
  5  6  2  0
  6  7  1  0
  7  8  2  0
  8  9  1  0
  9 10  2  0
 10 11  1  0
M  END
