
     RDKit          3D

 27 29  0  0  0  0  0  0  0  0999 V2000
   -4.1740    1.4550    2.7170 N   0  0  0  0  0  0  0  0  0  0  0  0
   -4.5270    1.1730    1.3630 C   0  0  0  0  0  0  0  0  0  0  0  0
   -5.8800    1.3750    1.0050 N   0  0  0  0  0  0  0  0  0  0  0  0
   -3.6620    0.7550    0.5010 N   0  0  0  0  0  0  0  0  0  0  0  0
   -2.2720    0.5410    0.8440 C   0  0  1  0  0  0  0  0  0  0  0  0
   -2.2200   -0.7590    1.6450 C   0  0  0  0  0  0  0  0  0  0  0  0
   -2.4890   -1.7400    0.5350 C   0  0  0  0  0  0  0  0  0  0  0  0
   -3.0590   -3.0020    0.5630 C   0  0  0  0  0  0  0  0  0  0  0  0
   -3.1870   -3.6830   -0.6310 C   0  0  0  0  0  0  0  0  0  0  0  0
   -2.7650   -3.1390   -1.8320 C   0  0  0  0  0  0  0  0  0  0  0  0
   -2.1960   -1.8810   -1.8640 C   0  0  0  0  0  0  0  0  0  0  0  0
   -2.0760   -1.2140   -0.6600 C   0  0  0  0  0  0  0  0  0  0  0  0
   -1.5080    0.1250   -0.3920 C   0  0  2  0  0  0  0  0  0  0  0  0
   -0.1060   -0.0580   -0.0890 N   0  0  0  0  0  0  0  0  0  0  0  0
    0.9530    0.5840   -0.7720 C   0  0  0  0  0  0  0  0  0  0  0  0
    0.6940    1.3630   -1.6990 O   0  0  0  0  0  0  0  0  0  0  0  0
    2.3640    0.3310   -0.3850 C   0  0  0  0  0  0  0  0  0  0  0  0
    2.5810   -0.4560    0.5460 O   0  0  0  0  0  0  0  0  0  0  0  0
    3.4210    0.9720   -1.0660 N   0  0  0  0  0  0  0  0  0  0  0  0
    4.8000    0.8390   -0.8230 C   0  0  0  0  0  0  0  0  0  0  0  0
    5.3170    0.0110    0.1220 C   0  0  0  0  0  0  0  0  0  0  0  0
    6.6930   -0.0800    0.3220 C   0  0  0  0  0  0  0  0  0  0  0  0
    7.5320    0.6820   -0.4520 C   0  0  0  0  0  0  0  0  0  0  0  0
    9.2750    0.5870   -0.2210 Cl  0  0  0  0  0  0  0  0  0  0  0  0
    7.0210    1.5210   -1.4090 C   0  0  0  0  0  0  0  0  0  0  0  0
    7.8500    2.2600   -2.1590 F   0  0  0  0  0  0  0  0  0  0  0  0
    5.6600    1.5940   -1.5890 C   0  0  0  0  0  0  0  0  0  0  0  0
  1  2  1  0
  2  3  1  0
  2  4  2  3
  5  4  1  6
  5  6  1  0
  5 13  1  0
  6  7  1  0
  7  8  2  0
  7 12  1  0
  8  9  1  0
  9 10  2  0
 10 11  1  0
 11 12  2  0
 12 13  1  0
 13 14  1  1
 14 15  1  0
 15 16  2  0
 15 17  1  0
 17 18  2  0
 17 19  1  0
 19 20  1  0
 20 21  2  0
 20 27  1  0
 21 22  1  0
 22 23  2  0
 23 24  1  0
 23 25  1  0
 25 26  1  0
 25 27  2  0
M  CHG  1   4   1
M  END
