
     RDKit          3D

 11 12  0  0  0  0  0  0  0  0999 V2000
    3.4680   -0.3930   -0.1840 C   0  0  0  0  0  0  0  0  0  0  0  0
    2.3380    0.4420   -0.4810 O   0  0  0  0  0  0  0  0  0  0  0  0
    1.0440    0.0330   -0.1940 C   0  0  0  0  0  0  0  0  0  0  0  0
    0.6700   -1.1320    0.2120 N   0  0  0  0  0  0  0  0  0  0  0  0
   -0.7400   -1.1710    0.3990 C   0  0  0  0  0  0  0  0  0  0  0  0
   -1.4550   -2.3110    0.8400 N   0  0  0  0  0  0  0  0  0  0  0  0
   -1.2860   -0.0000    0.1070 C   0  0  0  0  0  0  0  0  0  0  0  0
   -2.5180    0.7940    0.0170 C   0  0  0  0  0  0  0  0  0  0  0  0
   -2.1500    1.9960   -0.3990 C   0  0  0  0  0  0  0  0  0  0  0  0
   -0.6930    2.0280   -0.5910 C   0  0  0  0  0  0  0  0  0  0  0  0
   -0.1680    0.8490   -0.2940 C   0  0  0  0  0  0  0  0  0  0  0  0
  1  2  1  0
  2  3  1  0
  3  4  2  0
  3 11  1  0
  4  5  1  0
  5  6  1  0
  5  7  2  0
  7  8  1  0
  7 11  1  0
  8  9  2  0
  9 10  1  0
 10 11  2  0
M  END
