
     RDKit          3D

 11 11  0  0  0  0  0  0  0  0999 V2000
   -3.1220    0.1690   -0.5760 C   0  0  0  0  0  0  0  0  0  0  0  0
   -2.6450   -0.0430    0.7680 N   0  0  0  0  0  0  0  0  0  0  0  0
   -1.4880    0.5930    1.2810 C   0  0  0  0  0  0  0  0  0  0  0  0
   -0.2940    0.4440    0.7380 C   0  0  0  0  0  0  0  0  0  0  0  0
   -0.1060   -0.3980   -0.4380 C   0  0  0  0  0  0  0  0  0  0  0  0
    1.0980   -0.5340   -0.9670 C   0  0  0  0  0  0  0  0  0  0  0  0
    2.2940    0.1220   -0.4380 C   0  0  0  0  0  0  0  0  0  0  0  0
    3.5720   -0.0430   -1.0280 N   0  0  0  0  0  0  0  0  0  0  0  0
    2.1960    0.9090    0.6360 C   0  0  0  0  0  0  0  0  0  0  0  0
    0.8950    1.1010    1.2680 C   0  0  0  0  0  0  0  0  0  0  0  0
    0.7950    1.8420    2.2830 O   0  0  0  0  0  0  0  0  0  0  0  0
  1  2  1  0
  2  3  1  0
  3  4  2  3
  4  5  1  0
  4 10  1  0
  5  6  2  0
  6  7  1  0
  7  8  1  0
  7  9  2  0
  9 10  1  0
 10 11  2  0
M  END
