
     RDKit          3D

 11 12  0  0  0  0  0  0  0  0999 V2000
   -2.9380   -2.0000    1.0590 O   0  0  0  0  0  0  0  0  0  0  0  0
   -2.0740   -1.3120    0.4180 C   0  0  0  0  0  0  0  0  0  0  0  0
   -2.4390   -0.0540   -0.2710 C   0  0  0  0  0  0  0  0  0  0  0  0
   -1.5280    1.0920    0.1140 C   0  0  0  0  0  0  0  0  0  0  0  0
   -0.0890    0.6620    0.0300 C   0  0  0  0  0  0  0  0  0  0  0  0
    0.8390    1.5880   -0.1510 C   0  0  0  0  0  0  0  0  0  0  0  0
    2.2150    1.2490   -0.2380 N   0  0  0  0  0  0  0  0  0  0  0  0
    2.6630   -0.1240   -0.1350 C   0  0  0  0  0  0  0  0  0  0  0  0
    1.5480   -1.0780    0.0660 C   0  0  0  0  0  0  0  0  0  0  0  0
    0.2830   -0.7420    0.1440 C   0  0  0  0  0  0  0  0  0  0  0  0
   -0.7170   -1.7300    0.3390 N   0  0  0  0  0  0  0  0  0  0  0  0
  1  2  2  0
  2  3  1  0
  2 11  1  0
  3  4  1  0
  4  5  1  0
  5  6  2  0
  5 10  1  0
  6  7  1  0
  7  8  1  0
  8  9  1  0
  9 10  2  0
 10 11  1  0
M  END
