
     RDKit          3D

 27 29  0  0  0  0  0  0  0  0999 V2000
    6.4190   -0.1710    0.7130 C   0  0  0  0  0  0  0  0  0  0  0  0
    5.9280    1.0000    0.5150 C   0  0  0  0  0  0  0  0  0  0  0  0
    6.9370    2.0020    0.5140 F   0  0  0  0  0  0  0  0  0  0  0  0
    4.6060    1.4570    0.3110 C   0  0  0  0  0  0  0  0  0  0  0  0
    3.3240    0.8540    0.2500 C   0  0  0  0  0  0  0  0  0  0  0  0
    2.7880   -0.3690    0.3460 C   0  0  0  0  0  0  0  0  0  0  0  0
    3.6560   -1.4360    0.5720 N   0  0  0  0  0  0  0  0  0  0  0  0
    1.3570   -0.4910    0.2070 C   0  0  0  0  0  0  0  0  0  0  0  0
    0.4960   -1.4370    0.2360 C   0  0  0  0  0  0  0  0  0  0  0  0
   -0.9600   -1.0280    0.0260 C   0  0  0  0  0  0  0  0  0  0  0  0
   -1.9540   -1.8590    0.0330 C   0  0  0  0  0  0  0  0  0  0  0  0
   -3.3420   -1.4170   -0.1750 C   0  0  0  0  0  0  0  0  0  0  0  0
   -4.2520   -2.3180   -0.1440 O   0  0  0  0  0  0  0  0  0  0  0  0
   -3.7270   -0.0790   -0.4040 N   0  0  0  0  0  0  0  0  0  0  0  0
   -5.1440    0.2020   -0.5910 C   0  0  1  0  0  0  0  0  0  0  0  0
   -5.6220    1.2590    0.3530 C   0  0  0  0  0  0  0  0  0  0  0  0
   -5.7260    2.4860   -0.4970 C   0  0  0  0  0  0  0  0  0  0  0  0
   -5.2020    2.1690   -1.7450 O   0  0  0  0  0  0  0  0  0  0  0  0
   -5.4010    0.8260   -1.9470 C   0  0  0  0  0  0  0  0  0  0  0  0
   -1.6470   -3.2630    0.2570 C   0  0  0  0  0  0  0  0  0  0  0  0
   -2.6220   -4.0690    0.2630 O   0  0  0  0  0  0  0  0  0  0  0  0
   -0.3240   -3.7120    0.4590 N   0  0  0  0  0  0  0  0  0  0  0  0
    0.7710   -2.7940    0.4500 N   0  0  0  0  0  0  0  0  0  0  0  0
    2.0400   -3.3120    0.6550 N   0  0  0  0  0  0  0  0  0  0  0  0
    4.5500    2.8410    0.1320 C   0  0  0  0  0  0  0  0  0  0  0  0
    3.2570    3.4980   -0.0940 C   0  0  0  0  0  0  0  0  0  0  0  0
    5.9770    3.7790    0.1740 Cl  0  0  0  0  0  0  0  0  0  0  0  0
  1  2  2  0
  2  3  1  0
  2  4  1  0
  4  5  1  0
  4 25  2  0
  5  6  2  3
  6  7  1  0
  6  8  1  0
  8  9  2  3
  9 10  1  0
  9 23  1  0
 10 11  2  0
 11 12  1  0
 11 20  1  0
 12 13  2  0
 12 14  1  0
 15 14  1  1
 15 16  1  0
 15 19  1  0
 16 17  1  0
 17 18  1  0
 18 19  1  0
 20 21  2  0
 20 22  1  0
 22 23  1  0
 23 24  1  0
 25 26  1  0
 25 27  1  0
 27  3  1  0
M  END
