
     RDKit          3D

 11 11  0  0  0  0  0  0  0  0999 V2000
    2.0240    0.4900   -1.2070 C   0  0  0  0  0  0  0  0  0  0  0  0
    1.1790    0.0410   -0.0720 C   0  0  0  0  0  0  0  0  0  0  0  0
    1.6950   -0.0280    1.1280 C   0  0  0  0  0  0  0  0  0  0  0  0
    3.0540    0.3150    1.3790 N   0  0  0  0  0  0  0  0  0  0  0  0
   -0.1560   -0.2940   -0.3330 N   0  0  0  0  0  0  0  0  0  0  0  0
   -0.5360   -1.6600   -0.5870 C   0  0  0  0  0  0  0  0  0  0  0  0
   -1.9100   -2.0120   -0.1680 C   0  0  0  0  0  0  0  0  0  0  0  0
   -2.7980   -0.9920   -0.0350 O   0  0  0  0  0  0  0  0  0  0  0  0
   -2.2510    0.1130    0.6330 C   0  0  0  0  0  0  0  0  0  0  0  0
   -1.2420    0.6770   -0.3700 C   0  0  1  0  0  0  0  0  0  0  0  0
   -0.8300    2.0610   -0.0530 C   0  0  0  0  0  0  0  0  0  0  0  0
  1  2  1  0
  2  3  2  3
  2  5  1  0
  3  4  1  0
  5  6  1  0
  5 10  1  0
  6  7  1  0
  7  8  1  0
  8  9  1  0
  9 10  1  0
 10 11  1  1
M  END
