
     RDKit          3D

 11 11  0  0  0  0  0  0  0  0999 V2000
    2.7120    1.3040   -0.5970 C   0  0  0  0  0  0  0  0  0  0  0  0
    3.0620    0.0590   -0.3850 C   0  0  0  0  0  0  0  0  0  0  0  0
    2.0560   -0.9830   -0.0180 C   0  0  0  0  0  0  0  0  0  0  0  0
    0.7660   -0.3490   -0.0170 N   0  0  0  0  0  0  0  0  0  0  0  0
   -0.2540   -1.2050    0.5410 C   0  0  0  0  0  0  0  0  0  0  0  0
   -1.5610   -0.4590    0.4100 C   0  0  0  0  0  0  0  0  0  0  0  0
   -2.7430   -0.8060    0.9380 N   0  0  0  0  0  0  0  0  0  0  0  0
   -3.6290    0.1170    0.5850 N   0  0  0  0  0  0  0  0  0  0  0  0
   -3.0350    1.0640   -0.1690 C   0  0  0  0  0  0  0  0  0  0  0  0
   -3.6690    2.3940   -0.8520 S   0  0  0  0  0  0  0  0  0  0  0  0
   -1.7470    0.6750   -0.2590 N   0  0  0  0  0  0  0  0  0  0  0  0
  1  2  2  0
  2  3  1  0
  3  4  1  0
  4  5  1  0
  5  6  1  0
  6  7  2  0
  6 11  1  0
  7  8  1  0
  8  9  1  0
  9 10  2  0
  9 11  1  0
M  END
