
     RDKit          3D

 11 11  0  0  0  0  0  0  0  0999 V2000
    3.8720   -0.2960   -0.1520 C   0  0  0  0  0  0  0  0  0  0  0  0
    2.7380    0.3380   -1.4460 S   0  0  0  0  0  0  0  0  0  0  0  0
    1.4130    1.2780   -0.7030 C   0  0  0  0  0  0  0  0  0  0  0  0
    1.3950    2.6040   -0.4330 N   0  0  0  0  0  0  0  0  0  0  0  0
    0.2240    2.8630    0.1100 N   0  0  0  0  0  0  0  0  0  0  0  0
   -0.5090    1.7480    0.1970 N   0  0  0  0  0  0  0  0  0  0  0  0
    0.2100    0.7310   -0.3060 C   0  0  0  0  0  0  0  0  0  0  0  0
   -0.1520   -0.6290   -0.4200 N   0  0  0  0  0  0  0  0  0  0  0  0
   -1.4340   -1.1500    0.0100 C   0  0  2  0  0  0  0  0  0  0  0  0
   -2.5030   -0.4680   -0.8170 C   0  0  0  0  0  0  0  0  0  0  0  0
   -1.6550   -0.7810    1.4560 C   0  0  0  0  0  0  0  0  0  0  0  0
  1  2  1  0
  2  3  1  0
  3  4  1  0
  3  7  2  0
  4  5  2  0
  5  6  1  0
  6  7  1  0
  7  8  1  0
  8  9  1  0
  9 10  1  6
  9 11  1  0
M  END
