
     RDKit          3D

 11 11  0  0  0  0  0  0  0  0999 V2000
    3.5870   -0.5360    0.0900 C   0  0  0  0  0  0  0  0  0  0  0  0
    2.1450   -0.7670    0.1210 N   0  0  0  0  0  0  0  0  0  0  0  0
    1.5150    0.5380    0.1810 C   0  0  0  0  0  0  0  0  0  0  0  0
    0.0370    0.4330    0.2170 C   0  0  0  0  0  0  0  0  0  0  0  0
   -0.6200   -0.7300    0.1960 N   0  0  0  0  0  0  0  0  0  0  0  0
   -1.9690   -0.7010    0.2330 C   0  0  0  0  0  0  0  0  0  0  0  0
   -2.7730   -1.9600    0.2130 C   0  0  0  0  0  0  0  0  0  0  0  0
   -2.6600    0.4670    0.2910 N   0  0  0  0  0  0  0  0  0  0  0  0
   -1.9980    1.6420    0.3120 C   0  0  0  0  0  0  0  0  0  0  0  0
   -2.8770    3.2090    0.3870 S   0  0  0  0  0  0  0  0  0  0  0  0
   -0.6590    1.5810    0.2740 N   0  0  0  0  0  0  0  0  0  0  0  0
  1  2  1  0
  2  3  1  0
  3  4  1  0
  4  5  2  0
  4 11  1  0
  5  6  1  0
  6  7  1  0
  6  8  2  0
  8  9  1  0
  9 10  1  0
  9 11  2  0
M  END
