
     RDKit          3D

 11 11  0  0  0  0  0  0  0  0999 V2000
   -2.5870   -0.5320   -0.6880 C   0  0  0  0  0  0  0  0  0  0  0  0
   -1.9100    0.5640    0.1310 C   0  0  1  0  0  0  0  0  0  0  0  0
   -2.9840    1.1450    1.0250 C   0  0  0  0  0  0  0  0  0  0  0  0
   -0.6300   -0.1290    1.2100 S   0  0  0  0  0  0  0  0  0  0  0  0
    0.7550   -0.7840    0.3100 C   0  0  0  0  0  0  0  0  0  0  0  0
    0.9600   -2.0070   -0.1780 N   0  0  0  0  0  0  0  0  0  0  0  0
    2.1230   -2.0970   -0.7810 N   0  0  0  0  0  0  0  0  0  0  0  0
    2.7020   -0.8890   -0.6860 C   0  0  0  0  0  0  0  0  0  0  0  0
    3.8370   -0.4770   -1.1170 N   0  0  0  0  0  0  0  0  0  0  0  0
    1.8500   -0.0710   -0.0050 N   0  0  0  0  0  0  0  0  0  0  0  0
    2.0950    1.3210    0.3160 C   0  0  0  0  0  0  0  0  0  0  0  0
  2  1  1  6
  2  3  1  0
  2  4  1  0
  4  5  1  0
  5  6  2  0
  5 10  1  0
  6  7  1  0
  7  8  1  0
  8  9  2  0
  8 10  1  0
 10 11  1  0
M  END
