
     RDKit          3D

 11 11  0  0  0  0  0  0  0  0999 V2000
    2.8750   -1.1940    0.1940 C   0  0  0  0  0  0  0  0  0  0  0  0
    1.4400   -1.0150    0.1280 N   0  0  0  0  0  0  0  0  0  0  0  0
    0.8990    0.3020   -0.0440 C   0  0  0  0  0  0  0  0  0  0  0  0
    1.6130    1.4380   -0.1620 N   0  0  0  0  0  0  0  0  0  0  0  0
    0.7420    2.4670   -0.3160 C   0  0  0  0  0  0  0  0  0  0  0  0
    1.2170    4.0200   -0.4840 S   0  0  0  0  0  0  0  0  0  0  0  0
   -0.4980    1.9630   -0.2920 N   0  0  0  0  0  0  0  0  0  0  0  0
   -0.4450    0.6230   -0.1240 C   0  0  0  0  0  0  0  0  0  0  0  0
   -1.5390   -0.2850   -0.0270 N   0  0  0  0  0  0  0  0  0  0  0  0
   -1.9770   -1.1430   -1.0780 C   0  0  0  0  0  0  0  0  0  0  0  0
   -2.2960   -0.3520    1.2330 C   0  0  0  0  0  0  0  0  0  0  0  0
  1  2  1  0
  2  3  1  0
  3  4  1  0
  3  8  2  0
  4  5  1  0
  5  6  2  0
  5  7  1  0
  7  8  1  0
  8  9  1  0
  9 10  1  0
  9 11  1  0
M  END
