
     RDKit          3D

 11 11  0  0  0  0  0  0  0  0999 V2000
   -2.0990   -0.1830   -1.1140 C   0  0  0  0  0  0  0  0  0  0  0  0
   -2.0020   -0.4880    0.3210 C   0  0  0  0  0  0  0  0  0  0  0  0
   -3.1590   -0.8570    1.0220 N   0  0  0  0  0  0  0  0  0  0  0  0
   -0.8480   -0.4100    0.9150 C   0  0  0  0  0  0  0  0  0  0  0  0
    0.3530   -0.0390    0.2450 N   0  0  0  0  0  0  0  0  0  0  0  0
    1.4260   -0.7870    0.0080 N   0  0  0  0  0  0  0  0  0  0  0  0
    2.3610   -0.1110   -0.6440 C   0  0  0  0  0  0  0  0  0  0  0  0
    3.7130   -0.5580   -1.1080 C   0  0  0  0  0  0  0  0  0  0  0  0
    1.8860    1.1230   -0.8430 N   0  0  0  0  0  0  0  0  0  0  0  0
    0.6480    1.1650   -0.2940 C   0  0  0  0  0  0  0  0  0  0  0  0
   -0.4040    2.6060   -0.3010 S   0  0  0  0  0  0  0  0  0  0  0  0
  1  2  1  0
  2  3  1  0
  2  4  2  3
  4  5  1  0
  5  6  1  0
  5 10  1  0
  6  7  2  0
  7  8  1  0
  7  9  1  0
  9 10  2  0
 10 11  1  0
M  END
