
     RDKit          3D

 11 11  0  0  0  0  0  0  0  0999 V2000
   -2.5080    0.6730    1.3840 C   0  0  0  0  0  0  0  0  0  0  0  0
   -1.2890   -0.0480    0.8810 C   0  0  0  0  0  0  0  0  0  0  0  0
   -1.2650   -0.2390   -0.5540 N   0  0  0  0  0  0  0  0  0  0  0  0
   -1.0890    1.0210   -1.2590 C   0  0  0  0  0  0  0  0  0  0  0  0
   -0.2330   -1.1900   -0.9420 C   0  0  0  0  0  0  0  0  0  0  0  0
    1.1030   -0.6880   -0.5040 C   0  0  0  0  0  0  0  0  0  0  0  0
    1.5970    0.5210   -0.7850 N   0  0  0  0  0  0  0  0  0  0  0  0
    2.8100    0.6160   -0.2260 C   0  0  0  0  0  0  0  0  0  0  0  0
    3.8310    1.9160   -0.2680 S   0  0  0  0  0  0  0  0  0  0  0  0
    3.0410   -0.5520    0.3960 N   0  0  0  0  0  0  0  0  0  0  0  0
    2.0080   -1.3370    0.2270 N   0  0  0  0  0  0  0  0  0  0  0  0
  1  2  1  0
  2  3  1  0
  3  4  1  0
  3  5  1  0
  5  6  1  0
  6  7  2  0
  6 11  1  0
  7  8  1  0
  8  9  2  0
  8 10  1  0
 10 11  1  0
M  END
