
     RDKit          3D

 18 20  0  0  0  0  0  0  0  0999 V2000
    2.8980   -1.7070   -0.5730 C   0  0  0  0  0  0  0  0  0  0  0  0
    3.3550   -0.3150   -0.3510 C   0  0  0  0  0  0  0  0  0  0  0  0
    4.6550    0.0270   -0.1540 N   0  0  0  0  0  0  0  0  0  0  0  0
    4.7330    1.3550   -0.0200 C   0  0  0  0  0  0  0  0  0  0  0  0
    3.4600    1.8620   -0.1340 C   0  0  0  0  0  0  0  0  0  0  0  0
    2.5660    0.8040   -0.3460 C   0  0  0  0  0  0  0  0  0  0  0  0
    1.1420    0.9590   -0.4800 C   0  0  0  0  0  0  0  0  0  0  0  0
    0.7000    2.1090   -0.8440 O   0  0  0  0  0  0  0  0  0  0  0  0
    0.1850   -0.0160   -0.2510 N   0  0  0  0  0  0  0  0  0  0  0  0
   -1.2370    0.1200   -0.3990 C   0  0  1  0  0  0  0  0  0  0  0  0
   -1.9070   -0.9540   -1.1750 C   0  0  0  0  0  0  0  0  0  0  0  0
   -3.3770   -0.6120   -1.2760 C   0  0  0  0  0  0  0  0  0  0  0  0
   -3.8190    0.4390   -0.2960 C   0  0  0  0  0  0  0  0  0  0  0  0
   -3.1850    0.2770    0.9980 N   0  0  0  0  0  0  0  0  0  0  0  0
   -3.5850    0.2510    2.2680 N   0  0  0  0  0  0  0  0  0  0  0  0
   -2.5400    0.0700    3.0840 C   0  0  0  0  0  0  0  0  0  0  0  0
   -1.4410   -0.0190    2.2600 C   0  0  0  0  0  0  0  0  0  0  0  0
   -1.8310    0.1100    0.9530 C   0  0  0  0  0  0  0  0  0  0  0  0
  1  2  1  0
  2  3  1  0
  2  6  2  0
  3  4  1  0
  4  5  2  0
  5  6  1  0
  6  7  1  0
  7  8  2  0
  7  9  1  0
 10  9  1  1
 10 11  1  0
 10 18  1  0
 11 12  1  0
 12 13  1  0
 13 14  1  0
 14 15  1  0
 14 18  1  0
 15 16  2  0
 16 17  1  0
 17 18  2  0
M  END
