
     RDKit          3D

 18 19  0  0  0  0  0  0  0  0999 V2000
    6.1470    0.0930    1.0910 C   0  0  0  0  0  0  0  0  0  0  0  0
    4.7340    0.4630    0.7530 C   0  0  0  0  0  0  0  0  0  0  0  0
    4.4670    0.5080   -0.7160 C   0  0  0  0  0  0  0  0  0  0  0  0
    3.0430    0.8830   -1.0370 C   0  0  0  0  0  0  0  0  0  0  0  0
    2.1420   -0.0810   -0.4740 N   0  0  0  0  0  0  0  0  0  0  0  0
    0.7280    0.0030   -0.6020 C   0  0  0  0  0  0  0  0  0  0  0  0
    0.2580    0.9680   -1.2400 O   0  0  0  0  0  0  0  0  0  0  0  0
   -0.1550   -0.9510   -0.0450 N   0  0  0  0  0  0  0  0  0  0  0  0
   -1.5690   -0.8320   -0.1960 C   0  0  0  0  0  0  0  0  0  0  0  0
   -2.2440   -1.7940   -0.8020 C   0  0  0  0  0  0  0  0  0  0  0  0
   -3.7090   -1.7960   -1.0240 C   0  0  0  0  0  0  0  0  0  0  0  0
   -4.3700   -0.6440   -0.5190 N   0  0  0  0  0  0  0  0  0  0  0  0
   -5.7830   -0.5510   -0.6830 C   0  0  0  0  0  0  0  0  0  0  0  0
   -6.3760    0.4890   -0.2270 N   0  0  0  0  0  0  0  0  0  0  0  0
   -5.6880    1.5520    0.4350 C   0  0  0  0  0  0  0  0  0  0  0  0
   -4.3800    1.5320    0.6210 C   0  0  0  0  0  0  0  0  0  0  0  0
   -3.6190    0.3750    0.1290 C   0  0  0  0  0  0  0  0  0  0  0  0
   -2.3000    0.3050    0.2910 C   0  0  0  0  0  0  0  0  0  0  0  0
  1  2  1  0
  2  3  1  0
  3  4  1  0
  4  5  1  0
  5  6  1  0
  6  7  2  0
  6  8  1  0
  8  9  1  0
  9 10  2  0
  9 18  1  0
 10 11  1  0
 11 12  1  0
 12 13  1  0
 12 17  1  0
 13 14  2  0
 14 15  1  0
 15 16  2  0
 16 17  1  0
 17 18  2  0
M  END
