
     RDKit          3D

 18 20  0  0  0  0  0  0  0  0999 V2000
   -4.9130    1.0820    1.7490 C   0  0  0  0  0  0  0  0  0  0  0  0
   -4.1270    0.3710    0.7100 C   0  0  0  0  0  0  0  0  0  0  0  0
   -2.8010    0.6040    0.3730 C   0  0  0  0  0  0  0  0  0  0  0  0
   -2.4520   -0.2680   -0.6300 C   0  0  0  0  0  0  0  0  0  0  0  0
   -1.1220   -0.3600   -1.2800 C   0  0  1  0  0  0  0  0  0  0  0  0
    0.0530   -0.3360   -0.3920 C   0  0  0  0  0  0  0  0  0  0  0  0
   -0.0600   -0.4760    0.8750 O   0  0  0  0  0  0  0  0  0  0  0  0
    1.3750   -0.1590   -0.8840 N   0  0  0  0  0  0  0  0  0  0  0  0
    2.5260   -0.1400   -0.0180 C   0  0  0  0  0  0  0  0  0  0  0  0
    3.2770    0.9310    0.0400 C   0  0  0  0  0  0  0  0  0  0  0  0
    4.4730    1.1040    0.8750 C   0  0  0  0  0  0  0  0  0  0  0  0
    4.9080   -0.1220    1.6190 C   0  0  0  0  0  0  0  0  0  0  0  0
    3.9830   -1.2690    1.4890 C   0  0  0  0  0  0  0  0  0  0  0  0
    2.9240   -1.2660    0.7530 N   0  0  0  0  0  0  0  0  0  0  0  0
   -1.0550   -1.4070   -2.3810 C   0  0  0  0  0  0  0  0  0  0  0  0
   -1.0480    0.0720   -2.6950 C   0  0  0  0  0  0  0  0  0  0  0  0
   -3.5580   -1.0110   -0.8860 N   0  0  0  0  0  0  0  0  0  0  0  0
   -4.5420   -0.6290   -0.0930 N   0  0  0  0  0  0  0  0  0  0  0  0
  1  2  1  0
  2  3  2  0
  2 18  1  0
  3  4  1  0
  4  5  1  0
  4 17  2  0
  5  6  1  1
  5 15  1  0
  5 16  1  0
  6  7  2  0
  6  8  1  0
  8  9  1  0
  9 10  2  0
  9 14  1  0
 10 11  1  0
 11 12  1  0
 12 13  1  0
 13 14  2  0
 15 16  1  0
 17 18  1  0
M  END
