
     RDKit          3D

 18 19  0  0  0  0  0  0  0  0999 V2000
    5.8370   -0.3580    1.2960 C   0  0  0  0  0  0  0  0  0  0  0  0
    4.5640   -0.0920    0.5840 C   0  0  0  0  0  0  0  0  0  0  0  0
    3.7220   -1.0490    0.7220 N   0  0  0  0  0  0  0  0  0  0  0  0
    2.3870   -1.3090    0.2610 C   0  0  0  0  0  0  0  0  0  0  0  0
    1.6300   -0.7520   -0.7020 C   0  0  0  0  0  0  0  0  0  0  0  0
    0.3100   -1.3910   -0.7840 C   0  0  0  0  0  0  0  0  0  0  0  0
   -0.8400   -0.6380   -0.6120 N   0  0  0  0  0  0  0  0  0  0  0  0
   -1.1140   -0.0550    0.6310 C   0  0  0  0  0  0  0  0  0  0  0  0
   -2.5630    0.4170    0.7430 C   0  0  2  0  0  0  0  0  0  0  0  0
   -3.3900   -0.8570    0.7310 C   0  0  0  0  0  0  0  0  0  0  0  0
   -4.8530   -0.5830    0.6690 C   0  0  0  0  0  0  0  0  0  0  0  0
   -5.1650    0.6830   -0.1140 C   0  0  0  0  0  0  0  0  0  0  0  0
   -3.9800    0.9840   -1.0030 C   0  0  0  0  0  0  0  0  0  0  0  0
   -2.8900    1.3170   -0.2210 O   0  0  0  0  0  0  0  0  0  0  0  0
    1.8270    0.2960   -1.6500 C   0  0  0  0  0  0  0  0  0  0  0  0
    2.6500    1.2960   -1.6580 N   0  0  0  0  0  0  0  0  0  0  0  0
    3.6890    1.9450   -0.9530 C   0  0  0  0  0  0  0  0  0  0  0  0
    4.5080    1.1410   -0.0970 N   0  0  0  0  0  0  0  0  0  0  0  0
  1  2  1  0
  2  3  2  0
  2 18  1  0
  3  4  1  0
  4  5  2  0
  5  6  1  0
  5 15  1  0
  6  7  1  0
  7  8  1  0
  9  8  1  6
  9 10  1  0
  9 14  1  0
 10 11  1  0
 11 12  1  0
 12 13  1  0
 13 14  1  0
 15 16  2  0
 16 17  1  0
 17 18  1  0
M  END
