
     RDKit          3D

 18 20  0  0  0  0  0  0  0  0999 V2000
    5.1050    0.6350   -0.4470 C   0  0  0  0  0  0  0  0  0  0  0  0
    4.1290    0.0580    0.1940 C   0  0  0  0  0  0  0  0  0  0  0  0
    4.1300   -0.6110    1.4680 N   0  0  0  0  0  0  0  0  0  0  0  0
    2.7860   -0.9800    1.7620 N   0  0  0  0  0  0  0  0  0  0  0  0
    1.9940   -0.6040    0.8090 C   0  0  0  0  0  0  0  0  0  0  0  0
    0.5400   -0.8220    0.8050 N   0  0  0  0  0  0  0  0  0  0  0  0
   -0.3560   -0.0090    0.1470 C   0  0  2  0  0  0  0  0  0  0  0  0
   -1.8060   -0.0240    0.3520 C   0  0  0  0  0  0  0  0  0  0  0  0
   -2.6180    1.1220    0.1600 C   0  0  0  0  0  0  0  0  0  0  0  0
   -3.9000    0.8110    0.5490 C   0  0  0  0  0  0  0  0  0  0  0  0
   -5.0800    1.7660    0.5090 C   0  0  0  0  0  0  0  0  0  0  0  0
   -3.8700   -0.4390    0.9470 O   0  0  0  0  0  0  0  0  0  0  0  0
   -2.6870   -0.9380    0.8450 C   0  0  0  0  0  0  0  0  0  0  0  0
   -2.2010   -2.3410    1.1710 C   0  0  0  0  0  0  0  0  0  0  0  0
   -0.1500    0.2910   -1.3340 C   0  0  0  0  0  0  0  0  0  0  0  0
    1.1090   -0.2490   -1.8730 C   0  0  0  0  0  0  0  0  0  0  0  0
    2.3140    0.5820   -1.4810 C   0  0  0  0  0  0  0  0  0  0  0  0
    2.7590    0.0400   -0.1930 N   0  0  0  0  0  0  0  0  0  0  0  0
  1  2  2  0
  2  3  1  0
  2 18  1  0
  3  4  1  0
  4  5  2  0
  5  6  1  0
  5 18  1  0
  6  7  1  0
  7  8  1  6
  7 15  1  0
  8  9  1  0
  8 13  2  0
  9 10  2  0
 10 11  1  0
 10 12  1  0
 12 13  1  0
 13 14  1  0
 15 16  1  0
 16 17  1  0
 17 18  1  0
M  END
