
     RDKit          3D

 21 21  0  0  0  0  0  0  0  0999 V2000
    3.3250    1.3250    1.4340 N   0  0  0  0  0  0  0  0  0  0  0  0
    2.6300    0.2190    0.7850 C   0  0  1  0  0  0  0  0  0  0  0  0
    1.1680    0.4480    0.8830 C   0  0  0  0  0  0  0  0  0  0  0  0
    0.3190   -0.6070    0.3090 C   0  0  0  0  0  0  0  0  0  0  0  0
    0.8700   -1.8720    0.1170 C   0  0  0  0  0  0  0  0  0  0  0  0
    0.0390   -2.8260   -0.4260 C   0  0  0  0  0  0  0  0  0  0  0  0
    0.6980   -4.4340   -0.6810 Cl  0  0  0  0  0  0  0  0  0  0  0  0
   -1.2790   -2.5930   -0.7810 C   0  0  0  0  0  0  0  0  0  0  0  0
   -2.0980   -3.6000   -1.3330 N   0  0  0  0  0  0  0  0  0  0  0  0
   -1.9110   -4.7790   -1.0170 O   0  0  0  0  0  0  0  0  0  0  0  0
   -3.0860   -3.2780   -2.2150 O   0  0  0  0  0  0  0  0  0  0  0  0
   -1.7650   -1.3270   -0.5670 C   0  0  0  0  0  0  0  0  0  0  0  0
   -0.9780   -0.3190   -0.0210 C   0  0  0  0  0  0  0  0  0  0  0  0
   -1.5490    1.0230    0.2250 C   0  0  0  0  0  0  0  0  0  0  0  0
   -2.9880    1.1220   -0.2150 C   0  0  0  0  0  0  0  0  0  0  0  0
   -3.4350    2.5120    0.1390 C   0  0  0  0  0  0  0  0  0  0  0  0
   -3.7740    2.8480    1.3020 O   0  0  0  0  0  0  0  0  0  0  0  0
   -3.4850    3.4860   -0.8430 O   0  0  0  0  0  0  0  0  0  0  0  0
    3.1680    0.1560   -0.5940 C   0  0  0  0  0  0  0  0  0  0  0  0
    2.5440   -0.3630   -1.5190 O   0  0  0  0  0  0  0  0  0  0  0  0
    4.4440    0.7140   -0.8360 O   0  0  0  0  0  0  0  0  0  0  0  0
  2  1  1  1
  2  3  1  0
  2 19  1  0
  3  4  1  0
  4  5  2  0
  4 13  1  0
  5  6  1  0
  6  7  1  0
  6  8  2  0
  8  9  1  0
  8 12  1  0
  9 10  2  0
  9 11  1  0
 12 13  2  0
 13 14  1  0
 14 15  1  0
 15 16  1  0
 16 17  2  0
 16 18  1  0
 19 20  2  0
 19 21  1  0
M  CHG  3   1   1   9   1  11  -1
M  END
