
     RDKit          3D

 18 20  0  0  0  0  0  0  0  0999 V2000
    5.0840    1.7790    0.0710 O   0  0  0  0  0  0  0  0  0  0  0  0
    3.8940    1.3990   -0.5460 C   0  0  0  0  0  0  0  0  0  0  0  0
    3.0080    0.7810    0.4150 N   0  0  0  0  0  0  0  0  0  0  0  0
    3.5460   -0.3850    1.0250 C   0  0  0  0  0  0  0  0  0  0  0  0
    3.3700   -1.5950    0.1580 C   0  0  0  0  0  0  0  0  0  0  0  0
    1.9040   -1.8150   -0.0070 C   0  0  0  0  0  0  0  0  0  0  0  0
    1.3450   -3.0100   -0.0840 N   0  0  0  0  0  0  0  0  0  0  0  0
    0.0010   -3.1360   -0.2370 C   0  0  0  0  0  0  0  0  0  0  0  0
   -0.7770   -2.0410   -0.3110 N   0  0  0  0  0  0  0  0  0  0  0  0
   -0.2640   -0.7810   -0.2380 C   0  0  0  0  0  0  0  0  0  0  0  0
   -1.0880    0.3600   -0.3200 N   0  0  0  0  0  0  0  0  0  0  0  0
   -2.5050    0.2050   -0.4800 C   0  0  1  0  0  0  0  0  0  0  0  0
   -3.1640   -0.5530    0.6320 C   0  0  0  0  0  0  0  0  0  0  0  0
   -4.3260    0.2780    1.1220 C   0  0  0  0  0  0  0  0  0  0  0  0
   -4.6150    1.2340    0.0110 C   0  0  0  0  0  0  0  0  0  0  0  0
   -3.2080    1.5510   -0.5100 C   0  0  0  0  0  0  0  0  0  0  0  0
    1.1130   -0.6920   -0.0820 C   0  0  0  0  0  0  0  0  0  0  0  0
    1.6530    0.6910   -0.0020 C   0  0  0  0  0  0  0  0  0  0  0  0
  1  2  1  0
  2  3  1  0
  3  4  1  0
  3 18  1  0
  4  5  1  0
  5  6  1  0
  6  7  2  0
  6 17  1  0
  7  8  1  0
  8  9  2  0
  9 10  1  0
 10 11  1  0
 10 17  2  0
 12 11  1  1
 12 13  1  0
 12 16  1  0
 13 14  1  0
 14 15  1  0
 15 16  1  0
 17 18  1  0
M  END
