
     RDKit          3D

 23 23  0  0  0  0  0  0  0  0999 V2000
   -4.2780    3.1510   -0.6860 C   0  0  0  0  0  0  0  0  0  0  0  0
   -3.6110    3.0860    0.6640 C   0  0  0  0  0  0  0  0  0  0  0  0
   -2.3780    2.4250    0.6400 O   0  0  0  0  0  0  0  0  0  0  0  0
   -2.1840    1.1200    0.2570 C   0  0  0  0  0  0  0  0  0  0  0  0
   -3.1830    0.4810   -0.0950 O   0  0  0  0  0  0  0  0  0  0  0  0
   -0.8320    0.4410    0.2450 C   0  0  2  0  0  0  0  0  0  0  0  0
    0.0300    1.4770    0.6680 O   0  0  0  0  0  0  0  0  0  0  0  0
   -0.4600    0.0340   -1.1320 C   0  0  0  0  0  0  0  0  0  0  0  0
    0.8220   -0.4780   -1.2090 O   0  0  0  0  0  0  0  0  0  0  0  0
    2.0340    0.0970   -1.0040 C   0  0  0  0  0  0  0  0  0  0  0  0
    2.0810    1.3030   -0.6970 O   0  0  0  0  0  0  0  0  0  0  0  0
    3.2860   -0.6610   -1.1340 C   0  0  0  0  0  0  0  0  0  0  0  0
    3.4190   -1.9820   -1.4620 C   0  0  0  0  0  0  0  0  0  0  0  0
    4.7030   -2.2930   -1.4770 O   0  0  0  0  0  0  0  0  0  0  0  0
    5.4040   -1.2280   -1.1740 C   0  0  0  0  0  0  0  0  0  0  0  0
    4.5450   -0.1660   -0.9480 C   0  0  0  0  0  0  0  0  0  0  0  0
    4.9300    1.1260   -0.6020 O   0  0  0  0  0  0  0  0  0  0  0  0
    6.2280    1.4180   -0.4650 O   0  0  0  0  0  0  0  0  0  0  0  0
   -0.7370   -0.6200    1.2660 C   0  0  0  0  0  0  0  0  0  0  0  0
   -0.1800   -0.2640    2.3740 O   0  0  0  0  0  0  0  0  0  0  0  0
   -1.1630   -1.9440    1.1950 N   0  0  0  0  0  0  0  0  0  0  0  0
   -1.7750   -2.6000    0.0750 C   0  0  0  0  0  0  0  0  0  0  0  0
   -0.9670   -2.7840    2.4070 C   0  0  0  0  0  0  0  0  0  0  0  0
  1  2  1  0
  2  3  1  0
  3  4  1  0
  4  5  2  0
  4  6  1  0
  6  7  1  1
  6  8  1  0
  6 19  1  0
  8  9  1  0
  9 10  1  0
 10 11  2  0
 10 12  1  0
 12 13  2  0
 12 16  1  0
 13 14  1  0
 14 15  1  0
 15 16  2  0
 16 17  1  0
 17 18  1  0
 19 20  2  0
 19 21  1  0
 21 22  1  0
 21 23  1  0
M  END
