
     RDKit          3D

 22 22  0  0  0  0  0  0  0  0999 V2000
    1.5050   -1.5900   -3.2430 C   0  0  0  0  0  0  0  0  0  0  0  0
    0.8640   -0.5480   -2.3780 C   0  0  0  0  0  0  0  0  0  0  0  0
   -0.0810   -1.2070   -1.4360 C   0  0  0  0  0  0  0  0  0  0  0  0
    0.0430   -1.1270   -0.1270 C   0  0  0  0  0  0  0  0  0  0  0  0
    1.1090   -0.3920    0.4580 N   0  0  0  0  0  0  0  0  0  0  0  0
    2.2980   -0.9980    0.9780 C   0  0  0  0  0  0  0  0  0  0  0  0
    3.2320    0.0530    1.5310 C   0  0  0  0  0  0  0  0  0  0  0  0
    3.6010    0.9570    0.5290 O   0  0  0  0  0  0  0  0  0  0  0  0
    4.6620    2.1720    1.1010 P   0  0  0  0  0  0  0  0  0  0  0  0
    5.6400    1.6330    2.4250 O   0  0  0  0  0  0  0  0  0  0  0  0
    5.6100    2.8770   -0.1570 O   0  0  0  0  0  0  0  0  0  0  0  0
   -0.8680   -1.7610    0.6920 O   0  0  0  0  0  0  0  0  0  0  0  0
   -1.6480   -1.1520    1.6720 C   0  0  0  0  0  0  0  0  0  0  0  0
   -2.5190   -0.1110    0.9990 C   0  0  2  0  0  0  0  0  0  0  0  0
   -3.4610   -0.8230    0.0360 C   0  0  0  0  0  0  0  0  0  0  0  0
   -4.2580    0.1810   -0.5630 O   0  0  0  0  0  0  0  0  0  0  0  0
   -5.2160   -0.1720   -1.4940 C   0  0  0  0  0  0  0  0  0  0  0  0
   -5.3510   -1.3870   -1.7810 O   0  0  0  0  0  0  0  0  0  0  0  0
   -1.7030    0.8050    0.3840 O   0  0  0  0  0  0  0  0  0  0  0  0
   -1.7280    1.9510    1.1750 C   0  0  0  0  0  0  0  0  0  0  0  0
   -3.1850    1.9210    1.6560 C   0  0  0  0  0  0  0  0  0  0  0  0
   -3.3170    0.5610    1.9240 O   0  0  0  0  0  0  0  0  0  0  0  0
  1  2  1  0
  2  3  1  0
  3  4  2  3
  4  5  1  0
  4 12  1  0
  5  6  1  0
  6  7  1  0
  7  8  1  0
  8  9  1  0
  9 10  1  0
  9 11  1  0
 12 13  1  0
 14 13  1  1
 14 15  1  0
 14 19  1  0
 14 22  1  0
 15 16  1  0
 16 17  1  0
 17 18  2  0
 19 20  1  0
 20 21  1  0
 21 22  1  0
M  END
