
     RDKit          3D

 23 24  0  0  0  0  0  0  0  0999 V2000
    0.0620   -4.4180    0.4100 O   0  0  0  0  0  0  0  0  0  0  0  0
   -0.3290   -3.2120    0.3300 C   0  0  0  0  0  0  0  0  0  0  0  0
   -0.8830   -2.8070   -0.8690 O   0  0  0  0  0  0  0  0  0  0  0  0
   -0.1650   -2.3310    1.5140 C   0  0  0  0  0  0  0  0  0  0  0  0
   -0.7190   -1.0000    1.0850 N   0  0  0  0  0  0  0  0  0  0  0  0
    0.2140   -0.1550    0.5130 C   0  0  0  0  0  0  0  0  0  0  0  0
    0.0150    1.0100    0.1490 O   0  0  0  0  0  0  0  0  0  0  0  0
    1.5600   -0.5830    0.2840 O   0  0  0  0  0  0  0  0  0  0  0  0
    2.4630    0.2330   -0.2690 O   0  0  0  0  0  0  0  0  0  0  0  0
    3.2700   -0.5290   -1.0970 C   0  0  0  0  0  0  0  0  0  0  0  0
    4.3340    0.3090   -1.7750 C   0  0  2  0  0  0  0  0  0  0  0  0
    5.2850    1.0190   -0.8730 C   0  0  0  0  0  0  0  0  0  0  0  0
    4.5190    2.1700   -0.9650 O   0  0  0  0  0  0  0  0  0  0  0  0
    3.8800    1.7060   -2.1300 C   0  0  0  0  0  0  0  0  0  0  0  0
   -2.0400   -0.7860    1.3980 C   0  0  0  0  0  0  0  0  0  0  0  0
   -2.6240   -1.6760    2.2100 O   0  0  0  0  0  0  0  0  0  0  0  0
   -2.9610    0.2350    1.0210 C   0  0  0  0  0  0  0  0  0  0  0  0
   -4.1720    0.2390    1.6340 C   0  0  0  0  0  0  0  0  0  0  0  0
   -5.2510    1.2410    1.3590 C   0  0  0  0  0  0  0  0  0  0  0  0
   -4.7990    2.5370    1.5940 O   0  0  0  0  0  0  0  0  0  0  0  0
   -3.9790    3.0320    0.6920 O   0  0  0  0  0  0  0  0  0  0  0  0
   -3.1220    2.3780   -0.2280 C   0  0  0  0  0  0  0  0  0  0  0  0
   -2.6780    1.1420   -0.0770 C   0  0  0  0  0  0  0  0  0  0  0  0
  1  2  2  0
  2  3  1  0
  2  4  1  0
  4  5  1  0
  5  6  1  0
  5 15  1  0
  6  7  2  0
  6  8  1  0
  8  9  1  0
  9 10  1  0
 11 10  1  1
 11 12  1  0
 11 14  1  0
 12 13  1  0
 13 14  1  0
 15 16  2  0
 15 17  1  0
 17 18  2  0
 17 23  1  0
 18 19  1  0
 19 20  1  0
 20 21  1  0
 21 22  1  0
 22 23  2  0
M  END
