
     RDKit          3D

 23 23  0  0  0  0  0  0  0  0999 V2000
    5.5540    2.9300   -1.0800 C   0  0  0  0  0  0  0  0  0  0  0  0
    5.5900    1.5190   -0.9150 O   0  0  0  0  0  0  0  0  0  0  0  0
    4.5380    0.6920   -1.2910 C   0  0  0  0  0  0  0  0  0  0  0  0
    3.5210    1.2280   -1.7940 O   0  0  0  0  0  0  0  0  0  0  0  0
    4.5490   -0.7110   -1.1380 N   0  0  0  0  0  0  0  0  0  0  0  0
    3.4490   -1.5660   -1.5310 C   0  0  0  0  0  0  0  0  0  0  0  0
    2.2510   -1.1420   -0.7500 C   0  0  0  0  0  0  0  0  0  0  0  0
    2.3250   -0.1950    0.0720 O   0  0  0  0  0  0  0  0  0  0  0  0
    1.0240   -1.7560   -0.8850 O   0  0  0  0  0  0  0  0  0  0  0  0
   -0.0950   -1.3020   -0.1030 C   0  0  2  0  0  0  0  0  0  0  0  0
   -0.5050   -2.4120    0.6970 O   0  0  0  0  0  0  0  0  0  0  0  0
   -0.4080   -2.3360    2.0730 C   0  0  0  0  0  0  0  0  0  0  0  0
    0.0430   -1.2870    2.5900 O   0  0  0  0  0  0  0  0  0  0  0  0
   -0.7910   -3.3760    2.8930 O   0  0  0  0  0  0  0  0  0  0  0  0
   -1.2100   -0.9130   -0.9800 C   0  0  0  0  0  0  0  0  0  0  0  0
   -1.0720   -1.0100   -2.1940 O   0  0  0  0  0  0  0  0  0  0  0  0
   -2.4810   -0.4130   -0.4310 C   0  0  2  0  0  0  0  0  0  0  0  0
   -3.6630   -1.2620   -0.8800 C   0  0  0  0  0  0  0  0  0  0  0  0
   -2.7930    0.9980   -0.9430 C   0  0  0  0  0  0  0  0  0  0  0  0
   -3.9330    1.5210   -0.0970 C   0  0  0  0  0  0  0  0  0  0  0  0
   -3.3920    1.7690    1.2940 C   0  0  0  0  0  0  0  0  0  0  0  0
   -2.2010    0.8610    1.4950 C   0  0  0  0  0  0  0  0  0  0  0  0
   -2.4040   -0.3840    0.9550 O   0  0  0  0  0  0  0  0  0  0  0  0
  1  2  1  0
  2  3  1  0
  3  4  2  0
  3  5  1  0
  5  6  1  0
  6  7  1  0
  7  8  2  0
  7  9  1  0
 10  9  1  6
 10 11  1  0
 10 15  1  0
 11 12  1  0
 12 13  2  0
 12 14  1  0
 15 16  2  0
 15 17  1  0
 17 18  1  1
 17 19  1  0
 17 23  1  0
 19 20  1  0
 20 21  1  0
 21 22  1  0
 22 23  1  0
M  END
