
     RDKit          3D

 23 23  0  0  0  0  0  0  0  0999 V2000
   -2.8060    1.9390   -2.8120 C   0  0  0  0  0  0  0  0  0  0  0  0
   -2.1590    1.5160   -1.6520 C   0  0  0  0  0  0  0  0  0  0  0  0
   -1.4170    2.5270   -0.9710 C   0  0  0  0  0  0  0  0  0  0  0  0
   -0.7460    2.4890    0.0510 O   0  0  0  0  0  0  0  0  0  0  0  0
   -1.4590    3.8310   -1.5870 O   0  0  0  0  0  0  0  0  0  0  0  0
   -2.3570    0.1420   -1.3760 C   0  0  0  0  0  0  0  0  0  0  0  0
   -3.1170   -0.4960   -2.2870 O   0  0  0  0  0  0  0  0  0  0  0  0
   -1.9550   -0.7230   -0.3810 N   0  0  0  0  0  0  0  0  0  0  0  0
   -1.0190   -0.3770    0.6450 C   0  0  0  0  0  0  0  0  0  0  0  0
    0.3890   -0.4990    0.1450 C   0  0  0  0  0  0  0  0  0  0  0  0
    1.2170   -0.1470    1.2160 O   0  0  0  0  0  0  0  0  0  0  0  0
    2.5500   -0.2330    0.8370 C   0  0  0  0  0  0  0  0  0  0  0  0
    3.3760    0.1610    2.0440 C   0  0  1  0  0  0  0  0  0  0  0  0
    4.8050    0.3900    1.5990 C   0  0  0  0  0  0  0  0  0  0  0  0
    4.6970    1.8210    1.0590 C   0  0  0  0  0  0  0  0  0  0  0  0
    3.3470    2.1110    1.2580 O   0  0  0  0  0  0  0  0  0  0  0  0
    2.9880    1.4840    2.3600 O   0  0  0  0  0  0  0  0  0  0  0  0
   -2.6190   -1.9960   -0.1770 C   0  0  0  0  0  0  0  0  0  0  0  0
   -2.0860   -3.0450    0.3610 C   0  0  0  0  0  0  0  0  0  0  0  0
   -0.8350   -3.2130    0.8440 O   0  0  0  0  0  0  0  0  0  0  0  0
   -4.0430   -2.0870   -0.5000 C   0  0  0  0  0  0  0  0  0  0  0  0
   -4.7510   -1.2070   -0.9700 O   0  0  0  0  0  0  0  0  0  0  0  0
   -4.6810   -3.3160   -0.2460 O   0  0  0  0  0  0  0  0  0  0  0  0
  1  2  2  0
  2  3  1  0
  2  6  1  0
  3  4  2  0
  3  5  1  0
  6  7  2  0
  6  8  1  0
  8  9  1  0
  8 18  1  0
  9 10  1  0
 10 11  1  0
 11 12  1  0
 13 12  1  6
 13 14  1  0
 13 17  1  0
 14 15  1  0
 15 16  1  0
 16 17  1  0
 18 19  2  3
 18 21  1  0
 19 20  1  0
 21 22  2  0
 21 23  1  0
M  END
