
     RDKit          3D

 23 24  0  0  0  0  0  0  0  0999 V2000
   -5.3330    2.0900    0.7610 C   0  0  0  0  0  0  0  0  0  0  0  0
   -5.6530    0.6510    0.6870 C   0  0  0  0  0  0  0  0  0  0  0  0
   -4.4550   -0.1220    0.9650 O   0  0  0  0  0  0  0  0  0  0  0  0
   -3.4450    0.0600    0.0840 C   0  0  0  0  0  0  0  0  0  0  0  0
   -3.6050    0.7730   -0.8730 O   0  0  0  0  0  0  0  0  0  0  0  0
   -2.1120   -0.6230    0.2770 C   0  0  2  0  0  0  0  0  0  0  0  0
   -1.0740   -0.1210   -0.5860 C   0  0  0  0  0  0  0  0  0  0  0  0
   -1.4980    0.7140   -1.5920 O   0  0  0  0  0  0  0  0  0  0  0  0
    0.3390   -0.4060   -0.5000 N   0  0  0  0  0  0  0  0  0  0  0  0
    1.0220   -1.3250    0.3350 C   0  0  0  0  0  0  0  0  0  0  0  0
    2.1770   -1.7990   -0.5820 C   0  0  1  0  0  0  0  0  0  0  0  0
    1.5620   -2.2390   -1.7620 O   0  0  0  0  0  0  0  0  0  0  0  0
    2.6370   -0.4060   -0.9430 C   0  0  2  0  0  0  0  0  0  0  0  0
    3.5160    0.2090   -0.0710 O   0  0  0  0  0  0  0  0  0  0  0  0
    4.8950    0.1190   -0.3500 C   0  0  0  0  0  0  0  0  0  0  0  0
    5.2690   -0.6080   -1.2850 O   0  0  0  0  0  0  0  0  0  0  0  0
    5.8340    0.9840    0.5390 C   0  0  0  0  0  0  0  0  0  0  0  0
    5.8870    2.1590   -0.3740 O   0  0  0  0  0  0  0  0  0  0  0  0
    5.3690    3.2290    0.2790 O   0  0  0  0  0  0  0  0  0  0  0  0
    1.4150    0.3120   -1.1600 C   0  0  0  0  0  0  0  0  0  0  0  0
    1.2400    1.3880   -1.8370 O   0  0  0  0  0  0  0  0  0  0  0  0
   -2.3020   -2.1260    0.4370 C   0  0  0  0  0  0  0  0  0  0  0  0
   -1.9190   -1.3180    1.5660 C   0  0  0  0  0  0  0  0  0  0  0  0
  1  2  1  0
  2  3  1  0
  3  4  1  0
  4  5  2  0
  6  4  1  1
  6  7  1  0
  6 22  1  0
  6 23  1  0
  7  8  2  0
  7  9  1  0
  9 10  1  0
  9 20  1  0
 10 11  1  0
 11 12  1  6
 11 13  1  0
 13 14  1  1
 13 20  1  0
 14 15  1  0
 15 16  2  0
 15 17  1  0
 17 18  1  0
 18 19  1  0
 20 21  2  0
 22 23  1  0
M  END
