
     RDKit          3D

 23 24  0  0  0  0  0  0  0  0999 V2000
   -5.1350   -2.0230    1.5560 O   0  0  0  0  0  0  0  0  0  0  0  0
   -4.7050   -1.0130    0.9410 C   0  0  0  0  0  0  0  0  0  0  0  0
   -3.7800   -1.3190   -0.1810 C   0  0  0  0  0  0  0  0  0  0  0  0
   -2.7190   -0.2540   -0.3380 C   0  0  2  0  0  0  0  0  0  0  0  0
   -3.2380    0.9980   -0.9900 C   0  0  0  0  0  0  0  0  0  0  0  0
   -4.6500    1.3300   -0.6040 C   0  0  0  0  0  0  0  0  0  0  0  0
   -4.8300    1.4980    0.8880 C   0  0  0  0  0  0  0  0  0  0  0  0
   -5.1660    0.2090    1.4150 O   0  0  0  0  0  0  0  0  0  0  0  0
   -1.7370   -0.7820   -1.1770 O   0  0  0  0  0  0  0  0  0  0  0  0
   -0.5490   -0.2360   -0.7010 C   0  0  0  0  0  0  0  0  0  0  0  0
   -0.7870   -0.2490    0.7940 C   0  0  2  0  0  0  0  0  0  0  0  0
   -0.3820   -1.5300    1.4100 C   0  0  0  0  0  0  0  0  0  0  0  0
   -1.1770   -2.2670    1.9250 O   0  0  0  0  0  0  0  0  0  0  0  0
    1.0560   -1.9040    1.3860 C   0  0  0  0  0  0  0  0  0  0  0  0
    1.8310   -0.9100    0.7390 O   0  0  0  0  0  0  0  0  0  0  0  0
    3.1940   -1.0290    0.5910 C   0  0  0  0  0  0  0  0  0  0  0  0
    3.7310   -2.0810    1.0650 O   0  0  0  0  0  0  0  0  0  0  0  0
    4.0240   -0.0760   -0.0430 N   0  0  0  0  0  0  0  0  0  0  0  0
    5.4660   -0.3050   -0.1450 C   0  0  0  0  0  0  0  0  0  0  0  0
    6.1280    0.8350   -0.8520 C   0  0  0  0  0  0  0  0  0  0  0  0
    5.9030    2.0050   -0.1390 O   0  0  0  0  0  0  0  0  0  0  0  0
    6.4610    3.0490   -0.7090 O   0  0  0  0  0  0  0  0  0  0  0  0
   -2.1520   -0.0330    0.8920 O   0  0  0  0  0  0  0  0  0  0  0  0
  1  2  2  0
  2  3  1  0
  2  8  1  0
  4  3  1  1
  4  5  1  0
  4  9  1  0
  4 23  1  0
  5  6  1  0
  6  7  1  0
  7  8  1  0
  9 10  1  0
 10 11  1  0
 11 12  1  6
 11 23  1  0
 12 13  2  0
 12 14  1  0
 14 15  1  0
 15 16  1  0
 16 17  2  0
 16 18  1  0
 18 19  1  0
 19 20  1  0
 20 21  1  0
 21 22  1  0
M  END
