
     RDKit          3D

 23 22  0  0  0  0  0  0  0  0999 V2000
   -2.5620    3.7090   -1.2770 C   0  0  0  0  0  0  0  0  0  0  0  0
   -2.4860    2.4640   -0.7110 C   0  0  0  0  0  0  0  0  0  0  0  0
   -3.4360    2.2210    0.3460 C   0  0  0  0  0  0  0  0  0  0  0  0
   -4.2510    3.2070    0.5990 O   0  0  0  0  0  0  0  0  0  0  0  0
   -3.5940    1.1070    1.1160 O   0  0  0  0  0  0  0  0  0  0  0  0
   -1.4530    1.6070   -1.2150 C   0  0  0  0  0  0  0  0  0  0  0  0
   -0.6900    2.1830   -2.1110 O   0  0  0  0  0  0  0  0  0  0  0  0
   -1.1040    0.2940   -0.9380 N   0  0  0  0  0  0  0  0  0  0  0  0
    0.1370   -0.2020   -1.5580 C   0  0  0  0  0  0  0  0  0  0  0  0
    1.3420    0.0910   -0.7830 C   0  0  0  0  0  0  0  0  0  0  0  0
    1.4160    0.8560    0.2090 O   0  0  0  0  0  0  0  0  0  0  0  0
    2.5130   -0.5240   -1.1660 O   0  0  0  0  0  0  0  0  0  0  0  0
    3.6740   -0.3760   -0.5890 O   0  0  0  0  0  0  0  0  0  0  0  0
    3.7500   -0.6320    0.7540 C   0  0  1  0  0  0  0  0  0  0  0  0
    4.5330   -1.9030    1.0560 C   0  0  0  0  0  0  0  0  0  0  0  0
    4.3950    0.5440    1.4480 C   0  0  0  0  0  0  0  0  0  0  0  0
    4.4440    0.2340    2.8160 O   0  0  0  0  0  0  0  0  0  0  0  0
   -1.8610   -0.6950   -0.2540 C   0  0  0  0  0  0  0  0  0  0  0  0
   -3.0020   -1.1220   -0.8360 C   0  0  0  0  0  0  0  0  0  0  0  0
   -3.8990   -2.1280   -0.2760 C   0  0  0  0  0  0  0  0  0  0  0  0
   -1.5050   -1.2960    1.0090 C   0  0  0  0  0  0  0  0  0  0  0  0
   -2.2390   -2.1960    1.5490 O   0  0  0  0  0  0  0  0  0  0  0  0
   -0.3780   -0.9790    1.7450 O   0  0  0  0  0  0  0  0  0  0  0  0
  1  2  2  0
  2  3  1  0
  2  6  1  0
  3  4  2  0
  3  5  1  0
  6  7  2  0
  6  8  1  0
  8  9  1  0
  8 18  1  0
  9 10  1  0
 10 11  2  0
 10 12  1  0
 12 13  1  0
 13 14  1  0
 14 15  1  6
 14 16  1  0
 16 17  1  0
 18 19  2  3
 18 21  1  0
 19 20  1  0
 21 22  2  0
 21 23  1  0
M  END
