
     RDKit          3D

 23 24  0  0  0  0  0  0  0  0999 V2000
   -0.6150    2.2730   -0.3570 O   0  0  0  0  0  0  0  0  0  0  0  0
   -1.2460    1.1810   -0.2090 C   0  0  0  0  0  0  0  0  0  0  0  0
   -0.6120    0.1770    0.4600 O   0  0  0  0  0  0  0  0  0  0  0  0
    0.7100    0.3680    0.9650 C   0  0  0  0  0  0  0  0  0  0  0  0
    1.1530   -0.7660    1.6010 O   0  0  0  0  0  0  0  0  0  0  0  0
    2.4200   -0.6270    2.1060 C   0  0  0  0  0  0  0  0  0  0  0  0
    3.4700   -0.3180    1.0470 C   0  0  0  0  0  0  0  0  0  0  0  0
    3.4690   -1.3610    0.1510 O   0  0  0  0  0  0  0  0  0  0  0  0
    4.3520   -1.2400   -0.9000 C   0  0  0  0  0  0  0  0  0  0  0  0
    5.7600   -1.1510   -0.3990 C   0  0  0  0  0  0  0  0  0  0  0  0
    6.6720   -1.0330   -1.4790 O   0  0  0  0  0  0  0  0  0  0  0  0
    7.9010   -0.9560   -1.0230 O   0  0  0  0  0  0  0  0  0  0  0  0
    8.1420    0.2670   -0.6070 O   0  0  0  0  0  0  0  0  0  0  0  0
   -2.5840    1.0560   -0.7500 C   0  0  2  0  0  0  0  0  0  0  0  0
   -3.4670    2.2310   -0.3650 C   0  0  0  0  0  0  0  0  0  0  0  0
   -4.8940    2.0200   -0.8170 C   0  0  0  0  0  0  0  0  0  0  0  0
   -5.3970    0.6570   -0.3920 C   0  0  0  0  0  0  0  0  0  0  0  0
   -4.5290   -0.3620   -1.1090 C   0  0  2  0  0  0  0  0  0  0  0  0
   -4.9040   -1.7710   -0.8940 C   0  0  0  0  0  0  0  0  0  0  0  0
   -3.7880   -2.4130   -0.3340 O   0  0  0  0  0  0  0  0  0  0  0  0
   -3.0390   -1.3840    0.2670 C   0  0  0  0  0  0  0  0  0  0  0  0
   -2.3310   -1.5110    1.2890 O   0  0  0  0  0  0  0  0  0  0  0  0
   -3.2070   -0.1970   -0.4520 N   0  0  0  0  0  0  0  0  0  0  0  0
  1  2  2  0
  2  3  1  0
 14  2  1  1
  3  4  1  0
  4  5  1  0
  5  6  1  0
  6  7  1  0
  7  8  1  0
  8  9  1  0
  9 10  1  0
 10 11  1  0
 11 12  1  0
 12 13  1  0
 14 15  1  0
 14 23  1  0
 15 16  1  0
 16 17  1  0
 18 17  1  1
 18 19  1  0
 18 23  1  0
 19 20  1  0
 20 21  1  0
 21 22  2  0
 21 23  1  0
M  END
