
     RDKit          3D

 11 11  0  0  0  0  0  0  0  0999 V2000
    3.4950    0.6670    0.1350 C   0  0  0  0  0  0  0  0  0  0  0  0
    2.0360    0.9100   -0.0870 C   0  0  0  0  0  0  0  0  0  0  0  0
    1.2960   -0.2800    0.1860 O   0  0  0  0  0  0  0  0  0  0  0  0
   -0.0770   -0.3350    0.0600 C   0  0  0  0  0  0  0  0  0  0  0  0
   -0.7990    0.7790   -0.3410 C   0  0  0  0  0  0  0  0  0  0  0  0
   -2.1740    0.6520   -0.4460 C   0  0  0  0  0  0  0  0  0  0  0  0
   -2.9080    1.7490   -0.8440 O   0  0  0  0  0  0  0  0  0  0  0  0
   -2.8330   -0.5310   -0.1670 C   0  0  0  0  0  0  0  0  0  0  0  0
   -2.0830   -1.6330    0.2340 C   0  0  0  0  0  0  0  0  0  0  0  0
   -0.7000   -1.5310    0.3470 C   0  0  0  0  0  0  0  0  0  0  0  0
    0.0680   -2.6150    0.7440 O   0  0  0  0  0  0  0  0  0  0  0  0
  1  2  1  0
  2  3  1  0
  3  4  1  0
  4  5  2  0
  4 10  1  0
  5  6  1  0
  6  7  1  0
  6  8  2  0
  8  9  1  0
  9 10  2  0
 10 11  1  0
M  END
