
     RDKit          3D

 10 10  0  0  0  0  0  0  0  0999 V2000
   -2.1130   -1.0150   -0.7970 C   0  0  0  0  0  0  0  0  0  0  0  0
   -1.0100   -0.1270   -0.2050 C   0  0  1  0  0  0  0  0  0  0  0  0
   -1.7520    0.9030    0.6550 C   0  0  0  0  0  0  0  0  0  0  0  0
   -0.2020   -0.9750    0.6940 C   0  0  0  0  0  0  0  0  0  0  0  0
    0.9650   -0.2320    1.2590 C   0  0  0  0  0  0  0  0  0  0  0  0
    2.0780   -0.3600    0.2220 C   0  0  0  0  0  0  0  0  0  0  0  0
    2.0670    0.8630   -0.6140 C   0  0  0  0  0  0  0  0  0  0  0  0
    0.8740    1.0440   -1.4480 C   0  0  0  0  0  0  0  0  0  0  0  0
    1.0310    1.7970   -2.4260 O   0  0  0  0  0  0  0  0  0  0  0  0
   -0.3630    0.4760   -1.2570 O   0  0  0  0  0  0  0  0  0  0  0  0
  2  1  1  6
  2  3  1  0
  2  4  1  0
  2 10  1  0
  4  5  1  0
  5  6  1  0
  6  7  1  0
  7  8  1  0
  8  9  2  0
  8 10  1  0
M  END
