
     RDKit          3D

  9  9  0  0  0  0  0  0  0  0999 V2000
   -2.5650   -0.1390   -0.5900 N   0  0  0  0  0  0  0  0  0  0  0  0
   -1.4410    0.7880    0.3470 S   0  0  1  0  0  0  0  0  0  0  0  0
   -1.4990    2.2000   -0.1960 O   0  0  0  0  0  0  0  0  0  0  0  0
   -1.9290    0.7750    1.7750 O   0  0  0  0  0  0  0  0  0  0  0  0
    0.1590    0.1540    0.1830 C   0  0  0  0  0  0  0  0  0  0  0  0
    0.7340   -0.7840    0.9460 C   0  0  0  0  0  0  0  0  0  0  0  0
    2.0520   -1.0160    0.4750 N   0  0  0  0  0  0  0  0  0  0  0  0
    2.2260   -0.2930   -0.7030 N   0  0  0  0  0  0  0  0  0  0  0  0
    1.1120    0.5430   -0.8020 N   0  0  0  0  0  0  0  0  0  0  0  0
  2  1  1  6
  2  3  2  0
  2  4  2  0
  2  5  1  0
  5  6  2  0
  5  9  1  0
  6  7  1  0
  7  8  1  0
  8  9  1  0
M  END
