
     RDKit          3D

 11 11  0  0  0  0  0  0  0  0999 V2000
    2.5020    1.7060   -0.2440 C   0  0  0  0  0  0  0  0  0  0  0  0
    2.5260    0.3420    0.1260 O   0  0  0  0  0  0  0  0  0  0  0  0
    1.3430   -0.3490    0.3040 C   0  0  0  0  0  0  0  0  0  0  0  0
    1.4010   -1.6750    0.6640 C   0  0  0  0  0  0  0  0  0  0  0  0
    0.1930   -2.3370    0.8350 C   0  0  0  0  0  0  0  0  0  0  0  0
   -1.0280   -1.6880    0.6490 C   0  0  0  0  0  0  0  0  0  0  0  0
   -2.2250   -2.3670    0.8250 O   0  0  0  0  0  0  0  0  0  0  0  0
   -1.0540   -0.3570    0.2880 C   0  0  0  0  0  0  0  0  0  0  0  0
   -2.2860    0.2610    0.1120 O   0  0  0  0  0  0  0  0  0  0  0  0
   -2.3400    1.6110   -0.2540 C   0  0  0  0  0  0  0  0  0  0  0  0
    0.1510    0.3130    0.1160 C   0  0  0  0  0  0  0  0  0  0  0  0
  1  2  1  0
  2  3  1  0
  3  4  2  0
  3 11  1  0
  4  5  1  0
  5  6  2  0
  6  7  1  0
  6  8  1  0
  8  9  1  0
  8 11  2  0
  9 10  1  0
M  END
