
     RDKit          3D

 11 11  0  0  0  0  0  0  0  0999 V2000
   -4.0550    0.4800    0.6100 C   0  0  0  0  0  0  0  0  0  0  0  0
   -2.9940   -0.0300   -0.3280 C   0  0  0  0  0  0  0  0  0  0  0  0
   -1.7400   -0.0720    0.3260 O   0  0  0  0  0  0  0  0  0  0  0  0
   -0.6120   -0.5100   -0.3440 C   0  0  0  0  0  0  0  0  0  0  0  0
   -0.7740   -0.8620   -1.5520 O   0  0  0  0  0  0  0  0  0  0  0  0
    0.7350   -0.5680    0.3160 C   0  0  2  0  0  0  0  0  0  0  0  0
    1.0780    0.8230    0.7480 C   0  0  0  0  0  0  0  0  0  0  0  0
    2.2750    1.3200   -0.0160 C   0  0  0  0  0  0  0  0  0  0  0  0
    3.3120    0.4220    0.1730 O   0  0  0  0  0  0  0  0  0  0  0  0
    3.1180   -0.7900   -0.4510 C   0  0  0  0  0  0  0  0  0  0  0  0
    1.6900   -1.1670   -0.6510 C   0  0  0  0  0  0  0  0  0  0  0  0
  1  2  1  0
  2  3  1  0
  3  4  1  0
  4  5  2  0
  6  4  1  6
  6  7  1  0
  6 11  1  0
  7  8  1  0
  8  9  1  0
  9 10  1  0
 10 11  1  0
M  END
