
     RDKit          3D

 26 29  0  0  0  0  0  0  0  0999 V2000
    8.1820    0.8370   -0.2980 C   0  0  0  0  0  0  0  0  0  0  0  0
    6.8450    0.1780   -0.2370 C   0  0  0  0  0  0  0  0  0  0  0  0
    5.7690    0.4740    0.5740 C   0  0  0  0  0  0  0  0  0  0  0  0
    4.7260   -0.3910    0.2980 C   0  0  0  0  0  0  0  0  0  0  0  0
    3.3890   -0.4770    0.8890 C   0  0  0  0  0  0  0  0  0  0  0  0
    2.4090    0.3610    0.2680 N   0  0  0  0  0  0  0  0  0  0  0  0
    2.1800    0.1040   -1.1200 C   0  0  0  0  0  0  0  0  0  0  0  0
    1.2320   -1.0460   -1.2980 C   0  0  0  0  0  0  0  0  0  0  0  0
   -0.0150   -0.8460   -0.6290 N   0  0  0  0  0  0  0  0  0  0  0  0
   -0.7570    0.2410   -1.1910 C   0  0  0  0  0  0  0  0  0  0  0  0
   -2.0450    0.4520   -0.5080 C   0  0  0  0  0  0  0  0  0  0  0  0
   -2.0800    1.2840    0.5490 N   0  0  0  0  0  0  0  0  0  0  0  0
   -3.2210    1.5290    1.2270 C   0  0  0  0  0  0  0  0  0  0  0  0
   -3.2310    2.4600    2.4020 C   0  0  0  0  0  0  0  0  0  0  0  0
   -4.3590    0.8880    0.7890 C   0  0  0  0  0  0  0  0  0  0  0  0
   -4.3650    0.0290   -0.2910 C   0  0  0  0  0  0  0  0  0  0  0  0
   -5.5650   -0.6240   -0.7240 N   0  0  0  0  0  0  0  0  0  0  0  0
   -6.2330   -0.4530   -1.8740 C   0  0  0  0  0  0  0  0  0  0  0  0
   -7.3470   -1.2640   -1.9300 C   0  0  0  0  0  0  0  0  0  0  0  0
   -7.3560   -1.9660   -0.7490 C   0  0  0  0  0  0  0  0  0  0  0  0
   -6.2460   -1.5510   -0.0270 C   0  0  0  0  0  0  0  0  0  0  0  0
   -3.1890   -0.1680   -0.9190 N   0  0  0  0  0  0  0  0  0  0  0  0
    0.2450   -0.6720    0.7850 C   0  0  0  0  0  0  0  0  0  0  0  0
    1.2090    0.4630    1.0440 C   0  0  0  0  0  0  0  0  0  0  0  0
    5.1890   -1.1960   -0.6760 N   0  0  0  0  0  0  0  0  0  0  0  0
    6.4340   -0.8630   -0.9900 N   0  0  0  0  0  0  0  0  0  0  0  0
  1  2  1  0
  2  3  1  0
  2 26  2  0
  3  4  2  0
  4  5  1  0
  4 25  1  0
  5  6  1  0
  6  7  1  0
  6 24  1  0
  7  8  1  0
  8  9  1  0
  9 10  1  0
  9 23  1  0
 10 11  1  0
 11 12  2  0
 11 22  1  0
 12 13  1  0
 13 14  1  0
 13 15  2  0
 15 16  1  0
 16 17  1  0
 16 22  2  0
 17 18  1  0
 17 21  1  0
 18 19  2  0
 19 20  1  0
 20 21  2  0
 23 24  1  0
 25 26  1  0
M  END
