
     RDKit          3D

 26 29  0  0  0  0  0  0  0  0999 V2000
   10.7480   -0.5730   -0.2480 C   0  0  0  0  0  0  0  0  0  0  0  0
    9.9590    0.7300   -0.1260 C   0  0  0  0  0  0  0  0  0  0  0  0
    8.6070    0.3680    0.3320 C   0  0  0  0  0  0  0  0  0  0  0  0
    7.5660    0.6670   -0.4090 C   0  0  0  0  0  0  0  0  0  0  0  0
    6.1890    0.3240    0.0100 C   0  0  0  0  0  0  0  0  0  0  0  0
    5.0230    0.5820   -0.6750 C   0  0  0  0  0  0  0  0  0  0  0  0
    3.9650    0.1220    0.0170 N   0  0  0  0  0  0  0  0  0  0  0  0
    4.4730   -0.4250    1.1350 C   0  0  0  0  0  0  0  0  0  0  0  0
    5.8190   -0.3060    1.1370 N   0  0  0  0  0  0  0  0  0  0  0  0
    3.4110   -0.8910    1.8380 N   0  0  0  0  0  0  0  0  0  0  0  0
    2.2570   -0.6510    1.1910 C   0  0  0  0  0  0  0  0  0  0  0  0
    0.9510   -0.9040    1.4480 N   0  0  0  0  0  0  0  0  0  0  0  0
   -0.0350   -0.5460    0.6080 C   0  0  0  0  0  0  0  0  0  0  0  0
   -1.4170   -0.8300    0.9120 N   0  0  0  0  0  0  0  0  0  0  0  0
   -2.4030   -0.4040   -0.0580 C   0  0  0  0  0  0  0  0  0  0  0  0
   -3.7760   -0.8240    0.5060 C   0  0  0  0  0  0  0  0  0  0  0  0
   -4.8550   -0.4190   -0.4400 C   0  0  0  0  0  0  0  0  0  0  0  0
   -6.1280   -0.8080    0.0250 N   0  0  0  0  0  0  0  0  0  0  0  0
   -7.1760   -0.4180   -0.9060 C   0  0  0  0  0  0  0  0  0  0  0  0
   -7.4270    1.0560   -0.7460 C   0  0  0  0  0  0  0  0  0  0  0  0
   -7.9440    1.3110    0.6420 C   0  0  0  0  0  0  0  0  0  0  0  0
   -6.8970    0.8610    1.6390 C   0  0  0  0  0  0  0  0  0  0  0  0
   -6.4750   -0.5710    1.3770 C   0  0  0  0  0  0  0  0  0  0  0  0
    0.3280    0.1000   -0.5510 C   0  0  0  0  0  0  0  0  0  0  0  0
    1.6330    0.3570   -0.8170 N   0  0  0  0  0  0  0  0  0  0  0  0
    2.6140   -0.0030    0.0270 C   0  0  0  0  0  0  0  0  0  0  0  0
  1  2  1  0
  2  3  1  0
  3  4  2  3
  4  5  1  0
  5  6  2  0
  5  9  1  0
  6  7  1  0
  7  8  1  0
  7 26  1  0
  8  9  2  0
  8 10  1  0
 10 11  1  0
 11 12  2  0
 11 26  1  0
 12 13  1  0
 13 14  1  0
 13 24  2  0
 14 15  1  0
 15 16  1  0
 16 17  1  0
 17 18  1  0
 18 19  1  0
 18 23  1  0
 19 20  1  0
 20 21  1  0
 21 22  1  0
 22 23  1  0
 24 25  1  0
 25 26  2  0
M  END
