
     RDKit          3D

 26 29  0  0  0  0  0  0  0  0999 V2000
    7.8420    0.4800    0.7820 C   0  0  0  0  0  0  0  0  0  0  0  0
    7.6910   -0.9260    0.2690 C   0  0  0  0  0  0  0  0  0  0  0  0
    6.4810   -1.5430    0.7270 N   0  0  0  0  0  0  0  0  0  0  0  0
    5.1950   -1.0460    0.3890 C   0  0  0  0  0  0  0  0  0  0  0  0
    4.0470   -1.5990    0.8960 C   0  0  0  0  0  0  0  0  0  0  0  0
    2.8130   -1.0970    0.5430 C   0  0  0  0  0  0  0  0  0  0  0  0
    2.6990   -0.0340   -0.3210 C   0  0  0  0  0  0  0  0  0  0  0  0
    1.4100    0.4490   -0.6550 N   0  0  0  0  0  0  0  0  0  0  0  0
    0.2370   -0.2100   -0.6240 C   0  0  0  0  0  0  0  0  0  0  0  0
   -0.7810    0.6310   -1.0270 C   0  0  0  0  0  0  0  0  0  0  0  0
   -2.2430    0.3020   -1.1390 C   0  0  0  0  0  0  0  0  0  0  0  0
   -2.8850    0.5980    0.1280 N   0  0  0  0  0  0  0  0  0  0  0  0
   -4.2710    0.3650    0.2600 C   0  0  0  0  0  0  0  0  0  0  0  0
   -5.0240   -0.1330   -0.7810 C   0  0  0  0  0  0  0  0  0  0  0  0
   -6.3610   -0.3370   -0.5900 C   0  0  0  0  0  0  0  0  0  0  0  0
   -7.1750   -0.8770   -1.7180 C   0  0  0  0  0  0  0  0  0  0  0  0
   -6.9370   -0.0550    0.5970 N   0  0  0  0  0  0  0  0  0  0  0  0
   -6.2500    0.4190    1.6030 N   0  0  0  0  0  0  0  0  0  0  0  0
   -6.5610    0.7730    2.8440 C   0  0  0  0  0  0  0  0  0  0  0  0
   -5.4150    1.2120    3.4720 C   0  0  0  0  0  0  0  0  0  0  0  0
   -4.4030    1.1200    2.5930 N   0  0  0  0  0  0  0  0  0  0  0  0
   -4.9290    0.6300    1.4460 C   0  0  0  0  0  0  0  0  0  0  0  0
   -0.1630    1.8360   -1.3050 C   0  0  0  0  0  0  0  0  0  0  0  0
    1.1490    1.6720   -1.0660 N   0  0  0  0  0  0  0  0  0  0  0  0
    3.8540    0.5140   -0.8250 C   0  0  0  0  0  0  0  0  0  0  0  0
    5.1130    0.0160   -0.4780 C   0  0  0  0  0  0  0  0  0  0  0  0
  1  2  1  0
  2  3  1  0
  3  4  1  0
  4  5  2  0
  4 26  1  0
  5  6  1  0
  6  7  2  0
  7  8  1  0
  7 25  1  0
  8  9  1  0
  8 24  1  0
  9 10  2  0
 10 11  1  0
 10 23  1  0
 11 12  1  0
 12 13  1  0
 13 14  2  0
 13 22  1  0
 14 15  1  0
 15 16  1  0
 15 17  2  0
 17 18  1  0
 18 19  1  0
 18 22  1  0
 19 20  2  0
 20 21  1  0
 21 22  2  0
 23 24  2  0
 25 26  2  0
M  END
