
     RDKit          3D

 26 29  0  0  0  0  0  0  0  0999 V2000
   -4.1380    4.4070   -0.9320 C   0  0  0  0  0  0  0  0  0  0  0  0
   -3.0260    3.4850   -0.5330 C   0  0  0  0  0  0  0  0  0  0  0  0
   -2.6630    2.3700   -1.1330 C   0  0  0  0  0  0  0  0  0  0  0  0
   -1.5390    1.7610   -0.4410 C   0  0  0  0  0  0  0  0  0  0  0  0
   -0.9340    0.6150   -0.7500 C   0  0  0  0  0  0  0  0  0  0  0  0
    0.1800    0.0320   -0.0580 C   0  0  0  0  0  0  0  0  0  0  0  0
    1.2900    0.7860    0.2960 C   0  0  0  0  0  0  0  0  0  0  0  0
    2.3450    0.2270    0.9800 C   0  0  0  0  0  0  0  0  0  0  0  0
    3.5220    1.0480    1.3380 C   0  0  0  0  0  0  0  0  0  0  0  0
    4.6250    0.8890    0.4110 N   0  0  0  0  0  0  0  0  0  0  0  0
    4.8680    1.5810   -0.7020 C   0  0  0  0  0  0  0  0  0  0  0  0
    6.0440    1.0990   -1.2830 C   0  0  0  0  0  0  0  0  0  0  0  0
    6.4750    0.0870   -0.4480 C   0  0  0  0  0  0  0  0  0  0  0  0
    5.6040   -0.0050    0.5450 N   0  0  0  0  0  0  0  0  0  0  0  0
    2.2920   -1.0890    1.3100 C   0  0  0  0  0  0  0  0  0  0  0  0
    1.2200   -1.8050    0.9650 N   0  0  0  0  0  0  0  0  0  0  0  0
    0.1540   -1.3110    0.2940 C   0  0  0  0  0  0  0  0  0  0  0  0
   -0.9530   -2.1440   -0.0280 N   0  0  0  0  0  0  0  0  0  0  0  0
   -0.9130   -3.5350    0.3730 C   0  0  0  0  0  0  0  0  0  0  0  0
   -2.1110   -4.2700   -0.0120 C   0  0  0  0  0  0  0  0  0  0  0  0
   -2.3130   -4.9660   -1.1800 C   0  0  0  0  0  0  0  0  0  0  0  0
   -3.5640   -5.5170   -1.1630 N   0  0  0  0  0  0  0  0  0  0  0  0
   -4.1420   -5.1770   -0.0080 N   0  0  0  0  0  0  0  0  0  0  0  0
   -3.2730   -4.4150    0.7120 C   0  0  0  0  0  0  0  0  0  0  0  0
   -1.2360    2.6040    0.6460 N   0  0  0  0  0  0  0  0  0  0  0  0
   -2.1600    3.6990    0.6340 C   0  0  0  0  0  0  0  0  0  0  0  0
  1  2  1  0
  2  3  2  0
  2 26  1  0
  3  4  1  0
  4  5  2  3
  4 25  1  0
  5  6  1  0
  6  7  2  0
  6 17  1  0
  7  8  1  0
  8  9  1  0
  8 15  2  0
  9 10  1  0
 10 11  1  0
 10 14  1  0
 11 12  2  0
 12 13  1  0
 13 14  2  0
 15 16  1  0
 16 17  2  0
 17 18  1  0
 18 19  1  0
 19 20  1  0
 20 21  1  0
 20 24  2  0
 21 22  2  0
 22 23  1  0
 23 24  1  0
 25 26  1  0
M  END
