
     RDKit          3D

 26 29  0  0  0  0  0  0  0  0999 V2000
   -7.2600   -0.1670    1.1190 C   0  0  0  0  0  0  0  0  0  0  0  0
   -6.7260   -1.1470    0.4220 C   0  0  0  0  0  0  0  0  0  0  0  0
   -5.2560   -1.3680    0.3250 C   0  0  0  0  0  0  0  0  0  0  0  0
   -4.8800   -1.2660   -1.0740 N   0  0  0  0  0  0  0  0  0  0  0  0
   -5.0280    0.0950   -1.5620 C   0  0  0  0  0  0  0  0  0  0  0  0
   -4.3320    1.0990   -0.6860 C   0  0  0  0  0  0  0  0  0  0  0  0
   -2.9440    0.6010   -0.4110 C   0  0  0  0  0  0  0  0  0  0  0  0
   -1.8470    1.1970    0.1130 N   0  0  0  0  0  0  0  0  0  0  0  0
   -0.8190    0.3430    0.1610 C   0  0  0  0  0  0  0  0  0  0  0  0
    0.5770    0.5930    0.6690 C   0  0  2  0  0  0  0  0  0  0  0  0
    0.7670    2.1160    0.6860 C   0  0  0  0  0  0  0  0  0  0  0  0
    1.5130    0.0720   -0.3040 N   0  0  0  0  0  0  0  0  0  0  0  0
    2.9120   -0.0050   -0.1310 C   0  0  0  0  0  0  0  0  0  0  0  0
    3.7640   -0.3300   -1.1840 C   0  0  0  0  0  0  0  0  0  0  0  0
    5.1260   -0.4210   -1.0020 C   0  0  0  0  0  0  0  0  0  0  0  0
    5.7150   -0.1920    0.2390 C   0  0  0  0  0  0  0  0  0  0  0  0
    7.1240   -0.2970    0.3940 N   0  0  0  0  0  0  0  0  0  0  0  0
    7.8950    0.3400    1.2880 C   0  0  0  0  0  0  0  0  0  0  0  0
    9.1930   -0.0380    1.1060 N   0  0  0  0  0  0  0  0  0  0  0  0
    9.1960   -0.9030    0.1000 N   0  0  0  0  0  0  0  0  0  0  0  0
    7.9460   -1.0650   -0.3370 C   0  0  0  0  0  0  0  0  0  0  0  0
    4.8720    0.1300    1.2780 C   0  0  0  0  0  0  0  0  0  0  0  0
    3.5000    0.2200    1.0930 C   0  0  0  0  0  0  0  0  0  0  0  0
   -1.2900   -0.8070   -0.3450 N   0  0  0  0  0  0  0  0  0  0  0  0
   -2.5680   -0.6900   -0.7010 C   0  0  0  0  0  0  0  0  0  0  0  0
   -3.5030   -1.6640   -1.2890 C   0  0  0  0  0  0  0  0  0  0  0  0
  1  2  2  0
  2  3  1  0
  3  4  1  0
  4  5  1  0
  4 26  1  0
  5  6  1  0
  6  7  1  0
  7  8  1  0
  7 25  2  0
  8  9  1  0
  9 10  1  0
  9 24  2  0
 10 11  1  6
 10 12  1  0
 12 13  1  0
 13 14  2  0
 13 23  1  0
 14 15  1  0
 15 16  2  0
 16 17  1  0
 16 22  1  0
 17 18  1  0
 17 21  1  0
 18 19  2  0
 19 20  1  0
 20 21  2  0
 22 23  2  0
 24 25  1  0
 25 26  1  0
M  END
