
     RDKit          3D

 11 11  0  0  0  0  0  0  0  0999 V2000
   -1.0210   -1.6570   -0.7200 N   0  0  0  0  0  0  0  0  0  0  0  0
   -0.9770   -0.2700   -0.3070 C   0  0  1  0  0  0  0  0  0  0  0  0
   -2.3750    0.0730    0.2080 C   0  0  0  0  0  0  0  0  0  0  0  0
   -2.4880    1.3690    0.6360 O   0  0  0  0  0  0  0  0  0  0  0  0
   -1.2190    1.9040    0.8080 C   0  0  0  0  0  0  0  0  0  0  0  0
   -0.4910    1.0190    1.5780 O   0  0  0  0  0  0  0  0  0  0  0  0
    0.0190   -0.0050    0.7670 C   0  0  2  0  0  0  0  0  0  0  0  0
    1.3770    0.3770    0.3040 C   0  0  2  0  0  0  0  0  0  0  0  0
    1.4400    1.5330   -0.4310 O   0  0  0  0  0  0  0  0  0  0  0  0
    2.0920   -0.7190   -0.4470 C   0  0  0  0  0  0  0  0  0  0  0  0
    3.4320   -0.4040   -0.6650 O   0  0  0  0  0  0  0  0  0  0  0  0
  2  1  1  1
  2  3  1  0
  2  7  1  0
  3  4  1  0
  4  5  1  0
  5  6  1  0
  7  6  1  1
  7  8  1  0
  8  9  1  6
  8 10  1  0
 10 11  1  0
M  CHG  1   1   1
M  END
