
     RDKit          3D

 11 11  0  0  0  0  0  0  0  0999 V2000
    1.9930   -1.0020   -0.0010 N   0  0  0  0  0  0  0  0  0  0  0  0
    0.9830   -0.2220   -0.6390 C   0  0  2  0  0  0  0  0  0  0  0  0
    1.5000    1.2030   -0.6800 C   0  0  0  0  0  0  0  0  0  0  0  0
    1.3000    1.6020    0.6300 O   0  0  0  0  0  0  0  0  0  0  0  0
    0.0390    1.1240    1.0080 C   0  0  0  0  0  0  0  0  0  0  0  0
   -0.2740   -0.0530    0.1470 C   0  0  2  0  0  0  0  0  0  0  0  0
   -0.6900   -1.2760    0.9130 C   0  0  0  0  0  0  0  0  0  0  0  0
   -0.9130   -2.3650    0.0690 O   0  0  0  0  0  0  0  0  0  0  0  0
   -1.4390    0.3170   -0.7420 C   0  0  2  0  0  0  0  0  0  0  0  0
   -1.2650    1.4900   -1.4300 O   0  0  0  0  0  0  0  0  0  0  0  0
   -2.5810    0.4640    0.0450 O   0  0  0  0  0  0  0  0  0  0  0  0
  2  1  1  1
  2  3  1  0
  2  6  1  0
  3  4  1  0
  4  5  1  0
  5  6  1  0
  6  7  1  1
  6  9  1  0
  7  8  1  0
  9 10  1  1
  9 11  1  0
M  CHG  1   1   1
M  END
