
     RDKit          3D

 11 11  0  0  0  0  0  0  0  0999 V2000
    0.8930    1.5880    0.7760 N   0  0  0  0  0  0  0  0  0  0  0  0
    0.5520    0.3360    0.0790 C   0  0  2  0  0  0  0  0  0  0  0  0
    1.7720   -0.5930    0.1440 C   0  0  0  0  0  0  0  0  0  0  0  0
    2.1200   -0.8800    1.4450 O   0  0  0  0  0  0  0  0  0  0  0  0
    0.3170    0.6680   -1.3430 C   0  0  0  0  0  0  0  0  0  0  0  0
   -0.9260    0.0900   -1.9400 C   0  0  0  0  0  0  0  0  0  0  0  0
   -1.9720    0.3360   -1.0200 O   0  0  0  0  0  0  0  0  0  0  0  0
   -1.7760   -0.6130   -0.0130 C   0  0  2  0  0  0  0  0  0  0  0  0
   -2.8960   -0.7550    0.7750 O   0  0  0  0  0  0  0  0  0  0  0  0
   -0.5700   -0.2900    0.8110 C   0  0  1  0  0  0  0  0  0  0  0  0
   -0.1600   -1.5020    1.4190 O   0  0  0  0  0  0  0  0  0  0  0  0
  2  1  1  1
  2  3  1  0
  2  5  1  0
  2 10  1  0
  3  4  1  0
  5  6  1  0
  6  7  1  0
  7  8  1  0
  8  9  1  1
  8 10  1  0
 10 11  1  6
M  CHG  1   1   1
M  END
