
     RDKit          3D

 11 11  0  0  0  0  0  0  0  0999 V2000
    1.9520   -0.1870   -0.7780 N   0  0  0  0  0  0  0  0  0  0  0  0
    0.9290   -0.3240    0.2540 C   0  0  2  0  0  0  0  0  0  0  0  0
    0.2920   -1.6540    0.0940 C   0  0  2  0  0  0  0  0  0  0  0  0
    0.3420   -2.0100   -1.2720 O   0  0  0  0  0  0  0  0  0  0  0  0
   -1.1290   -1.7400    0.5240 C   0  0  0  0  0  0  0  0  0  0  0  0
   -1.8430   -0.4120    0.5210 C   0  0  0  0  0  0  0  0  0  0  0  0
   -1.0790    0.6230    1.0040 O   0  0  0  0  0  0  0  0  0  0  0  0
   -0.0220    0.8290    0.1150 C   0  0  2  0  0  0  0  0  0  0  0  0
   -0.4640    0.8700   -1.2020 O   0  0  0  0  0  0  0  0  0  0  0  0
    0.6380    2.1210    0.4860 C   0  0  0  0  0  0  0  0  0  0  0  0
   -0.2940    3.1610    0.3880 O   0  0  0  0  0  0  0  0  0  0  0  0
  2  1  1  6
  2  3  1  0
  2  8  1  0
  3  4  1  6
  3  5  1  0
  5  6  1  0
  6  7  1  0
  7  8  1  0
  8  9  1  6
  8 10  1  0
 10 11  1  0
M  CHG  1   1   1
M  END
