
     RDKit          3D

 11 11  0  0  0  0  0  0  0  0999 V2000
    0.7170   -1.5700   -1.0770 C   0  0  0  0  0  0  0  0  0  0  0  0
    0.4420   -0.2970   -0.2970 C   0  0  1  0  0  0  0  0  0  0  0  0
   -1.0060   -0.0910   -0.1030 C   0  0  1  0  0  0  0  0  0  0  0  0
   -1.5930   -1.2600    0.5300 N   0  0  0  0  0  0  0  0  0  0  0  0
   -1.4170    1.1120    0.6630 C   0  0  0  0  0  0  0  0  0  0  0  0
   -2.8060    1.2480    0.6800 O   0  0  0  0  0  0  0  0  0  0  0  0
    1.0290   -0.5040    0.9710 O   0  0  0  0  0  0  0  0  0  0  0  0
    2.0090    0.4470    1.1150 C   0  0  0  0  0  0  0  0  0  0  0  0
    2.4810    0.6040   -0.1950 O   0  0  0  0  0  0  0  0  0  0  0  0
    1.2400    0.8000   -0.8560 C   0  0  1  0  0  0  0  0  0  0  0  0
    1.5090    0.7200   -2.2070 O   0  0  0  0  0  0  0  0  0  0  0  0
  2  1  1  6
  2  3  1  0
  2  7  1  0
  2 10  1  0
  3  4  1  1
  3  5  1  0
  5  6  1  0
  7  8  1  0
  8  9  1  0
  9 10  1  0
 10 11  1  6
M  CHG  1   4   1
M  END
