
     RDKit          3D

 34 35  0  0  0  0  0  0  0  0999 V2000
    1.8230   -1.9320   -1.6860 C   0  0  0  0  0  0  0  0  0  0  0  0
    1.3180   -1.0100   -0.5750 C   0  0  2  0  0  0  0  0  0  0  0  0
    2.6260   -0.3580   -0.2760 C   0  0  0  0  0  0  0  0  0  0  0  0
    3.1430   -0.5650    0.8380 O   0  0  0  0  0  0  0  0  0  0  0  0
    3.1920    0.4100   -1.1900 O   0  0  0  0  0  0  0  0  0  0  0  0
    4.3600    1.1370   -1.2410 C   0  0  0  0  0  0  0  0  0  0  0  0
    5.6250    0.3720   -1.1140 C   0  0  0  0  0  0  0  0  0  0  0  0
    5.8220   -0.3080    0.0800 O   0  0  0  0  0  0  0  0  0  0  0  0
    5.9880    0.3950    1.2890 C   0  0  0  0  0  0  0  0  0  0  0  0
    5.9560    1.6460    1.2720 O   0  0  0  0  0  0  0  0  0  0  0  0
    6.1810   -0.3060    2.4540 O   0  0  0  0  0  0  0  0  0  0  0  0
    0.9630   -1.7770    0.6350 N   0  0  0  0  0  0  0  0  0  0  0  0
    0.5060   -3.1000    0.7190 C   0  0  0  0  0  0  0  0  0  0  0  0
    1.2380   -3.9060    1.4220 O   0  0  0  0  0  0  0  0  0  0  0  0
   -0.6440   -3.6820    0.1450 N   0  0  0  0  0  0  0  0  0  0  0  0
   -2.0270   -3.3210    0.3890 C   0  0  0  0  0  0  0  0  0  0  0  0
   -2.2490   -2.5060    1.6180 C   0  0  0  0  0  0  0  0  0  0  0  0
   -3.0070   -0.8530    1.3310 P   0  0  0  0  0  0  0  0  0  0  0  0
   -3.7270   -0.3160    2.8310 O   0  0  0  0  0  0  0  0  0  0  0  0
   -4.2170   -0.9080    0.1340 O   0  0  0  0  0  0  0  0  0  0  0  0
   -5.0640    0.1790    0.1170 C   0  0  0  0  0  0  0  0  0  0  0  0
   -4.4030    1.5050    0.0820 C   0  0  0  0  0  0  0  0  0  0  0  0
   -4.5550    2.2420   -1.2470 C   0  0  0  0  0  0  0  0  0  0  0  0
   -3.3230    2.1920   -1.8870 O   0  0  0  0  0  0  0  0  0  0  0  0
   -2.1960    1.3720   -1.5840 C   0  0  0  0  0  0  0  0  0  0  0  0
   -2.0190    0.1070   -2.0300 C   0  0  0  0  0  0  0  0  0  0  0  0
   -0.8620   -0.6530   -1.6830 C   0  0  0  0  0  0  0  0  0  0  0  0
    0.1410   -0.1600   -0.8830 C   0  0  0  0  0  0  0  0  0  0  0  0
   -0.0340    1.1300   -0.4230 C   0  0  0  0  0  0  0  0  0  0  0  0
    0.7440    1.9830    0.4100 O   0  0  0  0  0  0  0  0  0  0  0  0
    0.4080    3.5480    0.8960 P   0  0  0  0  0  0  0  0  0  0  0  0
    1.3510    4.8070    0.2200 O   0  0  0  0  0  0  0  0  0  0  0  0
   -0.0640    3.7970    2.5200 O   0  0  0  0  0  0  0  0  0  0  0  0
   -1.2060    1.8750   -0.7860 C   0  0  0  0  0  0  0  0  0  0  0  0
  2  1  1  6
  2  3  1  0
  2 12  1  0
  2 28  1  0
  3  4  2  0
  3  5  1  0
  5  6  1  0
  6  7  1  0
  7  8  1  0
  8  9  1  0
  9 10  2  0
  9 11  1  0
 12 13  1  0
 13 14  2  0
 13 15  1  0
 15 16  1  0
 16 17  1  0
 17 18  1  0
 18 19  1  0
 18 20  1  0
 20 21  1  0
 21 22  1  0
 22 23  1  0
 23 24  1  0
 24 25  1  0
 25 26  2  0
 25 34  1  0
 26 27  1  0
 27 28  2  0
 28 29  1  0
 29 30  1  0
 29 34  2  0
 30 31  1  0
 31 32  1  0
 31 33  1  0
M  END
