
     RDKit          3D

 34 36  0  0  0  0  0  0  0  0999 V2000
   -2.3840   -0.4240    0.7450 O   0  0  0  0  0  0  0  0  0  0  0  0
   -1.8210    0.3070   -0.1170 C   0  0  0  0  0  0  0  0  0  0  0  0
   -0.4550    0.1290   -0.3460 N   0  0  0  0  0  0  0  0  0  0  0  0
    0.3130   -0.9100    0.3350 C   0  0  0  0  0  0  0  0  0  0  0  0
    1.6280   -1.0010   -0.3520 C   0  0  1  0  0  0  0  0  0  0  0  0
    1.3500   -0.8730   -1.7160 O   0  0  0  0  0  0  0  0  0  0  0  0
    1.2160   -1.7450   -2.7080 C   0  0  0  0  0  0  0  0  0  0  0  0
    1.3440   -2.9890   -2.4630 O   0  0  0  0  0  0  0  0  0  0  0  0
    0.9210   -1.4260   -4.0520 O   0  0  0  0  0  0  0  0  0  0  0  0
    2.7870   -0.3120    0.1560 C   0  0  0  0  0  0  0  0  0  0  0  0
    2.8110    0.7810    0.7020 O   0  0  0  0  0  0  0  0  0  0  0  0
    4.0290   -0.9690   -0.0060 O   0  0  0  0  0  0  0  0  0  0  0  0
    5.2730   -0.6780    0.1960 C   0  0  1  0  0  0  0  0  0  0  0  0
    5.7050   -0.0480    1.5020 C   0  0  0  0  0  0  0  0  0  0  0  0
    5.0100    1.2000    1.4920 O   0  0  0  0  0  0  0  0  0  0  0  0
    6.2130    2.4750    1.7070 P   0  0  0  0  0  0  0  0  0  0  0  0
    6.0680   -2.0320    0.1760 C   0  0  0  0  0  0  0  0  0  0  0  0
    7.3860   -1.5720    0.2380 O   0  0  0  0  0  0  0  0  0  0  0  0
    7.4140   -0.3980   -0.5280 C   0  0  0  0  0  0  0  0  0  0  0  0
    8.4640    0.1780   -0.8590 O   0  0  0  0  0  0  0  0  0  0  0  0
    6.0610   -0.0440   -0.8360 O   0  0  0  0  0  0  0  0  0  0  0  0
   -2.5170    1.2830   -0.8810 N   0  0  0  0  0  0  0  0  0  0  0  0
   -3.9440    1.3680   -0.7600 C   0  0  2  0  0  0  0  0  0  0  0  0
   -4.5310    2.7040   -1.9050 P   0  0  0  0  0  0  0  0  0  0  0  0
   -3.9080    2.4060   -3.5250 O   0  0  0  0  0  0  0  0  0  0  0  0
   -3.7470    4.1910   -1.3940 O   0  0  0  0  0  0  0  0  0  0  0  0
   -4.2360    1.7640    0.6700 C   0  0  0  0  0  0  0  0  0  0  0  0
   -4.7500    0.5460    1.3220 C   0  0  0  0  0  0  0  0  0  0  0  0
   -4.9660    0.3240    2.6810 C   0  0  0  0  0  0  0  0  0  0  0  0
   -5.5420   -0.8410    3.0660 C   0  0  0  0  0  0  0  0  0  0  0  0
   -5.9110   -1.7940    2.1080 C   0  0  0  0  0  0  0  0  0  0  0  0
   -5.6970   -1.5550    0.7720 C   0  0  0  0  0  0  0  0  0  0  0  0
   -5.1090   -0.3890    0.3630 C   0  0  0  0  0  0  0  0  0  0  0  0
   -4.6850    0.0820   -0.9890 C   0  0  0  0  0  0  0  0  0  0  0  0
  1  2  2  0
  2  3  1  0
  2 22  1  0
  3  4  1  0
  5  4  1  1
  5  6  1  0
  5 10  1  0
  6  7  1  0
  7  8  2  0
  7  9  1  0
 10 11  2  0
 10 12  1  0
 12 13  1  0
 13 14  1  1
 13 17  1  0
 13 21  1  0
 14 15  1  0
 15 16  1  0
 17 18  1  0
 18 19  1  0
 19 20  2  0
 19 21  1  0
 23 22  1  1
 23 24  1  0
 23 27  1  0
 23 34  1  0
 24 25  1  0
 24 26  1  0
 27 28  1  0
 28 29  2  0
 28 33  1  0
 29 30  1  0
 30 31  2  0
 31 32  1  0
 32 33  2  0
 33 34  1  0
M  END
