
     RDKit          3D

 34 36  0  0  0  0  0  0  0  0999 V2000
   -0.8610    3.4300   -3.3320 C   0  0  0  0  0  0  0  0  0  0  0  0
   -1.2390    2.5160   -2.2140 C   0  0  1  0  0  0  0  0  0  0  0  0
   -2.7160    2.5280   -1.9340 C   0  0  0  0  0  0  0  0  0  0  0  0
   -3.1530    1.2970   -1.2300 C   0  0  0  0  0  0  0  0  0  0  0  0
   -4.6780    1.5080   -0.1700 P   0  0  0  0  0  0  0  0  0  0  0  0
   -4.6220    2.9990    0.6900 O   0  0  0  0  0  0  0  0  0  0  0  0
   -4.7220    0.2200    1.0290 O   0  0  0  0  0  0  0  0  0  0  0  0
   -3.5590   -0.5810    0.9290 C   0  0  0  0  0  0  0  0  0  0  0  0
   -3.6930   -1.7980    1.5470 O   0  0  0  0  0  0  0  0  0  0  0  0
   -2.6880   -2.1240    2.4510 C   0  0  0  0  0  0  0  0  0  0  0  0
   -2.3180   -3.5630    2.3900 C   0  0  0  0  0  0  0  0  0  0  0  0
   -1.0560   -3.8820    1.8930 O   0  0  0  0  0  0  0  0  0  0  0  0
   -0.5370   -3.6080    0.6260 C   0  0  0  0  0  0  0  0  0  0  0  0
   -0.1740   -4.6580   -0.0370 O   0  0  0  0  0  0  0  0  0  0  0  0
   -0.3620   -2.2840   -0.0320 C   0  0  0  0  0  0  0  0  0  0  0  0
    0.1920   -1.1530    0.3910 C   0  0  0  0  0  0  0  0  0  0  0  0
    0.2030    0.0770   -0.3220 C   0  0  0  0  0  0  0  0  0  0  0  0
    0.9040    1.1180    0.4290 O   0  0  0  0  0  0  0  0  0  0  0  0
    2.2760    1.2140    0.3380 C   0  0  0  0  0  0  0  0  0  0  0  0
    2.8560    0.3850   -0.4000 O   0  0  0  0  0  0  0  0  0  0  0  0
    3.0470    2.1750    1.0170 N   0  0  0  0  0  0  0  0  0  0  0  0
    4.4580    2.3490    0.9920 C   0  0  0  0  0  0  0  0  0  0  0  0
    5.2860    1.2200    1.4990 C   0  0  0  0  0  0  0  0  0  0  0  0
    5.0800    0.0800    0.7800 O   0  0  0  0  0  0  0  0  0  0  0  0
    6.0040   -1.2620    1.3110 P   0  0  0  0  0  0  0  0  0  0  0  0
    6.9840   -0.9280    2.6830 O   0  0  0  0  0  0  0  0  0  0  0  0
    6.8580   -2.0410    0.0380 O   0  0  0  0  0  0  0  0  0  0  0  0
   -0.3890    0.1340   -1.5240 C   0  0  0  0  0  0  0  0  0  0  0  0
   -0.9780   -1.0780   -1.9940 C   0  0  0  0  0  0  0  0  0  0  0  0
   -0.9940   -2.2640   -1.3220 C   0  0  0  0  0  0  0  0  0  0  0  0
   -1.6340   -3.2950   -2.0080 O   0  0  0  0  0  0  0  0  0  0  0  0
   -1.5690   -3.2360   -3.4000 C   0  0  0  0  0  0  0  0  0  0  0  0
   -1.7810   -1.4240   -3.6230 S   0  0  0  0  0  0  0  0  0  0  0  0
   -0.6810    1.1960   -2.4600 N   0  0  0  0  0  0  0  0  0  0  0  0
  2  1  1  6
  2  3  1  0
  2 34  1  0
  3  4  1  0
  4  5  1  0
  5  6  1  0
  5  7  1  0
  7  8  1  0
  8  9  1  0
  9 10  1  0
 10 11  1  0
 11 12  1  0
 12 13  1  0
 13 14  2  0
 13 15  1  0
 15 16  2  0
 15 30  1  0
 16 17  1  0
 17 18  1  0
 17 28  2  0
 18 19  1  0
 19 20  2  0
 19 21  1  0
 21 22  1  0
 22 23  1  0
 23 24  1  0
 24 25  1  0
 25 26  1  0
 25 27  1  0
 28 29  1  0
 28 34  1  0
 29 30  2  0
 29 33  1  0
 30 31  1  0
 31 32  1  0
 32 33  1  0
M  END
