
     RDKit          3D

 35 36  0  0  0  0  0  0  0  0999 V2000
   11.6780   -1.2620    0.6350 C   0  0  0  0  0  0  0  0  0  0  0  0
   10.1840   -1.0360    0.5860 C   0  0  0  0  0  0  0  0  0  0  0  0
    9.6060   -2.1420   -0.0430 O   0  0  0  0  0  0  0  0  0  0  0  0
    7.8810   -1.9770   -0.1490 P   0  0  0  0  0  0  0  0  0  0  0  0
    7.3170   -3.2990   -1.1570 O   0  0  0  0  0  0  0  0  0  0  0  0
    7.4290   -0.4020   -0.9950 C   0  0  0  0  0  0  0  0  0  0  0  0
    6.0630    0.0510   -0.5970 N   0  0  0  0  0  0  0  0  0  0  0  0
    5.9600    0.9120    0.5400 C   0  0  0  0  0  0  0  0  0  0  0  0
    5.0190   -0.3990   -1.3640 C   0  0  0  0  0  0  0  0  0  0  0  0
    5.3300   -1.1680   -2.3630 O   0  0  0  0  0  0  0  0  0  0  0  0
    3.6240   -0.1370   -1.2150 C   0  0  0  0  0  0  0  0  0  0  0  0
    2.9540    0.5510   -0.3650 C   0  0  0  0  0  0  0  0  0  0  0  0
    1.5110    0.6900   -0.3980 C   0  0  0  0  0  0  0  0  0  0  0  0
    0.7630    0.0970   -1.3670 C   0  0  0  0  0  0  0  0  0  0  0  0
   -0.6320    0.2380   -1.3990 C   0  0  0  0  0  0  0  0  0  0  0  0
   -1.3170    0.9860   -0.4490 C   0  0  0  0  0  0  0  0  0  0  0  0
   -2.7390    1.1240   -0.5710 C   0  0  0  0  0  0  0  0  0  0  0  0
   -3.2240    0.6290   -1.6850 O   0  0  0  0  0  0  0  0  0  0  0  0
   -3.6760    1.6940    0.2950 N   0  0  0  0  0  0  0  0  0  0  0  0
   -3.4730    2.1200    1.6390 C   0  0  0  0  0  0  0  0  0  0  0  0
   -5.0400    1.8490   -0.1900 C   0  0  0  0  0  0  0  0  0  0  0  0
   -5.2700    2.8930   -1.0540 C   0  0  0  0  0  0  0  0  0  0  0  0
   -6.5460    3.0930   -1.5480 C   0  0  0  0  0  0  0  0  0  0  0  0
   -7.5300    2.2280   -1.1440 C   0  0  0  0  0  0  0  0  0  0  0  0
   -8.8440    2.3890   -1.6180 O   0  0  0  0  0  0  0  0  0  0  0  0
   -7.2810    1.1770   -0.2690 C   0  0  0  0  0  0  0  0  0  0  0  0
   -6.0050    0.9630    0.2340 C   0  0  0  0  0  0  0  0  0  0  0  0
   -5.7170   -0.0880    1.1410 N   0  0  0  0  0  0  0  0  0  0  0  0
   -6.6100   -1.1040    1.5700 C   0  0  0  0  0  0  0  0  0  0  0  0
   -6.9970   -2.1230    0.5540 C   0  0  2  0  0  0  0  0  0  0  0  0
   -7.8930   -3.0750    1.0960 O   0  0  0  0  0  0  0  0  0  0  0  0
   -5.8100   -2.9420    0.0760 C   0  0  0  0  0  0  0  0  0  0  0  0
   -5.2310   -3.6310    1.1360 O   0  0  0  0  0  0  0  0  0  0  0  0
   -0.5470    1.5800    0.5240 C   0  0  0  0  0  0  0  0  0  0  0  0
    0.8450    1.4470    0.5670 C   0  0  0  0  0  0  0  0  0  0  0  0
  1  2  1  0
  2  3  1  0
  3  4  1  0
  4  5  1  0
  4  6  1  0
  6  7  1  0
  7  8  1  0
  7  9  1  0
  9 10  2  0
  9 11  1  0
 11 12  2  3
 12 13  1  0
 13 14  2  0
 13 35  1  0
 14 15  1  0
 15 16  2  0
 16 17  1  0
 16 34  1  0
 17 18  2  0
 17 19  1  0
 19 20  1  0
 19 21  1  0
 21 22  2  0
 21 27  1  0
 22 23  1  0
 23 24  2  0
 24 25  1  0
 24 26  1  0
 26 27  2  0
 27 28  1  0
 28 29  1  0
 29 30  1  0
 30 31  1  1
 30 32  1  0
 32 33  1  0
 34 35  2  0
M  END
