
     RDKit          3D

 33 34  0  0  0  0  0  0  0  0999 V2000
   -4.8650   -4.1250    1.8270 C   0  0  0  0  0  0  0  0  0  0  0  0
   -3.7150   -3.4680    1.3470 O   0  0  0  0  0  0  0  0  0  0  0  0
   -3.3050   -2.2250    1.8070 C   0  0  0  0  0  0  0  0  0  0  0  0
   -4.0140   -1.6810    2.6950 O   0  0  0  0  0  0  0  0  0  0  0  0
   -2.0710   -1.5370    1.2830 C   0  0  0  0  0  0  0  0  0  0  0  0
   -2.4530   -0.4550    0.2980 C   0  0  2  0  0  0  0  0  0  0  0  0
   -3.1980   -1.0680   -0.8650 C   0  0  0  0  0  0  0  0  0  0  0  0
   -2.8290   -0.8980   -2.0540 O   0  0  0  0  0  0  0  0  0  0  0  0
   -4.3340   -1.8530   -0.6670 O   0  0  0  0  0  0  0  0  0  0  0  0
   -5.0360   -2.4320   -1.7640 C   0  0  0  0  0  0  0  0  0  0  0  0
   -1.3630    0.2850   -0.2360 N   0  0  0  0  0  0  0  0  0  0  0  0
   -0.0810    0.0380    0.3950 C   0  0  0  0  0  0  0  0  0  0  0  0
    0.9640    0.7300   -0.4340 C   0  0  2  0  0  0  0  0  0  0  0  0
    0.8160    0.3150   -1.8520 C   0  0  0  0  0  0  0  0  0  0  0  0
    1.7370   -0.7390   -2.3380 C   0  0  0  0  0  0  0  0  0  0  0  0
    2.1670   -1.7480   -1.3280 C   0  0  0  0  0  0  0  0  0  0  0  0
    2.3890   -1.2210   -0.0170 N   0  0  0  0  0  0  0  0  0  0  0  0
    3.5800   -1.6770    0.6260 C   0  0  0  0  0  0  0  0  0  0  0  0
    4.8490   -1.1690   -0.0230 C   0  0  0  0  0  0  0  0  0  0  0  0
    6.3230   -1.8350    0.9010 P   0  0  0  0  0  0  0  0  0  0  0  0
    5.9000   -2.2280    2.5360 O   0  0  0  0  0  0  0  0  0  0  0  0
    6.9640   -3.2290    0.1020 O   0  0  0  0  0  0  0  0  0  0  0  0
    2.3230    0.2010    0.0570 C   0  0  0  0  0  0  0  0  0  0  0  0
    1.0350    2.2090   -0.2760 C   0  0  0  0  0  0  0  0  0  0  0  0
   -0.2630    2.9320   -0.3860 C   0  0  2  0  0  0  0  0  0  0  0  0
   -0.2080    4.1520    0.5090 C   0  0  0  0  0  0  0  0  0  0  0  0
   -1.3940    4.8830    0.4560 O   0  0  0  0  0  0  0  0  0  0  0  0
   -1.2460    6.2630    1.5100 P   0  0  0  0  0  0  0  0  0  0  0  0
    0.3530    6.3830    2.1690 O   0  0  0  0  0  0  0  0  0  0  0  0
   -1.5140    7.6790    0.5300 O   0  0  0  0  0  0  0  0  0  0  0  0
   -1.6690    1.9830    0.0590 S   0  0  1  0  0  0  0  0  0  0  0  0
   -2.9000    2.4520   -0.6160 O   0  0  0  0  0  0  0  0  0  0  0  0
   -1.9100    2.0830    1.5610 O   0  0  0  0  0  0  0  0  0  0  0  0
  1  2  1  0
  2  3  1  0
  3  4  2  0
  3  5  1  0
  6  5  1  1
  6  7  1  0
  6 11  1  0
  7  8  2  0
  7  9  1  0
  9 10  1  0
 11 12  1  0
 31 11  1  1
 13 12  1  1
 13 14  1  0
 13 23  1  0
 13 24  1  0
 14 15  1  0
 15 16  1  0
 16 17  1  0
 17 18  1  0
 17 23  1  0
 18 19  1  0
 19 20  1  0
 20 21  1  0
 20 22  1  0
 24 25  1  0
 25 26  1  1
 25 31  1  0
 26 27  1  0
 27 28  1  0
 28 29  1  0
 28 30  1  0
 31 32  2  0
 31 33  2  0
M  END
