
     RDKit          3D

 34 35  0  0  0  0  0  0  0  0999 V2000
   -0.6000   -1.9430   -2.7540 O   0  0  0  0  0  0  0  0  0  0  0  0
   -0.5640   -1.7930   -1.2440 S   0  0  1  0  0  0  0  0  0  0  0  0
   -1.3220   -2.9740   -0.6910 O   0  0  0  0  0  0  0  0  0  0  0  0
    1.0840   -1.7800   -0.6370 C   0  0  0  0  0  0  0  0  0  0  0  0
    1.9210   -1.3720   -1.6870 O   0  0  0  0  0  0  0  0  0  0  0  0
    3.1440   -0.9220   -1.1910 C   0  0  0  0  0  0  0  0  0  0  0  0
    3.4870    0.3540   -1.9180 C   0  0  0  0  0  0  0  0  0  0  0  0
    5.0030    1.1620   -1.3300 P   0  0  0  0  0  0  0  0  0  0  0  0
    6.2900    0.1470   -0.9380 O   0  0  0  0  0  0  0  0  0  0  0  0
    6.3420   -0.3080    0.3500 C   0  0  0  0  0  0  0  0  0  0  0  0
    7.5720   -1.2020    0.4890 C   0  0  0  0  0  0  0  0  0  0  0  0
    8.8350   -0.4680    0.1840 C   0  0  0  0  0  0  0  0  0  0  0  0
    9.8930   -1.3620    0.3370 O   0  0  0  0  0  0  0  0  0  0  0  0
    4.7800    2.5190   -0.3390 O   0  0  0  0  0  0  0  0  0  0  0  0
    5.0520    2.3590    0.9150 O   0  0  0  0  0  0  0  0  0  0  0  0
    3.8700    2.1180    1.6040 C   0  0  0  0  0  0  0  0  0  0  0  0
    2.7980    3.1380    1.2830 C   0  0  0  0  0  0  0  0  0  0  0  0
    1.6260    2.4990    0.5690 C   0  0  0  0  0  0  0  0  0  0  0  0
    0.4730    2.7040    1.2820 O   0  0  0  0  0  0  0  0  0  0  0  0
   -0.8510    1.7440    0.8100 P   0  0  0  0  0  0  0  0  0  0  0  0
   -2.2460    2.7620    0.5730 O   0  0  0  0  0  0  0  0  0  0  0  0
   -0.5620    0.7860   -0.7250 C   0  0  0  0  0  0  0  0  0  0  0  0
   -1.4260   -0.3440   -0.8770 N   0  0  0  0  0  0  0  0  0  0  0  0
   -2.3410   -0.5390    0.2130 C   0  0  0  0  0  0  0  0  0  0  0  0
   -3.6730   -0.9830   -0.4100 C   0  0  2  0  0  0  0  0  0  0  0  0
   -4.1020    0.1210   -1.3210 C   0  0  0  0  0  0  0  0  0  0  0  0
   -5.3200   -0.0670   -1.9290 O   0  0  0  0  0  0  0  0  0  0  0  0
   -5.8050   -1.3500   -1.8860 C   0  0  0  0  0  0  0  0  0  0  0  0
   -6.5590   -1.5760   -0.5690 C   0  0  0  0  0  0  0  0  0  0  0  0
   -5.8800   -0.7420    0.4690 C   0  0  1  0  0  0  0  0  0  0  0  0
   -6.6060   -0.6310    1.7700 C   0  0  0  0  0  0  0  0  0  0  0  0
   -7.9670   -0.0110    1.6000 C   0  0  0  0  0  0  0  0  0  0  0  0
   -7.7860    1.2720    1.0530 O   0  0  0  0  0  0  0  0  0  0  0  0
   -4.5550   -1.2720    0.6720 N   0  0  0  0  0  0  0  0  0  0  0  0
  1  2  2  0
  2  3  2  0
  2  4  1  1
  2 23  1  0
  4  5  1  0
  5  6  1  0
  6  7  1  0
  7  8  1  0
  8  9  1  0
  8 14  1  0
  9 10  1  0
 10 11  1  0
 11 12  1  0
 12 13  1  0
 14 15  1  0
 15 16  1  0
 16 17  1  0
 17 18  1  0
 18 19  1  0
 19 20  1  0
 20 21  1  0
 20 22  1  0
 22 23  1  0
 23 24  1  0
 25 24  1  1
 25 26  1  0
 25 34  1  0
 26 27  1  0
 27 28  1  0
 28 29  1  0
 29 30  1  0
 30 31  1  1
 30 34  1  0
 31 32  1  0
 32 33  1  0
M  END
