
     RDKit          3D

 34 35  0  0  0  0  0  0  0  0999 V2000
    2.2560    0.2250    1.5780 C   0  0  0  0  0  0  0  0  0  0  0  0
    2.1770    0.8610    0.2490 C   0  0  1  0  0  0  0  0  0  0  0  0
    3.3830    0.8790   -0.6030 C   0  0  0  0  0  0  0  0  0  0  0  0
    4.0150   -0.3650   -1.0510 C   0  0  0  0  0  0  0  0  0  0  0  0
    4.5400   -1.2860    0.0140 C   0  0  0  0  0  0  0  0  0  0  0  0
    5.3450   -2.7930   -0.7700 P   0  0  0  0  0  0  0  0  0  0  0  0
    7.0110   -2.4650   -1.1280 O   0  0  0  0  0  0  0  0  0  0  0  0
    5.1950   -4.1810    0.2630 O   0  0  0  0  0  0  0  0  0  0  0  0
    0.9990    0.4180   -0.5650 C   0  0  0  0  0  0  0  0  0  0  0  0
    1.0330    0.8190   -1.7840 O   0  0  0  0  0  0  0  0  0  0  0  0
   -0.0460   -0.3260   -0.1640 O   0  0  0  0  0  0  0  0  0  0  0  0
   -0.1640   -1.5640    0.4210 C   0  0  0  0  0  0  0  0  0  0  0  0
   -1.3520   -2.3720   -0.1510 C   0  0  1  0  0  0  0  0  0  0  0  0
   -1.1070   -2.3850   -1.5440 O   0  0  0  0  0  0  0  0  0  0  0  0
   -1.2020   -3.7250    0.4230 C   0  0  0  0  0  0  0  0  0  0  0  0
   -0.0250   -4.0910    0.6790 O   0  0  0  0  0  0  0  0  0  0  0  0
   -2.1590   -4.7290    0.7550 N   0  0  0  0  0  0  0  0  0  0  0  0
   -3.5220   -4.8470    0.3570 C   0  0  0  0  0  0  0  0  0  0  0  0
   -3.8790   -3.6970   -0.5540 C   0  0  0  0  0  0  0  0  0  0  0  0
   -3.8450   -2.4460    0.2530 C   0  0  0  0  0  0  0  0  0  0  0  0
   -2.6030   -1.6620    0.1960 C   0  0  2  0  0  0  0  0  0  0  0  0
   -2.7180   -0.5610   -0.6820 O   0  0  0  0  0  0  0  0  0  0  0  0
   -3.8470    0.1850   -0.4470 C   0  0  0  0  0  0  0  0  0  0  0  0
   -3.6430    1.6700   -0.6830 C   0  0  0  0  0  0  0  0  0  0  0  0
   -2.4410    2.4190    0.4810 P   0  0  0  0  0  0  0  0  0  0  0  0
   -3.2260    3.6070    1.5080 O   0  0  0  0  0  0  0  0  0  0  0  0
   -1.2400    3.2670   -0.4350 O   0  0  0  0  0  0  0  0  0  0  0  0
   -1.3550    4.6490   -0.3030 C   0  0  0  0  0  0  0  0  0  0  0  0
   -0.2300    5.2530   -1.1380 C   0  0  0  0  0  0  0  0  0  0  0  0
    1.1080    4.7670   -0.6160 C   0  0  0  0  0  0  0  0  0  0  0  0
    1.1450    3.3330   -0.8380 N   0  0  0  0  0  0  0  0  0  0  0  0
    1.8180    2.6190    0.5700 S   0  0  1  0  0  0  0  0  0  0  0  0
    0.9280    2.7510    1.7590 O   0  0  0  0  0  0  0  0  0  0  0  0
    3.1310    3.2520    0.8900 O   0  0  0  0  0  0  0  0  0  0  0  0
  2  1  1  1
  2  3  1  0
  2  9  1  0
  2 32  1  0
  3  4  1  0
  4  5  1  0
  5  6  1  0
  6  7  1  0
  6  8  1  0
  9 10  2  0
  9 11  1  0
 11 12  1  0
 12 13  1  0
 13 14  1  6
 13 15  1  0
 13 21  1  0
 15 16  2  0
 15 17  1  0
 17 18  1  0
 18 19  1  0
 19 20  1  0
 21 20  1  6
 21 22  1  0
 22 23  1  0
 23 24  1  0
 24 25  1  0
 25 26  1  0
 25 27  1  0
 27 28  1  0
 28 29  1  0
 29 30  1  0
 30 31  1  0
 32 31  1  6
 32 33  2  0
 32 34  2  0
M  END
