
     RDKit          3D

 15 15  0  0  0  0  0  0  0  0999 V2000
   -3.5060    2.0010    0.4540 C   0  0  0  0  0  0  0  0  0  0  0  0
   -2.0650    1.9480    0.2310 C   0  0  0  0  0  0  0  0  0  0  0  0
   -1.3500    0.9230   -0.0650 C   0  0  0  0  0  0  0  0  0  0  0  0
    0.0850    1.1010   -0.2280 N   0  0  0  0  0  0  0  0  0  0  0  0
    1.1210    0.0970   -0.0670 C   0  0  0  0  0  0  0  0  0  0  0  0
    2.3490    0.5230   -0.0830 C   0  0  0  0  0  0  0  0  0  0  0  0
    3.5930   -0.2410    0.0530 C   0  0  0  0  0  0  0  0  0  0  0  0
    4.3890   -0.0370   -1.1690 N   0  0  0  0  0  0  0  0  0  0  0  0
    0.8200   -1.3400    0.1070 C   0  0  0  0  0  0  0  0  0  0  0  0
   -0.3050   -1.6070    1.0830 C   0  0  0  0  0  0  0  0  0  0  0  0
   -1.6730   -1.6510    0.4700 C   0  0  0  0  0  0  0  0  0  0  0  0
   -2.0080   -0.3580   -0.2310 C   0  0  0  0  0  0  0  0  0  0  0  0
   -2.9470   -0.4490   -1.1310 C   0  0  0  0  0  0  0  0  0  0  0  0
   -3.7780   -1.9960   -1.3430 Cl  0  0  0  0  0  0  0  0  0  0  0  0
   -3.4040    0.7970   -2.2580 Cl  0  0  0  0  0  0  0  0  0  0  0  0
  1  2  1  0
  2  3  2  3
  3  4  1  0
  3 12  1  0
  4  5  1  0
  5  6  2  3
  5  9  1  0
  6  7  1  0
  7  8  1  0
  9 10  1  0
 10 11  1  0
 11 12  1  0
 12 13  2  3
 13 14  1  0
 13 15  1  0
M  CHG  1   8   1
M  END
