
     RDKit          3D

 15 16  0  0  0  0  0  0  0  0999 V2000
   -4.1060   -0.3730    0.3630 N   0  0  0  0  0  0  0  0  0  0  0  0
   -3.3950    0.7430   -0.1820 C   0  0  0  0  0  0  0  0  0  0  0  0
   -1.9990    0.3940   -0.5820 C   0  0  0  0  0  0  0  0  0  0  0  0
   -1.5520   -0.0660   -1.8020 C   0  0  0  0  0  0  0  0  0  0  0  0
   -0.1830   -0.2610   -1.7330 C   0  0  0  0  0  0  0  0  0  0  0  0
    0.1800    0.0850   -0.4690 C   0  0  0  0  0  0  0  0  0  0  0  0
    1.5540    0.0400    0.0740 C   0  0  0  0  0  0  0  0  0  0  0  0
    1.8130    0.4130    1.3690 C   0  0  0  0  0  0  0  0  0  0  0  0
    3.0890    0.3780    1.8940 C   0  0  0  0  0  0  0  0  0  0  0  0
    4.1470   -0.0430    1.1020 C   0  0  0  0  0  0  0  0  0  0  0  0
    5.7740   -0.1040    1.7170 Cl  0  0  0  0  0  0  0  0  0  0  0  0
    3.9140   -0.4220   -0.2020 C   0  0  0  0  0  0  0  0  0  0  0  0
    5.2530   -0.9490   -1.1880 Cl  0  0  0  0  0  0  0  0  0  0  0  0
    2.6110   -0.3730   -0.6950 C   0  0  0  0  0  0  0  0  0  0  0  0
   -0.9130    0.4740    0.2070 N   0  0  0  0  0  0  0  0  0  0  0  0
  1  2  1  0
  2  3  1  0
  3  4  2  0
  3 15  1  0
  4  5  1  0
  5  6  2  0
  6  7  1  0
  6 15  1  0
  7  8  2  0
  7 14  1  0
  8  9  1  0
  9 10  2  0
 10 11  1  0
 10 12  1  0
 12 13  1  0
 12 14  2  0
M  CHG  1   1   1
M  END
