
     RDKit          3D

 15 16  0  0  0  0  0  0  0  0999 V2000
   -1.8960   -2.1010    0.5610 C   0  0  0  0  0  0  0  0  0  0  0  0
   -2.5910   -1.0870    0.1430 C   0  0  0  0  0  0  0  0  0  0  0  0
   -3.9940   -1.1900    0.0690 N   0  0  0  0  0  0  0  0  0  0  0  0
   -1.8790    0.1810   -0.2490 C   0  0  0  0  0  0  0  0  0  0  0  0
   -0.4830    0.3720   -0.1490 C   0  0  0  0  0  0  0  0  0  0  0  0
    0.7420    0.4840   -0.0490 C   0  0  0  0  0  0  0  0  0  0  0  0
    1.6930   -0.5500    0.2900 C   0  0  0  0  0  0  0  0  0  0  0  0
    2.9890   -0.3210    0.3780 C   0  0  0  0  0  0  0  0  0  0  0  0
    4.4300   -0.1810    0.5030 C   0  0  0  0  0  0  0  0  0  0  0  0
    3.5560    1.0140    0.1360 C   0  0  0  0  0  0  0  0  0  0  0  0
    2.7190    1.9840   -0.1760 C   0  0  0  0  0  0  0  0  0  0  0  0
    1.3390    1.8350   -0.2920 N   0  0  0  0  0  0  0  0  0  0  0  0
   -2.7020    1.1660   -0.6320 C   0  0  0  0  0  0  0  0  0  0  0  0
   -4.4170    0.9720   -0.6650 Cl  0  0  0  0  0  0  0  0  0  0  0  0
   -2.0710    2.7210   -1.1070 Cl  0  0  0  0  0  0  0  0  0  0  0  0
  1  2  2  0
  2  3  1  0
  2  4  1  0
  4  5  1  0
  4 13  2  3
  5  6  2  3
  6  7  1  0
  6 12  1  0
  7  8  2  0
  8  9  1  0
  8 10  1  0
  9 10  1  0
 10 11  2  0
 11 12  1  0
 13 14  1  0
 13 15  1  0
M  END
