
     RDKit          3D

 15 15  0  0  0  0  0  0  0  0999 V2000
    3.1810    2.6020    0.9760 C   0  0  0  0  0  0  0  0  0  0  0  0
    3.3800    1.1630    0.6850 C   0  0  0  0  0  0  0  0  0  0  0  0
    2.3630    0.3720    0.4500 C   0  0  0  0  0  0  0  0  0  0  0  0
    0.9720    0.8720    0.4680 C   0  0  0  0  0  0  0  0  0  0  0  0
   -0.0350    0.0570    0.2540 C   0  0  0  0  0  0  0  0  0  0  0  0
   -1.3750    0.5760    0.2750 N   0  0  0  0  0  0  0  0  0  0  0  0
   -2.5530   -0.2260    0.0680 C   0  0  0  0  0  0  0  0  0  0  0  0
   -3.7740    0.6360    0.1560 C   0  0  0  0  0  0  0  0  0  0  0  0
   -4.9310   -0.2330   -0.0620 N   0  0  0  0  0  0  0  0  0  0  0  0
    0.0590   -1.4060    0.0130 C   0  0  0  0  0  0  0  0  0  0  0  0
    1.3630   -1.9720    0.5410 C   0  0  0  0  0  0  0  0  0  0  0  0
    2.4870   -1.0500    0.1750 C   0  0  0  0  0  0  0  0  0  0  0  0
    3.5230   -1.5470   -0.4290 C   0  0  0  0  0  0  0  0  0  0  0  0
    4.9240   -0.7040   -1.0260 Cl  0  0  0  0  0  0  0  0  0  0  0  0
    3.5760   -3.3130   -0.7000 Cl  0  0  0  0  0  0  0  0  0  0  0  0
  1  2  1  0
  2  3  2  3
  3  4  1  0
  3 12  1  0
  4  5  2  0
  5  6  1  0
  5 10  1  0
  6  7  1  0
  7  8  1  0
  8  9  1  0
 10 11  1  0
 11 12  1  0
 12 13  2  3
 13 14  1  0
 13 15  1  0
M  CHG  1   9   1
M  END
