
     RDKit          3D

 15 16  0  0  0  0  0  0  0  0999 V2000
    4.7220   -0.9860    0.0590 N   0  0  0  0  0  0  0  0  0  0  0  0
    3.3250   -0.7590    0.2460 C   0  0  0  0  0  0  0  0  0  0  0  0
    2.7740    0.3680   -0.5960 C   0  0  0  0  0  0  0  0  0  0  0  0
    1.3360    0.5120   -0.3240 C   0  0  0  0  0  0  0  0  0  0  0  0
    0.8630    1.6610    0.1540 C   0  0  0  0  0  0  0  0  0  0  0  0
   -0.5340    1.8890    0.4480 C   0  0  0  0  0  0  0  0  0  0  0  0
   -1.1400    3.4130    1.0780 Cl  0  0  0  0  0  0  0  0  0  0  0  0
   -1.4150    0.9160    0.2410 C   0  0  0  0  0  0  0  0  0  0  0  0
   -2.8570    1.1140    0.5310 C   0  0  0  0  0  0  0  0  0  0  0  0
   -3.4930   -0.1880    0.9250 C   0  0  0  0  0  0  0  0  0  0  0  0
   -3.2780   -1.2010   -0.1870 C   0  0  0  0  0  0  0  0  0  0  0  0
   -1.8170   -1.3350   -0.4760 C   0  0  0  0  0  0  0  0  0  0  0  0
   -1.2470   -2.8580   -1.1020 Cl  0  0  0  0  0  0  0  0  0  0  0  0
   -0.9600   -0.3580   -0.2780 C   0  0  0  0  0  0  0  0  0  0  0  0
    0.4310   -0.5360   -0.5540 N   0  0  0  0  0  0  0  0  0  0  0  0
  1  2  1  0
  2  3  1  0
  3  4  1  0
  4  5  2  0
  4 15  1  0
  5  6  1  0
  6  7  1  0
  6  8  2  0
  8  9  1  0
  8 14  1  0
  9 10  1  0
 10 11  1  0
 11 12  1  0
 12 13  1  0
 12 14  2  0
 14 15  1  0
M  END
