
     RDKit          3D

 15 16  0  0  0  0  0  0  0  0999 V2000
   -2.6620    0.6960    0.3740 C   0  0  0  0  0  0  0  0  0  0  0  0
   -1.4270    0.0900   -0.1670 C   0  0  1  0  0  0  0  0  0  0  0  0
   -1.5970   -0.1890   -1.6260 C   0  0  0  0  0  0  0  0  0  0  0  0
   -0.1710    0.8520    0.0140 C   0  0  0  0  0  0  0  0  0  0  0  0
   -0.0180    2.1270    0.2020 C   0  0  0  0  0  0  0  0  0  0  0  0
   -1.4880    3.1340    0.2570 Cl  0  0  0  0  0  0  0  0  0  0  0  0
    1.1930    2.9050    0.3830 C   0  0  0  0  0  0  0  0  0  0  0  0
    1.2450    4.1120   -0.9560 Cl  0  0  0  0  0  0  0  0  0  0  0  0
    0.8560   -0.1350   -0.0690 N   0  0  0  0  0  0  0  0  0  0  0  0
    2.2610    0.0820   -0.4250 C   0  0  2  0  0  0  0  0  0  0  0  0
    3.1150   -1.1910   -0.4600 C   0  0  0  0  0  0  0  0  0  0  0  0
    3.2640   -0.2250    0.6280 C   0  0  0  0  0  0  0  0  0  0  0  0
    0.2790   -1.4490    0.2670 C   0  0  0  0  0  0  0  0  0  0  0  0
   -1.1210   -1.1440    0.6460 C   0  0  2  0  0  0  0  0  0  0  0  0
   -2.0560   -2.1930    0.5090 N   0  0  0  0  0  0  0  0  0  0  0  0
  2  1  1  1
  2  3  1  0
  2  4  1  0
  2 14  1  0
  4  5  2  3
  4  9  1  0
  5  6  1  0
  5  7  1  0
  7  8  1  0
 10  9  1  1
  9 13  1  0
 10 11  1  0
 10 12  1  0
 11 12  1  0
 13 14  1  0
 14 15  1  6
M  CHG  1  15   1
M  END
