
     RDKit          3D

 15 16  0  0  0  0  0  0  0  0999 V2000
   -0.7070    2.7940   -0.0740 C   0  0  0  0  0  0  0  0  0  0  0  0
    0.2410    1.6620   -0.0130 C   0  0  0  0  0  0  0  0  0  0  0  0
    1.5230    1.7020    0.3510 N   0  0  0  0  0  0  0  0  0  0  0  0
    2.0510    0.4470    0.2610 C   0  0  0  0  0  0  0  0  0  0  0  0
    3.3160   -0.0550    0.5200 C   0  0  0  0  0  0  0  0  0  0  0  0
    3.6160   -1.3890    0.3520 C   0  0  0  0  0  0  0  0  0  0  0  0
    5.2260   -2.0280    0.6880 Cl  0  0  0  0  0  0  0  0  0  0  0  0
    2.6390   -2.2550   -0.0850 C   0  0  0  0  0  0  0  0  0  0  0  0
    1.3760   -1.7500   -0.3420 C   0  0  0  0  0  0  0  0  0  0  0  0
    0.1690   -2.8590   -0.8870 Cl  0  0  0  0  0  0  0  0  0  0  0  0
    1.0670   -0.4180   -0.1770 C   0  0  0  0  0  0  0  0  0  0  0  0
   -0.0860    0.3560   -0.3510 C   0  0  0  0  0  0  0  0  0  0  0  0
   -1.3880   -0.1680   -0.7910 C   0  0  0  0  0  0  0  0  0  0  0  0
   -2.3090   -0.3810    0.3940 C   0  0  0  0  0  0  0  0  0  0  0  0
   -3.5970   -0.8990    0.0060 N   0  0  0  0  0  0  0  0  0  0  0  0
  1  2  1  0
  2  3  1  0
  2 12  2  0
  3  4  1  0
  4  5  2  0
  4 11  1  0
  5  6  1  0
  6  7  1  0
  6  8  2  0
  8  9  1  0
  9 10  1  0
  9 11  2  0
 11 12  1  0
 12 13  1  0
 13 14  1  0
 14 15  1  0
M  CHG  1  15   1
M  END
