
     RDKit          3D

 15 15  0  0  0  0  0  0  0  0999 V2000
    2.0270   -1.9020   -1.4690 C   0  0  0  0  0  0  0  0  0  0  0  0
    2.5830   -1.1300   -0.3500 C   0  0  0  0  0  0  0  0  0  0  0  0
    2.1830    0.1190   -0.0500 C   0  0  0  0  0  0  0  0  0  0  0  0
    1.1520    0.6800   -0.9070 C   0  0  0  0  0  0  0  0  0  0  0  0
   -0.0720    0.9690   -0.2240 N   0  0  0  0  0  0  0  0  0  0  0  0
   -1.1090    1.4880   -1.0610 C   0  0  0  0  0  0  0  0  0  0  0  0
   -2.4390    1.3220   -0.3330 C   0  0  0  0  0  0  0  0  0  0  0  0
   -2.7520   -0.1500   -0.3410 C   0  0  0  0  0  0  0  0  0  0  0  0
   -1.6110   -0.8840    0.2990 C   0  0  2  0  0  0  0  0  0  0  0  0
   -2.1520   -1.5610    1.4860 N   0  0  0  0  0  0  0  0  0  0  0  0
   -0.4810   -0.0040    0.7280 C   0  0  0  0  0  0  0  0  0  0  0  0
    2.7950    0.7760    1.0620 C   0  0  0  0  0  0  0  0  0  0  0  0
    4.0390   -0.1120    2.0130 Cl  0  0  0  0  0  0  0  0  0  0  0  0
    2.5250    1.9820    1.4530 C   0  0  0  0  0  0  0  0  0  0  0  0
    1.3880    3.0690    0.7410 Cl  0  0  0  0  0  0  0  0  0  0  0  0
  1  2  1  0
  2  3  2  3
  3  4  1  0
  3 12  1  0
  4  5  1  0
  5  6  1  0
  5 11  1  0
  6  7  1  0
  7  8  1  0
  8  9  1  0
  9 10  1  1
  9 11  1  0
 12 13  1  0
 12 14  2  3
 14 15  1  0
M  CHG  1  10   1
M  END
