
     RDKit          3D

 15 16  0  0  0  0  0  0  0  0999 V2000
    4.5160   -0.2520   -0.2910 N   0  0  0  0  0  0  0  0  0  0  0  0
    3.1030   -0.1860   -0.1920 C   0  0  0  0  0  0  0  0  0  0  0  0
    2.3590   -1.2080    0.3650 C   0  0  0  0  0  0  0  0  0  0  0  0
    0.9900   -1.1020    0.4420 C   0  0  0  0  0  0  0  0  0  0  0  0
    0.2800    0.0100   -0.0240 C   0  0  0  0  0  0  0  0  0  0  0  0
   -1.1760    0.0640    0.0910 C   0  0  0  0  0  0  0  0  0  0  0  0
   -1.7890    1.1940    0.5820 C   0  0  0  0  0  0  0  0  0  0  0  0
   -3.1830    1.2490    0.6890 C   0  0  0  0  0  0  0  0  0  0  0  0
   -3.9550    0.2140    0.3200 N   0  0  0  0  0  0  0  0  0  0  0  0
   -3.3690   -0.9010   -0.1630 C   0  0  0  0  0  0  0  0  0  0  0  0
   -4.3900   -2.2330   -0.6350 Cl  0  0  0  0  0  0  0  0  0  0  0  0
   -1.9920   -0.9840   -0.2800 C   0  0  0  0  0  0  0  0  0  0  0  0
    1.0330    1.0210   -0.5770 C   0  0  0  0  0  0  0  0  0  0  0  0
    0.1720    2.4430   -1.1850 Cl  0  0  0  0  0  0  0  0  0  0  0  0
    2.4040    0.9240   -0.6580 C   0  0  0  0  0  0  0  0  0  0  0  0
  1  2  1  0
  2  3  2  0
  2 15  1  0
  3  4  1  0
  4  5  2  0
  5  6  1  0
  5 13  1  0
  6  7  2  0
  6 12  1  0
  7  8  1  0
  8  9  2  0
  9 10  1  0
 10 11  1  0
 10 12  2  0
 13 14  1  0
 13 15  2  0
M  CHG  1   9   1
M  END
