
     RDKit          3D

 15 15  0  0  0  0  0  0  0  0999 V2000
   -2.8250    2.7110    0.6950 C   0  0  0  0  0  0  0  0  0  0  0  0
   -1.7000    1.8820    0.2750 C   0  0  0  0  0  0  0  0  0  0  0  0
   -1.7140    0.6060   -0.0520 C   0  0  0  0  0  0  0  0  0  0  0  0
   -0.4850   -0.0450   -0.4520 N   0  0  0  0  0  0  0  0  0  0  0  0
    0.6300    0.7300   -0.8910 C   0  0  0  0  0  0  0  0  0  0  0  0
    1.8100    0.8510   -0.0170 C   0  0  0  0  0  0  0  0  0  0  0  0
    2.5680   -0.3400    0.3860 C   0  0  1  0  0  0  0  0  0  0  0  0
    3.1660   -1.1640   -0.7250 C   0  0  0  0  0  0  0  0  0  0  0  0
    3.7680    0.1780    1.1100 N   0  0  0  0  0  0  0  0  0  0  0  0
   -0.3680   -1.4910   -0.4130 C   0  0  0  0  0  0  0  0  0  0  0  0
   -1.7380   -2.1390   -0.5690 C   0  0  0  0  0  0  0  0  0  0  0  0
   -2.6970   -1.5730    0.4300 C   0  0  0  0  0  0  0  0  0  0  0  0
   -2.9930   -0.1360   -0.0040 C   0  0  2  0  0  0  0  0  0  0  0  0
   -3.7160   -0.1630   -1.6240 Cl  0  0  0  0  0  0  0  0  0  0  0  0
   -4.1420    0.4890    1.1930 Cl  0  0  0  0  0  0  0  0  0  0  0  0
  1  2  1  0
  2  3  2  3
  3  4  1  0
  3 13  1  0
  4  5  1  0
  4 10  1  0
  5  6  1  0
  6  7  1  0
  7  8  1  6
  7  9  1  0
 10 11  1  0
 11 12  1  0
 12 13  1  0
 13 14  1  6
 13 15  1  0
M  CHG  1   9   1
M  END
