
     RDKit          3D

 15 16  0  0  0  0  0  0  0  0999 V2000
   -3.0120    0.9540   -0.6600 N   0  0  0  0  0  0  0  0  0  0  0  0
   -2.0950   -0.1790   -0.6300 C   0  0  2  0  0  0  0  0  0  0  0  0
   -2.8910   -1.3670   -0.2610 C   0  0  0  0  0  0  0  0  0  0  0  0
   -2.3860   -1.8540    0.8530 C   0  0  0  0  0  0  0  0  0  0  0  0
   -1.2560   -1.0410    1.2760 C   0  0  0  0  0  0  0  0  0  0  0  0
   -1.0850   -0.0620    0.4120 C   0  0  0  0  0  0  0  0  0  0  0  0
   -0.0390    0.9050    0.5720 N   0  0  0  0  0  0  0  0  0  0  0  0
    1.2920    0.6240    0.1510 C   0  0  0  0  0  0  0  0  0  0  0  0
    2.2760    1.5580    0.3130 C   0  0  0  0  0  0  0  0  0  0  0  0
    3.5700    1.2960   -0.0920 C   0  0  0  0  0  0  0  0  0  0  0  0
    4.8220    2.5190    0.1270 Cl  0  0  0  0  0  0  0  0  0  0  0  0
    3.9170    0.1010   -0.6650 C   0  0  0  0  0  0  0  0  0  0  0  0
    2.9280   -0.8460   -0.8300 C   0  0  0  0  0  0  0  0  0  0  0  0
    3.2800   -2.3910   -1.5490 Cl  0  0  0  0  0  0  0  0  0  0  0  0
    1.6350   -0.5790   -0.4240 C   0  0  0  0  0  0  0  0  0  0  0  0
  2  1  1  1
  2  3  1  0
  2  6  1  0
  3  4  2  0
  4  5  1  0
  5  6  2  0
  6  7  1  0
  7  8  1  0
  8  9  2  0
  8 15  1  0
  9 10  1  0
 10 11  1  0
 10 12  2  0
 12 13  1  0
 13 14  1  0
 13 15  2  0
M  CHG  1   1   1
M  END
