
     RDKit          3D

 25 28  0  0  0  0  0  0  0  0999 V2000
    3.7310   -2.0690   -2.9550 N   0  0  0  0  0  0  0  0  0  0  0  0
    3.5780   -1.9730   -1.6850 C   0  0  0  0  0  0  0  0  0  0  0  0
    4.1780   -0.9280   -0.8980 N   0  0  0  0  0  0  0  0  0  0  0  0
    5.5950   -0.8530   -0.9230 C   0  0  0  0  0  0  0  0  0  0  0  0
    6.2680   -1.9350   -1.0540 O   0  0  0  0  0  0  0  0  0  0  0  0
    6.3170    0.4400   -0.8030 C   0  0  0  0  0  0  0  0  0  0  0  0
    5.6420    1.2380    0.7080 S   0  0  0  0  0  0  0  0  0  0  0  0
    3.8770    0.9850    0.6240 C   0  0  0  0  0  0  0  0  0  0  0  0
    3.0460    1.7990    1.3180 C   0  0  0  0  0  0  0  0  0  0  0  0
    1.6850    1.6080    1.2520 C   0  0  0  0  0  0  0  0  0  0  0  0
    1.1060    0.6210    0.5110 C   0  0  0  0  0  0  0  0  0  0  0  0
   -0.2890    0.3560    0.4070 N   0  0  0  0  0  0  0  0  0  0  0  0
   -1.3030    0.9180    1.1940 C   0  0  0  0  0  0  0  0  0  0  0  0
   -0.9820    1.7480    2.1020 O   0  0  0  0  0  0  0  0  0  0  0  0
   -2.7350    0.5890    1.0140 C   0  0  0  0  0  0  0  0  0  0  0  0
   -3.6640    1.2040    1.8580 C   0  0  0  0  0  0  0  0  0  0  0  0
   -5.0180    0.9320    1.7330 C   0  0  0  0  0  0  0  0  0  0  0  0
   -5.4150    0.0430    0.7580 C   0  0  0  0  0  0  0  0  0  0  0  0
   -6.6380   -0.4030    0.4140 N   0  0  0  0  0  0  0  0  0  0  0  0
   -6.5330   -1.2830   -0.6220 C   0  0  0  0  0  0  0  0  0  0  0  0
   -5.2030   -1.4120   -0.9590 C   0  0  0  0  0  0  0  0  0  0  0  0
   -4.5250   -0.5750   -0.0840 C   0  0  0  0  0  0  0  0  0  0  0  0
   -3.1760   -0.2740    0.0760 C   0  0  0  0  0  0  0  0  0  0  0  0
    2.0050   -0.1990   -0.1920 C   0  0  0  0  0  0  0  0  0  0  0  0
    3.3660   -0.0320   -0.1460 C   0  0  0  0  0  0  0  0  0  0  0  0
  1  2  2  0
  2  3  1  0
  3  4  1  0
  3 25  1  0
  4  5  2  0
  4  6  1  0
  6  7  1  0
  7  8  1  0
  8  9  2  0
  8 25  1  0
  9 10  1  0
 10 11  2  0
 11 12  1  0
 11 24  1  0
 12 13  1  0
 13 14  2  0
 13 15  1  0
 15 16  2  0
 15 23  1  0
 16 17  1  0
 17 18  2  0
 18 19  1  0
 18 22  1  0
 19 20  1  0
 20 21  2  0
 21 22  1  0
 22 23  2  0
 24 25  2  0
M  END
