
     RDKit          3D

 25 28  0  0  0  0  0  0  0  0999 V2000
   -1.2590   -0.7030   -1.7740 O   0  0  0  0  0  0  0  0  0  0  0  0
   -2.0970   -0.2800   -0.9300 C   0  0  0  0  0  0  0  0  0  0  0  0
   -3.3030    0.1520   -1.3420 N   0  0  0  0  0  0  0  0  0  0  0  0
   -4.2110    0.6080   -0.4560 C   0  0  0  0  0  0  0  0  0  0  0  0
   -5.4580    1.0580   -0.8480 C   0  0  0  0  0  0  0  0  0  0  0  0
   -6.3340    1.5030    0.0530 N   0  0  0  0  0  0  0  0  0  0  0  0
   -6.1060    1.5570    1.3780 C   0  0  0  0  0  0  0  0  0  0  0  0
   -4.8500    1.1060    1.7910 C   0  0  0  0  0  0  0  0  0  0  0  0
   -3.9200    0.6390    0.8890 C   0  0  0  0  0  0  0  0  0  0  0  0
   -2.6630    0.1870    1.3000 C   0  0  0  0  0  0  0  0  0  0  0  0
   -1.7300   -0.2780    0.4200 C   0  0  0  0  0  0  0  0  0  0  0  0
   -0.3980   -0.7640    0.7900 C   0  0  0  0  0  0  0  0  0  0  0  0
    0.0410   -0.7950    2.0930 C   0  0  0  0  0  0  0  0  0  0  0  0
    1.2820   -1.2490    2.4360 C   0  0  0  0  0  0  0  0  0  0  0  0
    2.1220   -1.6880    1.4480 C   0  0  0  0  0  0  0  0  0  0  0  0
    1.6970   -1.6630    0.1430 C   0  0  0  0  0  0  0  0  0  0  0  0
    2.5480   -2.1120   -0.8950 O   0  0  0  0  0  0  0  0  0  0  0  0
    3.7880   -2.5680   -0.5760 N   0  0  0  0  0  0  0  0  0  0  0  0
    4.8470   -1.8440   -0.6070 C   0  0  0  0  0  0  0  0  0  0  0  0
    4.7160   -0.4470   -1.0090 C   0  0  0  0  0  0  0  0  0  0  0  0
    5.6260    0.5300   -1.1320 C   0  0  0  0  0  0  0  0  0  0  0  0
    5.2510    1.7540   -1.5250 C   0  0  0  0  0  0  0  0  0  0  0  0
    3.9150    1.9530   -1.7890 C   0  0  0  0  0  0  0  0  0  0  0  0
    3.2270    0.3280   -1.4540 S   0  0  0  0  0  0  0  0  0  0  0  0
    0.4670   -1.2070   -0.1330 N   0  0  0  0  0  0  0  0  0  0  0  0
  1  2  2  0
  2  3  1  0
  2 11  1  0
  3  4  1  0
  4  5  2  0
  4  9  1  0
  5  6  1  0
  6  7  2  0
  7  8  1  0
  8  9  2  0
  9 10  1  0
 10 11  2  0
 11 12  1  0
 12 13  2  0
 12 25  1  0
 13 14  1  0
 14 15  2  0
 15 16  1  0
 16 17  1  0
 16 25  2  0
 17 18  1  0
 18 19  2  3
 19 20  1  0
 20 21  2  0
 20 24  1  0
 21 22  1  0
 22 23  2  0
 23 24  1  0
M  END
