
     RDKit          3D

 25 28  0  0  0  0  0  0  0  0999 V2000
    6.2200   -0.4520   -0.9110 C   0  0  0  0  0  0  0  0  0  0  0  0
    4.6710    0.4210   -1.0350 S   0  0  1  0  0  0  0  0  0  0  0  0
    4.7640    1.7920   -1.4140 O   0  0  0  0  0  0  0  0  0  0  0  0
    3.9310   -0.3430   -2.2590 O   0  0  0  0  0  0  0  0  0  0  0  0
    3.6340    0.0410    0.3270 C   0  0  0  0  0  0  0  0  0  0  0  0
    2.4370    0.8600    0.5000 C   0  0  0  0  0  0  0  0  0  0  0  0
    2.5310    2.1840    0.9180 C   0  0  0  0  0  0  0  0  0  0  0  0
    1.4780    2.8730    1.3810 N   0  0  0  0  0  0  0  0  0  0  0  0
    0.2170    2.3330    1.4800 C   0  0  0  0  0  0  0  0  0  0  0  0
   -0.9580    2.8090    1.8600 N   0  0  0  0  0  0  0  0  0  0  0  0
   -1.9120    1.8530    1.7030 N   0  0  0  0  0  0  0  0  0  0  0  0
   -1.3030    0.7610    1.2280 C   0  0  0  0  0  0  0  0  0  0  0  0
   -1.9440   -0.4870    0.7570 C   0  0  0  0  0  0  0  0  0  0  0  0
   -1.4620   -1.7250    0.9920 C   0  0  0  0  0  0  0  0  0  0  0  0
   -2.0650   -2.8670    0.4500 C   0  0  0  0  0  0  0  0  0  0  0  0
   -3.1740   -2.7120   -0.3390 C   0  0  0  0  0  0  0  0  0  0  0  0
   -3.6470   -1.4270   -0.5700 C   0  0  0  0  0  0  0  0  0  0  0  0
   -4.7940   -1.2560   -1.3190 C   0  0  0  0  0  0  0  0  0  0  0  0
   -5.3720   -0.0440   -1.5650 C   0  0  0  0  0  0  0  0  0  0  0  0
   -4.7850    1.1220   -1.0400 C   0  0  0  0  0  0  0  0  0  0  0  0
   -3.6430    0.9440   -0.2910 C   0  0  0  0  0  0  0  0  0  0  0  0
   -3.0940   -0.2740   -0.0610 C   0  0  0  0  0  0  0  0  0  0  0  0
    0.0530    1.0220    1.0770 C   0  0  0  0  0  0  0  0  0  0  0  0
    1.1330    0.3090    0.6050 C   0  0  0  0  0  0  0  0  0  0  0  0
    1.0590   -0.9940    0.0700 N   0  0  0  0  0  0  0  0  0  0  0  0
  2  1  1  1
  2  3  2  0
  2  4  2  0
  2  5  1  0
  5  6  1  0
  6  7  2  0
  6 24  1  0
  7  8  1  0
  8  9  2  0
  9 10  1  0
  9 23  1  0
 10 11  1  0
 11 12  2  0
 12 13  1  0
 12 23  1  0
 13 14  2  0
 13 22  1  0
 14 15  1  0
 15 16  2  0
 16 17  1  0
 17 18  2  0
 17 22  1  0
 18 19  1  0
 19 20  2  0
 20 21  1  0
 21 22  2  0
 23 24  2  0
 24 25  1  0
M  END
