
     RDKit          3D

  9 10  0  0  0  0  0  0  0  0999 V2000
   -2.0170    0.6740    0.1240 C   0  0  0  0  0  0  0  0  0  0  0  0
   -1.9100   -0.6960    0.0030 C   0  0  0  0  0  0  0  0  0  0  0  0
   -0.6580   -1.2680   -0.0870 C   0  0  0  0  0  0  0  0  0  0  0  0
    0.5110   -0.5010   -0.0600 C   0  0  0  0  0  0  0  0  0  0  0  0
    1.8190   -0.8050   -0.1290 N   0  0  0  0  0  0  0  0  0  0  0  0
    2.5210    0.3380   -0.0530 C   0  0  0  0  0  0  0  0  0  0  0  0
    1.6390    1.3480    0.0620 N   0  0  0  0  0  0  0  0  0  0  0  0
    0.3810    0.8610    0.0610 C   0  0  0  0  0  0  0  0  0  0  0  0
   -0.8780    1.4230    0.1510 C   0  0  0  0  0  0  0  0  0  0  0  0
  1  2  2  0
  1  9  1  0
  2  3  1  0
  3  4  2  0
  4  5  1  0
  4  8  1  0
  5  6  1  0
  6  7  2  0
  7  8  1  0
  8  9  2  0
M  END
