
     RDKit          3D

 14 14  0  0  0  0  0  0  0  0999 V2000
    3.2260   -0.8330    0.9070 C   0  0  0  0  0  0  0  0  0  0  0  0
    2.7320    0.5790    0.6520 C   0  0  0  0  0  0  0  0  0  0  0  0
    1.8020    0.6400   -0.4410 N   0  0  0  0  0  0  0  0  0  0  0  0
    0.5550   -0.0280   -0.5090 C   0  0  0  0  0  0  0  0  0  0  0  0
   -0.6160    0.6490   -0.0970 C   0  0  0  0  0  0  0  0  0  0  0  0
   -0.4560    2.0540    0.3690 C   0  0  0  0  0  0  0  0  0  0  0  0
   -1.6580    2.5960    0.7290 O   0  0  0  0  0  0  0  0  0  0  0  0
   -1.8030   -0.0270   -0.1650 C   0  0  0  0  0  0  0  0  0  0  0  0
   -2.9920    0.5080    0.2000 O   0  0  0  0  0  0  0  0  0  0  0  0
   -1.7980   -1.3590   -0.6420 C   0  0  0  0  0  0  0  0  0  0  0  0
   -3.1110   -2.0920   -0.7120 C   0  0  0  0  0  0  0  0  0  0  0  0
   -0.7000   -1.9340   -1.0080 O   0  0  0  0  0  0  0  0  0  0  0  0
    0.4500   -1.3160   -0.9540 C   0  0  0  0  0  0  0  0  0  0  0  0
    1.4970   -1.9390   -1.3300 O   0  0  0  0  0  0  0  0  0  0  0  0
  1  2  1  0
  2  3  1  0
  3  4  1  0
  4  5  2  0
  4 13  1  0
  5  6  1  0
  5  8  1  0
  6  7  1  0
  8  9  1  0
  8 10  2  0
 10 11  1  0
 10 12  1  0
 12 13  1  0
 13 14  2  0
M  END
