
     RDKit          3D

 25 28  0  0  0  0  0  0  0  0999 V2000
   -4.0490    5.7670    0.7410 O   0  0  0  0  0  0  0  0  0  0  0  0
   -3.6650    4.8550   -0.0540 C   0  0  0  0  0  0  0  0  0  0  0  0
   -4.2580    3.5940   -0.1280 N   0  0  0  0  0  0  0  0  0  0  0  0
   -3.6300    2.4810   -0.1730 C   0  0  0  0  0  0  0  0  0  0  0  0
   -2.3760    2.0760   -0.1700 N   0  0  0  0  0  0  0  0  0  0  0  0
   -2.0990    0.7890   -0.2240 C   0  0  0  0  0  0  0  0  0  0  0  0
   -0.8010    0.2300   -0.2290 C   0  0  0  0  0  0  0  0  0  0  0  0
    0.4060    1.0450   -0.1810 C   0  0  0  0  0  0  0  0  0  0  0  0
    0.4850    2.1470   -0.7880 O   0  0  0  0  0  0  0  0  0  0  0  0
    1.5090    0.5690    0.5720 N   0  0  0  0  0  0  0  0  0  0  0  0
    2.7120    1.2510    0.6910 N   0  0  0  0  0  0  0  0  0  0  0  0
    3.9960    0.6620    0.5300 C   0  0  0  0  0  0  0  0  0  0  0  0
    4.9010    0.8490   -0.4120 C   0  0  0  0  0  0  0  0  0  0  0  0
    6.0950    0.0190   -0.1760 C   0  0  0  0  0  0  0  0  0  0  0  0
    5.7510   -0.7010    1.0780 C   0  0  0  0  0  0  0  0  0  0  0  0
    4.5430   -0.3220    1.4710 C   0  0  0  0  0  0  0  0  0  0  0  0
   -0.6470   -1.1400   -0.2880 C   0  0  0  0  0  0  0  0  0  0  0  0
   -1.7000   -2.0270   -0.3460 C   0  0  0  0  0  0  0  0  0  0  0  0
   -1.5180   -3.3950   -0.4060 C   0  0  0  0  0  0  0  0  0  0  0  0
   -2.6250   -4.2410   -0.4640 C   0  0  0  0  0  0  0  0  0  0  0  0
   -3.9030   -3.6840   -0.4590 C   0  0  0  0  0  0  0  0  0  0  0  0
   -4.0430   -2.2950   -0.3970 C   0  0  0  0  0  0  0  0  0  0  0  0
   -2.9480   -1.4740   -0.3410 C   0  0  0  0  0  0  0  0  0  0  0  0
   -3.1070   -0.0930   -0.2800 C   0  0  0  0  0  0  0  0  0  0  0  0
   -4.5390    0.8690   -0.2600 S   0  0  0  0  0  0  0  0  0  0  0  0
  1  2  2  0
  2  3  1  0
  3  4  2  3
  4  5  1  0
  4 25  1  0
  5  6  1  0
  6  7  2  0
  6 24  1  0
  7  8  1  0
  7 17  1  0
  8  9  2  0
  8 10  1  0
 10 11  1  0
 11 12  1  0
 12 13  2  0
 12 16  1  0
 13 14  1  0
 14 15  1  0
 15 16  2  0
 17 18  2  0
 18 19  1  0
 18 23  1  0
 19 20  2  0
 20 21  1  0
 21 22  2  0
 22 23  1  0
 23 24  2  0
 24 25  1  0
M  END
