
     RDKit          3D

 28 30  0  0  0  0  0  0  0  0999 V2000
   -3.3130    0.1790   -2.3350 C   0  0  0  0  0  0  0  0  0  0  0  0
   -3.8130    0.3840   -1.1480 C   0  0  0  0  0  0  0  0  0  0  0  0
   -4.2740   -0.6220   -0.2830 N   0  0  0  0  0  0  0  0  0  0  0  0
   -4.8990   -1.8020   -0.8400 C   0  0  0  0  0  0  0  0  0  0  0  0
   -6.0690   -1.9930   -0.0070 O   0  0  0  0  0  0  0  0  0  0  0  0
   -6.5320   -0.9450    0.8010 C   0  0  0  0  0  0  0  0  0  0  0  0
   -7.7540   -0.6530    0.8860 O   0  0  0  0  0  0  0  0  0  0  0  0
   -5.5830   -0.1120    1.6090 C   0  0  0  0  0  0  0  0  0  0  0  0
   -4.1860   -0.5060    1.1240 C   0  0  2  0  0  0  0  0  0  0  0  0
   -3.1140    0.3170    1.6770 C   0  0  0  0  0  0  0  0  0  0  0  0
   -3.4860    1.1610    2.5600 O   0  0  0  0  0  0  0  0  0  0  0  0
   -1.7590    0.2830    1.3570 N   0  0  0  0  0  0  0  0  0  0  0  0
   -1.1890   -0.6580    0.4620 C   0  0  0  0  0  0  0  0  0  0  0  0
   -0.1890   -0.0220   -0.4860 C   0  0  0  0  0  0  0  0  0  0  0  0
    0.7270    0.8190    0.2730 N   0  0  0  0  0  0  0  0  0  0  0  0
    1.9440    1.4690   -0.7180 S   0  0  2  0  0  0  0  0  0  0  0  0
    2.8820    2.2680    0.1780 O   0  0  0  0  0  0  0  0  0  0  0  0
    1.4240    2.4180   -1.7390 O   0  0  0  0  0  0  0  0  0  0  0  0
    2.9430    0.1900   -1.4520 C   0  0  0  0  0  0  0  0  0  0  0  0
    3.5990   -0.6240   -0.3750 C   0  0  0  0  0  0  0  0  0  0  0  0
    4.8990   -0.7210   -0.2720 C   0  0  0  0  0  0  0  0  0  0  0  0
    5.8240   -1.6420    0.9410 S   0  0  0  0  0  0  0  0  0  0  0  0
    7.5080   -1.0950    0.4260 C   0  0  0  0  0  0  0  0  0  0  0  0
    7.1420    0.1850   -0.2970 C   0  0  0  0  0  0  0  0  0  0  0  0
    5.9160   -0.0920   -1.1360 C   0  0  1  0  0  0  0  0  0  0  0  0
    6.4230   -1.2190   -2.4290 Cl  0  0  0  0  0  0  0  0  0  0  0  0
   -0.0560    1.9050    0.8260 C   0  0  0  0  0  0  0  0  0  0  0  0
   -0.8770    1.2980    1.9610 C   0  0  0  0  0  0  0  0  0  0  0  0
  1  2  2  0
  2  3  1  0
  3  4  1  0
  3  9  1  0
  4  5  1  0
  5  6  1  0
  6  7  2  0
  6  8  1  0
  8  9  1  0
  9 10  1  6
 10 11  2  0
 10 12  1  0
 12 13  1  0
 12 28  1  0
 13 14  1  0
 14 15  1  0
 15 16  1  0
 15 27  1  0
 16 17  2  0
 16 18  2  0
 16 19  1  6
 19 20  1  0
 20 21  2  3
 21 22  1  0
 21 25  1  0
 22 23  1  0
 23 24  1  0
 24 25  1  0
 25 26  1  6
 27 28  1  0
M  END
