
     RDKit          3D

 19 19  0  0  0  0  0  0  0  0999 V2000
   -3.8850   -2.1750    0.3220 C   0  0  0  0  0  0  0  0  0  0  0  0
   -2.6260   -1.4710    0.7930 C   0  0  0  0  0  0  0  0  0  0  0  0
   -2.5560   -0.0530    0.2140 C   0  0  1  0  0  0  0  0  0  0  0  0
   -3.8100    0.6350    0.7150 C   0  0  0  0  0  0  0  0  0  0  0  0
   -3.9710    2.0440    0.2770 C   0  0  0  0  0  0  0  0  0  0  0  0
   -1.4120    0.6420    0.9100 C   0  0  0  0  0  0  0  0  0  0  0  0
   -0.1050   -0.0070    0.7190 C   0  0  0  0  0  0  0  0  0  0  0  0
    0.1380   -1.1750    1.1340 O   0  0  0  0  0  0  0  0  0  0  0  0
    0.9370    0.7170    0.0330 C   0  0  0  0  0  0  0  0  0  0  0  0
    2.1250    0.1550   -0.1530 C   0  0  0  0  0  0  0  0  0  0  0  0
    2.5230   -1.1910    0.2810 C   0  0  0  0  0  0  0  0  0  0  0  0
    3.9580   -1.3400   -0.1390 C   0  0  0  0  0  0  0  0  0  0  0  0
    4.4070    0.0820   -0.3490 C   0  0  2  0  0  0  0  0  0  0  0  0
    5.4300    0.2360   -1.4410 C   0  0  0  0  0  0  0  0  0  0  0  0
    4.8460    0.6500    0.9700 C   0  0  0  0  0  0  0  0  0  0  0  0
    3.2140    0.7490   -0.7990 O   0  0  0  0  0  0  0  0  0  0  0  0
   -2.4180   -0.0880   -1.2430 C   0  0  0  0  0  0  0  0  0  0  0  0
   -2.3140    1.0920   -2.1150 C   0  0  0  0  0  0  0  0  0  0  0  0
   -2.3830   -1.1930   -1.8070 O   0  0  0  0  0  0  0  0  0  0  0  0
  1  2  1  0
  3  2  1  1
  3  4  1  0
  3  6  1  0
  3 17  1  0
  4  5  1  0
  6  7  1  0
  7  8  2  0
  7  9  1  0
  9 10  2  3
 10 11  1  0
 10 16  1  0
 11 12  1  0
 12 13  1  0
 13 14  1  6
 13 15  1  0
 13 16  1  0
 17 18  1  0
 17 19  2  0
M  END
