
     RDKit          3D

 15 16  0  0  0  0  0  0  0  0999 V2000
    4.7880    0.2830   -0.7030 O   0  0  0  0  0  0  0  0  0  0  0  0
    3.5650    0.5990   -0.8360 C   0  0  0  0  0  0  0  0  0  0  0  0
    3.2560    1.6220   -1.7200 O   0  0  0  0  0  0  0  0  0  0  0  0
    2.5370   -0.1080   -0.0710 C   0  0  0  0  0  0  0  0  0  0  0  0
    2.9150   -1.1160    0.7910 C   0  0  0  0  0  0  0  0  0  0  0  0
    1.9700   -1.7760    1.5030 N   0  0  0  0  0  0  0  0  0  0  0  0
    0.6760   -1.4370    1.3570 C   0  0  0  0  0  0  0  0  0  0  0  0
    0.2790   -0.4250    0.4930 C   0  0  0  0  0  0  0  0  0  0  0  0
   -1.1400   -0.1190    0.3920 C   0  0  0  0  0  0  0  0  0  0  0  0
   -1.5960    1.1440    0.1190 C   0  0  0  0  0  0  0  0  0  0  0  0
   -2.9370    1.4400    0.0210 C   0  0  0  0  0  0  0  0  0  0  0  0
   -3.8490    0.4310    0.2040 C   0  0  0  0  0  0  0  0  0  0  0  0
   -3.4080   -0.8380    0.4780 C   0  0  0  0  0  0  0  0  0  0  0  0
   -2.0800   -1.1130    0.5710 C   0  0  0  0  0  0  0  0  0  0  0  0
    1.2160    0.2540   -0.2350 C   0  0  0  0  0  0  0  0  0  0  0  0
  1  2  2  0
  2  3  1  0
  2  4  1  0
  4  5  2  0
  4 15  1  0
  5  6  1  0
  6  7  2  0
  7  8  1  0
  8  9  1  0
  8 15  2  0
  9 10  2  0
  9 14  1  0
 10 11  1  0
 11 12  2  0
 12 13  1  0
 13 14  2  0
M  END
