
     RDKit          3D

 19 19  0  0  0  0  0  0  0  0999 V2000
   -4.4820    0.8740    1.5390 C   0  0  0  0  0  0  0  0  0  0  0  0
   -3.0290    0.9650    1.1050 C   0  0  0  0  0  0  0  0  0  0  0  0
   -2.8660    0.0630   -0.0930 C   0  0  1  0  0  0  0  0  0  0  0  0
   -3.7780    0.5370   -1.1730 C   0  0  0  0  0  0  0  0  0  0  0  0
   -3.6940   -0.3020   -2.4280 C   0  0  0  0  0  0  0  0  0  0  0  0
   -1.4280   -0.0370   -0.5370 C   0  0  0  0  0  0  0  0  0  0  0  0
   -0.5950   -0.5560    0.4820 O   0  0  0  0  0  0  0  0  0  0  0  0
    0.7510   -0.6950    0.1940 C   0  0  0  0  0  0  0  0  0  0  0  0
    1.7070    0.2010    0.3570 C   0  0  0  0  0  0  0  0  0  0  0  0
    1.5770    1.5580    0.8800 C   0  0  0  0  0  0  0  0  0  0  0  0
    0.4410    1.9520    1.2240 O   0  0  0  0  0  0  0  0  0  0  0  0
    2.6540    2.4010    1.0020 O   0  0  0  0  0  0  0  0  0  0  0  0
    2.5560    3.7260    1.5070 C   0  0  0  0  0  0  0  0  0  0  0  0
    2.9880   -0.3670   -0.0770 C   0  0  0  0  0  0  0  0  0  0  0  0
    4.3070    0.3670   -0.0370 C   0  0  0  0  0  0  0  0  0  0  0  0
    2.7880   -1.5880   -0.4910 C   0  0  0  0  0  0  0  0  0  0  0  0
    3.8880   -2.4580   -1.0040 C   0  0  0  0  0  0  0  0  0  0  0  0
    1.3570   -1.9150   -0.3610 C   0  0  1  0  0  0  0  0  0  0  0  0
    1.1870   -3.1070    0.5590 C   0  0  0  0  0  0  0  0  0  0  0  0
  1  2  1  0
  3  2  1  1
  3  4  1  0
  3  6  1  0
  4  5  1  0
  6  7  1  0
  7  8  1  0
  8  9  2  0
  8 18  1  0
  9 10  1  0
  9 14  1  0
 10 11  2  0
 10 12  1  0
 12 13  1  0
 14 15  1  0
 14 16  2  0
 16 17  1  0
 16 18  1  0
 18 19  1  1
M  END
