
     RDKit          3D

 16 16  0  0  0  0  0  0  0  0999 V2000
    5.1000    0.5960   -0.1260 C   0  0  0  0  0  0  0  0  0  0  0  0
    3.7190    1.1530    0.0430 C   0  0  0  0  0  0  0  0  0  0  0  0
    2.7400    0.0620    0.0250 C   0  0  0  0  0  0  0  0  0  0  0  0
    3.1590   -1.1150   -0.1200 O   0  0  0  0  0  0  0  0  0  0  0  0
    1.3220    0.3010    0.1670 N   0  0  0  0  0  0  0  0  0  0  0  0
    0.4740   -0.8410    0.1320 C   0  0  0  0  0  0  0  0  0  0  0  0
   -0.9580   -0.5850    0.2770 C   0  0  0  0  0  0  0  0  0  0  0  0
   -1.5640    0.6270    0.4410 C   0  0  0  0  0  0  0  0  0  0  0  0
   -2.9430    0.7660    0.5710 C   0  0  0  0  0  0  0  0  0  0  0  0
   -3.6890    2.3300    0.7790 S   0  0  1  0  0  0  0  0  0  0  0  0
   -2.6740    3.3650    1.1260 O   0  0  0  0  0  0  0  0  0  0  0  0
   -4.4280    2.6890   -0.5030 O   0  0  0  0  0  0  0  0  0  0  0  0
   -3.7440   -0.3540    0.5340 C   0  0  0  0  0  0  0  0  0  0  0  0
   -3.1550   -1.5950    0.3690 C   0  0  0  0  0  0  0  0  0  0  0  0
   -1.7970   -1.7000    0.2440 C   0  0  0  0  0  0  0  0  0  0  0  0
   -1.2530   -3.0130    0.0760 N   0  0  0  0  0  0  0  0  0  0  0  0
  1  2  1  0
  2  3  1  0
  3  4  2  0
  3  5  1  0
  5  6  1  0
  6  7  1  0
  7  8  2  0
  7 15  1  0
  8  9  1  0
 10  9  1  6
  9 13  2  0
 10 11  2  0
 10 12  2  0
 13 14  1  0
 14 15  2  0
 15 16  1  0
M  END
