
     RDKit          3D

 16 15  0  0  0  0  0  0  0  0999 V2000
   -4.3930    1.7430   -0.6240 C   0  0  0  0  0  0  0  0  0  0  0  0
   -4.9030    0.4570   -0.0340 C   0  0  0  0  0  0  0  0  0  0  0  0
   -4.1010   -0.0030    1.1480 C   0  0  0  0  0  0  0  0  0  0  0  0
   -2.7090   -0.2430    0.8350 N   0  0  0  0  0  0  0  0  0  0  0  0
   -2.2780   -1.1880   -0.1220 C   0  0  0  0  0  0  0  0  0  0  0  0
   -3.2070   -1.8360   -0.7100 O   0  0  0  0  0  0  0  0  0  0  0  0
   -0.9090   -1.4790   -0.4850 C   0  0  0  0  0  0  0  0  0  0  0  0
    0.0720   -0.8240    0.1070 C   0  0  0  0  0  0  0  0  0  0  0  0
    1.4770   -1.1190   -0.2610 C   0  0  0  0  0  0  0  0  0  0  0  0
    1.7760   -2.0910   -1.2380 N   0  0  0  0  0  0  0  0  0  0  0  0
    2.4720   -0.4780    0.3160 C   0  0  0  0  0  0  0  0  0  0  0  0
    3.8570   -0.7760   -0.0540 C   0  0  0  0  0  0  0  0  0  0  0  0
    4.7080    0.6440   -0.6990 S   0  0  2  0  0  0  0  0  0  0  0  0
    4.7630    1.9580    0.4900 C   0  0  0  0  0  0  0  0  0  0  0  0
    3.9530    1.1140   -1.8980 O   0  0  0  0  0  0  0  0  0  0  0  0
    6.1000    0.3010   -1.0920 O   0  0  0  0  0  0  0  0  0  0  0  0
  1  2  1  0
  2  3  1  0
  3  4  1  0
  4  5  1  0
  5  6  2  0
  5  7  1  0
  7  8  2  3
  8  9  1  0
  9 10  1  0
  9 11  2  3
 11 12  1  0
 12 13  1  0
 13 14  1  1
 13 15  2  0
 13 16  2  0
M  END
