
     RDKit          3D

 22 24  0  0  0  0  0  0  0  0999 V2000
   -9.5290   -0.5120   -0.4560 O   0  0  0  0  0  0  0  0  0  0  0  0
   -8.2710   -0.2980   -0.3450 C   0  0  0  0  0  0  0  0  0  0  0  0
   -7.7780    1.0330   -0.3160 N   0  0  0  0  0  0  0  0  0  0  0  0
   -6.3770    1.1910   -0.1910 C   0  0  0  0  0  0  0  0  0  0  0  0
   -5.5470    0.1800   -0.1040 C   0  0  0  0  0  0  0  0  0  0  0  0
   -4.0770    0.4380    0.0260 C   0  0  0  0  0  0  0  0  0  0  0  0
   -3.3070   -0.5710    0.1070 N   0  0  0  0  0  0  0  0  0  0  0  0
   -1.9040   -0.4270    0.2320 C   0  0  0  0  0  0  0  0  0  0  0  0
   -1.0700   -1.0090   -0.6060 C   0  0  0  0  0  0  0  0  0  0  0  0
    0.3340   -0.8620   -0.4760 N   0  0  0  0  0  0  0  0  0  0  0  0
    0.9030   -0.4800    0.7820 C   0  0  0  0  0  0  0  0  0  0  0  0
    2.3800   -0.3890    0.6950 C   0  0  0  0  0  0  0  0  0  0  0  0
    3.1470   -1.5040    0.9590 C   0  0  0  0  0  0  0  0  0  0  0  0
    4.5230   -1.4840    0.8950 C   0  0  0  0  0  0  0  0  0  0  0  0
    5.2020   -0.3270    0.5590 C   0  0  0  0  0  0  0  0  0  0  0  0
    4.4450    0.7870    0.2940 C   0  0  0  0  0  0  0  0  0  0  0  0
    3.0620    0.7590    0.3600 C   0  0  0  0  0  0  0  0  0  0  0  0
    5.3440    1.9400   -0.0610 C   0  0  0  0  0  0  0  0  0  0  0  0
    6.5840    1.1850   -0.5690 C   0  0  0  0  0  0  0  0  0  0  0  0
    6.6250    0.0430    0.4080 C   0  0  0  0  0  0  0  0  0  0  0  0
   -6.0230   -1.2170   -0.1310 C   0  0  0  0  0  0  0  0  0  0  0  0
   -7.3880   -1.3200   -0.2530 O   0  0  0  0  0  0  0  0  0  0  0  0
  1  2  2  0
  2  3  1  0
  2 22  1  0
  3  4  1  0
  4  5  2  0
  5  6  1  0
  5 21  1  0
  6  7  2  3
  7  8  1  0
  8  9  2  3
  9 10  1  0
 10 11  1  0
 11 12  1  0
 12 13  2  0
 12 17  1  0
 13 14  1  0
 14 15  2  0
 15 16  1  0
 15 20  1  0
 16 17  2  0
 16 18  1  0
 18 19  1  0
 19 20  1  0
 21 22  1  0
M  END
