
     RDKit          3D

 22 24  0  0  0  0  0  0  0  0999 V2000
   -0.4920   -1.7050    0.7320 C   0  0  0  0  0  0  0  0  0  0  0  0
   -0.3140   -0.4240   -0.0260 C   0  0  0  0  0  0  0  0  0  0  0  0
    0.8500   -0.3370   -0.8490 N   0  0  0  0  0  0  0  0  0  0  0  0
    2.1500   -0.1610   -0.3020 C   0  0  0  0  0  0  0  0  0  0  0  0
    2.3280   -0.0670    1.0620 C   0  0  0  0  0  0  0  0  0  0  0  0
    3.6120    0.1030    1.5320 C   0  0  0  0  0  0  0  0  0  0  0  0
    4.6970    0.1780    0.6560 C   0  0  0  0  0  0  0  0  0  0  0  0
    4.5130    0.0840   -0.7060 C   0  0  0  0  0  0  0  0  0  0  0  0
    3.2220   -0.0870   -1.1670 C   0  0  0  0  0  0  0  0  0  0  0  0
    5.8180    0.1910   -1.4180 C   0  0  0  0  0  0  0  0  0  0  0  0
    6.7900   -0.0080   -0.3600 N   0  0  0  0  0  0  0  0  0  0  0  0
    6.1550    0.3550    0.8660 C   0  0  0  0  0  0  0  0  0  0  0  0
   -1.1900    0.5510    0.0740 C   0  0  0  0  0  0  0  0  0  0  0  0
   -1.0050    1.7780   -0.6610 C   0  0  0  0  0  0  0  0  0  0  0  0
   -1.8540    2.6960   -0.5510 O   0  0  0  0  0  0  0  0  0  0  0  0
   -2.3620    0.3780    0.9450 C   0  0  0  0  0  0  0  0  0  0  0  0
   -3.6080    0.4690    0.2910 N   0  0  0  0  0  0  0  0  0  0  0  0
   -4.7710    0.3160    1.0740 C   0  0  0  0  0  0  0  0  0  0  0  0
   -5.6740   -0.7350    0.5210 C   0  0  0  0  0  0  0  0  0  0  0  0
   -5.9690   -0.5980   -0.8100 O   0  0  0  0  0  0  0  0  0  0  0  0
   -5.1180    0.2290   -1.5070 C   0  0  0  0  0  0  0  0  0  0  0  0
   -3.6790    0.0120   -1.0500 C   0  0  0  0  0  0  0  0  0  0  0  0
  1  2  1  0
  2  3  1  0
  2 13  2  3
  3  4  1  0
  4  5  2  0
  4  9  1  0
  5  6  1  0
  6  7  2  0
  7  8  1  0
  7 12  1  0
  8  9  2  0
  8 10  1  0
 10 11  1  0
 11 12  1  0
 13 14  1  0
 13 16  1  0
 14 15  2  0
 16 17  1  0
 17 18  1  0
 17 22  1  0
 18 19  1  0
 19 20  1  0
 20 21  1  0
 21 22  1  0
M  END
