
     RDKit          3D

 16 16  0  0  0  0  0  0  0  0999 V2000
    5.3480    0.0280    0.2590 C   0  0  0  0  0  0  0  0  0  0  0  0
    4.0750    0.1830   -0.2910 O   0  0  0  0  0  0  0  0  0  0  0  0
    3.1320   -0.3240    0.5700 C   0  0  0  0  0  0  0  0  0  0  0  0
    1.7770   -0.1680    0.0020 C   0  0  0  0  0  0  0  0  0  0  0  0
    1.6350    0.3780   -1.1390 O   0  0  0  0  0  0  0  0  0  0  0  0
    0.6600   -0.6340    0.7480 N   0  0  0  0  0  0  0  0  0  0  0  0
   -0.6590   -0.4520    0.1350 C   0  0  0  0  0  0  0  0  0  0  0  0
   -1.1400   -1.4690   -0.6720 C   0  0  0  0  0  0  0  0  0  0  0  0
   -0.5090   -2.7850   -1.0370 C   0  0  0  0  0  0  0  0  0  0  0  0
   -2.7300   -0.8660   -1.2040 S   0  0  0  0  0  0  0  0  0  0  0  0
   -2.6510    0.6690   -0.3340 C   0  0  0  0  0  0  0  0  0  0  0  0
   -3.6720    1.6980   -0.3300 C   0  0  0  0  0  0  0  0  0  0  0  0
   -4.9220    1.5480   -1.0850 C   0  0  0  0  0  0  0  0  0  0  0  0
   -3.4470    2.7290    0.3460 O   0  0  0  0  0  0  0  0  0  0  0  0
   -1.4320    0.6220    0.2980 C   0  0  0  0  0  0  0  0  0  0  0  0
   -1.0380    1.7530    1.1190 N   0  0  0  0  0  0  0  0  0  0  0  0
  1  2  1  0
  2  3  1  0
  3  4  1  0
  4  5  2  0
  4  6  1  0
  6  7  1  0
  7  8  2  0
  7 15  1  0
  8  9  1  0
  8 10  1  0
 10 11  1  0
 11 12  1  0
 11 15  2  0
 12 13  1  0
 12 14  2  0
 15 16  1  0
M  END
