
     RDKit          3D

 22 24  0  0  0  0  0  0  0  0999 V2000
   -3.0440   -2.2310    0.8820 C   0  0  0  0  0  0  0  0  0  0  0  0
   -2.4360   -0.8680    1.0550 C   0  0  0  0  0  0  0  0  0  0  0  0
   -1.7930   -0.3780   -0.1780 N   0  0  0  0  0  0  0  0  0  0  0  0
   -2.6780   -0.0710   -1.2580 C   0  0  0  0  0  0  0  0  0  0  0  0
   -3.5690    1.1060   -0.9880 C   0  0  0  0  0  0  0  0  0  0  0  0
   -0.3970   -0.3220   -0.1880 C   0  0  0  0  0  0  0  0  0  0  0  0
    0.3210   -1.3460   -0.6820 C   0  0  0  0  0  0  0  0  0  0  0  0
   -0.4410   -2.4990   -1.1990 C   0  0  0  0  0  0  0  0  0  0  0  0
    1.7740   -1.3730   -0.7260 C   0  0  0  0  0  0  0  0  0  0  0  0
    2.4410   -2.3310   -1.1870 O   0  0  0  0  0  0  0  0  0  0  0  0
    2.4760   -0.2060   -0.1950 C   0  0  0  0  0  0  0  0  0  0  0  0
    3.8660   -0.0870   -0.1690 C   0  0  0  0  0  0  0  0  0  0  0  0
    4.6800   -1.1940   -0.7040 C   0  0  0  0  0  0  0  0  0  0  0  0
    4.3600    1.0550    0.3540 N   0  0  0  0  0  0  0  0  0  0  0  0
    3.5770    2.0590    0.8400 C   0  0  0  0  0  0  0  0  0  0  0  0
    4.0890    3.1000    1.3150 O   0  0  0  0  0  0  0  0  0  0  0  0
    2.1830    1.9710    0.8280 C   0  0  0  0  0  0  0  0  0  0  0  0
    1.1480    2.7380    1.2060 N   0  0  0  0  0  0  0  0  0  0  0  0
   -0.0040    2.0480    0.9080 C   0  0  0  0  0  0  0  0  0  0  0  0
   -1.3840    2.5180    1.1430 C   0  0  0  0  0  0  0  0  0  0  0  0
    0.3170    0.8330    0.3360 C   0  0  0  0  0  0  0  0  0  0  0  0
    1.7100    0.8020    0.2920 C   0  0  0  0  0  0  0  0  0  0  0  0
  1  2  1  0
  2  3  1  0
  3  4  1  0
  3  6  1  0
  4  5  1  0
  6  7  2  0
  6 21  1  0
  7  8  1  0
  7  9  1  0
  9 10  2  0
  9 11  1  0
 11 12  2  0
 11 22  1  0
 12 13  1  0
 12 14  1  0
 14 15  1  0
 15 16  2  0
 15 17  1  0
 17 18  1  0
 17 22  2  0
 18 19  1  0
 19 20  1  0
 19 21  2  0
 21 22  1  0
M  END
