
     RDKit          3D

 31 34  0  0  0  0  0  0  0  0999 V2000
   -7.1870    2.5900   -0.8320 C   0  0  0  0  0  0  0  0  0  0  0  0
   -7.1650    1.2750   -0.0310 C   0  0  0  0  0  0  0  0  0  0  0  0
   -7.0600    0.1200   -0.9030 C   0  0  0  0  0  0  0  0  0  0  0  0
   -8.2180   -0.0360   -1.9080 C   0  0  0  0  0  0  0  0  0  0  0  0
   -6.1580   -0.7890   -0.9710 C   0  0  0  0  0  0  0  0  0  0  0  0
   -4.9240   -1.0330   -0.2400 C   0  0  0  0  0  0  0  0  0  0  0  0
   -4.5180   -0.1110    0.8320 C   0  0  0  0  0  0  0  0  0  0  0  0
   -3.1430   -0.6920    1.3810 N   0  0  0  0  0  0  0  0  0  0  0  0
   -2.1290   -0.1250    0.6570 C   0  0  0  0  0  0  0  0  0  0  0  0
   -2.5550    0.7350   -0.2910 O   0  0  0  0  0  0  0  0  0  0  0  0
   -0.6950   -0.2500    0.6890 C   0  0  0  0  0  0  0  0  0  0  0  0
    0.0560   -1.0110    1.5410 C   0  0  0  0  0  0  0  0  0  0  0  0
    1.4510   -1.0470    1.4560 C   0  0  0  0  0  0  0  0  0  0  0  0
    2.1500   -0.3300    0.5250 C   0  0  0  0  0  0  0  0  0  0  0  0
    3.5800   -0.3980    0.4750 C   0  0  0  0  0  0  0  0  0  0  0  0
    4.2780    0.2740   -0.4020 C   0  0  0  0  0  0  0  0  0  0  0  0
    5.7560    0.2140   -0.4660 C   0  0  0  0  0  0  0  0  0  0  0  0
    6.5100   -0.5460    0.3850 C   0  0  0  0  0  0  0  0  0  0  0  0
    7.9050   -0.5860    0.3050 C   0  0  0  0  0  0  0  0  0  0  0  0
    8.5340    0.1700   -0.6690 C   0  0  0  0  0  0  0  0  0  0  0  0
    7.7630    0.9210   -1.5060 C   0  0  0  0  0  0  0  0  0  0  0  0
    6.4060    0.9320   -1.3940 N   0  0  0  0  0  0  0  0  0  0  0  0
    8.5940    1.6490   -2.4660 C   0  0  0  0  0  0  0  0  0  0  0  0
    9.9760    1.5750   -1.9070 C   0  0  0  0  0  0  0  0  0  0  0  0
    9.9260    0.3630   -1.0290 C   0  0  0  0  0  0  0  0  0  0  0  0
   10.9130   -0.3350   -0.6860 O   0  0  0  0  0  0  0  0  0  0  0  0
    1.4320    0.4350   -0.3350 C   0  0  0  0  0  0  0  0  0  0  0  0
    0.0610    0.4820   -0.2660 C   0  0  0  0  0  0  0  0  0  0  0  0
   -3.4210   -1.5880    2.4050 C   0  0  1  0  0  0  0  0  0  0  0  0
   -2.7550   -2.7870    2.8840 C   0  0  0  0  0  0  0  0  0  0  0  0
   -2.7490   -1.5610    3.7670 C   0  0  0  0  0  0  0  0  0  0  0  0
  1  2  1  0
  2  3  1  0
  3  4  1  0
  3  5  2  3
  5  6  1  0
  6  7  1  0
  7  8  1  0
  8  9  1  0
 29  8  1  6
  9 10  2  0
  9 11  1  0
 11 12  2  0
 11 28  1  0
 12 13  1  0
 13 14  2  0
 14 15  1  0
 14 27  1  0
 15 16  2  3
 16 17  1  0
 17 18  2  0
 17 22  1  0
 18 19  1  0
 19 20  2  0
 20 21  1  0
 20 25  1  0
 21 22  2  0
 21 23  1  0
 23 24  1  0
 24 25  1  0
 25 26  2  0
 27 28  2  0
 29 30  1  0
 29 31  1  0
 30 31  1  0
M  CHG  1  22   1
M  END
