
     RDKit          3D

 31 33  0  0  0  0  0  0  0  0999 V2000
    3.6510   -3.2310   -0.9650 C   0  0  0  0  0  0  0  0  0  0  0  0
    3.0450   -2.0850   -0.1370 C   0  0  0  0  0  0  0  0  0  0  0  0
    2.0450   -2.5990    0.7470 N   0  0  0  0  0  0  0  0  0  0  0  0
    1.2300   -1.6120    1.4370 C   0  0  1  0  0  0  0  0  0  0  0  0
    2.0690   -1.5200    2.8060 C   0  0  0  0  0  0  0  0  0  0  0  0
    1.2690   -0.2660    0.9140 C   0  0  0  0  0  0  0  0  0  0  0  0
    2.3620    0.4870    1.2070 C   0  0  0  0  0  0  0  0  0  0  0  0
    2.6510    1.7790    0.8000 C   0  0  0  0  0  0  0  0  0  0  0  0
    3.8890    2.4470    1.2260 C   0  0  0  0  0  0  0  0  0  0  0  0
    1.7110    2.3650    0.0040 C   0  0  0  0  0  0  0  0  0  0  0  0
    1.9000    3.6750   -0.4170 C   0  0  0  0  0  0  0  0  0  0  0  0
    3.1180    4.3850   -0.0550 C   0  0  0  0  0  0  0  0  0  0  0  0
    0.9150    4.2690   -1.1830 C   0  0  0  0  0  0  0  0  0  0  0  0
   -0.2110    3.6260   -1.5310 C   0  0  0  0  0  0  0  0  0  0  0  0
   -1.2780    4.2670   -2.3580 C   0  0  0  0  0  0  0  0  0  0  0  0
   -0.3860    2.3270   -1.1100 C   0  0  0  0  0  0  0  0  0  0  0  0
    0.5250    1.6400   -0.3530 C   0  0  0  0  0  0  0  0  0  0  0  0
    0.3020    0.3260    0.0950 C   0  0  0  0  0  0  0  0  0  0  0  0
   -0.9180   -0.4210   -0.2310 C   0  0  2  0  0  0  0  0  0  0  0  0
   -1.5770   -0.7630    1.1390 C   0  0  0  0  0  0  0  0  0  0  0  0
   -1.4180   -0.0200    2.1090 O   0  0  0  0  0  0  0  0  0  0  0  0
   -2.3310   -1.8900    1.2730 O   0  0  0  0  0  0  0  0  0  0  0  0
   -2.9440   -2.2410    2.5060 C   0  0  0  0  0  0  0  0  0  0  0  0
   -3.9350   -1.1880    2.9520 C   0  0  0  0  0  0  0  0  0  0  0  0
   -0.5420   -1.8250   -0.7430 C   0  0  0  0  0  0  0  0  0  0  0  0
   -1.5200   -2.4610   -1.7130 C   0  0  0  0  0  0  0  0  0  0  0  0
   -1.9970   -1.6060   -2.8210 C   0  0  0  0  0  0  0  0  0  0  0  0
   -1.8670   -0.1400   -2.4710 C   0  0  0  0  0  0  0  0  0  0  0  0
   -1.9610   -0.0390   -1.0310 N   0  0  0  0  0  0  0  0  0  0  0  0
   -3.2580    0.2930   -0.5720 C   0  0  0  0  0  0  0  0  0  0  0  0
   -4.3880   -0.6170   -0.7820 C   0  0  0  0  0  0  0  0  0  0  0  0
  1  2  1  0
  2  3  1  0
  3  4  1  0
  4  5  1  1
  4  6  1  0
  6  7  2  0
  6 18  1  0
  7  8  1  0
  8  9  1  0
  8 10  2  0
 10 11  1  0
 10 17  1  0
 11 12  1  0
 11 13  2  0
 13 14  1  0
 14 15  1  0
 14 16  2  0
 16 17  1  0
 17 18  2  0
 18 19  1  0
 19 20  1  1
 19 25  1  0
 19 29  1  0
 20 21  2  0
 20 22  1  0
 22 23  1  0
 23 24  1  0
 25 26  1  0
 26 27  1  0
 27 28  1  0
 28 29  1  0
 29 30  1  0
 30 31  1  0
M  CHG  1   3   1
M  END
