
     RDKit          3D

 31 34  0  0  0  0  0  0  0  0999 V2000
    8.1160   -0.6820   -0.5580 C   0  0  0  0  0  0  0  0  0  0  0  0
    6.9340   -0.0820   -1.2280 C   0  0  0  0  0  0  0  0  0  0  0  0
    7.1330    0.7540   -2.3000 C   0  0  0  0  0  0  0  0  0  0  0  0
    6.0200    1.3000   -2.9070 C   0  0  0  0  0  0  0  0  0  0  0  0
    4.7430    1.0350   -2.4730 C   0  0  0  0  0  0  0  0  0  0  0  0
    4.5110    0.1810   -1.3730 C   0  0  0  0  0  0  0  0  0  0  0  0
    3.1580   -0.1290   -1.0210 C   0  0  0  0  0  0  0  0  0  0  0  0
    2.3230    0.0600   -2.0160 O   0  0  0  0  0  0  0  0  0  0  0  0
    2.5910   -0.5900    0.1860 N   0  0  0  0  0  0  0  0  0  0  0  0
    1.1870   -0.8980    0.2200 C   0  0  0  0  0  0  0  0  0  0  0  0
    0.2130    0.1690    0.5650 C   0  0  2  0  0  0  0  0  0  0  0  0
    0.2730    1.3520   -0.4010 C   0  0  0  0  0  0  0  0  0  0  0  0
    0.1830    0.6270    1.9700 C   0  0  0  0  0  0  0  0  0  0  0  0
   -0.7870    1.6600    2.3830 C   0  0  0  0  0  0  0  0  0  0  0  0
   -2.2240    1.4190    2.3820 C   0  0  0  0  0  0  0  0  0  0  0  0
   -2.9740    1.0790    1.1790 C   0  0  0  0  0  0  0  0  0  0  0  0
   -3.4350   -0.2300    0.9460 C   0  0  0  0  0  0  0  0  0  0  0  0
   -4.1680   -0.5790   -0.1600 C   0  0  0  0  0  0  0  0  0  0  0  0
   -4.4940    0.3590   -1.1150 C   0  0  0  0  0  0  0  0  0  0  0  0
   -4.0610    1.6390   -0.9150 C   0  0  0  0  0  0  0  0  0  0  0  0
   -3.3160    2.0120    0.2010 C   0  0  0  0  0  0  0  0  0  0  0  0
   -2.9210    3.3380    0.3250 O   0  0  0  0  0  0  0  0  0  0  0  0
   -5.2780    0.1890   -2.3850 C   0  0  0  0  0  0  0  0  0  0  0  0
   -6.3660   -0.7370   -2.0900 N   0  0  0  0  0  0  0  0  0  0  0  0
   -6.6530   -0.7940   -0.6760 C   0  0  0  0  0  0  0  0  0  0  0  0
   -6.0670   -2.0560   -0.0370 C   0  0  0  0  0  0  0  0  0  0  0  0
   -4.5470   -2.0160   -0.2000 C   0  0  0  0  0  0  0  0  0  0  0  0
    3.3550   -0.6620    1.4090 C   0  0  1  0  0  0  0  0  0  0  0  0
    2.9220   -1.1660    2.6950 C   0  0  0  0  0  0  0  0  0  0  0  0
    3.6100   -2.1510    1.7680 C   0  0  0  0  0  0  0  0  0  0  0  0
    5.6270   -0.3500   -0.7900 C   0  0  0  0  0  0  0  0  0  0  0  0
  1  2  1  0
  2  3  2  0
  2 31  1  0
  3  4  1  0
  4  5  2  0
  5  6  1  0
  6  7  1  0
  6 31  2  0
  7  8  2  0
  7  9  1  0
  9 10  1  0
 28  9  1  6
 10 11  1  0
 11 12  1  6
 11 13  1  0
 13 14  1  0
 14 15  1  0
 15 16  1  0
 16 17  2  0
 16 21  1  0
 17 18  1  0
 18 19  2  0
 18 27  1  0
 19 20  1  0
 19 23  1  0
 20 21  2  0
 21 22  1  0
 23 24  1  0
 24 25  1  0
 25 26  1  0
 26 27  1  0
 28 29  1  0
 28 30  1  0
 29 30  1  0
M  CHG  1  24   1
M  END
