
     RDKit          3D

 29 30  0  0  0  0  0  0  0  0999 V2000
   -3.9240   -2.5860    1.4250 C   0  0  0  0  0  0  0  0  0  0  0  0
   -3.7150   -1.2470    1.6250 O   0  0  0  0  0  0  0  0  0  0  0  0
   -3.5950   -0.5020    0.4500 C   0  0  2  0  0  0  0  0  0  0  0  0
   -2.3340    0.2380    0.4590 C   0  0  0  0  0  0  0  0  0  0  0  0
   -1.0810   -0.5800    0.5340 C   0  0  2  0  0  0  0  0  0  0  0  0
    0.1820    0.2800    0.5640 C   0  0  0  0  0  0  0  0  0  0  0  0
    0.3650    1.1400   -0.6140 C   0  0  0  0  0  0  0  0  0  0  0  0
    1.5350    2.0580   -0.6570 C   0  0  0  0  0  0  0  0  0  0  0  0
    2.9050    1.4900   -0.6010 C   0  0  0  0  0  0  0  0  0  0  0  0
    3.2720    0.8080    0.5870 N   0  0  0  0  0  0  0  0  0  0  0  0
    4.6380    1.2710    0.9210 C   0  0  0  0  0  0  0  0  0  0  0  0
    5.5640    0.2800    0.3470 C   0  0  0  0  0  0  0  0  0  0  0  0
    6.0360    0.4330   -0.9270 C   0  0  0  0  0  0  0  0  0  0  0  0
    6.9050   -0.5000   -1.4610 C   0  0  0  0  0  0  0  0  0  0  0  0
    7.2970   -1.5860   -0.7090 C   0  0  0  0  0  0  0  0  0  0  0  0
    8.1540   -2.5220   -1.2110 F   0  0  0  0  0  0  0  0  0  0  0  0
    6.8230   -1.7400    0.5710 C   0  0  0  0  0  0  0  0  0  0  0  0
    5.9530   -0.7980    1.0930 C   0  0  0  0  0  0  0  0  0  0  0  0
   -0.9740   -1.6680   -0.4400 C   0  0  0  0  0  0  0  0  0  0  0  0
   -0.6170   -2.8100   -0.0500 O   0  0  0  0  0  0  0  0  0  0  0  0
   -1.2460   -1.5350   -1.8250 N   0  0  0  0  0  0  0  0  0  0  0  0
   -1.1130   -2.5990   -2.6430 O   0  0  0  0  0  0  0  0  0  0  0  0
   -4.8250    0.3060    0.3690 C   0  0  0  0  0  0  0  0  0  0  0  0
   -5.3960    0.9810    1.4090 C   0  0  0  0  0  0  0  0  0  0  0  0
   -6.5490    1.7220    1.2540 C   0  0  0  0  0  0  0  0  0  0  0  0
   -7.1480    1.7850    0.0110 C   0  0  0  0  0  0  0  0  0  0  0  0
   -8.2800    2.5000   -0.1850 F   0  0  0  0  0  0  0  0  0  0  0  0
   -6.6070    1.1230   -1.0510 C   0  0  0  0  0  0  0  0  0  0  0  0
   -5.4460    0.3890   -0.8570 C   0  0  0  0  0  0  0  0  0  0  0  0
  1  2  1  0
  2  3  1  0
  3  4  1  1
  3 23  1  0
  5  4  1  6
  5  6  1  0
  5 19  1  0
  6  7  1  0
  7  8  1  0
  8  9  1  0
  9 10  1  0
 10 11  1  0
 11 12  1  0
 12 13  2  0
 12 18  1  0
 13 14  1  0
 14 15  2  0
 15 16  1  0
 15 17  1  0
 17 18  2  0
 19 20  2  0
 19 21  1  0
 21 22  1  0
 23 24  2  0
 23 29  1  0
 24 25  1  0
 25 26  2  0
 26 27  1  0
 26 28  1  0
 28 29  2  0
M  CHG  1  10   1
M  END
