
     RDKit          3D

 31 34  0  0  0  0  0  0  0  0999 V2000
   -3.6210    3.7770   -2.9410 C   0  0  0  0  0  0  0  0  0  0  0  0
   -2.8230    2.4960   -2.8420 C   0  0  0  0  0  0  0  0  0  0  0  0
   -3.0470    1.8380   -1.4930 C   0  0  0  0  0  0  0  0  0  0  0  0
   -2.2780    0.5990   -1.3950 N   0  0  0  0  0  0  0  0  0  0  0  0
   -1.9640    0.4150    0.0140 C   0  0  1  0  0  0  0  0  0  0  0  0
   -3.1060   -0.2180    0.7000 C   0  0  0  0  0  0  0  0  0  0  0  0
   -3.6130    0.2740    1.8690 C   0  0  0  0  0  0  0  0  0  0  0  0
   -4.6780   -0.2990    2.5350 C   0  0  0  0  0  0  0  0  0  0  0  0
   -5.2300    0.2360    3.8080 C   0  0  0  0  0  0  0  0  0  0  0  0
   -5.2320   -1.4150    1.9700 N   0  0  0  0  0  0  0  0  0  0  0  0
   -6.2600   -2.1900    2.3640 C   0  0  0  0  0  0  0  0  0  0  0  0
   -6.4530   -3.2080    1.4670 C   0  0  0  0  0  0  0  0  0  0  0  0
   -5.5020   -3.0430    0.4860 C   0  0  0  0  0  0  0  0  0  0  0  0
   -4.7610   -1.9280    0.8220 C   0  0  0  0  0  0  0  0  0  0  0  0
   -3.6780   -1.3390    0.1510 C   0  0  0  0  0  0  0  0  0  0  0  0
   -0.6750   -0.3620    0.1940 C   0  0  2  0  0  0  0  0  0  0  0  0
   -0.3670   -0.5400    1.6500 C   0  0  0  0  0  0  0  0  0  0  0  0
    0.7230    0.3450    2.1730 C   0  0  0  0  0  0  0  0  0  0  0  0
    1.6000    0.8400    1.2670 O   0  0  0  0  0  0  0  0  0  0  0  0
    1.7990    0.1000    0.1050 C   0  0  1  0  0  0  0  0  0  0  0  0
    2.7530    0.8970   -0.7350 C   0  0  0  0  0  0  0  0  0  0  0  0
    3.7900    0.1060   -1.4560 C   0  0  0  0  0  0  0  0  0  0  0  0
    4.4580   -0.7760   -0.4220 C   0  0  2  0  0  0  0  0  0  0  0  0
    5.6960   -1.4420   -0.9070 C   0  0  0  0  0  0  0  0  0  0  0  0
    6.7630   -0.4620   -1.3410 C   0  0  0  0  0  0  0  0  0  0  0  0
    7.1980    0.4500   -0.2460 C   0  0  0  0  0  0  0  0  0  0  0  0
    8.2420    1.3680   -0.7740 C   0  0  0  0  0  0  0  0  0  0  0  0
    8.7690    2.2230   -0.0770 O   0  0  0  0  0  0  0  0  0  0  0  0
    3.4050   -1.8400   -0.1480 C   0  0  0  0  0  0  0  0  0  0  0  0
    2.1370   -1.2910    0.3830 C   0  0  0  0  0  0  0  0  0  0  0  0
    0.4460    0.1510   -0.6250 C   0  0  0  0  0  0  0  0  0  0  0  0
  1  2  1  0
  2  3  1  0
  3  4  1  0
  5  4  1  6
  5  6  1  0
  5 16  1  0
  6  7  1  0
  6 15  2  0
  7  8  2  0
  8  9  1  0
  8 10  1  0
 10 11  1  0
 10 14  1  0
 11 12  2  0
 12 13  1  0
 13 14  2  0
 14 15  1  0
 16 17  1  1
 16 31  1  0
 17 18  1  0
 18 19  1  0
 19 20  1  0
 20 21  1  6
 20 30  1  0
 20 31  1  0
 21 22  1  0
 22 23  1  0
 23 24  1  6
 23 29  1  0
 24 25  1  0
 25 26  1  0
 26 27  1  0
 27 28  2  0
 29 30  1  0
M  CHG  1   4   1
M  END
