
     RDKit          3D

 31 35  0  0  0  0  0  0  0  0999 V2000
   -4.1450   -2.7370   -2.2070 C   0  0  0  0  0  0  0  0  0  0  0  0
   -3.5270   -3.3150   -0.9350 C   0  0  0  0  0  0  0  0  0  0  0  0
   -4.3160   -2.8840    0.2840 C   0  0  0  0  0  0  0  0  0  0  0  0
   -4.3520   -1.4370    0.4300 N   0  0  0  0  0  0  0  0  0  0  0  0
   -3.2100   -0.6490    0.5930 C   0  0  0  0  0  0  0  0  0  0  0  0
   -2.1020   -1.3120    0.6060 O   0  0  0  0  0  0  0  0  0  0  0  0
   -3.1100    0.7910    0.7470 C   0  0  0  0  0  0  0  0  0  0  0  0
   -1.8300    1.3610    0.9010 C   0  0  0  0  0  0  0  0  0  0  0  0
   -1.7100    2.7150    1.0470 C   0  0  0  0  0  0  0  0  0  0  0  0
   -2.8130    3.5370    1.0460 C   0  0  0  0  0  0  0  0  0  0  0  0
   -4.0810    3.0180    0.8970 C   0  0  0  0  0  0  0  0  0  0  0  0
   -5.1940    3.8260    0.8940 C   0  0  0  0  0  0  0  0  0  0  0  0
   -6.4300    3.2440    0.7420 C   0  0  0  0  0  0  0  0  0  0  0  0
   -6.5070    1.8670    0.5970 C   0  0  0  0  0  0  0  0  0  0  0  0
   -5.4270    1.0990    0.6020 N   0  0  0  0  0  0  0  0  0  0  0  0
   -4.2050    1.6290    0.7480 C   0  0  0  0  0  0  0  0  0  0  0  0
   -0.4290    3.2770    1.2010 O   0  0  0  0  0  0  0  0  0  0  0  0
    0.6620    2.4780    0.7760 C   0  0  0  0  0  0  0  0  0  0  0  0
    0.4860    1.1250    1.3850 C   0  0  2  0  0  0  0  0  0  0  0  0
    1.6830    0.2210    1.2320 C   0  0  0  0  0  0  0  0  0  0  0  0
    1.9780   -0.1660   -0.0880 N   0  0  0  0  0  0  0  0  0  0  0  0
    3.0130    0.4620   -0.7830 C   0  0  2  0  0  0  0  0  0  0  0  0
    3.3900   -0.4010   -1.9650 C   0  0  0  0  0  0  0  0  0  0  0  0
    4.4680   -1.0980   -1.7420 C   0  0  0  0  0  0  0  0  0  0  0  0
    5.4960   -2.0720   -2.1650 C   0  0  0  0  0  0  0  0  0  0  0  0
    6.5760   -1.9170   -1.4300 C   0  0  0  0  0  0  0  0  0  0  0  0
    6.3590   -0.8540   -0.4820 N   0  0  2  0  0  0  0  0  0  0  0  0
    6.9010   -1.3140    0.7830 C   0  0  0  0  0  0  0  0  0  0  0  0
    4.9170   -0.7950   -0.3320 C   0  0  1  0  0  0  0  0  0  0  0  0
    4.3450    0.5600   -0.1200 C   0  0  0  0  0  0  0  0  0  0  0  0
   -0.7120    0.5160    0.9010 O   0  0  0  0  0  0  0  0  0  0  0  0
  1  2  1  0
  2  3  1  0
  3  4  1  0
  4  5  1  0
  5  6  2  0
  5  7  1  0
  7  8  2  0
  7 16  1  0
  8  9  1  0
  8 31  1  0
  9 10  2  0
  9 17  1  0
 10 11  1  0
 11 12  2  0
 11 16  1  0
 12 13  1  0
 13 14  2  0
 14 15  1  0
 15 16  2  0
 17 18  1  0
 18 19  1  0
 19 20  1  6
 19 31  1  0
 20 21  1  0
 22 21  1  1
 22 23  1  0
 22 30  1  0
 23 24  2  0
 24 25  1  0
 24 29  1  0
 25 26  2  0
 26 27  1  0
 27 28  1  1
 27 29  1  0
 29 30  1  6
M  CHG  2  21   1  27   1
M  END
