
     RDKit          3D

 31 34  0  0  0  0  0  0  0  0999 V2000
   -3.8000    3.2230   -1.0670 C   0  0  0  0  0  0  0  0  0  0  0  0
   -4.7440    2.4560   -0.2320 N   0  0  0  0  0  0  0  0  0  0  0  0
   -5.4190    3.1940    0.7590 C   0  0  0  0  0  0  0  0  0  0  0  0
   -6.2060    2.6830    1.5460 O   0  0  0  0  0  0  0  0  0  0  0  0
   -4.9960    1.0660   -0.4550 C   0  0  0  0  0  0  0  0  0  0  0  0
   -4.1610    0.1400    0.4040 C   0  0  0  0  0  0  0  0  0  0  0  0
   -2.7630    0.2880    0.2800 N   0  0  0  0  0  0  0  0  0  0  0  0
   -2.1900   -0.7180   -0.6990 C   0  0  2  0  0  0  0  0  0  0  0  0
   -2.5360   -2.0610   -0.1920 C   0  0  0  0  0  0  0  0  0  0  0  0
   -2.5870   -2.3160    1.1740 C   0  0  0  0  0  0  0  0  0  0  0  0
   -3.0070   -3.5280    1.6580 C   0  0  0  0  0  0  0  0  0  0  0  0
   -3.4020   -4.5640    0.8200 C   0  0  0  0  0  0  0  0  0  0  0  0
   -3.3590   -4.3340   -0.5220 C   0  0  0  0  0  0  0  0  0  0  0  0
   -2.9290   -3.0870   -1.0160 C   0  0  0  0  0  0  0  0  0  0  0  0
   -2.8870   -3.0190   -2.4750 C   0  0  0  0  0  0  0  0  0  0  0  0
   -2.6850   -1.8720   -3.0110 O   0  0  0  0  0  0  0  0  0  0  0  0
   -0.6880   -0.4760   -0.6220 C   0  0  1  0  0  0  0  0  0  0  0  0
   -0.3110    0.9650   -0.9260 C   0  0  0  0  0  0  0  0  0  0  0  0
    1.1920    0.9320   -1.1150 C   0  0  0  0  0  0  0  0  0  0  0  0
    1.7580    0.7620    0.3020 C   0  0  2  0  0  0  0  0  0  0  0  0
    3.2260    0.9590    0.2880 C   0  0  0  0  0  0  0  0  0  0  0  0
    3.7780    2.0770    0.8860 C   0  0  0  0  0  0  0  0  0  0  0  0
    5.1470    2.3170    0.8710 C   0  0  0  0  0  0  0  0  0  0  0  0
    5.9610    1.3900    0.2300 C   0  0  0  0  0  0  0  0  0  0  0  0
    5.4500    0.2700   -0.3730 C   0  0  0  0  0  0  0  0  0  0  0  0
    4.0940    0.0920   -0.3230 C   0  0  0  0  0  0  0  0  0  0  0  0
    6.5650   -0.5460   -0.9830 C   0  0  0  0  0  0  0  0  0  0  0  0
    7.7910    0.0610   -0.3860 C   0  0  0  0  0  0  0  0  0  0  0  0
    7.4310    1.4360    0.0820 C   0  0  0  0  0  0  0  0  0  0  0  0
    1.2950   -0.4950    0.9290 C   0  0  0  0  0  0  0  0  0  0  0  0
    0.1660   -1.2260    0.2670 C   0  0  0  0  0  0  0  0  0  0  0  0
  1  2  1  0
  2  3  1  0
  2  5  1  0
  3  4  2  0
  5  6  1  0
  6  7  1  0
  8  7  1  1
  8  9  1  0
  8 17  1  0
  9 10  2  0
  9 14  1  0
 10 11  1  0
 11 12  2  0
 12 13  1  0
 13 14  2  0
 14 15  1  0
 15 16  2  0
 17 18  1  1
 17 31  1  0
 18 19  1  0
 19 20  1  0
 20 21  1  6
 20 30  1  0
 21 22  2  0
 21 26  1  0
 22 23  1  0
 23 24  2  0
 24 25  1  0
 24 29  1  0
 25 26  2  0
 25 27  1  0
 27 28  1  0
 28 29  1  0
 30 31  1  0
M  CHG  1   7   1
M  END
