
     RDKit          3D

 27 29  0  0  0  0  0  0  0  0999 V2000
    4.5590   -3.1980   -0.1980 C   0  0  0  0  0  0  0  0  0  0  0  0
    4.7290   -1.9840    0.2450 C   0  0  0  0  0  0  0  0  0  0  0  0
    5.3110   -1.7980    1.5410 N   0  0  0  0  0  0  0  0  0  0  0  0
    5.5380   -0.5010    2.0650 C   0  0  0  0  0  0  0  0  0  0  0  0
    5.1970    0.5310    1.3220 C   0  0  0  0  0  0  0  0  0  0  0  0
    5.4230    1.7960    1.8420 O   0  0  0  0  0  0  0  0  0  0  0  0
    4.6080    0.3920    0.0110 C   0  0  0  0  0  0  0  0  0  0  0  0
    4.3650   -0.8110   -0.5420 C   0  0  0  0  0  0  0  0  0  0  0  0
    3.8030   -0.9010   -1.7830 O   0  0  0  0  0  0  0  0  0  0  0  0
    2.5040   -1.2390   -2.0960 C   0  0  0  0  0  0  0  0  0  0  0  0
    1.4720   -0.3360   -1.5210 C   0  0  0  0  0  0  0  0  0  0  0  0
    1.8100    0.6330   -0.8080 O   0  0  0  0  0  0  0  0  0  0  0  0
    0.1000   -0.5610   -1.7720 N   0  0  0  0  0  0  0  0  0  0  0  0
   -0.8240    0.4050   -1.1470 C   0  0  0  0  0  0  0  0  0  0  0  0
   -1.6900   -0.0500   -0.3040 C   0  0  0  0  0  0  0  0  0  0  0  0
   -2.6810    0.6910    0.4230 C   0  0  0  0  0  0  0  0  0  0  0  0
   -2.9770    1.9440    0.4460 N   0  0  0  0  0  0  0  0  0  0  0  0
   -4.0470    2.1790    1.3350 C   0  0  0  0  0  0  0  0  0  0  0  0
   -4.3730    3.2590    1.8410 O   0  0  0  0  0  0  0  0  0  0  0  0
   -4.6690    0.8530    1.5080 C   0  0  1  0  0  0  0  0  0  0  0  0
   -5.7080    0.5560    0.4560 C   0  0  1  0  0  0  0  0  0  0  0  0
   -6.3690   -0.8000    0.6010 C   0  0  0  0  0  0  0  0  0  0  0  0
   -7.1290    0.4130    1.0370 C   0  0  0  0  0  0  0  0  0  0  0  0
   -3.5580    0.0110    1.3170 O   0  0  0  0  0  0  0  0  0  0  0  0
   -0.6820    1.7810   -1.5400 C   0  0  0  0  0  0  0  0  0  0  0  0
    0.3670    2.0730   -2.5250 N   0  0  0  0  0  0  0  0  0  0  0  0
   -1.3600    2.7380   -1.1270 O   0  0  0  0  0  0  0  0  0  0  0  0
  1  2  2  0
  2  3  1  0
  2  8  1  0
  3  4  1  0
  4  5  2  0
  5  6  1  0
  5  7  1  0
  7  8  2  0
  8  9  1  0
  9 10  1  0
 10 11  1  0
 11 12  2  0
 11 13  1  0
 13 14  1  0
 14 15  2  3
 14 25  1  0
 15 16  1  0
 16 17  2  0
 16 24  1  0
 17 18  1  0
 18 19  2  0
 18 20  1  0
 20 21  1  0
 20 24  1  6
 21 22  1  1
 21 23  1  0
 22 23  1  0
 25 26  1  0
 25 27  2  0
M  END
