
     RDKit          3D

 27 28  0  0  0  0  0  0  0  0999 V2000
   -4.1910   -3.1280    1.8080 C   0  0  0  0  0  0  0  0  0  0  0  0
   -3.4880   -2.8530    0.6200 O   0  0  0  0  0  0  0  0  0  0  0  0
   -2.4310   -1.9650    0.5340 C   0  0  0  0  0  0  0  0  0  0  0  0
   -1.2170   -2.5930    0.4300 C   0  0  0  0  0  0  0  0  0  0  0  0
    0.0100   -1.7870    0.3420 C   0  0  0  0  0  0  0  0  0  0  0  0
    0.9640   -2.1430   -0.7300 C   0  0  1  0  0  0  0  0  0  0  0  0
    0.3380   -2.4440   -2.0010 N   0  0  0  0  0  0  0  0  0  0  0  0
    1.8370   -1.0440   -0.9730 O   0  0  0  0  0  0  0  0  0  0  0  0
    2.0810    0.1240   -0.3500 C   0  0  0  0  0  0  0  0  0  0  0  0
    3.2760    0.3880    0.2260 C   0  0  0  0  0  0  0  0  0  0  0  0
    4.3760   -0.5950    0.1990 C   0  0  0  0  0  0  0  0  0  0  0  0
    5.4500   -0.2860    0.7490 O   0  0  0  0  0  0  0  0  0  0  0  0
    3.5560    1.6650    0.9090 C   0  0  0  0  0  0  0  0  0  0  0  0
    2.9950    2.8450    0.2050 C   0  0  0  0  0  0  0  0  0  0  0  0
    1.8710    2.5120   -0.6980 C   0  0  0  0  0  0  0  0  0  0  0  0
    1.1000    1.2640   -0.2150 C   0  0  2  0  0  0  0  0  0  0  0  0
    0.5990    1.4690    1.1090 N   0  0  0  0  0  0  0  0  0  0  0  0
   -0.3240    2.3610    1.6360 C   0  0  0  0  0  0  0  0  0  0  0  0
    0.1460    3.0520    2.6430 O   0  0  0  0  0  0  0  0  0  0  0  0
   -1.7040    2.6450    1.2610 C   0  0  0  0  0  0  0  0  0  0  0  0
   -2.2890    3.5820    1.9000 O   0  0  0  0  0  0  0  0  0  0  0  0
   -2.4990    2.0010    0.2550 N   0  0  0  0  0  0  0  0  0  0  0  0
   -2.3940    0.5840   -0.1740 C   0  0  0  0  0  0  0  0  0  0  0  0
   -2.3430    0.6240   -1.6470 C   0  0  0  0  0  0  0  0  0  0  0  0
   -2.2060   -0.4510   -2.5540 N   0  0  0  0  0  0  0  0  0  0  0  0
   -2.4320    1.7710   -2.2210 O   0  0  0  0  0  0  0  0  0  0  0  0
   -2.4920   -0.4900    0.5420 C   0  0  0  0  0  0  0  0  0  0  0  0
  1  2  1  0
  2  3  1  0
  3  4  2  0
  3 27  1  0
  4  5  1  0
  5  6  1  0
  6  7  1  6
  6  8  1  0
  8  9  1  0
  9 10  2  0
  9 16  1  0
 10 11  1  0
 10 13  1  0
 11 12  2  0
 13 14  1  0
 14 15  1  0
 16 15  1  1
 16 17  1  0
 17 18  1  0
 18 19  2  0
 18 20  1  0
 20 21  2  0
 20 22  1  0
 22 23  1  0
 23 24  1  0
 23 27  2  0
 24 25  1  0
 24 26  2  0
M  END
