
     RDKit          3D

 27 29  0  0  0  0  0  0  0  0999 V2000
   -5.4580   -2.1240    1.4160 C   0  0  0  0  0  0  0  0  0  0  0  0
   -4.4720   -2.0130    0.3450 N   0  0  0  0  0  0  0  0  0  0  0  0
   -4.1460   -0.7790   -0.2620 C   0  0  0  0  0  0  0  0  0  0  0  0
   -4.6960    0.2760    0.0980 O   0  0  0  0  0  0  0  0  0  0  0  0
   -3.1210   -0.6860   -1.3710 C   0  0  2  0  0  0  0  0  0  0  0  0
   -2.7420   -1.9830   -1.6140 O   0  0  0  0  0  0  0  0  0  0  0  0
   -1.3950   -2.1390   -1.3800 C   0  0  0  0  0  0  0  0  0  0  0  0
   -0.7920   -3.2670   -1.5240 O   0  0  0  0  0  0  0  0  0  0  0  0
   -0.8740   -0.8550   -0.9730 C   0  0  0  0  0  0  0  0  0  0  0  0
    0.4610   -0.4470   -0.6110 C   0  0  0  0  0  0  0  0  0  0  0  0
    1.5760   -1.0840   -0.5410 C   0  0  0  0  0  0  0  0  0  0  0  0
    1.9790   -2.4080   -0.7760 N   0  0  0  0  0  0  0  0  0  0  0  0
    3.4020   -2.5440   -0.5250 C   0  0  0  0  0  0  0  0  0  0  0  0
    4.0980   -3.5840   -0.6340 O   0  0  0  0  0  0  0  0  0  0  0  0
    3.8870   -1.2690   -0.1250 C   0  0  0  0  0  0  0  0  0  0  0  0
    5.0320   -0.5730    0.2680 C   0  0  0  0  0  0  0  0  0  0  0  0
    6.3940   -1.1370    0.4050 C   0  0  0  0  0  0  0  0  0  0  0  0
    4.6800    0.6930    0.4990 N   0  0  0  0  0  0  0  0  0  0  0  0
    3.3750    0.8240    0.2710 C   0  0  0  0  0  0  0  0  0  0  0  0
    2.6140    2.1030    0.4240 C   0  0  0  0  0  0  0  0  0  0  0  0
    2.8340   -0.3970   -0.1270 C   0  0  0  0  0  0  0  0  0  0  0  0
   -1.9100    0.0320   -0.9680 C   0  0  0  0  0  0  0  0  0  0  0  0
   -1.7440    1.3570   -0.6310 O   0  0  0  0  0  0  0  0  0  0  0  0
   -2.5780    2.2740   -0.0640 C   0  0  0  0  0  0  0  0  0  0  0  0
   -1.7990    3.5710    0.0520 C   0  0  0  0  0  0  0  0  0  0  0  0
   -2.4190    4.7200    0.6130 N   0  0  0  0  0  0  0  0  0  0  0  0
   -0.6110    3.6370   -0.3450 O   0  0  0  0  0  0  0  0  0  0  0  0
  1  2  1  0
  2  3  1  0
  3  4  2  0
  5  3  1  1
  5  6  1  0
  5 22  1  0
  6  7  1  0
  7  8  2  0
  7  9  1  0
  9 10  1  0
  9 22  2  0
 10 11  2  3
 11 12  1  0
 11 21  1  0
 12 13  1  0
 13 14  2  0
 13 15  1  0
 15 16  2  0
 15 21  1  0
 16 17  1  0
 16 18  1  0
 18 19  1  0
 19 20  1  0
 19 21  2  0
 22 23  1  0
 23 24  1  0
 24 25  1  0
 25 26  1  0
 25 27  2  0
M  END
