
     RDKit          3D

 16 17  0  0  0  0  0  0  0  0999 V2000
    4.1800   -0.8090    1.2810 O   0  0  0  0  0  0  0  0  0  0  0  0
    4.4530    0.1520    0.5360 C   0  0  0  0  0  0  0  0  0  0  0  0
    5.8050    0.3830    0.2780 O   0  0  0  0  0  0  0  0  0  0  0  0
    3.5010    1.0710   -0.1000 C   0  0  0  0  0  0  0  0  0  0  0  0
    2.0380    0.7190    0.1710 C   0  0  0  0  0  0  0  0  0  0  0  0
    1.6870   -0.6230   -0.3630 C   0  0  0  0  0  0  0  0  0  0  0  0
    0.3060   -1.1260   -0.1160 C   0  0  0  0  0  0  0  0  0  0  0  0
   -0.7530   -0.2870   -0.6770 C   0  0  2  0  0  0  0  0  0  0  0  0
   -0.8610    1.3950   -0.0380 S   0  0  0  0  0  0  0  0  0  0  0  0
   -2.6890    1.5700    0.0100 C   0  0  0  0  0  0  0  0  0  0  0  0
   -3.1130    0.3140   -0.7070 C   0  0  2  0  0  0  0  0  0  0  0  0
   -4.3100   -0.1590    0.0100 N   0  0  0  0  0  0  0  0  0  0  0  0
   -3.7840   -0.7500    1.2050 C   0  0  0  0  0  0  0  0  0  0  0  0
   -4.4980   -0.9550    2.2210 O   0  0  0  0  0  0  0  0  0  0  0  0
   -2.4010   -1.0270    1.0030 N   0  0  0  0  0  0  0  0  0  0  0  0
   -2.1530   -0.7800   -0.3880 C   0  0  2  0  0  0  0  0  0  0  0  0
  1  2  2  0
  2  3  1  0
  2  4  1  0
  4  5  1  0
  5  6  1  0
  6  7  1  0
  8  7  1  1
  8  9  1  0
  8 16  1  0
  9 10  1  0
 11 10  1  1
 11 12  1  0
 11 16  1  0
 12 13  1  0
 13 14  2  0
 13 15  1  0
 16 15  1  1
M  END
