
     RDKit          3D

 27 29  0  0  0  0  0  0  0  0999 V2000
    5.7010    2.5620   -1.9510 C   0  0  0  0  0  0  0  0  0  0  0  0
    5.2080    2.1230   -0.6250 C   0  0  0  0  0  0  0  0  0  0  0  0
    5.6650    2.6340    0.4470 O   0  0  0  0  0  0  0  0  0  0  0  0
    4.2070    1.1170   -0.5480 N   0  0  0  0  0  0  0  0  0  0  0  0
    3.6960    0.6580    0.7190 C   0  0  0  0  0  0  0  0  0  0  0  0
    2.6770   -0.3820    0.4760 C   0  0  0  0  0  0  0  0  0  0  0  0
    2.3850   -0.7290   -0.6820 O   0  0  0  0  0  0  0  0  0  0  0  0
    2.0500   -0.9660    1.5620 O   0  0  0  0  0  0  0  0  0  0  0  0
    1.0570   -1.9750    1.4070 C   0  0  1  0  0  0  0  0  0  0  0  0
    1.6880   -3.1390    0.6220 C   0  0  0  0  0  0  0  0  0  0  0  0
    0.7500   -2.5080    2.7870 C   0  0  0  0  0  0  0  0  0  0  0  0
   -0.1440   -1.5100    0.6850 C   0  0  0  0  0  0  0  0  0  0  0  0
   -0.6190   -0.3020    0.4560 C   0  0  0  0  0  0  0  0  0  0  0  0
   -0.1580    0.9900    0.8320 N   0  0  0  0  0  0  0  0  0  0  0  0
   -0.7710    2.1050    0.2020 C   0  0  0  0  0  0  0  0  0  0  0  0
   -0.1230    3.2000    0.2200 O   0  0  0  0  0  0  0  0  0  0  0  0
   -2.0810    2.0590   -0.4500 C   0  0  0  0  0  0  0  0  0  0  0  0
   -2.7600    0.7180   -0.0850 C   0  0  1  0  0  0  0  0  0  0  0  0
   -4.0480    0.6660   -0.8430 C   0  0  0  0  0  0  0  0  0  0  0  0
   -4.4230   -0.1340   -1.7700 C   0  0  0  0  0  0  0  0  0  0  0  0
   -5.8200    0.2210   -2.2160 C   0  0  0  0  0  0  0  0  0  0  0  0
   -6.2370    1.1080   -1.2520 O   0  0  0  0  0  0  0  0  0  0  0  0
   -5.1270    1.5750   -0.6190 N   0  0  0  0  0  0  0  0  0  0  0  0
   -1.8300   -0.3750   -0.4540 C   0  0  2  0  0  0  0  0  0  0  0  0
   -2.2800   -1.7060   -0.2770 N   0  0  0  0  0  0  0  0  0  0  0  0
   -1.1700   -2.4630    0.2270 C   0  0  0  0  0  0  0  0  0  0  0  0
   -1.0660   -3.7120    0.2800 O   0  0  0  0  0  0  0  0  0  0  0  0
  1  2  1  0
  2  3  2  0
  2  4  1  0
  4  5  1  0
  5  6  1  0
  6  7  2  0
  6  8  1  0
  8  9  1  0
  9 10  1  6
  9 11  1  0
  9 12  1  0
 12 13  2  0
 12 26  1  0
 13 14  1  0
 13 24  1  0
 14 15  1  0
 15 16  2  0
 15 17  1  0
 17 18  1  0
 18 19  1  6
 18 24  1  0
 19 20  2  0
 19 23  1  0
 20 21  1  0
 21 22  1  0
 22 23  1  0
 24 25  1  1
 25 26  1  0
 26 27  2  0
M  END
