
     RDKit          3D

 27 29  0  0  0  0  0  0  0  0999 V2000
    7.1370   -2.7170    1.7290 C   0  0  0  0  0  0  0  0  0  0  0  0
    6.4440   -1.5700    1.2890 O   0  0  0  0  0  0  0  0  0  0  0  0
    5.0730   -1.5160    1.4190 C   0  0  0  0  0  0  0  0  0  0  0  0
    4.3940   -2.2670    2.3100 C   0  0  0  0  0  0  0  0  0  0  0  0
    2.9620   -2.1520    2.3800 C   0  0  0  0  0  0  0  0  0  0  0  0
    2.2010   -1.3380    1.6180 C   0  0  0  0  0  0  0  0  0  0  0  0
    0.7820   -1.3730    1.8420 C   0  0  0  0  0  0  0  0  0  0  0  0
    0.0490   -1.9040    2.5390 O   0  0  0  0  0  0  0  0  0  0  0  0
    0.0150   -0.3010    0.6930 N   0  0  0  0  0  0  0  0  0  0  0  0
   -1.2820   -0.6130    1.0230 C   0  0  0  0  0  0  0  0  0  0  0  0
   -1.8380   -1.2430    1.8600 O   0  0  0  0  0  0  0  0  0  0  0  0
   -2.2010    0.0430    0.0170 N   0  0  0  0  0  0  0  0  0  0  0  0
   -3.5830   -0.0280    0.0700 C   0  0  2  0  0  0  0  0  0  0  0  0
   -4.3390   -1.2530   -0.3430 C   0  0  0  0  0  0  0  0  0  0  0  0
   -4.3090   -0.1440   -1.2620 C   0  0  1  0  0  0  0  0  0  0  0  0
   -5.3390    0.8830   -1.5360 C   0  0  1  0  0  0  0  0  0  0  0  0
   -6.3880    1.0970   -0.5060 C   0  0  0  0  0  0  0  0  0  0  0  0
   -6.5940    2.6150   -0.6400 C   0  0  0  0  0  0  0  0  0  0  0  0
   -5.3100    3.0670   -0.8330 O   0  0  0  0  0  0  0  0  0  0  0  0
   -4.7960    2.2650   -1.8180 C   0  0  0  0  0  0  0  0  0  0  0  0
    2.8940   -0.5700    0.7120 O   0  0  0  0  0  0  0  0  0  0  0  0
    4.2610   -0.6140    0.5730 C   0  0  0  0  0  0  0  0  0  0  0  0
    4.9220    0.1330   -0.3070 C   0  0  0  0  0  0  0  0  0  0  0  0
    4.1880    1.0220   -1.1500 N   0  0  0  0  0  0  0  0  0  0  0  0
    4.7580    1.8680   -2.1230 C   0  0  0  0  0  0  0  0  0  0  0  0
    3.9660    2.7500   -2.9370 N   0  0  0  0  0  0  0  0  0  0  0  0
    6.0200    1.8360   -2.2710 O   0  0  0  0  0  0  0  0  0  0  0  0
  1  2  1  0
  2  3  1  0
  3  4  2  0
  3 22  1  0
  4  5  1  0
  5  6  2  0
  6  7  1  0
  6 21  1  0
  7  8  2  0
  7  9  1  0
  9 10  1  0
 10 11  2  0
 10 12  1  0
 13 12  1  6
 13 14  1  0
 13 15  1  0
 15 14  1  1
 15 16  1  0
 16 17  1  1
 16 20  1  0
 17 18  1  0
 18 19  1  0
 19 20  1  0
 21 22  1  0
 22 23  2  3
 23 24  1  0
 24 25  1  0
 25 26  1  0
 25 27  2  0
M  END
