
     RDKit          3D

 27 29  0  0  0  0  0  0  0  0999 V2000
   -2.7320   -1.1930   -3.2930 C   0  0  0  0  0  0  0  0  0  0  0  0
   -2.0850   -1.1460   -1.9810 C   0  0  0  0  0  0  0  0  0  0  0  0
   -2.4560   -0.5910   -0.8740 C   0  0  0  0  0  0  0  0  0  0  0  0
   -1.6380   -0.6960    0.2630 O   0  0  0  0  0  0  0  0  0  0  0  0
   -1.6490    0.3270    1.2530 C   0  0  1  0  0  0  0  0  0  0  0  0
   -1.0160    1.5950    0.7540 C   0  0  0  0  0  0  0  0  0  0  0  0
    0.3460    1.3550    0.3810 N   0  0  0  0  0  0  0  0  0  0  0  0
    1.3540    0.8930    1.2530 C   0  0  0  0  0  0  0  0  0  0  0  0
    1.0900    0.6610    2.4570 O   0  0  0  0  0  0  0  0  0  0  0  0
    2.7680    0.6600    0.7890 C   0  0  1  0  0  0  0  0  0  0  0  0
    3.3160    2.0430    0.4000 C   0  0  0  0  0  0  0  0  0  0  0  0
    3.5780    0.1940    1.8810 N   0  0  0  0  0  0  0  0  0  0  0  0
    3.7170   -1.1930    2.0720 C   0  0  0  0  0  0  0  0  0  0  0  0
    3.8130   -1.6870    3.2180 O   0  0  0  0  0  0  0  0  0  0  0  0
    3.7500   -2.0780    0.8990 C   0  0  2  0  0  0  0  0  0  0  0  0
    5.1560   -2.5350    0.5610 C   0  0  0  0  0  0  0  0  0  0  0  0
    5.9220   -1.5090    0.0150 O   0  0  0  0  0  0  0  0  0  0  0  0
    3.0510   -1.6080   -0.2500 N   0  0  0  0  0  0  0  0  0  0  0  0
    2.7750   -0.2240   -0.3890 C   0  0  0  0  0  0  0  0  0  0  0  0
    2.5280    0.2970   -1.5110 O   0  0  0  0  0  0  0  0  0  0  0  0
   -3.0830    0.5370    1.6710 C   0  0  0  0  0  0  0  0  0  0  0  0
   -3.9750    0.7060    0.5500 N   0  0  0  0  0  0  0  0  0  0  0  0
   -5.2260    1.3890    0.4500 C   0  0  0  0  0  0  0  0  0  0  0  0
   -5.7650    2.0060    1.4180 O   0  0  0  0  0  0  0  0  0  0  0  0
   -5.7210    1.2360   -0.9140 C   0  0  0  0  0  0  0  0  0  0  0  0
   -4.6590    0.4310   -1.5960 C   0  0  0  0  0  0  0  0  0  0  0  0
   -3.6900    0.1510   -0.7210 C   0  0  0  0  0  0  0  0  0  0  0  0
  1  2  1  0
  2  3  2  3
  3  4  1  0
  3 27  1  0
  4  5  1  0
  5  6  1  6
  5 21  1  0
  6  7  1  0
  7  8  1  0
  8  9  2  0
  8 10  1  0
 10 11  1  6
 10 12  1  0
 10 19  1  0
 12 13  1  0
 13 14  2  0
 13 15  1  0
 15 16  1  6
 15 18  1  0
 16 17  1  0
 18 19  1  0
 19 20  2  0
 21 22  1  0
 22 23  1  0
 22 27  1  0
 23 24  2  0
 23 25  1  0
 25 26  1  0
 26 27  2  0
M  END
