
     RDKit          3D

 27 28  0  0  0  0  0  0  0  0999 V2000
   -6.5590   -0.6620   -1.6370 C   0  0  0  0  0  0  0  0  0  0  0  0
   -6.0960   -0.1370   -0.5290 C   0  0  0  0  0  0  0  0  0  0  0  0
   -6.4900    1.1860   -0.1150 C   0  0  0  0  0  0  0  0  0  0  0  0
   -7.3010    1.9600   -0.7780 N   0  0  0  0  0  0  0  0  0  0  0  0
   -5.1480   -0.9150    0.2850 C   0  0  1  0  0  0  0  0  0  0  0  0
   -5.0410   -2.2340   -0.1820 O   0  0  0  0  0  0  0  0  0  0  0  0
   -3.8130   -0.2150    0.2530 C   0  0  2  0  0  0  0  0  0  0  0  0
   -2.7470   -1.0090    0.9800 C   0  0  0  0  0  0  0  0  0  0  0  0
   -1.5320   -0.1890    0.9470 N   0  0  0  0  0  0  0  0  0  0  0  0
   -0.3060   -0.6950    0.4530 C   0  0  0  0  0  0  0  0  0  0  0  0
   -0.2370   -1.8710    0.0280 O   0  0  0  0  0  0  0  0  0  0  0  0
    0.8610    0.1440    0.4390 C   0  0  0  0  0  0  0  0  0  0  0  0
    0.7960    1.3160    0.8620 O   0  0  0  0  0  0  0  0  0  0  0  0
    2.0860   -0.3460   -0.0490 N   0  0  0  0  0  0  0  0  0  0  0  0
    3.2480    0.5260   -0.0500 C   0  0  1  0  0  0  0  0  0  0  0  0
    4.2550   -0.0940    0.8410 C   0  0  0  0  0  0  0  0  0  0  0  0
    5.4550   -0.4650    0.4370 C   0  0  0  0  0  0  0  0  0  0  0  0
    6.4060   -1.0610    1.3190 N   0  0  0  0  0  0  0  0  0  0  0  0
    5.8960   -0.2920   -0.9440 C   0  0  0  0  0  0  0  0  0  0  0  0
    7.1620   -0.6880   -1.3530 O   0  0  0  0  0  0  0  0  0  0  0  0
    8.2260    0.2180   -1.0560 C   0  0  0  0  0  0  0  0  0  0  0  0
    5.0710    0.2520   -1.8190 C   0  0  0  0  0  0  0  0  0  0  0  0
    3.7410    0.6800   -1.4360 C   0  0  0  0  0  0  0  0  0  0  0  0
    2.9830    1.2040   -2.3360 O   0  0  0  0  0  0  0  0  0  0  0  0
   -1.6690    1.1640    1.4500 C   0  0  0  0  0  0  0  0  0  0  0  0
   -3.1310    1.3700    1.7900 C   0  0  0  0  0  0  0  0  0  0  0  0
   -3.9590    1.0520    0.7230 O   0  0  0  0  0  0  0  0  0  0  0  0
  1  2  2  0
  2  3  1  0
  2  5  1  0
  3  4  2  0
  5  6  1  6
  5  7  1  0
  7  8  1  1
  7 27  1  0
  8  9  1  0
  9 10  1  0
  9 25  1  0
 10 11  2  0
 10 12  1  0
 12 13  2  0
 12 14  1  0
 15 14  1  6
 15 16  1  0
 15 23  1  0
 16 17  2  0
 17 18  1  0
 17 19  1  0
 19 20  1  0
 19 22  2  0
 20 21  1  0
 22 23  1  0
 23 24  2  0
 25 26  1  0
 26 27  1  0
M  END
