
     RDKit          3D

 27 28  0  0  0  0  0  0  0  0999 V2000
   -2.4420   -4.8600    2.2720 C   0  0  0  0  0  0  0  0  0  0  0  0
   -1.5000   -3.7730    2.7550 C   0  0  0  0  0  0  0  0  0  0  0  0
   -1.3780   -2.7660    1.6680 C   0  0  0  0  0  0  0  0  0  0  0  0
   -1.7090   -1.5120    1.8010 C   0  0  0  0  0  0  0  0  0  0  0  0
   -1.5900   -0.5310    0.7420 C   0  0  0  0  0  0  0  0  0  0  0  0
   -1.9550    0.7520    0.9420 C   0  0  0  0  0  0  0  0  0  0  0  0
   -2.4520    0.9850    2.3110 N   0  0  0  0  0  0  0  0  0  0  0  0
   -1.9720    1.8110    0.0370 N   0  0  0  0  0  0  0  0  0  0  0  0
   -1.0010    2.3840   -0.8510 C   0  0  0  0  0  0  0  0  0  0  0  0
   -1.1910    2.6970   -2.1310 C   0  0  0  0  0  0  0  0  0  0  0  0
    0.0140    3.2720   -2.7540 C   0  0  0  0  0  0  0  0  0  0  0  0
    0.9530    3.2530   -1.6170 C   0  0  0  0  0  0  0  0  0  0  0  0
    0.3560    2.7420   -0.5420 C   0  0  0  0  0  0  0  0  0  0  0  0
    0.9620    2.5640    0.8030 C   0  0  0  0  0  0  0  0  0  0  0  0
    1.7270    3.5170    1.1740 O   0  0  0  0  0  0  0  0  0  0  0  0
    0.8030    1.5020    1.7090 N   0  0  0  0  0  0  0  0  0  0  0  0
    1.1920    0.1730    1.5550 N   0  0  0  0  0  0  0  0  0  0  0  0
    1.8980   -0.4150    0.4880 C   0  0  0  0  0  0  0  0  0  0  0  0
    3.1230   -0.7970    0.7030 O   0  0  0  0  0  0  0  0  0  0  0  0
    1.3930   -0.6560   -0.8710 C   0  0  2  0  0  0  0  0  0  0  0  0
    2.2600   -0.0110   -1.9320 C   0  0  0  0  0  0  0  0  0  0  0  0
    1.7120    0.4630   -2.9490 O   0  0  0  0  0  0  0  0  0  0  0  0
    3.6180    0.0630   -1.7990 O   0  0  0  0  0  0  0  0  0  0  0  0
    4.4620    0.6670   -2.7850 C   0  0  0  0  0  0  0  0  0  0  0  0
    0.0580   -0.5160   -1.1420 O   0  0  0  0  0  0  0  0  0  0  0  0
   -1.0700   -1.0260   -0.5510 C   0  0  0  0  0  0  0  0  0  0  0  0
   -1.7530   -1.9940   -1.1200 O   0  0  0  0  0  0  0  0  0  0  0  0
  1  2  1  0
  2  3  1  0
  3  4  2  3
  4  5  1  0
  5  6  2  0
  5 26  1  0
  6  7  1  0
  6  8  1  0
  8  9  1  0
  9 10  2  0
  9 13  1  0
 10 11  1  0
 11 12  1  0
 12 13  2  0
 13 14  1  0
 14 15  2  0
 14 16  1  0
 16 17  1  0
 17 18  1  0
 18 19  2  0
 18 20  1  0
 20 21  1  6
 20 25  1  0
 21 22  2  0
 21 23  1  0
 23 24  1  0
 25 26  1  0
 26 27  2  0
M  END
