
     RDKit          3D

 12 11  0  0  0  0  0  0  0  0999 V2000
   -4.0170   -1.0610   -0.6140 C   0  0  0  0  0  0  0  0  0  0  0  0
   -2.8540   -0.2620   -0.1760 C   0  0  0  0  0  0  0  0  0  0  0  0
   -3.0910    1.0060    0.5430 C   0  0  0  0  0  0  0  0  0  0  0  0
   -1.6470   -0.6800   -0.4270 C   0  0  0  0  0  0  0  0  0  0  0  0
   -0.4380    0.0400   -0.0350 C   0  0  0  0  0  0  0  0  0  0  0  0
    0.7550   -0.4210   -0.3100 C   0  0  0  0  0  0  0  0  0  0  0  0
    0.8960   -1.9350   -1.1670 Cl  0  0  0  0  0  0  0  0  0  0  0  0
    1.9790    0.2900    0.0770 C   0  0  0  0  0  0  0  0  0  0  0  0
    1.9230    1.4990    0.7600 O   0  0  0  0  0  0  0  0  0  0  0  0
    3.1640   -0.1940   -0.2110 C   0  0  0  0  0  0  0  0  0  0  0  0
    4.4070    0.5040    0.1680 C   0  0  0  0  0  0  0  0  0  0  0  0
    5.1610   -0.3320    1.0090 O   0  0  0  0  0  0  0  0  0  0  0  0
  1  2  1  0
  2  3  1  0
  2  4  2  3
  4  5  1  0
  5  6  2  3
  6  7  1  0
  6  8  1  0
  8  9  1  0
  8 10  2  3
 10 11  1  0
 11 12  1  0
M  END
