
     RDKit          3D

 21 23  0  0  0  0  0  0  0  0999 V2000
   -4.4710    0.4940    1.7560 C   0  0  0  0  0  0  0  0  0  0  0  0
   -4.4960   -0.1110    0.4060 C   0  0  0  0  0  0  0  0  0  0  0  0
   -3.3180   -0.3120   -0.2200 C   0  0  0  0  0  0  0  0  0  0  0  0
   -2.1170    0.0690    0.4550 C   0  0  0  0  0  0  0  0  0  0  0  0
   -0.9360   -0.0730   -0.0280 C   0  0  0  0  0  0  0  0  0  0  0  0
   -0.4720   -0.7750   -1.6520 S   0  0  0  0  0  0  0  0  0  0  0  0
    1.3110   -0.5510   -1.4080 C   0  0  0  0  0  0  0  0  0  0  0  0
    2.4720   -0.7470   -2.0080 N   0  0  0  0  0  0  0  0  0  0  0  0
    3.4130   -0.2940   -1.1370 C   0  0  0  0  0  0  0  0  0  0  0  0
    4.7940   -0.2410   -1.2160 C   0  0  0  0  0  0  0  0  0  0  0  0
    5.5110    0.2710   -0.1800 C   0  0  0  0  0  0  0  0  0  0  0  0
    4.8910    0.7430    0.9540 C   0  0  0  0  0  0  0  0  0  0  0  0
    3.5160    0.6730    0.9960 C   0  0  0  0  0  0  0  0  0  0  0  0
    2.7450    0.1620   -0.0300 C   0  0  0  0  0  0  0  0  0  0  0  0
    1.3760   -0.0070   -0.2110 N   0  0  0  0  0  0  0  0  0  0  0  0
    0.2900    0.2330    0.4760 C   0  0  0  0  0  0  0  0  0  0  0  0
    0.3050    0.7750    1.6770 O   0  0  0  0  0  0  0  0  0  0  0  0
   -3.4260   -0.9140   -1.5710 C   0  0  2  0  0  0  0  0  0  0  0  0
   -2.9360   -0.0220   -2.4900 F   0  0  0  0  0  0  0  0  0  0  0  0
   -4.7750   -1.1690   -1.8670 F   0  0  0  0  0  0  0  0  0  0  0  0
   -2.8190   -2.1580   -1.6590 F   0  0  0  0  0  0  0  0  0  0  0  0
  1  2  1  0
  2  3  2  3
  3  4  1  0
  3 18  1  0
  4  5  2  3
  5  6  1  0
  5 16  1  0
  6  7  1  0
  7  8  2  0
  7 15  1  0
  8  9  1  0
  9 10  2  0
  9 14  1  0
 10 11  1  0
 11 12  2  0
 12 13  1  0
 13 14  2  0
 14 15  1  0
 15 16  1  0
 16 17  2  0
 18 19  1  6
 18 20  1  0
 18 21  1  0
M  END
