
     RDKit          3D

 12 12  0  0  0  0  0  0  0  0999 V2000
   -2.6660   -0.0190   -0.9740 C   0  0  0  0  0  0  0  0  0  0  0  0
   -1.4610    0.0080   -0.0590 C   0  0  2  0  0  0  0  0  0  0  0  0
   -1.5190   -1.2470    0.7880 C   0  0  0  0  0  0  0  0  0  0  0  0
   -1.5370    1.2470    0.7990 C   0  0  0  0  0  0  0  0  0  0  0  0
   -0.2990   -0.0540   -0.8330 O   0  0  0  0  0  0  0  0  0  0  0  0
    0.9930   -0.0490   -0.3260 C   0  0  0  0  0  0  0  0  0  0  0  0
    1.5890   -1.1290    0.1400 C   0  0  0  0  0  0  0  0  0  0  0  0
    2.9630   -1.0650    0.6670 C   0  0  0  0  0  0  0  0  0  0  0  0
    3.5560    0.1990    0.6300 O   0  0  0  0  0  0  0  0  0  0  0  0
    2.9310    1.3340    0.1420 C   0  0  0  0  0  0  0  0  0  0  0  0
    1.6960    1.2250   -0.3210 C   0  0  0  0  0  0  0  0  0  0  0  0
    0.9070    2.6730   -0.9410 Cl  0  0  0  0  0  0  0  0  0  0  0  0
  2  1  1  6
  2  3  1  0
  2  4  1  0
  2  5  1  0
  5  6  1  0
  6  7  2  0
  6 11  1  0
  7  8  1  0
  8  9  1  0
  9 10  1  0
 10 11  2  0
 11 12  1  0
M  END
