
     RDKit          3D

 21 23  0  0  0  0  0  0  0  0999 V2000
    6.1050    0.2980    2.9690 F   0  0  0  0  0  0  0  0  0  0  0  0
    5.6430    0.1240    1.6270 C   0  0  0  0  0  0  0  0  0  0  0  0
    4.2020    0.1810    1.6280 C   0  0  0  0  0  0  0  0  0  0  0  0
    3.3380    0.0790    0.6630 C   0  0  0  0  0  0  0  0  0  0  0  0
    1.9690    0.1600    0.8550 N   0  0  0  0  0  0  0  0  0  0  0  0
    1.3160    0.0240   -0.2880 C   0  0  0  0  0  0  0  0  0  0  0  0
   -0.1460    0.0520   -0.5000 C   0  0  0  0  0  0  0  0  0  0  0  0
   -0.6770   -0.1050   -1.7590 C   0  0  0  0  0  0  0  0  0  0  0  0
   -2.0040   -0.0850   -1.9890 N   0  0  0  0  0  0  0  0  0  0  0  0
   -2.8730    0.0950   -0.9620 C   0  0  0  0  0  0  0  0  0  0  0  0
   -2.3870    0.2570    0.3180 C   0  0  0  0  0  0  0  0  0  0  0  0
   -1.0050    0.2360    0.5570 C   0  0  0  0  0  0  0  0  0  0  0  0
   -3.5200    0.4940    1.6770 S   0  0  0  0  0  0  0  0  0  0  0  0
   -5.1320   -0.1750    1.1330 C   0  0  0  0  0  0  0  0  0  0  0  0
   -5.0050   -0.7910   -0.2520 C   0  0  0  0  0  0  0  0  0  0  0  0
   -4.3150    0.1160   -1.2200 C   0  0  0  0  0  0  0  0  0  0  0  0
    2.2180   -0.1410   -1.2060 O   0  0  0  0  0  0  0  0  0  0  0  0
    3.4570   -0.1170   -0.6880 C   0  0  0  0  0  0  0  0  0  0  0  0
    4.5130   -0.2650   -1.4390 C   0  0  0  0  0  0  0  0  0  0  0  0
    5.7820   -0.2630   -1.0690 F   0  0  0  0  0  0  0  0  0  0  0  0
    4.3070   -0.4480   -2.7910 F   0  0  0  0  0  0  0  0  0  0  0  0
  1  2  1  0
  2  3  1  0
  3  4  2  3
  4  5  1  0
  4 18  1  0
  5  6  2  0
  6  7  1  0
  6 17  1  0
  7  8  2  0
  7 12  1  0
  8  9  1  0
  9 10  2  0
 10 11  1  0
 10 16  1  0
 11 12  2  0
 11 13  1  0
 13 14  1  0
 14 15  1  0
 15 16  1  0
 17 18  1  0
 18 19  2  3
 19 20  1  0
 19 21  1  0
M  END
