
     RDKit          3D

 21 23  0  0  0  0  0  0  0  0999 V2000
    3.7710    1.0690    1.0610 C   0  0  0  0  0  0  0  0  0  0  0  0
    2.5960    0.5260    1.2140 C   0  0  0  0  0  0  0  0  0  0  0  0
    2.0940   -0.0200    2.8940 S   0  0  0  0  0  0  0  0  0  0  0  0
    0.5240   -0.6040    2.4080 C   0  0  0  0  0  0  0  0  0  0  0  0
    0.4370   -0.3780    1.0740 C   0  0  0  0  0  0  0  0  0  0  0  0
    1.5210    0.2090    0.4550 C   0  0  0  0  0  0  0  0  0  0  0  0
    1.5400    0.4350   -0.8850 C   0  0  0  0  0  0  0  0  0  0  0  0
    2.5540    0.9930   -1.7360 C   0  0  1  0  0  0  0  0  0  0  0  0
    3.7290    0.2950   -1.8580 F   0  0  0  0  0  0  0  0  0  0  0  0
    2.0430    0.9650   -3.1050 F   0  0  0  0  0  0  0  0  0  0  0  0
    2.7950    2.3260   -1.5280 F   0  0  0  0  0  0  0  0  0  0  0  0
   -0.9000   -0.8280    0.6980 N   0  0  0  0  0  0  0  0  0  0  0  0
   -1.7480   -0.3770   -0.3160 C   0  0  0  0  0  0  0  0  0  0  0  0
   -1.8410    0.9690   -0.6100 C   0  0  0  0  0  0  0  0  0  0  0  0
   -2.6380    1.4920   -1.5780 C   0  0  0  0  0  0  0  0  0  0  0  0
   -3.3950    0.6510   -2.3080 N   0  0  0  0  0  0  0  0  0  0  0  0
   -3.3250   -0.6670   -2.0440 C   0  0  0  0  0  0  0  0  0  0  0  0
   -2.5370   -1.2210   -1.0810 C   0  0  0  0  0  0  0  0  0  0  0  0
   -1.2840   -1.8740    1.6690 C   0  0  0  0  0  0  0  0  0  0  0  0
   -0.7070   -1.2750    2.9130 C   0  0  0  0  0  0  0  0  0  0  0  0
   -1.0530   -1.2690    4.0770 O   0  0  0  0  0  0  0  0  0  0  0  0
  1  2  2  0
  2  3  1  0
  2  6  1  0
  3  4  1  0
  4  5  2  0
  4 20  1  0
  5  6  1  0
  5 12  1  0
  6  7  2  3
  7  8  1  0
  8  9  1  6
  8 10  1  0
  8 11  1  0
 12 13  1  0
 12 19  1  0
 13 14  2  0
 13 18  1  0
 14 15  1  0
 15 16  2  0
 16 17  1  0
 17 18  2  0
 19 20  1  0
 20 21  2  0
M  END
