
     RDKit          3D

 20 22  0  0  0  0  0  0  0  0999 V2000
   -5.1990    0.9530   -2.6400 N   0  0  0  0  0  0  0  0  0  0  0  0
   -4.2780    0.7210   -1.9820 C   0  0  0  0  0  0  0  0  0  0  0  0
   -3.1410    0.4090   -1.1670 C   0  0  0  0  0  0  0  0  0  0  0  0
   -2.8730   -0.7170   -0.4400 C   0  0  0  0  0  0  0  0  0  0  0  0
   -3.5310   -1.8730   -0.2290 C   0  0  0  0  0  0  0  0  0  0  0  0
   -2.9690   -2.8260    0.5730 C   0  0  0  0  0  0  0  0  0  0  0  0
   -1.3940   -2.0790    1.0970 S   0  0  0  0  0  0  0  0  0  0  0  0
   -1.6600   -0.5280    0.1590 C   0  0  0  0  0  0  0  0  0  0  0  0
   -1.0860    0.6030   -0.0870 C   0  0  0  0  0  0  0  0  0  0  0  0
    0.1270    1.1530    0.3290 N   0  0  0  0  0  0  0  0  0  0  0  0
    1.2430    0.6500    0.6340 C   0  0  0  0  0  0  0  0  0  0  0  0
    1.6530   -0.7560    0.6550 C   0  0  0  0  0  0  0  0  0  0  0  0
    3.1330   -0.7660    0.4110 C   0  0  0  0  0  0  0  0  0  0  0  0
    3.6420    0.5980    0.6850 C   0  0  0  0  0  0  0  0  0  0  0  0
    2.4580    1.3970    1.0670 C   0  0  0  0  0  0  0  0  0  0  0  0
    2.4560    2.5550    1.6710 C   0  0  0  0  0  0  0  0  0  0  0  0
    1.3420    3.2460    1.9870 F   0  0  0  0  0  0  0  0  0  0  0  0
    3.6490    3.1120    2.0130 F   0  0  0  0  0  0  0  0  0  0  0  0
   -2.0210    1.3220   -0.9900 C   0  0  0  0  0  0  0  0  0  0  0  0
   -1.8280    2.4630   -1.4600 O   0  0  0  0  0  0  0  0  0  0  0  0
  1  2  3  0
  2  3  1  0
  3  4  2  0
  3 19  1  0
  4  5  1  0
  4  8  1  0
  5  6  2  0
  6  7  1  0
  7  8  1  0
  8  9  2  0
  9 10  1  0
  9 19  1  0
 10 11  2  3
 11 12  1  0
 11 15  1  0
 12 13  1  0
 13 14  1  0
 14 15  1  0
 15 16  2  3
 16 17  1  0
 16 18  1  0
 19 20  2  0
M  END
