
     RDKit          3D

 21 23  0  0  0  0  0  0  0  0999 V2000
   -1.1330   -3.8780   -0.6490 N   0  0  0  0  0  0  0  0  0  0  0  0
   -0.3010   -3.1190   -0.0800 C   0  0  0  0  0  0  0  0  0  0  0  0
    0.6090   -2.2940    0.5660 C   0  0  0  0  0  0  0  0  0  0  0  0
    1.4030   -2.7700    1.5780 C   0  0  0  0  0  0  0  0  0  0  0  0
    2.3820   -1.9410    2.1790 C   0  0  0  0  0  0  0  0  0  0  0  0
    2.5300   -0.7040    1.7640 C   0  0  0  0  0  0  0  0  0  0  0  0
    1.7110   -0.1940    0.7150 C   0  0  0  0  0  0  0  0  0  0  0  0
    0.7490   -0.9730    0.1090 C   0  0  0  0  0  0  0  0  0  0  0  0
   -0.1040   -0.4410   -0.8850 N   0  0  0  0  0  0  0  0  0  0  0  0
    0.4310    0.5680   -1.7910 C   0  0  0  0  0  0  0  0  0  0  0  0
   -0.2050    1.9160   -1.4620 C   0  0  0  0  0  0  0  0  0  0  0  0
   -1.5060    1.6830   -0.7070 C   0  0  1  0  0  0  0  0  0  0  0  0
   -1.2340    1.4290    0.6230 O   0  0  0  0  0  0  0  0  0  0  0  0
   -2.3660    2.9250   -0.9130 C   0  0  1  0  0  0  0  0  0  0  0  0
   -3.5480    2.7350   -0.2270 F   0  0  0  0  0  0  0  0  0  0  0  0
   -1.7370    4.0370   -0.4490 F   0  0  0  0  0  0  0  0  0  0  0  0
   -2.6810    2.9970   -2.2680 F   0  0  0  0  0  0  0  0  0  0  0  0
   -2.2690    0.5170   -1.2750 C   0  0  0  0  0  0  0  0  0  0  0  0
   -1.4870   -0.7620   -1.0400 C   0  0  0  0  0  0  0  0  0  0  0  0
    3.8240   -0.2330    2.8300 S   0  0  0  0  0  0  0  0  0  0  0  0
    3.4230   -1.8910    3.1900 C   0  0  0  0  0  0  0  0  0  0  0  0
  1  2  3  0
  2  3  1  0
  3  4  2  0
  3  8  1  0
  4  5  1  0
  5  6  2  0
  5 21  1  0
  6  7  1  0
  6 20  1  0
  7  8  2  0
  8  9  1  0
  9 10  1  0
  9 19  1  0
 10 11  1  0
 11 12  1  0
 12 13  1  1
 12 14  1  0
 12 18  1  0
 14 15  1  1
 14 16  1  0
 14 17  1  0
 18 19  1  0
 20 21  1  0
M  END
