
     RDKit          3D

 21 23  0  0  0  0  0  0  0  0999 V2000
   -3.4320    3.2700    0.5420 C   0  0  0  0  0  0  0  0  0  0  0  0
   -2.2250    2.4210    0.4260 C   0  0  0  0  0  0  0  0  0  0  0  0
   -2.2040    1.1000    0.5320 N   0  0  0  0  0  0  0  0  0  0  0  0
   -1.1420    0.2950    0.4340 N   0  0  0  0  0  0  0  0  0  0  0  0
   -1.4380   -1.1010    0.6420 C   0  0  0  0  0  0  0  0  0  0  0  0
   -1.7080   -1.8570   -0.6450 C   0  0  0  0  0  0  0  0  0  0  0  0
   -2.0310   -3.2880   -0.2750 C   0  0  1  0  0  0  0  0  0  0  0  0
   -2.2890   -4.0610   -1.3880 F   0  0  0  0  0  0  0  0  0  0  0  0
   -1.0280   -3.7910    0.5070 F   0  0  0  0  0  0  0  0  0  0  0  0
   -3.1780   -3.2020    0.5310 F   0  0  0  0  0  0  0  0  0  0  0  0
    0.1160    0.8020    0.1960 C   0  0  0  0  0  0  0  0  0  0  0  0
    1.3340    0.1950    0.0500 C   0  0  0  0  0  0  0  0  0  0  0  0
    2.4270    0.9380   -0.1810 C   0  0  0  0  0  0  0  0  0  0  0  0
    1.7950    2.5960   -0.2150 S   0  0  0  0  0  0  0  0  0  0  0  0
    0.1110    2.1670    0.0850 C   0  0  0  0  0  0  0  0  0  0  0  0
   -1.0010    2.9980    0.1890 C   0  0  0  0  0  0  0  0  0  0  0  0
   -0.8200    4.2190    0.0610 O   0  0  0  0  0  0  0  0  0  0  0  0
    3.8250    0.5830   -0.3680 C   0  0  0  0  0  0  0  0  0  0  0  0
    4.0700   -0.8680   -0.3550 C   0  0  0  0  0  0  0  0  0  0  0  0
    2.8900   -1.6780   -0.1070 C   0  0  0  0  0  0  0  0  0  0  0  0
    1.6510   -1.2690    0.0810 C   0  0  0  0  0  0  0  0  0  0  0  0
  1  2  1  0
  2  3  2  0
  2 16  1  0
  3  4  1  0
  4  5  1  0
  4 11  1  0
  5  6  1  0
  6  7  1  0
  7  8  1  6
  7  9  1  0
  7 10  1  0
 11 12  1  0
 11 15  2  0
 12 13  2  0
 12 21  1  0
 13 14  1  0
 13 18  1  0
 14 15  1  0
 15 16  1  0
 16 17  2  0
 18 19  1  0
 19 20  1  0
 20 21  2  0
M  END
