
     RDKit          3D

 15 15  0  0  0  0  0  0  0  0999 V2000
    3.7630   -0.1300    0.0320 C   0  0  0  0  0  0  0  0  0  0  0  0
    2.8060   -1.1120    0.1220 O   0  0  0  0  0  0  0  0  0  0  0  0
    1.5110   -0.5580    0.4240 C   0  0  2  0  0  0  0  0  0  0  0  0
    1.2460   -1.1480    1.7760 C   0  0  0  0  0  0  0  0  0  0  0  0
    2.3470   -0.7020    2.5760 O   0  0  0  0  0  0  0  0  0  0  0  0
    0.5740   -0.8820   -0.6790 C   0  0  2  0  0  0  0  0  0  0  0  0
    1.2430   -0.2860   -1.8780 N   0  0  0  0  0  0  0  0  0  0  0  0
   -0.7810   -0.2400   -0.6670 C   0  0  1  0  0  0  0  0  0  0  0  0
   -1.3710   -0.4610   -2.0960 C   0  0  0  0  0  0  0  0  0  0  0  0
   -1.8090   -0.8400    0.2160 C   0  0  0  0  0  0  0  0  0  0  0  0
   -3.0190    0.0860    0.2100 C   0  0  0  0  0  0  0  0  0  0  0  0
   -3.0560    0.9270    1.3170 O   0  0  0  0  0  0  0  0  0  0  0  0
   -2.4170    2.1220    0.9030 C   0  0  0  0  0  0  0  0  0  0  0  0
   -0.9650    1.6900    0.6550 C   0  0  0  0  0  0  0  0  0  0  0  0
   -0.7420    1.1250   -0.5480 O   0  0  0  0  0  0  0  0  0  0  0  0
  1  2  1  0
  2  3  1  0
  3  4  1  1
  3  6  1  0
  4  5  1  0
  6  7  1  6
  6  8  1  0
  8  9  1  6
  8 10  1  0
  8 15  1  0
 10 11  1  0
 11 12  1  0
 12 13  1  0
 13 14  1  0
 14 15  1  0
M  CHG  1   7   1
M  END
