
     RDKit          3D

 15 15  0  0  0  0  0  0  0  0999 V2000
   -3.9560    1.4540   -0.3010 C   0  0  0  0  0  0  0  0  0  0  0  0
   -3.0360    0.2490   -0.1940 C   0  0  0  0  0  0  0  0  0  0  0  0
   -1.7880    0.6820    0.1560 O   0  0  0  0  0  0  0  0  0  0  0  0
   -0.8530   -0.3460    0.2760 C   0  0  2  0  0  0  0  0  0  0  0  0
   -1.0980   -1.2460    1.4080 C   0  0  0  0  0  0  0  0  0  0  0  0
   -0.1650   -2.3110    1.5760 N   0  0  0  0  0  0  0  0  0  0  0  0
    0.5570    0.2690    0.4730 C   0  0  0  0  0  0  0  0  0  0  0  0
    1.4730   -0.1920   -0.5930 C   0  0  2  0  0  0  0  0  0  0  0  0
    1.2390   -1.5860   -0.8770 O   0  0  0  0  0  0  0  0  0  0  0  0
    2.9040   -0.0470   -0.3460 C   0  0  0  0  0  0  0  0  0  0  0  0
    3.4520    1.1360   -0.0280 O   0  0  0  0  0  0  0  0  0  0  0  0
    3.2040    1.7600    1.1280 C   0  0  0  0  0  0  0  0  0  0  0  0
    0.9630    0.4720   -1.8820 C   0  0  0  0  0  0  0  0  0  0  0  0
   -0.4960   -0.0140   -1.9620 C   0  0  0  0  0  0  0  0  0  0  0  0
   -0.7940   -0.9520   -0.9720 O   0  0  0  0  0  0  0  0  0  0  0  0
  1  2  1  0
  2  3  1  0
  3  4  1  0
  4  5  1  1
  4  7  1  0
  4 15  1  0
  5  6  1  0
  7  8  1  0
  8  9  1  6
  8 10  1  0
  8 13  1  0
 10 11  1  0
 11 12  1  0
 13 14  1  0
 14 15  1  0
M  CHG  1   6   1
M  END
