
     RDKit          3D

 15 15  0  0  0  0  0  0  0  0999 V2000
    4.5140    1.3860    1.7500 C   0  0  0  0  0  0  0  0  0  0  0  0
    3.3110    0.9410    1.1040 O   0  0  0  0  0  0  0  0  0  0  0  0
    3.1380   -0.3970    0.7780 C   0  0  0  0  0  0  0  0  0  0  0  0
    4.0720   -1.1850    1.0720 O   0  0  0  0  0  0  0  0  0  0  0  0
    1.9210   -0.9310    0.1080 C   0  0  0  0  0  0  0  0  0  0  0  0
    0.9910    0.0450   -0.1500 O   0  0  0  0  0  0  0  0  0  0  0  0
   -0.1210   -0.4660   -0.7550 C   0  0  1  0  0  0  0  0  0  0  0  0
    0.0850   -1.1400   -2.0690 C   0  0  0  0  0  0  0  0  0  0  0  0
   -1.1920   -1.5760   -2.5020 O   0  0  0  0  0  0  0  0  0  0  0  0
   -0.8640   -1.4340    0.1490 C   0  0  0  0  0  0  0  0  0  0  0  0
   -2.3520   -1.1870    0.1470 C   0  0  0  0  0  0  0  0  0  0  0  0
   -2.6450    0.1310    0.8290 C   0  0  0  0  0  0  0  0  0  0  0  0
   -1.6760    1.1620    0.3030 C   0  0  2  0  0  0  0  0  0  0  0  0
   -2.3670    2.4140    0.0830 N   0  0  0  0  0  0  0  0  0  0  0  0
   -1.0830    0.6970   -1.0000 C   0  0  0  0  0  0  0  0  0  0  0  0
  1  2  1  0
  2  3  1  0
  3  4  2  0
  3  5  1  0
  5  6  1  0
  6  7  1  0
  7  8  1  6
  7 10  1  0
  7 15  1  0
  8  9  1  0
 10 11  1  0
 11 12  1  0
 12 13  1  0
 13 14  1  6
 13 15  1  0
M  CHG  1  14   1
M  END
