
     RDKit          3D

 15 15  0  0  0  0  0  0  0  0999 V2000
    5.0460    0.9620    0.4460 C   0  0  0  0  0  0  0  0  0  0  0  0
    4.7560   -0.5100    0.1870 C   0  0  0  0  0  0  0  0  0  0  0  0
    3.3530   -0.6330    0.0490 O   0  0  0  0  0  0  0  0  0  0  0  0
    2.7430   -1.8620   -0.1980 C   0  0  0  0  0  0  0  0  0  0  0  0
    3.5250   -2.8530   -0.2890 O   0  0  0  0  0  0  0  0  0  0  0  0
    1.2650   -1.9980   -0.3450 C   0  0  0  0  0  0  0  0  0  0  0  0
    0.7190   -0.7440   -0.1920 O   0  0  0  0  0  0  0  0  0  0  0  0
   -0.6590   -0.7090   -0.3030 C   0  0  1  0  0  0  0  0  0  0  0  0
   -1.3560   -0.2850    0.9510 C   0  0  0  0  0  0  0  0  0  0  0  0
   -1.8650    1.1340    0.9090 C   0  0  0  0  0  0  0  0  0  0  0  0
   -2.7210    1.4100   -0.3000 C   0  0  2  0  0  0  0  0  0  0  0  0
   -4.0710    1.7590    0.0140 N   0  0  0  0  0  0  0  0  0  0  0  0
   -2.6070    0.3020   -1.3200 C   0  0  2  0  0  0  0  0  0  0  0  0
   -3.1490   -0.8890   -0.9060 O   0  0  0  0  0  0  0  0  0  0  0  0
   -1.1200    0.0680   -1.5200 C   0  0  0  0  0  0  0  0  0  0  0  0
  1  2  1  0
  2  3  1  0
  3  4  1  0
  4  5  2  0
  4  6  1  0
  6  7  1  0
  8  7  1  1
  8  9  1  0
  8 15  1  0
  9 10  1  0
 10 11  1  0
 11 12  1  1
 11 13  1  0
 13 14  1  1
 13 15  1  0
M  CHG  1  12   1
M  END
