
     RDKit          3D

 15 15  0  0  0  0  0  0  0  0999 V2000
    0.5060    0.7470   -3.0930 C   0  0  0  0  0  0  0  0  0  0  0  0
   -0.6010    0.0490   -2.9590 C   0  0  0  0  0  0  0  0  0  0  0  0
   -1.2520   -0.4480   -4.0870 O   0  0  0  0  0  0  0  0  0  0  0  0
   -1.1430   -0.2010   -1.6100 C   0  0  0  0  0  0  0  0  0  0  0  0
   -2.2600   -0.9030   -1.4520 C   0  0  0  0  0  0  0  0  0  0  0  0
   -2.8280   -1.1680   -0.1060 C   0  0  0  0  0  0  0  0  0  0  0  0
   -4.1830   -0.6060   -0.0090 N   0  0  0  0  0  0  0  0  0  0  0  0
   -0.4810    0.3000   -0.5010 O   0  0  0  0  0  0  0  0  0  0  0  0
    0.5510   -0.4570    0.0930 C   0  0  0  0  0  0  0  0  0  0  0  0
    1.1330    0.2750    1.2850 C   0  0  1  0  0  0  0  0  0  0  0  0
    2.2280   -0.6280    1.8500 C   0  0  0  0  0  0  0  0  0  0  0  0
    2.9530   -0.0190    2.8460 O   0  0  0  0  0  0  0  0  0  0  0  0
    3.3770    1.2530    2.5220 C   0  0  0  0  0  0  0  0  0  0  0  0
    2.1960    2.0990    2.0540 C   0  0  0  0  0  0  0  0  0  0  0  0
    1.6600    1.4970    0.9120 O   0  0  0  0  0  0  0  0  0  0  0  0
  1  2  2  0
  2  3  1  0
  2  4  1  0
  4  5  2  3
  4  8  1  0
  5  6  1  0
  6  7  1  0
  8  9  1  0
 10  9  1  6
 10 11  1  0
 10 15  1  0
 11 12  1  0
 12 13  1  0
 13 14  1  0
 14 15  1  0
M  CHG  1   7   1
M  END
