
     RDKit          3D

 31 34  0  0  0  0  0  0  0  0999 V2000
   -1.6720   -4.3490   -0.8580 C   0  0  0  0  0  0  0  0  0  0  0  0
   -0.7600   -3.1630   -0.6280 C   0  0  0  0  0  0  0  0  0  0  0  0
   -0.6040   -2.8670    0.7770 N   0  0  2  0  0  0  0  0  0  0  0  0
   -1.8830   -2.8590    1.4710 C   0  0  0  0  0  0  0  0  0  0  0  0
   -2.3170   -1.4050    1.2140 C   0  0  0  0  0  0  0  0  0  0  0  0
   -1.0590   -0.6880    1.6210 C   0  0  1  0  0  0  0  0  0  0  0  0
   -0.0020   -1.6100    1.0430 C   0  0  2  0  0  0  0  0  0  0  0  0
    0.5970   -0.9390   -0.1650 C   0  0  0  0  0  0  0  0  0  0  0  0
    1.3760    0.1940    0.3460 N   0  0  1  0  0  0  0  0  0  0  0  0
    2.1000    0.8730   -0.7020 C   0  0  0  0  0  0  0  0  0  0  0  0
    3.5000    1.0630   -0.2470 C   0  0  0  0  0  0  0  0  0  0  0  0
    4.4940    0.5460   -0.9140 C   0  0  0  0  0  0  0  0  0  0  0  0
    5.9190    0.6770   -0.5470 C   0  0  1  0  0  0  0  0  0  0  0  0
    6.6000    1.2050   -1.6440 O   0  0  0  0  0  0  0  0  0  0  0  0
    7.4900    0.2890   -2.2000 C   0  0  0  0  0  0  0  0  0  0  0  0
    6.1660    1.4720    0.6900 C   0  0  0  0  0  0  0  0  0  0  0  0
    5.0020    1.9880    1.3360 N   0  0  0  0  0  0  0  0  0  0  0  0
    3.7830    1.8310    0.9540 C   0  0  0  0  0  0  0  0  0  0  0  0
    0.4620    1.1420    0.9540 C   0  0  0  0  0  0  0  0  0  0  0  0
   -0.8730    0.6020    1.0490 N   0  0  0  0  0  0  0  0  0  0  0  0
   -1.9570    1.3610    0.5770 C   0  0  0  0  0  0  0  0  0  0  0  0
   -1.8150    2.5110    0.0640 O   0  0  0  0  0  0  0  0  0  0  0  0
   -3.2360    0.8520    0.6670 O   0  0  0  0  0  0  0  0  0  0  0  0
   -4.3720    1.4960    0.2420 C   0  0  0  0  0  0  0  0  0  0  0  0
   -4.8200    1.3270   -1.0270 C   0  0  0  0  0  0  0  0  0  0  0  0
   -5.9670    1.9830   -1.4420 C   0  0  0  0  0  0  0  0  0  0  0  0
   -6.6740    2.8080   -0.5990 C   0  0  0  0  0  0  0  0  0  0  0  0
   -8.1320    3.6190   -1.1850 S   0  0  0  0  0  0  0  0  0  0  0  0
   -9.8270    2.4000   -0.8280 Cl  0  0  0  0  0  0  0  0  0  0  0  0
   -6.1950    2.9620    0.6920 C   0  0  0  0  0  0  0  0  0  0  0  0
   -5.0540    2.3120    1.1110 C   0  0  0  0  0  0  0  0  0  0  0  0
  1  2  1  0
  3  2  1  6
  3  4  1  0
  3  7  1  0
  4  5  1  0
  6  5  1  6
  6  7  1  0
  6 20  1  0
  7  8  1  6
  8  9  1  0
  9 10  1  6
  9 19  1  0
 10 11  1  0
 11 12  2  0
 11 18  1  0
 12 13  1  0
 13 14  1  6
 13 16  1  0
 14 15  1  0
 16 17  1  0
 17 18  2  0
 19 20  1  0
 20 21  1  0
 21 22  2  0
 21 23  1  0
 23 24  1  0
 24 25  2  0
 24 31  1  0
 25 26  1  0
 26 27  2  0
 27 28  1  0
 27 30  1  0
 28 29  1  0
 30 31  2  0
M  CHG  2   3   1   9   1
M  END
