
     RDKit          3D

 31 35  0  0  0  0  0  0  0  0999 V2000
    6.6040   -1.7600    2.9960 C   0  0  0  0  0  0  0  0  0  0  0  0
    6.4260   -0.5210    2.1440 C   0  0  0  0  0  0  0  0  0  0  0  0
    5.1680   -0.6850    1.3650 C   0  0  0  0  0  0  0  0  0  0  0  0
    4.9640   -1.2410    0.1260 C   0  0  0  0  0  0  0  0  0  0  0  0
    3.6030   -1.1440   -0.1380 C   0  0  0  0  0  0  0  0  0  0  0  0
    3.0490   -1.6550   -1.4020 C   0  0  0  0  0  0  0  0  0  0  0  0
    1.6460   -1.5890   -1.5650 N   0  0  1  0  0  0  0  0  0  0  0  0
    0.8870   -1.8770   -0.3700 C   0  0  0  0  0  0  0  0  0  0  0  0
    0.0130   -0.7660    0.0880 C   0  0  0  0  0  0  0  0  0  0  0  0
   -0.8680   -0.3730   -0.9860 N   0  0  0  0  0  0  0  0  0  0  0  0
   -2.2160   -0.0290   -0.7130 C   0  0  0  0  0  0  0  0  0  0  0  0
   -2.9440    0.3070   -1.6860 O   0  0  0  0  0  0  0  0  0  0  0  0
   -2.7270   -0.0720    0.6790 C   0  0  0  0  0  0  0  0  0  0  0  0
   -4.1230    0.3270    0.6440 N   0  0  0  0  0  0  0  0  0  0  0  0
   -4.4030    1.7140    0.7900 C   0  0  0  0  0  0  0  0  0  0  0  0
   -3.4800    2.5910    0.7060 O   0  0  0  0  0  0  0  0  0  0  0  0
   -5.8210    2.0820    1.0450 C   0  0  0  0  0  0  0  0  0  0  0  0
   -6.7500    1.3120    0.1520 C   0  0  0  0  0  0  0  0  0  0  0  0
   -6.4730   -0.1450    0.0800 C   0  0  2  0  0  0  0  0  0  0  0  0
   -6.2650   -0.8170    1.4330 C   0  0  0  0  0  0  0  0  0  0  0  0
   -5.1670   -0.6270    0.4690 C   0  0  2  0  0  0  0  0  0  0  0  0
   -0.3230   -0.3480   -2.3210 C   0  0  0  0  0  0  0  0  0  0  0  0
    1.1990   -0.4610   -2.2920 C   0  0  1  0  0  0  0  0  0  0  0  0
    1.7230    0.8210   -1.9310 C   0  0  0  0  0  0  0  0  0  0  0  0
    1.1810    2.0140   -1.6090 C   0  0  0  0  0  0  0  0  0  0  0  0
    1.9000    3.0880   -1.3330 C   0  0  0  0  0  0  0  0  0  0  0  0
    3.2870    2.9660   -1.3810 C   0  0  0  0  0  0  0  0  0  0  0  0
    4.5360    4.1900   -1.0700 Cl  0  0  0  0  0  0  0  0  0  0  0  0
    3.5320    1.2610   -1.8350 S   0  0  0  0  0  0  0  0  0  0  0  0
    3.1070   -0.5680    0.9050 O   0  0  0  0  0  0  0  0  0  0  0  0
    3.9760   -0.2850    1.7990 N   0  0  0  0  0  0  0  0  0  0  0  0
  1  2  1  0
  2  3  1  0
  3  4  1  0
  3 31  2  0
  4  5  2  0
  5  6  1  0
  5 30  1  0
  7  6  1  1
  7  8  1  0
  7 23  1  0
  8  9  1  0
  9 10  1  0
 10 11  1  0
 10 22  1  0
 11 12  2  0
 11 13  1  0
 13 14  1  0
 14 15  1  0
 14 21  1  0
 15 16  2  0
 15 17  1  0
 17 18  1  0
 19 18  1  1
 19 20  1  0
 19 21  1  0
 21 20  1  1
 22 23  1  0
 23 24  1  1
 24 25  2  0
 24 29  1  0
 25 26  1  0
 26 27  2  0
 27 28  1  0
 27 29  1  0
 30 31  1  0
M  CHG  1   7   1
M  END
