
     RDKit          3D

 31 34  0  0  0  0  0  0  0  0999 V2000
   -1.4790   -2.3150   -0.0390 C   0  0  0  0  0  0  0  0  0  0  0  0
   -1.6970   -0.9110    0.5050 C   0  0  1  0  0  0  0  0  0  0  0  0
   -0.3770   -0.1940    0.4800 C   0  0  0  0  0  0  0  0  0  0  0  0
   -0.3530    1.1210    0.9870 N   0  0  1  0  0  0  0  0  0  0  0  0
    0.9770    1.5020    1.4240 C   0  0  0  0  0  0  0  0  0  0  0  0
    2.0450    0.8700    1.0270 C   0  0  0  0  0  0  0  0  0  0  0  0
    3.4120    1.1650    1.4040 C   0  0  0  0  0  0  0  0  0  0  0  0
    3.7190    2.5010    2.5400 Cl  0  0  0  0  0  0  0  0  0  0  0  0
    4.4810    0.5160    0.9860 C   0  0  0  0  0  0  0  0  0  0  0  0
    4.4620   -0.5990    0.0810 C   0  0  0  0  0  0  0  0  0  0  0  0
    5.4740   -1.2850   -0.3680 C   0  0  0  0  0  0  0  0  0  0  0  0
    5.3880   -2.4310   -1.3080 C   0  0  0  0  0  0  0  0  0  0  0  0
    4.3520   -2.9060   -1.8090 O   0  0  0  0  0  0  0  0  0  0  0  0
    6.7130   -2.8680   -1.5150 O   0  0  0  0  0  0  0  0  0  0  0  0
    7.5310   -1.7110   -1.2950 C   0  0  0  0  0  0  0  0  0  0  0  0
    6.8580   -1.1580   -0.1080 N   0  0  0  0  0  0  0  0  0  0  0  0
    7.5240   -0.6320    1.0390 C   0  0  0  0  0  0  0  0  0  0  0  0
    1.0060    2.6750    2.3190 C   0  0  0  0  0  0  0  0  0  0  0  0
   -0.3340    3.1770    2.2840 O   0  0  0  0  0  0  0  0  0  0  0  0
   -0.5950    3.5120    0.9540 C   0  0  0  0  0  0  0  0  0  0  0  0
   -0.8440    2.1950    0.2010 C   0  0  1  0  0  0  0  0  0  0  0  0
   -0.1670    2.3550   -1.1310 C   0  0  0  0  0  0  0  0  0  0  0  0
   -2.8070   -0.2630   -0.0630 N   0  0  0  0  0  0  0  0  0  0  0  0
   -2.8300   -0.0610   -1.4620 C   0  0  0  0  0  0  0  0  0  0  0  0
   -3.8350   -0.9110   -2.2070 C   0  0  0  0  0  0  0  0  0  0  0  0
   -5.0670   -1.1190   -1.5370 N   0  0  2  0  0  0  0  0  0  0  0  0
   -6.0150    0.3850   -1.3510 S   0  0  0  0  0  0  0  0  0  0  0  0
   -6.8430   -0.0380    0.2370 C   0  0  0  0  0  0  0  0  0  0  0  0
   -6.3030   -1.4460    0.4410 C   0  0  0  0  0  0  0  0  0  0  0  0
   -4.9060   -1.4740   -0.1310 C   0  0  2  0  0  0  0  0  0  0  0  0
   -4.0730   -0.4350    0.5480 C   0  0  0  0  0  0  0  0  0  0  0  0
  2  1  1  6
  2  3  1  0
  2 23  1  0
  4  3  1  6
  4  5  1  0
  4 21  1  0
  5  6  2  3
  5 18  1  0
  6  7  1  0
  7  8  1  0
  7  9  2  3
  9 10  1  0
 10 11  2  3
 11 12  1  0
 11 16  1  0
 12 13  2  0
 12 14  1  0
 14 15  1  0
 15 16  1  0
 16 17  1  0
 18 19  1  0
 19 20  1  0
 20 21  1  0
 21 22  1  6
 23 24  1  0
 23 31  1  0
 24 25  1  0
 26 25  1  1
 26 27  1  0
 26 30  1  0
 27 28  1  0
 28 29  1  0
 30 29  1  1
 30 31  1  0
M  CHG  2   4   1  26   1
M  END
