
     RDKit          3D

 31 34  0  0  0  0  0  0  0  0999 V2000
   -5.0210    1.0330   -1.5550 C   0  0  0  0  0  0  0  0  0  0  0  0
   -3.8300    0.5610   -1.4980 N   0  0  0  0  0  0  0  0  0  0  0  0
   -3.0500    0.8520   -0.3390 C   0  0  0  0  0  0  0  0  0  0  0  0
   -2.5090    2.0450   -0.2590 C   0  0  0  0  0  0  0  0  0  0  0  0
   -1.6800    2.5470    0.8300 C   0  0  0  0  0  0  0  0  0  0  0  0
   -1.8750    3.7460    1.3660 C   0  0  0  0  0  0  0  0  0  0  0  0
   -2.9450    4.6700    0.9040 C   0  0  0  0  0  0  0  0  0  0  0  0
   -4.0320    5.0020    2.2860 Cl  0  0  0  0  0  0  0  0  0  0  0  0
   -0.3210    1.5900    1.5390 S   0  0  0  0  0  0  0  0  0  0  0  0
    0.9850    1.4890    0.3530 C   0  0  0  0  0  0  0  0  0  0  0  0
    1.9570    0.3820    0.5650 C   0  0  0  0  0  0  0  0  0  0  0  0
    3.3280    0.4930    0.2760 C   0  0  0  0  0  0  0  0  0  0  0  0
    3.9160   -0.6980    0.5790 C   0  0  0  0  0  0  0  0  0  0  0  0
    5.3430   -1.0360    0.4340 C   0  0  0  0  0  0  0  0  0  0  0  0
    5.7750   -2.1550    0.7400 O   0  0  0  0  0  0  0  0  0  0  0  0
    6.2160   -0.0910   -0.0510 O   0  0  0  0  0  0  0  0  0  0  0  0
    7.5880   -0.2760   -0.2370 C   0  0  0  0  0  0  0  0  0  0  0  0
    8.1730    0.9840   -0.7780 C   0  0  0  0  0  0  0  0  0  0  0  0
    7.5020    1.9780   -0.9970 O   0  0  0  0  0  0  0  0  0  0  0  0
    2.9300   -1.4730    1.0260 N   0  0  0  0  0  0  0  0  0  0  0  0
    1.7510   -0.8220    1.0170 N   0  0  0  0  0  0  0  0  0  0  0  0
    0.5120   -1.4550    1.4620 C   0  0  0  0  0  0  0  0  0  0  0  0
   -0.2110   -2.2090    0.4050 C   0  0  2  0  0  0  0  0  0  0  0  0
    0.7360   -2.9390   -0.5210 C   0  0  0  0  0  0  0  0  0  0  0  0
   -0.2280   -3.3070   -1.6440 C   0  0  0  0  0  0  0  0  0  0  0  0
   -1.0740   -2.0660   -1.7480 C   0  0  0  0  0  0  0  0  0  0  0  0
   -1.1150   -1.4820   -0.4240 N   0  0  1  0  0  0  0  0  0  0  0  0
   -2.4670   -1.5260    0.0450 C   0  0  0  0  0  0  0  0  0  0  0  0
   -2.9430   -0.2360    0.6560 C   0  0  1  0  0  0  0  0  0  0  0  0
   -3.0240    0.0100    2.0840 C   0  0  0  0  0  0  0  0  0  0  0  0
   -4.2900   -0.4670    1.4110 C   0  0  0  0  0  0  0  0  0  0  0  0
  1  2  2  0
  2  3  1  0
  3  4  2  0
  3 29  1  0
  4  5  1  0
  5  6  2  3
  5  9  1  0
  6  7  1  0
  7  8  1  0
  9 10  1  0
 10 11  1  0
 11 12  2  0
 11 21  1  0
 12 13  1  0
 13 14  1  0
 13 20  2  0
 14 15  2  0
 14 16  1  0
 16 17  1  0
 17 18  1  0
 18 19  2  0
 20 21  1  0
 21 22  1  0
 23 22  1  1
 23 24  1  0
 23 27  1  0
 24 25  1  0
 25 26  1  0
 27 26  1  6
 27 28  1  0
 29 28  1  1
 29 30  1  0
 29 31  1  0
 30 31  1  0
M  CHG  2   2   1  27   1
M  END
