
     RDKit          3D

 31 34  0  0  0  0  0  0  0  0999 V2000
    8.2360   -0.1970    2.2040 C   0  0  0  0  0  0  0  0  0  0  0  0
    7.4210   -0.3920    0.9410 C   0  0  1  0  0  0  0  0  0  0  0  0
    6.2610    0.4010    0.9410 O   0  0  0  0  0  0  0  0  0  0  0  0
    4.9800   -0.1480    0.9520 C   0  0  0  0  0  0  0  0  0  0  0  0
    4.9460   -1.4130    0.9630 O   0  0  0  0  0  0  0  0  0  0  0  0
    3.8060    0.6610    0.9520 C   0  0  0  0  0  0  0  0  0  0  0  0
    3.3840    1.8110    0.9410 N   0  0  0  0  0  0  0  0  0  0  0  0
    2.1880    2.2010    0.9510 N   0  0  0  0  0  0  0  0  0  0  0  0
    1.1850    1.3920    0.9750 C   0  0  0  0  0  0  0  0  0  0  0  0
   -0.2880    1.4420    0.9920 C   0  0  2  0  0  0  0  0  0  0  0  0
   -0.8530    0.8740    2.2820 C   0  0  0  0  0  0  0  0  0  0  0  0
   -0.8260    0.7450   -0.2240 C   0  0  0  0  0  0  0  0  0  0  0  0
   -2.2540    0.7890   -0.2170 N   0  0  2  0  0  0  0  0  0  0  0  0
   -2.8890   -0.3620    0.3800 C   0  0  0  0  0  0  0  0  0  0  0  0
   -3.5170   -1.2790   -0.6480 C   0  0  0  0  0  0  0  0  0  0  0  0
   -4.5570   -0.6430   -1.4030 N   0  0  1  0  0  0  0  0  0  0  0  0
   -5.8820   -1.0010   -1.0690 C   0  0  2  0  0  0  0  0  0  0  0  0
   -6.6300    0.2100   -0.4920 C   0  0  0  0  0  0  0  0  0  0  0  0
   -8.0890   -0.1850   -0.2150 C   0  0  0  0  0  0  0  0  0  0  0  0
   -8.0000   -1.3710    0.7360 C   0  0  0  0  0  0  0  0  0  0  0  0
   -7.4170   -2.4040    0.0140 O   0  0  0  0  0  0  0  0  0  0  0  0
   -6.0280   -2.1860   -0.1420 C   0  0  0  0  0  0  0  0  0  0  0  0
   -4.3180    0.8030   -1.3940 C   0  0  0  0  0  0  0  0  0  0  0  0
   -2.8180    0.9670   -1.5450 C   0  0  0  0  0  0  0  0  0  0  0  0
    2.1320   -0.2200    0.9850 S   0  0  0  0  0  0  0  0  0  0  0  0
    8.2180   -0.0640   -0.2730 C   0  0  0  0  0  0  0  0  0  0  0  0
    9.4630    0.3410   -0.3580 C   0  0  0  0  0  0  0  0  0  0  0  0
    9.8050    0.5350   -1.7790 C   0  0  0  0  0  0  0  0  0  0  0  0
    8.5660    0.1780   -2.5040 C   0  0  0  0  0  0  0  0  0  0  0  0
    8.3420    0.2070   -4.2580 Cl  0  0  0  0  0  0  0  0  0  0  0  0
    7.6580   -0.1660   -1.6170 C   0  0  0  0  0  0  0  0  0  0  0  0
  2  1  1  1
  2  3  1  0
  2 26  1  0
  3  4  1  0
  4  5  2  0
  4  6  1  0
  6  7  2  0
  6 25  1  0
  7  8  1  0
  8  9  2  0
  9 10  1  0
  9 25  1  0
 10 11  1  1
 10 12  1  0
 13 12  1  6
 13 14  1  0
 13 24  1  0
 14 15  1  0
 16 15  1  1
 16 17  1  0
 16 23  1  0
 17 18  1  1
 17 22  1  0
 18 19  1  0
 19 20  1  0
 20 21  1  0
 21 22  1  0
 23 24  1  0
 26 27  2  0
 26 31  1  0
 27 28  1  0
 28 29  1  0
 29 30  1  0
 29 31  2  0
M  CHG  2  13   1  16   1
M  END
