
     RDKit          3D

 30 32  0  0  0  0  0  0  0  0999 V2000
    4.5090    3.0560   -1.9510 C   0  0  0  0  0  0  0  0  0  0  0  0
    3.2750    2.2220   -1.5770 C   0  0  0  0  0  0  0  0  0  0  0  0
    2.2150    2.9890   -1.2170 C   0  0  0  0  0  0  0  0  0  0  0  0
    0.9240    2.4150   -0.8120 N   0  0  0  0  0  0  0  0  0  0  0  0
    0.1090    1.8010   -1.7210 C   0  0  0  0  0  0  0  0  0  0  0  0
   -1.0240    1.2910   -1.3030 N   0  0  0  0  0  0  0  0  0  0  0  0
   -1.6150    1.2340   -0.0760 C   0  0  0  0  0  0  0  0  0  0  0  0
   -0.8470    1.8380    0.8590 C   0  0  0  0  0  0  0  0  0  0  0  0
   -1.0280    2.1140    2.3530 C   0  0  0  0  0  0  0  0  0  0  0  0
    0.4160    2.4090    0.4440 C   0  0  0  0  0  0  0  0  0  0  0  0
    0.9510    2.9040    1.5520 O   0  0  0  0  0  0  0  0  0  0  0  0
   -2.8050    0.4760   -0.1460 N   0  0  0  0  0  0  0  0  0  0  0  0
   -2.7290   -0.9070    0.4510 C   0  0  0  0  0  0  0  0  0  0  0  0
   -2.6290   -1.7020   -0.8160 C   0  0  1  0  0  0  0  0  0  0  0  0
   -1.8420   -2.9030   -0.6060 C   0  0  0  0  0  0  0  0  0  0  0  0
   -0.6480   -2.7580    0.2660 C   0  0  0  0  0  0  0  0  0  0  0  0
    0.4150   -1.8100   -0.0850 C   0  0  0  0  0  0  0  0  0  0  0  0
    0.9330   -0.9470    1.0010 C   0  0  0  0  0  0  0  0  0  0  0  0
    2.0610   -0.4580    1.2030 N   0  0  0  0  0  0  0  0  0  0  0  0
    3.3110   -0.4820    0.5480 C   0  0  0  0  0  0  0  0  0  0  0  0
    4.3820   -0.6960    1.3350 C   0  0  0  0  0  0  0  0  0  0  0  0
    4.2350   -0.8840    2.7760 C   0  0  0  0  0  0  0  0  0  0  0  0
    4.9480    0.1100    3.4540 F   0  0  0  0  0  0  0  0  0  0  0  0
    3.4760   -0.2980   -0.8600 N   0  0  0  0  0  0  0  0  0  0  0  0
    3.3860    0.7880   -1.7330 C   0  0  0  0  0  0  0  0  0  0  0  0
    3.4100    0.4160   -3.0310 O   0  0  0  0  0  0  0  0  0  0  0  0
   -4.0670   -1.8010   -1.2510 C   0  0  0  0  0  0  0  0  0  0  0  0
   -4.7740   -0.5530   -0.7710 C   0  0  0  0  0  0  0  0  0  0  0  0
   -6.2090   -0.6110   -0.4180 C   0  0  0  0  0  0  0  0  0  0  0  0
   -4.1070    0.6040   -0.6660 N   0  0  0  0  0  0  0  0  0  0  0  0
  1  2  1  0
  2  3  2  0
  2 25  1  0
  3  4  1  0
  4  5  1  0
  4 10  1  0
  5  6  2  0
  6  7  1  0
  7  8  2  0
  7 12  1  0
  8  9  1  0
  8 10  1  0
 10 11  2  0
 12 13  1  0
 12 30  1  0
 13 14  1  0
 14 15  1  1
 14 27  1  0
 15 16  1  0
 16 17  1  0
 17 18  1  0
 18 19  2  0
 19 20  1  0
 20 21  2  3
 20 24  1  0
 21 22  1  0
 22 23  1  0
 24 25  1  0
 25 26  2  0
 27 28  1  0
 28 29  1  0
 28 30  2  0
M  END
