
     RDKit          3D

 29 32  0  0  0  0  0  0  0  0999 V2000
    6.2080    2.2490   -1.6750 C   0  0  0  0  0  0  0  0  0  0  0  0
    6.8670    1.3790   -0.7920 O   0  0  0  0  0  0  0  0  0  0  0  0
    6.1660    0.4790   -0.0060 C   0  0  0  0  0  0  0  0  0  0  0  0
    4.7680    0.4000   -0.0600 C   0  0  0  0  0  0  0  0  0  0  0  0
    4.0830   -0.4960    0.7240 C   0  0  0  0  0  0  0  0  0  0  0  0
    2.6930   -0.6120    0.7070 C   0  0  0  0  0  0  0  0  0  0  0  0
    1.9510    0.2060   -0.1740 N   0  0  0  0  0  0  0  0  0  0  0  0
    0.5470    0.1600   -0.2190 C   0  0  0  0  0  0  0  0  0  0  0  0
   -0.2560   -0.2940    0.7750 C   0  0  0  0  0  0  0  0  0  0  0  0
   -1.6700   -0.3260    0.6260 C   0  0  0  0  0  0  0  0  0  0  0  0
   -2.2820    0.0930   -0.5080 C   0  0  0  0  0  0  0  0  0  0  0  0
   -3.6790    0.1020   -0.7170 N   0  0  0  0  0  0  0  0  0  0  0  0
   -4.6830   -0.1100    0.2480 C   0  0  0  0  0  0  0  0  0  0  0  0
   -4.3550   -0.3310    1.4450 O   0  0  0  0  0  0  0  0  0  0  0  0
   -6.1080   -0.0770   -0.1270 C   0  0  0  0  0  0  0  0  0  0  0  0
   -7.0820    0.0780    0.8660 C   0  0  0  0  0  0  0  0  0  0  0  0
   -8.4300    0.1090    0.5790 C   0  0  0  0  0  0  0  0  0  0  0  0
   -8.8620   -0.0160   -0.7240 C   0  0  0  0  0  0  0  0  0  0  0  0
   -7.9230   -0.1700   -1.7110 C   0  0  0  0  0  0  0  0  0  0  0  0
   -6.5540   -0.2000   -1.4120 C   0  0  0  0  0  0  0  0  0  0  0  0
   -1.4390    0.5610   -1.5280 C   0  0  0  0  0  0  0  0  0  0  0  0
   -0.0730    0.5960   -1.3980 C   0  0  0  0  0  0  0  0  0  0  0  0
    2.1140   -1.5160    1.5090 N   0  0  0  0  0  0  0  0  0  0  0  0
    2.7810   -2.3190    2.3310 C   0  0  0  0  0  0  0  0  0  0  0  0
    4.1200   -2.2240    2.3630 N   0  0  0  0  0  0  0  0  0  0  0  0
    4.7730   -1.3440    1.5900 C   0  0  0  0  0  0  0  0  0  0  0  0
    6.1520   -1.2420    1.6200 C   0  0  0  0  0  0  0  0  0  0  0  0
    6.8480   -0.3510    0.8420 C   0  0  0  0  0  0  0  0  0  0  0  0
    8.2360   -0.3170    0.9390 O   0  0  0  0  0  0  0  0  0  0  0  0
  1  2  1  0
  2  3  1  0
  3  4  2  0
  3 28  1  0
  4  5  1  0
  5  6  2  0
  5 26  1  0
  6  7  1  0
  6 23  1  0
  7  8  1  0
  8  9  2  0
  8 22  1  0
  9 10  1  0
 10 11  2  0
 11 12  1  0
 11 21  1  0
 12 13  1  0
 13 14  2  0
 13 15  1  0
 15 16  2  0
 15 20  1  0
 16 17  1  0
 17 18  2  0
 18 19  1  0
 19 20  2  0
 21 22  2  0
 23 24  2  0
 24 25  1  0
 25 26  2  0
 26 27  1  0
 27 28  2  0
 28 29  1  0
M  END
