
     RDKit          3D

 22 24  0  0  0  0  0  0  0  0999 V2000
    5.1660    0.6400    2.2730 N   0  0  0  0  0  0  0  0  0  0  0  0
    4.5730    0.2440    1.0500 C   0  0  0  0  0  0  0  0  0  0  0  0
    3.1780    0.2170    0.8850 C   0  0  0  0  0  0  0  0  0  0  0  0
    2.6230   -0.1620   -0.2840 C   0  0  0  0  0  0  0  0  0  0  0  0
    1.2420   -0.2240   -0.5540 N   0  0  0  0  0  0  0  0  0  0  0  0
    0.2260    0.1050    0.3730 C   0  0  0  0  0  0  0  0  0  0  0  0
    0.4840    0.4870    1.5380 O   0  0  0  0  0  0  0  0  0  0  0  0
   -1.1770   -0.0170   -0.0770 C   0  0  0  0  0  0  0  0  0  0  0  0
   -2.1650    0.2760    0.7440 C   0  0  0  0  0  0  0  0  0  0  0  0
   -3.5700    0.1990    0.4290 C   0  0  0  0  0  0  0  0  0  0  0  0
   -4.5730    0.5150    1.3170 C   0  0  0  0  0  0  0  0  0  0  0  0
   -4.2420    0.9280    2.5780 F   0  0  0  0  0  0  0  0  0  0  0  0
   -5.8960    0.4230    0.9610 C   0  0  0  0  0  0  0  0  0  0  0  0
   -6.2420    0.0100   -0.3010 C   0  0  0  0  0  0  0  0  0  0  0  0
   -5.2670   -0.3090   -1.2020 C   0  0  0  0  0  0  0  0  0  0  0  0
   -3.9370   -0.2130   -0.8330 C   0  0  0  0  0  0  0  0  0  0  0  0
   -2.8920   -0.5340   -1.7350 N   0  0  0  0  0  0  0  0  0  0  0  0
   -1.4900   -0.4650   -1.4430 C   0  0  0  0  0  0  0  0  0  0  0  0
    3.5000   -0.5200   -1.3040 C   0  0  0  0  0  0  0  0  0  0  0  0
    4.8720   -0.5030   -1.1680 C   0  0  0  0  0  0  0  0  0  0  0  0
    5.4120   -0.1170    0.0200 C   0  0  0  0  0  0  0  0  0  0  0  0
    6.7720   -0.0850    0.2000 O   0  0  0  0  0  0  0  0  0  0  0  0
  1  2  1  0
  2  3  2  0
  2 21  1  0
  3  4  1  0
  4  5  1  0
  4 19  2  0
  5  6  1  0
  6  7  2  0
  6  8  1  0
  8  9  2  0
  8 18  1  0
  9 10  1  0
 10 11  2  0
 10 16  1  0
 11 12  1  0
 11 13  1  0
 13 14  2  0
 14 15  1  0
 15 16  2  0
 16 17  1  0
 17 18  1  0
 19 20  1  0
 20 21  2  0
 21 22  1  0
M  END
