
     RDKit          3D

 22 24  0  0  0  0  0  0  0  0999 V2000
    4.5520    0.6950    2.0280 N   0  0  0  0  0  0  0  0  0  0  0  0
    4.8930    0.2770    0.7120 C   0  0  0  0  0  0  0  0  0  0  0  0
    6.1870    0.1900    0.2920 C   0  0  0  0  0  0  0  0  0  0  0  0
    6.4470   -0.2180   -0.9920 C   0  0  0  0  0  0  0  0  0  0  0  0
    5.4480   -0.5390   -1.8590 C   0  0  0  0  0  0  0  0  0  0  0  0
    4.1190   -0.4620   -1.4630 C   0  0  0  0  0  0  0  0  0  0  0  0
    3.8590   -0.0510   -0.1810 C   0  0  0  0  0  0  0  0  0  0  0  0
    2.5950    0.0860    0.3330 N   0  0  0  0  0  0  0  0  0  0  0  0
    1.3580    0.0410   -0.4990 C   0  0  0  0  0  0  0  0  0  0  0  0
    1.4630   -0.1270   -1.6520 O   0  0  0  0  0  0  0  0  0  0  0  0
    0.2350    0.2340    0.3610 N   0  0  0  0  0  0  0  0  0  0  0  0
   -0.9780    0.2980   -0.8890 C   0  0  0  0  0  0  0  0  0  0  0  0
   -0.5680    0.1250   -1.9430 O   0  0  0  0  0  0  0  0  0  0  0  0
   -2.2670    0.5690   -0.2500 C   0  0  2  0  0  0  0  0  0  0  0  0
   -2.6580   -0.6100    0.6050 C   0  0  0  0  0  0  0  0  0  0  0  0
   -4.1660   -0.5850    0.5550 C   0  0  0  0  0  0  0  0  0  0  0  0
   -5.2330   -1.0730    1.1820 C   0  0  0  0  0  0  0  0  0  0  0  0
   -6.4190   -0.5540    0.4910 C   0  0  0  0  0  0  0  0  0  0  0  0
   -5.8900    0.2910   -0.5970 C   0  0  0  0  0  0  0  0  0  0  0  0
   -6.6480    0.9940   -1.5220 F   0  0  0  0  0  0  0  0  0  0  0  0
   -4.5730    0.2550   -0.5370 C   0  0  0  0  0  0  0  0  0  0  0  0
   -3.3590    0.7990   -1.2470 C   0  0  0  0  0  0  0  0  0  0  0  0
  1  2  1  0
  2  3  2  0
  2  7  1  0
  3  4  1  0
  4  5  2  0
  5  6  1  0
  6  7  2  0
  7  8  1  0
  8  9  1  0
  9 10  2  0
  9 11  1  0
 11 12  1  0
 12 13  2  0
 14 12  1  6
 14 15  1  0
 14 22  1  0
 15 16  1  0
 16 17  2  0
 16 21  1  0
 17 18  1  0
 18 19  1  0
 19 20  1  0
 19 21  2  0
 21 22  1  0
M  END
