
     RDKit          3D

 22 24  0  0  0  0  0  0  0  0999 V2000
   -5.9280   -1.0670    1.2740 C   0  0  0  0  0  0  0  0  0  0  0  0
   -4.5060   -0.7700    0.9690 C   0  0  0  0  0  0  0  0  0  0  0  0
   -3.5000   -1.4610    1.5910 C   0  0  0  0  0  0  0  0  0  0  0  0
   -2.1420   -1.2080    1.3290 C   0  0  0  0  0  0  0  0  0  0  0  0
   -1.7610   -0.2480    0.4300 C   0  0  0  0  0  0  0  0  0  0  0  0
   -0.4190    0.0740    0.1040 N   0  0  0  0  0  0  0  0  0  0  0  0
    0.7350   -0.5140    0.6270 C   0  0  0  0  0  0  0  0  0  0  0  0
    0.6750   -1.4150    1.4660 O   0  0  0  0  0  0  0  0  0  0  0  0
    2.0610   -0.1080    0.2230 N   0  0  0  0  0  0  0  0  0  0  0  0
    3.2180   -0.7360    0.7840 C   0  0  0  0  0  0  0  0  0  0  0  0
    4.5120   -0.2510    0.3080 C   0  0  0  0  0  0  0  0  0  0  0  0
    4.7300    0.6960   -0.5780 C   0  0  0  0  0  0  0  0  0  0  0  0
    6.0820    1.1350   -1.0120 C   0  0  0  0  0  0  0  0  0  0  0  0
    7.1090    0.4310   -0.3790 O   0  0  0  0  0  0  0  0  0  0  0  0
    6.9160   -0.5630    0.5490 C   0  0  0  0  0  0  0  0  0  0  0  0
    5.6990   -0.9200    0.9060 C   0  0  0  0  0  0  0  0  0  0  0  0
    5.5610   -1.9060    1.8250 F   0  0  0  0  0  0  0  0  0  0  0  0
   -2.8040    0.4460   -0.1950 C   0  0  0  0  0  0  0  0  0  0  0  0
   -4.1310    0.1980    0.0620 C   0  0  0  0  0  0  0  0  0  0  0  0
   -4.9410    1.0710   -0.7330 N   0  0  0  0  0  0  0  0  0  0  0  0
   -4.1020    1.7120   -1.7160 C   0  0  0  0  0  0  0  0  0  0  0  0
   -2.6830    1.5430   -1.2170 C   0  0  0  0  0  0  0  0  0  0  0  0
  1  2  1  0
  2  3  2  0
  2 19  1  0
  3  4  1  0
  4  5  2  0
  5  6  1  0
  5 18  1  0
  6  7  1  0
  7  8  2  0
  7  9  1  0
  9 10  1  0
 10 11  1  0
 11 12  2  0
 11 16  1  0
 12 13  1  0
 13 14  1  0
 14 15  1  0
 15 16  2  0
 16 17  1  0
 18 19  2  0
 18 22  1  0
 19 20  1  0
 20 21  1  0
 21 22  1  0
M  END
