
     RDKit          3D

 22 24  0  0  0  0  0  0  0  0999 V2000
    5.1630    0.9350    1.1360 N   0  0  0  0  0  0  0  0  0  0  0  0
    5.5300   -0.2620    0.4950 C   0  0  0  0  0  0  0  0  0  0  0  0
    4.6460   -1.0480   -0.0390 C   0  0  0  0  0  0  0  0  0  0  0  0
    3.2010   -0.6490    0.0410 C   0  0  0  0  0  0  0  0  0  0  0  0
    2.3100   -1.4300   -0.4920 C   0  0  0  0  0  0  0  0  0  0  0  0
    0.8780   -1.2370   -0.5270 C   0  0  0  0  0  0  0  0  0  0  0  0
   -0.0220   -2.1210   -1.1570 C   0  0  0  0  0  0  0  0  0  0  0  0
   -1.2880   -1.7070   -1.0350 N   0  0  0  0  0  0  0  0  0  0  0  0
   -1.2650   -0.5860   -0.3530 C   0  0  0  0  0  0  0  0  0  0  0  0
    0.0540   -0.2630   -0.0190 C   0  0  0  0  0  0  0  0  0  0  0  0
    0.3100    0.8400    0.7030 N   0  0  0  0  0  0  0  0  0  0  0  0
   -0.6620    1.6560    1.1240 C   0  0  0  0  0  0  0  0  0  0  0  0
   -0.3830    2.6980    1.8110 O   0  0  0  0  0  0  0  0  0  0  0  0
   -1.9650    1.3810    0.8200 C   0  0  0  0  0  0  0  0  0  0  0  0
   -2.9290    2.2630    1.2960 C   0  0  0  0  0  0  0  0  0  0  0  0
   -4.2340    1.9800    0.9980 C   0  0  0  0  0  0  0  0  0  0  0  0
   -4.5430    0.8650    0.2580 C   0  0  0  0  0  0  0  0  0  0  0  0
   -3.5520   -0.0170   -0.2160 C   0  0  0  0  0  0  0  0  0  0  0  0
   -4.0640   -1.0730   -1.0430 C   0  0  0  0  0  0  0  0  0  0  0  0
   -4.6490   -2.1020   -0.6780 O   0  0  0  0  0  0  0  0  0  0  0  0
   -3.8860   -0.9100   -2.4040 F   0  0  0  0  0  0  0  0  0  0  0  0
   -2.2540    0.2580    0.0800 C   0  0  0  0  0  0  0  0  0  0  0  0
  1  2  1  0
  2  3  2  3
  3  4  1  0
  4  5  2  3
  5  6  1  0
  6  7  2  0
  6 10  1  0
  7  8  1  0
  8  9  1  0
  9 10  2  0
  9 22  1  0
 10 11  1  0
 11 12  1  0
 12 13  2  0
 12 14  1  0
 14 15  2  0
 14 22  1  0
 15 16  1  0
 16 17  2  0
 17 18  1  0
 18 19  1  0
 18 22  2  0
 19 20  2  0
 19 21  1  0
M  END
