
     RDKit          3D

 21 23  0  0  0  0  0  0  0  0999 V2000
   -5.8180    2.7430    0.8260 C   0  0  0  0  0  0  0  0  0  0  0  0
   -4.9750    1.6200    0.2920 C   0  0  0  0  0  0  0  0  0  0  0  0
   -3.8090    1.7720   -0.4460 C   0  0  0  0  0  0  0  0  0  0  0  0
   -3.3170    0.5220   -0.7580 C   0  0  0  0  0  0  0  0  0  0  0  0
   -2.1210    0.1660   -1.5160 C   0  0  0  0  0  0  0  0  0  0  0  0
   -0.9470   -0.0300   -0.9190 C   0  0  0  0  0  0  0  0  0  0  0  0
    0.2110   -0.3590   -1.5070 N   0  0  0  0  0  0  0  0  0  0  0  0
    1.1610   -0.4640   -0.5510 C   0  0  0  0  0  0  0  0  0  0  0  0
    2.4270   -0.7690   -0.7240 C   0  0  0  0  0  0  0  0  0  0  0  0
    3.3380   -0.8420    0.4320 C   0  0  1  0  0  0  0  0  0  0  0  0
    4.4800   -1.7660    0.0930 C   0  0  0  0  0  0  0  0  0  0  0  0
    5.5930   -1.0900   -0.6430 C   0  0  0  0  0  0  0  0  0  0  0  0
    5.2570    0.2170   -0.9580 O   0  0  0  0  0  0  0  0  0  0  0  0
    5.1270    0.9030    0.2630 C   0  0  0  0  0  0  0  0  0  0  0  0
    3.8100    0.5150    0.8950 C   0  0  0  0  0  0  0  0  0  0  0  0
    0.5610   -0.1920    0.6420 N   0  0  0  0  0  0  0  0  0  0  0  0
   -0.7400    0.0790    0.4480 C   0  0  0  0  0  0  0  0  0  0  0  0
   -1.5550    0.3670    1.3620 O   0  0  0  0  0  0  0  0  0  0  0  0
   -4.1890   -0.3900   -0.2060 C   0  0  0  0  0  0  0  0  0  0  0  0
   -4.0870   -1.8750   -0.2720 C   0  0  0  0  0  0  0  0  0  0  0  0
   -5.1640    0.3060    0.4110 N   0  0  0  0  0  0  0  0  0  0  0  0
  1  2  1  0
  2  3  2  0
  2 21  1  0
  3  4  1  0
  4  5  1  0
  4 19  2  0
  5  6  2  3
  6  7  1  0
  6 17  1  0
  7  8  1  0
  8  9  2  3
  8 16  1  0
 10  9  1  6
 10 11  1  0
 10 15  1  0
 11 12  1  0
 12 13  1  0
 13 14  1  0
 14 15  1  0
 16 17  1  0
 17 18  2  0
 19 20  1  0
 19 21  1  0
M  END
