
     RDKit          3D

 22 24  0  0  0  0  0  0  0  0999 V2000
    5.8910    2.0340    0.2980 C   0  0  0  0  0  0  0  0  0  0  0  0
    4.5920    1.3520    0.1450 C   0  0  0  0  0  0  0  0  0  0  0  0
    3.3870    1.8650    0.1220 C   0  0  0  0  0  0  0  0  0  0  0  0
    2.4140    0.7600   -0.0480 C   0  0  0  0  0  0  0  0  0  0  0  0
    1.0780    0.8590   -0.1480 C   0  0  0  0  0  0  0  0  0  0  0  0
    0.2660   -0.2520   -0.2870 N   0  0  0  0  0  0  0  0  0  0  0  0
   -0.8940   -0.4320   -1.1460 C   0  0  0  0  0  0  0  0  0  0  0  0
   -2.1670   -0.5860   -0.3980 C   0  0  0  0  0  0  0  0  0  0  0  0
   -2.6180   -1.8900   -0.1380 C   0  0  0  0  0  0  0  0  0  0  0  0
   -1.7070   -2.9370   -0.3880 N   0  0  0  0  0  0  0  0  0  0  0  0
   -3.8600   -2.1490    0.4070 C   0  0  0  0  0  0  0  0  0  0  0  0
   -4.2730   -3.4320    0.6620 F   0  0  0  0  0  0  0  0  0  0  0  0
   -4.6550   -1.0520    0.6910 C   0  0  0  0  0  0  0  0  0  0  0  0
   -4.2510    0.2390    0.4480 C   0  0  0  0  0  0  0  0  0  0  0  0
   -2.9850    0.4560   -0.1070 C   0  0  0  0  0  0  0  0  0  0  0  0
   -2.9280    1.9460   -0.3820 C   0  0  0  0  0  0  0  0  0  0  0  0
   -4.4140    2.3320   -0.3920 C   0  0  0  0  0  0  0  0  0  0  0  0
   -4.8680    1.4610    0.6450 O   0  0  0  0  0  0  0  0  0  0  0  0
    3.2390   -0.4200   -0.1200 C   0  0  0  0  0  0  0  0  0  0  0  0
    2.8470   -1.8240   -0.3530 C   0  0  0  0  0  0  0  0  0  0  0  0
    4.0140   -2.5730   -0.6820 O   0  0  0  0  0  0  0  0  0  0  0  0
    4.5150   -0.0780   -0.0050 N   0  0  0  0  0  0  0  0  0  0  0  0
  1  2  1  0
  2  3  2  0
  2 22  1  0
  3  4  1  0
  4  5  2  3
  4 19  1  0
  5  6  1  0
  6  7  1  0
  7  8  1  0
  8  9  2  0
  8 15  1  0
  9 10  1  0
  9 11  1  0
 11 12  1  0
 11 13  2  0
 13 14  1  0
 14 15  2  0
 14 18  1  0
 15 16  1  0
 16 17  1  0
 17 18  1  0
 19 20  1  0
 19 22  2  0
 20 21  1  0
M  END
