
     RDKit          3D

 28 30  0  0  0  0  0  0  0  0999 V2000
    3.0770   -4.0280    1.0470 C   0  0  0  0  0  0  0  0  0  0  0  0
    2.4430   -2.7170    0.7070 C   0  0  0  0  0  0  0  0  0  0  0  0
    1.6790   -2.0160    1.6120 C   0  0  0  0  0  0  0  0  0  0  0  0
    1.1210   -0.8030    1.2560 C   0  0  0  0  0  0  0  0  0  0  0  0
    1.2890   -0.2360    0.0100 C   0  0  0  0  0  0  0  0  0  0  0  0
    0.6990    1.0750   -0.2720 C   0  0  0  0  0  0  0  0  0  0  0  0
   -0.6450    1.2850   -0.4780 C   0  0  0  0  0  0  0  0  0  0  0  0
   -1.5750    0.1540   -0.5230 C   0  0  2  0  0  0  0  0  0  0  0  0
   -1.8380   -0.4750    0.6710 O   0  0  0  0  0  0  0  0  0  0  0  0
   -3.1250   -0.5920    1.0710 C   0  0  2  0  0  0  0  0  0  0  0  0
   -3.8890    0.6570    1.3310 C   0  0  0  0  0  0  0  0  0  0  0  0
   -3.1310   -1.4030    2.3730 C   0  0  0  0  0  0  0  0  0  0  0  0
   -3.9700   -1.4010    0.0730 C   0  0  0  0  0  0  0  0  0  0  0  0
   -1.0220   -0.8360   -1.5180 C   0  0  0  0  0  0  0  0  0  0  0  0
   -0.9000   -2.0610   -1.2410 O   0  0  0  0  0  0  0  0  0  0  0  0
   -0.6260   -0.4340   -2.7830 O   0  0  0  0  0  0  0  0  0  0  0  0
   -1.1330    2.5660   -0.7090 C   0  0  0  0  0  0  0  0  0  0  0  0
   -2.5570    2.8870   -0.9480 C   0  0  0  0  0  0  0  0  0  0  0  0
   -0.2800    3.6010   -0.7300 N   0  0  0  0  0  0  0  0  0  0  0  0
    1.0370    3.4630   -0.5380 C   0  0  0  0  0  0  0  0  0  0  0  0
    1.8700    4.5810   -0.5820 C   0  0  0  0  0  0  0  0  0  0  0  0
    3.2210    4.3910   -0.3880 C   0  0  0  0  0  0  0  0  0  0  0  0
    3.6980    3.1250   -0.1610 C   0  0  0  0  0  0  0  0  0  0  0  0
    2.8680    2.0120   -0.1170 C   0  0  0  0  0  0  0  0  0  0  0  0
    1.5280    2.2020   -0.3090 C   0  0  0  0  0  0  0  0  0  0  0  0
    2.0540   -0.9420   -0.8920 C   0  0  0  0  0  0  0  0  0  0  0  0
    2.6200   -2.1610   -0.5470 C   0  0  0  0  0  0  0  0  0  0  0  0
    3.4550   -2.9460   -1.4990 C   0  0  0  0  0  0  0  0  0  0  0  0
  1  2  1  0
  2  3  2  0
  2 27  1  0
  3  4  1  0
  4  5  2  0
  5  6  1  0
  5 26  1  0
  6  7  2  0
  6 25  1  0
  7  8  1  0
  7 17  1  0
  8  9  1  1
  8 14  1  0
  9 10  1  0
 10 11  1  1
 10 12  1  0
 10 13  1  0
 14 15  2  0
 14 16  1  0
 17 18  1  0
 17 19  2  0
 19 20  1  0
 20 21  2  0
 20 25  1  0
 21 22  1  0
 22 23  2  0
 23 24  1  0
 24 25  2  0
 26 27  2  0
 27 28  1  0
M  END
