
     RDKit          3D

 22 24  0  0  0  0  0  0  0  0999 V2000
    4.0580    2.6410    1.9270 N   0  0  0  0  0  0  0  0  0  0  0  0
    3.6580    1.4860    1.2340 C   0  0  0  0  0  0  0  0  0  0  0  0
    2.3600    1.1770    0.8610 C   0  0  0  0  0  0  0  0  0  0  0  0
    1.9860    0.0510    0.1790 C   0  0  0  0  0  0  0  0  0  0  0  0
    0.6870   -0.2100   -0.2710 N   0  0  0  0  0  0  0  0  0  0  0  0
   -0.4700    0.3690    0.2440 C   0  0  0  0  0  0  0  0  0  0  0  0
   -0.4080    1.1380    1.2360 O   0  0  0  0  0  0  0  0  0  0  0  0
   -1.7810    0.1100   -0.3390 N   0  0  0  0  0  0  0  0  0  0  0  0
   -2.8980    0.6980    0.2790 C   0  0  0  0  0  0  0  0  0  0  0  0
   -4.1180    0.5470   -0.1840 C   0  0  0  0  0  0  0  0  0  0  0  0
   -5.3480    1.1120    0.4010 C   0  0  0  0  0  0  0  0  0  0  0  0
   -6.4460    0.2060   -0.0430 C   0  0  0  0  0  0  0  0  0  0  0  0
   -5.9000   -0.7120   -1.0780 C   0  0  0  0  0  0  0  0  0  0  0  0
   -4.5150   -0.2120   -1.3940 C   0  0  0  0  0  0  0  0  0  0  0  0
    3.0030   -0.8580   -0.1650 C   0  0  0  0  0  0  0  0  0  0  0  0
    4.3070   -0.5840    0.1910 C   0  0  0  0  0  0  0  0  0  0  0  0
    4.6590    0.5760    0.8870 C   0  0  0  0  0  0  0  0  0  0  0  0
    5.0790   -1.7190   -0.2890 C   0  0  0  0  0  0  0  0  0  0  0  0
    6.3920   -1.8680   -0.1740 C   0  0  0  0  0  0  0  0  0  0  0  0
    7.0930   -0.8910    0.4400 F   0  0  0  0  0  0  0  0  0  0  0  0
    4.1630   -2.6860   -0.9320 C   0  0  0  0  0  0  0  0  0  0  0  0
    2.9130   -2.0580   -0.8410 O   0  0  0  0  0  0  0  0  0  0  0  0
  1  2  1  0
  2  3  2  0
  2 17  1  0
  3  4  1  0
  4  5  1  0
  4 15  2  0
  5  6  1  0
  6  7  2  0
  6  8  1  0
  8  9  1  0
  9 10  2  3
 10 11  1  0
 10 14  1  0
 11 12  1  0
 12 13  1  0
 13 14  1  0
 15 16  1  0
 15 22  1  0
 16 17  2  0
 16 18  1  0
 18 19  2  3
 18 21  1  0
 19 20  1  0
 21 22  1  0
M  END
