
     RDKit          3D

 32 34  0  0  0  0  0  0  0  0999 V2000
    0.9600    1.7690    0.5300 O   0  0  0  0  0  0  0  0  0  0  0  0
    1.3670    0.7980   -0.1470 C   0  0  0  0  0  0  0  0  0  0  0  0
    0.5580   -0.2920   -0.2860 O   0  0  0  0  0  0  0  0  0  0  0  0
   -0.7450   -0.4240    0.2890 C   0  0  1  0  0  0  0  0  0  0  0  0
   -1.7340   -0.4110   -0.8300 C   0  0  0  0  0  0  0  0  0  0  0  0
   -2.2670    0.8770   -1.0790 O   0  0  0  0  0  0  0  0  0  0  0  0
   -3.5550    1.2350   -1.3790 C   0  0  0  0  0  0  0  0  0  0  0  0
   -3.7670    2.0390   -2.6120 C   0  0  0  0  0  0  0  0  0  0  0  0
   -5.0600    2.4330   -2.9780 O   0  0  0  0  0  0  0  0  0  0  0  0
   -2.7360    2.3730   -3.3460 C   0  0  0  0  0  0  0  0  0  0  0  0
   -1.4720    1.9700   -2.9590 O   0  0  0  0  0  0  0  0  0  0  0  0
   -4.6310    0.9180   -0.6470 C   0  0  0  0  0  0  0  0  0  0  0  0
   -4.7280    0.1630    0.5840 C   0  0  2  0  0  0  0  0  0  0  0  0
   -3.6610    0.2350    1.4500 O   0  0  0  0  0  0  0  0  0  0  0  0
   -5.1980   -1.2780    0.3810 C   0  0  0  0  0  0  0  0  0  0  0  0
   -4.5760   -2.0900    1.4920 C   0  0  0  0  0  0  0  0  0  0  0  0
   -3.7120   -3.2050    0.9860 C   0  0  0  0  0  0  0  0  0  0  0  0
   -2.5180   -3.1920    1.6630 O   0  0  0  0  0  0  0  0  0  0  0  0
   -1.4400   -2.7930    0.8350 C   0  0  0  0  0  0  0  0  0  0  0  0
   -0.8370   -1.5140    1.2740 C   0  0  1  0  0  0  0  0  0  0  0  0
    0.4680   -1.7110    1.7960 O   0  0  0  0  0  0  0  0  0  0  0  0
    2.7000    0.8450   -0.7790 C   0  0  1  0  0  0  0  0  0  0  0  0
    3.3360    2.0920   -0.4780 O   0  0  0  0  0  0  0  0  0  0  0  0
    4.6180    1.8190   -0.0710 C   0  0  0  0  0  0  0  0  0  0  0  0
    5.6850    2.6250    0.2010 C   0  0  0  0  0  0  0  0  0  0  0  0
    6.8770    2.0430    0.6010 C   0  0  0  0  0  0  0  0  0  0  0  0
    7.0320    0.6840    0.7380 C   0  0  0  0  0  0  0  0  0  0  0  0
    8.3160    0.0800    1.1690 C   0  0  0  0  0  0  0  0  0  0  0  0
    9.1360   -0.2120    0.1020 O   0  0  0  0  0  0  0  0  0  0  0  0
    5.9370   -0.1060    0.4580 C   0  0  0  0  0  0  0  0  0  0  0  0
    4.7460    0.4650    0.0580 C   0  0  0  0  0  0  0  0  0  0  0  0
    3.5480   -0.1600   -0.2650 O   0  0  0  0  0  0  0  0  0  0  0  0
  1  2  2  0
  2  3  1  0
 22  2  1  1
  4  3  1  6
  4  5  1  0
  4 20  1  0
  5  6  1  0
  6  7  1  0
  7  8  1  0
  7 12  2  0
  8  9  1  0
  8 10  2  3
 10 11  1  0
 12 13  1  0
 13 14  1  6
 13 15  1  0
 15 16  1  0
 16 17  1  0
 17 18  1  0
 18 19  1  0
 19 20  1  0
 20 21  1  6
 22 23  1  0
 22 32  1  0
 23 24  1  0
 24 25  2  0
 24 31  1  0
 25 26  1  0
 26 27  2  0
 27 28  1  0
 27 30  1  0
 28 29  1  0
 30 31  2  0
 31 32  1  0
M  END
