
     RDKit          3D

 33 37  0  0  0  0  0  0  0  0999 V2000
   -7.2690   -0.3570   -0.6480 C   0  0  0  0  0  0  0  0  0  0  0  0
   -6.8150    0.3390    0.5860 C   0  0  1  0  0  0  0  0  0  0  0  0
   -8.0770    0.8810    1.2760 C   0  0  0  0  0  0  0  0  0  0  0  0
   -6.0480   -0.4410    1.5080 N   0  0  1  0  0  0  0  0  0  0  0  0
   -5.5720   -1.6570    0.9310 C   0  0  0  0  0  0  0  0  0  0  0  0
   -4.1190   -1.9120    1.2770 C   0  0  0  0  0  0  0  0  0  0  0  0
   -3.3710   -0.7850    0.8060 N   0  0  0  0  0  0  0  0  0  0  0  0
   -3.8010    0.4260    1.2330 C   0  0  0  0  0  0  0  0  0  0  0  0
   -3.0060    1.3420    0.6980 N   0  0  0  0  0  0  0  0  0  0  0  0
   -2.0590    0.7780   -0.0740 C   0  0  0  0  0  0  0  0  0  0  0  0
   -1.0310    1.2600   -0.8400 C   0  0  0  0  0  0  0  0  0  0  0  0
   -0.1930    0.4080   -1.5690 C   0  0  0  0  0  0  0  0  0  0  0  0
    0.8860    0.9010   -2.4530 C   0  0  0  0  0  0  0  0  0  0  0  0
    1.3620    2.2730   -2.1380 C   0  0  0  0  0  0  0  0  0  0  0  0
    1.9560    2.3220   -0.8450 N   0  0  0  0  0  0  0  0  0  0  0  0
    3.2210    1.6770   -0.5920 C   0  0  0  0  0  0  0  0  0  0  0  0
    4.0270    1.3100   -1.5610 C   0  0  0  0  0  0  0  0  0  0  0  0
    5.3170    0.6560   -1.3600 C   0  0  0  0  0  0  0  0  0  0  0  0
    6.1080    0.3040   -2.4090 F   0  0  0  0  0  0  0  0  0  0  0  0
    5.7470    0.3940   -0.1400 C   0  0  0  0  0  0  0  0  0  0  0  0
    7.0500   -0.2660    0.0850 C   0  0  0  0  0  0  0  0  0  0  0  0
    7.5190   -1.2810   -0.6970 C   0  0  0  0  0  0  0  0  0  0  0  0
    8.7570   -1.8080   -0.4040 C   0  0  0  0  0  0  0  0  0  0  0  0
    9.5370   -1.3850    0.6070 N   0  0  0  0  0  0  0  0  0  0  0  0
    9.0780   -0.3720    1.3930 C   0  0  0  0  0  0  0  0  0  0  0  0
    7.8410    0.1770    1.1260 C   0  0  0  0  0  0  0  0  0  0  0  0
    4.9040    0.7750    0.9350 N   0  0  0  0  0  0  0  0  0  0  0  0
    3.6320    1.4220    0.8140 C   0  0  0  0  0  0  0  0  0  0  0  0
   -0.4360   -0.9510   -1.4890 C   0  0  0  0  0  0  0  0  0  0  0  0
    0.6030   -2.0570   -2.3900 Cl  0  0  0  0  0  0  0  0  0  0  0  0
   -1.4740   -1.4180   -0.7130 C   0  0  0  0  0  0  0  0  0  0  0  0
   -2.3170   -0.5840    0.0150 C   0  0  0  0  0  0  0  0  0  0  0  0
   -4.9960    0.3490    2.1300 C   0  0  0  0  0  0  0  0  0  0  0  0
  2  1  1  6
  2  3  1  0
  2  4  1  0
  4  5  1  6
  4 33  1  0
  5  6  1  0
  6  7  1  0
  7  8  1  0
  7 32  1  0
  8  9  2  0
  8 33  1  0
  9 10  1  0
 10 11  2  0
 10 32  1  0
 11 12  1  0
 12 13  1  0
 12 29  2  0
 13 14  1  0
 14 15  1  0
 15 16  1  0
 16 17  2  0
 16 28  1  0
 17 18  1  0
 18 19  1  0
 18 20  2  0
 20 21  1  0
 20 27  1  0
 21 22  2  0
 21 26  1  0
 22 23  1  0
 23 24  2  0
 24 25  1  0
 25 26  2  0
 27 28  1  0
 29 30  1  0
 29 31  1  0
 31 32  2  0
M  CHG  2   4   1  24   1
M  END
