
     RDKit          3D

 33 36  0  0  0  0  0  0  0  0999 V2000
   -4.4800   -4.4400    0.8860 C   0  0  0  0  0  0  0  0  0  0  0  0
   -3.5770   -3.3600    0.2980 C   0  0  0  0  0  0  0  0  0  0  0  0
   -4.1840   -2.4970   -0.4960 C   0  0  0  0  0  0  0  0  0  0  0  0
   -3.5620   -1.3580   -1.1940 C   0  0  1  0  0  0  0  0  0  0  0  0
   -4.3550   -1.0540   -2.3140 F   0  0  0  0  0  0  0  0  0  0  0  0
   -3.5800   -0.0980   -0.3220 C   0  0  0  0  0  0  0  0  0  0  0  0
   -2.4300    0.8150   -0.5910 C   0  0  1  0  0  0  0  0  0  0  0  0
   -2.9420    2.0200   -1.3380 C   0  0  0  0  0  0  0  0  0  0  0  0
   -4.1590    2.2370   -1.6900 N   0  0  0  0  0  0  0  0  0  0  0  0
   -4.3040    3.4860   -2.3900 C   0  0  0  0  0  0  0  0  0  0  0  0
   -2.9400    4.0260   -2.4170 C   0  0  0  0  0  0  0  0  0  0  0  0
   -2.1660    3.1600   -1.8020 C   0  0  0  0  0  0  0  0  0  0  0  0
   -1.7340    1.2220    0.6080 N   0  0  0  0  0  0  0  0  0  0  0  0
   -0.4320    0.5480    0.7510 C   0  0  0  0  0  0  0  0  0  0  0  0
   -0.5350   -0.6480    1.6360 C   0  0  0  0  0  0  0  0  0  0  0  0
    0.1140   -1.8260    1.2140 N   0  0  0  0  0  0  0  0  0  0  0  0
    1.3790   -1.9910    1.8160 C   0  0  0  0  0  0  0  0  0  0  0  0
    2.2830   -0.8590    1.4740 C   0  0  0  0  0  0  0  0  0  0  0  0
    3.0140   -0.6770    0.3210 C   0  0  0  0  0  0  0  0  0  0  0  0
    3.6880    0.4640    0.4350 N   0  0  0  0  0  0  0  0  0  0  0  0
    4.5710    1.0430   -0.5230 C   0  0  0  0  0  0  0  0  0  0  0  0
    4.1580    1.3350   -1.7920 C   0  0  0  0  0  0  0  0  0  0  0  0
    5.0380    1.9010   -2.7190 C   0  0  0  0  0  0  0  0  0  0  0  0
    6.3360    2.1740   -2.3660 C   0  0  0  0  0  0  0  0  0  0  0  0
    7.4680    2.8890   -3.5180 Cl  0  0  0  0  0  0  0  0  0  0  0  0
    6.7410    1.8750   -1.0840 C   0  0  0  0  0  0  0  0  0  0  0  0
    5.8660    1.3090   -0.1520 C   0  0  0  0  0  0  0  0  0  0  0  0
    3.3780    0.9800    1.6390 C   0  0  0  0  0  0  0  0  0  0  0  0
    3.9150    2.2500    2.1650 C   0  0  0  0  0  0  0  0  0  0  0  0
    2.5170    0.1810    2.2890 N   0  0  0  0  0  0  0  0  0  0  0  0
   -0.0800   -2.3070   -0.0840 C   0  0  0  0  0  0  0  0  0  0  0  0
   -1.0670   -3.4390   -0.2250 C   0  0  0  0  0  0  0  0  0  0  0  0
   -2.2030   -3.3530    0.6320 N   0  0  0  0  0  0  0  0  0  0  0  0
  1  2  1  0
  2  3  2  0
  2 33  1  0
  3  4  1  0
  4  5  1  6
  4  6  1  0
  6  7  1  0
  7  8  1  1
  7 13  1  0
  8  9  2  0
  8 12  1  0
  9 10  1  0
 10 11  1  0
 11 12  2  0
 13 14  1  0
 14 15  1  0
 15 16  1  0
 16 17  1  0
 16 31  1  0
 17 18  1  0
 18 19  2  0
 18 30  1  0
 19 20  1  0
 20 21  1  0
 20 28  1  0
 21 22  2  0
 21 27  1  0
 22 23  1  0
 23 24  2  0
 24 25  1  0
 24 26  1  0
 26 27  2  0
 28 29  1  0
 28 30  2  0
 31 32  1  0
 32 33  1  0
M  CHG  2  13   1  30   1
M  END
