
     RDKit          3D

 33 37  0  0  0  0  0  0  0  0999 V2000
   -6.5480    3.7860    0.0020 C   0  0  0  0  0  0  0  0  0  0  0  0
   -6.0640    2.4020   -0.4060 C   0  0  0  0  0  0  0  0  0  0  0  0
   -4.8600    2.0470   -0.1260 C   0  0  0  0  0  0  0  0  0  0  0  0
   -4.0950    0.8530   -0.3490 C   0  0  0  0  0  0  0  0  0  0  0  0
   -2.7180    0.9080   -0.2120 N   0  0  0  0  0  0  0  0  0  0  0  0
   -1.8980   -0.1200   -0.3710 C   0  0  0  0  0  0  0  0  0  0  0  0
   -0.4620    0.0620   -0.1980 C   0  0  0  0  0  0  0  0  0  0  0  0
    0.4010   -0.9830   -0.3620 C   0  0  0  0  0  0  0  0  0  0  0  0
    1.7690   -0.8300   -0.2030 C   0  0  0  0  0  0  0  0  0  0  0  0
    2.3150    0.4090    0.1340 C   0  0  0  0  0  0  0  0  0  0  0  0
    3.7160    0.5740    0.2960 N   0  0  0  0  0  0  0  0  0  0  0  0
    4.3930    1.7490    0.7110 C   0  0  0  0  0  0  0  0  0  0  0  0
    5.4740    2.1780   -0.1570 N   0  0  0  0  0  0  0  0  0  0  0  0
    6.1360    1.0740   -0.7970 C   0  0  0  0  0  0  0  0  0  0  0  0
    5.9630   -0.2200   -0.0340 C   0  0  1  0  0  0  0  0  0  0  0  0
    6.7570   -1.2870   -0.7970 C   0  0  0  0  0  0  0  0  0  0  0  0
    8.0470   -1.3590    0.0100 C   0  0  0  0  0  0  0  0  0  0  0  0
    7.5730   -1.2270    1.3670 N   0  0  0  0  0  0  0  0  0  0  0  0
    6.5520   -0.1940    1.3360 C   0  0  0  0  0  0  0  0  0  0  0  0
    4.5290   -0.6130   -0.0070 C   0  0  0  0  0  0  0  0  0  0  0  0
    1.4410    1.4460    0.2960 C   0  0  0  0  0  0  0  0  0  0  0  0
    0.0650    1.2810    0.1330 C   0  0  0  0  0  0  0  0  0  0  0  0
   -2.4170   -1.3060   -0.6860 N   0  0  0  0  0  0  0  0  0  0  0  0
   -3.7310   -1.4870   -0.8430 C   0  0  0  0  0  0  0  0  0  0  0  0
   -4.5700   -0.3740   -0.6650 C   0  0  0  0  0  0  0  0  0  0  0  0
   -6.0310   -0.4320   -0.7110 C   0  0  0  0  0  0  0  0  0  0  0  0
   -6.4950   -1.8500   -0.6710 N   0  0  0  0  0  0  0  0  0  0  0  0
   -5.8630   -2.5430    0.4240 C   0  0  0  0  0  0  0  0  0  0  0  0
   -4.8740   -3.5480   -0.1200 C   0  0  0  0  0  0  0  0  0  0  0  0
   -4.0570   -2.8850   -1.2030 C   0  0  0  0  0  0  0  0  0  0  0  0
   -4.0460    3.1110    0.6340 C   0  0  2  0  0  0  0  0  0  0  0  0
   -2.9620    3.3290   -0.2310 F   0  0  0  0  0  0  0  0  0  0  0  0
   -3.4050    2.4140    2.1200 Cl  0  0  0  0  0  0  0  0  0  0  0  0
  1  2  1  0
  2  3  2  3
  3  4  1  0
  3 31  1  0
  4  5  2  0
  4 25  1  0
  5  6  1  0
  6  7  1  0
  6 23  2  0
  7  8  2  0
  7 22  1  0
  8  9  1  0
  9 10  2  0
 10 11  1  0
 10 21  1  0
 11 12  1  0
 11 20  1  0
 12 13  1  0
 13 14  1  0
 15 14  1  6
 15 16  1  0
 15 19  1  0
 15 20  1  0
 16 17  1  0
 17 18  1  0
 18 19  1  0
 21 22  2  0
 23 24  1  0
 24 25  2  0
 24 30  1  0
 25 26  1  0
 26 27  1  0
 27 28  1  0
 28 29  1  0
 29 30  1  0
 31 32  1  6
 31 33  1  0
M  CHG  2  18   1  27   1
M  END
