
     RDKit          3D

 32 34  0  0  0  0  0  0  0  0999 V2000
   -0.7760    1.3440   -1.9690 O   0  0  0  0  0  0  0  0  0  0  0  0
   -1.0090    0.9890   -0.7440 C   0  0  0  0  0  0  0  0  0  0  0  0
   -1.9980    1.1890    0.0740 O   0  0  0  0  0  0  0  0  0  0  0  0
   -3.2120    1.6900    0.3620 C   0  0  0  0  0  0  0  0  0  0  0  0
   -3.4030    2.3490    1.5590 C   0  0  0  0  0  0  0  0  0  0  0  0
   -4.6140    2.9000    1.9410 C   0  0  0  0  0  0  0  0  0  0  0  0
   -5.6950    2.8010    1.1100 C   0  0  0  0  0  0  0  0  0  0  0  0
   -6.9050    3.3430    1.4740 O   0  0  0  0  0  0  0  0  0  0  0  0
   -5.5010    2.1380   -0.0910 C   0  0  0  0  0  0  0  0  0  0  0  0
   -4.3080    1.5860   -0.4830 C   0  0  0  0  0  0  0  0  0  0  0  0
   -4.1920    0.9350   -1.7020 O   0  0  0  0  0  0  0  0  0  0  0  0
   -3.8470   -0.3940   -1.9810 C   0  0  0  0  0  0  0  0  0  0  0  0
   -3.9690   -1.3720   -0.8810 C   0  0  2  0  0  0  0  0  0  0  0  0
   -4.7520   -0.9230    0.1840 O   0  0  0  0  0  0  0  0  0  0  0  0
   -2.6380   -1.9650   -0.4130 C   0  0  2  0  0  0  0  0  0  0  0  0
   -2.6720   -3.3850   -0.5070 O   0  0  0  0  0  0  0  0  0  0  0  0
   -2.4370   -1.5450    0.9990 C   0  0  0  0  0  0  0  0  0  0  0  0
   -1.2220   -1.0400    1.3760 O   0  0  0  0  0  0  0  0  0  0  0  0
   -0.0240   -0.7650    0.7850 C   0  0  0  0  0  0  0  0  0  0  0  0
    1.1320   -1.4330    1.1760 C   0  0  0  0  0  0  0  0  0  0  0  0
    2.3830   -1.1980    0.6120 C   0  0  0  0  0  0  0  0  0  0  0  0
    2.5390   -0.2810   -0.3730 C   0  0  0  0  0  0  0  0  0  0  0  0
    3.7360   -0.0150   -0.9550 O   0  0  0  0  0  0  0  0  0  0  0  0
    4.9460   -0.5970   -0.6670 C   0  0  1  0  0  0  0  0  0  0  0  0
    5.5680   -1.1820   -1.9410 C   0  0  0  0  0  0  0  0  0  0  0  0
    6.7900   -1.7510   -1.5540 O   0  0  0  0  0  0  0  0  0  0  0  0
    5.9090    0.4770   -0.1180 C   0  0  2  0  0  0  0  0  0  0  0  0
    7.1010   -0.1860    0.1470 O   0  0  0  0  0  0  0  0  0  0  0  0
    5.2560    0.9750    1.1660 C   0  0  0  0  0  0  0  0  0  0  0  0
    6.0660    1.8570    1.8580 O   0  0  0  0  0  0  0  0  0  0  0  0
    1.4020    0.4030   -0.7850 C   0  0  0  0  0  0  0  0  0  0  0  0
    0.1570    0.1810   -0.2360 C   0  0  0  0  0  0  0  0  0  0  0  0
  1  2  2  0
  2  3  1  0
  2 32  1  0
  3  4  1  0
  4  5  2  0
  4 10  1  0
  5  6  1  0
  6  7  2  0
  7  8  1  0
  7  9  1  0
  9 10  2  0
 10 11  1  0
 11 12  1  0
 12 13  1  0
 13 14  1  1
 13 15  1  0
 15 16  1  1
 15 17  1  0
 17 18  1  0
 18 19  1  0
 19 20  2  0
 19 32  1  0
 20 21  1  0
 21 22  2  0
 22 23  1  0
 22 31  1  0
 23 24  1  0
 24 25  1  6
 24 27  1  0
 25 26  1  0
 27 28  1  1
 27 29  1  0
 29 30  1  0
 31 32  2  0
M  END
