
     RDKit          3D

 32 35  0  0  0  0  0  0  0  0999 V2000
   -3.6830    2.2940   -1.0280 C   0  0  0  0  0  0  0  0  0  0  0  0
   -2.2620    2.4120   -0.6820 C   0  0  0  0  0  0  0  0  0  0  0  0
   -1.7790    3.6970   -0.6720 N   0  0  0  0  0  0  0  0  0  0  0  0
   -0.5150    3.9210   -0.2930 C   0  0  0  0  0  0  0  0  0  0  0  0
    0.0280    5.1960   -0.2620 C   0  0  0  0  0  0  0  0  0  0  0  0
    1.3330    5.4210    0.1310 C   0  0  0  0  0  0  0  0  0  0  0  0
    2.1510    4.3800    0.5090 C   0  0  0  0  0  0  0  0  0  0  0  0
    1.6160    3.1090    0.4810 C   0  0  0  0  0  0  0  0  0  0  0  0
    0.2940    2.8770    0.0830 C   0  0  0  0  0  0  0  0  0  0  0  0
   -0.2120    1.5790    0.0650 C   0  0  0  0  0  0  0  0  0  0  0  0
    0.6630    0.4870    0.4530 C   0  0  0  0  0  0  0  0  0  0  0  0
    0.8340    0.0530    1.7500 C   0  0  0  0  0  0  0  0  0  0  0  0
    1.7260   -0.9830    2.0330 C   0  0  0  0  0  0  0  0  0  0  0  0
    1.8950   -1.4090    3.3090 F   0  0  0  0  0  0  0  0  0  0  0  0
    2.4630   -1.6110    1.0500 C   0  0  0  0  0  0  0  0  0  0  0  0
    2.2900   -1.1760   -0.2510 C   0  0  0  0  0  0  0  0  0  0  0  0
    1.4110   -0.1540   -0.5320 C   0  0  0  0  0  0  0  0  0  0  0  0
    1.2480    0.2930   -1.9540 C   0  0  0  0  0  0  0  0  0  0  0  0
    3.0610   -1.8190   -1.3510 C   0  0  0  0  0  0  0  0  0  0  0  0
    3.6370   -3.1410   -0.9050 C   0  0  0  0  0  0  0  0  0  0  0  0
    4.3460   -3.0200    0.4380 C   0  0  0  0  0  0  0  0  0  0  0  0
    3.3410   -2.6390    1.3740 O   0  0  0  0  0  0  0  0  0  0  0  0
   -1.5060    1.3440   -0.3240 C   0  0  0  0  0  0  0  0  0  0  0  0
   -1.9740   -0.0260   -0.4360 C   0  0  2  0  0  0  0  0  0  0  0  0
   -1.2250   -1.0100    0.1490 O   0  0  0  0  0  0  0  0  0  0  0  0
   -1.9390   -1.7780    1.0680 C   0  0  1  0  0  0  0  0  0  0  0  0
   -2.4660   -0.9210    2.1970 C   0  0  0  0  0  0  0  0  0  0  0  0
   -3.1070   -2.5210    0.4570 C   0  0  0  0  0  0  0  0  0  0  0  0
   -1.0440   -2.8320    1.6850 C   0  0  0  0  0  0  0  0  0  0  0  0
   -2.2420   -0.4020   -1.8470 C   0  0  0  0  0  0  0  0  0  0  0  0
   -2.8530    0.2830   -2.6650 O   0  0  0  0  0  0  0  0  0  0  0  0
   -1.7780   -1.6420   -2.3430 O   0  0  0  0  0  0  0  0  0  0  0  0
  1  2  1  0
  2  3  2  0
  2 23  1  0
  3  4  1  0
  4  5  2  0
  4  9  1  0
  5  6  1  0
  6  7  2  0
  7  8  1  0
  8  9  2  0
  9 10  1  0
 10 11  1  0
 10 23  2  0
 11 12  2  0
 11 17  1  0
 12 13  1  0
 13 14  1  0
 13 15  2  0
 15 16  1  0
 15 22  1  0
 16 17  2  0
 16 19  1  0
 17 18  1  0
 19 20  1  0
 20 21  1  0
 21 22  1  0
 23 24  1  0
 24 25  1  6
 24 30  1  0
 25 26  1  0
 26 27  1  1
 26 28  1  0
 26 29  1  0
 30 31  2  0
 30 32  1  0
M  END
