
     RDKit          3D

 32 36  0  0  0  0  0  0  0  0999 V2000
   -4.5670   -3.5530   -0.7030 C   0  0  0  0  0  0  0  0  0  0  0  0
   -4.3490   -2.6610    0.4080 N   0  0  2  0  0  0  0  0  0  0  0  0
   -4.6820   -1.2830    0.0950 C   0  0  0  0  0  0  0  0  0  0  0  0
   -3.8510   -0.7660   -1.0160 C   0  0  0  0  0  0  0  0  0  0  0  0
   -2.3800   -0.9780   -0.9210 C   0  0  1  0  0  0  0  0  0  0  0  0
   -1.7070    0.2570   -0.5520 N   0  0  0  0  0  0  0  0  0  0  0  0
   -0.3060    0.4300   -0.5250 C   0  0  0  0  0  0  0  0  0  0  0  0
    0.5420   -0.5700   -0.9460 C   0  0  0  0  0  0  0  0  0  0  0  0
    1.9210   -0.4010   -0.9350 C   0  0  0  0  0  0  0  0  0  0  0  0
    2.7810   -1.4560   -1.3780 N   0  0  0  0  0  0  0  0  0  0  0  0
    4.1870   -1.2900   -1.3680 C   0  0  0  0  0  0  0  0  0  0  0  0
    4.7770   -0.7740   -2.5020 C   0  0  0  0  0  0  0  0  0  0  0  0
    4.0310   -0.4320   -3.6010 F   0  0  0  0  0  0  0  0  0  0  0  0
    6.1460   -0.6130   -2.4910 C   0  0  0  0  0  0  0  0  0  0  0  0
    6.8780   -0.9650   -1.3710 C   0  0  0  0  0  0  0  0  0  0  0  0
    6.2850   -1.4810   -0.2380 C   0  0  0  0  0  0  0  0  0  0  0  0
    6.7600   -1.9050    0.9840 C   0  0  0  0  0  0  0  0  0  0  0  0
    5.6830   -2.3260    1.7280 C   0  0  0  0  0  0  0  0  0  0  0  0
    4.5940   -2.1570    0.9630 N   0  0  0  0  0  0  0  0  0  0  0  0
    4.8970   -1.6470   -0.2410 C   0  0  0  0  0  0  0  0  0  0  0  0
    2.4510    0.7930   -0.4930 C   0  0  0  0  0  0  0  0  0  0  0  0
    1.5880    1.7730   -0.0790 C   0  0  0  0  0  0  0  0  0  0  0  0
    2.2560    3.2930    0.4840 Cl  0  0  0  0  0  0  0  0  0  0  0  0
    0.2250    1.6460   -0.0750 C   0  0  0  0  0  0  0  0  0  0  0  0
   -0.6480    2.6650    0.3550 N   0  0  0  0  0  0  0  0  0  0  0  0
   -1.1180    3.6170   -0.6210 C   0  0  0  0  0  0  0  0  0  0  0  0
   -2.3180    4.4000   -0.1300 C   0  0  0  0  0  0  0  0  0  0  0  0
   -1.9850    4.8460    1.2260 N   0  0  0  0  0  0  0  0  0  0  0  0
   -2.0940    3.6740    2.0720 C   0  0  0  0  0  0  0  0  0  0  0  0
   -1.0200    2.6900    1.7550 C   0  0  0  0  0  0  0  0  0  0  0  0
   -1.9750   -2.1220   -0.0350 C   0  0  0  0  0  0  0  0  0  0  0  0
   -3.0050   -2.6500    0.8860 C   0  0  0  0  0  0  0  0  0  0  0  0
  2  1  1  6
  2  3  1  0
  2 32  1  0
  3  4  1  0
  4  5  1  0
  5  6  1  1
  5 31  1  0
  6  7  1  0
  7  8  2  0
  7 24  1  0
  8  9  1  0
  9 10  1  0
  9 21  2  0
 10 11  1  0
 11 12  2  0
 11 20  1  0
 12 13  1  0
 12 14  1  0
 14 15  2  0
 15 16  1  0
 16 17  1  0
 16 20  2  0
 17 18  2  0
 18 19  1  0
 19 20  1  0
 21 22  1  0
 22 23  1  0
 22 24  2  0
 24 25  1  0
 25 26  1  0
 25 30  1  0
 26 27  1  0
 27 28  1  0
 28 29  1  0
 29 30  1  0
 31 32  1  0
M  CHG  2   2   1  28   1
M  END
