
     RDKit          3D

 17 17  0  0  0  0  0  0  0  0999 V2000
   -4.3860   -1.5250   -0.0340 C   0  0  0  0  0  0  0  0  0  0  0  0
   -3.3990   -2.2300   -0.9190 C   0  0  0  0  0  0  0  0  0  0  0  0
   -2.4430   -1.1970   -1.4740 C   0  0  0  0  0  0  0  0  0  0  0  0
   -1.6980   -0.4860   -0.3630 C   0  0  0  0  0  0  0  0  0  0  0  0
   -0.7870    0.5170   -1.0470 C   0  0  0  0  0  0  0  0  0  0  0  0
   -0.0400    1.2300    0.0420 C   0  0  0  0  0  0  0  0  0  0  0  0
   -0.4070    2.5080    0.3940 C   0  0  0  0  0  0  0  0  0  0  0  0
    0.2620    3.1800    1.3890 C   0  0  0  0  0  0  0  0  0  0  0  0
   -0.1100    4.5700    1.7980 C   0  0  0  0  0  0  0  0  0  0  0  0
    1.3000    2.5230    2.0050 C   0  0  0  0  0  0  0  0  0  0  0  0
    1.6710    1.2310    1.6490 C   0  0  0  0  0  0  0  0  0  0  0  0
    1.0190    0.5460    0.6620 C   0  0  0  0  0  0  0  0  0  0  0  0
    1.2650   -0.6980    0.2170 O   0  0  0  0  0  0  0  0  0  0  0  0
    2.1570   -1.6880    0.4950 C   0  0  0  0  0  0  0  0  0  0  0  0
    3.5680   -1.2680    0.2080 C   0  0  0  0  0  0  0  0  0  0  0  0
    3.7900   -0.9120   -1.0900 O   0  0  0  0  0  0  0  0  0  0  0  0
    3.5460   -1.9460   -1.9680 C   0  0  0  0  0  0  0  0  0  0  0  0
  1  2  1  0
  2  3  1  0
  3  4  1  0
  4  5  1  0
  5  6  1  0
  6  7  2  0
  6 12  1  0
  7  8  1  0
  8  9  1  0
  8 10  2  0
 10 11  1  0
 11 12  2  0
 12 13  1  0
 13 14  1  0
 14 15  1  0
 15 16  1  0
 16 17  1  0
M  END
