
     RDKit          3D

 10 10  0  0  0  0  0  0  0  0999 V2000
   -2.8590   -0.4900   -1.3640 O   0  0  0  0  0  0  0  0  0  0  0  0
   -2.3230   -0.0110   -0.3380 C   0  0  0  0  0  0  0  0  0  0  0  0
   -3.1680    0.4870    0.6430 O   0  0  0  0  0  0  0  0  0  0  0  0
   -0.8700    0.0200   -0.1880 C   0  0  0  0  0  0  0  0  0  0  0  0
   -0.0460   -0.4800   -1.1750 C   0  0  0  0  0  0  0  0  0  0  0  0
    1.3440   -0.4580   -1.0470 C   0  0  0  0  0  0  0  0  0  0  0  0
    1.9180    0.0730    0.0900 C   0  0  0  0  0  0  0  0  0  0  0  0
    3.2900    0.0770    0.1810 O   0  0  0  0  0  0  0  0  0  0  0  0
    1.1140    0.5760    1.0840 C   0  0  0  0  0  0  0  0  0  0  0  0
   -0.2640    0.5420    0.9320 C   0  0  0  0  0  0  0  0  0  0  0  0
  1  2  2  0
  2  3  1  0
  2  4  1  0
  4  5  2  0
  4 10  1  0
  5  6  1  0
  6  7  2  0
  7  8  1  0
  7  9  1  0
  9 10  2  0
M  END
