
     RDKit          3D

 17 17  0  0  0  0  0  0  0  0999 V2000
    4.1430   -1.4510    1.3380 C   0  0  0  0  0  0  0  0  0  0  0  0
    3.7700   -2.1360    0.2300 C   0  0  0  0  0  0  0  0  0  0  0  0
    4.6720   -3.2700   -0.0970 C   0  0  0  0  0  0  0  0  0  0  0  0
    2.6000   -1.7330   -0.4930 C   0  0  0  0  0  0  0  0  0  0  0  0
    2.1170   -2.2650   -1.5500 C   0  0  0  0  0  0  0  0  0  0  0  0
    2.6530   -3.4280   -2.2820 C   0  0  0  0  0  0  0  0  0  0  0  0
    1.9090   -0.6140    0.0360 O   0  0  0  0  0  0  0  0  0  0  0  0
    0.5920   -0.2900   -0.3400 C   0  0  0  0  0  0  0  0  0  0  0  0
    0.2060    0.9500    0.4290 C   0  0  0  0  0  0  0  0  0  0  0  0
   -1.2220    1.3930    0.0940 C   0  0  1  0  0  0  0  0  0  0  0  0
   -1.2730    1.6560   -1.2540 O   0  0  0  0  0  0  0  0  0  0  0  0
   -2.1350    0.2860    0.5070 C   0  0  0  0  0  0  0  0  0  0  0  0
   -3.4570    0.7300    1.0330 C   0  0  0  0  0  0  0  0  0  0  0  0
   -4.1380    1.7530    0.1790 C   0  0  0  0  0  0  0  0  0  0  0  0
   -3.8370    3.1230    0.8000 C   0  0  0  0  0  0  0  0  0  0  0  0
   -2.5020    3.5490    0.2750 C   0  0  0  0  0  0  0  0  0  0  0  0
   -1.4300    2.6730    0.8620 C   0  0  0  0  0  0  0  0  0  0  0  0
  1  2  2  0
  2  3  1  0
  2  4  1  0
  4  5  2  3
  4  7  1  0
  5  6  1  0
  7  8  1  0
  8  9  1  0
  9 10  1  0
 10 11  1  6
 10 12  1  0
 10 17  1  0
 12 13  1  0
 13 14  1  0
 14 15  1  0
 15 16  1  0
 16 17  1  0
M  END
