
     RDKit          3D

 17 17  0  0  0  0  0  0  0  0999 V2000
    2.9110   -1.5980    0.2860 C   0  0  0  0  0  0  0  0  0  0  0  0
    3.4600   -0.4040    0.1700 C   0  0  0  0  0  0  0  0  0  0  0  0
    4.7910   -0.2330    0.7070 C   0  0  0  0  0  0  0  0  0  0  0  0
    5.5210    0.8120    0.7220 C   0  0  0  0  0  0  0  0  0  0  0  0
    5.2500    2.1540    0.2090 C   0  0  0  0  0  0  0  0  0  0  0  0
    2.6870    0.6780   -0.4300 C   0  0  0  0  0  0  0  0  0  0  0  0
    1.3970    0.2340   -0.7640 O   0  0  0  0  0  0  0  0  0  0  0  0
    0.5670    0.0860    0.3180 C   0  0  0  0  0  0  0  0  0  0  0  0
   -0.7580   -0.4910   -0.1400 C   0  0  0  0  0  0  0  0  0  0  0  0
   -1.6160   -0.6270    1.0800 C   0  0  0  0  0  0  0  0  0  0  0  0
   -2.8440   -1.1430    0.7590 O   0  0  0  0  0  0  0  0  0  0  0  0
   -3.8720   -0.7130   -0.0050 C   0  0  0  0  0  0  0  0  0  0  0  0
   -3.9430    0.4740   -0.6930 C   0  0  0  0  0  0  0  0  0  0  0  0
   -5.0380    0.8270   -1.4540 C   0  0  0  0  0  0  0  0  0  0  0  0
   -6.1020   -0.0170   -1.5410 C   0  0  0  0  0  0  0  0  0  0  0  0
   -6.0850   -1.2200   -0.8710 C   0  0  0  0  0  0  0  0  0  0  0  0
   -4.9990   -1.5440   -0.1310 C   0  0  0  0  0  0  0  0  0  0  0  0
  1  2  2  0
  2  3  1  0
  2  6  1  0
  3  4  2  3
  4  5  1  0
  6  7  1  0
  7  8  1  0
  8  9  1  0
  9 10  1  0
 10 11  1  0
 11 12  1  0
 12 13  2  0
 12 17  1  0
 13 14  1  0
 14 15  2  0
 15 16  1  0
 16 17  2  0
M  END
