
     RDKit          3D

 17 17  0  0  0  0  0  0  0  0999 V2000
    2.3430   -2.1060   -0.2380 C   0  0  0  0  0  0  0  0  0  0  0  0
    2.1450   -0.9500    0.3630 C   0  0  0  0  0  0  0  0  0  0  0  0
    3.3450   -0.2520    0.9550 C   0  0  0  0  0  0  0  0  0  0  0  0
    3.4980    1.0980    0.2830 C   0  0  0  0  0  0  0  0  0  0  0  0
    4.5820    1.8180    0.7660 O   0  0  0  0  0  0  0  0  0  0  0  0
    5.7990    1.1990    0.5980 C   0  0  0  0  0  0  0  0  0  0  0  0
    0.8180   -0.3030    0.4820 C   0  0  0  0  0  0  0  0  0  0  0  0
   -0.2010   -1.1130   -0.2340 C   0  0  2  0  0  0  0  0  0  0  0  0
    0.1680   -1.1790   -1.5970 O   0  0  0  0  0  0  0  0  0  0  0  0
   -1.5660   -0.5510   -0.1990 C   0  0  0  0  0  0  0  0  0  0  0  0
   -2.5210   -1.0200   -1.0770 C   0  0  0  0  0  0  0  0  0  0  0  0
   -3.8200   -0.5320   -1.0940 C   0  0  0  0  0  0  0  0  0  0  0  0
   -4.8200   -1.0640   -2.0570 C   0  0  0  0  0  0  0  0  0  0  0  0
   -4.1710    0.4660   -0.1940 C   0  0  0  0  0  0  0  0  0  0  0  0
   -3.2290    0.9450    0.6890 C   0  0  0  0  0  0  0  0  0  0  0  0
   -3.6490    2.0140    1.6360 C   0  0  0  0  0  0  0  0  0  0  0  0
   -1.9420    0.4390    0.6830 C   0  0  0  0  0  0  0  0  0  0  0  0
  1  2  2  0
  2  3  1  0
  2  7  1  0
  3  4  1  0
  4  5  1  0
  5  6  1  0
  7  8  1  0
  8  9  1  6
  8 10  1  0
 10 11  2  0
 10 17  1  0
 11 12  1  0
 12 13  1  0
 12 14  2  0
 14 15  1  0
 15 16  1  0
 15 17  2  0
M  END
