
     RDKit          3D

 17 17  0  0  0  0  0  0  0  0999 V2000
   -2.7130    2.3480    1.7470 C   0  0  0  0  0  0  0  0  0  0  0  0
   -3.4800    1.2670    1.0590 C   0  0  0  0  0  0  0  0  0  0  0  0
   -2.7880    0.0200    0.7160 C   0  0  0  0  0  0  0  0  0  0  0  0
   -1.6400   -0.0110   -0.1910 C   0  0  2  0  0  0  0  0  0  0  0  0
   -1.9080    0.5320   -1.5770 C   0  0  0  0  0  0  0  0  0  0  0  0
   -1.3880   -1.5310   -0.4640 C   0  0  0  0  0  0  0  0  0  0  0  0
    0.0450   -1.7460   -0.8410 C   0  0  0  0  0  0  0  0  0  0  0  0
    0.9620   -1.5600    0.3760 C   0  0  1  0  0  0  0  0  0  0  0  0
    0.7760   -2.8900    1.2010 C   0  0  0  0  0  0  0  0  0  0  0  0
    2.3430   -1.6370   -0.0830 C   0  0  0  0  0  0  0  0  0  0  0  0
    2.9190   -0.7570   -1.0840 C   0  0  0  0  0  0  0  0  0  0  0  0
    3.0370    0.6770   -0.8070 C   0  0  0  0  0  0  0  0  0  0  0  0
    2.7890    1.1560    0.2990 O   0  0  0  0  0  0  0  0  0  0  0  0
    3.4490    1.5710   -1.8190 O   0  0  0  0  0  0  0  0  0  0  0  0
    3.5440    2.9290   -1.4940 C   0  0  0  0  0  0  0  0  0  0  0  0
    0.4190   -0.4560    1.1590 C   0  0  0  0  0  0  0  0  0  0  0  0
   -0.3870    0.5540    0.3580 C   0  0  0  0  0  0  0  0  0  0  0  0
  1  2  1  0
  2  3  1  0
  3  4  1  0
  4  5  1  6
  4  6  1  0
  4 17  1  0
  6  7  1  0
  7  8  1  0
  8  9  1  1
  8 10  1  0
  8 16  1  0
 10 11  1  0
 11 12  1  0
 12 13  2  0
 12 14  1  0
 14 15  1  0
 16 17  1  0
M  END
