
     RDKit          3D

 17 17  0  0  0  0  0  0  0  0999 V2000
    3.2150   -0.3590   -2.0060 C   0  0  0  0  0  0  0  0  0  0  0  0
    3.9630   -0.2650   -0.9460 C   0  0  0  0  0  0  0  0  0  0  0  0
    5.3800    0.1910   -1.0840 C   0  0  0  0  0  0  0  0  0  0  0  0
    3.4840   -0.5550    0.4110 C   0  0  0  0  0  0  0  0  0  0  0  0
    2.1880   -0.9240    0.5650 O   0  0  0  0  0  0  0  0  0  0  0  0
    1.2310    0.0430    0.3150 C   0  0  0  0  0  0  0  0  0  0  0  0
   -0.1710   -0.5150    0.4630 C   0  0  2  0  0  0  0  0  0  0  0  0
   -0.4590   -1.5320   -0.3720 O   0  0  0  0  0  0  0  0  0  0  0  0
   -0.6520   -2.7790    0.0740 C   0  0  0  0  0  0  0  0  0  0  0  0
   -1.8290   -2.8710    1.0050 C   0  0  0  0  0  0  0  0  0  0  0  0
   -3.1220   -2.4880    0.3490 C   0  0  0  0  0  0  0  0  0  0  0  0
   -1.2080    0.5560    0.3660 C   0  0  1  0  0  0  0  0  0  0  0  0
   -1.0600    1.6270    1.4280 C   0  0  0  0  0  0  0  0  0  0  0  0
   -2.1920    2.6070    1.2390 C   0  0  0  0  0  0  0  0  0  0  0  0
   -3.0190    2.3690    0.0140 C   0  0  0  0  0  0  0  0  0  0  0  0
   -2.2020    2.1680   -1.2460 C   0  0  0  0  0  0  0  0  0  0  0  0
   -0.9910    1.2910   -0.9680 C   0  0  0  0  0  0  0  0  0  0  0  0
  1  2  2  0
  2  3  1  0
  2  4  1  0
  4  5  1  0
  5  6  1  0
  7  6  1  6
  7  8  1  0
  7 12  1  0
  8  9  1  0
  9 10  1  0
 10 11  1  0
 12 13  1  1
 12 17  1  0
 13 14  1  0
 14 15  1  0
 15 16  1  0
 16 17  1  0
M  END
