
     RDKit          3D

 17 17  0  0  0  0  0  0  0  0999 V2000
    5.5910    1.0150   -0.0950 C   0  0  0  0  0  0  0  0  0  0  0  0
    4.5120    0.0000   -0.0870 C   0  0  0  0  0  0  0  0  0  0  0  0
    4.7670   -1.4600   -0.1420 C   0  0  0  0  0  0  0  0  0  0  0  0
    3.2590    0.4270   -0.0280 C   0  0  0  0  0  0  0  0  0  0  0  0
    2.1360   -0.5270   -0.0160 C   0  0  0  0  0  0  0  0  0  0  0  0
    1.3660   -0.3360    1.2910 C   0  0  0  0  0  0  0  0  0  0  0  0
    0.8520    1.0570    1.3750 C   0  0  0  0  0  0  0  0  0  0  0  0
   -0.0650    1.4180    0.2430 C   0  0  0  0  0  0  0  0  0  0  0  0
   -1.2510    0.5820    0.2360 C   0  0  0  0  0  0  0  0  0  0  0  0
   -1.4650   -0.2560    1.1360 O   0  0  0  0  0  0  0  0  0  0  0  0
   -2.2410    0.6440   -0.7640 O   0  0  0  0  0  0  0  0  0  0  0  0
   -3.3570   -0.1810   -0.7200 C   0  0  0  0  0  0  0  0  0  0  0  0
   -3.5070   -1.3880   -1.2430 C   0  0  0  0  0  0  0  0  0  0  0  0
   -4.8620   -1.9280   -0.9670 C   0  0  0  0  0  0  0  0  0  0  0  0
   -5.4900   -0.8480   -0.1970 C   0  0  0  0  0  0  0  0  0  0  0  0
   -4.6160    0.1350   -0.0690 C   0  0  0  0  0  0  0  0  0  0  0  0
   -4.9240    1.3950    0.6600 C   0  0  0  0  0  0  0  0  0  0  0  0
  1  2  1  0
  2  3  1  0
  2  4  2  3
  4  5  1  0
  5  6  1  0
  6  7  1  0
  7  8  1  0
  8  9  1  0
  9 10  2  0
  9 11  1  0
 11 12  1  0
 12 13  2  0
 12 16  1  0
 13 14  1  0
 14 15  1  0
 15 16  2  0
 16 17  1  0
M  END
