
     RDKit          3D

 17 17  0  0  0  0  0  0  0  0999 V2000
    3.8700   -0.8600    0.4330 C   0  0  0  0  0  0  0  0  0  0  0  0
    3.4030   -1.2590   -0.9500 C   0  0  0  0  0  0  0  0  0  0  0  0
    2.6860   -0.1070   -1.6090 C   0  0  0  0  0  0  0  0  0  0  0  0
    1.6060    0.2840   -0.9040 O   0  0  0  0  0  0  0  0  0  0  0  0
    0.4290   -0.2090   -0.4980 C   0  0  0  0  0  0  0  0  0  0  0  0
   -0.0010   -1.4810   -0.8000 C   0  0  0  0  0  0  0  0  0  0  0  0
   -1.2370   -1.9650   -0.3580 C   0  0  0  0  0  0  0  0  0  0  0  0
   -1.6970   -3.3470   -0.6880 C   0  0  0  0  0  0  0  0  0  0  0  0
   -2.0510   -1.1570    0.3990 C   0  0  0  0  0  0  0  0  0  0  0  0
   -3.2970   -1.6130    0.8600 O   0  0  0  0  0  0  0  0  0  0  0  0
   -1.6520    0.1350    0.7240 C   0  0  0  0  0  0  0  0  0  0  0  0
   -2.5950    0.9600    1.5480 C   0  0  0  0  0  0  0  0  0  0  0  0
   -2.4740    0.4720    2.9770 C   0  0  0  0  0  0  0  0  0  0  0  0
   -0.4450    0.5740    0.2780 C   0  0  0  0  0  0  0  0  0  0  0  0
   -0.0450    1.9460    0.5950 C   0  0  0  0  0  0  0  0  0  0  0  0
   -0.3710    2.9640   -0.4580 C   0  0  0  0  0  0  0  0  0  0  0  0
    0.2540    2.7250   -1.7780 C   0  0  0  0  0  0  0  0  0  0  0  0
  1  2  1  0
  2  3  1  0
  3  4  1  0
  4  5  1  0
  5  6  2  0
  5 14  1  0
  6  7  1  0
  7  8  1  0
  7  9  2  0
  9 10  1  0
  9 11  1  0
 11 12  1  0
 11 14  2  0
 12 13  1  0
 14 15  1  0
 15 16  1  0
 16 17  1  0
M  END
