
     RDKit          3D

  9  9  0  0  0  0  0  0  0  0999 V2000
    2.3280    0.1000   -0.0930 O   0  0  0  0  0  0  0  0  0  0  0  0
    1.2870   -0.6710   -0.5540 C   0  0  0  0  0  0  0  0  0  0  0  0
    0.1390   -0.5120    0.4170 C   0  0  2  0  0  0  0  0  0  0  0  0
    0.5520   -0.9360    1.6500 O   0  0  0  0  0  0  0  0  0  0  0  0
   -1.0670   -1.2160   -0.1210 C   0  0  0  0  0  0  0  0  0  0  0  0
   -1.8390   -0.3190   -0.8080 O   0  0  0  0  0  0  0  0  0  0  0  0
   -1.2420    0.9160   -0.7810 C   0  0  0  0  0  0  0  0  0  0  0  0
   -0.3620    0.9260    0.4530 C   0  0  2  0  0  0  0  0  0  0  0  0
    0.6380    1.8520    0.4140 O   0  0  0  0  0  0  0  0  0  0  0  0
  1  2  1  0
  2  3  1  0
  3  4  1  1
  3  5  1  0
  3  8  1  0
  5  6  1  0
  6  7  1  0
  7  8  1  0
  8  9  1  6
M  END
