
     RDKit          3D

  9  9  0  0  0  0  0  0  0  0999 V2000
    2.7710   -0.3390    0.2010 O   0  0  0  0  0  0  0  0  0  0  0  0
    1.6070   -1.0720    0.4050 C   0  0  0  0  0  0  0  0  0  0  0  0
    0.3960   -0.3180   -0.1190 C   0  0  2  0  0  0  0  0  0  0  0  0
    0.6050   -0.1190   -1.4770 O   0  0  0  0  0  0  0  0  0  0  0  0
    0.2900    0.9930    0.6280 C   0  0  0  0  0  0  0  0  0  0  0  0
   -0.9930    1.2100    1.1250 O   0  0  0  0  0  0  0  0  0  0  0  0
   -1.9320    0.9160    0.1560 C   0  0  0  0  0  0  0  0  0  0  0  0
   -1.8960   -0.5130   -0.2840 C   0  0  0  0  0  0  0  0  0  0  0  0
   -0.7110   -1.1310    0.1030 O   0  0  0  0  0  0  0  0  0  0  0  0
  1  2  1  0
  2  3  1  0
  3  4  1  6
  3  5  1  0
  3  9  1  0
  5  6  1  0
  6  7  1  0
  7  8  1  0
  8  9  1  0
M  END
