
     RDKit          3D

  9  9  0  0  0  0  0  0  0  0999 V2000
    1.9820   -0.5420    0.5420 C   0  0  0  0  0  0  0  0  0  0  0  0
    0.7990    0.1430   -0.0320 C   0  0  2  0  0  0  0  0  0  0  0  0
    0.9970    0.5540   -1.3290 O   0  0  0  0  0  0  0  0  0  0  0  0
    0.3520    1.2330    0.7050 O   0  0  0  0  0  0  0  0  0  0  0  0
   -0.7830    1.6170   -0.0190 C   0  0  0  0  0  0  0  0  0  0  0  0
   -1.4940    0.3310   -0.4000 C   0  0  2  0  0  0  0  0  0  0  0  0
   -2.6750    0.1820    0.2780 O   0  0  0  0  0  0  0  0  0  0  0  0
   -0.4590   -0.7340   -0.0210 C   0  0  1  0  0  0  0  0  0  0  0  0
   -0.3400   -1.7120   -0.9760 O   0  0  0  0  0  0  0  0  0  0  0  0
  2  1  1  1
  2  3  1  0
  2  4  1  0
  2  8  1  0
  4  5  1  0
  5  6  1  0
  6  7  1  1
  6  8  1  0
  8  9  1  6
M  END
