
     RDKit          3D

  9  9  0  0  0  0  0  0  0  0999 V2000
    3.5060    0.8310    0.1550 O   0  0  0  0  0  0  0  0  0  0  0  0
    2.2550    0.4630    0.5870 C   0  0  0  0  0  0  0  0  0  0  0  0
    1.2770    0.6080   -0.4220 O   0  0  0  0  0  0  0  0  0  0  0  0
    0.0820    0.2150    0.1180 C   0  0  1  0  0  0  0  0  0  0  0  0
   -0.9920    1.2910    0.0520 C   0  0  0  0  0  0  0  0  0  0  0  0
   -2.1300    0.5730    0.3270 O   0  0  0  0  0  0  0  0  0  0  0  0
   -2.0440   -0.6560   -0.2760 C   0  0  2  0  0  0  0  0  0  0  0  0
   -2.2960   -1.6490    0.6910 O   0  0  0  0  0  0  0  0  0  0  0  0
   -0.6200   -0.8560   -0.7320 C   0  0  0  0  0  0  0  0  0  0  0  0
  1  2  1  0
  2  3  1  0
  4  3  1  6
  4  5  1  0
  4  9  1  0
  5  6  1  0
  6  7  1  0
  7  8  1  1
  7  9  1  0
M  END
