
     RDKit          3D

 10  9  0  0  0  0  0  0  0  0999 V2000
    2.0980   -1.5320   -0.5380 C   0  0  0  0  0  0  0  0  0  0  0  0
    1.3060   -0.9570    0.4910 O   0  0  0  0  0  0  0  0  0  0  0  0
    1.1570    0.3790    0.2930 C   0  0  2  0  0  0  0  0  0  0  0  0
    1.9860    1.0010    1.2890 O   0  0  0  0  0  0  0  0  0  0  0  0
   -0.1900    0.9790    0.5350 C   0  0  1  0  0  0  0  0  0  0  0  0
    0.0290    2.3700    0.2320 O   0  0  0  0  0  0  0  0  0  0  0  0
   -1.2910    0.5520   -0.3750 C   0  0  2  0  0  0  0  0  0  0  0  0
   -2.3730    1.4540   -0.0850 O   0  0  0  0  0  0  0  0  0  0  0  0
   -1.9080   -0.8010    0.0020 C   0  0  0  0  0  0  0  0  0  0  0  0
   -1.0410   -1.8440   -0.2210 O   0  0  0  0  0  0  0  0  0  0  0  0
  1  2  1  0
  2  3  1  0
  3  4  1  1
  3  5  1  0
  5  6  1  6
  5  7  1  0
  7  8  1  1
  7  9  1  0
  9 10  1  0
M  END
