
     RDKit          3D

  9  9  0  0  0  0  0  0  0  0999 V2000
   -2.7600   -0.9650    0.0190 O   0  0  0  0  0  0  0  0  0  0  0  0
   -2.0660    0.2430    0.0060 C   0  0  0  0  0  0  0  0  0  0  0  0
   -0.6060   -0.0880    0.2320 C   0  0  1  0  0  0  0  0  0  0  0  0
   -0.1150   -0.9270   -0.7680 O   0  0  0  0  0  0  0  0  0  0  0  0
    1.1040   -1.4400   -0.2720 C   0  0  0  0  0  0  0  0  0  0  0  0
    2.0580   -0.2750   -0.0820 C   0  0  0  0  0  0  0  0  0  0  0  0
    1.4550    0.9380   -0.4420 O   0  0  0  0  0  0  0  0  0  0  0  0
    0.2660    1.1450    0.2500 C   0  0  1  0  0  0  0  0  0  0  0  0
   -0.4060    2.2010   -0.4030 O   0  0  0  0  0  0  0  0  0  0  0  0
  1  2  1  0
  3  2  1  6
  3  4  1  0
  3  8  1  0
  4  5  1  0
  5  6  1  0
  6  7  1  0
  7  8  1  0
  8  9  1  6
M  END
