
     RDKit          3D

 15 16  0  0  0  0  0  0  0  0999 V2000
   -2.1460   -1.7860    0.1890 N   0  0  0  0  0  0  0  0  0  0  0  0
   -2.4200   -0.3660    0.0740 C   0  0  0  0  0  0  0  0  0  0  0  0
   -3.6510    0.0120    0.2190 C   0  0  0  0  0  0  0  0  0  0  0  0
   -4.6260   -0.9760    0.4770 O   0  0  0  0  0  0  0  0  0  0  0  0
   -4.1490    1.3150    0.1510 N   0  0  0  0  0  0  0  0  0  0  0  0
   -3.0280    2.6320   -0.1650 S   0  0  0  0  0  0  0  0  0  0  0  0
   -1.4440    1.8170   -0.3160 C   0  0  0  0  0  0  0  0  0  0  0  0
   -1.3230    0.5190   -0.1910 C   0  0  0  0  0  0  0  0  0  0  0  0
    0.0030   -0.0290   -0.3320 N   0  0  0  0  0  0  0  0  0  0  0  0
    1.1370    0.6420   -0.5780 C   0  0  0  0  0  0  0  0  0  0  0  0
    2.1850   -0.2490   -0.6390 C   0  0  0  0  0  0  0  0  0  0  0  0
    3.6030    0.1060   -0.8940 C   0  0  0  0  0  0  0  0  0  0  0  0
    4.2700    0.3720    0.3790 N   0  0  0  0  0  0  0  0  0  0  0  0
    1.6340   -1.4930   -0.4180 C   0  0  0  0  0  0  0  0  0  0  0  0
    0.3160   -1.3070   -0.2380 N   0  0  0  0  0  0  0  0  0  0  0  0
  1  2  1  0
  2  3  2  0
  2  8  1  0
  3  4  1  0
  3  5  1  0
  5  6  1  0
  6  7  1  0
  7  8  2  0
  8  9  1  0
  9 10  1  0
  9 15  1  0
 10 11  2  0
 11 12  1  0
 11 14  1  0
 12 13  1  0
 14 15  2  0
M  CHG  1  13   1
M  END
