
     RDKit          3D

 15 15  0  0  0  0  0  0  0  0999 V2000
   -1.5320   -1.5410    1.9530 C   0  0  0  0  0  0  0  0  0  0  0  0
   -2.3950   -1.0340    1.1040 C   0  0  0  0  0  0  0  0  0  0  0  0
   -2.0340   -0.0370    0.1100 C   0  0  0  0  0  0  0  0  0  0  0  0
   -2.8740    0.4880   -0.7510 C   0  0  0  0  0  0  0  0  0  0  0  0
   -4.2300    0.1060   -0.7710 N   0  0  0  0  0  0  0  0  0  0  0  0
   -0.6570    0.4010    0.0730 N   0  0  0  0  0  0  0  0  0  0  0  0
    0.3660   -0.4400   -0.4020 C   0  0  0  0  0  0  0  0  0  0  0  0
    0.0490   -1.9650   -0.9390 S   0  0  0  0  0  0  0  0  0  0  0  0
    1.7390    0.0300   -0.4270 C   0  0  0  0  0  0  0  0  0  0  0  0
    2.6800   -0.7960   -0.8830 C   0  0  0  0  0  0  0  0  0  0  0  0
    4.0300   -0.3640   -0.9190 N   0  0  0  0  0  0  0  0  0  0  0  0
    4.4180    0.8930   -0.4950 N   0  0  0  0  0  0  0  0  0  0  0  0
    3.4160    1.7680   -0.0100 C   0  0  0  0  0  0  0  0  0  0  0  0
    3.7290    2.9380    0.3920 O   0  0  0  0  0  0  0  0  0  0  0  0
    2.0670    1.3350    0.0250 N   0  0  0  0  0  0  0  0  0  0  0  0
  1  2  2  0
  2  3  1  0
  3  4  2  3
  3  6  1  0
  4  5  1  0
  6  7  1  0
  7  8  2  0
  7  9  1  0
  9 10  2  0
  9 15  1  0
 10 11  1  0
 11 12  1  0
 12 13  1  0
 13 14  2  0
 13 15  1  0
M  CHG  1   5   1
M  END
