
     RDKit          3D

 15 16  0  0  0  0  0  0  0  0999 V2000
    4.4670    0.3320    0.4280 N   0  0  0  0  0  0  0  0  0  0  0  0
    3.2640    0.9020   -0.0350 C   0  0  0  0  0  0  0  0  0  0  0  0
    3.3300    2.3560   -0.7720 S   0  0  0  0  0  0  0  0  0  0  0  0
    2.0230    0.1750    0.1630 C   0  0  0  0  0  0  0  0  0  0  0  0
    0.8490    0.6320   -0.2390 C   0  0  0  0  0  0  0  0  0  0  0  0
    0.6120    1.8610   -0.9030 N   0  0  0  0  0  0  0  0  0  0  0  0
   -0.1730   -0.3460    0.1180 C   0  0  0  0  0  0  0  0  0  0  0  0
    0.4020   -1.4240    0.7530 C   0  0  0  0  0  0  0  0  0  0  0  0
   -0.5770   -2.2930    1.0610 N   0  0  0  0  0  0  0  0  0  0  0  0
   -1.7500   -1.8180    0.6510 N   0  0  0  0  0  0  0  0  0  0  0  0
   -1.5250   -0.6160    0.0650 C   0  0  0  0  0  0  0  0  0  0  0  0
   -2.5230    0.3060   -0.5490 C   0  0  0  0  0  0  0  0  0  0  0  0
   -3.8350   -0.2910   -0.4290 N   0  0  0  0  0  0  0  0  0  0  0  0
    1.8380   -1.1210    0.8020 C   0  0  0  0  0  0  0  0  0  0  0  0
    2.7190   -1.8490    1.3000 O   0  0  0  0  0  0  0  0  0  0  0  0
  1  2  1  0
  2  3  2  0
  2  4  1  0
  4  5  2  0
  4 14  1  0
  5  6  1  0
  5  7  1  0
  7  8  1  0
  7 11  2  0
  8  9  2  0
  8 14  1  0
  9 10  1  0
 10 11  1  0
 11 12  1  0
 12 13  1  0
 14 15  2  0
M  CHG  1  13   1
M  END
