
     RDKit          3D

 15 15  0  0  0  0  0  0  0  0999 V2000
    4.9460    1.1840    0.1690 C   0  0  0  0  0  0  0  0  0  0  0  0
    4.1310   -0.4240    0.0040 S   0  0  0  0  0  0  0  0  0  0  0  0
    2.3700   -0.1890    0.1070 C   0  0  0  0  0  0  0  0  0  0  0  0
    1.8650    1.1200    0.2910 N   0  0  0  0  0  0  0  0  0  0  0  0
    1.5560   -1.1870    0.0170 N   0  0  0  0  0  0  0  0  0  0  0  0
    0.1940   -0.9620    0.1020 N   0  0  0  0  0  0  0  0  0  0  0  0
   -0.6030   -1.9680    0.1020 C   0  0  0  0  0  0  0  0  0  0  0  0
   -0.1110   -3.2970    0.0170 N   0  0  0  0  0  0  0  0  0  0  0  0
   -1.9940   -1.7090    0.1920 N   0  0  0  0  0  0  0  0  0  0  0  0
   -2.4340   -0.3880   -0.1730 C   0  0  0  0  0  0  0  0  0  0  0  0
   -2.9480    0.0040   -1.3210 C   0  0  0  0  0  0  0  0  0  0  0  0
   -3.2660    1.4440   -1.2790 C   0  0  0  0  0  0  0  0  0  0  0  0
   -2.8540    1.8390    0.0830 C   0  0  0  0  0  0  0  0  0  0  0  0
   -2.3810    0.7770    0.7000 C   0  0  0  0  0  0  0  0  0  0  0  0
   -1.8940    0.7660    2.0140 O   0  0  0  0  0  0  0  0  0  0  0  0
  1  2  1  0
  2  3  1  0
  3  4  1  0
  3  5  2  3
  5  6  1  0
  6  7  2  3
  7  8  1  0
  7  9  1  0
  9 10  1  0
 10 11  2  0
 10 14  1  0
 11 12  1  0
 12 13  1  0
 13 14  2  0
 14 15  1  0
M  CHG  1   5   1
M  END
