
     RDKit          3D

 13 13  0  0  0  0  0  0  0  0999 V2000
   -2.0650   -1.8620   -0.0960 C   0  0  0  0  0  0  0  0  0  0  0  0
   -1.0500   -1.3810    0.9640 C   0  0  0  0  0  0  0  0  0  0  0  0
   -0.7200    0.0020    0.6000 C   0  0  0  0  0  0  0  0  0  0  0  0
   -1.6630    1.2420    1.3640 S   0  0  0  0  0  0  0  0  0  0  0  0
   -1.2890    2.8030    0.7990 C   0  0  0  0  0  0  0  0  0  0  0  0
   -1.8500    3.8640    1.2100 O   0  0  0  0  0  0  0  0  0  0  0  0
   -0.3270    2.8340   -0.1460 N   0  0  0  0  0  0  0  0  0  0  0  0
    0.3190    1.7790   -0.6400 C   0  0  0  0  0  0  0  0  0  0  0  0
    1.1990    2.0480   -1.5340 O   0  0  0  0  0  0  0  0  0  0  0  0
    0.1610    0.4570   -0.3140 C   0  0  0  0  0  0  0  0  0  0  0  0
    1.0900   -0.5580   -0.9430 C   0  0  0  0  0  0  0  0  0  0  0  0
    2.3320   -0.7710   -0.1230 C   0  0  0  0  0  0  0  0  0  0  0  0
    2.1590   -1.2010    1.1530 O   0  0  0  0  0  0  0  0  0  0  0  0
  1  2  1  0
  2  3  1  0
  3  4  1  0
  3 10  2  0
  4  5  1  0
  5  6  2  0
  5  7  1  0
  7  8  1  0
  8  9  2  0
  8 10  1  0
 10 11  1  0
 11 12  1  0
 12 13  1  0
M  END
