
     RDKit          3D

 13 13  0  0  0  0  0  0  0  0999 V2000
   -1.9890   -1.0750   -0.9310 C   0  0  0  0  0  0  0  0  0  0  0  0
   -2.3100    0.2230   -0.1690 C   0  0  0  0  0  0  0  0  0  0  0  0
   -3.6020    0.6930   -0.2650 C   0  0  0  0  0  0  0  0  0  0  0  0
   -3.5430    2.2010    0.7600 S   0  0  0  0  0  0  0  0  0  0  0  0
   -1.8010    2.0410    1.2060 C   0  0  0  0  0  0  0  0  0  0  0  0
   -1.3990    0.8670    0.5500 C   0  0  0  0  0  0  0  0  0  0  0  0
    0.0150    0.4270    0.6990 C   0  0  0  0  0  0  0  0  0  0  0  0
    0.7770    1.0980    1.4030 O   0  0  0  0  0  0  0  0  0  0  0  0
    0.5020   -0.7110    0.0740 O   0  0  0  0  0  0  0  0  0  0  0  0
    1.8450   -1.1280    0.2160 C   0  0  0  0  0  0  0  0  0  0  0  0
    2.7940   -0.0930   -0.2740 C   0  0  0  0  0  0  0  0  0  0  0  0
    4.2010   -0.2820   -0.2340 N   0  0  0  0  0  0  0  0  0  0  0  0
    2.3100    0.9740   -0.7340 O   0  0  0  0  0  0  0  0  0  0  0  0
  1  2  1  0
  2  3  2  0
  2  6  1  0
  3  4  1  0
  4  5  1  0
  5  6  2  0
  6  7  1  0
  7  8  2  0
  7  9  1  0
  9 10  1  0
 10 11  1  0
 11 12  1  0
 11 13  2  0
M  END
