
     RDKit          3D

 17 18  0  0  0  0  0  0  0  0999 V2000
    0.1830   -3.6150   -0.1240 C   0  0  0  0  0  0  0  0  0  0  0  0
    0.3660   -2.2990   -0.1030 C   0  0  0  0  0  0  0  0  0  0  0  0
   -0.6570   -1.3300    0.0270 N   0  0  0  0  0  0  0  0  0  0  0  0
   -0.0100   -0.0670    0.0000 C   0  0  0  0  0  0  0  0  0  0  0  0
   -0.6250    1.0790    0.0950 N   0  0  0  0  0  0  0  0  0  0  0  0
   -2.0620    1.1130    0.2390 C   0  0  0  0  0  0  0  0  0  0  0  0
   -2.9570    0.7950   -0.6730 C   0  0  0  0  0  0  0  0  0  0  0  0
   -4.3020    0.9780   -0.0920 C   0  0  0  0  0  0  0  0  0  0  0  0
   -4.0400    1.4450    1.2830 C   0  0  0  0  0  0  0  0  0  0  0  0
   -2.7350    1.5200    1.4660 C   0  0  0  0  0  0  0  0  0  0  0  0
    1.4030   -0.3200   -0.1480 C   0  0  0  0  0  0  0  0  0  0  0  0
    2.4340    0.7000   -0.2210 C   0  0  0  0  0  0  0  0  0  0  0  0
    3.6610    0.4120   -0.3520 O   0  0  0  0  0  0  0  0  0  0  0  0
    2.1380    2.0590   -0.1510 O   0  0  0  0  0  0  0  0  0  0  0  0
    3.1830    3.0360   -0.2260 C   0  0  0  0  0  0  0  0  0  0  0  0
    1.6350   -1.6160   -0.2090 C   0  0  0  0  0  0  0  0  0  0  0  0
    2.9660   -2.2910   -0.3620 C   0  0  0  0  0  0  0  0  0  0  0  0
  1  2  2  0
  2  3  1  0
  2 16  1  0
  3  4  1  0
  4  5  2  3
  4 11  1  0
  5  6  1  0
  6  7  2  0
  6 10  1  0
  7  8  1  0
  8  9  1  0
  9 10  2  0
 11 12  1  0
 11 16  2  0
 12 13  2  0
 12 14  1  0
 14 15  1  0
 16 17  1  0
M  END
