
     RDKit          3D

 17 18  0  0  0  0  0  0  0  0999 V2000
    0.3100    2.1200    1.2770 C   0  0  0  0  0  0  0  0  0  0  0  0
   -0.8450    1.6530    1.4390 C   0  0  0  0  0  0  0  0  0  0  0  0
   -1.8110    0.7750    0.8800 C   0  0  0  0  0  0  0  0  0  0  0  0
   -3.0470    0.7010    1.4850 C   0  0  0  0  0  0  0  0  0  0  0  0
   -4.1740   -0.1140    1.0840 C   0  0  0  0  0  0  0  0  0  0  0  0
   -3.9450   -0.9140   -0.1110 C   0  0  0  0  0  0  0  0  0  0  0  0
   -2.7910   -0.9080   -0.7460 C   0  0  0  0  0  0  0  0  0  0  0  0
   -2.3140   -1.5840   -1.9000 N   0  0  0  0  0  0  0  0  0  0  0  0
   -1.1310   -1.2530   -2.0950 N   0  0  0  0  0  0  0  0  0  0  0  0
   -0.6680   -0.3200   -1.1050 C   0  0  0  0  0  0  0  0  0  0  0  0
    0.7310    0.0700   -0.9220 C   0  0  0  0  0  0  0  0  0  0  0  0
    1.6390   -1.0960   -1.4300 C   0  0  0  0  0  0  0  0  0  0  0  0
    3.0240   -0.6170   -1.2210 C   0  0  0  0  0  0  0  0  0  0  0  0
    3.5980    0.1830   -2.0040 O   0  0  0  0  0  0  0  0  0  0  0  0
    3.7960   -1.0300   -0.1200 O   0  0  0  0  0  0  0  0  0  0  0  0
    5.1170   -0.5660    0.0700 C   0  0  0  0  0  0  0  0  0  0  0  0
   -1.6590   -0.0680   -0.2860 C   0  0  0  0  0  0  0  0  0  0  0  0
  1  2  2  0
  2  3  1  0
  3  4  2  0
  3 17  1  0
  4  5  1  0
  5  6  1  0
  6  7  2  0
  7  8  1  0
  7 17  1  0
  8  9  2  0
  9 10  1  0
 10 11  1  0
 10 17  2  0
 11 12  1  0
 12 13  1  0
 13 14  2  0
 13 15  1  0
 15 16  1  0
M  END
