
     RDKit          3D

 14 14  0  0  0  0  0  0  0  0999 V2000
    3.2180   -0.4160   -0.9860 C   0  0  0  0  0  0  0  0  0  0  0  0
    2.6770   -0.4830    0.2310 C   0  0  0  0  0  0  0  0  0  0  0  0
    3.5510   -0.4080    1.3490 N   0  0  0  0  0  0  0  0  0  0  0  0
    1.2320   -0.6290    0.4090 C   0  0  0  0  0  0  0  0  0  0  0  0
    0.7560   -0.6900    1.6280 C   0  0  0  0  0  0  0  0  0  0  0  0
    0.4430   -0.6960   -0.6810 O   0  0  0  0  0  0  0  0  0  0  0  0
   -0.8870   -0.3820   -0.8610 C   0  0  1  0  0  0  0  0  0  0  0  0
   -1.8160   -1.1110   -0.0590 N   0  0  0  0  0  0  0  0  0  0  0  0
   -3.0410   -0.5000    0.3300 C   0  0  0  0  0  0  0  0  0  0  0  0
   -3.8380   -1.0960    1.1060 O   0  0  0  0  0  0  0  0  0  0  0  0
   -3.4160    0.7680   -0.1180 O   0  0  0  0  0  0  0  0  0  0  0  0
   -2.6080    1.3150   -1.1690 C   0  0  0  0  0  0  0  0  0  0  0  0
   -1.1660    1.1200   -0.7260 C   0  0  1  0  0  0  0  0  0  0  0  0
   -1.0810    1.5460    0.5870 O   0  0  0  0  0  0  0  0  0  0  0  0
  1  2  2  0
  2  3  1  0
  2  4  1  0
  4  5  2  0
  4  6  1  0
  7  6  1  1
  7  8  1  0
  7 13  1  0
  8  9  1  0
  9 10  2  0
  9 11  1  0
 11 12  1  0
 12 13  1  0
 13 14  1  1
M  END
