
     RDKit          3D

 17 19  0  0  0  0  0  0  0  0999 V2000
   -4.5120   -1.2030   -0.9460 O   0  0  0  0  0  0  0  0  0  0  0  0
   -3.2770   -0.9340   -0.7250 C   0  0  0  0  0  0  0  0  0  0  0  0
   -2.8640    0.3780   -0.2830 C   0  0  0  0  0  0  0  0  0  0  0  0
   -1.6150    0.6350    0.0170 C   0  0  0  0  0  0  0  0  0  0  0  0
   -1.4050    2.0370    0.4480 C   0  0  0  0  0  0  0  0  0  0  0  0
   -0.2510    2.6680   -0.2160 C   0  0  0  0  0  0  0  0  0  0  0  0
   -0.4850    3.7780   -0.7480 O   0  0  0  0  0  0  0  0  0  0  0  0
    1.0840    2.2250   -0.3520 N   0  0  0  0  0  0  0  0  0  0  0  0
    1.5740    0.9320    0.0270 C   0  0  0  0  0  0  0  0  0  0  0  0
    2.8580    0.9230    0.3130 C   0  0  0  0  0  0  0  0  0  0  0  0
    3.4750   -0.2840    0.7030 N   0  0  0  0  0  0  0  0  0  0  0  0
    2.7660   -1.5230    0.9050 C   0  0  0  0  0  0  0  0  0  0  0  0
    1.3240   -1.4460    0.5680 C   0  0  0  0  0  0  0  0  0  0  0  0
    0.8050   -0.3170    0.1680 C   0  0  0  0  0  0  0  0  0  0  0  0
   -0.6210   -0.4360   -0.1470 C   0  0  0  0  0  0  0  0  0  0  0  0
   -0.9070   -1.6310   -0.5770 C   0  0  0  0  0  0  0  0  0  0  0  0
   -2.2900   -2.0070   -0.9360 C   0  0  0  0  0  0  0  0  0  0  0  0
  1  2  2  0
  2  3  1  0
  2 17  1  0
  3  4  2  0
  4  5  1  0
  4 15  1  0
  5  6  1  0
  6  7  2  0
  6  8  1  0
  8  9  1  0
  9 10  2  0
  9 14  1  0
 10 11  1  0
 11 12  1  0
 12 13  1  0
 13 14  2  0
 14 15  1  0
 15 16  2  0
 16 17  1  0
M  END
