
     RDKit          3D

 18 19  0  0  0  0  0  0  0  0999 V2000
   -6.2500   -0.2900    0.7480 O   0  0  0  0  0  0  0  0  0  0  0  0
   -5.7140    0.8240    0.5920 C   0  0  0  0  0  0  0  0  0  0  0  0
   -4.3500    0.9710    0.2920 N   0  0  0  0  0  0  0  0  0  0  0  0
   -3.4360   -0.1480    0.1300 C   0  0  0  0  0  0  0  0  0  0  0  0
   -3.9280   -1.4550    0.0540 C   0  0  0  0  0  0  0  0  0  0  0  0
   -2.3920   -2.4180   -0.1150 S   0  0  0  0  0  0  0  0  0  0  0  0
   -1.2900   -1.0560   -0.0710 C   0  0  0  0  0  0  0  0  0  0  0  0
    0.1720   -1.1230   -0.1640 C   0  0  0  0  0  0  0  0  0  0  0  0
    0.6830   -2.2520   -0.2840 O   0  0  0  0  0  0  0  0  0  0  0  0
    0.9810    0.0270   -0.1200 N   0  0  0  0  0  0  0  0  0  0  0  0
    2.3870    0.0900   -0.1980 C   0  0  0  0  0  0  0  0  0  0  0  0
    3.2220   -0.9820   -0.3330 C   0  0  0  0  0  0  0  0  0  0  0  0
    4.6140   -0.8880   -0.4090 C   0  0  0  0  0  0  0  0  0  0  0  0
    5.1610    0.3220   -0.3440 N   0  0  0  0  0  0  0  0  0  0  0  0
    4.3910    1.4220   -0.2110 C   0  0  0  0  0  0  0  0  0  0  0  0
    3.0270    1.3360   -0.1370 C   0  0  0  0  0  0  0  0  0  0  0  0
    2.0790    2.7880    0.0350 Cl  0  0  0  0  0  0  0  0  0  0  0  0
   -2.1180    0.0380    0.0660 C   0  0  0  0  0  0  0  0  0  0  0  0
  1  2  2  0
  2  3  1  0
  3  4  1  0
  4  5  2  0
  4 18  1  0
  5  6  1  0
  6  7  1  0
  7  8  1  0
  7 18  2  0
  8  9  2  0
  8 10  1  0
 10 11  1  0
 11 12  2  0
 11 16  1  0
 12 13  1  0
 13 14  2  0
 14 15  1  0
 15 16  2  0
 16 17  1  0
M  CHG  1  14   1
M  END
