
     RDKit          3D

 27 28  0  0  0  0  0  0  0  0999 V2000
    6.8060   -1.5140    1.1730 C   0  0  0  0  0  0  0  0  0  0  0  0
    6.5630   -0.2060    0.6750 O   0  0  0  0  0  0  0  0  0  0  0  0
    5.3790    0.0130   -0.0650 C   0  0  0  0  0  0  0  0  0  0  0  0
    4.7440    1.1440    0.0600 C   0  0  0  0  0  0  0  0  0  0  0  0
    5.2750    2.1690    0.9710 C   0  0  0  0  0  0  0  0  0  0  0  0
    6.4720    1.9130    1.7030 N   0  0  0  0  0  0  0  0  0  0  0  0
    4.6520    3.2580    1.0830 O   0  0  0  0  0  0  0  0  0  0  0  0
    4.9170   -1.0700   -0.9510 C   0  0  0  0  0  0  0  0  0  0  0  0
    3.5930   -0.7360   -1.5570 C   0  0  0  0  0  0  0  0  0  0  0  0
    2.3400   -0.5560   -0.2380 S   0  0  0  0  0  0  0  0  0  0  0  0
    0.7650   -0.1520   -1.0660 C   0  0  1  0  0  0  0  0  0  0  0  0
    0.3340   -1.3340   -1.8840 C   0  0  0  0  0  0  0  0  0  0  0  0
   -1.1450   -1.5070   -1.7210 C   0  0  0  0  0  0  0  0  0  0  0  0
   -1.5700   -0.3200   -0.8930 C   0  0  1  0  0  0  0  0  0  0  0  0
   -1.9160    0.7910   -1.7260 N   0  0  0  0  0  0  0  0  0  0  0  0
   -2.6590   -0.6610    0.0550 C   0  0  0  0  0  0  0  0  0  0  0  0
   -2.5470   -1.6020    0.8730 O   0  0  0  0  0  0  0  0  0  0  0  0
   -3.8460    0.1010    0.0230 N   0  0  0  0  0  0  0  0  0  0  0  0
   -4.9740   -0.0850    0.8470 C   0  0  0  0  0  0  0  0  0  0  0  0
   -5.0900   -1.0360    1.8100 C   0  0  0  0  0  0  0  0  0  0  0  0
   -6.2490   -1.1630    2.5980 C   0  0  0  0  0  0  0  0  0  0  0  0
   -7.3080   -0.3120    2.4060 C   0  0  0  0  0  0  0  0  0  0  0  0
   -8.7250   -0.5010    3.4000 Cl  0  0  0  0  0  0  0  0  0  0  0  0
   -7.2240    0.6640    1.4380 C   0  0  0  0  0  0  0  0  0  0  0  0
   -6.0780    0.7570    0.6900 C   0  0  0  0  0  0  0  0  0  0  0  0
   -6.0030    1.7580   -0.2960 N   0  0  0  0  0  0  0  0  0  0  0  0
   -0.3440    0.0370   -0.0740 C   0  0  0  0  0  0  0  0  0  0  0  0
  1  2  1  0
  2  3  1  0
  3  4  2  3
  3  8  1  0
  4  5  1  0
  5  6  1  0
  5  7  2  0
  8  9  1  0
  9 10  1  0
 11 10  1  1
 11 12  1  0
 11 27  1  0
 12 13  1  0
 13 14  1  0
 14 15  1  6
 14 16  1  0
 14 27  1  0
 16 17  2  0
 16 18  1  0
 18 19  1  0
 19 20  2  0
 19 25  1  0
 20 21  1  0
 21 22  2  0
 22 23  1  0
 22 24  1  0
 24 25  2  0
 25 26  1  0
M  CHG  1  15   1
M  END
