
     RDKit          3D

 23 26  0  0  0  0  0  0  0  0999 V2000
   -4.6500    4.3770    1.0900 N   0  0  0  0  0  0  0  0  0  0  0  0
   -3.7690    3.6370    0.8920 C   0  0  0  0  0  0  0  0  0  0  0  0
   -2.6620    2.7160    0.6410 C   0  0  0  0  0  0  0  0  0  0  0  0
   -3.1580    1.3320    0.8650 C   0  0  0  0  0  0  0  0  0  0  0  0
   -4.3450    1.1340    1.2600 O   0  0  0  0  0  0  0  0  0  0  0  0
   -2.3510    0.1880    0.6520 N   0  0  0  0  0  0  0  0  0  0  0  0
   -2.8620   -1.1230    0.8830 C   0  0  0  0  0  0  0  0  0  0  0  0
   -2.4210   -2.0510   -0.1970 C   0  0  0  0  0  0  0  0  0  0  0  0
   -1.0160   -1.8470   -0.6910 C   0  0  0  0  0  0  0  0  0  0  0  0
   -0.2740   -0.8880    0.2880 C   0  0  1  0  0  0  0  0  0  0  0  0
    1.0420   -1.2680    0.3620 N   0  0  0  0  0  0  0  0  0  0  0  0
    1.3440   -2.4840    0.9720 C   0  0  0  0  0  0  0  0  0  0  0  0
    2.6490   -2.7030    0.9630 N   0  0  0  0  0  0  0  0  0  0  0  0
    3.2600   -1.6730    0.3610 C   0  0  0  0  0  0  0  0  0  0  0  0
    4.5650   -1.3700    0.0730 C   0  0  0  0  0  0  0  0  0  0  0  0
    4.8910   -0.2330   -0.5610 N   0  0  0  0  0  0  0  0  0  0  0  0
    3.9020    0.6250   -0.9200 C   0  0  0  0  0  0  0  0  0  0  0  0
    3.9570    1.8260   -1.5670 N   0  0  0  0  0  0  0  0  0  0  0  0
    2.7210    2.3040   -1.7030 C   0  0  0  0  0  0  0  0  0  0  0  0
    1.8090    1.4030   -1.1330 C   0  0  0  0  0  0  0  0  0  0  0  0
    2.5680    0.3860   -0.6630 C   0  0  0  0  0  0  0  0  0  0  0  0
    2.2290   -0.7970   -0.0010 C   0  0  0  0  0  0  0  0  0  0  0  0
   -0.9470    0.3490    0.1690 C   0  0  0  0  0  0  0  0  0  0  0  0
  1  2  3  0
  2  3  1  0
  3  4  1  0
  4  5  2  0
  4  6  1  0
  6  7  1  0
  6 23  1  0
  7  8  1  0
  8  9  1  0
  9 10  1  0
 10 11  1  6
 10 23  1  0
 11 12  1  0
 11 22  1  0
 12 13  2  0
 13 14  1  0
 14 15  2  0
 14 22  1  0
 15 16  1  0
 16 17  2  0
 17 18  1  0
 17 21  1  0
 18 19  1  0
 19 20  2  0
 20 21  1  0
 21 22  2  0
M  END
