
     RDKit          3D

 18 19  0  0  0  0  0  0  0  0999 V2000
   -5.1850    0.6060   -0.1920 N   0  0  0  0  0  0  0  0  0  0  0  0
   -4.8020   -0.4330    0.7370 C   0  0  0  0  0  0  0  0  0  0  0  0
   -3.4060   -0.9440    0.4730 C   0  0  0  0  0  0  0  0  0  0  0  0
   -2.4400    0.0780    0.5840 O   0  0  0  0  0  0  0  0  0  0  0  0
   -1.1030   -0.2180    0.3720 C   0  0  0  0  0  0  0  0  0  0  0  0
   -0.7180   -1.5110    0.0540 C   0  0  0  0  0  0  0  0  0  0  0  0
    0.6180   -1.8380   -0.1650 C   0  0  0  0  0  0  0  0  0  0  0  0
    1.5070   -0.8530   -0.0530 N   0  0  0  0  0  0  0  0  0  0  0  0
    1.1950    0.4150    0.2520 C   0  0  0  0  0  0  0  0  0  0  0  0
    2.2450    1.3660    0.3380 N   0  0  0  0  0  0  0  0  0  0  0  0
    3.6010    1.0470    0.1190 C   0  0  0  0  0  0  0  0  0  0  0  0
    4.3070    0.0840    0.6910 C   0  0  0  0  0  0  0  0  0  0  0  0
    3.6550   -1.0260    1.8820 Cl  0  0  0  0  0  0  0  0  0  0  0  0
    5.7150    0.1030    0.1630 C   0  0  0  0  0  0  0  0  0  0  0  0
    5.7170    1.1640   -0.7510 O   0  0  0  0  0  0  0  0  0  0  0  0
    4.4710    1.7710   -0.8190 C   0  0  0  0  0  0  0  0  0  0  0  0
    4.0090    3.0410   -1.7420 S   0  0  0  0  0  0  0  0  0  0  0  0
   -0.1220    0.7450    0.4690 C   0  0  0  0  0  0  0  0  0  0  0  0
  1  2  1  0
  2  3  1  0
  3  4  1  0
  4  5  1  0
  5  6  2  0
  5 18  1  0
  6  7  1  0
  7  8  2  0
  8  9  1  0
  9 10  1  0
  9 18  2  0
 10 11  1  0
 11 12  2  0
 11 16  1  0
 12 13  1  0
 12 14  1  0
 14 15  1  0
 15 16  1  0
 16 17  2  0
M  CHG  1   1   1
M  END
