
     RDKit          3D

 27 28  0  0  0  0  0  0  0  0999 V2000
    3.6270   -1.6460    1.5040 C   0  0  0  0  0  0  0  0  0  0  0  0
    3.6090   -0.5890    0.4250 C   0  0  1  0  0  0  0  0  0  0  0  0
    2.2270   -0.1660    0.2130 N   0  0  0  0  0  0  0  0  0  0  0  0
    1.8820    0.8130   -0.7330 C   0  0  0  0  0  0  0  0  0  0  0  0
    2.8940    1.2950   -1.3900 O   0  0  0  0  0  0  0  0  0  0  0  0
    0.5560    1.2930   -1.0100 C   0  0  0  0  0  0  0  0  0  0  0  0
    0.4660    2.3340   -2.0710 C   0  0  0  0  0  0  0  0  0  0  0  0
   -0.7620    2.9070   -2.4590 N   0  0  0  0  0  0  0  0  0  0  0  0
    1.5200    2.6950   -2.6190 O   0  0  0  0  0  0  0  0  0  0  0  0
   -0.5650    0.9210   -0.4420 C   0  0  0  0  0  0  0  0  0  0  0  0
   -0.6450   -0.0480    0.5690 N   0  0  0  0  0  0  0  0  0  0  0  0
   -2.1100    1.6620   -0.9550 S   0  0  0  0  0  0  0  0  0  0  0  0
   -3.5340    1.0660   -0.0450 C   0  0  2  0  0  0  0  0  0  0  0  0
   -3.5330    1.4780    1.3960 C   0  0  0  0  0  0  0  0  0  0  0  0
   -4.7700    0.9550    2.0370 C   0  0  0  0  0  0  0  0  0  0  0  0
   -5.7940    0.3610    1.2660 N   0  0  0  0  0  0  0  0  0  0  0  0
   -4.9540    1.0200    3.2810 O   0  0  0  0  0  0  0  0  0  0  0  0
   -3.6150   -0.4020   -0.2040 C   0  0  0  0  0  0  0  0  0  0  0  0
   -3.6140   -1.2900    0.7560 C   0  0  0  0  0  0  0  0  0  0  0  0
   -3.7100   -2.6490    0.1440 C   0  0  0  0  0  0  0  0  0  0  0  0
   -3.7570   -2.3960   -1.2990 C   0  0  0  0  0  0  0  0  0  0  0  0
   -3.7020   -1.0980   -1.4750 C   0  0  0  0  0  0  0  0  0  0  0  0
   -3.7360   -0.3680   -3.0870 Cl  0  0  0  0  0  0  0  0  0  0  0  0
    4.4730    0.5450    0.8900 C   0  0  0  0  0  0  0  0  0  0  0  0
    5.6390    0.6080   -0.0560 C   0  0  0  0  0  0  0  0  0  0  0  0
    5.6680   -0.7000   -0.7890 C   0  0  0  0  0  0  0  0  0  0  0  0
    4.2350   -1.1550   -0.7990 C   0  0  0  0  0  0  0  0  0  0  0  0
  2  1  1  1
  2  3  1  0
  2 24  1  0
  2 27  1  0
  3  4  1  0
  4  5  2  0
  4  6  1  0
  6  7  1  0
  6 10  2  3
  7  8  1  0
  7  9  2  0
 10 11  1  0
 10 12  1  0
 12 13  1  0
 13 14  1  1
 13 18  1  0
 14 15  1  0
 15 16  1  0
 15 17  2  0
 18 19  2  0
 18 22  1  0
 19 20  1  0
 20 21  1  0
 21 22  2  0
 22 23  1  0
 24 25  1  0
 25 26  1  0
 26 27  1  0
M  END
