
     RDKit          3D

 27 28  0  0  0  0  0  0  0  0999 V2000
   -6.2710    2.2010    0.8940 N   0  0  0  0  0  0  0  0  0  0  0  0
   -5.6220    0.9900    0.4620 C   0  0  0  0  0  0  0  0  0  0  0  0
   -6.3140    0.2470   -0.2670 O   0  0  0  0  0  0  0  0  0  0  0  0
   -4.2470    0.6880    0.8710 C   0  0  0  0  0  0  0  0  0  0  0  0
   -3.7580   -0.6350    0.3550 C   0  0  2  0  0  0  0  0  0  0  0  0
   -2.3420   -0.7680    0.8540 C   0  0  0  0  0  0  0  0  0  0  0  0
   -1.9540   -1.6410    1.6480 O   0  0  0  0  0  0  0  0  0  0  0  0
   -1.3500    0.1820    0.3830 N   0  0  0  0  0  0  0  0  0  0  0  0
   -0.0140    0.0980    0.8210 C   0  0  0  0  0  0  0  0  0  0  0  0
    0.9440    1.1120    0.2920 C   0  0  0  0  0  0  0  0  0  0  0  0
    0.5880    2.0510   -0.5440 C   0  0  0  0  0  0  0  0  0  0  0  0
    1.7620    3.2420   -1.1510 S   0  0  0  0  0  0  0  0  0  0  0  0
    3.3740    2.9090   -0.4710 C   0  0  0  0  0  0  0  0  0  0  0  0
    3.3410    1.7460    0.4380 C   0  0  0  0  0  0  0  0  0  0  0  0
    4.6180    1.4160    1.0790 N   0  0  0  0  0  0  0  0  0  0  0  0
    5.7260    1.0120    0.2600 C   0  0  0  0  0  0  0  0  0  0  0  0
    5.5100    0.9690   -0.9620 O   0  0  0  0  0  0  0  0  0  0  0  0
    7.0120    0.6840    0.9070 C   0  0  0  0  0  0  0  0  0  0  0  0
    8.0070   -0.0150    0.0740 C   0  0  0  0  0  0  0  0  0  0  0  0
    7.6990   -1.4040   -0.3820 C   0  0  0  0  0  0  0  0  0  0  0  0
    6.2680   -1.5050   -1.3720 Cl  0  0  0  0  0  0  0  0  0  0  0  0
    2.3230    1.0010    0.7510 C   0  0  0  0  0  0  0  0  0  0  0  0
   -3.7140   -0.7090   -1.1240 C   0  0  0  0  0  0  0  0  0  0  0  0
   -4.5130   -1.7630   -1.7880 C   0  0  0  0  0  0  0  0  0  0  0  0
   -4.8790   -2.9530   -0.9740 C   0  0  0  0  0  0  0  0  0  0  0  0
   -4.0770   -2.9420    0.3090 C   0  0  0  0  0  0  0  0  0  0  0  0
   -4.4820   -1.7180    0.9920 N   0  0  0  0  0  0  0  0  0  0  0  0
  1  2  1  0
  2  3  2  0
  2  4  1  0
  5  4  1  6
  5  6  1  0
  5 23  1  0
  5 27  1  0
  6  7  2  0
  6  8  1  0
  8  9  1  0
  9 10  1  0
 10 11  2  0
 10 22  1  0
 11 12  1  0
 12 13  1  0
 13 14  1  0
 14 15  1  0
 14 22  2  0
 15 16  1  0
 16 17  2  0
 16 18  1  0
 18 19  1  0
 19 20  1  0
 20 21  1  0
 23 24  1  0
 24 25  1  0
 25 26  1  0
 26 27  1  0
M  CHG  1  27   1
M  END
