
     RDKit          3D

 17 18  0  0  0  0  0  0  0  0999 V2000
   -6.2470   -0.7890   -0.0390 C   0  0  0  0  0  0  0  0  0  0  0  0
   -5.8790    0.6930   -0.1260 C   0  0  0  0  0  0  0  0  0  0  0  0
   -4.4630    0.7310   -0.3310 O   0  0  0  0  0  0  0  0  0  0  0  0
   -3.6540    0.1690    0.6190 C   0  0  0  0  0  0  0  0  0  0  0  0
   -4.1620   -0.3550    1.6280 O   0  0  0  0  0  0  0  0  0  0  0  0
   -2.1980    0.2130    0.3980 C   0  0  0  0  0  0  0  0  0  0  0  0
   -1.4970    0.7340   -0.6230 C   0  0  0  0  0  0  0  0  0  0  0  0
   -0.1650    0.6620   -0.6190 C   0  0  0  0  0  0  0  0  0  0  0  0
    0.4300    0.0500    0.4440 C   0  0  0  0  0  0  0  0  0  0  0  0
    1.8100   -0.2000    0.7710 N   0  0  0  0  0  0  0  0  0  0  0  0
    2.8550    0.2330   -0.1230 C   0  0  0  0  0  0  0  0  0  0  0  0
    4.2000   -0.1070    0.3700 C   0  0  0  0  0  0  0  0  0  0  0  0
    5.3180    0.2010   -0.3010 N   0  0  0  0  0  0  0  0  0  0  0  0
    6.3920   -0.2220    0.3690 C   0  0  0  0  0  0  0  0  0  0  0  0
    5.9280   -0.8220    1.5130 C   0  0  0  0  0  0  0  0  0  0  0  0
    4.5920   -0.7360    1.4840 N   0  0  0  0  0  0  0  0  0  0  0  0
   -0.9860   -0.4310    1.4620 S   0  0  0  0  0  0  0  0  0  0  0  0
  1  2  1  0
  2  3  1  0
  3  4  1  0
  4  5  2  0
  4  6  1  0
  6  7  2  0
  6 17  1  0
  7  8  1  0
  8  9  2  0
  9 10  1  0
  9 17  1  0
 10 11  1  0
 11 12  1  0
 12 13  1  0
 12 16  2  0
 13 14  1  0
 14 15  2  0
 15 16  1  0
M  CHG  1  16   1
M  END
