
     RDKit          3D

 12 13  0  0  0  0  0  0  0  0999 V2000
    2.7690   -0.2690    0.4950 C   0  0  0  0  0  0  0  0  0  0  0  0
    1.9020    0.3150   -0.6180 C   0  0  0  0  0  0  0  0  0  0  0  0
    0.4810    0.0000   -0.3730 N   0  0  0  0  0  0  0  0  0  0  0  0
   -0.1360   -1.2980   -0.4290 C   0  0  0  0  0  0  0  0  0  0  0  0
   -1.5500   -1.0510   -0.0990 C   0  0  0  0  0  0  0  0  0  0  0  0
   -2.7390   -1.7230    0.0530 N   0  0  0  0  0  0  0  0  0  0  0  0
   -3.6280   -0.8000    0.3670 N   0  0  0  0  0  0  0  0  0  0  0  0
   -3.0640    0.4110    0.4200 C   0  0  0  0  0  0  0  0  0  0  0  0
   -3.8830    1.8940    0.7970 Cl  0  0  0  0  0  0  0  0  0  0  0  0
   -1.7620    0.2470    0.1270 N   0  0  0  0  0  0  0  0  0  0  0  0
   -0.5290    0.9300   -0.0320 C   0  0  0  0  0  0  0  0  0  0  0  0
   -0.3020    2.2010    0.1000 N   0  0  0  0  0  0  0  0  0  0  0  0
  1  2  1  0
  2  3  1  0
  3  4  1  0
  3 11  1  0
  4  5  1  0
  5  6  2  0
  5 10  1  0
  6  7  1  0
  7  8  2  0
  8  9  1  0
  8 10  1  0
 10 11  1  0
 11 12  2  0
M  END
