
     RDKit          3D

 11 11  0  0  0  0  0  0  0  0999 V2000
    2.0320    0.5430    0.6890 O   0  0  0  0  0  0  0  0  0  0  0  0
    1.8050   -0.0330   -0.5740 C   0  0  0  0  0  0  0  0  0  0  0  0
    0.3500   -0.5180   -0.6500 C   0  0  1  0  0  0  0  0  0  0  0  0
    0.2210   -1.0750   -1.9400 O   0  0  0  0  0  0  0  0  0  0  0  0
    0.0460   -1.4830    0.4240 C   0  0  0  0  0  0  0  0  0  0  0  0
   -1.2660   -1.3600    1.1020 C   0  0  0  0  0  0  0  0  0  0  0  0
   -1.9170   -0.1630    0.9540 O   0  0  0  0  0  0  0  0  0  0  0  0
   -0.9840    0.8510    0.8060 C   0  0  2  0  0  0  0  0  0  0  0  0
   -1.4600    2.0980    1.0930 O   0  0  0  0  0  0  0  0  0  0  0  0
   -0.5080    0.7220   -0.6400 C   0  0  1  0  0  0  0  0  0  0  0  0
    0.1370    1.8490   -1.0860 O   0  0  0  0  0  0  0  0  0  0  0  0
  1  2  1  0
  2  3  1  0
  3  4  1  6
  3  5  1  0
  3 10  1  0
  5  6  1  0
  6  7  1  0
  7  8  1  0
  8  9  1  6
  8 10  1  0
 10 11  1  1
M  END
