
     RDKit          3D

 25 29  0  0  0  0  0  0  0  0999 V2000
    6.4760    0.5770    0.5190 C   0  0  0  0  0  0  0  0  0  0  0  0
    5.7080    1.6240    0.0700 C   0  0  0  0  0  0  0  0  0  0  0  0
    4.4640    1.4240   -0.4910 C   0  0  0  0  0  0  0  0  0  0  0  0
    3.9660    0.1380   -0.6100 C   0  0  0  0  0  0  0  0  0  0  0  0
    2.6210   -0.0740   -1.2170 C   0  0  0  0  0  0  0  0  0  0  0  0
    1.5670   -0.0440   -0.2180 N   0  0  1  0  0  0  0  0  0  0  0  0
    0.4610    0.6930   -0.7760 C   0  0  0  0  0  0  0  0  0  0  0  0
   -0.5390    0.8400    0.3590 C   0  0  0  0  0  0  0  0  0  0  0  0
   -1.0940   -0.5030    0.7010 C   0  0  1  0  0  0  0  0  0  0  0  0
   -2.1500   -0.8820   -0.1930 N   0  0  0  0  0  0  0  0  0  0  0  0
   -1.9930   -1.8220   -1.1560 C   0  0  0  0  0  0  0  0  0  0  0  0
   -3.1290   -1.9950   -1.8470 N   0  0  0  0  0  0  0  0  0  0  0  0
   -4.0440   -1.1420   -1.3120 C   0  0  0  0  0  0  0  0  0  0  0  0
   -5.3600   -0.8770   -1.5990 C   0  0  0  0  0  0  0  0  0  0  0  0
   -6.0350    0.0350   -0.8930 N   0  0  0  0  0  0  0  0  0  0  0  0
   -5.4290    0.7020    0.1040 C   0  0  0  0  0  0  0  0  0  0  0  0
   -5.8720    1.6680    0.9640 N   0  0  0  0  0  0  0  0  0  0  0  0
   -4.8790    2.0300    1.7940 C   0  0  0  0  0  0  0  0  0  0  0  0
   -3.7470    1.3000    1.4930 C   0  0  0  0  0  0  0  0  0  0  0  0
   -4.1040    0.4820    0.4440 C   0  0  0  0  0  0  0  0  0  0  0  0
   -3.4130   -0.4600   -0.2860 C   0  0  0  0  0  0  0  0  0  0  0  0
   -0.0520   -1.5810    0.8190 C   0  0  0  0  0  0  0  0  0  0  0  0
    1.1920   -1.4110    0.0550 C   0  0  0  0  0  0  0  0  0  0  0  0
    4.7470   -0.8950   -0.1570 C   0  0  0  0  0  0  0  0  0  0  0  0
    5.9940   -0.7120    0.4070 C   0  0  0  0  0  0  0  0  0  0  0  0
  1  2  2  0
  1 25  1  0
  2  3  1  0
  3  4  2  0
  4  5  1  0
  4 24  1  0
  6  5  1  6
  6  7  1  0
  6 23  1  0
  7  8  1  0
  8  9  1  0
  9 10  1  6
  9 22  1  0
 10 11  1  0
 10 21  1  0
 11 12  2  0
 12 13  1  0
 13 14  2  0
 13 21  1  0
 14 15  1  0
 15 16  2  0
 16 17  1  0
 16 20  1  0
 17 18  1  0
 18 19  2  0
 19 20  1  0
 20 21  2  0
 22 23  1  0
 24 25  2  0
M  CHG  1   6   1
M  END
