
     RDKit          3D

 12 13  0  0  0  0  0  0  0  0999 V2000
   -2.4920   -1.0600    0.0890 C   0  0  0  0  0  0  0  0  0  0  0  0
   -1.3750   -0.0830   -0.1540 C   0  0  0  0  0  0  0  0  0  0  0  0
   -1.7070    1.0640   -0.6600 C   0  0  0  0  0  0  0  0  0  0  0  0
   -3.3880    1.4620   -1.0450 Cl  0  0  0  0  0  0  0  0  0  0  0  0
   -0.0760   -0.4690    0.1750 N   0  0  0  0  0  0  0  0  0  0  0  0
    0.2750   -1.6660    0.7040 N   0  0  0  0  0  0  0  0  0  0  0  0
    1.5640   -1.7220    0.8990 N   0  0  0  0  0  0  0  0  0  0  0  0
    2.1240   -0.5540    0.5050 C   0  0  0  0  0  0  0  0  0  0  0  0
    3.2820    0.1220    0.3890 N   0  0  0  0  0  0  0  0  0  0  0  0
    2.9890    1.2920   -0.1210 N   0  0  0  0  0  0  0  0  0  0  0  0
    1.6550    1.4160   -0.3500 C   0  0  0  0  0  0  0  0  0  0  0  0
    1.0570    0.2300    0.0470 C   0  0  0  0  0  0  0  0  0  0  0  0
  1  2  1  0
  2  3  2  3
  2  5  1  0
  3  4  1  0
  5  6  1  0
  5 12  1  0
  6  7  2  0
  7  8  1  0
  8  9  1  0
  8 12  2  0
  9 10  1  0
 10 11  2  0
 11 12  1  0
M  END
