
     RDKit          3D

 11 11  0  0  0  0  0  0  0  0999 V2000
    2.5600    0.4770    0.3910 O   0  0  0  0  0  0  0  0  0  0  0  0
    2.1370   -0.1970   -0.7450 C   0  0  0  0  0  0  0  0  0  0  0  0
    0.8130   -0.9250   -0.4940 C   0  0  1  0  0  0  0  0  0  0  0  0
    0.9270   -1.8480    0.5140 O   0  0  0  0  0  0  0  0  0  0  0  0
   -0.2080    0.1280   -0.1990 C   0  0  2  0  0  0  0  0  0  0  0  0
   -0.3030    1.0400   -1.2230 O   0  0  0  0  0  0  0  0  0  0  0  0
    0.0240    0.8470    1.1010 C   0  0  0  0  0  0  0  0  0  0  0  0
   -1.1930    1.0240    1.7110 O   0  0  0  0  0  0  0  0  0  0  0  0
   -2.1940    0.7170    0.8260 C   0  0  0  0  0  0  0  0  0  0  0  0
   -1.5840   -0.4630    0.0590 C   0  0  1  0  0  0  0  0  0  0  0  0
   -2.2760   -0.7390   -1.0950 O   0  0  0  0  0  0  0  0  0  0  0  0
  1  2  1  0
  2  3  1  0
  3  4  1  1
  3  5  1  0
  5  6  1  6
  5  7  1  0
  5 10  1  0
  7  8  1  0
  8  9  1  0
  9 10  1  0
 10 11  1  6
M  END
