
     RDKit          3D

 12 13  0  0  0  0  0  0  0  0999 V2000
   -1.8250    1.6230   -1.9730 Cl  0  0  0  0  0  0  0  0  0  0  0  0
   -1.4460    1.7000   -0.2190 C   0  0  0  0  0  0  0  0  0  0  0  0
   -1.6370    0.3170    0.3020 C   0  0  0  0  0  0  0  0  0  0  0  0
   -2.7690   -0.2130    0.7980 N   0  0  0  0  0  0  0  0  0  0  0  0
   -2.5250   -1.4650    1.1530 N   0  0  0  0  0  0  0  0  0  0  0  0
   -1.2160   -1.7010    0.8660 C   0  0  0  0  0  0  0  0  0  0  0  0
   -0.6550   -0.6040    0.3380 N   0  0  0  0  0  0  0  0  0  0  0  0
    0.6830   -0.4050   -0.1030 C   0  0  0  0  0  0  0  0  0  0  0  0
    1.2140   -0.5470   -1.3690 C   0  0  0  0  0  0  0  0  0  0  0  0
    2.5430   -0.2530   -1.3290 N   0  0  0  0  0  0  0  0  0  0  0  0
    2.8770    0.0710   -0.0790 N   0  0  0  0  0  0  0  0  0  0  0  0
    1.7690   -0.0130    0.6830 C   0  0  0  0  0  0  0  0  0  0  0  0
  1  2  1  0
  2  3  1  0
  3  4  2  0
  3  7  1  0
  4  5  1  0
  5  6  2  0
  6  7  1  0
  7  8  1  0
  8  9  1  0
  8 12  2  0
  9 10  2  0
 10 11  1  0
 11 12  1  0
M  END
