
     RDKit          3D

  5  5  0  0  0  0  0  0  0  0999 V2000
    0.9780    1.8640   -0.2160 Cl  0  0  0  0  0  0  0  0  0  0  0  0
    0.6430    0.1770    0.1150 C   0  0  2  0  0  0  0  0  0  0  0  0
    1.8850   -1.0230   -0.2560 Cl  0  0  0  0  0  0  0  0  0  0  0  0
   -0.8120   -0.2270   -0.0780 C   0  0  0  0  0  0  0  0  0  0  0  0
   -0.1810   -0.1850    1.1800 O   0  0  0  0  0  0  0  0  0  0  0  0
  2  1  1  1
  2  3  1  0
  2  4  1  0
  2  5  1  0
  4  5  1  0
M  END
