
     RDKit          3D

 14 14  0  0  0  0  0  0  0  0999 V2000
   -2.3490   -1.5860   -1.6990 C   0  0  0  0  0  0  0  0  0  0  0  0
   -2.1830   -0.7670   -0.7600 C   0  0  0  0  0  0  0  0  0  0  0  0
   -3.4090    0.1400   -0.6610 O   0  0  0  0  0  0  0  0  0  0  0  0
   -3.8580    0.2810    1.1210 S   0  0  0  0  0  0  0  0  0  0  0  0
   -2.4610    1.3470    1.7220 C   0  0  0  0  0  0  0  0  0  0  0  0
   -1.3980    1.1900    0.5500 C   0  0  0  0  0  0  0  0  0  0  0  0
   -1.3200   -0.2900    0.2680 C   0  0  2  0  0  0  0  0  0  0  0  0
    0.0220   -0.7600    0.3460 N   0  0  0  0  0  0  0  0  0  0  0  0
    0.9600   -0.4600   -0.7170 C   0  0  2  0  0  0  0  0  0  0  0  0
    1.5230   -1.6890   -1.2760 C   0  0  0  0  0  0  0  0  0  0  0  0
    1.9790    0.4790   -0.2020 C   0  0  0  0  0  0  0  0  0  0  0  0
    1.8990    1.7020   -0.6450 O   0  0  0  0  0  0  0  0  0  0  0  0
    3.0110    0.2220    0.7120 O   0  0  0  0  0  0  0  0  0  0  0  0
    3.8660    1.3240    1.1010 C   0  0  0  0  0  0  0  0  0  0  0  0
  1  2  2  0
  2  3  1  0
  2  7  1  0
  3  4  1  0
  4  5  1  0
  5  6  1  0
  6  7  1  0
  7  8  1  6
  8  9  1  0
  9 10  1  1
  9 11  1  0
 11 12  2  0
 11 13  1  0
 13 14  1  0
M  END
