
     RDKit          3D

 14 14  0  0  0  0  0  0  0  0999 V2000
   -1.7840   -1.2760    0.8520 C   0  0  0  0  0  0  0  0  0  0  0  0
   -0.9060   -0.5480   -0.0040 N   0  0  0  0  0  0  0  0  0  0  0  0
   -1.5750    0.3710   -0.9090 C   0  0  1  0  0  0  0  0  0  0  0  0
   -2.4210   -0.2920   -1.9310 C   0  0  0  0  0  0  0  0  0  0  0  0
   -3.4420   -1.0650   -1.4280 O   0  0  0  0  0  0  0  0  0  0  0  0
   -2.3340    1.4350   -0.1400 C   0  0  0  0  0  0  0  0  0  0  0  0
   -1.5640    2.0370    0.8290 O   0  0  0  0  0  0  0  0  0  0  0  0
   -0.7620    1.2280    1.5830 C   0  0  0  0  0  0  0  0  0  0  0  0
    0.0310    0.3140    0.7320 C   0  0  1  0  0  0  0  0  0  0  0  0
    1.0080   -0.5600    1.4410 C   0  0  0  0  0  0  0  0  0  0  0  0
    1.8590   -1.5370    0.1400 S   0  0  0  0  0  0  0  0  0  0  0  0
    2.8670   -0.4750   -0.9190 C   0  0  0  0  0  0  0  0  0  0  0  0
    3.9940    0.0740   -0.0550 C   0  0  0  0  0  0  0  0  0  0  0  0
    4.7700    0.9000   -0.8970 O   0  0  0  0  0  0  0  0  0  0  0  0
  1  2  1  0
  2  3  1  0
  2  9  1  0
  3  4  1  1
  3  6  1  0
  4  5  1  0
  6  7  1  0
  7  8  1  0
  8  9  1  0
  9 10  1  1
 10 11  1  0
 11 12  1  0
 12 13  1  0
 13 14  1  0
M  END
