
     RDKit          3D

 14 14  0  0  0  0  0  0  0  0999 V2000
    3.9680    0.8060    0.0160 C   0  0  0  0  0  0  0  0  0  0  0  0
    2.8820    0.9290    0.8390 O   0  0  0  0  0  0  0  0  0  0  0  0
    1.6460    0.9400    0.2290 C   0  0  0  0  0  0  0  0  0  0  0  0
    1.4030   -0.3420   -0.5320 C   0  0  2  0  0  0  0  0  0  0  0  0
    0.0790   -0.3870   -1.2070 C   0  0  0  0  0  0  0  0  0  0  0  0
   -1.1130   -0.8490   -0.5210 C   0  0  2  0  0  0  0  0  0  0  0  0
   -1.8550   -1.7070   -1.4830 N   0  0  0  0  0  0  0  0  0  0  0  0
   -2.0680    0.2830   -0.3020 C   0  0  0  0  0  0  0  0  0  0  0  0
   -3.1820    0.3450   -0.8820 O   0  0  0  0  0  0  0  0  0  0  0  0
   -1.7760    1.3330    0.5560 O   0  0  0  0  0  0  0  0  0  0  0  0
   -2.7060    2.3820    0.7330 C   0  0  0  0  0  0  0  0  0  0  0  0
   -1.0460   -1.6530    0.7100 C   0  0  0  0  0  0  0  0  0  0  0  0
    0.0730   -1.4420    1.6470 C   0  0  0  0  0  0  0  0  0  0  0  0
    1.6050   -1.6970    0.6600 S   0  0  0  0  0  0  0  0  0  0  0  0
  1  2  1  0
  2  3  1  0
  4  3  1  1
  4  5  1  0
  4 14  1  0
  5  6  1  0
  6  7  1  6
  6  8  1  0
  6 12  1  0
  8  9  2  0
  8 10  1  0
 10 11  1  0
 12 13  1  0
 13 14  1  0
M  END
