
     RDKit          3D

 14 14  0  0  0  0  0  0  0  0999 V2000
    4.9160    0.8030    0.6610 C   0  0  0  0  0  0  0  0  0  0  0  0
    3.9810   -0.0700    0.0920 O   0  0  0  0  0  0  0  0  0  0  0  0
    2.6640   -0.1690    0.4570 C   0  0  0  0  0  0  0  0  0  0  0  0
    2.2990    0.6180    1.4020 O   0  0  0  0  0  0  0  0  0  0  0  0
    1.7180   -1.1080   -0.1880 C   0  0  0  0  0  0  0  0  0  0  0  0
    0.5220   -0.3780   -0.6850 C   0  0  1  0  0  0  0  0  0  0  0  0
    0.8100    0.6060   -1.6270 O   0  0  0  0  0  0  0  0  0  0  0  0
   -0.5570   -1.2450   -1.2800 C   0  0  0  0  0  0  0  0  0  0  0  0
   -1.7430   -0.2710   -1.3160 C   0  0  0  0  0  0  0  0  0  0  0  0
   -1.5720    0.5250   -0.1660 N   0  0  0  0  0  0  0  0  0  0  0  0
   -2.5800    0.5200    0.8270 C   0  0  1  0  0  0  0  0  0  0  0  0
   -3.8620    1.0910    0.2310 C   0  0  0  0  0  0  0  0  0  0  0  0
   -2.8740   -1.1280    1.5280 S   0  0  0  0  0  0  0  0  0  0  0  0
   -0.2780    0.3080    0.4170 C   0  0  0  0  0  0  0  0  0  0  0  0
  1  2  1  0
  2  3  1  0
  3  4  2  0
  3  5  1  0
  5  6  1  0
  6  7  1  6
  6  8  1  0
  6 14  1  0
  8  9  1  0
  9 10  1  0
 10 11  1  0
 10 14  1  0
 11 12  1  6
 11 13  1  0
M  END
