
     RDKit          3D

 40 43  0  0  0  0  0  0  0  0999 V2000
   -5.8210    0.6250    2.0340 C   0  0  0  0  0  0  0  0  0  0  0  0
   -5.2470   -0.5160    1.9200 C   0  0  0  0  0  0  0  0  0  0  0  0
   -4.0380   -0.8410    1.0840 C   0  0  0  0  0  0  0  0  0  0  0  0
   -3.6360   -2.0730    1.1360 C   0  0  0  0  0  0  0  0  0  0  0  0
   -2.5590   -2.8920    0.5470 C   0  0  1  0  0  0  0  0  0  0  0  0
   -2.8490   -4.4060    0.9650 C   0  0  0  0  0  0  0  0  0  0  0  0
   -2.6970   -3.0270   -0.9480 C   0  0  0  0  0  0  0  0  0  0  0  0
   -1.1760   -2.6290    1.0610 C   0  0  0  0  0  0  0  0  0  0  0  0
   -0.0890   -2.5080    0.0630 C   0  0  2  0  0  0  0  0  0  0  0  0
    0.4950   -3.8730   -0.2480 C   0  0  0  0  0  0  0  0  0  0  0  0
    2.3170   -3.6400   -0.3560 S   0  0  0  0  0  0  0  0  0  0  0  0
    2.2680   -2.1110    0.6120 C   0  0  1  0  0  0  0  0  0  0  0  0
    3.3310   -1.2690    0.5280 O   0  0  0  0  0  0  0  0  0  0  0  0
    3.2330    0.1390    0.4660 C   0  0  0  0  0  0  0  0  0  0  0  0
    4.4660    0.9080    0.6340 C   0  0  0  0  0  0  0  0  0  0  0  0
    5.6760    0.2220    0.8310 C   0  0  0  0  0  0  0  0  0  0  0  0
    6.8850    0.8460    0.9860 C   0  0  0  0  0  0  0  0  0  0  0  0
    8.0330    0.0420    1.1770 O   0  0  0  0  0  0  0  0  0  0  0  0
    7.9020   -1.3690    1.2160 C   0  0  0  0  0  0  0  0  0  0  0  0
    6.9680    2.2170    0.9550 C   0  0  0  0  0  0  0  0  0  0  0  0
    8.1790    2.8660    1.1100 O   0  0  0  0  0  0  0  0  0  0  0  0
    8.1830    4.2860    1.0670 C   0  0  0  0  0  0  0  0  0  0  0  0
    5.7970    2.9160    0.7640 C   0  0  0  0  0  0  0  0  0  0  0  0
    4.5560    2.2700    0.6050 C   0  0  0  0  0  0  0  0  0  0  0  0
    3.4240    3.0440    0.4170 O   0  0  0  0  0  0  0  0  0  0  0  0
    3.4000    4.4370    0.3690 C   0  0  0  0  0  0  0  0  0  0  0  0
    2.0370    0.6220    0.2650 C   0  0  0  0  0  0  0  0  0  0  0  0
    0.8470   -0.2430    0.1170 C   0  0  0  0  0  0  0  0  0  0  0  0
    0.9480   -1.5310    0.2020 C   0  0  0  0  0  0  0  0  0  0  0  0
   -0.4530    0.3800   -0.0980 C   0  0  0  0  0  0  0  0  0  0  0  0
   -0.8470    0.7740   -1.3970 N   0  0  0  0  0  0  0  0  0  0  0  0
   -2.2080    0.5740   -1.8370 C   0  0  0  0  0  0  0  0  0  0  0  0
   -2.3150    0.7360   -3.1020 O   0  0  0  0  0  0  0  0  0  0  0  0
   -3.3130    0.2470   -1.0470 N   0  0  0  0  0  0  0  0  0  0  0  0
   -4.4880   -0.2650   -1.7820 C   0  0  0  0  0  0  0  0  0  0  0  0
   -5.4590    0.7860   -2.1860 C   0  0  1  0  0  0  0  0  0  0  0  0
   -6.0030    1.4970   -1.1230 O   0  0  0  0  0  0  0  0  0  0  0  0
   -5.0390    1.7590   -3.2180 C   0  0  0  0  0  0  0  0  0  0  0  0
   -6.2290    2.5300   -3.6460 N   0  0  0  0  0  0  0  0  0  0  0  0
   -3.5290    0.3420    0.3640 C   0  0  0  0  0  0  0  0  0  0  0  0
  1  2  2  0
  2  3  1  0
  3  4  2  0
  3 40  1  0
  4  5  1  0
  5  6  1  1
  5  7  1  0
  5  8  1  0
  9  8  1  1
  9 10  1  0
  9 29  1  0
 10 11  1  0
 11 12  1  0
 12 13  1  6
 12 29  1  0
 13 14  1  0
 14 15  1  0
 14 27  2  0
 15 16  2  0
 15 24  1  0
 16 17  1  0
 17 18  1  0
 17 20  2  0
 18 19  1  0
 20 21  1  0
 20 23  1  0
 21 22  1  0
 23 24  2  0
 24 25  1  0
 25 26  1  0
 27 28  1  0
 28 29  2  0
 28 30  1  0
 30 31  1  0
 31 32  1  0
 32 33  2  0
 32 34  1  0
 34 35  1  0
 34 40  1  0
 35 36  1  0
 36 37  1  1
 36 38  1  0
 38 39  1  0
M  END
