
     RDKit          3D

 40 43  0  0  0  0  0  0  0  0999 V2000
   -0.1780   -4.4730   -1.8160 C   0  0  0  0  0  0  0  0  0  0  0  0
    0.7620   -3.6090   -0.9520 C   0  0  0  0  0  0  0  0  0  0  0  0
   -0.0600   -2.8190    0.0200 C   0  0  0  0  0  0  0  0  0  0  0  0
   -0.2690   -3.1910    1.2750 N   0  0  0  0  0  0  0  0  0  0  0  0
   -1.0790   -2.3540    1.8460 N   0  0  0  0  0  0  0  0  0  0  0  0
   -1.4480   -1.3660    0.9530 C   0  0  0  0  0  0  0  0  0  0  0  0
   -0.8090   -1.6420   -0.1970 C   0  0  0  0  0  0  0  0  0  0  0  0
   -0.7370   -0.9050   -1.4730 C   0  0  2  0  0  0  0  0  0  0  0  0
    0.6200   -0.8600   -1.9630 N   0  0  0  0  0  0  0  0  0  0  0  0
    1.5660    0.0140   -1.4520 C   0  0  2  0  0  0  0  0  0  0  0  0
    2.6310    0.2050   -2.5730 C   0  0  0  0  0  0  0  0  0  0  0  0
    3.4390    1.4110   -2.1900 C   0  0  0  0  0  0  0  0  0  0  0  0
    4.0860    1.1510   -0.8910 C   0  0  0  0  0  0  0  0  0  0  0  0
    5.2230    1.8680   -0.5300 C   0  0  0  0  0  0  0  0  0  0  0  0
    5.8520    1.6400    0.6780 C   0  0  0  0  0  0  0  0  0  0  0  0
    6.9730    2.3280    1.0640 O   0  0  0  0  0  0  0  0  0  0  0  0
    7.5820    3.3310    0.2790 C   0  0  0  0  0  0  0  0  0  0  0  0
    5.3430    0.6820    1.5460 C   0  0  0  0  0  0  0  0  0  0  0  0
    5.9420    0.4180    2.7700 O   0  0  0  0  0  0  0  0  0  0  0  0
    6.9540   -0.5550    2.9060 C   0  0  0  0  0  0  0  0  0  0  0  0
    4.2240   -0.0310    1.2030 C   0  0  0  0  0  0  0  0  0  0  0  0
    3.6940   -0.9900    2.0430 O   0  0  0  0  0  0  0  0  0  0  0  0
    4.0600   -2.3490    2.0240 C   0  0  0  0  0  0  0  0  0  0  0  0
    3.6030    0.2140   -0.0240 C   0  0  0  0  0  0  0  0  0  0  0  0
    2.3840   -0.6230   -0.3340 C   0  0  0  0  0  0  0  0  0  0  0  0
   -1.5220    0.3060   -1.6810 C   0  0  0  0  0  0  0  0  0  0  0  0
   -1.2560    1.5560   -0.9650 C   0  0  0  0  0  0  0  0  0  0  0  0
   -2.6380    2.6680   -0.6960 S   0  0  0  0  0  0  0  0  0  0  0  0
   -4.2390    2.1760   -1.2730 C   0  0  0  0  0  0  0  0  0  0  0  0
   -5.2550    2.4740   -0.2070 C   0  0  0  0  0  0  0  0  0  0  0  0
   -6.1890    1.7100    0.2600 C   0  0  0  0  0  0  0  0  0  0  0  0
   -7.0460    2.3450    1.3440 C   0  0  1  0  0  0  0  0  0  0  0  0
   -8.4700    2.3010    0.7720 C   0  0  0  0  0  0  0  0  0  0  0  0
   -7.0290    1.6720    2.5310 O   0  0  0  0  0  0  0  0  0  0  0  0
   -6.5350    0.3560   -0.1260 C   0  0  0  0  0  0  0  0  0  0  0  0
   -5.8740   -0.7490   -0.1520 C   0  0  0  0  0  0  0  0  0  0  0  0
   -4.4930   -1.0930    0.2020 C   0  0  0  0  0  0  0  0  0  0  0  0
   -3.6780   -0.1200    0.7330 O   0  0  0  0  0  0  0  0  0  0  0  0
   -2.4120   -0.3160    1.2800 C   0  0  0  0  0  0  0  0  0  0  0  0
   -2.0580    0.5080    2.1630 O   0  0  0  0  0  0  0  0  0  0  0  0
  1  2  1  0
  2  3  1  0
  3  4  2  0
  3  7  1  0
  4  5  1  0
  5  6  1  0
  6  7  2  0
  6 39  1  0
  7  8  1  0
  8  9  1  1
  8 26  1  0
 10  9  1  6
 10 11  1  0
 10 25  1  0
 11 12  1  0
 12 13  1  0
 13 14  2  0
 13 24  1  0
 14 15  1  0
 15 16  1  0
 15 18  2  0
 16 17  1  0
 18 19  1  0
 18 21  1  0
 19 20  1  0
 21 22  1  0
 21 24  2  0
 22 23  1  0
 24 25  1  0
 26 27  1  0
 27 28  1  0
 28 29  1  0
 29 30  1  0
 30 31  2  0
 31 32  1  0
 31 35  1  0
 32 33  1  6
 32 34  1  0
 35 36  2  0
 36 37  1  0
 37 38  1  0
 38 39  1  0
 39 40  2  0
M  END
