
     RDKit          3D

 40 43  0  0  0  0  0  0  0  0999 V2000
   -9.1680   -3.5290    1.6260 C   0  0  0  0  0  0  0  0  0  0  0  0
   -8.5630   -2.3820    2.3940 C   0  0  0  0  0  0  0  0  0  0  0  0
   -7.8420   -1.5260    1.5460 O   0  0  0  0  0  0  0  0  0  0  0  0
   -8.4150   -0.8300    0.4960 C   0  0  0  0  0  0  0  0  0  0  0  0
   -9.7640   -0.9190    0.2040 C   0  0  0  0  0  0  0  0  0  0  0  0
  -10.3160   -0.2170   -0.8470 C   0  0  0  0  0  0  0  0  0  0  0  0
   -9.4850    0.5780   -1.5980 C   0  0  0  0  0  0  0  0  0  0  0  0
   -9.9800    1.3580   -2.7380 C   0  0  0  0  0  0  0  0  0  0  0  0
   -9.2190    2.0800   -3.4150 O   0  0  0  0  0  0  0  0  0  0  0  0
   -8.1110    0.6620   -1.2910 C   0  0  0  0  0  0  0  0  0  0  0  0
   -7.5420   -0.0250   -0.2540 C   0  0  0  0  0  0  0  0  0  0  0  0
   -6.1820    0.0300    0.0770 N   0  0  0  0  0  0  0  0  0  0  0  0
   -5.1510    0.7930   -0.4850 C   0  0  0  0  0  0  0  0  0  0  0  0
   -5.4660    1.5530   -1.4320 O   0  0  0  0  0  0  0  0  0  0  0  0
   -3.7480    0.7830   -0.0720 C   0  0  0  0  0  0  0  0  0  0  0  0
   -3.2760    0.0440    0.8820 C   0  0  0  0  0  0  0  0  0  0  0  0
   -1.8980    0.0160    1.3150 C   0  0  0  0  0  0  0  0  0  0  0  0
   -0.9100    0.7410    0.8100 C   0  0  0  0  0  0  0  0  0  0  0  0
    0.4350    0.5280    1.4290 C   0  0  0  0  0  0  0  0  0  0  0  0
    1.4740    0.9970    0.3720 C   0  0  0  0  0  0  0  0  0  0  0  0
    2.3470    0.1770   -0.0380 C   0  0  0  0  0  0  0  0  0  0  0  0
    3.4100    0.2450   -0.9600 C   0  0  0  0  0  0  0  0  0  0  0  0
    4.1080   -0.8590   -1.0930 O   0  0  0  0  0  0  0  0  0  0  0  0
    3.8750    1.2890   -1.7830 N   0  0  0  0  0  0  0  0  0  0  0  0
    5.0050    1.1210   -2.6460 C   0  0  0  0  0  0  0  0  0  0  0  0
    6.3230    0.9220   -2.1180 C   0  0  0  0  0  0  0  0  0  0  0  0
    7.2370    0.6390   -3.0480 O   0  0  0  0  0  0  0  0  0  0  0  0
    6.8370    0.9730   -0.8280 N   0  0  0  0  0  0  0  0  0  0  0  0
    6.0930    1.3550    0.3190 C   0  0  0  0  0  0  0  0  0  0  0  0
    5.8830    0.3230    1.3730 C   0  0  0  0  0  0  0  0  0  0  0  0
    6.4020   -1.0340    1.1190 C   0  0  2  0  0  0  0  0  0  0  0  0
    7.3210   -1.4080    2.2940 C   0  0  0  0  0  0  0  0  0  0  0  0
    7.0920   -1.2870   -0.0140 O   0  0  0  0  0  0  0  0  0  0  0  0
    8.3680   -0.7780   -0.1040 C   0  0  1  0  0  0  0  0  0  0  0  0
    9.1510   -1.6610   -1.0500 C   0  0  0  0  0  0  0  0  0  0  0  0
    8.2750    0.5940   -0.7080 C   0  0  0  0  0  0  0  0  0  0  0  0
    1.2410    2.3980    0.0220 C   0  0  0  0  0  0  0  0  0  0  0  0
   -0.1110    2.4880   -0.6290 C   0  0  0  0  0  0  0  0  0  0  0  0
   -1.0670    1.7050   -0.2320 C   0  0  0  0  0  0  0  0  0  0  0  0
   -2.6510    1.8690   -1.0150 S   0  0  0  0  0  0  0  0  0  0  0  0
  1  2  1  0
  2  3  1  0
  3  4  1  0
  4  5  2  0
  4 11  1  0
  5  6  1  0
  6  7  2  0
  7  8  1  0
  7 10  1  0
  8  9  2  0
 10 11  2  0
 11 12  1  0
 12 13  1  0
 13 14  2  0
 13 15  1  0
 15 16  2  0
 15 40  1  0
 16 17  1  0
 17 18  2  0
 18 19  1  0
 18 39  1  0
 19 20  1  0
 20 21  2  3
 20 37  1  0
 21 22  1  0
 22 23  2  0
 22 24  1  0
 24 25  1  0
 25 26  1  0
 26 27  2  0
 26 28  1  0
 28 29  1  0
 28 36  1  0
 29 30  1  0
 30 31  1  0
 31 32  1  1
 31 33  1  0
 33 34  1  0
 34 35  1  6
 34 36  1  0
 37 38  1  0
 38 39  2  0
 39 40  1  0
M  END
