
     RDKit          3D

 40 43  0  0  0  0  0  0  0  0999 V2000
    0.8980    0.5150    0.2100 C   0  0  0  0  0  0  0  0  0  0  0  0
    0.7250    1.2570    1.2820 C   0  0  0  0  0  0  0  0  0  0  0  0
    1.6350    2.3610    1.6210 C   0  0  0  0  0  0  0  0  0  0  0  0
    2.8960    2.5400    1.4610 C   0  0  0  0  0  0  0  0  0  0  0  0
    3.8700    1.6610    0.8710 C   0  0  0  0  0  0  0  0  0  0  0  0
    5.1500    2.0260    0.7700 C   0  0  0  0  0  0  0  0  0  0  0  0
    6.1400    1.1650    0.1840 C   0  0  0  0  0  0  0  0  0  0  0  0
    7.4670    1.6240    0.0900 C   0  0  0  0  0  0  0  0  0  0  0  0
    8.4680    0.8570   -0.4590 C   0  0  0  0  0  0  0  0  0  0  0  0
    8.2150   -0.4060   -0.9450 C   0  0  0  0  0  0  0  0  0  0  0  0
    9.5430   -1.3650   -1.6560 S   0  0  0  0  0  0  0  0  0  0  0  0
   10.3560   -2.2480   -0.3090 C   0  0  0  0  0  0  0  0  0  0  0  0
   10.5270   -0.3660   -2.2460 O   0  0  0  0  0  0  0  0  0  0  0  0
    6.9370   -0.8850   -0.8700 C   0  0  0  0  0  0  0  0  0  0  0  0
    5.9340   -0.1000   -0.3140 C   0  0  0  0  0  0  0  0  0  0  0  0
    0.7200    3.3280    2.3360 C   0  0  0  0  0  0  0  0  0  0  0  0
   -0.0880    2.3270    3.1190 C   0  0  0  0  0  0  0  0  0  0  0  0
   -0.4330    2.4800    4.3100 O   0  0  0  0  0  0  0  0  0  0  0  0
   -0.3470    1.2260    2.2170 N   0  0  0  0  0  0  0  0  0  0  0  0
   -1.4840    0.3660    2.3120 C   0  0  2  0  0  0  0  0  0  0  0  0
   -1.2480   -0.9790    2.8750 C   0  0  0  0  0  0  0  0  0  0  0  0
   -0.4020   -1.9400    2.3340 N   0  0  0  0  0  0  0  0  0  0  0  0
   -0.5470   -2.5990    1.1000 C   0  0  0  0  0  0  0  0  0  0  0  0
    0.4920   -3.6090    0.7030 C   0  0  0  0  0  0  0  0  0  0  0  0
   -1.4850   -2.4000    0.3110 O   0  0  0  0  0  0  0  0  0  0  0  0
   -2.3320    0.4710    1.0990 C   0  0  0  0  0  0  0  0  0  0  0  0
   -1.9650    1.2440    0.1860 O   0  0  0  0  0  0  0  0  0  0  0  0
   -3.5270   -0.2410    0.9080 N   0  0  0  0  0  0  0  0  0  0  0  0
   -4.4100   -0.2210   -0.1860 C   0  0  0  0  0  0  0  0  0  0  0  0
   -4.2550    0.5870   -1.2910 C   0  0  0  0  0  0  0  0  0  0  0  0
   -5.1760    0.5630   -2.3580 C   0  0  0  0  0  0  0  0  0  0  0  0
   -6.2660   -0.2660   -2.3470 C   0  0  0  0  0  0  0  0  0  0  0  0
   -6.4180   -1.0740   -1.2390 C   0  0  0  0  0  0  0  0  0  0  0  0
   -5.5240   -1.0530   -0.1970 C   0  0  0  0  0  0  0  0  0  0  0  0
   -5.6830   -1.8740    0.9230 O   0  0  0  0  0  0  0  0  0  0  0  0
   -6.7460   -2.7730    1.0820 C   0  0  0  0  0  0  0  0  0  0  0  0
   -7.0160   -0.0560   -3.6040 C   0  0  0  0  0  0  0  0  0  0  0  0
   -6.4760    1.3150   -4.0380 C   0  0  1  0  0  0  0  0  0  0  0  0
   -7.2610    2.4230   -3.3800 C   0  0  0  0  0  0  0  0  0  0  0  0
   -5.1430    1.3220   -3.5270 O   0  0  0  0  0  0  0  0  0  0  0  0
  1  2  2  0
  2  3  1  0
  2 19  1  0
  3  4  2  3
  3 16  1  0
  4  5  1  0
  5  6  2  3
  6  7  1  0
  7  8  2  0
  7 15  1  0
  8  9  1  0
  9 10  2  0
 10 11  1  0
 10 14  1  0
 11 12  1  1
 11 13  2  0
 14 15  2  0
 16 17  1  0
 17 18  2  0
 17 19  1  0
 19 20  1  0
 20 21  1  6
 20 26  1  0
 21 22  1  0
 22 23  1  0
 23 24  1  0
 23 25  2  0
 26 27  2  0
 26 28  1  0
 28 29  1  0
 29 30  2  0
 29 34  1  0
 30 31  1  0
 31 32  2  0
 31 40  1  0
 32 33  1  0
 32 37  1  0
 33 34  2  0
 34 35  1  0
 35 36  1  0
 37 38  1  0
 38 39  1  1
 38 40  1  0
M  END
