
     RDKit          3D

 40 43  0  0  0  0  0  0  0  0999 V2000
    3.0250    5.2670    1.2550 N   0  0  0  0  0  0  0  0  0  0  0  0
    2.3490    4.6000    0.1820 C   0  0  0  0  0  0  0  0  0  0  0  0
    2.6430    4.8660   -1.0330 N   0  0  0  0  0  0  0  0  0  0  0  0
    1.3280    3.6240    0.4990 C   0  0  0  0  0  0  0  0  0  0  0  0
    1.0690    3.3860    1.8500 C   0  0  0  0  0  0  0  0  0  0  0  0
    0.1210    2.4850    2.1950 C   0  0  0  0  0  0  0  0  0  0  0  0
   -0.5970    1.7960    1.2470 C   0  0  0  0  0  0  0  0  0  0  0  0
   -0.3800    1.9950   -0.1120 C   0  0  0  0  0  0  0  0  0  0  0  0
   -1.1860    1.2740   -1.0990 C   0  0  0  0  0  0  0  0  0  0  0  0
   -0.6790   -0.0480   -1.5590 C   0  0  2  0  0  0  0  0  0  0  0  0
    0.6040    0.0060   -2.1960 N   0  0  0  0  0  0  0  0  0  0  0  0
    1.8510   -0.9300   -1.6400 S   0  0  1  0  0  0  0  0  0  0  0  0
    1.6550   -2.4170   -1.7700 O   0  0  0  0  0  0  0  0  0  0  0  0
    3.0600   -0.6420   -2.5330 O   0  0  0  0  0  0  0  0  0  0  0  0
    2.3920   -0.6590   -0.0040 C   0  0  0  0  0  0  0  0  0  0  0  0
    1.7830   -1.3230    1.0460 C   0  0  0  0  0  0  0  0  0  0  0  0
    2.2710   -1.0950    2.3090 C   0  0  0  0  0  0  0  0  0  0  0  0
    3.3340   -0.2360    2.5540 C   0  0  0  0  0  0  0  0  0  0  0  0
    3.9510    0.4330    1.5230 C   0  0  0  0  0  0  0  0  0  0  0  0
    5.0820    1.3290    1.7310 C   0  0  0  0  0  0  0  0  0  0  0  0
    6.1780    1.2900    0.8640 C   0  0  0  0  0  0  0  0  0  0  0  0
    7.2570    2.1150    1.0240 C   0  0  0  0  0  0  0  0  0  0  0  0
    7.2810    3.0300    2.0820 C   0  0  0  0  0  0  0  0  0  0  0  0
    8.6700    4.0540    2.2440 Cl  0  0  0  0  0  0  0  0  0  0  0  0
    6.2190    3.0950    2.9550 C   0  0  0  0  0  0  0  0  0  0  0  0
    5.1340    2.2380    2.7610 C   0  0  0  0  0  0  0  0  0  0  0  0
    3.8290    2.3920    3.9110 Cl  0  0  0  0  0  0  0  0  0  0  0  0
    3.4420    0.1890    0.2480 C   0  0  0  0  0  0  0  0  0  0  0  0
   -1.7160   -0.6580   -2.4610 C   0  0  0  0  0  0  0  0  0  0  0  0
   -1.5290   -0.5020   -3.6870 O   0  0  0  0  0  0  0  0  0  0  0  0
   -2.8530   -1.3750   -2.0200 N   0  0  0  0  0  0  0  0  0  0  0  0
   -3.7730   -1.8240   -3.0470 C   0  0  0  0  0  0  0  0  0  0  0  0
   -4.6740   -2.9330   -2.6360 C   0  0  0  0  0  0  0  0  0  0  0  0
   -5.1710   -2.6840   -1.2400 C   0  0  1  0  0  0  0  0  0  0  0  0
   -6.3430   -3.4680   -0.8110 C   0  0  0  0  0  0  0  0  0  0  0  0
   -6.2580   -4.9460   -0.8180 C   0  0  0  0  0  0  0  0  0  0  0  0
   -5.2700   -5.5520    0.0120 N   0  0  0  0  0  0  0  0  0  0  0  0
   -3.9910   -2.7620   -0.3130 C   0  0  0  0  0  0  0  0  0  0  0  0
   -3.0120   -1.6360   -0.6210 C   0  0  0  0  0  0  0  0  0  0  0  0
    0.5920    2.9180   -0.4360 C   0  0  0  0  0  0  0  0  0  0  0  0
  1  2  1  0
  2  3  2  0
  2  4  1  0
  4  5  2  0
  4 40  1  0
  5  6  1  0
  6  7  2  0
  7  8  1  0
  8  9  1  0
  8 40  2  0
 10  9  1  6
 10 11  1  0
 10 29  1  0
 12 11  1  6
 12 13  2  0
 12 14  2  0
 12 15  1  0
 15 16  2  0
 15 28  1  0
 16 17  1  0
 17 18  2  0
 18 19  1  0
 19 20  1  0
 19 28  2  0
 20 21  2  0
 20 26  1  0
 21 22  1  0
 22 23  2  0
 23 24  1  0
 23 25  1  0
 25 26  2  0
 26 27  1  0
 29 30  2  0
 29 31  1  0
 31 32  1  0
 31 39  1  0
 32 33  1  0
 33 34  1  0
 34 35  1  1
 34 38  1  0
 35 36  1  0
 36 37  1  0
 38 39  1  0
M  CHG  2   3   1  37   1
M  END
