
     RDKit          3D

 40 43  0  0  0  0  0  0  0  0999 V2000
   -5.5010   -1.2280   -1.7460 C   0  0  0  0  0  0  0  0  0  0  0  0
   -4.4540   -0.6520   -1.1800 C   0  0  0  0  0  0  0  0  0  0  0  0
   -3.9660    0.5560   -1.9130 C   0  0  0  0  0  0  0  0  0  0  0  0
   -2.6840    1.1140   -1.3150 C   0  0  1  0  0  0  0  0  0  0  0  0
   -2.7010    2.6150   -1.6130 C   0  0  0  0  0  0  0  0  0  0  0  0
   -2.6660    0.8280    0.1230 C   0  0  0  0  0  0  0  0  0  0  0  0
   -1.8550   -0.3120    0.5850 C   0  0  2  0  0  0  0  0  0  0  0  0
   -0.4410   -0.3810    0.1800 C   0  0  0  0  0  0  0  0  0  0  0  0
   -0.1230   -1.5250   -0.3870 O   0  0  0  0  0  0  0  0  0  0  0  0
    0.5940    0.5400    0.3030 N   0  0  0  0  0  0  0  0  0  0  0  0
    0.3650    1.8730    0.8160 C   0  0  0  0  0  0  0  0  0  0  0  0
    0.4610    1.8780    2.3130 C   0  0  0  0  0  0  0  0  0  0  0  0
    0.2160    3.2170    2.9010 C   0  0  0  0  0  0  0  0  0  0  0  0
   -1.0430    3.6930    3.2650 C   0  0  0  0  0  0  0  0  0  0  0  0
   -0.8600    4.9470    3.7610 C   0  0  0  0  0  0  0  0  0  0  0  0
    0.4770    5.2050    3.6930 C   0  0  0  0  0  0  0  0  0  0  0  0
    1.0750    4.1560    3.1790 O   0  0  0  0  0  0  0  0  0  0  0  0
    1.9320    0.2390   -0.0300 C   0  0  0  0  0  0  0  0  0  0  0  0
    2.8090    1.1880    0.1410 O   0  0  0  0  0  0  0  0  0  0  0  0
    2.4790   -0.9460   -0.5200 N   0  0  0  0  0  0  0  0  0  0  0  0
    3.8860   -1.0860   -0.7960 C   0  0  0  0  0  0  0  0  0  0  0  0
    4.3240   -0.8270   -2.0870 C   0  0  0  0  0  0  0  0  0  0  0  0
    3.3530   -0.4360   -3.1050 C   0  0  0  0  0  0  0  0  0  0  0  0
    3.6060   -0.1880   -4.2700 N   0  0  0  0  0  0  0  0  0  0  0  0
    4.5840   -0.0920   -5.2410 C   0  0  0  0  0  0  0  0  0  0  0  0
    5.6640   -0.9520   -2.3630 C   0  0  0  0  0  0  0  0  0  0  0  0
    6.5470   -1.3370   -1.3400 C   0  0  0  0  0  0  0  0  0  0  0  0
    6.0950   -1.5920   -0.0600 C   0  0  0  0  0  0  0  0  0  0  0  0
    4.7560   -1.4650    0.2140 C   0  0  0  0  0  0  0  0  0  0  0  0
    4.4720   -1.7760    1.6420 C   0  0  0  0  0  0  0  0  0  0  0  0
    5.7080   -2.5550    2.0570 C   0  0  0  0  0  0  0  0  0  0  0  0
    6.8130   -2.0110    1.1740 C   0  0  0  0  0  0  0  0  0  0  0  0
   -2.5650   -1.6460    0.3470 C   0  0  2  0  0  0  0  0  0  0  0  0
   -1.9560   -2.4780   -0.5420 O   0  0  0  0  0  0  0  0  0  0  0  0
   -3.9810   -1.2860    0.0390 C   0  0  0  0  0  0  0  0  0  0  0  0
   -4.8720   -1.4970    0.9800 C   0  0  0  0  0  0  0  0  0  0  0  0
   -6.2960   -1.1920    1.0270 C   0  0  0  0  0  0  0  0  0  0  0  0
   -7.2380   -2.6850    1.2200 S   0  0  1  0  0  0  0  0  0  0  0  0
   -6.2950   -3.8350    1.3570 O   0  0  0  0  0  0  0  0  0  0  0  0
   -8.1390   -2.6460    2.4230 O   0  0  0  0  0  0  0  0  0  0  0  0
  1  2  2  0
  2  3  1  0
  2 35  1  0
  3  4  1  0
  4  5  1  1
  4  6  1  0
  6  7  1  0
  7  8  1  6
  7 33  1  0
  8  9  2  0
  8 10  1  0
 10 11  1  0
 10 18  1  0
 11 12  1  0
 12 13  1  0
 13 14  2  0
 13 17  1  0
 14 15  1  0
 15 16  2  0
 16 17  1  0
 18 19  2  0
 18 20  1  0
 20 21  1  0
 21 22  2  0
 21 29  1  0
 22 23  1  0
 22 26  1  0
 23 24  2  3
 24 25  1  0
 26 27  2  0
 27 28  1  0
 28 29  2  0
 28 32  1  0
 29 30  1  0
 30 31  1  0
 31 32  1  0
 33 34  1  6
 33 35  1  0
 35 36  2  3
 36 37  1  0
 38 37  1  1
 38 39  2  0
 38 40  2  0
M  END
