
     RDKit          3D

 40 43  0  0  0  0  0  0  0  0999 V2000
    6.5830   -6.5910    0.1370 C   0  0  0  0  0  0  0  0  0  0  0  0
    5.7020   -6.4260    1.1870 O   0  0  0  0  0  0  0  0  0  0  0  0
    4.9720   -5.2570    1.1330 C   0  0  0  0  0  0  0  0  0  0  0  0
    4.1370   -5.1610   -0.0990 C   0  0  0  0  0  0  0  0  0  0  0  0
    3.4130   -3.9550   -0.0950 O   0  0  0  0  0  0  0  0  0  0  0  0
    3.9720   -2.7040   -0.1060 C   0  0  0  0  0  0  0  0  0  0  0  0
    5.2280   -2.6030   -0.1240 O   0  0  0  0  0  0  0  0  0  0  0  0
    3.1490   -1.4770   -0.0950 C   0  0  0  0  0  0  0  0  0  0  0  0
    3.7480   -0.2560   -0.1060 C   0  0  0  0  0  0  0  0  0  0  0  0
    2.9690    0.9120   -0.0930 C   0  0  0  0  0  0  0  0  0  0  0  0
    1.5910    0.8960   -0.0710 C   0  0  0  0  0  0  0  0  0  0  0  0
    0.8170    2.0870    0.0870 C   0  0  0  0  0  0  0  0  0  0  0  0
   -0.4270    1.9110    0.4110 O   0  0  0  0  0  0  0  0  0  0  0  0
    1.1780    3.4450   -0.0530 N   0  0  0  0  0  0  0  0  0  0  0  0
    2.3860    3.9650   -0.6740 C   0  0  0  0  0  0  0  0  0  0  0  0
    2.2580    5.3590   -1.2390 C   0  0  0  0  0  0  0  0  0  0  0  0
    0.8870    5.8410   -1.5190 C   0  0  0  0  0  0  0  0  0  0  0  0
    0.0960    5.6750   -0.2840 C   0  0  0  0  0  0  0  0  0  0  0  0
   -0.7620    6.6490    0.1490 C   0  0  0  0  0  0  0  0  0  0  0  0
   -0.9710    7.9280   -0.5590 C   0  0  0  0  0  0  0  0  0  0  0  0
   -1.4770    6.4120    1.3270 C   0  0  0  0  0  0  0  0  0  0  0  0
   -1.3060    5.2100    2.0260 C   0  0  0  0  0  0  0  0  0  0  0  0
   -2.0810    5.0210    3.2500 C   0  0  0  0  0  0  0  0  0  0  0  0
   -0.4300    4.2350    1.5690 C   0  0  0  0  0  0  0  0  0  0  0  0
    0.2740    4.4880    0.3940 C   0  0  0  0  0  0  0  0  0  0  0  0
    0.9860   -0.3700   -0.0640 C   0  0  0  0  0  0  0  0  0  0  0  0
   -0.4160   -0.5040   -0.1820 N   0  0  0  0  0  0  0  0  0  0  0  0
   -1.1670   -1.6450    0.1710 C   0  0  0  0  0  0  0  0  0  0  0  0
   -0.6250   -2.6520    0.6400 O   0  0  0  0  0  0  0  0  0  0  0  0
   -2.6440   -1.5800   -0.0470 C   0  0  0  0  0  0  0  0  0  0  0  0
   -3.3310   -2.8380    0.3620 C   0  0  2  0  0  0  0  0  0  0  0  0
   -2.8830   -4.0000   -0.3540 N   0  0  0  0  0  0  0  0  0  0  0  0
   -3.3500   -4.4500   -1.6140 C   0  0  0  0  0  0  0  0  0  0  0  0
   -2.8650   -5.5460   -1.9900 O   0  0  0  0  0  0  0  0  0  0  0  0
   -4.3200   -3.8410   -2.5690 C   0  0  0  0  0  0  0  0  0  0  0  0
   -5.7090   -4.1790   -2.0740 C   0  0  0  0  0  0  0  0  0  0  0  0
   -5.6630   -4.1520   -0.2560 S   0  0  0  0  0  0  0  0  0  0  0  0
   -4.8240   -2.6270    0.2470 C   0  0  1  0  0  0  0  0  0  0  0  0
   -5.3960   -2.2100    1.5820 C   0  0  0  0  0  0  0  0  0  0  0  0
    1.7790   -1.5280   -0.0750 C   0  0  0  0  0  0  0  0  0  0  0  0
  1  2  1  0
  2  3  1  0
  3  4  1  0
  4  5  1  0
  5  6  1  0
  6  7  2  0
  6  8  1  0
  8  9  2  0
  8 40  1  0
  9 10  1  0
 10 11  2  0
 11 12  1  0
 11 26  1  0
 12 13  2  0
 12 14  1  0
 14 15  1  0
 14 25  1  0
 15 16  1  0
 16 17  1  0
 17 18  1  0
 18 19  2  0
 18 25  1  0
 19 20  1  0
 19 21  1  0
 21 22  2  0
 22 23  1  0
 22 24  1  0
 24 25  2  0
 26 27  1  0
 26 40  2  0
 27 28  1  0
 28 29  2  0
 28 30  1  0
 31 30  1  6
 31 32  1  0
 31 38  1  0
 32 33  1  0
 33 34  2  0
 33 35  1  0
 35 36  1  0
 36 37  1  0
 37 38  1  0
 38 39  1  1
M  END
