
     RDKit          3D

 30 32  0  0  0  0  0  0  0  0999 V2000
    6.7390    0.1930    1.1790 C   0  0  0  0  0  0  0  0  0  0  0  0
    5.4880    0.9740    1.3630 C   0  0  0  0  0  0  0  0  0  0  0  0
    4.5270    0.9840    0.4460 C   0  0  0  0  0  0  0  0  0  0  0  0
    3.2680    1.7590    0.6130 C   0  0  0  0  0  0  0  0  0  0  0  0
    2.1160    0.7550    0.7040 C   0  0  0  0  0  0  0  0  0  0  0  0
    2.4090   -0.4540   -0.1150 C   0  0  1  0  0  0  0  0  0  0  0  0
    1.2830   -1.3200   -0.5290 C   0  0  2  0  0  0  0  0  0  0  0  0
    1.9900   -2.3700   -1.2580 O   0  0  0  0  0  0  0  0  0  0  0  0
    0.3540   -0.8340   -1.5620 C   0  0  0  0  0  0  0  0  0  0  0  0
   -0.4440    0.3810   -1.4150 C   0  0  0  0  0  0  0  0  0  0  0  0
   -1.3990    0.4570   -0.3050 C   0  0  0  0  0  0  0  0  0  0  0  0
   -2.7020    0.5920   -0.3830 C   0  0  0  0  0  0  0  0  0  0  0  0
   -3.4110    0.6890   -1.6550 C   0  0  0  0  0  0  0  0  0  0  0  0
   -4.4430    1.4870   -1.7460 C   0  0  0  0  0  0  0  0  0  0  0  0
   -5.1710    1.5860   -3.0520 C   0  0  0  0  0  0  0  0  0  0  0  0
   -4.8460    2.2580   -0.5520 C   0  0  0  0  0  0  0  0  0  0  0  0
   -4.7880    1.4330    0.7100 C   0  0  1  0  0  0  0  0  0  0  0  0
   -4.9640    2.4190    1.8730 C   0  0  0  0  0  0  0  0  0  0  0  0
   -6.0310    0.5540    0.7220 C   0  0  0  0  0  0  0  0  0  0  0  0
   -3.5260    0.6560    0.8540 C   0  0  1  0  0  0  0  0  0  0  0  0
   -3.7520   -0.7320    1.4110 C   0  0  0  0  0  0  0  0  0  0  0  0
   -2.7280    1.3330    1.8050 O   0  0  0  0  0  0  0  0  0  0  0  0
    0.6860   -2.0760    0.5970 C   0  0  0  0  0  0  0  0  0  0  0  0
    1.6720   -3.0080    1.2550 C   0  0  1  0  0  0  0  0  0  0  0  0
    1.2170   -3.8460    2.4110 C   0  0  0  0  0  0  0  0  0  0  0  0
    1.3160   -4.4920    1.0830 C   0  0  0  0  0  0  0  0  0  0  0  0
    3.2420   -0.0040   -1.3360 C   0  0  2  0  0  0  0  0  0  0  0  0
    3.2760   -0.9650   -2.3210 O   0  0  0  0  0  0  0  0  0  0  0  0
    4.6480    0.2120   -0.8210 C   0  0  1  0  0  0  0  0  0  0  0  0
    5.4620    0.9920   -1.8300 C   0  0  0  0  0  0  0  0  0  0  0  0
  1  2  1  0
  2  3  2  3
  3  4  1  0
  3 29  1  0
  4  5  1  0
  6  5  1  6
  6  7  1  0
  6 27  1  0
  7  8  1  6
  7  9  1  0
  7 23  1  0
  9 10  1  0
 10 11  1  0
 11 12  2  3
 12 13  1  0
 12 20  1  0
 13 14  2  0
 14 15  1  0
 14 16  1  0
 16 17  1  0
 17 18  1  1
 17 19  1  0
 17 20  1  0
 20 21  1  1
 20 22  1  0
 24 23  1  6
 24 25  1  0
 24 26  1  0
 25 26  1  0
 27 28  1  6
 27 29  1  0
 29 30  1  6
M  END
