
     RDKit          3D

 31 34  0  0  0  0  0  0  0  0999 V2000
    5.7550   -3.1730   -0.5790 C   0  0  0  0  0  0  0  0  0  0  0  0
    4.7640   -2.0330   -0.5380 C   0  0  1  0  0  0  0  0  0  0  0  0
    3.4890   -2.3800   -1.2760 C   0  0  0  0  0  0  0  0  0  0  0  0
    2.5130   -1.2560   -1.3310 C   0  0  0  0  0  0  0  0  0  0  0  0
    2.8710   -0.0720   -0.4570 C   0  0  1  0  0  0  0  0  0  0  0  0
    1.8650    1.0200   -0.6110 C   0  0  0  0  0  0  0  0  0  0  0  0
    2.2590    2.1230   -1.0230 O   0  0  0  0  0  0  0  0  0  0  0  0
    0.5090    0.8140   -0.3020 N   0  0  0  0  0  0  0  0  0  0  0  0
   -0.5300    1.7760   -0.4110 C   0  0  0  0  0  0  0  0  0  0  0  0
   -0.3980    3.0670   -0.8380 C   0  0  0  0  0  0  0  0  0  0  0  0
   -1.4500    3.9820   -0.9310 C   0  0  0  0  0  0  0  0  0  0  0  0
   -1.2490    5.2700   -1.3700 C   0  0  0  0  0  0  0  0  0  0  0  0
   -2.2890    6.1700   -1.4610 C   0  0  0  0  0  0  0  0  0  0  0  0
   -3.5610    5.7330   -1.0920 C   0  0  0  0  0  0  0  0  0  0  0  0
   -3.7450    4.4330   -0.6520 C   0  0  0  0  0  0  0  0  0  0  0  0
   -2.6950    3.5450   -0.5670 C   0  0  0  0  0  0  0  0  0  0  0  0
   -2.8940    2.2580   -0.1290 C   0  0  0  0  0  0  0  0  0  0  0  0
   -1.8340    1.3920   -0.0530 C   0  0  0  0  0  0  0  0  0  0  0  0
   -2.0320    0.0870    0.3910 O   0  0  0  0  0  0  0  0  0  0  0  0
   -3.3170   -0.3710    0.7690 C   0  0  0  0  0  0  0  0  0  0  0  0
   -3.2600   -1.7890    1.2030 C   0  0  0  0  0  0  0  0  0  0  0  0
   -3.6190   -2.1600    2.4190 C   0  0  0  0  0  0  0  0  0  0  0  0
   -3.5940   -3.5380    2.9280 C   0  0  0  0  0  0  0  0  0  0  0  0
   -3.1310   -4.4480    1.9530 O   0  0  0  0  0  0  0  0  0  0  0  0
   -2.7530   -4.0870    0.6870 C   0  0  0  0  0  0  0  0  0  0  0  0
   -2.8010   -2.8190    0.2890 C   0  0  0  0  0  0  0  0  0  0  0  0
   -2.2570   -2.4070   -1.4920 Br  0  0  0  0  0  0  0  0  0  0  0  0
    2.9590   -0.4750    1.0040 C   0  0  0  0  0  0  0  0  0  0  0  0
    4.3130   -1.6180    1.1290 S   0  0  1  0  0  0  0  0  0  0  0  0
    3.8060   -2.8870    1.7690 O   0  0  0  0  0  0  0  0  0  0  0  0
    5.4640   -1.0500    1.8940 O   0  0  0  0  0  0  0  0  0  0  0  0
  2  1  1  1
  2  3  1  0
  2 29  1  0
  3  4  1  0
  4  5  1  0
  5  6  1  1
  5 28  1  0
  6  7  2  0
  6  8  1  0
  8  9  1  0
  9 10  2  0
  9 18  1  0
 10 11  1  0
 11 12  2  0
 11 16  1  0
 12 13  1  0
 13 14  2  0
 14 15  1  0
 15 16  2  0
 16 17  1  0
 17 18  2  0
 18 19  1  0
 19 20  1  0
 20 21  1  0
 21 22  2  0
 21 26  1  0
 22 23  1  0
 23 24  1  0
 24 25  1  0
 25 26  2  0
 26 27  1  0
 29 28  1  6
 29 30  2  0
 29 31  2  0
M  END
