
     RDKit          3D

 29 33  0  0  0  0  0  0  0  0999 V2000
   -2.4760   -1.8040   -1.8590 C   0  0  0  0  0  0  0  0  0  0  0  0
   -2.4870   -1.9920   -0.3720 C   0  0  2  0  0  0  0  0  0  0  0  0
   -3.8890   -1.5820    0.1080 C   0  0  0  0  0  0  0  0  0  0  0  0
   -3.7140   -1.0180    1.3980 N   0  0  0  0  0  0  0  0  0  0  0  0
   -4.5440    0.0820    1.7440 C   0  0  0  0  0  0  0  0  0  0  0  0
   -4.3020    1.1960    0.7980 C   0  0  0  0  0  0  0  0  0  0  0  0
   -5.0800    1.3820   -0.2700 N   0  0  0  0  0  0  0  0  0  0  0  0
   -4.9170    2.3630   -1.1580 C   0  0  0  0  0  0  0  0  0  0  0  0
   -3.8820    3.2490   -0.9710 C   0  0  0  0  0  0  0  0  0  0  0  0
   -3.0390    3.0940    0.1350 C   0  0  0  0  0  0  0  0  0  0  0  0
   -3.2840    2.0870    0.9590 N   0  0  0  0  0  0  0  0  0  0  0  0
   -2.3300   -0.9060    1.7040 C   0  0  0  0  0  0  0  0  0  0  0  0
   -1.6620   -0.9470    0.3500 C   0  0  1  0  0  0  0  0  0  0  0  0
   -0.2350   -1.3560    0.4520 C   0  0  0  0  0  0  0  0  0  0  0  0
    0.7450   -0.5800   -0.0450 N   0  0  0  0  0  0  0  0  0  0  0  0
    2.0420   -0.9210    0.0320 C   0  0  0  0  0  0  0  0  0  0  0  0
    2.3070   -2.1360    0.6620 C   0  0  0  0  0  0  0  0  0  0  0  0
    3.6870   -2.2470    0.6090 C   0  0  0  0  0  0  0  0  0  0  0  0
    4.1990   -1.1700   -0.0120 N   0  0  0  0  0  0  0  0  0  0  0  0
    3.1980   -0.3520   -0.3690 N   0  0  0  0  0  0  0  0  0  0  0  0
    3.3390    0.9160   -1.0620 C   0  0  2  0  0  0  0  0  0  0  0  0
    4.4650    0.8610   -2.0810 C   0  0  0  0  0  0  0  0  0  0  0  0
    5.8030    0.6370   -1.4410 C   0  0  0  0  0  0  0  0  0  0  0  0
    5.8250    0.9550   -0.0860 O   0  0  0  0  0  0  0  0  0  0  0  0
    5.1360    2.1150    0.1910 C   0  0  0  0  0  0  0  0  0  0  0  0
    3.6710    2.0390   -0.1060 C   0  0  0  0  0  0  0  0  0  0  0  0
    1.2910   -2.9210    1.1670 C   0  0  0  0  0  0  0  0  0  0  0  0
    1.5530   -4.0160    1.7340 O   0  0  0  0  0  0  0  0  0  0  0  0
    0.0090   -2.5290    1.0620 N   0  0  0  0  0  0  0  0  0  0  0  0
  2  1  1  6
  2  3  1  0
  2 13  1  0
  3  4  1  0
  4  5  1  0
  4 12  1  0
  5  6  1  0
  6  7  2  0
  6 11  1  0
  7  8  1  0
  8  9  2  0
  9 10  1  0
 10 11  2  0
 12 13  1  0
 13 14  1  1
 14 15  2  0
 14 29  1  0
 15 16  1  0
 16 17  2  0
 16 20  1  0
 17 18  1  0
 17 27  1  0
 18 19  2  0
 19 20  1  0
 21 20  1  1
 21 22  1  0
 21 26  1  0
 22 23  1  0
 23 24  1  0
 24 25  1  0
 25 26  1  0
 27 28  2  0
 27 29  1  0
M  END
