
     RDKit          3D

 30 32  0  0  0  0  0  0  0  0999 V2000
    5.8870    1.5040    1.5690 C   0  0  0  0  0  0  0  0  0  0  0  0
    4.4460    1.8160    1.2250 C   0  0  0  0  0  0  0  0  0  0  0  0
    3.8570    0.6240    0.4660 C   0  0  0  0  0  0  0  0  0  0  0  0
    2.4020    0.9200    0.1100 C   0  0  0  0  0  0  0  0  0  0  0  0
    1.8170   -0.2280   -0.6910 C   0  0  1  0  0  0  0  0  0  0  0  0
    2.7220   -0.2040   -1.9700 C   0  0  0  0  0  0  0  0  0  0  0  0
    2.3130   -1.4450    0.0290 C   0  0  0  0  0  0  0  0  0  0  0  0
    1.8230   -2.7670   -0.4120 C   0  0  0  0  0  0  0  0  0  0  0  0
    0.5310   -3.0330    0.2540 C   0  0  0  0  0  0  0  0  0  0  0  0
   -0.1990   -1.7700    0.6730 C   0  0  0  0  0  0  0  0  0  0  0  0
   -0.6610   -0.9350   -0.4820 C   0  0  1  0  0  0  0  0  0  0  0  0
   -1.2330   -1.9280   -1.4800 C   0  0  0  0  0  0  0  0  0  0  0  0
   -1.7810   -1.4040   -2.7440 C   0  0  0  0  0  0  0  0  0  0  0  0
   -2.2680   -2.5590   -3.4320 O   0  0  0  0  0  0  0  0  0  0  0  0
   -1.7810   -0.0760    0.0330 C   0  0  1  0  0  0  0  0  0  0  0  0
   -2.7750   -0.6980    0.9450 C   0  0  0  0  0  0  0  0  0  0  0  0
   -3.6510   -1.8600    0.5760 C   0  0  0  0  0  0  0  0  0  0  0  0
   -4.4240   -1.5800   -0.7140 C   0  0  0  0  0  0  0  0  0  0  0  0
   -3.0570   -0.1920    2.1590 C   0  0  0  0  0  0  0  0  0  0  0  0
   -4.0660   -0.8900    3.0270 C   0  0  0  0  0  0  0  0  0  0  0  0
   -2.5010    1.0580    2.6640 C   0  0  0  0  0  0  0  0  0  0  0  0
   -1.6780    1.7240    1.8880 C   0  0  0  0  0  0  0  0  0  0  0  0
   -1.1640    2.9130    2.3770 O   0  0  0  0  0  0  0  0  0  0  0  0
   -1.3210    1.2380    0.5840 C   0  0  0  0  0  0  0  0  0  0  0  0
   -0.4900    1.9460   -0.1900 C   0  0  0  0  0  0  0  0  0  0  0  0
    0.0160    3.2560    0.2280 C   0  0  0  0  0  0  0  0  0  0  0  0
   -0.7620    4.4070   -0.4100 C   0  0  0  0  0  0  0  0  0  0  0  0
    0.0210    1.2810   -1.4540 C   0  0  2  0  0  0  0  0  0  0  0  0
   -0.8720    1.4150   -2.4760 O   0  0  0  0  0  0  0  0  0  0  0  0
    0.4460   -0.1450   -1.1380 C   0  0  1  0  0  0  0  0  0  0  0  0
  1  2  1  0
  2  3  1  0
  3  4  1  0
  4  5  1  0
  5  6  1  6
  5  7  1  0
  5 30  1  0
  7  8  1  0
  8  9  1  0
  9 10  1  0
 10 11  1  0
 11 12  1  6
 11 15  1  0
 11 30  1  0
 12 13  1  0
 13 14  1  0
 15 16  1  1
 15 24  1  0
 16 17  1  0
 16 19  2  0
 17 18  1  0
 19 20  1  0
 19 21  1  0
 21 22  2  0
 22 23  1  0
 22 24  1  0
 24 25  2  0
 25 26  1  0
 25 28  1  0
 26 27  1  0
 28 29  1  6
 30 28  1  1
M  END
