
     RDKit          3D

 31 34  0  0  0  0  0  0  0  0999 V2000
    0.9600    0.5890    4.1540 C   0  0  0  0  0  0  0  0  0  0  0  0
    0.0770    0.4900    2.9660 C   0  0  0  0  0  0  0  0  0  0  0  0
   -1.1430    0.6570    3.1680 O   0  0  0  0  0  0  0  0  0  0  0  0
    0.5330    0.2190    1.6160 C   0  0  0  0  0  0  0  0  0  0  0  0
    1.9390    0.0510    1.5160 C   0  0  0  0  0  0  0  0  0  0  0  0
    2.7410    0.1100    2.5470 O   0  0  0  0  0  0  0  0  0  0  0  0
    2.4640   -0.1910    0.2360 C   0  0  0  0  0  0  0  0  0  0  0  0
    3.8410   -0.3620    0.0970 O   0  0  0  0  0  0  0  0  0  0  0  0
    4.3970   -0.6020   -1.1580 C   0  0  0  0  0  0  0  0  0  0  0  0
    5.8880   -0.7320   -0.9840 C   0  0  0  0  0  0  0  0  0  0  0  0
    6.5490   -0.6370    0.1460 C   0  0  0  0  0  0  0  0  0  0  0  0
    7.9850   -0.8300   -0.1560 C   0  0  0  0  0  0  0  0  0  0  0  0
    7.9990   -1.0450   -1.6140 C   0  0  0  0  0  0  0  0  0  0  0  0
    6.8020   -0.9850   -2.0670 N   0  0  0  0  0  0  0  0  0  0  0  0
    1.6620   -0.2590   -0.8490 C   0  0  0  0  0  0  0  0  0  0  0  0
    0.2930   -0.0880   -0.7090 C   0  0  0  0  0  0  0  0  0  0  0  0
   -0.4780   -0.0800   -1.9240 C   0  0  0  0  0  0  0  0  0  0  0  0
    0.0860   -0.3380   -3.0300 O   0  0  0  0  0  0  0  0  0  0  0  0
   -0.2870    0.1490    0.5220 C   0  0  0  0  0  0  0  0  0  0  0  0
   -1.6450    0.3070    0.6310 O   0  0  0  0  0  0  0  0  0  0  0  0
   -2.6120   -0.6240    1.0010 C   0  0  1  0  0  0  0  0  0  0  0  0
   -3.8130    0.1100    1.5680 C   0  0  0  0  0  0  0  0  0  0  0  0
   -3.9650    1.3190    0.6390 C   0  0  0  0  0  0  0  0  0  0  0  0
   -4.6170    0.7440   -0.6080 C   0  0  0  0  0  0  0  0  0  0  0  0
   -4.1710   -0.5250   -0.9460 C   0  0  0  0  0  0  0  0  0  0  0  0
   -5.0470   -0.9000   -2.3380 S   0  0  0  0  0  0  0  0  0  0  0  0
   -6.0280    0.6490   -2.4850 C   0  0  0  0  0  0  0  0  0  0  0  0
   -7.0000    0.9530   -3.5080 C   0  0  0  0  0  0  0  0  0  0  0  0
   -5.5370    1.3190   -1.3750 C   0  0  0  0  0  0  0  0  0  0  0  0
   -6.2860    3.1130   -1.0570 Br  0  0  0  0  0  0  0  0  0  0  0  0
   -3.1750   -1.3200   -0.2320 C   0  0  0  0  0  0  0  0  0  0  0  0
  1  2  1  0
  2  3  2  0
  2  4  1  0
  4  5  2  0
  4 19  1  0
  5  6  1  0
  5  7  1  0
  7  8  1  0
  7 15  2  0
  8  9  1  0
  9 10  1  0
 10 11  2  0
 10 14  1  0
 11 12  1  0
 12 13  1  0
 13 14  2  0
 15 16  1  0
 16 17  1  0
 16 19  2  0
 17 18  2  0
 19 20  1  0
 21 20  1  6
 21 22  1  0
 21 31  1  0
 22 23  1  0
 23 24  1  0
 24 25  2  0
 24 29  1  0
 25 26  1  0
 25 31  1  0
 26 27  1  0
 27 28  1  0
 27 29  2  0
 29 30  1  0
M  END
