
     RDKit          3D

 30 32  0  0  0  0  0  0  0  0999 V2000
    2.8510   -4.3360    0.6260 C   0  0  0  0  0  0  0  0  0  0  0  0
    2.5270   -3.2970    1.7080 C   0  0  0  0  0  0  0  0  0  0  0  0
    3.2310   -2.0430    1.3500 C   0  0  2  0  0  0  0  0  0  0  0  0
    3.0380   -0.8910    2.2970 C   0  0  0  0  0  0  0  0  0  0  0  0
    1.5640   -0.5310    2.2570 C   0  0  0  0  0  0  0  0  0  0  0  0
    1.1260    0.2960    1.2310 N   0  0  0  0  0  0  0  0  0  0  0  0
    0.7150   -0.0520   -0.0390 C   0  0  2  0  0  0  0  0  0  0  0  0
    1.5630    0.8660   -0.9570 C   0  0  0  0  0  0  0  0  0  0  0  0
    1.5890    2.2990   -0.8410 C   0  0  2  0  0  0  0  0  0  0  0  0
    0.3770    3.1450   -1.0460 C   0  0  0  0  0  0  0  0  0  0  0  0
    0.7040    4.5890   -1.2160 C   0  0  0  0  0  0  0  0  0  0  0  0
    1.8950    5.0160   -1.4820 C   0  0  0  0  0  0  0  0  0  0  0  0
    3.0550    4.1210   -1.6420 C   0  0  0  0  0  0  0  0  0  0  0  0
    2.5640    2.7380   -1.9770 C   0  0  0  0  0  0  0  0  0  0  0  0
   -0.6980   -0.1380   -0.4620 C   0  0  1  0  0  0  0  0  0  0  0  0
   -0.8210   -0.8560   -1.8300 C   0  0  0  0  0  0  0  0  0  0  0  0
   -2.0270   -0.4860   -2.6040 C   0  0  0  0  0  0  0  0  0  0  0  0
   -2.6040    0.6930   -1.9780 C   0  0  0  0  0  0  0  0  0  0  0  0
   -3.0500    0.3250   -0.5780 C   0  0  1  0  0  0  0  0  0  0  0  0
   -3.7290    1.5510   -0.1610 C   0  0  0  0  0  0  0  0  0  0  0  0
   -3.9580   -0.7220   -0.9130 O   0  0  0  0  0  0  0  0  0  0  0  0
   -1.9270   -0.2320    0.3300 C   0  0  2  0  0  0  0  0  0  0  0  0
   -1.8750    0.7720    1.4620 C   0  0  0  0  0  0  0  0  0  0  0  0
   -2.9700    0.7770    2.3000 O   0  0  0  0  0  0  0  0  0  0  0  0
   -2.4560   -1.5150    0.8280 C   0  0  2  0  0  0  0  0  0  0  0  0
   -3.7860   -1.4210    1.5830 C   0  0  0  0  0  0  0  0  0  0  0  0
   -1.6320   -2.3290    1.8030 C   0  0  0  0  0  0  0  0  0  0  0  0
   -2.7060   -2.3760   -0.2380 O   0  0  0  0  0  0  0  0  0  0  0  0
    1.4100   -1.4230   -0.3070 C   0  0  0  0  0  0  0  0  0  0  0  0
    2.8480   -1.4900   -0.0240 C   0  0  0  0  0  0  0  0  0  0  0  0
  1  2  1  0
  3  2  1  1
  3  4  1  0
  3 30  1  0
  4  5  1  0
  5  6  1  0
  6  7  1  0
  7  8  1  6
  7 15  1  0
  7 29  1  0
  9  8  1  6
  9 10  1  0
  9 14  1  0
 10 11  1  0
 11 12  2  0
 12 13  1  0
 13 14  1  0
 15 16  1  6
 15 22  1  0
 16 17  1  0
 17 18  1  0
 18 19  1  0
 19 20  1  1
 19 21  1  0
 19 22  1  0
 22 23  1  1
 22 25  1  0
 23 24  1  0
 25 26  1  1
 25 27  1  0
 25 28  1  0
 29 30  1  0
M  END
