
     RDKit          3D

 31 33  0  0  0  0  0  0  0  0999 V2000
   -9.3640    2.1820    0.7090 C   0  0  0  0  0  0  0  0  0  0  0  0
   -7.9290    1.6730    0.8800 C   0  0  0  0  0  0  0  0  0  0  0  0
   -7.8980    0.1590    0.9270 C   0  0  0  0  0  0  0  0  0  0  0  0
   -6.5550   -0.2410    1.0820 O   0  0  0  0  0  0  0  0  0  0  0  0
   -5.5780    0.0130    0.1660 C   0  0  0  0  0  0  0  0  0  0  0  0
   -5.8650    0.6350   -0.8910 O   0  0  0  0  0  0  0  0  0  0  0  0
   -4.1950   -0.4340    0.4070 C   0  0  0  0  0  0  0  0  0  0  0  0
   -3.7400   -1.1290    1.5730 C   0  0  0  0  0  0  0  0  0  0  0  0
   -2.4450   -1.4400    1.5730 C   0  0  0  0  0  0  0  0  0  0  0  0
   -1.6480   -1.1190    0.5500 C   0  0  0  0  0  0  0  0  0  0  0  0
   -0.2280   -1.3340    0.3080 C   0  0  0  0  0  0  0  0  0  0  0  0
    0.2390   -1.6620   -0.8730 C   0  0  0  0  0  0  0  0  0  0  0  0
   -0.6940   -1.8280   -2.0190 C   0  0  0  0  0  0  0  0  0  0  0  0
   -0.1560   -2.7620   -3.0420 C   0  0  1  0  0  0  0  0  0  0  0  0
    0.0400   -2.0450   -4.2320 O   0  0  0  0  0  0  0  0  0  0  0  0
    1.0780   -3.4700   -2.6610 C   0  0  0  0  0  0  0  0  0  0  0  0
    1.2230   -4.7110   -2.9720 O   0  0  0  0  0  0  0  0  0  0  0  0
    2.0750   -2.8040   -1.9730 O   0  0  0  0  0  0  0  0  0  0  0  0
    1.6840   -1.8540   -1.0310 C   0  0  0  0  0  0  0  0  0  0  0  0
    2.5390   -1.1600   -0.3170 C   0  0  0  0  0  0  0  0  0  0  0  0
    3.9780   -1.4190   -0.5430 C   0  0  0  0  0  0  0  0  0  0  0  0
    4.8910   -0.7570    0.1440 C   0  0  0  0  0  0  0  0  0  0  0  0
    6.7260   -1.1200   -0.1760 Br  0  0  0  0  0  0  0  0  0  0  0  0
    4.5750    0.2240    1.1220 N   0  0  0  0  0  0  0  0  0  0  0  0
    4.7710    1.6270    0.9580 C   0  0  0  0  0  0  0  0  0  0  0  0
    6.2150    1.9910    0.9120 C   0  0  0  0  0  0  0  0  0  0  0  0
    6.8220    2.5860   -0.0980 C   0  0  0  0  0  0  0  0  0  0  0  0
    8.2760    2.7750    0.2530 C   0  0  0  0  0  0  0  0  0  0  0  0
    8.3810    2.1980    1.5940 C   0  0  0  0  0  0  0  0  0  0  0  0
    7.2000    1.7540    1.9610 C   0  0  0  0  0  0  0  0  0  0  0  0
   -2.7790   -0.2920   -0.5560 S   0  0  0  0  0  0  0  0  0  0  0  0
  1  2  1  0
  2  3  1  0
  3  4  1  0
  4  5  1  0
  5  6  2  0
  5  7  1  0
  7  8  2  0
  7 31  1  0
  8  9  1  0
  9 10  2  0
 10 11  1  0
 10 31  1  0
 11 12  2  3
 12 13  1  0
 12 19  1  0
 13 14  1  0
 14 15  1  6
 14 16  1  0
 16 17  2  0
 16 18  1  0
 18 19  1  0
 19 20  2  3
 20 21  1  0
 21 22  2  3
 22 23  1  0
 22 24  1  0
 24 25  1  0
 25 26  1  0
 26 27  2  0
 26 30  1  0
 27 28  1  0
 28 29  1  0
 29 30  2  0
M  END
