
     RDKit          3D

 19 20  0  0  0  0  0  0  0  0999 V2000
   -5.2090    0.1690    0.7350 C   0  0  0  0  0  0  0  0  0  0  0  0
   -4.9940   -0.9150   -0.2720 C   0  0  0  0  0  0  0  0  0  0  0  0
   -3.5920   -1.2520   -0.5830 C   0  0  0  0  0  0  0  0  0  0  0  0
   -2.7620   -0.2000   -1.2290 C   0  0  0  0  0  0  0  0  0  0  0  0
   -2.5810    1.0400   -0.5230 C   0  0  0  0  0  0  0  0  0  0  0  0
   -1.6240    1.6620    0.0090 C   0  0  0  0  0  0  0  0  0  0  0  0
   -0.2610    1.6180    0.2730 C   0  0  0  0  0  0  0  0  0  0  0  0
    0.7800    0.8740    0.1580 C   0  0  0  0  0  0  0  0  0  0  0  0
    2.4190    1.4950    0.7630 S   0  0  0  0  0  0  0  0  0  0  0  0
    3.3070   -0.0170    0.3400 C   0  0  0  0  0  0  0  0  0  0  0  0
    4.5720   -0.6040    0.3740 C   0  0  0  0  0  0  0  0  0  0  0  0
    5.7630    0.0150    0.8810 C   0  0  0  0  0  0  0  0  0  0  0  0
    5.7110    1.3890    1.4260 C   0  0  0  0  0  0  0  0  0  0  0  0
    6.8670   -0.5800    0.8790 O   0  0  0  0  0  0  0  0  0  0  0  0
    4.3810   -1.8540   -0.1740 C   0  0  0  0  0  0  0  0  0  0  0  0
    3.0510   -1.9420   -0.4950 C   0  0  0  0  0  0  0  0  0  0  0  0
    2.3880   -0.7780   -0.1660 N   0  0  0  0  0  0  0  0  0  0  0  0
    1.1400   -0.3510   -0.2610 C   0  0  0  0  0  0  0  0  0  0  0  0
    0.1950   -1.1100   -0.7650 O   0  0  0  0  0  0  0  0  0  0  0  0
  1  2  1  0
  2  3  1  0
  3  4  1  0
  4  5  1  0
  5  6  2  3
  6  7  1  0
  7  8  2  3
  8  9  1  0
  8 18  1  0
  9 10  1  0
 10 11  2  0
 10 17  1  0
 11 12  1  0
 11 15  1  0
 12 13  1  0
 12 14  2  0
 15 16  2  0
 16 17  1  0
 17 18  1  0
 18 19  2  0
M  END
