
     RDKit          3D

 19 20  0  0  0  0  0  0  0  0999 V2000
    4.6480   -2.2610    1.7710 C   0  0  0  0  0  0  0  0  0  0  0  0
    3.3930   -2.1910    0.9870 C   0  0  0  0  0  0  0  0  0  0  0  0
    2.8690   -0.9970    0.6590 C   0  0  0  0  0  0  0  0  0  0  0  0
    1.6420   -0.8930   -0.1070 C   0  0  0  0  0  0  0  0  0  0  0  0
    1.0720    0.2590   -0.4650 C   0  0  0  0  0  0  0  0  0  0  0  0
   -0.1810    0.2880   -1.2470 C   0  0  0  0  0  0  0  0  0  0  0  0
   -1.2900    0.9330   -0.6570 N   0  0  0  0  0  0  0  0  0  0  0  0
   -2.3600    0.0450   -0.3780 C   0  0  1  0  0  0  0  0  0  0  0  0
   -2.1840   -1.3940   -0.7180 C   0  0  0  0  0  0  0  0  0  0  0  0
   -3.4220   -2.0200   -0.0580 C   0  0  0  0  0  0  0  0  0  0  0  0
   -3.6810   -1.1470    1.1530 C   0  0  0  0  0  0  0  0  0  0  0  0
   -2.6730   -0.0180    1.1310 C   0  0  0  0  0  0  0  0  0  0  0  0
   -1.8880    2.3000   -1.5040 S   0  0  1  0  0  0  0  0  0  0  0  0
   -0.7810    3.6260   -1.6910 C   0  0  0  0  0  0  0  0  0  0  0  0
   -2.2710    1.8050   -2.8930 O   0  0  0  0  0  0  0  0  0  0  0  0
   -3.1520    2.7700   -0.8300 O   0  0  0  0  0  0  0  0  0  0  0  0
    1.7290    1.4730   -0.0560 C   0  0  0  0  0  0  0  0  0  0  0  0
    2.8590    1.4530    0.6510 C   0  0  0  0  0  0  0  0  0  0  0  0
    3.5600    0.2370    1.0910 C   0  0  0  0  0  0  0  0  0  0  0  0
  1  2  1  0
  2  3  2  3
  3  4  1  0
  3 19  1  0
  4  5  2  0
  5  6  1  0
  5 17  1  0
  6  7  1  0
  8  7  1  1
  7 13  1  0
  8  9  1  0
  8 12  1  0
  9 10  1  0
 10 11  1  0
 11 12  1  0
 13 14  1  6
 13 15  2  0
 13 16  2  0
 17 18  2  0
 18 19  1  0
M  END
