
     RDKit          3D

 19 20  0  0  0  0  0  0  0  0999 V2000
    6.7250   -0.1720    1.4470 C   0  0  0  0  0  0  0  0  0  0  0  0
    5.4170   -0.3190    0.7240 C   0  0  0  0  0  0  0  0  0  0  0  0
    5.0790    0.8300   -0.1290 C   0  0  0  0  0  0  0  0  0  0  0  0
    5.8150    1.7830   -0.1930 O   0  0  0  0  0  0  0  0  0  0  0  0
    3.8110    0.7770   -0.9010 C   0  0  0  0  0  0  0  0  0  0  0  0
    2.4310    0.6760    0.2610 S   0  0  0  0  0  0  0  0  0  0  0  0
    0.9030    0.6100   -0.6680 C   0  0  0  0  0  0  0  0  0  0  0  0
   -0.2390    0.5150   -0.0580 N   0  0  0  0  0  0  0  0  0  0  0  0
   -1.5010    0.4560   -0.6860 C   0  0  0  0  0  0  0  0  0  0  0  0
   -2.7010    0.3400    0.1360 C   0  0  2  0  0  0  0  0  0  0  0  0
   -2.6020   -0.8220    1.0920 C   0  0  0  0  0  0  0  0  0  0  0  0
   -3.5290   -0.4920    2.2570 C   0  0  0  0  0  0  0  0  0  0  0  0
   -4.8430   -0.0640    1.7100 C   0  0  0  0  0  0  0  0  0  0  0  0
   -5.0840   -0.3550    0.2690 C   0  0  0  0  0  0  0  0  0  0  0  0
   -3.9910    0.2540   -0.6220 C   0  0  0  0  0  0  0  0  0  0  0  0
   -1.5170    0.5010   -2.0190 C   0  0  0  0  0  0  0  0  0  0  0  0
   -0.3080    0.6070   -2.8070 C   0  0  0  0  0  0  0  0  0  0  0  0
   -0.3700    0.6560   -4.0610 O   0  0  0  0  0  0  0  0  0  0  0  0
    0.9990    0.6590   -2.1460 C   0  0  0  0  0  0  0  0  0  0  0  0
  1  2  1  0
  2  3  1  0
  3  4  2  0
  3  5  1  0
  5  6  1  0
  6  7  1  0
  7  8  2  0
  7 19  1  0
  8  9  1  0
 10  9  1  6
  9 16  2  0
 10 11  1  0
 10 15  1  0
 11 12  1  0
 12 13  1  0
 13 14  1  0
 14 15  1  0
 16 17  1  0
 17 18  2  0
 17 19  1  0
M  END
