
     RDKit          3D

 19 19  0  0  0  0  0  0  0  0999 V2000
   -3.8470   -2.2640    1.5780 C   0  0  0  0  0  0  0  0  0  0  0  0
   -2.7650   -1.3600    1.0910 C   0  0  0  0  0  0  0  0  0  0  0  0
   -2.9820   -0.6810   -0.0330 C   0  0  0  0  0  0  0  0  0  0  0  0
   -4.3260   -0.9010   -0.7160 C   0  0  0  0  0  0  0  0  0  0  0  0
   -4.4840    0.7360   -1.4790 S   0  0  0  0  0  0  0  0  0  0  0  0
   -2.7380    1.0780   -1.5670 C   0  0  0  0  0  0  0  0  0  0  0  0
   -2.1480    2.1320   -2.4300 C   0  0  0  0  0  0  0  0  0  0  0  0
   -2.1430    0.2340   -0.7430 C   0  0  0  0  0  0  0  0  0  0  0  0
   -0.6370    0.2800   -0.6490 C   0  0  0  0  0  0  0  0  0  0  0  0
   -0.1110    0.8730    0.5990 C   0  0  0  0  0  0  0  0  0  0  0  0
    1.3420    0.9130    0.6500 N   0  0  0  0  0  0  0  0  0  0  0  0
    2.1720   -0.1270    1.2110 C   0  0  0  0  0  0  0  0  0  0  0  0
    2.6120   -1.1700    0.2390 C   0  0  0  0  0  0  0  0  0  0  0  0
    3.4800   -2.1780    0.9960 C   0  0  0  0  0  0  0  0  0  0  0  0
    3.9660   -3.2710    0.0720 C   0  0  0  0  0  0  0  0  0  0  0  0
    1.9880    2.0630    0.1230 C   0  0  0  0  0  0  0  0  0  0  0  0
    3.2450    2.1920    0.1220 O   0  0  0  0  0  0  0  0  0  0  0  0
    1.2760    3.1300   -0.4290 O   0  0  0  0  0  0  0  0  0  0  0  0
    1.9430    4.2750   -0.9520 C   0  0  0  0  0  0  0  0  0  0  0  0
  1  2  1  0
  2  3  2  3
  3  4  1  0
  3  8  1  0
  4  5  1  0
  5  6  1  0
  6  7  1  0
  6  8  2  0
  8  9  1  0
  9 10  1  0
 10 11  1  0
 11 12  1  0
 11 16  1  0
 12 13  1  0
 13 14  1  0
 14 15  1  0
 16 17  2  0
 16 18  1  0
 18 19  1  0
M  END
