
     RDKit          3D

 24 25  0  0  0  0  0  0  0  0999 V2000
   -1.8770    5.2310   -1.0970 C   0  0  0  0  0  0  0  0  0  0  0  0
   -2.1460    3.7890   -0.8350 C   0  0  0  0  0  0  0  0  0  0  0  0
   -1.3270    2.8020   -1.1160 C   0  0  0  0  0  0  0  0  0  0  0  0
   -0.0190    2.9170   -1.7270 C   0  0  0  0  0  0  0  0  0  0  0  0
    0.9900    1.9020   -1.3940 C   0  0  0  0  0  0  0  0  0  0  0  0
    0.6760    0.8050   -0.4640 C   0  0  1  0  0  0  0  0  0  0  0  0
    1.5430    0.7660    0.6700 N   0  0  0  0  0  0  0  0  0  0  0  0
    2.8180    0.2030    0.5960 C   0  0  1  0  0  0  0  0  0  0  0  0
    2.8820   -1.2240    1.1680 C   0  0  0  0  0  0  0  0  0  0  0  0
    3.1810   -2.2270    0.0460 C   0  0  0  0  0  0  0  0  0  0  0  0
    4.6460   -2.0470   -0.3300 C   0  0  2  0  0  0  0  0  0  0  0  0
    5.5660   -2.6990    0.6750 C   0  0  0  0  0  0  0  0  0  0  0  0
    4.8990   -0.5660   -0.3480 C   0  0  0  0  0  0  0  0  0  0  0  0
    3.5890    0.1940   -0.6600 C   0  0  0  0  0  0  0  0  0  0  0  0
   -0.7360    0.8880    0.1420 C   0  0  2  0  0  0  0  0  0  0  0  0
   -1.1260   -0.4640    1.1610 S   0  0  0  0  0  0  0  0  0  0  0  0
   -2.7770   -0.6080    1.7400 C   0  0  0  0  0  0  0  0  0  0  0  0
   -3.7760   -1.3680    0.9560 C   0  0  0  0  0  0  0  0  0  0  0  0
   -4.3110   -2.4340    1.6120 C   0  0  0  0  0  0  0  0  0  0  0  0
   -5.3140   -3.3750    1.1240 C   0  0  0  0  0  0  0  0  0  0  0  0
   -4.7420   -4.6670    1.1430 O   0  0  0  0  0  0  0  0  0  0  0  0
   -4.1550   -1.0600   -0.4160 C   0  0  0  0  0  0  0  0  0  0  0  0
   -4.7420    0.1600   -0.6390 O   0  0  0  0  0  0  0  0  0  0  0  0
   -1.7790    1.4000   -0.7620 C   0  0  0  0  0  0  0  0  0  0  0  0
  1  2  1  0
  2  3  2  3
  3  4  1  0
  3 24  1  0
  4  5  1  0
  5  6  1  0
  6  7  1  1
  6 15  1  0
  8  7  1  6
  8  9  1  0
  8 14  1  0
  9 10  1  0
 10 11  1  0
 11 12  1  1
 11 13  1  0
 13 14  1  0
 15 16  1  6
 15 24  1  0
 16 17  1  0
 17 18  1  0
 18 19  2  3
 18 22  1  0
 19 20  1  0
 20 21  1  0
 22 23  1  0
M  CHG  1   7   1
M  END
