
     RDKit          3D

 19 19  0  0  0  0  0  0  0  0999 V2000
    1.6460    2.5430   -1.4030 C   0  0  0  0  0  0  0  0  0  0  0  0
    2.3380    1.9690   -0.4690 C   0  0  0  0  0  0  0  0  0  0  0  0
    1.9410    1.0570    0.5630 C   0  0  0  0  0  0  0  0  0  0  0  0
    2.9690    0.7030    1.4030 C   0  0  0  0  0  0  0  0  0  0  0  0
    4.3310    1.2350    1.2220 C   0  0  0  0  0  0  0  0  0  0  0  0
    0.6620    0.4810    0.8990 C   0  0  0  0  0  0  0  0  0  0  0  0
    0.0120   -0.5160    0.0290 C   0  0  2  0  0  0  0  0  0  0  0  0
   -1.2520   -1.0060    0.5590 N   0  0  0  0  0  0  0  0  0  0  0  0
   -1.0760   -1.7980    1.7720 C   0  0  0  0  0  0  0  0  0  0  0  0
   -2.3700    0.2110    0.9870 S   0  0  1  0  0  0  0  0  0  0  0  0
   -3.6130   -0.5380    1.4780 O   0  0  0  0  0  0  0  0  0  0  0  0
   -1.9230    0.9820    2.2190 O   0  0  0  0  0  0  0  0  0  0  0  0
   -2.9280    1.2760   -0.2700 C   0  0  0  0  0  0  0  0  0  0  0  0
   -3.9350    2.2330    0.4210 C   0  0  0  0  0  0  0  0  0  0  0  0
    0.9890   -1.7360    0.0170 C   0  0  0  0  0  0  0  0  0  0  0  0
    0.8750   -2.5710   -1.1950 C   0  0  0  0  0  0  0  0  0  0  0  0
   -0.4630   -2.6620   -1.8180 C   0  0  0  0  0  0  0  0  0  0  0  0
   -1.1970   -1.3610   -1.8940 C   0  0  0  0  0  0  0  0  0  0  0  0
   -0.2170   -0.2640   -1.4090 C   0  0  0  0  0  0  0  0  0  0  0  0
  1  2  2  0
  2  3  1  0
  3  4  2  3
  3  6  1  0
  4  5  1  0
  7  6  1  1
  7  8  1  0
  7 15  1  0
  7 19  1  0
  8  9  1  0
  8 10  1  0
 10 11  2  0
 10 12  2  0
 10 13  1  6
 13 14  1  0
 15 16  1  0
 16 17  1  0
 17 18  1  0
 18 19  1  0
M  END
