
     RDKit          3D

 19 20  0  0  0  0  0  0  0  0999 V2000
    0.4030    1.5500   -2.9710 C   0  0  0  0  0  0  0  0  0  0  0  0
   -0.7230    0.9910   -2.5700 C   0  0  0  0  0  0  0  0  0  0  0  0
   -1.1290    0.9660   -1.1540 C   0  0  0  0  0  0  0  0  0  0  0  0
   -1.2980   -0.3710   -0.6270 N   0  0  0  0  0  0  0  0  0  0  0  0
   -2.5900   -1.0460   -0.6770 C   0  0  0  0  0  0  0  0  0  0  0  0
   -3.3080   -0.7000    0.5850 C   0  0  0  0  0  0  0  0  0  0  0  0
   -4.1310    0.3940    0.7090 C   0  0  0  0  0  0  0  0  0  0  0  0
   -4.6060    0.3790    2.0090 C   0  0  0  0  0  0  0  0  0  0  0  0
   -4.0510   -0.7210    2.6120 C   0  0  0  0  0  0  0  0  0  0  0  0
   -3.2910   -1.3310    1.7370 O   0  0  0  0  0  0  0  0  0  0  0  0
   -0.2110   -1.0420   -0.0540 C   0  0  0  0  0  0  0  0  0  0  0  0
   -0.3790   -2.1960    0.4130 O   0  0  0  0  0  0  0  0  0  0  0  0
    1.0980   -0.4260    0.0030 C   0  0  0  0  0  0  0  0  0  0  0  0
    2.1080   -1.0820    0.5530 C   0  0  0  0  0  0  0  0  0  0  0  0
    3.4020   -0.4320    0.5930 C   0  0  0  0  0  0  0  0  0  0  0  0
    4.5980   -0.8930    1.1020 C   0  0  0  0  0  0  0  0  0  0  0  0
    5.6530   -0.0920    1.0130 C   0  0  0  0  0  0  0  0  0  0  0  0
    5.5230    1.1440    0.4290 C   0  0  0  0  0  0  0  0  0  0  0  0
    3.7560    1.1610   -0.0280 S   0  0  0  0  0  0  0  0  0  0  0  0
  1  2  2  0
  2  3  1  0
  3  4  1  0
  4  5  1  0
  4 11  1  0
  5  6  1  0
  6  7  2  0
  6 10  1  0
  7  8  1  0
  8  9  2  0
  9 10  1  0
 11 12  2  0
 11 13  1  0
 13 14  2  3
 14 15  1  0
 15 16  2  0
 15 19  1  0
 16 17  1  0
 17 18  2  0
 18 19  1  0
M  END
