
     RDKit          3D

 26 28  0  0  0  0  0  0  0  0999 V2000
   -2.7690   -3.1430    1.1280 C   0  0  0  0  0  0  0  0  0  0  0  0
   -3.7270   -2.1370    0.5820 C   0  0  0  0  0  0  0  0  0  0  0  0
   -3.1740   -0.7250    0.5730 C   0  0  1  0  0  0  0  0  0  0  0  0
   -2.8410   -0.3340    1.9950 C   0  0  0  0  0  0  0  0  0  0  0  0
   -1.9050   -0.6480   -0.2680 C   0  0  0  0  0  0  0  0  0  0  0  0
   -1.5040    0.7690   -0.3850 C   0  0  0  0  0  0  0  0  0  0  0  0
   -2.4090    1.8090   -0.2850 C   0  0  0  0  0  0  0  0  0  0  0  0
   -1.7350    2.9620   -0.4340 N   0  0  0  0  0  0  0  0  0  0  0  0
   -0.4150    2.6820   -0.6270 C   0  0  0  0  0  0  0  0  0  0  0  0
    0.7010    3.4660   -0.8300 C   0  0  0  0  0  0  0  0  0  0  0  0
    1.9210    2.8850   -0.9960 C   0  0  0  0  0  0  0  0  0  0  0  0
    2.1300    1.5050   -0.9750 C   0  0  0  0  0  0  0  0  0  0  0  0
    3.4490    0.9930   -1.1700 N   0  0  0  0  0  0  0  0  0  0  0  0
    3.8630   -0.3350   -0.9930 C   0  0  0  0  0  0  0  0  0  0  0  0
    3.0490   -1.2020   -0.6270 O   0  0  0  0  0  0  0  0  0  0  0  0
    5.2990   -0.7530   -1.2390 C   0  0  0  0  0  0  0  0  0  0  0  0
    5.4920   -2.1710   -0.9910 C   0  0  0  0  0  0  0  0  0  0  0  0
    6.3160   -2.6540   -0.1040 C   0  0  0  0  0  0  0  0  0  0  0  0
    7.2030   -1.9220    0.8140 C   0  0  0  0  0  0  0  0  0  0  0  0
    8.9100   -2.3930    0.4890 Cl  0  0  0  0  0  0  0  0  0  0  0  0
    1.0150    0.7320   -0.7730 C   0  0  0  0  0  0  0  0  0  0  0  0
   -0.2400    1.3180   -0.6020 C   0  0  0  0  0  0  0  0  0  0  0  0
   -3.8590    1.6100   -0.0530 C   0  0  2  0  0  0  0  0  0  0  0  0
   -4.2530    2.3150    1.1660 N   0  0  0  0  0  0  0  0  0  0  0  0
   -4.2300    0.1650   -0.0330 C   0  0  1  0  0  0  0  0  0  0  0  0
   -4.4200   -0.2680   -1.3490 O   0  0  0  0  0  0  0  0  0  0  0  0
  1  2  1  0
  2  3  1  0
  3  4  1  1
  3  5  1  0
  3 25  1  0
  5  6  1  0
  6  7  2  0
  6 22  1  0
  7  8  1  0
  7 23  1  0
  8  9  1  0
  9 10  2  0
  9 22  1  0
 10 11  1  0
 11 12  2  0
 12 13  1  0
 12 21  1  0
 13 14  1  0
 14 15  2  0
 14 16  1  0
 16 17  1  0
 17 18  2  3
 18 19  1  0
 19 20  1  0
 21 22  2  0
 23 24  1  1
 23 25  1  0
 25 26  1  6
M  CHG  1  24   1
M  END
