
     RDKit          3D

 26 27  0  0  0  0  0  0  0  0999 V2000
   -1.1560    3.6010   -2.2620 C   0  0  0  0  0  0  0  0  0  0  0  0
   -0.6090    3.0500   -0.9870 C   0  0  0  0  0  0  0  0  0  0  0  0
   -0.6870    1.5830   -0.8770 C   0  0  0  0  0  0  0  0  0  0  0  0
    0.4470    0.7840   -1.0860 C   0  0  0  0  0  0  0  0  0  0  0  0
    0.3640   -0.5870   -0.9900 C   0  0  0  0  0  0  0  0  0  0  0  0
    1.4910   -1.3900   -1.1960 N   0  0  0  0  0  0  0  0  0  0  0  0
    2.7860   -0.8940   -1.5090 C   0  0  0  0  0  0  0  0  0  0  0  0
    3.1240   -0.5890   -3.1700 Cl  0  0  0  0  0  0  0  0  0  0  0  0
    3.6340   -0.6970   -0.5540 C   0  0  0  0  0  0  0  0  0  0  0  0
    3.2390   -0.9930    0.8560 C   0  0  0  0  0  0  0  0  0  0  0  0
    2.0730   -1.4280    1.0260 O   0  0  0  0  0  0  0  0  0  0  0  0
    4.1560   -0.7880    1.9620 C   0  0  0  0  0  0  0  0  0  0  0  0
    3.7430   -1.0800    3.2750 N   0  0  0  0  0  0  0  0  0  0  0  0
    5.3220   -0.3410    1.6810 N   0  0  0  0  0  0  0  0  0  0  0  0
    5.7510   -0.0430    0.3710 C   0  0  0  0  0  0  0  0  0  0  0  0
    4.9780   -0.1990   -0.7210 C   0  0  0  0  0  0  0  0  0  0  0  0
    5.5030    0.1370   -2.0570 C   0  0  0  0  0  0  0  0  0  0  0  0
   -0.8550   -1.1560   -0.6850 C   0  0  0  0  0  0  0  0  0  0  0  0
   -1.9840   -0.3910   -0.4760 C   0  0  0  0  0  0  0  0  0  0  0  0
   -3.1650   -0.9820   -0.1790 O   0  0  0  0  0  0  0  0  0  0  0  0
   -3.7020   -1.3140    1.0570 C   0  0  2  0  0  0  0  0  0  0  0  0
   -3.9140   -0.1780    2.0040 C   0  0  0  0  0  0  0  0  0  0  0  0
   -2.8940   -2.3780    1.8050 C   0  0  0  0  0  0  0  0  0  0  0  0
   -5.0590   -1.9800    0.7900 C   0  0  0  0  0  0  0  0  0  0  0  0
   -1.8980    0.9830   -0.5730 C   0  0  0  0  0  0  0  0  0  0  0  0
   -3.0270    1.8200   -0.3630 N   0  0  0  0  0  0  0  0  0  0  0  0
  1  2  1  0
  2  3  1  0
  3  4  2  0
  3 25  1  0
  4  5  1  0
  5  6  1  0
  5 18  2  0
  6  7  1  0
  7  8  1  0
  7  9  2  3
  9 10  1  0
  9 16  1  0
 10 11  2  0
 10 12  1  0
 12 13  1  0
 12 14  2  0
 14 15  1  0
 15 16  2  0
 16 17  1  0
 18 19  1  0
 19 20  1  0
 19 25  2  0
 20 21  1  0
 21 22  1  1
 21 23  1  0
 21 24  1  0
 25 26  1  0
M  CHG  1  26   1
M  END
