
     RDKit          3D

 24 26  0  0  0  0  0  0  0  0999 V2000
    6.9620    0.6000    1.4630 C   0  0  0  0  0  0  0  0  0  0  0  0
    7.1950   -0.4310    0.4040 C   0  0  0  0  0  0  0  0  0  0  0  0
    8.1630   -1.5100    0.6920 C   0  0  0  0  0  0  0  0  0  0  0  0
    6.5590   -0.3860   -0.7580 C   0  0  0  0  0  0  0  0  0  0  0  0
    5.5840    0.6510   -1.1190 C   0  0  0  0  0  0  0  0  0  0  0  0
    4.2420    0.0770   -1.4130 C   0  0  0  0  0  0  0  0  0  0  0  0
    3.6180   -0.6280   -0.2760 C   0  0  0  0  0  0  0  0  0  0  0  0
    4.2910   -1.8650    0.3040 C   0  0  0  0  0  0  0  0  0  0  0  0
    2.4820   -0.2170    0.2330 C   0  0  0  0  0  0  0  0  0  0  0  0
    1.7330    0.9330   -0.2390 C   0  0  0  0  0  0  0  0  0  0  0  0
    0.4060    0.4690   -0.6980 N   0  0  0  0  0  0  0  0  0  0  0  0
   -0.0550   -0.5090    0.2300 C   0  0  0  0  0  0  0  0  0  0  0  0
   -1.5300   -0.8380    0.0650 C   0  0  0  0  0  0  0  0  0  0  0  0
   -2.2800    0.3490    0.2640 N   0  0  0  0  0  0  0  0  0  0  0  0
   -3.6780    0.1920    0.4780 C   0  0  1  0  0  0  0  0  0  0  0  0
   -4.3950    1.5120    0.2860 C   0  0  2  0  0  0  0  0  0  0  0  0
   -5.7770    1.3590    0.8960 C   0  0  0  0  0  0  0  0  0  0  0  0
   -6.4950    0.2250    0.2020 C   0  0  1  0  0  0  0  0  0  0  0  0
   -6.6850    0.6100   -1.2390 C   0  0  0  0  0  0  0  0  0  0  0  0
   -5.3100    0.7910   -1.8500 C   0  0  1  0  0  0  0  0  0  0  0  0
   -4.5380    1.8780   -1.1750 C   0  0  0  0  0  0  0  0  0  0  0  0
   -4.6080   -0.5470   -1.7430 C   0  0  0  0  0  0  0  0  0  0  0  0
   -4.3390   -0.8900   -0.3180 C   0  0  2  0  0  0  0  0  0  0  0  0
   -5.7110   -1.0810    0.3350 C   0  0  0  0  0  0  0  0  0  0  0  0
  1  2  1  0
  2  3  1  0
  2  4  2  3
  4  5  1  0
  5  6  1  0
  6  7  1  0
  7  8  1  0
  7  9  2  3
  9 10  1  0
 10 11  1  0
 11 12  1  0
 12 13  1  0
 13 14  1  0
 15 14  1  6
 15 16  1  0
 15 23  1  0
 16 17  1  6
 16 21  1  0
 17 18  1  0
 18 19  1  6
 18 24  1  0
 20 19  1  1
 20 21  1  0
 20 22  1  0
 23 22  1  6
 23 24  1  0
M  CHG  2  11   1  14   1
M  END
