
     RDKit          3D

 26 28  0  0  0  0  0  0  0  0999 V2000
    6.5910   -0.5760   -0.5540 N   0  0  0  0  0  0  0  0  0  0  0  0
    5.7770   -0.2360    0.6280 C   0  0  0  0  0  0  0  0  0  0  0  0
    4.3500   -0.0550    0.3170 C   0  0  0  0  0  0  0  0  0  0  0  0
    3.5670   -1.1420    0.0690 C   0  0  0  0  0  0  0  0  0  0  0  0
    2.2000   -1.0050   -0.1150 C   0  0  0  0  0  0  0  0  0  0  0  0
    1.5970    0.2400   -0.0560 C   0  0  0  0  0  0  0  0  0  0  0  0
    0.2060    0.3680   -0.3230 N   0  0  0  0  0  0  0  0  0  0  0  0
   -0.8020   -0.5310    0.1380 C   0  0  0  0  0  0  0  0  0  0  0  0
   -0.5480   -1.4930    0.8270 O   0  0  0  0  0  0  0  0  0  0  0  0
   -2.2330   -0.2040   -0.3140 C   0  0  0  0  0  0  0  0  0  0  0  0
   -2.4560    0.9530   -0.7080 C   0  0  0  0  0  0  0  0  0  0  0  0
   -3.4490    1.7190   -1.2940 N   0  0  0  0  0  0  0  0  0  0  0  0
   -3.8360    3.0470   -1.1430 C   0  0  0  0  0  0  0  0  0  0  0  0
   -3.1890    3.8150   -0.2920 C   0  0  0  0  0  0  0  0  0  0  0  0
   -2.1040    3.1750    0.4420 C   0  0  0  0  0  0  0  0  0  0  0  0
   -1.7340    1.9520    0.3270 C   0  0  0  0  0  0  0  0  0  0  0  0
   -0.8120    1.2680    1.6530 Cl  0  0  0  0  0  0  0  0  0  0  0  0
   -3.1170   -1.3610   -0.1210 C   0  0  0  0  0  0  0  0  0  0  0  0
   -4.2330   -1.2330    0.6860 C   0  0  0  0  0  0  0  0  0  0  0  0
   -4.9710   -2.3980    0.8830 C   0  0  0  0  0  0  0  0  0  0  0  0
   -4.6640   -3.6200    0.3480 C   0  0  0  0  0  0  0  0  0  0  0  0
   -3.5500   -3.7420   -0.4620 C   0  0  0  0  0  0  0  0  0  0  0  0
   -2.7730   -2.5830   -0.6850 C   0  0  0  0  0  0  0  0  0  0  0  0
    2.4360    1.3340    0.2000 C   0  0  0  0  0  0  0  0  0  0  0  0
    3.7790    1.2180    0.3900 C   0  0  0  0  0  0  0  0  0  0  0  0
    4.6310    2.3070    0.6410 O   0  0  0  0  0  0  0  0  0  0  0  0
  1  2  1  0
  2  3  1  0
  3  4  2  0
  3 25  1  0
  4  5  1  0
  5  6  2  0
  6  7  1  0
  6 24  1  0
  7  8  1  0
  8  9  2  0
  8 10  1  0
 10 11  2  3
 10 18  1  0
 11 12  1  0
 11 16  1  0
 12 13  1  0
 13 14  2  0
 14 15  1  0
 15 16  2  0
 16 17  1  0
 18 19  2  0
 18 23  1  0
 19 20  1  0
 20 21  2  0
 21 22  1  0
 22 23  2  0
 24 25  2  0
 25 26  1  0
M  CHG  1   1   1
M  END
