
     RDKit          3D

 26 28  0  0  0  0  0  0  0  0999 V2000
   -3.1260   -0.0950    2.2810 C   0  0  0  0  0  0  0  0  0  0  0  0
   -2.2850   -0.6790    1.3240 O   0  0  0  0  0  0  0  0  0  0  0  0
   -2.1170   -0.1080    0.0850 C   0  0  0  0  0  0  0  0  0  0  0  0
   -2.7960    1.0570   -0.2010 C   0  0  0  0  0  0  0  0  0  0  0  0
   -2.6770    1.6850   -1.4190 C   0  0  0  0  0  0  0  0  0  0  0  0
   -3.4100    2.9360   -1.7190 C   0  0  0  0  0  0  0  0  0  0  0  0
   -1.8430    1.0850   -2.3370 C   0  0  0  0  0  0  0  0  0  0  0  0
   -1.1530   -0.0930   -2.0560 C   0  0  0  0  0  0  0  0  0  0  0  0
   -1.2750   -0.7010   -0.8600 C   0  0  0  0  0  0  0  0  0  0  0  0
   -0.6260   -1.9750   -0.5040 C   0  0  1  0  0  0  0  0  0  0  0  0
   -0.0870   -2.7140   -1.5910 N   0  0  0  0  0  0  0  0  0  0  0  0
    0.2000   -1.9400    0.7200 C   0  0  0  0  0  0  0  0  0  0  0  0
   -0.0790   -2.7690    1.8330 C   0  0  0  0  0  0  0  0  0  0  0  0
   -1.1460   -3.7910    1.9330 C   0  0  0  0  0  0  0  0  0  0  0  0
    0.8130   -2.4370    2.7510 N   0  0  0  0  0  0  0  0  0  0  0  0
    1.6150   -1.4980    2.3380 N   0  0  0  0  0  0  0  0  0  0  0  0
    1.2660   -1.1460    1.0430 C   0  0  0  0  0  0  0  0  0  0  0  0
    1.9280   -0.0940    0.3030 C   0  0  0  0  0  0  0  0  0  0  0  0
    2.6500    0.8500    1.0480 C   0  0  0  0  0  0  0  0  0  0  0  0
    3.3750    1.8640    0.4660 C   0  0  0  0  0  0  0  0  0  0  0  0
    4.1350    2.8610    1.2610 C   0  0  0  0  0  0  0  0  0  0  0  0
    3.4110    1.9800   -0.9090 C   0  0  0  0  0  0  0  0  0  0  0  0
    4.1480    3.0120   -1.5100 O   0  0  0  0  0  0  0  0  0  0  0  0
    2.7270    1.0870   -1.6660 C   0  0  0  0  0  0  0  0  0  0  0  0
    2.7670    1.2270   -3.4150 Cl  0  0  0  0  0  0  0  0  0  0  0  0
    2.0060    0.0750   -1.0410 C   0  0  0  0  0  0  0  0  0  0  0  0
  1  2  1  0
  2  3  1  0
  3  4  2  0
  3  9  1  0
  4  5  1  0
  5  6  1  0
  5  7  2  0
  7  8  1  0
  8  9  2  0
  9 10  1  0
 10 11  1  6
 10 12  1  0
 12 13  1  0
 12 17  2  0
 13 14  1  0
 13 15  2  0
 15 16  1  0
 16 17  1  0
 17 18  1  0
 18 19  2  0
 18 26  1  0
 19 20  1  0
 20 21  1  0
 20 22  2  0
 22 23  1  0
 22 24  1  0
 24 25  1  0
 24 26  2  0
M  CHG  1  11   1
M  END
