
     RDKit          3D

 26 29  0  0  0  0  0  0  0  0999 V2000
   -3.5760    2.4500   -0.7510 C   0  0  0  0  0  0  0  0  0  0  0  0
   -3.2200    0.9680   -0.6680 C   0  0  1  0  0  0  0  0  0  0  0  0
   -2.6980    0.6930    0.6560 N   0  0  0  0  0  0  0  0  0  0  0  0
   -1.6810   -0.3300    0.5250 C   0  0  1  0  0  0  0  0  0  0  0  0
   -0.4370    0.2510   -0.1620 C   0  0  0  0  0  0  0  0  0  0  0  0
    0.6840   -0.4100    0.4660 N   0  0  0  0  0  0  0  0  0  0  0  0
    2.0430   -0.1390    0.1920 C   0  0  0  0  0  0  0  0  0  0  0  0
    2.3880    0.8300   -0.7360 C   0  0  0  0  0  0  0  0  0  0  0  0
    3.7280    1.0530   -0.9640 C   0  0  0  0  0  0  0  0  0  0  0  0
    4.7080    0.3430   -0.2970 C   0  0  0  0  0  0  0  0  0  0  0  0
    6.0510    0.5650   -0.5230 C   0  0  0  0  0  0  0  0  0  0  0  0
    6.3840    1.5400   -1.4570 O   0  0  0  0  0  0  0  0  0  0  0  0
    7.0090   -0.1600    0.1590 C   0  0  0  0  0  0  0  0  0  0  0  0
    6.6740   -1.1260    1.0850 C   0  0  0  0  0  0  0  0  0  0  0  0
    7.9170   -2.0380    1.9410 Cl  0  0  0  0  0  0  0  0  0  0  0  0
    5.3320   -1.3520    1.3140 C   0  0  0  0  0  0  0  0  0  0  0  0
    4.3770   -0.6270    0.6330 C   0  0  0  0  0  0  0  0  0  0  0  0
    3.0420   -0.8480    0.8580 C   0  0  0  0  0  0  0  0  0  0  0  0
    0.1990   -1.3880    1.4120 C   0  0  0  0  0  0  0  0  0  0  0  0
   -1.0920   -0.7000    1.8750 C   0  0  2  0  0  0  0  0  0  0  0  0
   -1.8890   -1.5570    2.5920 O   0  0  0  0  0  0  0  0  0  0  0  0
   -4.4360    0.1750   -0.9140 C   0  0  0  0  0  0  0  0  0  0  0  0
   -5.5120   -0.0330   -0.0780 C   0  0  0  0  0  0  0  0  0  0  0  0
   -6.4440   -0.8490   -0.7140 C   0  0  0  0  0  0  0  0  0  0  0  0
   -5.9340   -1.1310   -1.9240 N   0  0  0  0  0  0  0  0  0  0  0  0
   -4.7270   -0.5250   -2.0650 C   0  0  0  0  0  0  0  0  0  0  0  0
  2  1  1  1
  2  3  1  0
  2 22  1  0
  4  3  1  1
  4  5  1  0
  4 20  1  0
  5  6  1  0
  6  7  1  0
  6 19  1  0
  7  8  2  0
  7 18  1  0
  8  9  1  0
  9 10  2  0
 10 11  1  0
 10 17  1  0
 11 12  1  0
 11 13  2  0
 13 14  1  0
 14 15  1  0
 14 16  2  0
 16 17  1  0
 17 18  2  0
 19 20  1  0
 20 21  1  6
 22 23  1  0
 22 26  2  0
 23 24  2  0
 24 25  1  0
 25 26  1  0
M  CHG  1   3   1
M  END
