
     RDKit          3D

 15 16  0  0  0  0  0  0  0  0999 V2000
   -2.6820   -2.5400    0.3220 O   0  0  0  0  0  0  0  0  0  0  0  0
   -2.4790   -1.3390    0.1200 C   0  0  0  0  0  0  0  0  0  0  0  0
   -3.5440   -0.3590   -0.2710 C   0  0  0  0  0  0  0  0  0  0  0  0
   -3.3860    0.7360    0.5770 O   0  0  0  0  0  0  0  0  0  0  0  0
   -2.2880    1.4860    0.1330 C   0  0  0  0  0  0  0  0  0  0  0  0
   -1.0340    0.6840    0.1510 C   0  0  0  0  0  0  0  0  0  0  0  0
    0.0250    1.4550    0.0680 C   0  0  0  0  0  0  0  0  0  0  0  0
    1.4250    1.0210    0.0570 C   0  0  0  0  0  0  0  0  0  0  0  0
    2.3940    2.0010   -0.2360 O   0  0  0  0  0  0  0  0  0  0  0  0
    1.8920   -0.1910    0.2910 C   0  0  0  0  0  0  0  0  0  0  0  0
    3.3490   -0.3460    0.2140 C   0  0  0  0  0  0  0  0  0  0  0  0
    3.6740   -1.2790   -0.7710 O   0  0  0  0  0  0  0  0  0  0  0  0
    1.1940   -1.4070    0.6160 N   0  0  0  0  0  0  0  0  0  0  0  0
   -0.1970   -1.6750    0.4520 C   0  0  0  0  0  0  0  0  0  0  0  0
   -1.1400   -0.7710    0.2530 C   0  0  0  0  0  0  0  0  0  0  0  0
  1  2  2  0
  2  3  1  0
  2 15  1  0
  3  4  1  0
  4  5  1  0
  5  6  1  0
  6  7  2  0
  6 15  1  0
  7  8  1  0
  8  9  1  0
  8 10  2  0
 10 11  1  0
 10 13  1  0
 11 12  1  0
 13 14  1  0
 14 15  2  0
M  END
