
     RDKit          3D

 16 17  0  0  0  0  0  0  0  0999 V2000
    3.0660    2.2810    0.4580 N   0  0  0  0  0  0  0  0  0  0  0  0
    1.8580    1.5790    0.2730 C   0  0  0  0  0  0  0  0  0  0  0  0
    0.6870    2.1610    0.1030 C   0  0  0  0  0  0  0  0  0  0  0  0
   -0.5570    1.4120   -0.0880 C   0  0  0  0  0  0  0  0  0  0  0  0
   -0.5370    0.1010   -0.0950 C   0  0  0  0  0  0  0  0  0  0  0  0
   -1.7410   -0.6930   -0.2800 C   0  0  0  0  0  0  0  0  0  0  0  0
   -1.7560   -2.0090   -0.2930 O   0  0  0  0  0  0  0  0  0  0  0  0
   -2.9440   -2.4950   -0.4730 C   0  0  0  0  0  0  0  0  0  0  0  0
   -3.7910   -1.4340   -0.5910 C   0  0  0  0  0  0  0  0  0  0  0  0
   -3.0120   -0.2880   -0.4660 C   0  0  0  0  0  0  0  0  0  0  0  0
   -3.5080    1.0000   -0.5290 O   0  0  0  0  0  0  0  0  0  0  0  0
    0.7100   -0.5350    0.0850 O   0  0  0  0  0  0  0  0  0  0  0  0
    1.8900    0.1390    0.2660 C   0  0  0  0  0  0  0  0  0  0  0  0
    3.0410   -0.5330    0.4320 C   0  0  0  0  0  0  0  0  0  0  0  0
    3.0690   -1.9680    0.4240 C   0  0  0  0  0  0  0  0  0  0  0  0
    2.0220   -2.6420    0.2640 O   0  0  0  0  0  0  0  0  0  0  0  0
  1  2  1  0
  2  3  2  0
  2 13  1  0
  3  4  1  0
  4  5  2  0
  5  6  1  0
  5 12  1  0
  6  7  1  0
  6 10  2  0
  7  8  1  0
  8  9  2  0
  9 10  1  0
 10 11  1  0
 12 13  1  0
 13 14  2  3
 14 15  1  0
 15 16  2  0
M  END
