
     RDKit          3D

 19 20  0  0  0  0  0  0  0  0999 V2000
   -2.7500   -0.8410   -1.3160 C   0  0  0  0  0  0  0  0  0  0  0  0
   -2.9780   -0.1300    0.0010 C   0  0  0  0  0  0  0  0  0  0  0  0
   -3.9450   -0.3340    0.8100 N   0  0  0  0  0  0  0  0  0  0  0  0
   -3.8860    0.4820    1.9350 N   0  0  0  0  0  0  0  0  0  0  0  0
   -2.7440    1.2950    1.8050 C   0  0  0  0  0  0  0  0  0  0  0  0
   -2.3620    2.1790    2.5870 O   0  0  0  0  0  0  0  0  0  0  0  0
   -2.0780    0.8890    0.5400 C   0  0  1  0  0  0  0  0  0  0  0  0
   -0.7160    0.3690    0.9970 C   0  0  2  0  0  0  0  0  0  0  0  0
   -0.0060    1.5970    1.4310 N   0  0  0  0  0  0  0  0  0  0  0  0
    0.2760    2.3610    0.2640 N   0  0  0  0  0  0  0  0  0  0  0  0
    1.0040    1.6420   -0.7280 C   0  0  0  0  0  0  0  0  0  0  0  0
    1.7900    2.2110   -1.5370 O   0  0  0  0  0  0  0  0  0  0  0  0
    0.8630    0.1840   -0.8500 C   0  0  0  0  0  0  0  0  0  0  0  0
    1.5640   -0.5230   -1.8000 O   0  0  0  0  0  0  0  0  0  0  0  0
    2.7250   -1.2250   -1.5360 C   0  0  0  0  0  0  0  0  0  0  0  0
    3.8790   -0.4370   -1.0020 C   0  0  0  0  0  0  0  0  0  0  0  0
    3.6570    0.2300    0.2360 N   0  0  0  0  0  0  0  0  0  0  0  0
    0.0180   -0.3990    0.0110 C   0  0  0  0  0  0  0  0  0  0  0  0
   -0.1110   -1.8850   -0.0450 C   0  0  0  0  0  0  0  0  0  0  0  0
  1  2  1  0
  2  3  2  0
  7  2  1  1
  3  4  1  0
  4  5  1  0
  5  6  2  0
  5  7  1  0
  7  8  1  0
  8  9  1  6
  8 18  1  0
  9 10  1  0
 10 11  1  0
 11 12  2  0
 11 13  1  0
 13 14  1  0
 13 18  2  0
 14 15  1  0
 15 16  1  0
 16 17  1  0
 18 19  1  0
M  CHG  2   3   1  17   1
M  END
