
     RDKit          3D

 16 17  0  0  0  0  0  0  0  0999 V2000
   -0.4480    1.5740   -2.2950 O   0  0  0  0  0  0  0  0  0  0  0  0
   -1.2760    1.1130   -1.4840 C   0  0  0  0  0  0  0  0  0  0  0  0
   -2.5890    1.5750   -1.4200 C   0  0  0  0  0  0  0  0  0  0  0  0
   -3.4300    1.0130   -0.5240 C   0  0  0  0  0  0  0  0  0  0  0  0
   -3.0510    0.0370    0.2750 O   0  0  0  0  0  0  0  0  0  0  0  0
   -1.7780   -0.4370    0.2400 C   0  0  0  0  0  0  0  0  0  0  0  0
   -1.3670   -1.5300    1.1400 C   0  0  0  0  0  0  0  0  0  0  0  0
   -2.1040   -2.6760    0.7160 O   0  0  0  0  0  0  0  0  0  0  0  0
   -0.9000    0.1110   -0.6240 C   0  0  0  0  0  0  0  0  0  0  0  0
    0.5410    0.0250   -0.2410 C   0  0  0  0  0  0  0  0  0  0  0  0
    1.2800   -0.9930   -0.0060 C   0  0  0  0  0  0  0  0  0  0  0  0
    2.6810   -0.8040    0.4390 C   0  0  0  0  0  0  0  0  0  0  0  0
    3.5220   -1.8880    0.6460 O   0  0  0  0  0  0  0  0  0  0  0  0
    3.2130    0.3810    0.6630 C   0  0  0  0  0  0  0  0  0  0  0  0
    2.3730    1.5170    0.4830 N   0  0  0  0  0  0  0  0  0  0  0  0
    1.2210    1.3880   -0.2930 C   0  0  0  0  0  0  0  0  0  0  0  0
  1  2  2  0
  2  3  1  0
  2  9  1  0
  3  4  2  0
  4  5  1  0
  5  6  1  0
  6  7  1  0
  6  9  2  0
  7  8  1  0
  9 10  1  0
 10 11  2  0
 10 16  1  0
 11 12  1  0
 12 13  1  0
 12 14  2  0
 14 15  1  0
 15 16  1  0
M  END
