
     RDKit          3D

 20 21  0  0  0  0  0  0  0  0999 V2000
   -0.8800    1.1950   -2.7070 C   0  0  0  0  0  0  0  0  0  0  0  0
   -0.4080    1.1580   -1.3640 N   0  0  0  0  0  0  0  0  0  0  0  0
    0.4850    2.0340   -0.7170 C   0  0  0  0  0  0  0  0  0  0  0  0
    0.7100    3.4020   -1.0900 N   0  0  0  0  0  0  0  0  0  0  0  0
    1.0820    1.4390    0.2670 N   0  0  0  0  0  0  0  0  0  0  0  0
    0.5940    0.0590    0.3280 C   0  0  1  0  0  0  0  0  0  0  0  0
    0.6660   -0.5690    1.6520 C   0  0  0  0  0  0  0  0  0  0  0  0
    2.0120   -0.8010    2.2070 C   0  0  0  0  0  0  0  0  0  0  0  0
    2.9570    0.3110    2.4130 C   0  0  0  0  0  0  0  0  0  0  0  0
    4.1460   -0.1860    3.0480 O   0  0  0  0  0  0  0  0  0  0  0  0
   -0.7370    0.1750   -0.2850 C   0  0  1  0  0  0  0  0  0  0  0  0
   -1.6560    0.9050    0.5950 N   0  0  0  0  0  0  0  0  0  0  0  0
   -2.8930    1.2740    0.0000 C   0  0  0  0  0  0  0  0  0  0  0  0
   -3.5810    2.2610    0.3590 O   0  0  0  0  0  0  0  0  0  0  0  0
   -3.4160    0.4520   -1.1110 C   0  0  0  0  0  0  0  0  0  0  0  0
   -2.7250   -0.5550   -1.4790 N   0  0  0  0  0  0  0  0  0  0  0  0
   -1.4390   -0.9540   -0.8650 C   0  0  0  0  0  0  0  0  0  0  0  0
   -1.1510   -2.2210   -0.9780 C   0  0  0  0  0  0  0  0  0  0  0  0
   -0.0220   -3.0470   -0.5840 C   0  0  0  0  0  0  0  0  0  0  0  0
   -0.4460   -4.0720    0.3160 O   0  0  0  0  0  0  0  0  0  0  0  0
  1  2  1  0
  2  3  1  0
  2 11  1  0
  3  4  1  0
  3  5  2  0
  5  6  1  0
  6  7  1  1
  6 11  1  0
  7  8  1  0
  8  9  1  0
  9 10  1  0
 11 12  1  1
 11 17  1  0
 12 13  1  0
 13 14  2  0
 13 15  1  0
 15 16  2  0
 16 17  1  0
 17 18  2  3
 18 19  1  0
 19 20  1  0
M  CHG  2   5   1  16   1
M  END
