
     RDKit          3D

 20 22  0  0  0  0  0  0  0  0999 V2000
   -4.9590    2.5140    0.1600 N   0  0  0  0  0  0  0  0  0  0  0  0
   -4.2940    1.2640    0.0300 C   0  0  0  0  0  0  0  0  0  0  0  0
   -2.9680    1.1350    0.1910 N   0  0  0  0  0  0  0  0  0  0  0  0
   -2.3750   -0.0440    0.0640 C   0  0  0  0  0  0  0  0  0  0  0  0
   -1.0620   -0.4800    0.1690 C   0  0  0  0  0  0  0  0  0  0  0  0
    0.0850    0.3960    0.4840 C   0  0  0  0  0  0  0  0  0  0  0  0
    1.2810   -0.3810    0.5120 N   0  0  1  0  0  0  0  0  0  0  0  0
    1.8060   -0.4730   -0.8500 C   0  0  0  0  0  0  0  0  0  0  0  0
    3.2250   -0.9100   -0.5550 C   0  0  2  0  0  0  0  0  0  0  0  0
    3.1490   -2.1520    0.0640 O   0  0  0  0  0  0  0  0  0  0  0  0
    3.6220    0.0910    0.5050 C   0  0  1  0  0  0  0  0  0  0  0  0
    4.0700    1.4020   -0.1050 C   0  0  0  0  0  0  0  0  0  0  0  0
    5.1780    1.0950   -0.9220 O   0  0  0  0  0  0  0  0  0  0  0  0
    2.3380    0.2330    1.2920 C   0  0  0  0  0  0  0  0  0  0  0  0
   -1.0380   -1.8190   -0.0650 C   0  0  0  0  0  0  0  0  0  0  0  0
   -2.3030   -2.1990   -0.3090 N   0  0  0  0  0  0  0  0  0  0  0  0
   -3.1430   -1.1480   -0.2390 C   0  0  0  0  0  0  0  0  0  0  0  0
   -4.5210   -1.0210   -0.4070 C   0  0  0  0  0  0  0  0  0  0  0  0
   -5.1580   -2.0650   -0.6810 O   0  0  0  0  0  0  0  0  0  0  0  0
   -5.0530    0.1860   -0.2670 N   0  0  0  0  0  0  0  0  0  0  0  0
  1  2  1  0
  2  3  1  0
  2 20  2  0
  3  4  1  0
  4  5  1  0
  4 17  2  0
  5  6  1  0
  5 15  2  0
  7  6  1  6
  7  8  1  0
  7 14  1  0
  8  9  1  0
  9 10  1  1
  9 11  1  0
 11 12  1  6
 11 14  1  0
 12 13  1  0
 15 16  1  0
 16 17  1  0
 17 18  1  0
 18 19  2  0
 18 20  1  0
M  CHG  2   7   1  20   1
M  END
