
     RDKit          3D

 36 37  0  0  0  0  0  0  0  0999 V2000
   -3.9950    4.1570    0.8090 C   0  0  0  0  0  0  0  0  0  0  0  0
   -3.9810    3.0240    0.0230 O   0  0  0  0  0  0  0  0  0  0  0  0
   -2.8110    2.2980    0.2400 C   0  0  0  0  0  0  0  0  0  0  0  0
   -2.7230    1.0560   -0.5760 C   0  0  0  0  0  0  0  0  0  0  0  0
   -3.7570    0.7780   -1.4020 C   0  0  0  0  0  0  0  0  0  0  0  0
   -4.8580    1.7500   -1.3880 N   0  0  0  0  0  0  0  0  0  0  0  0
   -3.8020   -0.3210   -2.2130 O   0  0  0  0  0  0  0  0  0  0  0  0
   -4.2190   -1.5540   -2.0780 O   0  0  0  0  0  0  0  0  0  0  0  0
   -5.3900   -1.8220   -2.5700 O   0  0  0  0  0  0  0  0  0  0  0  0
   -6.0810   -2.5570   -1.6940 O   0  0  0  0  0  0  0  0  0  0  0  0
   -5.2600   -3.2000   -0.8950 O   0  0  0  0  0  0  0  0  0  0  0  0
   -5.2360   -2.7600    0.3210 O   0  0  0  0  0  0  0  0  0  0  0  0
   -4.4860   -1.7270    0.5330 O   0  0  0  0  0  0  0  0  0  0  0  0
   -3.2860   -1.9720    1.1430 C   0  0  2  0  0  0  0  0  0  0  0  0
   -3.3080   -3.1970    2.0150 C   0  0  0  0  0  0  0  0  0  0  0  0
   -3.0260   -0.8890    1.9900 F   0  0  0  0  0  0  0  0  0  0  0  0
   -2.1310   -2.0060    0.1740 C   0  0  0  0  0  0  0  0  0  0  0  0
   -1.9430   -3.1330   -0.3580 O   0  0  0  0  0  0  0  0  0  0  0  0
   -1.3310   -0.9290   -0.1300 N   0  0  0  0  0  0  0  0  0  0  0  0
   -1.4970    0.2800   -0.4280 C   0  0  0  0  0  0  0  0  0  0  0  0
   -0.2380    1.0280   -0.6180 N   0  0  0  0  0  0  0  0  0  0  0  0
    1.2710    0.2380   -1.1500 P   0  0  0  0  0  0  0  0  0  0  0  0
    2.4580    1.6900   -2.3750 P   0  0  0  0  0  0  0  0  0  0  0  0
    4.0870    1.4280   -1.8320 O   0  0  0  0  0  0  0  0  0  0  0  0
    4.1840    0.1540   -1.3300 C   0  0  2  0  0  0  0  0  0  0  0  0
    3.4440   -0.7870   -2.2550 C   0  0  0  0  0  0  0  0  0  0  0  0
    3.3420   -1.9780   -1.8640 O   0  0  0  0  0  0  0  0  0  0  0  0
    2.9100   -0.3810   -3.4580 O   0  0  0  0  0  0  0  0  0  0  0  0
    3.7330   -0.0830    0.0290 C   0  0  0  0  0  0  0  0  0  0  0  0
    4.5940   -0.3230    1.1390 C   0  0  0  0  0  0  0  0  0  0  0  0
    5.8790   -0.3830    1.2580 C   0  0  0  0  0  0  0  0  0  0  0  0
    6.3960   -0.6770    2.6810 C   0  0  0  0  0  0  0  0  0  0  0  0
    6.9500   -0.2050    0.2800 C   0  0  0  0  0  0  0  0  0  0  0  0
    2.3990   -0.0800    0.2860 C   0  0  0  0  0  0  0  0  0  0  0  0
    1.8710   -0.3020    1.5580 N   0  0  0  0  0  0  0  0  0  0  0  0
    1.8770    0.4830    2.5100 O   0  0  0  0  0  0  0  0  0  0  0  0
  1  2  1  0
  2  3  1  0
  3  4  1  0
  4  5  2  0
  4 20  1  0
  5  6  1  0
  5  7  1  0
  7  8  1  0
  8  9  1  0
  9 10  1  0
 10 11  1  0
 11 12  1  0
 12 13  1  0
 13 14  1  0
 14 15  1  1
 14 16  1  0
 14 17  1  0
 17 18  2  0
 17 19  1  0
 19 20  2  0
 20 21  1  0
 21 22  1  0
 22 23  1  0
 22 34  1  0
 23 24  1  0
 24 25  1  0
 25 26  1  6
 25 29  1  0
 26 27  2  0
 26 28  1  0
 29 30  1  0
 29 34  2  0
 30 31  2  3
 31 32  1  0
 31 33  1  0
 34 35  1  0
 35 36  2  0
M  END
