
     RDKit          3D

 39 42  0  0  0  0  0  0  0  0999 V2000
   -4.5230    0.4140   -3.5310 O   0  0  0  0  0  0  0  0  0  0  0  0
   -4.0940    0.1500   -2.3980 C   0  0  0  0  0  0  0  0  0  0  0  0
   -4.8170    0.2480   -1.1290 C   0  0  0  0  0  0  0  0  0  0  0  0
   -3.9280   -0.1450   -0.1330 O   0  0  0  0  0  0  0  0  0  0  0  0
   -2.6390   -0.1340   -0.6880 C   0  0  1  0  0  0  0  0  0  0  0  0
   -2.0540    1.2380   -0.3800 C   0  0  0  0  0  0  0  0  0  0  0  0
   -0.5810    1.3080   -0.3130 C   0  0  1  0  0  0  0  0  0  0  0  0
   -0.0920    2.4470    0.5230 C   0  0  0  0  0  0  0  0  0  0  0  0
   -0.3840    3.6760    0.1820 O   0  0  0  0  0  0  0  0  0  0  0  0
   -1.5610    4.2810    0.2160 C   0  0  0  0  0  0  0  0  0  0  0  0
   -1.4780    5.7320   -0.3060 C   0  0  0  0  0  0  0  0  0  0  0  0
   -0.6090    6.4910    0.4280 O   0  0  0  0  0  0  0  0  0  0  0  0
   -0.5210    7.7060   -0.0090 O   0  0  0  0  0  0  0  0  0  0  0  0
   -0.0310    0.0970    0.3630 N   0  0  0  0  0  0  0  0  0  0  0  0
    1.3460   -0.1600    0.2490 C   0  0  0  0  0  0  0  0  0  0  0  0
    1.9130   -1.1580    0.7770 O   0  0  0  0  0  0  0  0  0  0  0  0
    2.1690    0.6850   -0.4590 O   0  0  0  0  0  0  0  0  0  0  0  0
    3.5240    0.6180   -0.6820 C   0  0  0  0  0  0  0  0  0  0  0  0
    4.0670   -0.5380   -1.4250 C   0  0  1  0  0  0  0  0  0  0  0  0
    5.4500   -0.4840   -1.5930 O   0  0  0  0  0  0  0  0  0  0  0  0
    6.1740   -0.0060   -0.5490 C   0  0  0  0  0  0  0  0  0  0  0  0
    6.2680   -0.8820    0.6500 C   0  0  0  0  0  0  0  0  0  0  0  0
    5.1000   -1.5660    0.8710 O   0  0  0  0  0  0  0  0  0  0  0  0
    4.7760   -2.3410   -0.2080 C   0  0  0  0  0  0  0  0  0  0  0  0
    3.7030   -1.8010   -0.9390 O   0  0  0  0  0  0  0  0  0  0  0  0
   -1.0200   -0.6340    1.0470 C   0  0  2  0  0  0  0  0  0  0  0  0
   -0.6760   -1.7950    1.8280 C   0  0  0  0  0  0  0  0  0  0  0  0
    0.3110   -2.0830    2.5490 O   0  0  0  0  0  0  0  0  0  0  0  0
   -1.7560   -2.7450    1.6730 N   0  0  0  0  0  0  0  0  0  0  0  0
   -1.8740   -4.0110    2.3150 C   0  0  0  0  0  0  0  0  0  0  0  0
   -0.9960   -4.4280    3.1210 O   0  0  0  0  0  0  0  0  0  0  0  0
   -2.9710   -4.8830    2.0960 N   0  0  0  0  0  0  0  0  0  0  0  0
   -3.1080   -6.0880    2.6900 O   0  0  0  0  0  0  0  0  0  0  0  0
   -4.3570   -6.4770    2.5720 O   0  0  0  0  0  0  0  0  0  0  0  0
   -4.6460   -6.9000    1.3570 O   0  0  0  0  0  0  0  0  0  0  0  0
   -2.6830   -2.1870    0.7560 C   0  0  0  0  0  0  0  0  0  0  0  0
   -3.8930   -2.4260    0.6630 O   0  0  0  0  0  0  0  0  0  0  0  0
   -1.8840   -1.2440   -0.0790 C   0  0  1  0  0  0  0  0  0  0  0  0
   -2.8260   -0.3000   -2.0860 O   0  0  0  0  0  0  0  0  0  0  0  0
  1  2  2  0
  2  3  1  0
  2 39  1  0
  3  4  1  0
  4  5  1  0
  5  6  1  6
  5 38  1  0
  5 39  1  0
  6  7  1  0
  7  8  1  1
  7 14  1  0
  8  9  1  0
  9 10  1  0
 10 11  1  0
 11 12  1  0
 12 13  1  0
 14 15  1  0
 26 14  1  6
 15 16  2  0
 15 17  1  0
 17 18  1  0
 19 18  1  1
 19 20  1  0
 19 25  1  0
 20 21  1  0
 21 22  1  0
 22 23  1  0
 23 24  1  0
 24 25  1  0
 26 27  1  0
 26 38  1  0
 27 28  2  0
 27 29  1  0
 29 30  1  0
 29 36  1  0
 30 31  2  0
 30 32  1  0
 32 33  1  0
 33 34  1  0
 34 35  1  0
 36 37  2  0
 38 36  1  1
M  END
