
     RDKit          3D

 38 42  0  0  0  0  0  0  0  0999 V2000
   -2.6920   -2.5620    2.0920 C   0  0  0  0  0  0  0  0  0  0  0  0
   -2.2650   -1.5650    1.3910 N   0  0  0  0  0  0  0  0  0  0  0  0
   -0.8960   -1.6490    0.8680 C   0  0  1  0  0  0  0  0  0  0  0  0
   -0.1530   -2.0540    1.9880 O   0  0  0  0  0  0  0  0  0  0  0  0
    1.2640   -0.9910    2.2690 P   0  0  0  0  0  0  0  0  0  0  0  0
    2.4690   -0.8510    1.2110 C   0  0  0  0  0  0  0  0  0  0  0  0
    3.3190    0.1340    0.8670 O   0  0  0  0  0  0  0  0  0  0  0  0
    3.6870   -0.0260   -0.4870 O   0  0  0  0  0  0  0  0  0  0  0  0
    2.4800   -0.3110   -1.1090 C   0  0  1  0  0  0  0  0  0  0  0  0
    2.5560   -0.4280   -2.6380 C   0  0  0  0  0  0  0  0  0  0  0  0
    1.2950   -1.2150   -3.0310 C   0  0  0  0  0  0  0  0  0  0  0  0
    1.3840   -1.5700   -4.2480 O   0  0  0  0  0  0  0  0  0  0  0  0
    0.2710   -1.4720   -2.1960 O   0  0  0  0  0  0  0  0  0  0  0  0
   -0.1720   -2.4470   -1.4530 O   0  0  0  0  0  0  0  0  0  0  0  0
   -0.8340   -2.5680   -0.2840 C   0  0  0  0  0  0  0  0  0  0  0  0
   -1.5410   -3.6700   -0.1240 N   0  0  0  0  0  0  0  0  0  0  0  0
    2.0800   -1.5830   -0.7870 O   0  0  0  0  0  0  0  0  0  0  0  0
    2.7490   -2.0670    0.3810 C   0  0  2  0  0  0  0  0  0  0  0  0
    2.1180   -3.1590    0.8950 O   0  0  0  0  0  0  0  0  0  0  0  0
    2.9830   -4.1430    1.0220 O   0  0  0  0  0  0  0  0  0  0  0  0
    1.5700    0.8260   -0.8810 C   0  0  0  0  0  0  0  0  0  0  0  0
    2.0180    1.8940   -0.2310 C   0  0  0  0  0  0  0  0  0  0  0  0
    1.1040    2.8060    0.4440 C   0  0  0  0  0  0  0  0  0  0  0  0
    1.5350    3.8470    1.0800 N   0  0  0  0  0  0  0  0  0  0  0  0
    0.6070    4.6820    1.7060 N   0  0  0  0  0  0  0  0  0  0  0  0
    0.2790    4.4420    3.0000 F   0  0  0  0  0  0  0  0  0  0  0  0
   -0.3180    2.5000    0.3760 C   0  0  0  0  0  0  0  0  0  0  0  0
   -1.0810    3.0660    1.1910 O   0  0  0  0  0  0  0  0  0  0  0  0
   -0.8020    1.5440   -0.6390 C   0  0  2  0  0  0  0  0  0  0  0  0
   -1.7740    2.1830   -1.5960 C   0  0  0  0  0  0  0  0  0  0  0  0
   -3.1770    1.7080   -1.4550 C   0  0  0  0  0  0  0  0  0  0  0  0
   -3.3300    0.3690   -1.2310 O   0  0  0  0  0  0  0  0  0  0  0  0
   -2.2810   -0.2650   -0.8270 O   0  0  0  0  0  0  0  0  0  0  0  0
   -1.5570    0.4280    0.1110 C   0  0  2  0  0  0  0  0  0  0  0  0
   -2.5930    1.1650    1.4540 P   0  0  0  0  0  0  0  0  0  0  0  0
   -2.0720    0.7160    3.0270 O   0  0  0  0  0  0  0  0  0  0  0  0
   -0.5270   -0.3590    0.6220 O   0  0  0  0  0  0  0  0  0  0  0  0
    0.2580    0.9050   -1.2900 O   0  0  0  0  0  0  0  0  0  0  0  0
  1  2  2  0
  3  2  1  1
  3  4  1  0
  3 15  1  0
  3 37  1  0
  4  5  1  0
  5  6  2  0
  6  7  1  0
  6 18  1  0
  7  8  1  0
  8  9  1  0
  9 10  1  6
  9 17  1  0
  9 21  1  0
 10 11  1  0
 11 12  2  0
 11 13  1  0
 13 14  1  0
 14 15  1  0
 15 16  2  0
 17 18  1  0
 18 19  1  1
 19 20  1  0
 21 22  2  0
 21 38  1  0
 22 23  1  0
 23 24  2  3
 23 27  1  0
 24 25  1  0
 25 26  1  0
 27 28  2  0
 27 29  1  0
 29 30  1  6
 29 34  1  0
 29 38  1  0
 30 31  1  0
 31 32  1  0
 32 33  1  0
 33 34  1  0
 34 35  1  1
 34 37  1  0
 35 36  1  0
M  END
