
     RDKit          3D

 39 39  0  0  0  0  0  0  0  0999 V2000
   -6.8100    2.3360   -2.2210 C   0  0  0  0  0  0  0  0  0  0  0  0
   -6.8850    0.8720   -2.5180 C   0  0  0  0  0  0  0  0  0  0  0  0
   -6.7590   -0.0100   -1.5500 C   0  0  0  0  0  0  0  0  0  0  0  0
   -6.5570    0.3870   -0.2360 O   0  0  0  0  0  0  0  0  0  0  0  0
   -5.2710    0.5660    0.3050 C   0  0  0  0  0  0  0  0  0  0  0  0
   -4.3250   -0.0480   -0.2240 N   0  0  0  0  0  0  0  0  0  0  0  0
   -2.9430   -0.1780   -0.0460 C   0  0  2  0  0  0  0  0  0  0  0  0
   -2.2570    0.2280   -1.3620 C   0  0  0  0  0  0  0  0  0  0  0  0
   -2.5660   -1.5310    0.1730 O   0  0  0  0  0  0  0  0  0  0  0  0
   -3.1740   -1.9810    1.2580 O   0  0  0  0  0  0  0  0  0  0  0  0
   -4.2620   -2.6840    0.9790 O   0  0  0  0  0  0  0  0  0  0  0  0
   -4.1040   -3.9160    0.3530 C   0  0  0  0  0  0  0  0  0  0  0  0
   -2.9320   -4.3160    0.0760 O   0  0  0  0  0  0  0  0  0  0  0  0
   -5.1560   -4.7010    0.0310 F   0  0  0  0  0  0  0  0  0  0  0  0
   -2.3480    0.5830    1.0680 C   0  0  0  0  0  0  0  0  0  0  0  0
   -0.8950    0.5000    1.3550 C   0  0  0  0  0  0  0  0  0  0  0  0
   -0.0400   -0.2210    0.7100 C   0  0  0  0  0  0  0  0  0  0  0  0
    1.3780   -0.1890    1.1240 C   0  0  0  0  0  0  0  0  0  0  0  0
    1.7530    0.5260    2.0870 O   0  0  0  0  0  0  0  0  0  0  0  0
    2.3230   -0.9430    0.4620 O   0  0  0  0  0  0  0  0  0  0  0  0
    3.6450   -0.8720    0.8980 N   0  0  0  0  0  0  0  0  0  0  0  0
    4.7320   -0.6110    0.0210 C   0  0  0  0  0  0  0  0  0  0  0  0
    4.5220   -0.1950   -1.1580 N   0  0  0  0  0  0  0  0  0  0  0  0
    5.4090    0.1250   -2.1780 C   0  0  0  0  0  0  0  0  0  0  0  0
    6.6230    1.2470   -2.0180 P   0  0  0  0  0  0  0  0  0  0  0  0
    6.8830    2.1210   -0.5400 O   0  0  0  0  0  0  0  0  0  0  0  0
    6.0740   -0.7920    0.3760 O   0  0  0  0  0  0  0  0  0  0  0  0
    6.8800   -1.6470   -0.4030 C   0  0  0  0  0  0  0  0  0  0  0  0
    6.3840   -2.2130   -1.3970 O   0  0  0  0  0  0  0  0  0  0  0  0
    8.2980   -1.8590   -0.0320 C   0  0  0  0  0  0  0  0  0  0  0  0
    8.5960   -1.1100    1.1180 O   0  0  0  0  0  0  0  0  0  0  0  0
    9.8380   -1.2740    1.4720 O   0  0  0  0  0  0  0  0  0  0  0  0
   10.4110   -0.1830    1.8860 O   0  0  0  0  0  0  0  0  0  0  0  0
   -0.4710    1.3010    2.4370 O   0  0  0  0  0  0  0  0  0  0  0  0
   -0.0660    2.5580    2.2620 O   0  0  0  0  0  0  0  0  0  0  0  0
   -3.3850    1.5080    1.9610 P   0  0  0  0  0  0  0  0  0  0  0  0
   -5.0960    1.4430    1.4430 N   0  0  0  0  0  0  0  0  0  0  0  0
   -6.1870    2.1130    2.0000 C   0  0  0  0  0  0  0  0  0  0  0  0
   -7.3280    1.9500    1.5050 O   0  0  0  0  0  0  0  0  0  0  0  0
  1  2  1  0
  2  3  2  3
  3  4  1  0
  4  5  1  0
  5  6  2  0
  5 37  1  0
  6  7  1  0
  7  8  1  6
  7  9  1  0
  7 15  1  0
  9 10  1  0
 10 11  1  0
 11 12  1  0
 12 13  2  0
 12 14  1  0
 15 16  1  0
 15 36  2  0
 16 17  2  3
 16 34  1  0
 17 18  1  0
 18 19  2  0
 18 20  1  0
 20 21  1  0
 21 22  1  0
 22 23  2  3
 22 27  1  0
 23 24  1  0
 24 25  2  3
 25 26  1  0
 27 28  1  0
 28 29  2  0
 28 30  1  0
 30 31  1  0
 31 32  1  0
 32 33  1  0
 34 35  1  0
 36 37  1  0
 37 38  1  0
 38 39  2  0
M  END
