
     RDKit          3D

 39 41  0  0  0  0  0  0  0  0999 V2000
   -1.2450   -4.5800   -1.3940 O   0  0  0  0  0  0  0  0  0  0  0  0
   -1.9140   -3.5210   -1.0840 C   0  0  0  0  0  0  0  0  0  0  0  0
   -3.2580   -3.7360   -1.1100 O   0  0  0  0  0  0  0  0  0  0  0  0
   -1.2400   -2.3010   -0.7850 C   0  0  0  0  0  0  0  0  0  0  0  0
   -1.9010   -1.2380   -0.3060 C   0  0  0  0  0  0  0  0  0  0  0  0
   -1.2660   -0.0070   -0.0210 O   0  0  0  0  0  0  0  0  0  0  0  0
   -0.7600    0.1910    1.2850 C   0  0  0  0  0  0  0  0  0  0  0  0
   -0.0080    1.4440    1.3950 C   0  0  1  0  0  0  0  0  0  0  0  0
    1.1840    1.4450    2.1490 N   0  0  0  0  0  0  0  0  0  0  0  0
    1.6200    0.2760    2.7950 C   0  0  0  0  0  0  0  0  0  0  0  0
    2.0710   -0.7770    2.0980 O   0  0  0  0  0  0  0  0  0  0  0  0
    3.6350   -0.7990    1.5070 P   0  0  0  0  0  0  0  0  0  0  0  0
    4.5050    0.6960    1.6310 O   0  0  0  0  0  0  0  0  0  0  0  0
    5.8030    0.4330    1.1320 C   0  0  0  0  0  0  0  0  0  0  0  0
    6.3240   -0.5690    1.9550 O   0  0  0  0  0  0  0  0  0  0  0  0
    3.9160   -1.4750   -0.0240 O   0  0  0  0  0  0  0  0  0  0  0  0
    2.8750   -1.8340   -0.7490 N   0  0  0  0  0  0  0  0  0  0  0  0
    1.9720   -0.7490   -1.0630 C   0  0  2  0  0  0  0  0  0  0  0  0
    0.7780   -1.2570   -1.8270 C   0  0  0  0  0  0  0  0  0  0  0  0
    0.1350   -2.2220   -1.0030 O   0  0  0  0  0  0  0  0  0  0  0  0
    2.6100    0.3600   -1.7460 N   0  0  0  0  0  0  0  0  0  0  0  0
    3.2300    0.0520   -2.9040 F   0  0  0  0  0  0  0  0  0  0  0  0
    2.5900    1.6850   -1.2410 C   0  0  0  0  0  0  0  0  0  0  0  0
    3.3620    2.5150   -1.8480 O   0  0  0  0  0  0  0  0  0  0  0  0
    1.7950    2.1660   -0.1320 C   0  0  0  0  0  0  0  0  0  0  0  0
    2.3660    2.7880    0.8320 O   0  0  0  0  0  0  0  0  0  0  0  0
    0.3190    2.0170    0.0260 C   0  0  2  0  0  0  0  0  0  0  0  0
   -0.2140    3.4240   -0.0730 C   0  0  0  0  0  0  0  0  0  0  0  0
    0.4790    4.4410    0.1590 O   0  0  0  0  0  0  0  0  0  0  0  0
   -1.5290    3.5800   -0.4370 O   0  0  0  0  0  0  0  0  0  0  0  0
   -2.1640    2.9910   -1.4390 O   0  0  0  0  0  0  0  0  0  0  0  0
   -3.3760    3.5230   -1.4860 O   0  0  0  0  0  0  0  0  0  0  0  0
   -4.3290    2.5220   -1.1870 C   0  0  0  0  0  0  0  0  0  0  0  0
   -3.5430    0.9070   -1.5760 P   0  0  0  0  0  0  0  0  0  0  0  0
   -4.3140   -0.4890   -0.6820 C   0  0  0  0  0  0  0  0  0  0  0  0
   -3.2910   -1.3490   -0.0550 N   0  0  0  0  0  0  0  0  0  0  0  0
   -3.7250   -2.3820    0.8530 C   0  0  0  0  0  0  0  0  0  0  0  0
   -2.9300   -3.0840    1.4880 O   0  0  0  0  0  0  0  0  0  0  0  0
   -5.0760   -2.6070    1.0320 O   0  0  0  0  0  0  0  0  0  0  0  0
  1  2  2  0
  2  3  1  0
  2  4  1  0
  4  5  2  0
  4 20  1  0
  5  6  1  0
  5 36  1  0
  6  7  1  0
  7  8  1  0
  8  9  1  6
  8 27  1  0
  9 10  1  0
 10 11  1  0
 11 12  1  0
 12 13  1  0
 12 16  1  0
 13 14  1  0
 14 15  1  0
 16 17  1  0
 17 18  1  0
 18 19  1  6
 18 21  1  0
 19 20  1  0
 21 22  1  0
 21 23  1  0
 23 24  2  0
 23 25  1  0
 25 26  2  0
 25 27  1  0
 27 28  1  1
 28 29  2  0
 28 30  1  0
 30 31  1  0
 31 32  1  0
 32 33  1  0
 33 34  1  0
 34 35  1  0
 35 36  1  0
 36 37  1  0
 37 38  2  0
 37 39  1  0
M  END
