
     RDKit          3D

 39 40  0  0  0  0  0  0  0  0999 V2000
   -1.0550    1.6080    3.0190 C   0  0  0  0  0  0  0  0  0  0  0  0
   -2.3690    1.4270    2.5610 O   0  0  0  0  0  0  0  0  0  0  0  0
   -2.3190    1.5940    1.2400 O   0  0  0  0  0  0  0  0  0  0  0  0
   -2.8860    0.1720    0.4360 P   0  0  0  0  0  0  0  0  0  0  0  0
   -3.0610   -1.2200    1.6470 C   0  0  0  0  0  0  0  0  0  0  0  0
   -3.6740   -0.7020    2.8100 O   0  0  0  0  0  0  0  0  0  0  0  0
   -4.9580   -0.1320    2.6630 C   0  0  0  0  0  0  0  0  0  0  0  0
   -5.5440    0.3680    3.8000 C   0  0  0  0  0  0  0  0  0  0  0  0
   -6.7090    0.9310    3.8960 O   0  0  0  0  0  0  0  0  0  0  0  0
   -7.5510    1.1380    2.9660 O   0  0  0  0  0  0  0  0  0  0  0  0
   -7.0430    0.6000    1.4560 P   0  0  0  0  0  0  0  0  0  0  0  0
   -7.9260    0.9420    0.0020 O   0  0  0  0  0  0  0  0  0  0  0  0
   -7.7590   -0.1910   -0.7930 C   0  0  0  0  0  0  0  0  0  0  0  0
   -8.4500   -0.0360   -2.0420 N   0  0  0  0  0  0  0  0  0  0  0  0
   -5.5400   -0.0930    1.4930 O   0  0  0  0  0  0  0  0  0  0  0  0
   -1.8990   -0.2570   -0.9130 O   0  0  0  0  0  0  0  0  0  0  0  0
   -0.5810   -0.4990   -0.5540 C   0  0  2  0  0  0  0  0  0  0  0  0
    0.2830    0.5160   -1.2780 C   0  0  0  0  0  0  0  0  0  0  0  0
    1.0160   -0.1460   -2.3280 N   0  0  0  0  0  0  0  0  0  0  0  0
    0.2910   -0.5590   -3.4100 F   0  0  0  0  0  0  0  0  0  0  0  0
    2.4000   -0.3920   -2.3190 C   0  0  0  0  0  0  0  0  0  0  0  0
    2.8430   -1.4860   -2.7800 O   0  0  0  0  0  0  0  0  0  0  0  0
    3.4200    0.5580   -1.7970 C   0  0  0  0  0  0  0  0  0  0  0  0
    4.5390   -0.1290   -1.1960 N   0  0  0  0  0  0  0  0  0  0  0  0
    5.7890    0.5450   -1.1300 C   0  0  0  0  0  0  0  0  0  0  0  0
    5.9230    1.7150   -1.5840 O   0  0  0  0  0  0  0  0  0  0  0  0
    6.9220   -0.0420   -0.5680 O   0  0  0  0  0  0  0  0  0  0  0  0
    8.1270    0.6410   -0.5180 C   0  0  0  0  0  0  0  0  0  0  0  0
    9.0390    0.6070   -1.4450 C   0  0  0  0  0  0  0  0  0  0  0  0
    9.9130    0.2770   -2.3530 C   0  0  0  0  0  0  0  0  0  0  0  0
   10.7180   -0.1350   -3.2640 C   0  0  0  0  0  0  0  0  0  0  0  0
   11.2410   -0.7570   -4.2080 O   0  0  0  0  0  0  0  0  0  0  0  0
    4.4440   -1.4500   -0.6680 C   0  0  0  0  0  0  0  0  0  0  0  0
    5.4820   -2.1930   -0.7480 O   0  0  0  0  0  0  0  0  0  0  0  0
    3.2680   -1.9760   -0.0660 N   0  0  0  0  0  0  0  0  0  0  0  0
    2.4410   -1.2520    0.8690 C   0  0  0  0  0  0  0  0  0  0  0  0
    1.0880   -1.6030    0.7380 O   0  0  0  0  0  0  0  0  0  0  0  0
    0.9280   -2.1400   -0.4310 O   0  0  0  0  0  0  0  0  0  0  0  0
   -0.2350   -1.7900   -0.9850 O   0  0  0  0  0  0  0  0  0  0  0  0
  1  2  1  0
  2  3  1  0
  3  4  1  0
  4  5  1  0
  4 16  1  0
  5  6  1  0
  6  7  1  0
  7  8  2  0
  7 15  1  0
  8  9  1  0
  9 10  1  0
 10 11  1  0
 11 12  1  0
 11 15  1  0
 12 13  1  0
 13 14  1  0
 17 16  1  6
 17 18  1  0
 17 39  1  0
 18 19  1  0
 19 20  1  0
 19 21  1  0
 21 22  2  0
 21 23  1  0
 23 24  1  0
 24 25  1  0
 24 33  1  0
 25 26  2  0
 25 27  1  0
 27 28  1  0
 28 29  2  0
 29 30  2  0
 30 31  2  0
 31 32  2  0
 33 34  2  0
 33 35  1  0
 35 36  1  0
 36 37  1  0
 37 38  1  0
 38 39  1  0
M  END
