
     RDKit          3D

 14 15  0  0  0  0  0  0  0  0999 V2000
    3.7260    1.1100   -0.2450 C   0  0  0  0  0  0  0  0  0  0  0  0
    3.6320   -0.3870   -0.0440 C   0  0  0  0  0  0  0  0  0  0  0  0
    2.4140   -0.6680    0.5620 O   0  0  0  0  0  0  0  0  0  0  0  0
    1.1530   -0.3900    0.0580 C   0  0  0  0  0  0  0  0  0  0  0  0
    0.9240    0.2220   -1.1550 C   0  0  0  0  0  0  0  0  0  0  0  0
   -0.3780    0.4730   -1.6030 C   0  0  0  0  0  0  0  0  0  0  0  0
   -1.4660    0.1180   -0.8480 C   0  0  0  0  0  0  0  0  0  0  0  0
   -1.2480   -0.4940    0.3660 C   0  0  0  0  0  0  0  0  0  0  0  0
    0.0380   -0.7410    0.8060 C   0  0  0  0  0  0  0  0  0  0  0  0
    0.2620   -1.3540    2.0230 O   0  0  0  0  0  0  0  0  0  0  0  0
   -2.3650   -0.8490    1.1230 O   0  0  0  0  0  0  0  0  0  0  0  0
   -3.5460   -0.0440    0.9850 C   0  0  0  0  0  0  0  0  0  0  0  0
   -3.9000   -0.0800   -0.4890 C   0  0  0  0  0  0  0  0  0  0  0  0
   -2.7740    0.3390   -1.2370 O   0  0  0  0  0  0  0  0  0  0  0  0
  1  2  1  0
  2  3  1  0
  3  4  1  0
  4  5  2  0
  4  9  1  0
  5  6  1  0
  6  7  2  0
  7  8  1  0
  7 14  1  0
  8  9  2  0
  8 11  1  0
  9 10  1  0
 11 12  1  0
 12 13  1  0
 13 14  1  0
M  END
