
     RDKit          3D

 14 14  0  0  0  0  0  0  0  0999 V2000
    4.9680    0.3660    0.0510 C   0  0  0  0  0  0  0  0  0  0  0  0
    3.9530    1.2940    0.6320 C   0  0  0  0  0  0  0  0  0  0  0  0
    2.6410    1.0410    0.1750 O   0  0  0  0  0  0  0  0  0  0  0  0
    1.9740   -0.1370    0.3490 C   0  0  0  0  0  0  0  0  0  0  0  0
    2.5200   -1.0890    0.9490 O   0  0  0  0  0  0  0  0  0  0  0  0
    0.5690   -0.2270   -0.2110 C   0  0  0  0  0  0  0  0  0  0  0  0
    0.0120   -1.4290    0.0190 O   0  0  0  0  0  0  0  0  0  0  0  0
   -1.2020   -1.7150   -0.5040 C   0  0  0  0  0  0  0  0  0  0  0  0
   -2.3500   -0.8630   -0.2180 C   0  0  0  0  0  0  0  0  0  0  0  0
   -3.4580   -1.3050    0.4140 C   0  0  0  0  0  0  0  0  0  0  0  0
   -4.4170   -0.1950    0.5350 C   0  0  0  0  0  0  0  0  0  0  0  0
   -3.7620    0.9370   -0.1220 C   0  0  0  0  0  0  0  0  0  0  0  0
   -2.5580    0.5230   -0.5500 C   0  0  0  0  0  0  0  0  0  0  0  0
   -1.7320    1.4310   -1.2150 O   0  0  0  0  0  0  0  0  0  0  0  0
  1  2  1  0
  2  3  1  0
  3  4  1  0
  4  5  2  0
  4  6  1  0
  6  7  1  0
  7  8  1  0
  8  9  1  0
  9 10  2  0
  9 13  1  0
 10 11  1  0
 11 12  1  0
 12 13  2  0
 13 14  1  0
M  END
