
     RDKit          3D

 14 14  0  0  0  0  0  0  0  0999 V2000
    3.4810   -0.9770    0.7360 C   0  0  0  0  0  0  0  0  0  0  0  0
    2.8280   -0.2830   -0.4620 C   0  0  0  0  0  0  0  0  0  0  0  0
    1.3600   -0.2780   -0.3170 C   0  0  0  0  0  0  0  0  0  0  0  0
    0.6020    0.7740   -0.2680 C   0  0  0  0  0  0  0  0  0  0  0  0
    0.9770    2.1780   -0.3420 C   0  0  0  0  0  0  0  0  0  0  0  0
    2.1280    2.6650   -0.4700 O   0  0  0  0  0  0  0  0  0  0  0  0
   -0.2300    2.8900   -0.2390 O   0  0  0  0  0  0  0  0  0  0  0  0
   -1.2780    2.0110   -0.1120 C   0  0  0  0  0  0  0  0  0  0  0  0
   -2.7150    2.4130    0.0220 C   0  0  0  0  0  0  0  0  0  0  0  0
   -0.8690    0.7470   -0.1200 C   0  0  0  0  0  0  0  0  0  0  0  0
   -1.7030   -0.4420   -0.0060 C   0  0  0  0  0  0  0  0  0  0  0  0
   -2.9610   -0.2740    0.1150 O   0  0  0  0  0  0  0  0  0  0  0  0
   -1.2740   -1.7420   -0.0160 O   0  0  0  0  0  0  0  0  0  0  0  0
   -2.1020   -2.8680    0.0960 C   0  0  0  0  0  0  0  0  0  0  0  0
  1  2  1  0
  2  3  1  0
  3  4  2  3
  4  5  1  0
  4 10  1  0
  5  6  2  0
  5  7  1  0
  7  8  1  0
  8  9  1  0
  8 10  2  0
 10 11  1  0
 11 12  2  0
 11 13  1  0
 13 14  1  0
M  END
