
     RDKit          3D

 14 14  0  0  0  0  0  0  0  0999 V2000
    4.3090    0.1770   -0.4300 C   0  0  0  0  0  0  0  0  0  0  0  0
    3.1850    1.1840   -0.3780 C   0  0  0  0  0  0  0  0  0  0  0  0
    2.0000    0.6720    0.4070 C   0  0  0  0  0  0  0  0  0  0  0  0
    1.4160   -0.5740   -0.1600 C   0  0  0  0  0  0  0  0  0  0  0  0
    0.2280   -0.9990    0.7270 C   0  0  0  0  0  0  0  0  0  0  0  0
   -0.8110    0.0120    0.7840 C   0  0  0  0  0  0  0  0  0  0  0  0
   -2.0330   -0.1370    0.3370 C   0  0  0  0  0  0  0  0  0  0  0  0
   -2.9070    0.9690    0.4860 O   0  0  0  0  0  0  0  0  0  0  0  0
   -4.1910    0.8600    0.0340 C   0  0  0  0  0  0  0  0  0  0  0  0
   -5.0360    1.6890    0.4610 O   0  0  0  0  0  0  0  0  0  0  0  0
   -4.6390   -0.1750   -0.9280 C   0  0  0  0  0  0  0  0  0  0  0  0
   -3.9260   -1.3750   -0.7460 O   0  0  0  0  0  0  0  0  0  0  0  0
   -2.5910   -1.3070   -0.2940 C   0  0  0  0  0  0  0  0  0  0  0  0
   -1.8850   -2.3360   -0.4690 O   0  0  0  0  0  0  0  0  0  0  0  0
  1  2  1  0
  2  3  1  0
  3  4  1  0
  4  5  1  0
  5  6  1  0
  6  7  2  3
  7  8  1  0
  7 13  1  0
  8  9  1  0
  9 10  2  0
  9 11  1  0
 11 12  1  0
 12 13  1  0
 13 14  2  0
M  END
