
     RDKit          3D

 14 14  0  0  0  0  0  0  0  0999 V2000
   -2.7280    0.8230   -1.2420 C   0  0  0  0  0  0  0  0  0  0  0  0
   -2.0290   -0.0480   -0.2500 C   0  0  2  0  0  0  0  0  0  0  0  0
   -2.3410   -1.4880   -0.5760 C   0  0  0  0  0  0  0  0  0  0  0  0
   -2.4370    0.2100    1.1690 C   0  0  0  0  0  0  0  0  0  0  0  0
   -0.5540    0.1830   -0.3450 C   0  0  0  0  0  0  0  0  0  0  0  0
   -0.0400    0.9930   -1.1480 O   0  0  0  0  0  0  0  0  0  0  0  0
    0.2870   -0.5310    0.4960 O   0  0  0  0  0  0  0  0  0  0  0  0
    1.6560   -0.3140    0.4060 C   0  0  0  0  0  0  0  0  0  0  0  0
    2.4870   -0.9930   -0.3990 C   0  0  0  0  0  0  0  0  0  0  0  0
    3.8340   -0.4810   -0.2120 C   0  0  0  0  0  0  0  0  0  0  0  0
    4.8750   -0.8750   -0.7980 O   0  0  0  0  0  0  0  0  0  0  0  0
    3.7340    0.5760    0.7880 C   0  0  0  0  0  0  0  0  0  0  0  0
    4.7870    1.3550    1.2850 O   0  0  0  0  0  0  0  0  0  0  0  0
    2.4620    0.6490    1.1260 C   0  0  0  0  0  0  0  0  0  0  0  0
  2  1  1  6
  2  3  1  0
  2  4  1  0
  2  5  1  0
  5  6  2  0
  5  7  1  0
  7  8  1  0
  8  9  2  0
  8 14  1  0
  9 10  1  0
 10 11  2  0
 10 12  1  0
 12 13  1  0
 12 14  2  0
M  END
