
     RDKit          3D

 23 25  0  0  0  0  0  0  0  0999 V2000
    3.8540   -1.1680   -1.4250 O   0  0  0  0  0  0  0  0  0  0  0  0
    3.9760   -0.4580   -0.4070 C   0  0  0  0  0  0  0  0  0  0  0  0
    2.8600    0.1660    0.1390 N   0  0  0  0  0  0  0  0  0  0  0  0
    1.5100    0.1230   -0.3080 C   0  0  0  0  0  0  0  0  0  0  0  0
    1.1130   -0.4440   -1.4730 C   0  0  0  0  0  0  0  0  0  0  0  0
   -0.2390   -0.4460   -1.8210 C   0  0  0  0  0  0  0  0  0  0  0  0
   -1.2070    0.1100   -1.0260 C   0  0  0  0  0  0  0  0  0  0  0  0
   -0.7920    0.6820    0.1540 C   0  0  0  0  0  0  0  0  0  0  0  0
   -1.7110    1.3050    1.0330 N   0  0  0  0  0  0  0  0  0  0  0  0
   -3.1120    0.5640    1.6520 S   0  0  1  0  0  0  0  0  0  0  0  0
   -2.7750   -0.6680    2.4600 O   0  0  0  0  0  0  0  0  0  0  0  0
   -3.7890    1.5190    2.6170 O   0  0  0  0  0  0  0  0  0  0  0  0
   -4.2760    0.0780    0.4600 C   0  0  0  0  0  0  0  0  0  0  0  0
   -4.4200   -1.1120   -0.1000 C   0  0  0  0  0  0  0  0  0  0  0  0
   -5.4850   -1.1250   -1.0290 N   0  0  0  0  0  0  0  0  0  0  0  0
   -6.0190    0.1750   -0.9980 C   0  0  0  0  0  0  0  0  0  0  0  0
   -5.3420    0.9040   -0.1460 C   0  0  0  0  0  0  0  0  0  0  0  0
    0.5350    0.6990    0.5230 C   0  0  0  0  0  0  0  0  0  0  0  0
    5.3300   -0.3080    0.1850 C   0  0  0  0  0  0  0  0  0  0  0  0
    5.6980    0.4160    1.2900 C   0  0  0  0  0  0  0  0  0  0  0  0
    7.0560    0.2750    1.4800 C   0  0  0  0  0  0  0  0  0  0  0  0
    7.4850   -0.5260    0.4940 N   0  0  0  0  0  0  0  0  0  0  0  0
    6.4550   -0.8730   -0.2780 N   0  0  0  0  0  0  0  0  0  0  0  0
  1  2  2  0
  2  3  1  0
  2 19  1  0
  3  4  1  0
  4  5  2  0
  4 18  1  0
  5  6  1  0
  6  7  2  0
  7  8  1  0
  8  9  1  0
  8 18  2  0
 10  9  1  6
 10 11  2  0
 10 12  2  0
 10 13  1  0
 13 14  2  0
 13 17  1  0
 14 15  1  0
 15 16  1  0
 16 17  2  0
 19 20  2  0
 19 23  1  0
 20 21  1  0
 21 22  2  0
 22 23  1  0
M  CHG  1  15   1
M  END
