
     RDKit          3D

 14 14  0  0  0  0  0  0  0  0999 V2000
   -4.8690   -0.8270    0.1100 C   0  0  0  0  0  0  0  0  0  0  0  0
   -3.8660    0.0570   -0.5320 C   0  0  0  0  0  0  0  0  0  0  0  0
   -4.1720    1.1640   -0.8930 O   0  0  0  0  0  0  0  0  0  0  0  0
   -2.4910   -0.4290   -0.7250 C   0  0  0  0  0  0  0  0  0  0  0  0
   -1.5380    0.5510   -0.0780 C   0  0  0  0  0  0  0  0  0  0  0  0
   -0.1860    0.1440   -0.2240 O   0  0  0  0  0  0  0  0  0  0  0  0
    0.8130    0.8990    0.3140 C   0  0  0  0  0  0  0  0  0  0  0  0
    0.4910    1.9620    0.9360 O   0  0  0  0  0  0  0  0  0  0  0  0
    2.2330    0.5450    0.2060 C   0  0  0  0  0  0  0  0  0  0  0  0
    3.2410    1.2310    0.7000 C   0  0  0  0  0  0  0  0  0  0  0  0
    4.5290    0.5900    0.4070 C   0  0  0  0  0  0  0  0  0  0  0  0
    4.1080   -0.6200   -0.3630 C   0  0  0  0  0  0  0  0  0  0  0  0
    2.7890   -0.6210   -0.4630 C   0  0  0  0  0  0  0  0  0  0  0  0
    2.0420   -1.5920   -1.1050 O   0  0  0  0  0  0  0  0  0  0  0  0
  1  2  1  0
  2  3  2  0
  2  4  1  0
  4  5  1  0
  5  6  1  0
  6  7  1  0
  7  8  2  0
  7  9  1  0
  9 10  2  0
  9 13  1  0
 10 11  1  0
 11 12  1  0
 12 13  2  0
 13 14  1  0
M  END
