
     RDKit          3D

 11 11  0  0  0  0  0  0  0  0999 V2000
    3.2140    0.7330   -0.8420 C   0  0  0  0  0  0  0  0  0  0  0  0
    2.0790   -0.1130   -0.3450 C   0  0  0  0  0  0  0  0  0  0  0  0
    1.4430   -0.8640   -1.0750 O   0  0  0  0  0  0  0  0  0  0  0  0
    1.7410   -0.0090    1.0990 C   0  0  0  0  0  0  0  0  0  0  0  0
    0.3880   -1.0540    1.6080 S   0  0  0  0  0  0  0  0  0  0  0  0
   -1.1870   -0.6300    0.9460 C   0  0  0  0  0  0  0  0  0  0  0  0
   -1.4840    0.3170    0.1680 N   0  0  0  0  0  0  0  0  0  0  0  0
   -2.7990    0.4710   -0.2340 C   0  0  0  0  0  0  0  0  0  0  0  0
   -3.2610    1.5600   -0.7350 O   0  0  0  0  0  0  0  0  0  0  0  0
   -3.6740   -0.7100   -0.0540 C   0  0  0  0  0  0  0  0  0  0  0  0
   -2.6940   -1.5270    1.2790 S   0  0  0  0  0  0  0  0  0  0  0  0
  1  2  1  0
  2  3  2  0
  2  4  1  0
  4  5  1  0
  5  6  1  0
  6  7  2  0
  6 11  1  0
  7  8  1  0
  8  9  2  0
  8 10  1  0
 10 11  1  0
M  END
