
     RDKit          3D

 11 11  0  0  0  0  0  0  0  0999 V2000
   -1.4210   -1.8660   -0.0770 C   0  0  0  0  0  0  0  0  0  0  0  0
   -1.2510   -0.4300   -0.2880 N   0  0  0  0  0  0  0  0  0  0  0  0
   -2.2410    0.2330    0.5030 C   0  0  0  0  0  0  0  0  0  0  0  0
   -2.2250    2.0190    0.3050 S   0  0  0  0  0  0  0  0  0  0  0  0
    0.0800   -0.1350    0.2420 C   0  0  1  0  0  0  0  0  0  0  0  0
    1.0720   -0.8850   -0.5530 C   0  0  0  0  0  0  0  0  0  0  0  0
    2.2450   -0.0540   -0.9070 C   0  0  0  0  0  0  0  0  0  0  0  0
    2.2040    1.1910    0.3600 S   0  0  1  0  0  0  0  0  0  0  0  0
    2.6450    0.6210    1.6590 O   0  0  0  0  0  0  0  0  0  0  0  0
    2.8390    2.4520   -0.0240 O   0  0  0  0  0  0  0  0  0  0  0  0
    0.4000    1.3080    0.3440 C   0  0  0  0  0  0  0  0  0  0  0  0
  1  2  1  0
  2  3  1  0
  5  2  1  6
  3  4  1  0
  5  6  1  0
  5 11  1  0
  6  7  1  0
  8  7  1  6
  8  9  2  0
  8 10  2  0
  8 11  1  0
M  END
