
     RDKit          3D

 11 11  0  0  0  0  0  0  0  0999 V2000
    2.4580   -0.3500    1.2880 C   0  0  0  0  0  0  0  0  0  0  0  0
    1.6880   -0.0910    0.1310 O   0  0  0  0  0  0  0  0  0  0  0  0
    1.6270   -0.9780   -0.9080 C   0  0  0  0  0  0  0  0  0  0  0  0
    2.2510   -2.0490   -0.8690 O   0  0  0  0  0  0  0  0  0  0  0  0
    0.7730   -0.5900   -2.0860 C   0  0  0  0  0  0  0  0  0  0  0  0
    0.0010    1.0040   -1.8590 S   0  0  0  0  0  0  0  0  0  0  0  0
   -1.2170    0.9800   -0.4980 C   0  0  0  0  0  0  0  0  0  0  0  0
   -1.4610   -0.0670    0.2010 C   0  0  0  0  0  0  0  0  0  0  0  0
   -2.4700    0.0310    1.2800 C   0  0  0  0  0  0  0  0  0  0  0  0
   -2.6420    1.8370    1.3980 S   0  0  0  0  0  0  0  0  0  0  0  0
   -1.9320    2.1640   -0.1870 N   0  0  0  0  0  0  0  0  0  0  0  0
  1  2  1  0
  2  3  1  0
  3  4  2  0
  3  5  1  0
  5  6  1  0
  6  7  1  0
  7  8  2  0
  7 11  1  0
  8  9  1  0
  9 10  1  0
 10 11  1  0
M  END
