
     RDKit          3D

 11 11  0  0  0  0  0  0  0  0999 V2000
   -3.0280   -0.5690    0.6210 C   0  0  0  0  0  0  0  0  0  0  0  0
   -3.0860    0.7770    0.6050 O   0  0  0  0  0  0  0  0  0  0  0  0
   -2.3950    1.5220   -0.2740 C   0  0  0  0  0  0  0  0  0  0  0  0
   -0.9190    1.3230   -0.1910 C   0  0  0  0  0  0  0  0  0  0  0  0
   -0.4900   -0.3800   -0.6060 S   0  0  0  0  0  0  0  0  0  0  0  0
    1.2600   -0.5930   -0.5020 C   0  0  0  0  0  0  0  0  0  0  0  0
    2.1280    0.2630   -0.1860 N   0  0  0  0  0  0  0  0  0  0  0  0
    3.4600   -0.1050   -0.1650 C   0  0  0  0  0  0  0  0  0  0  0  0
    4.4590    0.6980   -0.2220 O   0  0  0  0  0  0  0  0  0  0  0  0
    3.7160   -1.5670   -0.0680 C   0  0  0  0  0  0  0  0  0  0  0  0
    2.1260   -2.1210   -0.8310 S   0  0  0  0  0  0  0  0  0  0  0  0
  1  2  1  0
  2  3  1  0
  3  4  1  0
  4  5  1  0
  5  6  1  0
  6  7  2  0
  6 11  1  0
  7  8  1  0
  8  9  2  0
  8 10  1  0
 10 11  1  0
M  END
