
     RDKit          3D

 29 31  0  0  0  0  0  0  0  0999 V2000
    5.6040    0.9840    0.7100 N   0  0  0  0  0  0  0  0  0  0  0  0
    5.0790    0.0450    1.5780 C   0  0  0  0  0  0  0  0  0  0  0  0
    5.0550    0.3860    2.8160 O   0  0  0  0  0  0  0  0  0  0  0  0
    4.5520   -1.3020    1.1450 C   0  0  2  0  0  0  0  0  0  0  0  0
    5.3280   -2.1280    0.2620 C   0  0  0  0  0  0  0  0  0  0  0  0
    5.6030   -1.8280   -1.1480 C   0  0  0  0  0  0  0  0  0  0  0  0
    6.2370   -0.6010   -1.5720 C   0  0  0  0  0  0  0  0  0  0  0  0
    5.5500    0.2360   -2.2870 O   0  0  0  0  0  0  0  0  0  0  0  0
    7.5370   -0.2860   -1.2480 O   0  0  0  0  0  0  0  0  0  0  0  0
    3.2420   -0.8910    0.5430 N   0  0  0  0  0  0  0  0  0  0  0  0
    2.4100   -0.1000    1.3440 C   0  0  0  0  0  0  0  0  0  0  0  0
    2.6440    0.2480    2.5480 O   0  0  0  0  0  0  0  0  0  0  0  0
    1.1350    0.4340    0.7980 C   0  0  0  0  0  0  0  0  0  0  0  0
    0.2950   -0.3250    0.0740 C   0  0  0  0  0  0  0  0  0  0  0  0
   -0.9040    0.2250   -0.3860 C   0  0  0  0  0  0  0  0  0  0  0  0
   -1.2250    1.5280   -0.0930 C   0  0  0  0  0  0  0  0  0  0  0  0
   -2.6250    1.9190   -0.4170 C   0  0  0  0  0  0  0  0  0  0  0  0
   -3.6440    1.0300   -0.4060 C   0  0  0  0  0  0  0  0  0  0  0  0
   -4.9100    1.4160   -0.5680 C   0  0  0  0  0  0  0  0  0  0  0  0
   -6.0300    0.4130   -0.4240 C   0  0  0  0  0  0  0  0  0  0  0  0
   -7.1870    0.4530   -1.0720 C   0  0  0  0  0  0  0  0  0  0  0  0
   -8.1420   -0.5890   -0.8560 C   0  0  0  0  0  0  0  0  0  0  0  0
   -7.9160   -1.6410   -0.0040 C   0  0  0  0  0  0  0  0  0  0  0  0
   -6.6880   -1.6500    0.6710 C   0  0  0  0  0  0  0  0  0  0  0  0
   -5.8020   -0.6640    0.4550 C   0  0  0  0  0  0  0  0  0  0  0  0
   -5.1360    2.7420   -0.7570 C   0  0  0  0  0  0  0  0  0  0  0  0
   -3.4160    3.4170   -0.6810 S   0  0  0  0  0  0  0  0  0  0  0  0
   -0.3890    2.2960    0.6300 C   0  0  0  0  0  0  0  0  0  0  0  0
    0.8250    1.7400    1.0880 C   0  0  0  0  0  0  0  0  0  0  0  0
  1  2  1  0
  2  3  2  0
  2  4  1  0
  4  5  1  6
  4 10  1  0
  5  6  1  0
  6  7  1  0
  7  8  2  0
  7  9  1  0
 10 11  1  0
 11 12  2  0
 11 13  1  0
 13 14  2  0
 13 29  1  0
 14 15  1  0
 15 16  2  0
 16 17  1  0
 16 28  1  0
 17 18  2  0
 17 27  1  0
 18 19  1  0
 19 20  1  0
 19 26  2  0
 20 21  2  0
 20 25  1  0
 21 22  1  0
 22 23  2  0
 23 24  1  0
 24 25  2  0
 26 27  1  0
 28 29  2  0
M  END
