
     RDKit          3D

 30 33  0  0  0  0  0  0  0  0999 V2000
   -4.4780   -1.3460    3.6410 C   0  0  0  0  0  0  0  0  0  0  0  0
   -3.3470   -0.3280    3.5390 C   0  0  0  0  0  0  0  0  0  0  0  0
   -3.6670    0.6120    2.4920 N   0  0  0  0  0  0  0  0  0  0  0  0
   -4.3610    1.7410    2.7090 C   0  0  0  0  0  0  0  0  0  0  0  0
   -4.4780    2.3820    1.5100 C   0  0  0  0  0  0  0  0  0  0  0  0
   -3.8560    1.6250    0.6200 N   0  0  0  0  0  0  0  0  0  0  0  0
   -3.3290    0.5110    1.1630 C   0  0  0  0  0  0  0  0  0  0  0  0
   -2.6150   -0.6120    0.5700 C   0  0  0  0  0  0  0  0  0  0  0  0
   -1.5640   -0.4240   -0.2060 C   0  0  0  0  0  0  0  0  0  0  0  0
   -1.1320    0.9390   -0.4520 C   0  0  0  0  0  0  0  0  0  0  0  0
   -0.1180    1.4450   -1.1130 C   0  0  0  0  0  0  0  0  0  0  0  0
    0.9810    0.9290   -1.8500 C   0  0  0  0  0  0  0  0  0  0  0  0
    2.2860    0.8080   -1.5690 C   0  0  0  0  0  0  0  0  0  0  0  0
    2.9810    1.1990   -0.3650 C   0  0  0  0  0  0  0  0  0  0  0  0
    4.1090    1.9110   -0.4970 N   0  0  0  0  0  0  0  0  0  0  0  0
    4.6010    2.2670   -1.7720 C   0  0  0  0  0  0  0  0  0  0  0  0
    5.8700    2.0240   -2.2720 C   0  0  0  0  0  0  0  0  0  0  0  0
    5.8940    2.5390   -3.5530 C   0  0  0  0  0  0  0  0  0  0  0  0
    4.6960    3.0670   -3.8080 N   0  0  0  0  0  0  0  0  0  0  0  0
    3.9300    2.9070   -2.7590 N   0  0  0  0  0  0  0  0  0  0  0  0
    2.6360    0.9570    0.9840 N   0  0  0  0  0  0  0  0  0  0  0  0
    2.5640   -0.2960    1.6820 C   0  0  0  0  0  0  0  0  0  0  0  0
    1.2310   -0.9290    1.3100 C   0  0  0  0  0  0  0  0  0  0  0  0
    1.2810   -1.4330    0.0030 O   0  0  0  0  0  0  0  0  0  0  0  0
    0.2950   -2.1020   -0.7100 C   0  0  0  0  0  0  0  0  0  0  0  0
    0.6590   -3.2900   -1.3750 C   0  0  0  0  0  0  0  0  0  0  0  0
   -0.2130   -4.0580   -2.1070 C   0  0  0  0  0  0  0  0  0  0  0  0
   -1.5130   -3.6270   -2.1830 C   0  0  0  0  0  0  0  0  0  0  0  0
   -1.8810   -2.4770   -1.5460 C   0  0  0  0  0  0  0  0  0  0  0  0
   -1.0040   -1.6700   -0.7910 C   0  0  0  0  0  0  0  0  0  0  0  0
  1  2  1  0
  2  3  1  0
  3  4  1  0
  3  7  1  0
  4  5  2  0
  5  6  1  0
  6  7  2  0
  7  8  1  0
  8  9  2  3
  9 10  1  0
  9 30  1  0
 10 11  2  0
 11 12  1  0
 12 13  2  0
 13 14  1  0
 14 15  2  3
 14 21  1  0
 15 16  1  0
 16 17  1  0
 16 20  2  0
 17 18  2  0
 18 19  1  0
 19 20  1  0
 21 22  1  0
 22 23  1  0
 23 24  1  0
 24 25  1  0
 25 26  2  0
 25 30  1  0
 26 27  1  0
 27 28  2  0
 28 29  1  0
 29 30  2  0
M  END
