
     RDKit          3D

 31 33  0  0  0  0  0  0  0  0999 V2000
    0.4170    6.1260    0.7030 C   0  0  0  0  0  0  0  0  0  0  0  0
    0.3830    4.6590    0.4590 C   0  0  0  0  0  0  0  0  0  0  0  0
    0.6960    4.1700   -0.8110 C   0  0  0  0  0  0  0  0  0  0  0  0
    0.6590    2.8050   -1.0200 C   0  0  0  0  0  0  0  0  0  0  0  0
    0.3270    1.9050   -0.0300 C   0  0  0  0  0  0  0  0  0  0  0  0
    0.3150    0.4780   -0.3490 C   0  0  1  0  0  0  0  0  0  0  0  0
    1.5970   -0.1200    0.1860 C   0  0  0  0  0  0  0  0  0  0  0  0
    1.5180   -1.6140   -0.1000 C   0  0  1  0  0  0  0  0  0  0  0  0
    2.8320   -2.2210    0.1490 C   0  0  0  0  0  0  0  0  0  0  0  0
    2.9680   -3.1220    1.0070 O   0  0  0  0  0  0  0  0  0  0  0  0
    3.9520   -1.8120   -0.5560 O   0  0  0  0  0  0  0  0  0  0  0  0
    5.1870   -2.4120   -0.2920 C   0  0  1  0  0  0  0  0  0  0  0  0
    5.7540   -3.0360   -1.5640 C   0  0  0  0  0  0  0  0  0  0  0  0
    6.1690   -1.3280    0.1600 C   0  0  0  0  0  0  0  0  0  0  0  0
    7.4070   -1.8730    0.4340 O   0  0  0  0  0  0  0  0  0  0  0  0
    0.4900   -2.2030    0.7990 C   0  0  0  0  0  0  0  0  0  0  0  0
   -0.7550   -1.3770    0.9870 C   0  0  0  0  0  0  0  0  0  0  0  0
   -0.8500   -0.2130    0.1780 N   0  0  0  0  0  0  0  0  0  0  0  0
   -2.1190    0.3340   -0.1500 C   0  0  0  0  0  0  0  0  0  0  0  0
   -2.2050    1.4000   -0.8640 O   0  0  0  0  0  0  0  0  0  0  0  0
   -3.4260   -0.2370    0.2710 C   0  0  1  0  0  0  0  0  0  0  0  0
   -4.5260    0.8200    0.0660 C   0  0  0  0  0  0  0  0  0  0  0  0
   -5.7470    0.3480    0.4690 O   0  0  0  0  0  0  0  0  0  0  0  0
   -6.1660   -0.7790   -0.2130 C   0  0  0  0  0  0  0  0  0  0  0  0
   -5.1490   -1.0610   -1.2980 C   0  0  0  0  0  0  0  0  0  0  0  0
   -3.8440   -1.4240   -0.5730 C   0  0  1  0  0  0  0  0  0  0  0  0
   -2.8690   -1.8060   -1.6300 C   0  0  0  0  0  0  0  0  0  0  0  0
   -4.1630   -2.5470    0.1920 O   0  0  0  0  0  0  0  0  0  0  0  0
    0.0240    2.4250    1.2100 C   0  0  0  0  0  0  0  0  0  0  0  0
    0.0490    3.7800    1.4640 C   0  0  0  0  0  0  0  0  0  0  0  0
   -0.2650    4.2440    2.7320 O   0  0  0  0  0  0  0  0  0  0  0  0
  1  2  1  0
  2  3  2  0
  2 30  1  0
  3  4  1  0
  4  5  2  0
  6  5  1  1
  5 29  1  0
  6  7  1  0
  6 18  1  0
  7  8  1  0
  8  9  1  1
  8 16  1  0
  9 10  2  0
  9 11  1  0
 11 12  1  0
 12 13  1  6
 12 14  1  0
 14 15  1  0
 16 17  1  0
 17 18  1  0
 18 19  1  0
 19 20  2  0
 21 19  1  6
 21 22  1  0
 21 26  1  0
 22 23  1  0
 23 24  1  0
 24 25  1  0
 25 26  1  0
 26 27  1  6
 26 28  1  0
 29 30  2  0
 30 31  1  0
M  END
