
     RDKit          3D

 31 33  0  0  0  0  0  0  0  0999 V2000
    1.7430    5.7840   -2.5720 C   0  0  0  0  0  0  0  0  0  0  0  0
    1.4180    5.0850   -1.3850 O   0  0  0  0  0  0  0  0  0  0  0  0
    1.0590    3.7660   -1.3340 C   0  0  0  0  0  0  0  0  0  0  0  0
    1.0140    3.1240   -2.4210 O   0  0  0  0  0  0  0  0  0  0  0  0
    0.7290    3.0670   -0.0980 C   0  0  0  0  0  0  0  0  0  0  0  0
    0.7410    3.5980    1.0170 O   0  0  0  0  0  0  0  0  0  0  0  0
    0.3620    1.6970   -0.0930 N   0  0  0  0  0  0  0  0  0  0  0  0
    0.0330    0.9610    1.0430 C   0  0  2  0  0  0  0  0  0  0  0  0
    1.1250   -0.0360    1.2560 C   0  0  0  0  0  0  0  0  0  0  0  0
    2.1570   -0.1760    0.3540 C   0  0  0  0  0  0  0  0  0  0  0  0
    3.1210   -1.1080    0.6130 C   0  0  0  0  0  0  0  0  0  0  0  0
    4.1620   -1.2600   -0.2830 O   0  0  0  0  0  0  0  0  0  0  0  0
    4.2800   -0.4990   -1.4550 C   0  0  0  0  0  0  0  0  0  0  0  0
    5.5160   -0.8950   -2.2220 C   0  0  0  0  0  0  0  0  0  0  0  0
    6.6610   -0.6990   -1.4720 O   0  0  0  0  0  0  0  0  0  0  0  0
    3.0350   -1.8740    1.7580 C   0  0  0  0  0  0  0  0  0  0  0  0
    4.0380   -2.7990    1.9670 O   0  0  0  0  0  0  0  0  0  0  0  0
    3.9960   -3.6050    3.1210 C   0  0  0  0  0  0  0  0  0  0  0  0
    2.0160   -1.7370    2.6520 C   0  0  0  0  0  0  0  0  0  0  0  0
    1.0350   -0.7990    2.4020 C   0  0  0  0  0  0  0  0  0  0  0  0
   -0.1120   -0.5560    3.2860 C   0  0  0  0  0  0  0  0  0  0  0  0
   -1.3880   -0.2210    2.6150 C   0  0  0  0  0  0  0  0  0  0  0  0
   -1.2240    0.2300    1.1530 C   0  0  1  0  0  0  0  0  0  0  0  0
   -2.3910    0.8730    0.8740 O   0  0  0  0  0  0  0  0  0  0  0  0
   -3.1250    0.1250   -0.0410 C   0  0  2  0  0  0  0  0  0  0  0  0
   -3.3700    0.8740   -1.3330 C   0  0  0  0  0  0  0  0  0  0  0  0
   -4.7180    0.5360   -1.9260 C   0  0  0  0  0  0  0  0  0  0  0  0
   -5.0540   -0.9230   -1.7940 C   0  0  0  0  0  0  0  0  0  0  0  0
   -4.9560   -1.4390   -0.3910 C   0  0  1  0  0  0  0  0  0  0  0  0
   -3.9650   -2.5870   -0.3790 C   0  0  0  0  0  0  0  0  0  0  0  0
   -4.4710   -0.2960    0.4940 C   0  0  0  0  0  0  0  0  0  0  0  0
  1  2  1  0
  2  3  1  0
  3  4  2  0
  3  5  1  0
  5  6  2  0
  5  7  1  0
  8  7  1  6
  8  9  1  0
  8 23  1  0
  9 10  2  0
  9 20  1  0
 10 11  1  0
 11 12  1  0
 11 16  2  0
 12 13  1  0
 13 14  1  0
 14 15  1  0
 16 17  1  0
 16 19  1  0
 17 18  1  0
 19 20  2  0
 20 21  1  0
 21 22  1  0
 22 23  1  0
 23 24  1  1
 25 24  1  1
 25 26  1  0
 25 31  1  0
 26 27  1  0
 27 28  1  0
 28 29  1  0
 29 30  1  6
 29 31  1  0
M  END
