
     RDKit          3D

 31 33  0  0  0  0  0  0  0  0999 V2000
   -1.5290    2.7580   -2.8950 C   0  0  0  0  0  0  0  0  0  0  0  0
   -1.9270    1.8750   -1.7460 C   0  0  0  0  0  0  0  0  0  0  0  0
   -1.4350    0.5860   -1.6300 C   0  0  0  0  0  0  0  0  0  0  0  0
   -1.7460   -0.2840   -0.6120 C   0  0  0  0  0  0  0  0  0  0  0  0
   -1.3120   -1.6690   -0.5280 C   0  0  1  0  0  0  0  0  0  0  0  0
   -1.5590   -2.2860   -1.8380 O   0  0  0  0  0  0  0  0  0  0  0  0
    0.1120   -1.9860   -0.3070 C   0  0  0  0  0  0  0  0  0  0  0  0
    0.4290   -2.7750    0.7190 C   0  0  0  0  0  0  0  0  0  0  0  0
   -0.5580   -3.3430    1.6720 C   0  0  0  0  0  0  0  0  0  0  0  0
   -0.1770   -2.8440    2.9560 O   0  0  0  0  0  0  0  0  0  0  0  0
    1.7760   -3.1630    0.9760 O   0  0  0  0  0  0  0  0  0  0  0  0
    2.8100   -2.7640    0.1950 C   0  0  0  0  0  0  0  0  0  0  0  0
    2.5580   -1.9950   -0.8220 C   0  0  0  0  0  0  0  0  0  0  0  0
    3.6980   -1.5870   -1.6570 C   0  0  0  0  0  0  0  0  0  0  0  0
    3.5050   -1.1360   -2.7880 O   0  0  0  0  0  0  0  0  0  0  0  0
    5.0890   -1.7190   -1.1350 C   0  0  0  0  0  0  0  0  0  0  0  0
    5.0820   -2.1030    0.2070 O   0  0  0  0  0  0  0  0  0  0  0  0
    4.2350   -3.1570    0.4310 C   0  0  0  0  0  0  0  0  0  0  0  0
    1.2160   -1.4480   -1.1250 C   0  0  2  0  0  0  0  0  0  0  0  0
    1.3970    0.0400   -0.8460 C   0  0  0  0  0  0  0  0  0  0  0  0
    1.7300    0.7550   -1.8130 O   0  0  0  0  0  0  0  0  0  0  0  0
    1.2210    0.6060    0.3780 O   0  0  0  0  0  0  0  0  0  0  0  0
    1.3830    1.9710    0.6820 C   0  0  1  0  0  0  0  0  0  0  0  0
    0.1570    2.6330    1.2140 C   0  0  0  0  0  0  0  0  0  0  0  0
    2.5100    2.2130    1.6600 C   0  0  0  0  0  0  0  0  0  0  0  0
   -2.6290    0.1750    0.3730 C   0  0  0  0  0  0  0  0  0  0  0  0
   -3.0410   -0.6650    1.5120 C   0  0  0  0  0  0  0  0  0  0  0  0
   -3.1180    1.4530    0.2580 C   0  0  0  0  0  0  0  0  0  0  0  0
   -4.0580    1.9570    1.2970 C   0  0  0  0  0  0  0  0  0  0  0  0
   -2.7930    2.3170   -0.7720 C   0  0  0  0  0  0  0  0  0  0  0  0
   -3.3200    3.6290   -0.8520 N   0  0  0  0  0  0  0  0  0  0  0  0
  1  2  1  0
  2  3  2  0
  2 30  1  0
  3  4  1  0
  4  5  1  0
  4 26  2  0
  5  6  1  6
  5  7  1  0
  7  8  2  0
  7 19  1  0
  8  9  1  0
  8 11  1  0
  9 10  1  0
 11 12  1  0
 12 13  2  0
 12 18  1  0
 13 14  1  0
 13 19  1  0
 14 15  2  0
 14 16  1  0
 16 17  1  0
 17 18  1  0
 19 20  1  1
 20 21  2  0
 20 22  1  0
 22 23  1  0
 23 24  1  1
 23 25  1  0
 26 27  1  0
 26 28  1  0
 28 29  1  0
 28 30  2  0
 30 31  1  0
M  END
