
     RDKit          3D

 30 33  0  0  0  0  0  0  0  0999 V2000
   -6.5720   -4.3440   -0.3270 C   0  0  0  0  0  0  0  0  0  0  0  0
   -5.4020   -3.4120   -0.2110 C   0  0  0  0  0  0  0  0  0  0  0  0
   -4.9850   -2.7380   -1.3500 C   0  0  0  0  0  0  0  0  0  0  0  0
   -3.9200   -1.8700   -1.3170 C   0  0  0  0  0  0  0  0  0  0  0  0
   -3.2560   -1.6630   -0.1370 C   0  0  0  0  0  0  0  0  0  0  0  0
   -2.1530   -0.7530   -0.1390 N   0  0  0  0  0  0  0  0  0  0  0  0
   -2.4380    0.6420   -0.0270 C   0  0  0  0  0  0  0  0  0  0  0  0
   -1.2230    1.4910   -0.0370 C   0  0  0  0  0  0  0  0  0  0  0  0
   -1.3560    2.9190    0.0740 N   0  0  0  0  0  0  0  0  0  0  0  0
   -0.1920    3.7500   -0.0190 C   0  0  0  0  0  0  0  0  0  0  0  0
   -0.4810    5.1770    0.1230 C   0  0  0  0  0  0  0  0  0  0  0  0
   -0.5300    5.9200    1.2670 C   0  0  0  0  0  0  0  0  0  0  0  0
   -0.8320    7.2040    0.9580 N   0  0  0  0  0  0  0  0  0  0  0  0
   -0.9630    7.2240   -0.3660 N   0  0  0  0  0  0  0  0  0  0  0  0
   -0.7570    6.0210   -0.8840 N   0  0  0  0  0  0  0  0  0  0  0  0
   -0.0440    0.9880   -0.1400 N   0  0  0  0  0  0  0  0  0  0  0  0
    0.2590   -0.3900   -0.2530 C   0  0  0  0  0  0  0  0  0  0  0  0
    1.5150   -0.7960   -0.3540 C   0  0  0  0  0  0  0  0  0  0  0  0
    2.5710    0.1850   -0.3470 C   0  0  0  0  0  0  0  0  0  0  0  0
    3.8190   -0.1870   -0.4440 C   0  0  0  0  0  0  0  0  0  0  0  0
    4.3720   -1.5570   -0.5700 C   0  0  0  0  0  0  0  0  0  0  0  0
    5.4960   -1.5000    0.4740 C   0  0  0  0  0  0  0  0  0  0  0  0
    6.0560   -0.1140    0.3040 C   0  0  1  0  0  0  0  0  0  0  0  0
    7.3400   -0.2460   -0.5190 C   0  0  0  0  0  0  0  0  0  0  0  0
    5.0460    0.6850   -0.4570 C   0  0  0  0  0  0  0  0  0  0  0  0
   -0.8620   -1.3300   -0.2540 C   0  0  0  0  0  0  0  0  0  0  0  0
   -0.6460   -2.5480   -0.3520 O   0  0  0  0  0  0  0  0  0  0  0  0
   -3.6740   -2.3350    0.9930 C   0  0  0  0  0  0  0  0  0  0  0  0
   -2.9390   -2.0980    2.2640 C   0  0  0  0  0  0  0  0  0  0  0  0
   -4.7400   -3.2060    0.9640 C   0  0  0  0  0  0  0  0  0  0  0  0
  1  2  1  0
  2  3  2  0
  2 30  1  0
  3  4  1  0
  4  5  2  0
  5  6  1  0
  5 28  1  0
  6  7  1  0
  6 26  1  0
  7  8  1  0
  8  9  1  0
  8 16  2  0
  9 10  1  0
 10 11  1  0
 11 12  2  0
 11 15  1  0
 12 13  1  0
 13 14  2  0
 14 15  1  0
 16 17  1  0
 17 18  2  3
 17 26  1  0
 18 19  1  0
 19 20  2  3
 20 21  1  0
 20 25  1  0
 21 22  1  0
 22 23  1  0
 23 24  1  6
 23 25  1  0
 26 27  2  0
 28 29  1  0
 28 30  2  0
M  END
