
     RDKit          3D

 31 32  0  0  0  0  0  0  0  0999 V2000
    7.3280   -0.6120   -1.8810 C   0  0  0  0  0  0  0  0  0  0  0  0
    5.9920   -0.0410   -1.7170 C   0  0  0  0  0  0  0  0  0  0  0  0
    5.3000   -0.2450   -0.5810 C   0  0  0  0  0  0  0  0  0  0  0  0
    3.9800    0.3890   -0.5600 C   0  0  0  0  0  0  0  0  0  0  0  0
    2.7890   -0.1030   -0.1540 C   0  0  0  0  0  0  0  0  0  0  0  0
    1.7330    0.8550   -0.2970 C   0  0  0  0  0  0  0  0  0  0  0  0
    0.4590    0.9580   -0.0750 C   0  0  0  0  0  0  0  0  0  0  0  0
   -0.1770    2.2650   -0.4400 C   0  0  0  0  0  0  0  0  0  0  0  0
   -1.4520    2.4730   -0.2420 C   0  0  0  0  0  0  0  0  0  0  0  0
   -1.9720    3.8030   -0.6400 C   0  0  0  0  0  0  0  0  0  0  0  0
   -1.2130    4.6650   -1.1380 O   0  0  0  0  0  0  0  0  0  0  0  0
   -3.3090    4.1070   -0.4640 O   0  0  0  0  0  0  0  0  0  0  0  0
   -3.8640    5.3590   -0.8260 C   0  0  0  0  0  0  0  0  0  0  0  0
   -2.3480    1.4810    0.3360 C   0  0  0  0  0  0  0  0  0  0  0  0
   -3.7230    1.7950    0.5120 N   0  0  0  0  0  0  0  0  0  0  0  0
   -4.7020    1.7030   -0.5310 C   0  0  0  0  0  0  0  0  0  0  0  0
   -1.8770    0.3020    0.6880 C   0  0  0  0  0  0  0  0  0  0  0  0
   -2.7340   -0.6730    1.2500 O   0  0  0  0  0  0  0  0  0  0  0  0
   -3.4130   -1.5920    0.4630 C   0  0  0  0  0  0  0  0  0  0  0  0
   -3.2100   -1.4910   -0.7940 O   0  0  0  0  0  0  0  0  0  0  0  0
   -4.3140   -2.6240    1.0290 C   0  0  2  0  0  0  0  0  0  0  0  0
   -4.8760   -3.4280   -0.1220 C   0  0  0  0  0  0  0  0  0  0  0  0
   -5.3860   -2.0730    1.9150 C   0  0  0  0  0  0  0  0  0  0  0  0
   -6.1900   -1.1910    1.2250 O   0  0  0  0  0  0  0  0  0  0  0  0
   -0.4560    0.0030    0.4930 C   0  0  0  0  0  0  0  0  0  0  0  0
   -0.1290   -1.1350    0.8620 O   0  0  0  0  0  0  0  0  0  0  0  0
    2.4940   -1.4630    0.3570 C   0  0  0  0  0  0  0  0  0  0  0  0
    3.8020   -2.2960    0.1990 C   0  0  0  0  0  0  0  0  0  0  0  0
    4.8020   -1.8370    1.2400 C   0  0  0  0  0  0  0  0  0  0  0  0
    5.8970   -1.0210    0.5180 C   0  0  1  0  0  0  0  0  0  0  0  0
    6.8790   -1.8820    0.0610 O   0  0  0  0  0  0  0  0  0  0  0  0
  1  2  1  0
  2  3  2  3
  3  4  1  0
  3 30  1  0
  4  5  2  0
  5  6  1  0
  5 27  1  0
  6  7  2  3
  7  8  1  0
  7 25  1  0
  8  9  2  0
  9 10  1  0
  9 14  1  0
 10 11  2  0
 10 12  1  0
 12 13  1  0
 14 15  1  0
 14 17  2  0
 15 16  1  0
 17 18  1  0
 17 25  1  0
 18 19  1  0
 19 20  2  0
 19 21  1  0
 21 22  1  6
 21 23  1  0
 23 24  1  0
 25 26  2  0
 27 28  1  0
 28 29  1  0
 29 30  1  0
 30 31  1  6
M  END
