
     RDKit          3D

 30 33  0  0  0  0  0  0  0  0999 V2000
    6.3120   -2.0910   -0.8730 C   0  0  0  0  0  0  0  0  0  0  0  0
    4.8770   -2.2600   -1.2370 C   0  0  0  0  0  0  0  0  0  0  0  0
    4.0240   -2.5540   -0.1160 N   0  0  0  0  0  0  0  0  0  0  0  0
    2.6520   -2.7180   -0.4550 C   0  0  0  0  0  0  0  0  0  0  0  0
    1.7590   -1.8170    0.2510 N   0  0  0  0  0  0  0  0  0  0  0  0
    2.2150   -0.6170    0.8350 C   0  0  0  0  0  0  0  0  0  0  0  0
    3.5200   -0.6160    1.2660 C   0  0  0  0  0  0  0  0  0  0  0  0
    4.0480    0.5110    1.8540 C   0  0  0  0  0  0  0  0  0  0  0  0
    3.2430    1.6200    1.9960 C   0  0  0  0  0  0  0  0  0  0  0  0
    3.7250    2.8670    2.6160 C   0  0  0  0  0  0  0  0  0  0  0  0
    1.9110    1.5860    1.5440 C   0  0  0  0  0  0  0  0  0  0  0  0
    1.3660    0.4750    0.9560 C   0  0  0  0  0  0  0  0  0  0  0  0
    0.0380    0.4300    0.4860 N   0  0  0  0  0  0  0  0  0  0  0  0
   -0.9770    1.3870    0.5380 C   0  0  0  0  0  0  0  0  0  0  0  0
   -0.6320    2.4800    1.1230 O   0  0  0  0  0  0  0  0  0  0  0  0
   -2.3330    1.3290    0.0430 C   0  0  0  0  0  0  0  0  0  0  0  0
   -3.3100    2.2430    0.5010 C   0  0  0  0  0  0  0  0  0  0  0  0
   -3.1630    3.2560    1.4680 N   0  0  0  0  0  0  0  0  0  0  0  0
   -2.8240    2.9290    2.8250 C   0  0  0  0  0  0  0  0  0  0  0  0
   -3.3570    4.6270    1.0830 C   0  0  0  0  0  0  0  0  0  0  0  0
   -4.4360    1.9480   -0.1690 N   0  0  0  0  0  0  0  0  0  0  0  0
   -4.2050    0.9460   -0.9760 N   0  0  0  0  0  0  0  0  0  0  0  0
   -2.9100    0.5500   -0.8580 N   0  0  0  0  0  0  0  0  0  0  0  0
   -2.3350   -0.5120   -1.6230 C   0  0  1  0  0  0  0  0  0  0  0  0
   -2.6080   -1.7990   -0.9170 C   0  0  0  0  0  0  0  0  0  0  0  0
   -4.0890   -2.0810   -0.7540 C   0  0  0  0  0  0  0  0  0  0  0  0
   -4.8300   -2.0440   -2.0520 C   0  0  0  0  0  0  0  0  0  0  0  0
   -3.8100   -1.8540   -3.1580 C   0  0  0  0  0  0  0  0  0  0  0  0
   -3.0390   -0.5870   -3.0100 C   0  0  0  0  0  0  0  0  0  0  0  0
    4.3240   -1.8380    1.0760 C   0  0  0  0  0  0  0  0  0  0  0  0
  1  2  1  0
  2  3  1  0
  3  4  1  0
  3 30  1  0
  4  5  1  0
  5  6  1  0
  6  7  2  0
  6 12  1  0
  7  8  1  0
  7 30  1  0
  8  9  2  0
  9 10  1  0
  9 11  1  0
 11 12  2  0
 12 13  1  0
 13 14  1  0
 14 15  2  0
 14 16  1  0
 16 17  2  0
 16 23  1  0
 17 18  1  0
 17 21  1  0
 18 19  1  0
 18 20  1  0
 21 22  2  0
 22 23  1  0
 24 23  1  1
 24 25  1  0
 24 29  1  0
 25 26  1  0
 26 27  1  0
 27 28  1  0
 28 29  1  0
M  END
