
     RDKit          3D

 17 19  0  0  0  0  0  0  0  0999 V2000
    5.1290    0.4790   -0.0560 C   0  0  0  0  0  0  0  0  0  0  0  0
    3.6720    0.5980   -0.1580 N   0  0  0  0  0  0  0  0  0  0  0  0
    3.1390    1.7490   -0.6030 C   0  0  0  0  0  0  0  0  0  0  0  0
    1.7760    1.9150   -0.7190 C   0  0  0  0  0  0  0  0  0  0  0  0
    0.9850    0.8330   -0.3530 C   0  0  0  0  0  0  0  0  0  0  0  0
   -0.3270    0.6060   -0.3220 N   0  0  0  0  0  0  0  0  0  0  0  0
   -0.6330   -0.6250    0.1190 C   0  0  0  0  0  0  0  0  0  0  0  0
   -1.9170   -1.2010    0.2800 N   0  0  0  0  0  0  0  0  0  0  0  0
   -3.1080   -0.5040   -0.0250 C   0  0  0  0  0  0  0  0  0  0  0  0
   -4.4160   -0.9670    0.0930 C   0  0  0  0  0  0  0  0  0  0  0  0
   -5.2520    0.0430   -0.3120 C   0  0  0  0  0  0  0  0  0  0  0  0
   -4.5160    1.1030   -0.6730 N   0  0  0  0  0  0  0  0  0  0  0  0
   -3.2230    0.7930   -0.5070 C   0  0  0  0  0  0  0  0  0  0  0  0
    0.5720   -1.2780    0.4080 C   0  0  0  0  0  0  0  0  0  0  0  0
    0.7070   -2.6040    0.9010 N   0  0  0  0  0  0  0  0  0  0  0  0
    1.5980   -0.4050    0.1280 C   0  0  0  0  0  0  0  0  0  0  0  0
    2.9390   -0.4410    0.1950 N   0  0  0  0  0  0  0  0  0  0  0  0
  1  2  1  0
  2  3  1  0
  2 17  1  0
  3  4  2  0
  4  5  1  0
  5  6  2  0
  5 16  1  0
  6  7  1  0
  7  8  1  0
  7 14  2  0
  8  9  1  0
  9 10  1  0
  9 13  2  0
 10 11  2  0
 11 12  1  0
 12 13  1  0
 14 15  1  0
 14 16  1  0
 16 17  2  0
M  END
