
     RDKit          3D

 18 20  0  0  0  0  0  0  0  0999 V2000
    0.6570   -3.0460   -1.9830 N   0  0  0  0  0  0  0  0  0  0  0  0
    1.1000   -1.7660   -1.4540 C   0  0  0  0  0  0  0  0  0  0  0  0
    2.2890   -1.3290   -1.4280 N   0  0  0  0  0  0  0  0  0  0  0  0
    2.3360   -0.0340   -0.8340 C   0  0  0  0  0  0  0  0  0  0  0  0
    1.1350    0.3490   -0.4780 C   0  0  0  0  0  0  0  0  0  0  0  0
    0.9010    1.6330    0.1540 C   0  0  0  0  0  0  0  0  0  0  0  0
   -0.3790    2.0790    0.5520 O   0  0  0  0  0  0  0  0  0  0  0  0
    1.8920    2.4550    0.3890 C   0  0  0  0  0  0  0  0  0  0  0  0
    3.2780    2.1280    0.0300 C   0  0  0  0  0  0  0  0  0  0  0  0
    3.4390    0.8520   -0.5860 N   0  0  0  0  0  0  0  0  0  0  0  0
    0.2020   -0.7620   -0.8550 C   0  0  2  0  0  0  0  0  0  0  0  0
   -0.4580   -1.2970    0.3250 N   0  0  0  0  0  0  0  0  0  0  0  0
   -1.7580   -0.8180    0.6370 C   0  0  0  0  0  0  0  0  0  0  0  0
   -2.4080   -1.2520    1.8050 C   0  0  0  0  0  0  0  0  0  0  0  0
   -3.6500   -0.8480    2.1130 N   0  0  0  0  0  0  0  0  0  0  0  0
   -4.3210   -0.0050    1.3060 C   0  0  0  0  0  0  0  0  0  0  0  0
   -3.6950    0.4240    0.1640 C   0  0  0  0  0  0  0  0  0  0  0  0
   -2.4660    0.0170   -0.1310 N   0  0  0  0  0  0  0  0  0  0  0  0
  1  2  1  0
  2  3  2  0
  2 11  1  0
  3  4  1  0
  4  5  2  0
  4 10  1  0
  5  6  1  0
  5 11  1  0
  6  7  1  0
  6  8  2  0
  8  9  1  0
  9 10  1  0
 11 12  1  1
 12 13  1  0
 13 14  2  0
 13 18  1  0
 14 15  1  0
 15 16  2  0
 16 17  1  0
 17 18  2  0
M  END
