
     RDKit          3D

 18 20  0  0  0  0  0  0  0  0999 V2000
   -2.6530    2.7480    0.8510 O   0  0  0  0  0  0  0  0  0  0  0  0
   -3.0920    1.9770   -0.2480 C   0  0  0  0  0  0  0  0  0  0  0  0
   -3.1480    0.6090    0.2060 N   0  0  0  0  0  0  0  0  0  0  0  0
   -3.5770   -0.3190   -0.7860 C   0  0  0  0  0  0  0  0  0  0  0  0
   -3.1580   -1.7170   -0.3400 C   0  0  0  0  0  0  0  0  0  0  0  0
   -1.6460   -1.8520   -0.4100 C   0  0  0  0  0  0  0  0  0  0  0  0
   -1.0510   -0.5180   -0.0590 C   0  0  2  0  0  0  0  0  0  0  0  0
    0.3410   -0.6020    0.4070 C   0  0  0  0  0  0  0  0  0  0  0  0
    0.7610   -1.2550    1.5060 N   0  0  0  0  0  0  0  0  0  0  0  0
    2.0600   -1.1270    1.6250 N   0  0  0  0  0  0  0  0  0  0  0  0
    2.4990   -0.3860    0.5990 C   0  0  0  0  0  0  0  0  0  0  0  0
    3.8970    0.0120    0.3280 C   0  0  0  0  0  0  0  0  0  0  0  0
    4.9730   -0.3030    1.0700 N   0  0  0  0  0  0  0  0  0  0  0  0
    6.0690    0.2470    0.4930 C   0  0  0  0  0  0  0  0  0  0  0  0
    5.6620    0.9260   -0.6420 C   0  0  0  0  0  0  0  0  0  0  0  0
    4.3190    0.7500   -0.6980 N   0  0  0  0  0  0  0  0  0  0  0  0
    1.4470   -0.0690   -0.1410 N   0  0  0  0  0  0  0  0  0  0  0  0
   -1.9560    0.2070    0.9120 C   0  0  0  0  0  0  0  0  0  0  0  0
  1  2  1  0
  2  3  1  0
  3  4  1  0
  3 18  1  0
  4  5  1  0
  5  6  1  0
  6  7  1  0
  7  8  1  1
  7 18  1  0
  8  9  2  0
  8 17  1  0
  9 10  1  0
 10 11  1  0
 11 12  1  0
 11 17  2  0
 12 13  2  0
 12 16  1  0
 13 14  1  0
 14 15  2  0
 15 16  1  0
M  END
