
     RDKit          3D

 18 20  0  0  0  0  0  0  0  0999 V2000
   -5.1450    1.3200    0.5720 C   0  0  0  0  0  0  0  0  0  0  0  0
   -3.8940    0.6250    0.3480 N   0  0  0  0  0  0  0  0  0  0  0  0
   -3.8570   -0.7660   -0.0010 C   0  0  0  0  0  0  0  0  0  0  0  0
   -4.8670   -1.5140    0.2690 N   0  0  0  0  0  0  0  0  0  0  0  0
   -2.6700   -1.3620   -0.6700 C   0  0  0  0  0  0  0  0  0  0  0  0
   -1.4400   -0.8400   -0.1140 N   0  0  0  0  0  0  0  0  0  0  0  0
   -1.3890    0.5380    0.2240 C   0  0  0  0  0  0  0  0  0  0  0  0
   -0.2450    1.1590    0.3220 C   0  0  0  0  0  0  0  0  0  0  0  0
    1.0440    0.5130    0.0990 C   0  0  0  0  0  0  0  0  0  0  0  0
    1.3310   -0.4350   -0.8440 N   0  0  0  0  0  0  0  0  0  0  0  0
    2.6010   -0.7860   -0.7500 N   0  0  0  0  0  0  0  0  0  0  0  0
    3.1760   -0.0880    0.2450 C   0  0  0  0  0  0  0  0  0  0  0  0
    4.5670   -0.1180    0.7360 C   0  0  1  0  0  0  0  0  0  0  0  0
    5.4890   -1.2120    0.3490 C   0  0  0  0  0  0  0  0  0  0  0  0
    5.5740    0.0960   -0.4100 C   0  0  0  0  0  0  0  0  0  0  0  0
    2.2090    0.6960    0.7480 N   0  0  0  0  0  0  0  0  0  0  0  0
   -2.6260    1.2730    0.4570 C   0  0  0  0  0  0  0  0  0  0  0  0
   -2.6120    2.5050    0.7620 O   0  0  0  0  0  0  0  0  0  0  0  0
  1  2  1  0
  2  3  1  0
  2 17  1  0
  3  4  2  0
  3  5  1  0
  5  6  1  0
  6  7  1  0
  7  8  2  3
  7 17  1  0
  8  9  1  0
  9 10  2  0
  9 16  1  0
 10 11  1  0
 11 12  2  0
 13 12  1  6
 12 16  1  0
 13 14  1  0
 13 15  1  0
 14 15  1  0
 17 18  2  0
M  END
