
     RDKit          3D

 18 20  0  0  0  0  0  0  0  0999 V2000
    5.9220    0.1140   -0.5530 C   0  0  0  0  0  0  0  0  0  0  0  0
    4.7790    0.7760   -0.0440 O   0  0  0  0  0  0  0  0  0  0  0  0
    3.5050    0.2700   -0.2000 C   0  0  0  0  0  0  0  0  0  0  0  0
    2.4690    1.0270    0.3520 C   0  0  0  0  0  0  0  0  0  0  0  0
    1.1690    0.5640    0.2230 C   0  0  0  0  0  0  0  0  0  0  0  0
    0.8770   -0.6130   -0.4310 C   0  0  0  0  0  0  0  0  0  0  0  0
    1.9470   -1.3180   -0.9560 C   0  0  0  0  0  0  0  0  0  0  0  0
    3.2210   -0.8770   -0.8370 N   0  0  0  0  0  0  0  0  0  0  0  0
   -0.4760   -1.0890   -0.5610 N   0  0  0  0  0  0  0  0  0  0  0  0
   -1.4490   -0.4230   -0.0690 C   0  0  0  0  0  0  0  0  0  0  0  0
   -1.2330    0.8320    0.6390 C   0  0  0  0  0  0  0  0  0  0  0  0
   -2.1840    1.5360    1.1510 N   0  0  0  0  0  0  0  0  0  0  0  0
   -3.5130    1.0500    1.0120 C   0  0  0  0  0  0  0  0  0  0  0  0
   -4.5500    1.8340    1.5800 N   0  0  0  0  0  0  0  0  0  0  0  0
   -3.8050   -0.0800    0.3860 C   0  0  0  0  0  0  0  0  0  0  0  0
   -2.7890   -0.8970   -0.1990 N   0  0  0  0  0  0  0  0  0  0  0  0
   -3.0990   -2.1360   -0.8870 C   0  0  0  0  0  0  0  0  0  0  0  0
    0.0940    1.3240    0.7810 N   0  0  0  0  0  0  0  0  0  0  0  0
  1  2  1  0
  2  3  1  0
  3  4  2  0
  3  8  1  0
  4  5  1  0
  5  6  2  0
  5 18  1  0
  6  7  1  0
  6  9  1  0
  7  8  2  0
  9 10  2  0
 10 11  1  0
 10 16  1  0
 11 12  2  0
 11 18  1  0
 12 13  1  0
 13 14  1  0
 13 15  2  0
 15 16  1  0
 16 17  1  0
M  END
