
     RDKit          3D

 18 20  0  0  0  0  0  0  0  0999 V2000
   -5.7190    0.4010    0.0970 N   0  0  0  0  0  0  0  0  0  0  0  0
   -4.2960    0.4260    0.1560 C   0  0  0  0  0  0  0  0  0  0  0  0
   -3.6000    1.4950    0.6800 C   0  0  0  0  0  0  0  0  0  0  0  0
   -2.2240    1.5320    0.7430 C   0  0  0  0  0  0  0  0  0  0  0  0
   -1.4690    0.4790    0.2740 C   0  0  0  0  0  0  0  0  0  0  0  0
   -0.0020    0.5050    0.3340 C   0  0  0  0  0  0  0  0  0  0  0  0
    0.8600   -0.4770   -0.0980 C   0  0  0  0  0  0  0  0  0  0  0  0
    2.1330   -0.0030    0.1660 C   0  0  0  0  0  0  0  0  0  0  0  0
    3.3300   -0.7080   -0.1250 N   0  0  0  0  0  0  0  0  0  0  0  0
    4.6690   -0.2230    0.1470 C   0  0  0  0  0  0  0  0  0  0  0  0
    5.4310   -0.8470   -1.0030 C   0  0  0  0  0  0  0  0  0  0  0  0
    4.6700   -2.0640   -1.2070 N   0  0  0  0  0  0  0  0  0  0  0  0
    3.5000   -1.9610   -0.7070 N   0  0  0  0  0  0  0  0  0  0  0  0
    2.0330    1.2110    0.7330 N   0  0  0  0  0  0  0  0  0  0  0  0
    0.7470    1.5050    0.8280 N   0  0  0  0  0  0  0  0  0  0  0  0
   -2.1440   -0.5990   -0.2540 C   0  0  0  0  0  0  0  0  0  0  0  0
   -3.5370   -0.6290   -0.3140 C   0  0  0  0  0  0  0  0  0  0  0  0
   -4.1840   -1.7320   -0.8530 O   0  0  0  0  0  0  0  0  0  0  0  0
  1  2  1  0
  2  3  2  0
  2 17  1  0
  3  4  1  0
  4  5  2  0
  5  6  1  0
  5 16  1  0
  6  7  1  0
  6 15  2  0
  7  8  2  0
  8  9  1  0
  8 14  1  0
  9 10  1  0
  9 13  1  0
 10 11  1  0
 11 12  1  0
 12 13  2  0
 14 15  1  0
 16 17  2  0
 17 18  1  0
M  END
