
     RDKit          3D

 18 20  0  0  0  0  0  0  0  0999 V2000
   -2.9510   -1.4140   -1.8830 N   0  0  0  0  0  0  0  0  0  0  0  0
   -2.9320   -0.6030   -0.8720 C   0  0  0  0  0  0  0  0  0  0  0  0
   -4.2110   -0.0720   -0.3450 C   0  0  0  0  0  0  0  0  0  0  0  0
   -4.0760    0.2740    1.0830 C   0  0  0  0  0  0  0  0  0  0  0  0
   -5.1140    0.2790    1.8070 O   0  0  0  0  0  0  0  0  0  0  0  0
   -2.7890    0.5880    1.5910 N   0  0  0  0  0  0  0  0  0  0  0  0
   -1.5880    0.3100    0.8780 C   0  0  0  0  0  0  0  0  0  0  0  0
   -0.2880    0.5150    1.1570 N   0  0  0  0  0  0  0  0  0  0  0  0
    0.4880    0.0690    0.1420 C   0  0  0  0  0  0  0  0  0  0  0  0
    1.9700    0.1240    0.0890 C   0  0  0  0  0  0  0  0  0  0  0  0
    2.6240   -0.3290   -0.9290 C   0  0  0  0  0  0  0  0  0  0  0  0
    4.0430   -0.2550   -0.9350 N   0  0  0  0  0  0  0  0  0  0  0  0
    4.7270    0.2370    0.0150 C   0  0  0  0  0  0  0  0  0  0  0  0
    4.1180    0.7850    1.2260 C   0  0  0  0  0  0  0  0  0  0  0  0
    2.6670    0.7210    1.2470 C   0  0  0  0  0  0  0  0  0  0  0  0
   -0.3740   -0.4280   -0.7960 C   0  0  0  0  0  0  0  0  0  0  0  0
   -0.1040   -1.0120   -2.0430 N   0  0  0  0  0  0  0  0  0  0  0  0
   -1.6620   -0.2740   -0.3300 N   0  0  0  0  0  0  0  0  0  0  0  0
  1  2  2  0
  2  3  1  0
  2 18  1  0
  3  4  1  0
  4  5  2  0
  4  6  1  0
  6  7  1  0
  7  8  2  0
  7 18  1  0
  8  9  1  0
  9 10  1  0
  9 16  2  0
 10 11  2  0
 10 15  1  0
 11 12  1  0
 12 13  2  0
 13 14  1  0
 14 15  1  0
 16 17  1  0
 16 18  1  0
M  END
