
     RDKit          3D

 19 22  0  0  0  0  0  0  0  0999 V2000
    0.6580   -3.2320    0.5800 C   0  0  0  0  0  0  0  0  0  0  0  0
   -0.4550   -2.2760    0.3310 C   0  0  0  0  0  0  0  0  0  0  0  0
   -1.7220   -2.6980    0.2790 N   0  0  0  0  0  0  0  0  0  0  0  0
   -2.4970   -1.6570    0.0440 C   0  0  0  0  0  0  0  0  0  0  0  0
   -3.8560   -1.5140   -0.1060 C   0  0  0  0  0  0  0  0  0  0  0  0
   -4.4250   -0.3250   -0.3450 N   0  0  0  0  0  0  0  0  0  0  0  0
   -3.5910    0.7570   -0.4360 C   0  0  0  0  0  0  0  0  0  0  0  0
   -3.8550    2.0580   -0.6670 N   0  0  0  0  0  0  0  0  0  0  0  0
   -2.7290    2.7690   -0.6740 C   0  0  0  0  0  0  0  0  0  0  0  0
   -1.6550    1.8980   -0.4350 C   0  0  0  0  0  0  0  0  0  0  0  0
   -2.2230    0.6670   -0.2940 C   0  0  0  0  0  0  0  0  0  0  0  0
   -1.6430   -0.5500   -0.0490 C   0  0  0  0  0  0  0  0  0  0  0  0
   -0.3740   -0.9150    0.1270 N   0  0  0  0  0  0  0  0  0  0  0  0
    0.8460   -0.2110    0.1370 C   0  0  1  0  0  0  0  0  0  0  0  0
    1.3910    0.2470   -1.1990 C   0  0  0  0  0  0  0  0  0  0  0  0
    2.9130    0.3370   -1.0100 C   0  0  0  0  0  0  0  0  0  0  0  0
    3.3200    1.0620    0.1360 N   0  0  0  0  0  0  0  0  0  0  0  0
    2.7080    0.7060    1.3860 C   0  0  0  0  0  0  0  0  0  0  0  0
    1.1720    0.8120    1.1310 C   0  0  0  0  0  0  0  0  0  0  0  0
  1  2  1  0
  2  3  2  0
  2 13  1  0
  3  4  1  0
  4  5  2  0
  4 12  1  0
  5  6  1  0
  6  7  2  0
  7  8  1  0
  7 11  1  0
  8  9  1  0
  9 10  2  0
 10 11  1  0
 11 12  2  0
 12 13  1  0
 14 13  1  6
 14 15  1  0
 14 19  1  0
 15 16  1  0
 16 17  1  0
 17 18  1  0
 18 19  1  0
M  CHG  1  17   1
M  END
