
     RDKit          3D

 19 22  0  0  0  0  0  0  0  0999 V2000
   -3.6960   -1.3640    0.9060 C   0  0  0  0  0  0  0  0  0  0  0  0
   -2.5510   -1.8310    1.2660 N   0  0  0  0  0  0  0  0  0  0  0  0
   -1.3340   -1.2590    0.8930 C   0  0  0  0  0  0  0  0  0  0  0  0
   -0.1900   -1.7100    1.3450 N   0  0  0  0  0  0  0  0  0  0  0  0
    0.9480   -1.0090    0.8640 C   0  0  0  0  0  0  0  0  0  0  0  0
    2.0490   -1.6000    0.3960 C   0  0  0  0  0  0  0  0  0  0  0  0
    3.1550   -0.8480   -0.0720 N   0  0  0  0  0  0  0  0  0  0  0  0
    4.2850   -0.6270    0.6530 C   0  0  0  0  0  0  0  0  0  0  0  0
    5.1430    0.1370   -0.1090 C   0  0  0  0  0  0  0  0  0  0  0  0
    4.4860    0.3670   -1.3190 C   0  0  0  0  0  0  0  0  0  0  0  0
    3.2680   -0.2500   -1.2680 C   0  0  0  0  0  0  0  0  0  0  0  0
    0.8950    0.4730    0.8930 C   0  0  0  0  0  0  0  0  0  0  0  0
   -0.3770    0.9270    0.4570 N   0  0  0  0  0  0  0  0  0  0  0  0
   -1.2510   -0.1250   -0.0130 C   0  0  2  0  0  0  0  0  0  0  0  0
   -2.5960    0.4100   -0.3350 C   0  0  0  0  0  0  0  0  0  0  0  0
   -2.9360    1.5340   -1.0960 C   0  0  0  0  0  0  0  0  0  0  0  0
   -4.2930    1.5870   -1.1340 C   0  0  0  0  0  0  0  0  0  0  0  0
   -4.7730    0.5210   -0.4130 C   0  0  0  0  0  0  0  0  0  0  0  0
   -3.7070   -0.1880    0.0690 N   0  0  0  0  0  0  0  0  0  0  0  0
  1  2  2  0
  1 19  1  0
  2  3  1  0
  3  4  2  0
  3 14  1  0
  4  5  1  0
  5  6  2  3
  5 12  1  0
  6  7  1  0
  7  8  1  0
  7 11  1  0
  8  9  2  0
  9 10  1  0
 10 11  2  0
 12 13  1  0
 14 13  1  1
 14 15  1  0
 15 16  2  0
 15 19  1  0
 16 17  1  0
 17 18  2  0
 18 19  1  0
M  CHG  1  13   1
M  END
