
     RDKit          3D

 19 22  0  0  0  0  0  0  0  0999 V2000
    0.7170    0.9140    0.9310 C   0  0  0  0  0  0  0  0  0  0  0  0
   -0.6370    0.8070    0.6830 C   0  0  0  0  0  0  0  0  0  0  0  0
   -1.1740   -0.1830   -0.1080 C   0  0  0  0  0  0  0  0  0  0  0  0
   -2.6070   -0.3020   -0.3750 C   0  0  1  0  0  0  0  0  0  0  0  0
   -3.4260   -0.4600    0.9070 C   0  0  0  0  0  0  0  0  0  0  0  0
   -4.8420   -0.3030    0.3380 C   0  0  0  0  0  0  0  0  0  0  0  0
   -4.6910    0.8480   -0.6160 C   0  0  0  0  0  0  0  0  0  0  0  0
   -3.2200    0.9520   -0.9550 C   0  0  0  0  0  0  0  0  0  0  0  0
   -0.3200   -1.0710   -0.6500 N   0  0  0  0  0  0  0  0  0  0  0  0
    1.0150   -0.9920   -0.4250 C   0  0  0  0  0  0  0  0  0  0  0  0
    1.5720   -0.0100    0.3620 C   0  0  0  0  0  0  0  0  0  0  0  0
    2.9810    0.0770    0.6030 N   0  0  0  0  0  0  0  0  0  0  0  0
    3.5800    0.4790    1.7170 N   0  0  0  0  0  0  0  0  0  0  0  0
    4.9130    0.4300    1.5780 C   0  0  0  0  0  0  0  0  0  0  0  0
    5.1970   -0.0310    0.2990 C   0  0  0  0  0  0  0  0  0  0  0  0
    6.1780   -0.3590   -0.6130 C   0  0  0  0  0  0  0  0  0  0  0  0
    5.5290   -0.7560   -1.7140 N   0  0  0  0  0  0  0  0  0  0  0  0
    4.2200   -0.6910   -1.5310 N   0  0  0  0  0  0  0  0  0  0  0  0
    3.9440   -0.2410   -0.2810 C   0  0  0  0  0  0  0  0  0  0  0  0
  1  2  2  0
  1 11  1  0
  2  3  1  0
  4  3  1  1
  3  9  2  0
  4  5  1  0
  4  8  1  0
  5  6  1  0
  6  7  1  0
  7  8  1  0
  9 10  1  0
 10 11  2  0
 11 12  1  0
 12 13  1  0
 12 19  1  0
 13 14  2  0
 14 15  1  0
 15 16  1  0
 15 19  2  0
 16 17  2  0
 17 18  1  0
 18 19  1  0
M  CHG  1   9   1
M  END
