
     RDKit          3D

 19 21  0  0  0  0  0  0  0  0999 V2000
    5.2450    2.2820    0.2670 C   0  0  0  0  0  0  0  0  0  0  0  0
    4.3860    1.0550    0.1510 C   0  0  0  0  0  0  0  0  0  0  0  0
    4.8770   -0.1540    0.2520 C   0  0  0  0  0  0  0  0  0  0  0  0
    4.1130   -1.3990    0.1520 C   0  0  0  0  0  0  0  0  0  0  0  0
    2.7140   -1.1430   -0.0760 N   0  0  0  0  0  0  0  0  0  0  0  0
    2.2100    0.1790   -0.1810 C   0  0  0  0  0  0  0  0  0  0  0  0
    0.7380    0.3810   -0.4190 C   0  0  0  0  0  0  0  0  0  0  0  0
   -0.0730   -0.2180    0.6970 C   0  0  0  0  0  0  0  0  0  0  0  0
   -1.4670   -0.0200    0.4450 N   0  0  0  0  0  0  0  0  0  0  0  0
   -2.2410   -1.2020    0.1510 C   0  0  0  0  0  0  0  0  0  0  0  0
   -1.9660   -2.3410   -0.4850 N   0  0  0  0  0  0  0  0  0  0  0  0
   -3.0420   -3.1420   -0.4970 C   0  0  0  0  0  0  0  0  0  0  0  0
   -4.0240   -2.4780    0.1550 N   0  0  0  0  0  0  0  0  0  0  0  0
   -3.5710   -1.2940    0.5640 C   0  0  0  0  0  0  0  0  0  0  0  0
   -4.0850   -0.1290    1.3000 C   0  0  0  0  0  0  0  0  0  0  0  0
   -3.6160    1.1040    0.6150 C   0  0  0  0  0  0  0  0  0  0  0  0
   -2.1440    1.2720    0.4690 C   0  0  2  0  0  0  0  0  0  0  0  0
   -1.8890    2.0680   -0.8000 C   0  0  0  0  0  0  0  0  0  0  0  0
    3.0000    1.2000   -0.0730 N   0  0  0  0  0  0  0  0  0  0  0  0
  1  2  1  0
  2  3  2  0
  2 19  1  0
  3  4  1  0
  4  5  1  0
  5  6  1  0
  6  7  1  0
  6 19  2  0
  7  8  1  0
  8  9  1  0
  9 10  1  0
  9 17  1  0
 10 11  1  0
 10 14  2  0
 11 12  2  0
 12 13  1  0
 13 14  1  0
 14 15  1  0
 15 16  1  0
 16 17  1  0
 17 18  1  6
M  CHG  1  11   1
M  END
