
     RDKit          3D

 19 22  0  0  0  0  0  0  0  0999 V2000
    3.6410   -1.5760   -1.2110 C   0  0  0  0  0  0  0  0  0  0  0  0
    2.7970   -0.6120   -0.4170 C   0  0  0  0  0  0  0  0  0  0  0  0
    1.4710   -0.7600   -0.3000 N   0  0  0  0  0  0  0  0  0  0  0  0
    0.7680    0.1270    0.4420 C   0  0  0  0  0  0  0  0  0  0  0  0
   -0.6020    0.1610    0.7200 C   0  0  0  0  0  0  0  0  0  0  0  0
   -1.6510   -0.7800    0.1970 C   0  0  1  0  0  0  0  0  0  0  0  0
   -2.8380   -0.6960    1.0910 C   0  0  0  0  0  0  0  0  0  0  0  0
   -4.1510   -1.1090    0.4170 C   0  0  0  0  0  0  0  0  0  0  0  0
   -4.2920   -0.0520   -0.6980 C   0  0  0  0  0  0  0  0  0  0  0  0
   -3.2010   -0.3860   -1.6640 C   0  0  0  0  0  0  0  0  0  0  0  0
   -1.8830   -0.4560   -1.1640 N   0  0  0  0  0  0  0  0  0  0  0  0
   -0.7600    1.2600    1.5360 C   0  0  0  0  0  0  0  0  0  0  0  0
    0.4640    1.8490    1.7280 N   0  0  0  0  0  0  0  0  0  0  0  0
    1.3800    1.1550    1.0610 N   0  0  0  0  0  0  0  0  0  0  0  0
    2.7190    1.3080    0.9420 C   0  0  0  0  0  0  0  0  0  0  0  0
    3.5820    2.2650    1.4710 C   0  0  0  0  0  0  0  0  0  0  0  0
    4.8490    1.9330    1.0260 C   0  0  0  0  0  0  0  0  0  0  0  0
    4.7050    0.7980    0.2530 C   0  0  0  0  0  0  0  0  0  0  0  0
    3.4060    0.4210    0.2040 N   0  0  0  0  0  0  0  0  0  0  0  0
  1  2  1  0
  2  3  2  0
  2 19  1  0
  3  4  1  0
  4  5  2  0
  4 14  1  0
  6  5  1  1
  5 12  1  0
  6  7  1  0
  6 11  1  0
  7  8  1  0
  8  9  1  0
  9 10  1  0
 10 11  1  0
 12 13  2  0
 13 14  1  0
 14 15  1  0
 15 16  2  0
 15 19  1  0
 16 17  1  0
 17 18  2  0
 18 19  1  0
M  CHG  1  11   1
M  END
