
     RDKit          3D

 19 22  0  0  0  0  0  0  0  0999 V2000
   -0.9090   -0.7210   -1.0910 C   0  0  0  0  0  0  0  0  0  0  0  0
   -2.1520   -0.2850   -1.4500 C   0  0  0  0  0  0  0  0  0  0  0  0
   -3.0130    0.1350   -0.4560 C   0  0  0  0  0  0  0  0  0  0  0  0
   -2.6010    0.1050    0.8520 C   0  0  0  0  0  0  0  0  0  0  0  0
   -1.3410   -0.3420    1.1520 N   0  0  0  0  0  0  0  0  0  0  0  0
   -0.4770   -0.7580    0.2200 C   0  0  0  0  0  0  0  0  0  0  0  0
    0.8690   -1.2380    0.5110 C   0  0  0  0  0  0  0  0  0  0  0  0
    1.8850   -0.2480    0.5760 N   0  0  0  0  0  0  0  0  0  0  0  0
    2.1020    0.5170   -0.5910 C   0  0  0  0  0  0  0  0  0  0  0  0
    3.4490    1.1690   -0.6930 C   0  0  0  0  0  0  0  0  0  0  0  0
    4.5900    0.2640   -0.3230 C   0  0  0  0  0  0  0  0  0  0  0  0
    4.1130   -1.0670    0.2090 C   0  0  0  0  0  0  0  0  0  0  0  0
    3.0380   -0.7620    1.2280 C   0  0  0  0  0  0  0  0  0  0  0  0
   -3.7100    0.6040    1.6850 C   0  0  0  0  0  0  0  0  0  0  0  0
   -4.7790    0.9210    0.7750 N   0  0  0  0  0  0  0  0  0  0  0  0
   -6.0340    1.3840    0.6640 N   0  0  0  0  0  0  0  0  0  0  0  0
   -6.4210    1.4110   -0.5790 N   0  0  0  0  0  0  0  0  0  0  0  0
   -5.4120    0.9580   -1.3340 C   0  0  0  0  0  0  0  0  0  0  0  0
   -4.3740    0.6490   -0.4630 C   0  0  0  0  0  0  0  0  0  0  0  0
  1  2  2  0
  1  6  1  0
  2  3  1  0
  3  4  2  0
  3 19  1  0
  4  5  1  0
  4 14  1  0
  5  6  2  0
  6  7  1  0
  7  8  1  0
  8  9  1  0
  8 13  1  0
  9 10  1  0
 10 11  1  0
 11 12  1  0
 12 13  1  0
 14 15  1  0
 15 16  1  0
 15 19  1  0
 16 17  2  0
 17 18  1  0
 18 19  2  0
M  CHG  1   5   1
M  END
