
     RDKit          3D

 19 22  0  0  0  0  0  0  0  0999 V2000
   -4.2940    0.2610   -0.0690 C   0  0  0  0  0  0  0  0  0  0  0  0
   -2.8280   -0.0950   -0.2770 C   0  0  1  0  0  0  0  0  0  0  0  0
   -2.6900   -1.5620   -0.1990 C   0  0  0  0  0  0  0  0  0  0  0  0
   -2.4910    0.3130   -1.7170 C   0  0  0  0  0  0  0  0  0  0  0  0
   -2.0240    0.6860    0.6400 C   0  0  0  0  0  0  0  0  0  0  0  0
   -2.5070    1.5660    1.5350 N   0  0  0  0  0  0  0  0  0  0  0  0
   -1.5200    2.1010    2.2180 N   0  0  0  0  0  0  0  0  0  0  0  0
   -0.3380    1.6080    1.8170 C   0  0  0  0  0  0  0  0  0  0  0  0
    0.9970    1.5660    1.9170 N   0  0  0  0  0  0  0  0  0  0  0  0
    1.4860    0.7060    1.0430 N   0  0  0  0  0  0  0  0  0  0  0  0
    0.5090    0.1340    0.3190 C   0  0  0  0  0  0  0  0  0  0  0  0
   -0.6580    0.6990    0.8030 C   0  0  0  0  0  0  0  0  0  0  0  0
    0.7270   -0.8210   -0.7000 N   0  0  0  0  0  0  0  0  0  0  0  0
    2.0570   -1.2640   -0.9980 C   0  0  0  0  0  0  0  0  0  0  0  0
    3.1280   -0.6390   -0.2110 C   0  0  0  0  0  0  0  0  0  0  0  0
    4.4280   -0.8600   -0.3000 C   0  0  0  0  0  0  0  0  0  0  0  0
    5.1060   -0.0030    0.6920 C   0  0  0  0  0  0  0  0  0  0  0  0
    4.0030    0.7160    1.3360 C   0  0  0  0  0  0  0  0  0  0  0  0
    2.8500    0.3420    0.8070 C   0  0  0  0  0  0  0  0  0  0  0  0
  2  1  1  1
  2  3  1  0
  2  4  1  0
  2  5  1  0
  5  6  2  0
  5 12  1  0
  6  7  1  0
  7  8  1  0
  8  9  2  0
  8 12  1  0
  9 10  1  0
 10 11  1  0
 10 19  1  0
 11 12  2  0
 11 13  1  0
 13 14  1  0
 14 15  1  0
 15 16  2  0
 15 19  1  0
 16 17  1  0
 17 18  1  0
 18 19  2  0
M  END
