
     RDKit          3D

 19 21  0  0  0  0  0  0  0  0999 V2000
    5.5060    0.2890   -0.7930 C   0  0  0  0  0  0  0  0  0  0  0  0
    4.2010    0.0890   -0.6460 C   0  0  0  0  0  0  0  0  0  0  0  0
    3.4780    0.2610   -1.8910 C   0  0  0  0  0  0  0  0  0  0  0  0
    2.2100    0.1070   -2.2320 C   0  0  0  0  0  0  0  0  0  0  0  0
    0.9920   -0.3000   -1.5120 C   0  0  0  0  0  0  0  0  0  0  0  0
    0.9300    0.2460   -0.1060 C   0  0  1  0  0  0  0  0  0  0  0  0
   -0.5120    0.5370    0.1890 C   0  0  0  0  0  0  0  0  0  0  0  0
   -1.5400   -0.3150    0.1370 N   0  0  0  0  0  0  0  0  0  0  0  0
   -2.6550    0.3440    0.4710 C   0  0  0  0  0  0  0  0  0  0  0  0
   -4.0060   -0.2010    0.5450 C   0  0  0  0  0  0  0  0  0  0  0  0
   -4.3890   -1.4580    0.2930 N   0  0  0  0  0  0  0  0  0  0  0  0
   -5.7150   -1.5840    0.4670 C   0  0  0  0  0  0  0  0  0  0  0  0
   -6.1860   -0.3460    0.8450 C   0  0  0  0  0  0  0  0  0  0  0  0
   -5.1210    0.4700    0.8830 N   0  0  0  0  0  0  0  0  0  0  0  0
   -2.2850    1.6100    0.7280 N   0  0  0  0  0  0  0  0  0  0  0  0
   -0.9770    1.7420    0.5590 N   0  0  0  0  0  0  0  0  0  0  0  0
    1.3350   -0.8310    0.9080 C   0  0  0  0  0  0  0  0  0  0  0  0
    2.7390   -0.6080    1.3370 C   0  0  0  0  0  0  0  0  0  0  0  0
    3.8620   -0.2490    0.7400 C   0  0  0  0  0  0  0  0  0  0  0  0
  1  2  2  0
  2  3  1  0
  2 19  1  0
  3  4  2  0
  4  5  1  0
  5  6  1  0
  6  7  1  1
  6 17  1  0
  7  8  1  0
  7 16  2  0
  8  9  2  0
  9 10  1  0
  9 15  1  0
 10 11  2  0
 10 14  1  0
 11 12  1  0
 12 13  2  0
 13 14  1  0
 15 16  1  0
 17 18  1  0
 18 19  2  0
M  CHG  1  16   1
M  END
