
     RDKit          3D

 19 21  0  0  0  0  0  0  0  0999 V2000
    6.8290   -0.3710   -0.4420 C   0  0  0  0  0  0  0  0  0  0  0  0
    5.7680    0.4310    0.2170 C   0  0  0  0  0  0  0  0  0  0  0  0
    4.5010    0.0740   -0.0440 C   0  0  0  0  0  0  0  0  0  0  0  0
    4.1770   -1.0090   -0.9020 N   0  0  0  0  0  0  0  0  0  0  0  0
    2.9730   -1.3770   -1.1730 C   0  0  0  0  0  0  0  0  0  0  0  0
    1.8600   -0.6570   -0.5770 C   0  0  0  0  0  0  0  0  0  0  0  0
    0.5210   -0.7940   -0.6620 N   0  0  0  0  0  0  0  0  0  0  0  0
   -0.0950    0.1200    0.0780 C   0  0  0  0  0  0  0  0  0  0  0  0
   -1.5110    0.3040    0.2520 C   0  0  0  0  0  0  0  0  0  0  0  0
   -2.3620   -0.5000   -0.3740 C   0  0  0  0  0  0  0  0  0  0  0  0
   -3.8420   -0.5670   -0.4000 C   0  0  0  0  0  0  0  0  0  0  0  0
   -4.3310   -1.6720   -1.2720 C   0  0  0  0  0  0  0  0  0  0  0  0
   -4.7580    0.1670    0.2020 C   0  0  0  0  0  0  0  0  0  0  0  0
   -4.5560    1.3610    1.1510 C   0  0  0  0  0  0  0  0  0  0  0  0
   -3.2110    1.5170    1.2540 N   0  0  0  0  0  0  0  0  0  0  0  0
   -1.8650    1.4800    1.1950 C   0  0  0  0  0  0  0  0  0  0  0  0
    0.8640    0.8670    0.6560 N   0  0  0  0  0  0  0  0  0  0  0  0
    2.0810    0.4100    0.2690 C   0  0  0  0  0  0  0  0  0  0  0  0
    3.4150    0.7950    0.5510 N   0  0  0  0  0  0  0  0  0  0  0  0
  1  2  1  0
  2  3  2  3
  3  4  1  0
  3 19  1  0
  4  5  2  0
  5  6  1  0
  6  7  1  0
  6 18  2  0
  7  8  1  0
  8  9  1  0
  8 17  2  0
  9 10  2  0
  9 16  1  0
 10 11  1  0
 11 12  1  0
 11 13  2  0
 13 14  1  0
 14 15  1  0
 15 16  1  0
 17 18  1  0
 18 19  1  0
M  CHG  1  15   1
M  END
