
     RDKit          3D

 20 23  0  0  0  0  0  0  0  0999 V2000
   -0.8410   -1.5310   -1.7780 C   0  0  0  0  0  0  0  0  0  0  0  0
   -0.8690   -0.5800   -0.6400 C   0  0  0  0  0  0  0  0  0  0  0  0
   -2.0230   -0.1400   -0.0590 C   0  0  0  0  0  0  0  0  0  0  0  0
   -1.9890    0.7450    0.9960 C   0  0  0  0  0  0  0  0  0  0  0  0
   -0.8110    1.1970    1.4800 N   0  0  0  0  0  0  0  0  0  0  0  0
    0.3470    0.7880    0.9370 C   0  0  0  0  0  0  0  0  0  0  0  0
    0.3280   -0.1000   -0.1230 C   0  0  0  0  0  0  0  0  0  0  0  0
    1.4060   -0.6670   -0.8520 N   0  0  0  0  0  0  0  0  0  0  0  0
    2.6680   -0.4580   -0.6620 C   0  0  0  0  0  0  0  0  0  0  0  0
    3.6690   -1.0210   -1.3820 N   0  0  0  0  0  0  0  0  0  0  0  0
    4.8450   -0.6050   -0.9400 N   0  0  0  0  0  0  0  0  0  0  0  0
    4.6750    0.2350    0.0720 C   0  0  0  0  0  0  0  0  0  0  0  0
    5.7650    0.9110    0.8280 C   0  0  0  0  0  0  0  0  0  0  0  0
    3.3090    0.3470    0.2690 C   0  0  0  0  0  0  0  0  0  0  0  0
    2.8080    1.1220    1.2190 C   0  0  0  0  0  0  0  0  0  0  0  0
    1.4740    1.3360    1.5380 O   0  0  0  0  0  0  0  0  0  0  0  0
   -3.2230    1.2200    1.6210 C   0  0  0  0  0  0  0  0  0  0  0  0
   -4.4360    0.4020    1.3700 C   0  0  0  0  0  0  0  0  0  0  0  0
   -4.1740   -0.9170    0.6860 C   0  0  0  0  0  0  0  0  0  0  0  0
   -3.3270   -0.6010   -0.5480 C   0  0  0  0  0  0  0  0  0  0  0  0
  1  2  1  0
  2  3  2  0
  2  7  1  0
  3  4  1  0
  3 20  1  0
  4  5  2  0
  4 17  1  0
  5  6  1  0
  6  7  2  0
  6 16  1  0
  7  8  1  0
  8  9  2  0
  9 10  1  0
  9 14  1  0
 10 11  1  0
 11 12  2  0
 12 13  1  0
 12 14  1  0
 14 15  2  0
 15 16  1  0
 17 18  1  0
 18 19  1  0
 19 20  1  0
M  END
