
     RDKit          3D

 19 21  0  0  0  0  0  0  0  0999 V2000
    5.9720   -1.3420   -0.0590 C   0  0  0  0  0  0  0  0  0  0  0  0
    4.7320   -0.5230   -0.0970 C   0  0  0  0  0  0  0  0  0  0  0  0
    4.8190    0.7890   -0.2370 C   0  0  0  0  0  0  0  0  0  0  0  0
    3.6160    1.6330   -0.2800 C   0  0  0  0  0  0  0  0  0  0  0  0
    2.4090    1.1080   -0.1800 C   0  0  0  0  0  0  0  0  0  0  0  0
    2.2600   -0.2530   -0.0330 C   0  0  0  0  0  0  0  0  0  0  0  0
    1.0450   -0.7710    0.0670 N   0  0  0  0  0  0  0  0  0  0  0  0
   -0.1090    0.0080    0.0290 C   0  0  0  0  0  0  0  0  0  0  0  0
   -1.2390   -0.5980    0.1620 C   0  0  0  0  0  0  0  0  0  0  0  0
   -2.5850   -0.0980    0.1640 C   0  0  0  0  0  0  0  0  0  0  0  0
   -3.6820   -0.8760    0.3690 C   0  0  0  0  0  0  0  0  0  0  0  0
   -3.6030   -2.3430    0.6130 C   0  0  0  0  0  0  0  0  0  0  0  0
   -4.9110   -0.1080    0.3490 C   0  0  0  0  0  0  0  0  0  0  0  0
   -4.5610    1.1460   -0.3650 C   0  0  0  0  0  0  0  0  0  0  0  0
   -3.0800    1.2720   -0.0940 C   0  0  0  0  0  0  0  0  0  0  0  0
    0.0560    1.3170   -0.1120 N   0  0  0  0  0  0  0  0  0  0  0  0
    1.2960    1.9120   -0.2210 C   0  0  0  0  0  0  0  0  0  0  0  0
    1.3480    3.1560   -0.3520 O   0  0  0  0  0  0  0  0  0  0  0  0
    3.4370   -1.0900    0.0100 N   0  0  0  0  0  0  0  0  0  0  0  0
  1  2  1  0
  2  3  2  0
  2 19  1  0
  3  4  1  0
  4  5  2  0
  5  6  1  0
  5 17  1  0
  6  7  2  0
  6 19  1  0
  7  8  1  0
  8  9  2  3
  8 16  1  0
  9 10  1  0
 10 11  2  0
 10 15  1  0
 11 12  1  0
 11 13  1  0
 13 14  1  0
 14 15  1  0
 16 17  1  0
 17 18  2  0
M  END
