
     RDKit          3D

 20 22  0  0  0  0  0  0  0  0999 V2000
   -3.9600    3.2960   -0.8340 C   0  0  0  0  0  0  0  0  0  0  0  0
   -4.1670    1.8830   -0.6260 N   0  0  0  0  0  0  0  0  0  0  0  0
   -3.2480    1.1000   -0.2160 C   0  0  0  0  0  0  0  0  0  0  0  0
   -1.8900    1.6580    0.0640 C   0  0  0  0  0  0  0  0  0  0  0  0
   -0.8800    0.5650   -0.0340 C   0  0  0  0  0  0  0  0  0  0  0  0
    0.3400    0.8290   -0.4740 N   0  0  0  0  0  0  0  0  0  0  0  0
    1.2710   -0.1260   -0.5800 C   0  0  0  0  0  0  0  0  0  0  0  0
    2.5210    0.1730   -1.0370 O   0  0  0  0  0  0  0  0  0  0  0  0
    3.6040    0.5650   -0.2250 C   0  0  1  0  0  0  0  0  0  0  0  0
    4.7940    0.7960   -1.1560 C   0  0  0  0  0  0  0  0  0  0  0  0
    3.2150    1.8140    0.5130 C   0  0  0  0  0  0  0  0  0  0  0  0
    3.9540   -0.5180    0.7930 C   0  0  0  0  0  0  0  0  0  0  0  0
    0.9580   -1.4160   -0.2250 C   0  0  0  0  0  0  0  0  0  0  0  0
   -0.3030   -1.7210    0.2360 C   0  0  0  0  0  0  0  0  0  0  0  0
   -1.2250   -0.7220    0.3310 C   0  0  0  0  0  0  0  0  0  0  0  0
   -2.5870   -1.0080    0.8280 C   0  0  2  0  0  0  0  0  0  0  0  0
   -2.8950   -2.4580    0.9170 C   0  0  0  0  0  0  0  0  0  0  0  0
   -2.0160   -3.3400    0.2130 N   0  0  0  0  0  0  0  0  0  0  0  0
   -0.6310   -3.1340    0.6130 C   0  0  0  0  0  0  0  0  0  0  0  0
   -3.5250   -0.2880   -0.0330 N   0  0  0  0  0  0  0  0  0  0  0  0
  1  2  1  0
  2  3  2  3
  3  4  1  0
  3 20  1  0
  4  5  1  0
  5  6  2  0
  5 15  1  0
  6  7  1  0
  7  8  1  0
  7 13  2  0
  8  9  1  0
  9 10  1  6
  9 11  1  0
  9 12  1  0
 13 14  1  0
 14 15  2  0
 14 19  1  0
 15 16  1  0
 16 17  1  6
 16 20  1  0
 17 18  1  0
 18 19  1  0
M  END
