
     RDKit          3D

 20 22  0  0  0  0  0  0  0  0999 V2000
    3.4460   -2.3860   -0.9310 C   0  0  0  0  0  0  0  0  0  0  0  0
    4.2120   -1.4400   -0.4580 C   0  0  0  0  0  0  0  0  0  0  0  0
    3.7570   -0.1450   -0.0970 C   0  0  0  0  0  0  0  0  0  0  0  0
    4.6570    0.7130    0.3700 C   0  0  0  0  0  0  0  0  0  0  0  0
    6.0870    0.3640    0.5210 C   0  0  0  0  0  0  0  0  0  0  0  0
    2.3930    0.3080   -0.2000 N   0  0  0  0  0  0  0  0  0  0  0  0
    1.9420    1.5300    0.1370 C   0  0  0  0  0  0  0  0  0  0  0  0
    0.5790    1.5920   -0.1010 C   0  0  0  0  0  0  0  0  0  0  0  0
   -0.2840    2.7190    0.1240 N   0  0  0  0  0  0  0  0  0  0  0  0
    0.2260    0.3560   -0.5950 C   0  0  0  0  0  0  0  0  0  0  0  0
   -1.1040    0.0330   -0.9600 N   0  0  0  0  0  0  0  0  0  0  0  0
   -1.7940    0.7800   -1.9900 C   0  0  0  0  0  0  0  0  0  0  0  0
   -3.2100    1.0710   -1.4740 C   0  0  0  0  0  0  0  0  0  0  0  0
   -3.8180   -0.1750   -1.3270 O   0  0  0  0  0  0  0  0  0  0  0  0
   -3.2820   -0.7450   -0.1590 C   0  0  2  0  0  0  0  0  0  0  0  0
   -4.1150   -1.8550    0.3840 C   0  0  0  0  0  0  0  0  0  0  0  0
   -4.2050   -1.1060    1.7090 C   0  0  0  0  0  0  0  0  0  0  0  0
   -3.6360    0.1180    1.0250 C   0  0  0  0  0  0  0  0  0  0  0  0
   -1.8070   -1.0530   -0.3130 C   0  0  0  0  0  0  0  0  0  0  0  0
    1.3400   -0.3610   -0.6310 N   0  0  0  0  0  0  0  0  0  0  0  0
  1  2  2  0
  2  3  1  0
  3  4  2  3
  3  6  1  0
  4  5  1  0
  6  7  1  0
  6 20  1  0
  7  8  2  0
  8  9  1  0
  8 10  1  0
 10 11  1  0
 10 20  2  0
 11 12  1  0
 11 19  1  0
 12 13  1  0
 13 14  1  0
 14 15  1  0
 15 16  1  1
 15 18  1  0
 15 19  1  0
 16 17  1  0
 17 18  1  0
M  END
