
     RDKit          3D

 20 22  0  0  0  0  0  0  0  0999 V2000
   -0.1880    3.3030   -0.0030 C   0  0  0  0  0  0  0  0  0  0  0  0
   -0.5290    1.9200    0.3660 N   0  0  0  0  0  0  0  0  0  0  0  0
    0.3880    0.8600    0.1460 C   0  0  0  0  0  0  0  0  0  0  0  0
    1.6870    0.9740    0.1500 N   0  0  0  0  0  0  0  0  0  0  0  0
    2.2970   -0.3020   -0.1080 C   0  0  0  0  0  0  0  0  0  0  0  0
    1.3230   -1.1960   -0.2690 C   0  0  0  0  0  0  0  0  0  0  0  0
    1.6780   -2.5830   -0.5440 C   0  0  0  0  0  0  0  0  0  0  0  0
    2.9450   -2.9190   -0.6280 C   0  0  0  0  0  0  0  0  0  0  0  0
    4.0690   -1.9860   -0.4620 C   0  0  0  0  0  0  0  0  0  0  0  0
    3.6760   -0.6400   -0.1930 N   0  0  0  0  0  0  0  0  0  0  0  0
    4.6990    0.3820   -0.0080 C   0  0  0  0  0  0  0  0  0  0  0  0
    0.0380   -0.5220   -0.1190 C   0  0  0  0  0  0  0  0  0  0  0  0
   -1.0980   -1.0450   -0.2070 N   0  0  0  0  0  0  0  0  0  0  0  0
   -2.3730   -0.5090   -0.0870 C   0  0  0  0  0  0  0  0  0  0  0  0
   -2.9430    0.1720   -1.1430 C   0  0  0  0  0  0  0  0  0  0  0  0
   -4.2160    0.7210   -1.0650 C   0  0  0  0  0  0  0  0  0  0  0  0
   -4.9520    0.5930    0.0950 C   0  0  0  0  0  0  0  0  0  0  0  0
   -4.3940   -0.0860    1.1600 C   0  0  0  0  0  0  0  0  0  0  0  0
   -5.1530   -0.2000    2.3110 O   0  0  0  0  0  0  0  0  0  0  0  0
   -3.1100   -0.6360    1.0750 C   0  0  0  0  0  0  0  0  0  0  0  0
  1  2  1  0
  2  3  1  0
  3  4  2  0
  3 12  1  0
  4  5  1  0
  5  6  2  0
  5 10  1  0
  6  7  1  0
  6 12  1  0
  7  8  2  0
  8  9  1  0
  9 10  1  0
 10 11  1  0
 12 13  2  3
 13 14  1  0
 14 15  2  0
 14 20  1  0
 15 16  1  0
 16 17  2  0
 17 18  1  0
 18 19  1  0
 18 20  2  0
M  END
