
     RDKit          3D

 20 23  0  0  0  0  0  0  0  0999 V2000
    5.8120   -0.0760    0.9900 C   0  0  0  0  0  0  0  0  0  0  0  0
    5.2630    0.8060   -0.0830 C   0  0  0  0  0  0  0  0  0  0  0  0
    3.8580    0.4750   -0.4150 C   0  0  0  0  0  0  0  0  0  0  0  0
    2.6930    0.9680    0.1390 C   0  0  0  0  0  0  0  0  0  0  0  0
    1.6320    0.3700   -0.4960 C   0  0  0  0  0  0  0  0  0  0  0  0
    2.1350   -0.4610   -1.4110 N   0  0  0  0  0  0  0  0  0  0  0  0
    3.4480   -0.3890   -1.3520 N   0  0  0  0  0  0  0  0  0  0  0  0
    1.0630   -1.1330   -2.1340 C   0  0  0  0  0  0  0  0  0  0  0  0
   -0.0350   -1.1260   -1.0460 C   0  0  0  0  0  0  0  0  0  0  0  0
    0.1240    0.2900   -0.5590 C   0  0  1  0  0  0  0  0  0  0  0  0
   -0.4850    0.6130    0.6630 N   0  0  0  0  0  0  0  0  0  0  0  0
   -1.8870    0.5620    0.7940 C   0  0  1  0  0  0  0  0  0  0  0  0
   -2.6190    1.5000   -0.1390 C   0  0  0  0  0  0  0  0  0  0  0  0
   -4.0670    1.5590    0.2910 C   0  0  0  0  0  0  0  0  0  0  0  0
   -4.7270    0.2430    0.0690 C   0  0  0  0  0  0  0  0  0  0  0  0
   -3.8340   -0.8940    0.4030 C   0  0  0  0  0  0  0  0  0  0  0  0
   -4.1790   -2.1860    0.4280 O   0  0  0  0  0  0  0  0  0  0  0  0
   -3.1320   -2.8960    0.7650 C   0  0  0  0  0  0  0  0  0  0  0  0
   -2.1050   -2.0510    0.9600 N   0  0  0  0  0  0  0  0  0  0  0  0
   -2.5070   -0.7630    0.7390 C   0  0  0  0  0  0  0  0  0  0  0  0
  1  2  1  0
  2  3  1  0
  3  4  1  0
  3  7  2  0
  4  5  2  0
  5  6  1  0
  5 10  1  0
  6  7  1  0
  6  8  1  0
  8  9  1  0
  9 10  1  0
 10 11  1  1
 12 11  1  6
 12 13  1  0
 12 20  1  0
 13 14  1  0
 14 15  1  0
 15 16  1  0
 16 17  1  0
 16 20  2  0
 17 18  1  0
 18 19  2  0
 19 20  1  0
M  END
