
     RDKit          3D

 15 15  0  0  0  0  0  0  0  0999 V2000
   -2.8190    2.8480    0.3180 C   0  0  0  0  0  0  0  0  0  0  0  0
   -2.1810    2.2840    0.7580 C   0  0  0  0  0  0  0  0  0  0  0  0
   -1.1230    1.3740    1.4590 C   0  0  0  0  0  0  0  0  0  0  0  0
   -0.5800    0.4390    0.3730 N   0  0  0  0  0  0  0  0  0  0  0  0
    0.7500   -0.0160    0.7210 C   0  0  0  0  0  0  0  0  0  0  0  0
    1.4710   -0.4420   -0.5130 C   0  0  2  0  0  0  0  0  0  0  0  0
    2.3300    0.6870   -1.0180 C   0  0  0  0  0  0  0  0  0  0  0  0
    3.7360    0.9140    0.0150 S   0  0  1  0  0  0  0  0  0  0  0  0
    4.9490    0.4780   -0.8220 O   0  0  0  0  0  0  0  0  0  0  0  0
    3.9180    2.3300    0.4960 O   0  0  0  0  0  0  0  0  0  0  0  0
    0.5410   -0.9540   -1.5700 C   0  0  0  0  0  0  0  0  0  0  0  0
   -0.6180   -1.5840   -0.8880 C   0  0  0  0  0  0  0  0  0  0  0  0
   -1.4490   -0.5200   -0.2080 C   0  0  1  0  0  0  0  0  0  0  0  0
   -2.3470   -1.2580    0.7680 C   0  0  0  0  0  0  0  0  0  0  0  0
   -3.3370   -1.9130    0.0990 O   0  0  0  0  0  0  0  0  0  0  0  0
  1  2  3  0
  2  3  1  0
  3  4  1  0
  4  5  1  0
  4 13  1  0
  5  6  1  0
  6  7  1  6
  6 11  1  0
  8  7  1  6
  8  9  2  0
  8 10  2  0
 11 12  1  0
 12 13  1  0
 13 14  1  1
 14 15  1  0
M  END
