
     RDKit          3D

 15 15  0  0  0  0  0  0  0  0999 V2000
    4.8860   -0.8360    0.5760 C   0  0  0  0  0  0  0  0  0  0  0  0
    3.5370   -1.0870   -0.0910 C   0  0  0  0  0  0  0  0  0  0  0  0
    2.6990    0.1240    0.1100 C   0  0  0  0  0  0  0  0  0  0  0  0
    3.1220    1.1270    0.7360 O   0  0  0  0  0  0  0  0  0  0  0  0
    1.3720    0.1980   -0.4010 N   0  0  0  0  0  0  0  0  0  0  0  0
    0.5180    1.3360   -0.2390 C   0  0  1  0  0  0  0  0  0  0  0  0
    0.0780    1.7580   -1.6470 C   0  0  0  0  0  0  0  0  0  0  0  0
   -0.9230    0.2580   -2.0300 S   0  0  0  0  0  0  0  0  0  0  0  0
   -1.4430   -0.1180   -0.3070 C   0  0  2  0  0  0  0  0  0  0  0  0
   -1.0350   -1.4920    0.1210 C   0  0  0  0  0  0  0  0  0  0  0  0
   -2.9340    0.0520   -0.2950 C   0  0  0  0  0  0  0  0  0  0  0  0
   -3.5990    0.3850   -1.3070 O   0  0  0  0  0  0  0  0  0  0  0  0
   -3.6700   -0.1610    0.8780 O   0  0  0  0  0  0  0  0  0  0  0  0
   -5.0900   -0.0020    0.9020 C   0  0  0  0  0  0  0  0  0  0  0  0
   -0.7700    0.9930    0.4500 C   0  0  0  0  0  0  0  0  0  0  0  0
  1  2  1  0
  2  3  1  0
  3  4  2  0
  3  5  1  0
  6  5  1  6
  6  7  1  0
  6 15  1  0
  7  8  1  0
  8  9  1  0
  9 10  1  1
  9 11  1  0
  9 15  1  0
 11 12  2  0
 11 13  1  0
 13 14  1  0
M  END
