
     RDKit          3D

 15 15  0  0  0  0  0  0  0  0999 V2000
   -3.6370    1.7600    0.0330 C   0  0  0  0  0  0  0  0  0  0  0  0
   -3.5790    0.3150   -0.3610 C   0  0  0  0  0  0  0  0  0  0  0  0
   -2.4510   -0.3370    0.3950 C   0  0  2  0  0  0  0  0  0  0  0  0
   -2.6030   -0.2710    1.8750 C   0  0  0  0  0  0  0  0  0  0  0  0
   -0.8980    0.4770   -0.1570 S   0  0  0  0  0  0  0  0  0  0  0  0
   -0.0150   -1.0390   -0.7070 C   0  0  1  0  0  0  0  0  0  0  0  0
    1.3560   -0.9360   -0.1500 C   0  0  0  0  0  0  0  0  0  0  0  0
    1.7960   -1.6400    0.7810 O   0  0  0  0  0  0  0  0  0  0  0  0
    2.2180    0.0060   -0.6960 O   0  0  0  0  0  0  0  0  0  0  0  0
    3.5560    0.1690   -0.2160 C   0  0  2  0  0  0  0  0  0  0  0  0
    3.8360    1.6060    0.1650 C   0  0  0  0  0  0  0  0  0  0  0  0
    4.4520   -0.1340   -1.4210 C   0  0  0  0  0  0  0  0  0  0  0  0
   -0.8100   -2.0460   -0.0630 N   0  0  0  0  0  0  0  0  0  0  0  0
   -2.1930   -1.7230   -0.0720 C   0  0  0  0  0  0  0  0  0  0  0  0
   -3.1620   -2.4790   -0.4260 O   0  0  0  0  0  0  0  0  0  0  0  0
  1  2  1  0
  2  3  1  0
  3  4  1  1
  3  5  1  0
  3 14  1  0
  5  6  1  0
  6  7  1  1
  6 13  1  0
  7  8  2  0
  7  9  1  0
  9 10  1  0
 10 11  1  6
 10 12  1  0
 13 14  1  0
 14 15  2  0
M  END
