
     RDKit          3D

 15 16  0  0  0  0  0  0  0  0999 V2000
    5.2450    1.2220   -1.4420 O   0  0  0  0  0  0  0  0  0  0  0  0
    4.6980    0.1130   -0.5870 S   0  0  2  0  0  0  0  0  0  0  0  0
    5.3040   -1.1880   -1.0010 O   0  0  0  0  0  0  0  0  0  0  0  0
    2.9050    0.0550   -0.7210 C   0  0  0  0  0  0  0  0  0  0  0  0
    2.3580   -0.4150    0.5930 C   0  0  0  0  0  0  0  0  0  0  0  0
    0.8770   -0.5160    0.6430 C   0  0  2  0  0  0  0  0  0  0  0  0
    0.3620   -1.4740   -0.3790 C   0  0  0  0  0  0  0  0  0  0  0  0
   -1.1460   -1.4950   -0.4680 C   0  0  0  0  0  0  0  0  0  0  0  0
   -1.6800   -0.1730   -0.4550 N   0  0  0  0  0  0  0  0  0  0  0  0
   -2.9730    0.0090   -0.9420 C   0  0  0  0  0  0  0  0  0  0  0  0
   -3.9540    0.7030   -0.0770 C   0  0  0  0  0  0  0  0  0  0  0  0
   -3.4630    1.2720    1.0610 O   0  0  0  0  0  0  0  0  0  0  0  0
   -2.1450    1.7170    0.9580 C   0  0  0  0  0  0  0  0  0  0  0  0
   -1.3070    0.4950    0.7350 C   0  0  2  0  0  0  0  0  0  0  0  0
    0.1760    0.8240    0.5950 C   0  0  0  0  0  0  0  0  0  0  0  0
  1  2  2  0
  2  3  2  0
  2  4  1  6
  4  5  1  0
  6  5  1  6
  6  7  1  0
  6 15  1  0
  7  8  1  0
  8  9  1  0
  9 10  1  0
  9 14  1  0
 10 11  1  0
 11 12  1  0
 12 13  1  0
 14 13  1  6
 14 15  1  0
M  END
