
     RDKit          3D

 15 15  0  0  0  0  0  0  0  0999 V2000
    4.3760    1.4550    0.5660 C   0  0  0  0  0  0  0  0  0  0  0  0
    3.6560    0.2360   -0.0070 C   0  0  2  0  0  0  0  0  0  0  0  0
    4.3540   -0.1040   -1.3130 C   0  0  0  0  0  0  0  0  0  0  0  0
    2.3180    0.5280   -0.3190 O   0  0  0  0  0  0  0  0  0  0  0  0
    1.2110   -0.0760    0.2220 C   0  0  0  0  0  0  0  0  0  0  0  0
    1.3910   -0.9780    1.0780 O   0  0  0  0  0  0  0  0  0  0  0  0
   -0.1840    0.2760   -0.1470 C   0  0  2  0  0  0  0  0  0  0  0  0
   -1.1980   -0.5490    0.5960 C   0  0  0  0  0  0  0  0  0  0  0  0
   -2.4300   -0.4740   -0.1270 N   0  0  0  0  0  0  0  0  0  0  0  0
   -3.6030   -0.2260    0.6360 C   0  0  0  0  0  0  0  0  0  0  0  0
   -3.5760    1.1850    1.1930 C   0  0  0  0  0  0  0  0  0  0  0  0
   -3.5120    2.0620    0.1090 O   0  0  0  0  0  0  0  0  0  0  0  0
   -2.6010   -1.4700   -1.1300 C   0  0  0  0  0  0  0  0  0  0  0  0
   -1.3980   -1.5890   -2.0440 C   0  0  0  0  0  0  0  0  0  0  0  0
   -0.3750   -0.0900   -1.9120 S   0  0  0  0  0  0  0  0  0  0  0  0
  2  1  1  6
  2  3  1  0
  2  4  1  0
  4  5  1  0
  5  6  2  0
  7  5  1  1
  7  8  1  0
  7 15  1  0
  8  9  1  0
  9 10  1  0
  9 13  1  0
 10 11  1  0
 11 12  1  0
 13 14  1  0
 14 15  1  0
M  END
