
     RDKit          3D

 15 15  0  0  0  0  0  0  0  0999 V2000
   -2.4210    1.6680    2.5630 C   0  0  0  0  0  0  0  0  0  0  0  0
   -2.8080    0.3890    2.9640 O   0  0  0  0  0  0  0  0  0  0  0  0
   -2.6990   -0.4910    1.9060 C   0  0  0  0  0  0  0  0  0  0  0  0
   -1.3000   -0.5750    1.3850 C   0  0  0  0  0  0  0  0  0  0  0  0
   -0.8760   -0.2960    0.1770 C   0  0  0  0  0  0  0  0  0  0  0  0
    0.5570   -0.5100    0.0860 C   0  0  0  0  0  0  0  0  0  0  0  0
    1.3900   -0.4500   -0.9300 C   0  0  0  0  0  0  0  0  0  0  0  0
    2.8400   -0.7290   -0.7000 C   0  0  0  0  0  0  0  0  0  0  0  0
    3.3420   -1.8290   -1.4480 N   0  0  0  0  0  0  0  0  0  0  0  0
    0.9920   -0.1140   -2.2800 C   0  0  0  0  0  0  0  0  0  0  0  0
    2.0940   -0.0660   -3.4750 S   0  0  0  0  0  0  0  0  0  0  0  0
   -0.3170    0.1770   -2.6160 O   0  0  0  0  0  0  0  0  0  0  0  0
   -0.6410    1.5340   -2.9630 C   0  0  0  0  0  0  0  0  0  0  0  0
    0.9730   -0.8410    1.4720 C   0  0  0  0  0  0  0  0  0  0  0  0
   -0.2390   -0.9820    2.1690 O   0  0  0  0  0  0  0  0  0  0  0  0
  1  2  1  0
  2  3  1  0
  3  4  1  0
  4  5  2  0
  4 15  1  0
  5  6  1  0
  6  7  2  3
  6 14  1  0
  7  8  1  0
  7 10  1  0
  8  9  1  0
 10 11  2  0
 10 12  1  0
 12 13  1  0
 14 15  1  0
M  END
