
     RDKit          3D

 12 13  0  0  0  0  0  0  0  0999 V2000
   -3.6370   -1.0420    0.2620 O   0  0  0  0  0  0  0  0  0  0  0  0
   -2.8690   -0.0660    0.4570 C   0  0  0  0  0  0  0  0  0  0  0  0
   -3.3040    1.1620    0.9250 O   0  0  0  0  0  0  0  0  0  0  0  0
   -1.4610   -0.2540    0.1710 C   0  0  0  0  0  0  0  0  0  0  0  0
   -0.9550   -1.4480   -0.2990 C   0  0  0  0  0  0  0  0  0  0  0  0
    0.3790   -1.6430   -0.5750 C   0  0  0  0  0  0  0  0  0  0  0  0
    1.2610   -0.5890   -0.3730 C   0  0  0  0  0  0  0  0  0  0  0  0
    2.6320   -0.4800   -0.5570 C   0  0  0  0  0  0  0  0  0  0  0  0
    2.9620    0.8080   -0.1900 C   0  0  0  0  0  0  0  0  0  0  0  0
    1.8340    1.4290    0.1920 N   0  0  0  0  0  0  0  0  0  0  0  0
    0.7720    0.6110    0.0950 C   0  0  0  0  0  0  0  0  0  0  0  0
   -0.5900    0.7870    0.3700 C   0  0  0  0  0  0  0  0  0  0  0  0
  1  2  2  0
  2  3  1  0
  2  4  1  0
  4  5  2  0
  4 12  1  0
  5  6  1  0
  6  7  2  0
  7  8  1  0
  7 11  1  0
  8  9  2  0
  9 10  1  0
 10 11  1  0
 11 12  2  0
M  END
