
     RDKit          3D

 23 24  0  0  0  0  0  0  0  0999 V2000
   -1.3440    4.9800   -0.6940 C   0  0  0  0  0  0  0  0  0  0  0  0
   -0.5170    3.7750   -0.3430 C   0  0  0  0  0  0  0  0  0  0  0  0
   -0.6920    2.5970   -1.0210 C   0  0  0  0  0  0  0  0  0  0  0  0
    0.0740    1.5020   -0.6880 C   0  0  0  0  0  0  0  0  0  0  0  0
   -0.2400   -0.0080   -1.5810 S   0  0  0  0  0  0  0  0  0  0  0  0
   -1.4830   -0.9840   -0.7490 C   0  0  0  0  0  0  0  0  0  0  0  0
   -2.0930   -0.5890    0.4230 C   0  0  0  0  0  0  0  0  0  0  0  0
   -3.0510   -1.3890    1.0220 C   0  0  0  0  0  0  0  0  0  0  0  0
   -3.4150   -2.5920    0.4650 C   0  0  0  0  0  0  0  0  0  0  0  0
   -4.3670   -3.3610    1.0820 O   0  0  0  0  0  0  0  0  0  0  0  0
   -2.8170   -3.0040   -0.7050 C   0  0  0  0  0  0  0  0  0  0  0  0
   -1.8550   -2.1930   -1.3000 C   0  0  0  0  0  0  0  0  0  0  0  0
    1.0010    1.5790    0.3040 C   0  0  0  0  0  0  0  0  0  0  0  0
    1.8880    0.5240    0.7030 C   0  0  0  0  0  0  0  0  0  0  0  0
    2.4530    0.6600    1.8580 O   0  0  0  0  0  0  0  0  0  0  0  0
    2.2180   -0.6450   -0.0250 N   0  0  0  0  0  0  0  0  0  0  0  0
    3.1360   -1.6050    0.5550 C   0  0  0  0  0  0  0  0  0  0  0  0
    3.3570   -2.7580   -0.3530 C   0  0  0  0  0  0  0  0  0  0  0  0
    4.2450   -3.7770    0.1040 N   0  0  0  0  0  0  0  0  0  0  0  0
    2.8110   -2.8590   -1.4600 O   0  0  0  0  0  0  0  0  0  0  0  0
    1.1250    2.8140    0.9540 C   0  0  0  0  0  0  0  0  0  0  0  0
    1.9760    2.9560    1.8950 O   0  0  0  0  0  0  0  0  0  0  0  0
    0.3860    3.8890    0.6410 N   0  0  0  0  0  0  0  0  0  0  0  0
  1  2  1  0
  2  3  2  0
  2 23  1  0
  3  4  1  0
  4  5  1  0
  4 13  2  0
  5  6  1  0
  6  7  2  0
  6 12  1  0
  7  8  1  0
  8  9  2  0
  9 10  1  0
  9 11  1  0
 11 12  2  0
 13 14  1  0
 13 21  1  0
 14 15  2  0
 14 16  1  0
 16 17  1  0
 17 18  1  0
 18 19  1  0
 18 20  2  0
 21 22  2  0
 21 23  1  0
M  END
