
     RDKit          3D

 14 15  0  0  0  0  0  0  0  0999 V2000
    4.1480   -1.4530   -1.4380 O   0  0  0  0  0  0  0  0  0  0  0  0
    3.4880   -0.9360   -0.5000 C   0  0  0  0  0  0  0  0  0  0  0  0
    4.0690   -0.9280    0.7530 O   0  0  0  0  0  0  0  0  0  0  0  0
    2.1390   -0.3580   -0.7260 C   0  0  0  0  0  0  0  0  0  0  0  0
    1.6020    0.1870    0.5760 C   0  0  0  0  0  0  0  0  0  0  0  0
    0.2500    0.7800    0.4100 C   0  0  0  0  0  0  0  0  0  0  0  0
   -0.1000    2.1140    0.3580 C   0  0  0  0  0  0  0  0  0  0  0  0
   -1.4310    2.2260    0.1980 N   0  0  0  0  0  0  0  0  0  0  0  0
   -1.9970    1.0020    0.1410 C   0  0  0  0  0  0  0  0  0  0  0  0
   -3.3060    0.5530   -0.0120 C   0  0  0  0  0  0  0  0  0  0  0  0
   -3.5800   -0.7990   -0.0340 C   0  0  0  0  0  0  0  0  0  0  0  0
   -2.5170   -1.6680    0.1000 C   0  0  0  0  0  0  0  0  0  0  0  0
   -1.2120   -1.2620    0.2530 C   0  0  0  0  0  0  0  0  0  0  0  0
   -0.9620    0.0970    0.2710 C   0  0  0  0  0  0  0  0  0  0  0  0
  1  2  2  0
  2  3  1  0
  2  4  1  0
  4  5  1  0
  5  6  1  0
  6  7  2  0
  6 14  1  0
  7  8  1  0
  8  9  1  0
  9 10  2  0
  9 14  1  0
 10 11  1  0
 11 12  2  0
 12 13  1  0
 13 14  2  0
M  END
