
     RDKit          3D

 23 24  0  0  0  0  0  0  0  0999 V2000
    5.7860   -1.1410   -0.0310 C   0  0  0  0  0  0  0  0  0  0  0  0
    4.7580   -0.3430    0.4790 O   0  0  0  0  0  0  0  0  0  0  0  0
    3.4530   -0.5040    0.0920 C   0  0  0  0  0  0  0  0  0  0  0  0
    3.0330   -1.4590   -0.7920 C   0  0  0  0  0  0  0  0  0  0  0  0
    1.6850   -1.6030   -1.1520 C   0  0  0  0  0  0  0  0  0  0  0  0
    0.7800   -0.7520   -0.5920 C   0  0  0  0  0  0  0  0  0  0  0  0
   -0.5640   -0.8620   -0.8720 O   0  0  0  0  0  0  0  0  0  0  0  0
   -1.5190    0.1350   -0.7620 C   0  0  0  0  0  0  0  0  0  0  0  0
   -1.3110    1.4380   -0.7930 N   0  0  0  0  0  0  0  0  0  0  0  0
   -2.3180    2.3570   -0.6410 C   0  0  0  0  0  0  0  0  0  0  0  0
   -2.1390    3.5770   -0.6770 O   0  0  0  0  0  0  0  0  0  0  0  0
   -3.6480    1.9360   -0.4410 C   0  0  0  0  0  0  0  0  0  0  0  0
   -3.8320    0.5650   -0.4160 C   0  0  0  0  0  0  0  0  0  0  0  0
   -5.4160   -0.0860    0.1930 S   0  0  0  0  0  0  0  0  0  0  0  0
   -5.1280   -0.2350    2.0160 C   0  0  0  0  0  0  0  0  0  0  0  0
   -2.8300   -0.3140   -0.5780 C   0  0  0  0  0  0  0  0  0  0  0  0
   -3.1120   -1.7350   -0.6960 C   0  0  0  0  0  0  0  0  0  0  0  0
   -3.4380   -2.1810   -2.0590 N   0  0  0  0  0  0  0  0  0  0  0  0
   -3.0970   -2.5500    0.2340 O   0  0  0  0  0  0  0  0  0  0  0  0
    1.2180    0.2260    0.3070 C   0  0  0  0  0  0  0  0  0  0  0  0
    2.5310    0.3790    0.6710 C   0  0  0  0  0  0  0  0  0  0  0  0
    3.0250    1.2980    1.7540 C   0  0  0  0  0  0  0  0  0  0  0  0
    3.0700    2.6710    1.1370 N   0  0  0  0  0  0  0  0  0  0  0  0
  1  2  1  0
  2  3  1  0
  3  4  2  0
  3 21  1  0
  4  5  1  0
  5  6  2  0
  6  7  1  0
  6 20  1  0
  7  8  1  0
  8  9  1  0
  8 16  2  0
  9 10  1  0
 10 11  2  0
 10 12  1  0
 12 13  2  0
 13 14  1  0
 13 16  1  0
 14 15  1  0
 16 17  1  0
 17 18  1  0
 17 19  2  0
 20 21  2  0
 21 22  1  0
 22 23  1  0
M  END
