
     RDKit          3D

 23 24  0  0  0  0  0  0  0  0999 V2000
   -4.2480   -1.6050    1.7450 C   0  0  0  0  0  0  0  0  0  0  0  0
   -3.8510   -1.2330    0.3340 C   0  0  0  0  0  0  0  0  0  0  0  0
   -2.9800    0.0310    0.3620 C   0  0  0  0  0  0  0  0  0  0  0  0
   -3.5700    1.2210    0.5560 C   0  0  0  0  0  0  0  0  0  0  0  0
   -4.9920    1.5990    0.7630 C   0  0  0  0  0  0  0  0  0  0  0  0
   -2.2400    2.4230    0.5240 S   0  0  0  0  0  0  0  0  0  0  0  0
   -0.9340    1.1330    0.2340 C   0  0  0  0  0  0  0  0  0  0  0  0
    0.4510    1.5730    0.1140 C   0  0  0  0  0  0  0  0  0  0  0  0
    0.7370    2.8090    0.2190 O   0  0  0  0  0  0  0  0  0  0  0  0
    1.4990    0.6810   -0.1150 N   0  0  0  0  0  0  0  0  0  0  0  0
    2.8790    0.9700   -0.2510 C   0  0  0  0  0  0  0  0  0  0  0  0
    3.3990    2.2290   -0.1740 C   0  0  0  0  0  0  0  0  0  0  0  0
    4.7360    2.4940   -0.3070 N   0  0  0  0  0  0  0  0  0  0  0  0
    5.5780    1.4750   -0.5240 C   0  0  0  0  0  0  0  0  0  0  0  0
    6.8280    1.7470   -0.6450 N   0  0  0  0  0  0  0  0  0  0  0  0
    5.1490    0.1780   -0.6170 C   0  0  0  0  0  0  0  0  0  0  0  0
    3.7810   -0.0770   -0.4790 C   0  0  0  0  0  0  0  0  0  0  0  0
    3.3980   -1.3820   -0.5780 O   0  0  0  0  0  0  0  0  0  0  0  0
   -1.6230   -0.0000    0.1980 C   0  0  0  0  0  0  0  0  0  0  0  0
   -0.9150   -1.3200   -0.0150 C   0  0  0  0  0  0  0  0  0  0  0  0
   -0.4920   -1.9870    0.9520 O   0  0  0  0  0  0  0  0  0  0  0  0
   -0.7290   -1.8080   -1.2960 O   0  0  0  0  0  0  0  0  0  0  0  0
   -0.0890   -3.0220   -1.5980 C   0  0  0  0  0  0  0  0  0  0  0  0
  1  2  1  0
  2  3  1  0
  3  4  2  0
  3 19  1  0
  4  5  1  0
  4  6  1  0
  6  7  1  0
  7  8  1  0
  7 19  2  0
  8  9  2  0
  8 10  1  0
 10 11  1  0
 11 12  2  0
 11 17  1  0
 12 13  1  0
 13 14  1  0
 14 15  2  0
 14 16  1  0
 16 17  2  0
 17 18  1  0
 19 20  1  0
 20 21  2  0
 20 22  1  0
 22 23  1  0
M  END
