
     RDKit          3D

 43 47  0  0  0  0  0  0  0  0999 V2000
   -7.3630   -0.4470    1.0410 C   0  0  0  0  0  0  0  0  0  0  0  0
   -6.1530    0.3710    1.3470 C   0  0  0  0  0  0  0  0  0  0  0  0
   -5.3680    0.7620    0.2600 O   0  0  0  0  0  0  0  0  0  0  0  0
   -5.9040    1.5690   -0.7310 C   0  0  0  0  0  0  0  0  0  0  0  0
   -7.2050    2.0040   -0.6920 C   0  0  0  0  0  0  0  0  0  0  0  0
   -7.7640    2.8050   -1.6660 C   0  0  0  0  0  0  0  0  0  0  0  0
   -9.1780    3.2570   -1.6090 C   0  0  0  0  0  0  0  0  0  0  0  0
   -6.9170    3.1620   -2.7190 C   0  0  0  0  0  0  0  0  0  0  0  0
   -5.6030    2.7360   -2.7760 C   0  0  0  0  0  0  0  0  0  0  0  0
   -5.0600    1.9310   -1.7910 C   0  0  0  0  0  0  0  0  0  0  0  0
   -3.6890    1.4610   -1.8550 C   0  0  0  0  0  0  0  0  0  0  0  0
   -3.0900    0.6380   -1.0810 N   0  0  0  0  0  0  0  0  0  0  0  0
   -1.7200    0.4240   -1.4660 C   0  0  0  0  0  0  0  0  0  0  0  0
   -0.8530   -0.3770   -0.9120 C   0  0  0  0  0  0  0  0  0  0  0  0
    0.5040   -0.4740   -1.4150 C   0  0  0  0  0  0  0  0  0  0  0  0
    1.3440   -1.3420   -0.7960 C   0  0  0  0  0  0  0  0  0  0  0  0
    0.8390   -2.0580    0.2500 N   0  0  0  0  0  0  0  0  0  0  0  0
    1.2580   -2.9580    0.9850 C   0  0  0  0  0  0  0  0  0  0  0  0
    2.4800   -3.6350    1.0240 N   0  0  0  0  0  0  0  0  0  0  0  0
    3.4100   -3.5140    2.1630 C   0  0  0  0  0  0  0  0  0  0  0  0
    3.8870   -4.9380    2.2930 C   0  0  0  0  0  0  0  0  0  0  0  0
    4.1520   -5.3030    0.8380 C   0  0  0  0  0  0  0  0  0  0  0  0
    3.0900   -4.5690    0.0930 C   0  0  1  0  0  0  0  0  0  0  0  0
    2.0160   -5.4670   -0.5040 C   0  0  0  0  0  0  0  0  0  0  0  0
    1.2620   -6.2590    0.5140 C   0  0  0  0  0  0  0  0  0  0  0  0
    2.6900   -1.4080   -1.2320 N   0  0  0  0  0  0  0  0  0  0  0  0
    3.7930   -1.1220   -0.3810 C   0  0  0  0  0  0  0  0  0  0  0  0
    4.3800    0.2320   -0.5790 C   0  0  0  0  0  0  0  0  0  0  0  0
    4.0800    1.3680    0.1430 C   0  0  0  0  0  0  0  0  0  0  0  0
    4.8730    2.4270   -0.3370 C   0  0  0  0  0  0  0  0  0  0  0  0
    4.9470    3.7340    0.3200 C   0  0  0  0  0  0  0  0  0  0  0  0
    3.9050    4.0920    1.1790 C   0  0  0  0  0  0  0  0  0  0  0  0
    3.9850    5.1870    1.9860 C   0  0  0  0  0  0  0  0  0  0  0  0
    5.1280    6.0300    2.0010 C   0  0  0  0  0  0  0  0  0  0  0  0
    5.2020    7.0520    2.9780 C   0  0  0  0  0  0  0  0  0  0  0  0
    5.2460    7.9250    3.7990 N   0  0  0  0  0  0  0  0  0  0  0  0
    6.1440    5.6770    1.1470 C   0  0  0  0  0  0  0  0  0  0  0  0
    6.0580    4.5550    0.3250 C   0  0  0  0  0  0  0  0  0  0  0  0
    5.5800    1.9010   -1.2960 N   0  0  0  0  0  0  0  0  0  0  0  0
    5.3030    0.6080   -1.4540 O   0  0  0  0  0  0  0  0  0  0  0  0
   -1.5390    1.2610   -2.6280 C   0  0  0  0  0  0  0  0  0  0  0  0
   -0.5210    1.4450   -3.3470 O   0  0  0  0  0  0  0  0  0  0  0  0
   -2.8010    1.8870   -2.8310 O   0  0  0  0  0  0  0  0  0  0  0  0
  1  2  1  0
  2  3  1  0
  3  4  1  0
  4  5  2  0
  4 10  1  0
  5  6  1  0
  6  7  1  0
  6  8  2  0
  8  9  1  0
  9 10  2  0
 10 11  1  0
 11 12  2  0
 11 43  1  0
 12 13  1  0
 13 14  2  3
 13 41  1  0
 14 15  1  0
 15 16  2  3
 16 17  1  0
 16 26  1  0
 17 18  2  3
 18 19  1  0
 19 20  1  0
 19 23  1  0
 20 21  1  0
 21 22  1  0
 22 23  1  0
 23 24  1  1
 24 25  1  0
 26 27  1  0
 27 28  1  0
 28 29  2  0
 28 40  1  0
 29 30  1  0
 30 31  1  0
 30 39  2  0
 31 32  2  0
 31 38  1  0
 32 33  1  0
 33 34  2  0
 34 35  1  0
 34 37  1  0
 35 36  3  0
 37 38  2  0
 39 40  1  0
 41 42  2  0
 41 43  1  0
M  END
