
     RDKit          3D

 43 48  0  0  0  0  0  0  0  0999 V2000
    5.8160   -1.0770    2.8790 C   0  0  0  0  0  0  0  0  0  0  0  0
    5.9730   -1.4640    1.4310 C   0  0  0  0  0  0  0  0  0  0  0  0
    5.4380   -0.6610    0.4910 C   0  0  0  0  0  0  0  0  0  0  0  0
    4.7260    0.5620    0.9170 C   0  0  0  0  0  0  0  0  0  0  0  0
    3.2750    0.6200    0.4770 C   0  0  0  0  0  0  0  0  0  0  0  0
    2.7270    1.8690    1.1100 C   0  0  0  0  0  0  0  0  0  0  0  0
    1.2900    2.1510    0.8350 C   0  0  0  0  0  0  0  0  0  0  0  0
    0.4050    1.1120    1.1850 N   0  0  0  0  0  0  0  0  0  0  0  0
    0.1600    0.5910    2.5340 C   0  0  0  0  0  0  0  0  0  0  0  0
    0.0010   -0.8870    2.2240 C   0  0  0  0  0  0  0  0  0  0  0  0
    0.4320   -1.7880    2.9350 O   0  0  0  0  0  0  0  0  0  0  0  0
   -0.7130   -0.8950    1.0060 N   0  0  0  0  0  0  0  0  0  0  0  0
   -1.5090   -2.0160    0.5310 C   0  0  0  0  0  0  0  0  0  0  0  0
   -2.9210   -1.8910    1.0220 C   0  0  0  0  0  0  0  0  0  0  0  0
   -3.7890   -2.9120    0.6520 N   0  0  0  0  0  0  0  0  0  0  0  0
   -4.2090   -3.1010   -0.6700 C   0  0  0  0  0  0  0  0  0  0  0  0
   -5.2480   -4.2360   -0.6810 C   0  0  2  0  0  0  0  0  0  0  0  0
   -6.0310   -4.0790   -1.9860 C   0  0  0  0  0  0  0  0  0  0  0  0
   -6.1370   -4.0480    0.3620 O   0  0  0  0  0  0  0  0  0  0  0  0
   -5.6190   -4.0410    1.6240 C   0  0  2  0  0  0  0  0  0  0  0  0
   -6.0140   -2.7290    2.2920 C   0  0  0  0  0  0  0  0  0  0  0  0
   -4.0780   -3.9740    1.5470 C   0  0  0  0  0  0  0  0  0  0  0  0
   -0.4640    0.3660    0.3520 C   0  0  0  0  0  0  0  0  0  0  0  0
   -1.0000    0.6840   -0.7670 N   0  0  0  0  0  0  0  0  0  0  0  0
   -0.8740    1.8640   -1.4960 C   0  0  0  0  0  0  0  0  0  0  0  0
   -0.0930    1.9990   -2.6340 C   0  0  0  0  0  0  0  0  0  0  0  0
    0.0620    3.1740   -3.3110 C   0  0  0  0  0  0  0  0  0  0  0  0
   -0.5930    4.2920   -2.8400 C   0  0  0  0  0  0  0  0  0  0  0  0
   -0.6310    5.5250   -3.2640 O   0  0  0  0  0  0  0  0  0  0  0  0
   -1.3930    6.2830   -2.4960 C   0  0  0  0  0  0  0  0  0  0  0  0
   -1.7380    7.6200   -2.5310 C   0  0  0  0  0  0  0  0  0  0  0  0
   -2.5790    8.1610   -1.5630 C   0  0  0  0  0  0  0  0  0  0  0  0
   -3.0820    7.3590   -0.5500 C   0  0  0  0  0  0  0  0  0  0  0  0
   -2.7330    6.0250   -0.5250 C   0  0  0  0  0  0  0  0  0  0  0  0
   -1.8920    5.4880   -1.4940 C   0  0  0  0  0  0  0  0  0  0  0  0
   -1.3910    4.2180   -1.7040 C   0  0  0  0  0  0  0  0  0  0  0  0
   -1.5250    3.0180   -1.0480 C   0  0  0  0  0  0  0  0  0  0  0  0
    5.5890   -1.0900   -0.8870 C   0  0  0  0  0  0  0  0  0  0  0  0
    5.1150   -0.3870   -1.8350 O   0  0  0  0  0  0  0  0  0  0  0  0
    6.2500   -2.2820   -1.2910 N   0  0  0  0  0  0  0  0  0  0  0  0
    6.5970   -2.6030   -2.6640 C   0  0  0  0  0  0  0  0  0  0  0  0
    6.5930   -3.2510   -0.2450 C   0  0  0  0  0  0  0  0  0  0  0  0
    6.6690   -2.6350    1.0480 N   0  0  0  0  0  0  0  0  0  0  0  0
  1  2  1  0
  2  3  2  0
  2 43  1  0
  3  4  1  0
  3 38  1  0
  4  5  1  0
  5  6  1  0
  6  7  1  0
  7  8  1  0
  8  9  1  0
  8 23  1  0
  9 10  1  0
 10 11  2  0
 10 12  1  0
 12 13  1  0
 12 23  1  0
 13 14  1  0
 14 15  1  0
 15 16  1  0
 15 22  1  0
 16 17  1  0
 17 18  1  6
 17 19  1  0
 19 20  1  0
 20 21  1  1
 20 22  1  0
 23 24  2  3
 24 25  1  0
 25 26  2  0
 25 37  1  0
 26 27  1  0
 27 28  2  0
 28 29  1  0
 28 36  1  0
 29 30  1  0
 30 31  2  0
 30 35  1  0
 31 32  1  0
 32 33  2  0
 33 34  1  0
 34 35  2  0
 35 36  1  0
 36 37  2  0
 38 39  2  0
 38 40  1  0
 40 41  1  0
 40 42  1  0
 42 43  1  0
M  END
