
     RDKit          3D

 43 48  0  0  0  0  0  0  0  0999 V2000
    4.8840    4.8540   -0.5330 C   0  0  0  0  0  0  0  0  0  0  0  0
    4.5610    4.2510   -1.8720 C   0  0  0  0  0  0  0  0  0  0  0  0
    3.7160    3.0970   -1.6700 N   0  0  0  0  0  0  0  0  0  0  0  0
    2.3590    3.1100   -1.6220 C   0  0  0  0  0  0  0  0  0  0  0  0
    1.5590    4.3460   -1.7740 C   0  0  0  0  0  0  0  0  0  0  0  0
    1.8800    1.8640   -1.4130 C   0  0  0  0  0  0  0  0  0  0  0  0
    0.4590    1.4360   -1.2520 C   0  0  0  0  0  0  0  0  0  0  0  0
   -0.0380    1.7850    0.1000 C   0  0  0  0  0  0  0  0  0  0  0  0
    0.8320    2.4110    0.8190 O   0  0  0  0  0  0  0  0  0  0  0  0
   -1.2590    1.5430    0.6750 N   0  0  0  0  0  0  0  0  0  0  0  0
   -1.5000    2.0810    2.0540 C   0  0  0  0  0  0  0  0  0  0  0  0
   -2.4450    3.2470    1.7760 C   0  0  0  0  0  0  0  0  0  0  0  0
   -3.6340    2.7050    1.1900 N   0  0  0  0  0  0  0  0  0  0  0  0
   -4.1320    3.4850    0.0850 C   0  0  0  0  0  0  0  0  0  0  0  0
   -4.6660    4.7990    0.5110 C   0  0  0  0  0  0  0  0  0  0  0  0
   -4.5340    6.1250    0.4680 N   0  0  0  0  0  0  0  0  0  0  0  0
   -5.6200    5.6690    1.2120 C   0  0  0  0  0  0  0  0  0  0  0  0
   -3.6320    1.3070    0.9390 C   0  0  0  0  0  0  0  0  0  0  0  0
   -2.4070    0.8250    0.1790 C   0  0  2  0  0  0  0  0  0  0  0  0
   -2.2680   -0.6400    0.2340 C   0  0  0  0  0  0  0  0  0  0  0  0
   -1.1060   -1.1230    0.3630 O   0  0  0  0  0  0  0  0  0  0  0  0
   -3.3120   -1.5330    0.1600 O   0  0  0  0  0  0  0  0  0  0  0  0
   -3.0290   -2.9970    0.2220 C   0  0  1  0  0  0  0  0  0  0  0  0
   -3.4350   -3.4310    1.5490 C   0  0  0  0  0  0  0  0  0  0  0  0
   -4.2670   -4.3180    1.9580 C   0  0  0  0  0  0  0  0  0  0  0  0
   -4.3130   -4.3650    3.4510 C   0  0  0  0  0  0  0  0  0  0  0  0
   -3.3520   -3.3290    3.8420 C   0  0  0  0  0  0  0  0  0  0  0  0
   -2.8510   -2.7970    2.7730 C   0  0  0  0  0  0  0  0  0  0  0  0
   -3.6590   -3.5270   -0.9820 C   0  0  2  0  0  0  0  0  0  0  0  0
   -5.2150   -3.3180   -1.0300 C   0  0  0  0  0  0  0  0  0  0  0  0
   -4.5550   -4.6250   -1.2650 C   0  0  0  0  0  0  0  0  0  0  0  0
    2.9750    1.0040   -1.3240 C   0  0  0  0  0  0  0  0  0  0  0  0
    3.0620   -0.3450   -1.1130 C   0  0  0  0  0  0  0  0  0  0  0  0
    4.3290   -0.9310   -1.0540 C   0  0  0  0  0  0  0  0  0  0  0  0
    4.3790   -2.3310   -0.8520 N   0  0  0  0  0  0  0  0  0  0  0  0
    5.4920   -2.9490   -0.2680 C   0  0  0  0  0  0  0  0  0  0  0  0
    6.4880   -2.3090    0.1140 O   0  0  0  0  0  0  0  0  0  0  0  0
    5.5570   -4.3750   -0.0720 N   0  0  0  0  0  0  0  0  0  0  0  0
    6.7280   -4.9680    0.5160 C   0  0  0  0  0  0  0  0  0  0  0  0
    4.4440   -5.1810   -0.4680 C   0  0  0  0  0  0  0  0  0  0  0  0
    5.4220   -0.1160   -1.2160 C   0  0  0  0  0  0  0  0  0  0  0  0
    5.3450    1.2510   -1.4350 C   0  0  0  0  0  0  0  0  0  0  0  0
    4.0930    1.8140   -1.4880 C   0  0  0  0  0  0  0  0  0  0  0  0
  1  2  1  0
  2  3  1  0
  3  4  1  0
  3 43  1  0
  4  5  1  0
  4  6  2  0
  6  7  1  0
  6 32  1  0
  7  8  1  0
  8  9  2  0
  8 10  1  0
 10 11  1  0
 10 19  1  0
 11 12  1  0
 12 13  1  0
 13 14  1  0
 13 18  1  0
 14 15  1  0
 15 16  2  0
 15 17  1  0
 16 17  1  0
 18 19  1  0
 19 20  1  1
 20 21  2  0
 20 22  1  0
 23 22  1  1
 23 24  1  0
 23 29  1  0
 24 25  2  0
 24 28  1  0
 25 26  1  0
 26 27  1  0
 27 28  2  0
 29 30  1  1
 29 31  1  0
 30 31  1  0
 32 33  2  0
 32 43  1  0
 33 34  1  0
 34 35  1  0
 34 41  2  0
 35 36  1  0
 36 37  2  0
 36 38  1  0
 38 39  1  0
 38 40  1  0
 41 42  1  0
 42 43  2  0
M  END
