
     RDKit          3D

 43 48  0  0  0  0  0  0  0  0999 V2000
   -6.8890    1.2880   -2.2380 C   0  0  0  0  0  0  0  0  0  0  0  0
   -6.0420    0.7540   -3.3410 C   0  0  0  0  0  0  0  0  0  0  0  0
   -5.4130   -0.5650   -3.0940 C   0  0  0  0  0  0  0  0  0  0  0  0
   -4.4710   -0.6910   -1.9750 C   0  0  1  0  0  0  0  0  0  0  0  0
   -3.9500   -2.1620   -1.9040 C   0  0  0  0  0  0  0  0  0  0  0  0
   -4.9560   -3.0600   -1.6900 O   0  0  0  0  0  0  0  0  0  0  0  0
   -5.6810   -2.8640   -0.5330 C   0  0  0  0  0  0  0  0  0  0  0  0
   -4.7820   -2.9050    0.6810 C   0  0  0  0  0  0  0  0  0  0  0  0
   -3.2440    0.0840   -2.2210 N   0  0  0  0  0  0  0  0  0  0  0  0
   -2.2890    0.3280   -1.1980 C   0  0  0  0  0  0  0  0  0  0  0  0
   -2.5090   -0.1520   -0.0660 O   0  0  0  0  0  0  0  0  0  0  0  0
   -1.1050    1.1330   -1.5710 C   0  0  0  0  0  0  0  0  0  0  0  0
   -0.1150    1.2480   -0.5150 N   0  0  0  0  0  0  0  0  0  0  0  0
   -0.1540    2.2450    0.4400 C   0  0  0  0  0  0  0  0  0  0  0  0
    0.7940    2.4560    1.2510 O   0  0  0  0  0  0  0  0  0  0  0  0
   -1.3430    3.1100    0.5510 C   0  0  0  0  0  0  0  0  0  0  0  0
   -1.5190    4.1370    1.4830 C   0  0  0  0  0  0  0  0  0  0  0  0
   -2.7140    4.7070    1.3280 N   0  0  0  0  0  0  0  0  0  0  0  0
   -3.3820    5.6980    1.9380 C   0  0  0  0  0  0  0  0  0  0  0  0
   -4.6400    6.0230    1.5110 C   0  0  0  0  0  0  0  0  0  0  0  0
   -5.2630    5.4030    0.5040 N   0  0  0  0  0  0  0  0  0  0  0  0
   -4.5920    4.3980   -0.1200 C   0  0  0  0  0  0  0  0  0  0  0  0
   -3.3240    4.0680    0.3060 C   0  0  0  0  0  0  0  0  0  0  0  0
   -2.4900    3.1220   -0.1410 N   0  0  0  0  0  0  0  0  0  0  0  0
    0.9530    0.2970   -0.5250 C   0  0  0  0  0  0  0  0  0  0  0  0
    0.6960   -1.0030   -0.9820 C   0  0  0  0  0  0  0  0  0  0  0  0
    1.6400   -1.9700   -1.0480 C   0  0  0  0  0  0  0  0  0  0  0  0
    2.9340   -1.7030   -0.6530 C   0  0  0  0  0  0  0  0  0  0  0  0
    3.2160   -0.4490   -0.2020 C   0  0  0  0  0  0  0  0  0  0  0  0
    2.2320    0.5540   -0.1370 C   0  0  0  0  0  0  0  0  0  0  0  0
    4.6220   -0.2080    0.2390 C   0  0  0  0  0  0  0  0  0  0  0  0
    4.9830   -1.4540    1.0330 C   0  0  2  0  0  0  0  0  0  0  0  0
    6.1910   -1.2660    1.8590 C   0  0  0  0  0  0  0  0  0  0  0  0
    6.1900   -0.4160    2.8990 C   0  0  0  0  0  0  0  0  0  0  0  0
    7.4180   -0.2840    3.6670 C   0  0  0  0  0  0  0  0  0  0  0  0
    7.8570    0.3910    4.7110 C   0  0  0  0  0  0  0  0  0  0  0  0
    9.1880   -0.2070    4.6340 C   0  0  0  0  0  0  0  0  0  0  0  0
    8.7650   -0.8920    3.5880 C   0  0  0  0  0  0  0  0  0  0  0  0
    7.3210   -1.9840    1.5390 O   0  0  0  0  0  0  0  0  0  0  0  0
    7.1540   -3.3020    1.0320 C   0  0  0  0  0  0  0  0  0  0  0  0
    6.2130   -3.1710   -0.1390 C   0  0  0  0  0  0  0  0  0  0  0  0
    4.9550   -2.6250    0.2510 N   0  0  0  0  0  0  0  0  0  0  0  0
    3.9430   -2.7460   -0.7500 C   0  0  0  0  0  0  0  0  0  0  0  0
  1  2  1  0
  2  3  1  0
  4  3  1  6
  4  5  1  0
  4  9  1  0
  5  6  1  0
  6  7  1  0
  7  8  1  0
  9 10  1  0
 10 11  2  0
 10 12  1  0
 12 13  1  0
 13 14  1  0
 13 25  1  0
 14 15  2  0
 14 16  1  0
 16 17  2  0
 16 24  1  0
 17 18  1  0
 18 19  1  0
 18 23  1  0
 19 20  2  0
 20 21  1  0
 21 22  2  0
 22 23  1  0
 23 24  2  0
 25 26  2  0
 25 30  1  0
 26 27  1  0
 27 28  2  0
 28 29  1  0
 28 43  1  0
 29 30  2  0
 29 31  1  0
 32 31  1  6
 32 33  1  0
 32 42  1  0
 33 34  2  3
 33 39  1  0
 34 35  1  0
 35 36  2  0
 35 38  1  0
 36 37  1  0
 37 38  2  0
 39 40  1  0
 40 41  1  0
 41 42  1  0
 42 43  1  0
M  END
