
     RDKit          3D

 43 48  0  0  0  0  0  0  0  0999 V2000
    5.3100   -6.1540    0.1640 C   0  0  0  0  0  0  0  0  0  0  0  0
    4.5640   -5.6390   -0.8940 O   0  0  0  0  0  0  0  0  0  0  0  0
    4.4160   -4.2640   -1.0710 C   0  0  0  0  0  0  0  0  0  0  0  0
    4.9820   -3.3260   -0.2350 C   0  0  0  0  0  0  0  0  0  0  0  0
    4.8010   -1.9530   -0.4610 C   0  0  0  0  0  0  0  0  0  0  0  0
    4.0520   -1.5040   -1.5240 C   0  0  0  0  0  0  0  0  0  0  0  0
    3.8490   -0.1010   -1.7820 N   0  0  0  0  0  0  0  0  0  0  0  0
    4.4990    0.6340   -2.6710 N   0  0  0  0  0  0  0  0  0  0  0  0
    4.0300    1.8860   -2.6230 C   0  0  0  0  0  0  0  0  0  0  0  0
    3.0860    1.9150   -1.6940 N   0  0  0  0  0  0  0  0  0  0  0  0
    2.9740    0.6830   -1.1740 C   0  0  0  0  0  0  0  0  0  0  0  0
    2.0430    0.3630   -0.1320 N   0  0  0  0  0  0  0  0  0  0  0  0
    1.1480    1.3290    0.3980 C   0  0  0  0  0  0  0  0  0  0  0  0
    1.2310    2.4810   -0.1140 O   0  0  0  0  0  0  0  0  0  0  0  0
    0.2080    1.0210    1.4460 N   0  0  0  0  0  0  0  0  0  0  0  0
    0.2020   -0.2910    1.9690 C   0  0  0  0  0  0  0  0  0  0  0  0
   -0.7330   -1.1710    1.1800 C   0  0  0  0  0  0  0  0  0  0  0  0
   -1.3380   -0.6110    0.2440 O   0  0  0  0  0  0  0  0  0  0  0  0
   -0.8690   -2.5740    1.5420 C   0  0  0  0  0  0  0  0  0  0  0  0
   -0.1820   -3.0500    2.6540 C   0  0  0  0  0  0  0  0  0  0  0  0
   -0.2820   -4.3580    3.0860 C   0  0  0  0  0  0  0  0  0  0  0  0
   -1.0920   -5.2260    2.3910 C   0  0  0  0  0  0  0  0  0  0  0  0
   -1.7670   -4.7560    1.2960 C   0  0  0  0  0  0  0  0  0  0  0  0
   -1.6650   -3.4180    0.8530 C   0  0  0  0  0  0  0  0  0  0  0  0
   -2.3750   -3.0790   -0.3020 N   0  0  0  0  0  0  0  0  0  0  0  0
   -1.9250   -2.7670   -1.6510 C   0  0  0  0  0  0  0  0  0  0  0  0
   -2.9510   -3.5700   -2.5100 C   0  0  0  0  0  0  0  0  0  0  0  0
   -4.2200   -3.2710   -1.7800 C   0  0  0  0  0  0  0  0  0  0  0  0
   -3.8470   -3.0110   -0.3590 C   0  0  0  0  0  0  0  0  0  0  0  0
   -0.6610    2.0950    1.9340 C   0  0  1  0  0  0  0  0  0  0  0  0
    0.0960    3.0960    2.7240 C   0  0  0  0  0  0  0  0  0  0  0  0
    0.1520    4.4870    2.2240 C   0  0  0  0  0  0  0  0  0  0  0  0
   -1.1660    4.9740    1.6680 C   0  0  0  0  0  0  0  0  0  0  0  0
   -1.5660    4.0570    0.5670 C   0  0  2  0  0  0  0  0  0  0  0  0
   -2.8430    4.4300    0.0430 O   0  0  0  0  0  0  0  0  0  0  0  0
   -2.9950    5.6920   -0.5040 C   0  0  0  0  0  0  0  0  0  0  0  0
   -2.4340    6.0970   -1.6290 C   0  0  0  0  0  0  0  0  0  0  0  0
   -2.8350    7.5060   -1.8800 C   0  0  0  0  0  0  0  0  0  0  0  0
   -3.7050    7.7900   -0.7060 C   0  0  0  0  0  0  0  0  0  0  0  0
   -3.8020    6.7460    0.0930 C   0  0  0  0  0  0  0  0  0  0  0  0
   -1.5760    2.6030    0.9080 C   0  0  0  0  0  0  0  0  0  0  0  0
    3.4880   -2.4440   -2.3580 C   0  0  0  0  0  0  0  0  0  0  0  0
    3.6680   -3.7940   -2.1340 C   0  0  0  0  0  0  0  0  0  0  0  0
  1  2  1  0
  2  3  1  0
  3  4  2  0
  3 43  1  0
  4  5  1  0
  5  6  2  0
  6  7  1  0
  6 42  1  0
  7  8  1  0
  7 11  1  0
  8  9  2  0
  9 10  1  0
 10 11  2  0
 11 12  1  0
 12 13  1  0
 13 14  2  0
 13 15  1  0
 15 16  1  0
 30 15  1  6
 16 17  1  0
 17 18  2  0
 17 19  1  0
 19 20  2  0
 19 24  1  0
 20 21  1  0
 21 22  2  0
 22 23  1  0
 23 24  2  0
 24 25  1  0
 25 26  1  0
 25 29  1  0
 26 27  1  0
 27 28  1  0
 28 29  1  0
 30 31  1  0
 30 41  1  0
 31 32  1  0
 32 33  1  0
 33 34  1  0
 34 35  1  1
 34 41  1  0
 35 36  1  0
 36 37  2  0
 36 40  1  0
 37 38  1  0
 38 39  1  0
 39 40  2  0
 42 43  2  0
M  END
