
     RDKit          3D

 25 28  0  0  0  0  0  0  0  0999 V2000
   -3.2000   -2.9140    1.2620 C   0  0  0  0  0  0  0  0  0  0  0  0
   -2.7990   -1.7490    0.4110 C   0  0  0  0  0  0  0  0  0  0  0  0
   -3.0410   -1.7510   -0.9590 C   0  0  0  0  0  0  0  0  0  0  0  0
   -2.6790   -0.6870   -1.7610 C   0  0  0  0  0  0  0  0  0  0  0  0
   -2.9480   -0.7120   -3.2270 C   0  0  0  0  0  0  0  0  0  0  0  0
   -2.0620    0.3860   -1.1360 C   0  0  0  0  0  0  0  0  0  0  0  0
   -1.6700    1.5320   -1.9870 C   0  0  0  0  0  0  0  0  0  0  0  0
   -1.8040    0.4390    0.1960 C   0  0  0  0  0  0  0  0  0  0  0  0
   -1.1530    1.5910    0.8060 C   0  0  0  0  0  0  0  0  0  0  0  0
   -1.6730    2.8380    0.7990 N   0  0  0  0  0  0  0  0  0  0  0  0
   -0.8240    3.6410    1.4400 N   0  0  0  0  0  0  0  0  0  0  0  0
    0.2470    2.9290    1.8670 C   0  0  0  0  0  0  0  0  0  0  0  0
    1.4340    3.4010    2.6200 C   0  0  0  0  0  0  0  0  0  0  0  0
    0.0500    1.6280    1.4710 C   0  0  0  0  0  0  0  0  0  0  0  0
    0.8900    0.4400    1.6670 C   0  0  0  0  0  0  0  0  0  0  0  0
    0.8600   -0.4260    2.6940 N   0  0  0  0  0  0  0  0  0  0  0  0
    1.7680   -1.3630    2.5120 N   0  0  0  0  0  0  0  0  0  0  0  0
    2.3950   -1.1020    1.3510 C   0  0  0  0  0  0  0  0  0  0  0  0
    3.4170   -1.7290    0.6580 C   0  0  0  0  0  0  0  0  0  0  0  0
    3.8740   -1.2300   -0.5390 C   0  0  0  0  0  0  0  0  0  0  0  0
    4.9860   -1.9590   -1.2410 C   0  0  0  0  0  0  0  0  0  0  0  0
    3.3030   -0.0900   -1.0520 C   0  0  0  0  0  0  0  0  0  0  0  0
    2.2880    0.5240   -0.3540 C   0  0  0  0  0  0  0  0  0  0  0  0
    1.8600    0.0060    0.8260 N   0  0  0  0  0  0  0  0  0  0  0  0
   -2.1820   -0.6530    0.9810 C   0  0  0  0  0  0  0  0  0  0  0  0
  1  2  1  0
  2  3  2  0
  2 25  1  0
  3  4  1  0
  4  5  1  0
  4  6  2  0
  6  7  1  0
  6  8  1  0
  8  9  1  0
  8 25  2  0
  9 10  1  0
  9 14  2  0
 10 11  1  0
 11 12  2  0
 12 13  1  0
 12 14  1  0
 14 15  1  0
 15 16  2  0
 15 24  1  0
 16 17  1  0
 17 18  2  0
 18 19  1  0
 18 24  1  0
 19 20  2  0
 20 21  1  0
 20 22  1  0
 22 23  2  0
 23 24  1  0
M  END
