
     RDKit          3D

 25 28  0  0  0  0  0  0  0  0999 V2000
   -5.2680   -2.9600   -0.1370 C   0  0  0  0  0  0  0  0  0  0  0  0
   -4.0630   -2.2610    0.4900 C   0  0  0  0  0  0  0  0  0  0  0  0
   -4.2320   -0.7880    0.3950 C   0  0  0  0  0  0  0  0  0  0  0  0
   -5.4810   -0.2500    0.3030 N   0  0  0  0  0  0  0  0  0  0  0  0
   -5.6510    1.0760    0.1890 C   0  0  0  0  0  0  0  0  0  0  0  0
   -6.9730    1.7410    0.0720 C   0  0  0  0  0  0  0  0  0  0  0  0
   -4.5620    1.8560    0.1680 N   0  0  0  0  0  0  0  0  0  0  0  0
   -3.3060    1.3830    0.2550 C   0  0  0  0  0  0  0  0  0  0  0  0
   -2.2200    2.2340    0.2180 C   0  0  0  0  0  0  0  0  0  0  0  0
   -0.9590    1.6880    0.3040 C   0  0  0  0  0  0  0  0  0  0  0  0
    0.0870    2.5180    0.2440 N   0  0  0  0  0  0  0  0  0  0  0  0
    1.3760    2.0170    0.2990 C   0  0  0  0  0  0  0  0  0  0  0  0
    2.4240    2.9640    0.2050 N   0  0  0  0  0  0  0  0  0  0  0  0
    1.6490    0.6870    0.4150 C   0  0  0  0  0  0  0  0  0  0  0  0
    2.9350    0.1530    0.4640 N   0  0  0  0  0  0  0  0  0  0  0  0
    2.9230   -1.3190    0.3050 C   0  0  0  0  0  0  0  0  0  0  0  0
    4.2150   -1.9000   -0.1420 C   0  0  0  0  0  0  0  0  0  0  0  0
    4.8220   -1.0580   -1.2370 C   0  0  0  0  0  0  0  0  0  0  0  0
    5.8770   -0.2070   -0.5950 C   0  0  0  0  0  0  0  0  0  0  0  0
    5.3960    0.2170    0.7540 C   0  0  0  0  0  0  0  0  0  0  0  0
    4.0660    0.9940    0.6620 C   0  0  0  0  0  0  0  0  0  0  0  0
    0.5190   -0.1490    0.4770 C   0  0  0  0  0  0  0  0  0  0  0  0
   -0.7730    0.3320    0.4220 C   0  0  0  0  0  0  0  0  0  0  0  0
   -1.8530   -0.5370    0.4610 C   0  0  0  0  0  0  0  0  0  0  0  0
   -3.1240    0.0230    0.3720 C   0  0  0  0  0  0  0  0  0  0  0  0
  1  2  1  0
  2  3  1  0
  3  4  2  0
  3 25  1  0
  4  5  1  0
  5  6  1  0
  5  7  2  0
  7  8  1  0
  8  9  2  0
  8 25  1  0
  9 10  1  0
 10 11  2  0
 10 23  1  0
 11 12  1  0
 12 13  1  0
 12 14  2  0
 14 15  1  0
 14 22  1  0
 15 16  1  0
 15 21  1  0
 16 17  1  0
 17 18  1  0
 18 19  1  0
 19 20  1  0
 20 21  1  0
 22 23  2  0
 23 24  1  0
 24 25  2  0
M  END
