
     RDKit          3D

 21 23  0  0  0  0  0  0  0  0999 V2000
   -2.9950    1.7350    0.3100 C   0  0  0  0  0  0  0  0  0  0  0  0
   -3.4470    0.4840    0.8740 N   0  0  1  0  0  0  0  0  0  0  0  0
   -4.8890    0.4490    0.7020 C   0  0  0  0  0  0  0  0  0  0  0  0
   -2.7990   -0.6760    0.3530 C   0  0  0  0  0  0  0  0  0  0  0  0
   -1.8170   -0.3780   -0.7750 C   0  0  1  0  0  0  0  0  0  0  0  0
   -0.8210    0.4570   -0.3650 O   0  0  0  0  0  0  0  0  0  0  0  0
    0.3980   -0.0800   -0.6640 C   0  0  1  0  0  0  0  0  0  0  0  0
    1.4770    0.4150    0.1310 N   0  0  0  0  0  0  0  0  0  0  0  0
    1.4590    1.1620    1.2500 C   0  0  0  0  0  0  0  0  0  0  0  0
    2.7150    1.4010    1.6680 N   0  0  0  0  0  0  0  0  0  0  0  0
    3.5540    0.7990    0.8050 C   0  0  0  0  0  0  0  0  0  0  0  0
    4.9190    0.6990    0.7210 C   0  0  0  0  0  0  0  0  0  0  0  0
    5.7400    1.3160    1.6850 N   0  0  0  0  0  0  0  0  0  0  0  0
    5.4990    0.0170   -0.2740 N   0  0  0  0  0  0  0  0  0  0  0  0
    4.7480   -0.5780   -1.2030 C   0  0  0  0  0  0  0  0  0  0  0  0
    3.4090   -0.4910   -1.1360 N   0  0  0  0  0  0  0  0  0  0  0  0
    2.7770    0.1940   -0.1390 C   0  0  0  0  0  0  0  0  0  0  0  0
    0.1560   -1.5740   -0.4020 C   0  0  2  0  0  0  0  0  0  0  0  0
    1.1510   -2.3490   -0.9880 O   0  0  0  0  0  0  0  0  0  0  0  0
   -1.1730   -1.7250   -1.1150 C   0  0  2  0  0  0  0  0  0  0  0  0
   -0.9100   -1.7850   -2.4700 O   0  0  0  0  0  0  0  0  0  0  0  0
  2  1  1  6
  2  3  1  0
  2  4  1  0
  5  4  1  1
  5  6  1  0
  5 20  1  0
  6  7  1  0
  7  8  1  1
  7 18  1  0
  8  9  1  0
  8 17  1  0
  9 10  2  0
 10 11  1  0
 11 12  2  0
 11 17  1  0
 12 13  1  0
 12 14  1  0
 14 15  2  0
 15 16  1  0
 16 17  2  0
 18 19  1  6
 18 20  1  0
 20 21  1  6
M  CHG  1   2   1
M  END
