
     RDKit          3D

 18 20  0  0  0  0  0  0  0  0999 V2000
    4.9970   -0.3380   -1.0170 C   0  0  0  0  0  0  0  0  0  0  0  0
    3.8730   -0.8490   -0.4570 C   0  0  0  0  0  0  0  0  0  0  0  0
    3.4130   -0.2660    0.8200 C   0  0  0  0  0  0  0  0  0  0  0  0
    2.1530    0.2700    0.7320 O   0  0  0  0  0  0  0  0  0  0  0  0
    0.9850   -0.3550    0.4940 C   0  0  0  0  0  0  0  0  0  0  0  0
    0.8810   -1.7050    0.3260 C   0  0  0  0  0  0  0  0  0  0  0  0
   -0.3920   -2.2440    0.0870 C   0  0  0  0  0  0  0  0  0  0  0  0
   -1.5280   -1.4690    0.0170 C   0  0  0  0  0  0  0  0  0  0  0  0
   -2.7540   -2.0710   -0.2230 C   0  0  0  0  0  0  0  0  0  0  0  0
   -3.8680   -1.2620   -0.2850 C   0  0  0  0  0  0  0  0  0  0  0  0
   -3.7400    0.1200   -0.1090 C   0  0  0  0  0  0  0  0  0  0  0  0
   -4.7950    0.7980   -0.1780 O   0  0  0  0  0  0  0  0  0  0  0  0
   -2.5330    0.6590    0.1210 N   0  0  0  0  0  0  0  0  0  0  0  0
   -1.4100   -0.1100    0.1890 C   0  0  0  0  0  0  0  0  0  0  0  0
   -0.1740    0.4250    0.4230 C   0  0  0  0  0  0  0  0  0  0  0  0
   -0.0300    1.8870    0.6110 C   0  0  0  0  0  0  0  0  0  0  0  0
   -1.1070    2.5360   -0.2680 C   0  0  0  0  0  0  0  0  0  0  0  0
   -2.4420    2.0940    0.2990 C   0  0  0  0  0  0  0  0  0  0  0  0
  1  2  2  0
  2  3  1  0
  3  4  1  0
  4  5  1  0
  5  6  2  0
  5 15  1  0
  6  7  1  0
  7  8  2  0
  8  9  1  0
  8 14  1  0
  9 10  2  0
 10 11  1  0
 11 12  2  0
 11 13  1  0
 13 14  1  0
 13 18  1  0
 14 15  2  0
 15 16  1  0
 16 17  1  0
 17 18  1  0
M  END
