
     RDKit          3D

 17 19  0  0  0  0  0  0  0  0999 V2000
   -1.6250    1.2130   -3.5360 O   0  0  0  0  0  0  0  0  0  0  0  0
   -2.3330    0.5260   -2.7700 C   0  0  0  0  0  0  0  0  0  0  0  0
   -1.9540   -0.1300   -1.5560 C   0  0  0  0  0  0  0  0  0  0  0  0
   -0.7340   -0.1080   -1.0310 C   0  0  0  0  0  0  0  0  0  0  0  0
    0.2090    0.6770   -1.8440 C   0  0  0  0  0  0  0  0  0  0  0  0
    1.5350    0.7070   -1.3670 O   0  0  0  0  0  0  0  0  0  0  0  0
    2.0650    0.8430   -0.0980 C   0  0  0  0  0  0  0  0  0  0  0  0
    3.1430    1.6740    0.0390 C   0  0  0  0  0  0  0  0  0  0  0  0
    3.7670    1.8990    1.2540 C   0  0  0  0  0  0  0  0  0  0  0  0
    3.3080    1.2740    2.3930 C   0  0  0  0  0  0  0  0  0  0  0  0
    2.2240    0.4330    2.2730 C   0  0  0  0  0  0  0  0  0  0  0  0
    1.6100    0.2160    1.0630 C   0  0  0  0  0  0  0  0  0  0  0  0
    0.5140   -0.6840    1.0980 N   0  0  0  0  0  0  0  0  0  0  0  0
   -0.4570   -0.8140    0.2250 C   0  0  0  0  0  0  0  0  0  0  0  0
   -1.3470   -1.8810    0.7100 C   0  0  0  0  0  0  0  0  0  0  0  0
   -2.4090   -2.2080   -0.2980 C   0  0  0  0  0  0  0  0  0  0  0  0
   -2.9930   -0.9080   -0.8150 C   0  0  0  0  0  0  0  0  0  0  0  0
  1  2  2  0
  2  3  1  0
  3  4  2  0
  3 17  1  0
  4  5  1  0
  4 14  1  0
  5  6  1  0
  6  7  1  0
  7  8  2  0
  7 12  1  0
  8  9  1  0
  9 10  2  0
 10 11  1  0
 11 12  2  0
 12 13  1  0
 13 14  2  0
 14 15  1  0
 15 16  1  0
 16 17  1  0
M  END
