
     RDKit          3D

 18 20  0  0  0  0  0  0  0  0999 V2000
    2.2960    2.0000   -0.4680 C   0  0  0  0  0  0  0  0  0  0  0  0
    2.9900    0.7070   -0.1140 C   0  0  0  0  0  0  0  0  0  0  0  0
    2.4310   -0.4480    0.2100 C   0  0  0  0  0  0  0  0  0  0  0  0
    3.4960   -1.4310    0.4810 C   0  0  0  0  0  0  0  0  0  0  0  0
    2.9370   -2.5690    0.8220 C   0  0  0  0  0  0  0  0  0  0  0  0
    1.5590   -2.3860    0.7880 N   0  0  0  0  0  0  0  0  0  0  0  0
    1.2010   -1.1780    0.4380 C   0  0  0  0  0  0  0  0  0  0  0  0
   -0.1780   -0.7120    0.3770 C   0  0  0  0  0  0  0  0  0  0  0  0
   -1.1060   -1.5010    1.0900 C   0  0  0  0  0  0  0  0  0  0  0  0
   -2.4390   -1.2080    1.0530 C   0  0  0  0  0  0  0  0  0  0  0  0
   -2.8790   -0.1400    0.3200 C   0  0  0  0  0  0  0  0  0  0  0  0
   -4.3370    0.1370    0.3140 C   0  0  0  0  0  0  0  0  0  0  0  0
   -2.0230    0.6470   -0.3820 C   0  0  0  0  0  0  0  0  0  0  0  0
   -2.5030    1.8060   -1.1790 C   0  0  0  0  0  0  0  0  0  0  0  0
   -0.6550    0.3360   -0.3390 C   0  0  0  0  0  0  0  0  0  0  0  0
    4.7480   -0.7210    0.2760 C   0  0  0  0  0  0  0  0  0  0  0  0
    5.9310   -1.1920    0.4010 O   0  0  0  0  0  0  0  0  0  0  0  0
    4.3760    0.5540   -0.0790 O   0  0  0  0  0  0  0  0  0  0  0  0
  1  2  1  0
  2  3  2  0
  2 18  1  0
  3  4  1  0
  3  7  1  0
  4  5  2  0
  4 16  1  0
  5  6  1  0
  6  7  2  0
  7  8  1  0
  8  9  2  0
  8 15  1  0
  9 10  1  0
 10 11  2  0
 11 12  1  0
 11 13  1  0
 13 14  1  0
 13 15  2  0
 16 17  2  0
 16 18  1  0
M  END
