
     RDKit          3D

 39 43  0  0  0  0  0  0  0  0999 V2000
    9.3310   -2.9200    0.5680 C   0  0  0  0  0  0  0  0  0  0  0  0
    8.6720   -1.6190    0.7700 N   0  0  1  0  0  0  0  0  0  0  0  0
    9.1540   -0.7450   -0.2430 C   0  0  0  0  0  0  0  0  0  0  0  0
    8.1560   -0.4270   -1.3360 C   0  0  0  0  0  0  0  0  0  0  0  0
    6.9760    0.1870   -0.6160 C   0  0  0  0  0  0  0  0  0  0  0  0
    6.2940    1.3150   -0.8470 C   0  0  0  0  0  0  0  0  0  0  0  0
    5.2610    1.6420   -0.0390 C   0  0  0  0  0  0  0  0  0  0  0  0
    4.3410    2.7950   -0.0370 C   0  0  0  0  0  0  0  0  0  0  0  0
    3.3550    2.6020    0.9870 O   0  0  0  0  0  0  0  0  0  0  0  0
    2.5040    1.5000    0.9540 C   0  0  0  0  0  0  0  0  0  0  0  0
    2.6420    0.7000   -0.0030 O   0  0  0  0  0  0  0  0  0  0  0  0
    1.4760    1.2740    2.0000 C   0  0  0  0  0  0  0  0  0  0  0  0
    0.6360    0.0500    1.7520 C   0  0  0  0  0  0  0  0  0  0  0  0
   -0.1140    0.0960    0.5150 N   0  0  0  0  0  0  0  0  0  0  0  0
   -0.5650    1.4280    0.2590 C   0  0  0  0  0  0  0  0  0  0  0  0
   -1.6320    1.5530   -0.7850 C   0  0  2  0  0  0  0  0  0  0  0  0
   -2.8670    0.7810   -0.4050 C   0  0  0  0  0  0  0  0  0  0  0  0
   -3.2970   -0.1490   -1.1220 O   0  0  0  0  0  0  0  0  0  0  0  0
   -3.5890    1.0700    0.7710 N   0  0  0  0  0  0  0  0  0  0  0  0
   -4.7440    0.4550    1.2700 C   0  0  0  0  0  0  0  0  0  0  0  0
   -5.3610    1.0180    2.4040 C   0  0  0  0  0  0  0  0  0  0  0  0
   -6.4920    0.4780    2.9650 C   0  0  0  0  0  0  0  0  0  0  0  0
   -7.0900   -0.6480    2.4500 C   0  0  0  0  0  0  0  0  0  0  0  0
   -6.5080   -1.2170    1.3440 C   0  0  0  0  0  0  0  0  0  0  0  0
   -7.0860   -2.3980    0.7560 C   0  0  0  0  0  0  0  0  0  0  0  0
   -6.3130   -3.3480    0.1210 C   0  0  0  0  0  0  0  0  0  0  0  0
   -6.8860   -4.4860   -0.4430 C   0  0  0  0  0  0  0  0  0  0  0  0
   -8.2480   -4.6970   -0.3830 C   0  0  0  0  0  0  0  0  0  0  0  0
   -9.0190   -3.7600    0.2440 C   0  0  0  0  0  0  0  0  0  0  0  0
   -8.4530   -2.6360    0.8020 C   0  0  0  0  0  0  0  0  0  0  0  0
   -5.3470   -0.6640    0.7670 C   0  0  0  0  0  0  0  0  0  0  0  0
   -1.1980    1.0160   -2.1290 C   0  0  0  0  0  0  0  0  0  0  0  0
   -2.2320    1.2250   -3.1770 C   0  0  0  0  0  0  0  0  0  0  0  0
   -3.1600    2.3590   -2.9510 C   0  0  0  0  0  0  0  0  0  0  0  0
   -2.4480    3.4530   -2.2170 C   0  0  0  0  0  0  0  0  0  0  0  0
   -1.9280    3.0360   -0.8960 C   0  0  0  0  0  0  0  0  0  0  0  0
    5.2260    0.3160    1.1050 S   0  0  0  0  0  0  0  0  0  0  0  0
    6.5630   -0.5950    0.4690 C   0  0  0  0  0  0  0  0  0  0  0  0
    7.2700   -1.8670    0.7920 C   0  0  0  0  0  0  0  0  0  0  0  0
  2  1  1  6
  2  3  1  0
  2 39  1  0
  3  4  1  0
  4  5  1  0
  5  6  1  0
  5 38  2  0
  6  7  2  0
  7  8  1  0
  7 37  1  0
  8  9  1  0
  9 10  1  0
 10 11  2  0
 10 12  1  0
 12 13  1  0
 13 14  1  0
 14 15  1  0
 16 15  1  1
 16 17  1  0
 16 32  1  0
 16 36  1  0
 17 18  2  0
 17 19  1  0
 19 20  1  0
 20 21  2  0
 20 31  1  0
 21 22  1  0
 22 23  2  0
 23 24  1  0
 24 25  1  0
 24 31  2  0
 25 26  2  0
 25 30  1  0
 26 27  1  0
 27 28  2  0
 28 29  1  0
 29 30  2  0
 32 33  1  0
 33 34  1  0
 34 35  1  0
 35 36  1  0
 37 38  1  0
 38 39  1  0
M  CHG  2   2   1  14   1
M  END
