
     RDKit          3D

 39 43  0  0  0  0  0  0  0  0999 V2000
  -10.3260   -1.8020    0.9040 C   0  0  0  0  0  0  0  0  0  0  0  0
   -8.8990   -2.1610    0.4690 C   0  0  0  0  0  0  0  0  0  0  0  0
   -8.5990   -1.4980   -0.8450 C   0  0  0  0  0  0  0  0  0  0  0  0
   -7.3700   -1.7020   -1.3910 O   0  0  0  0  0  0  0  0  0  0  0  0
   -6.0980   -1.4060   -1.0210 C   0  0  0  0  0  0  0  0  0  0  0  0
   -5.7540   -0.7330    0.1140 C   0  0  0  0  0  0  0  0  0  0  0  0
   -4.4120   -0.4710    0.4240 C   0  0  0  0  0  0  0  0  0  0  0  0
   -3.3880   -0.8800   -0.4040 C   0  0  0  0  0  0  0  0  0  0  0  0
   -2.0000   -0.5780   -0.0510 C   0  0  0  0  0  0  0  0  0  0  0  0
   -0.9550   -1.4100   -0.3900 C   0  0  0  0  0  0  0  0  0  0  0  0
    0.3050   -1.0970   -0.0550 N   0  0  0  0  0  0  0  0  0  0  0  0
    0.5750    0.0280    0.6160 C   0  0  0  0  0  0  0  0  0  0  0  0
    1.8330    0.4350    1.0060 O   0  0  0  0  0  0  0  0  0  0  0  0
    2.9830   -0.3130    0.7220 C   0  0  0  0  0  0  0  0  0  0  0  0
    3.1500   -0.4330   -0.7700 C   0  0  0  0  0  0  0  0  0  0  0  0
    4.3230   -1.1780   -1.1710 N   0  0  1  0  0  0  0  0  0  0  0  0
    5.4780   -0.3380   -1.0460 C   0  0  0  0  0  0  0  0  0  0  0  0
    6.4320   -0.8930   -0.0340 C   0  0  0  0  0  0  0  0  0  0  0  0
    6.9320   -2.2220   -0.4770 C   0  0  2  0  0  0  0  0  0  0  0  0
    8.0150   -2.0590   -1.4980 C   0  0  0  0  0  0  0  0  0  0  0  0
    9.1210   -1.3320   -0.9350 N   0  0  0  0  0  0  0  0  0  0  0  0
    9.4980   -1.8360    0.3870 C   0  0  0  0  0  0  0  0  0  0  0  0
    5.7790   -3.0530   -1.0120 C   0  0  0  0  0  0  0  0  0  0  0  0
    4.4770   -2.4450   -0.5150 C   0  0  0  0  0  0  0  0  0  0  0  0
   -0.4680    0.9010    0.9780 C   0  0  0  0  0  0  0  0  0  0  0  0
   -0.1780    2.1130    1.7080 C   0  0  0  0  0  0  0  0  0  0  0  0
    0.7650    2.2910    2.5030 O   0  0  0  0  0  0  0  0  0  0  0  0
   -1.0890    3.2550    1.4870 C   0  0  0  0  0  0  0  0  0  0  0  0
   -1.8030    3.5920    0.4080 C   0  0  0  0  0  0  0  0  0  0  0  0
   -2.5820    4.6950    0.4390 C   0  0  0  0  0  0  0  0  0  0  0  0
   -3.4100    5.2280   -0.5780 C   0  0  0  0  0  0  0  0  0  0  0  0
   -4.1450    6.3500   -0.4160 C   0  0  0  0  0  0  0  0  0  0  0  0
   -4.1450    7.0620    0.7550 C   0  0  0  0  0  0  0  0  0  0  0  0
   -3.3430    6.5800    1.7960 C   0  0  0  0  0  0  0  0  0  0  0  0
   -2.6050    5.4250    1.5860 C   0  0  0  0  0  0  0  0  0  0  0  0
   -1.4750    4.4940    2.6420 S   0  0  0  0  0  0  0  0  0  0  0  0
   -1.7620    0.5970    0.6440 C   0  0  0  0  0  0  0  0  0  0  0  0
   -3.7460   -1.5620   -1.5520 C   0  0  0  0  0  0  0  0  0  0  0  0
   -5.0470   -1.8130   -1.8470 C   0  0  0  0  0  0  0  0  0  0  0  0
  1  2  1  0
  2  3  1  0
  3  4  1  0
  4  5  1  0
  5  6  2  0
  5 39  1  0
  6  7  1  0
  7  8  2  0
  8  9  1  0
  8 38  1  0
  9 10  2  0
  9 37  1  0
 10 11  1  0
 11 12  2  0
 12 13  1  0
 12 25  1  0
 13 14  1  0
 14 15  1  0
 16 15  1  1
 16 17  1  0
 16 24  1  0
 17 18  1  0
 18 19  1  0
 19 20  1  6
 19 23  1  0
 20 21  1  0
 21 22  1  0
 23 24  1  0
 25 26  1  0
 25 37  2  0
 26 27  2  0
 26 28  1  0
 28 29  2  0
 28 36  1  0
 29 30  1  0
 30 31  2  0
 30 35  1  0
 31 32  1  0
 32 33  2  0
 33 34  1  0
 34 35  2  0
 35 36  1  0
 38 39  2  0
M  CHG  2  16   1  21   1
M  END
