
     RDKit          3D

 39 44  0  0  0  0  0  0  0  0999 V2000
   -1.8590   -2.0520   -1.5070 C   0  0  0  0  0  0  0  0  0  0  0  0
   -3.1770   -1.4300   -1.2330 C   0  0  0  0  0  0  0  0  0  0  0  0
   -4.0280   -0.9170   -2.1740 C   0  0  0  0  0  0  0  0  0  0  0  0
   -5.1270   -0.4440   -1.5060 C   0  0  0  0  0  0  0  0  0  0  0  0
   -4.9150   -0.6830   -0.1590 C   0  0  0  0  0  0  0  0  0  0  0  0
   -3.7150   -1.2890   -0.0110 N   0  0  0  0  0  0  0  0  0  0  0  0
   -3.1990   -1.6710    1.2900 C   0  0  0  0  0  0  0  0  0  0  0  0
   -2.4080   -0.4960    1.8120 C   0  0  0  0  0  0  0  0  0  0  0  0
   -1.8100   -0.7500    3.1800 C   0  0  0  0  0  0  0  0  0  0  0  0
   -0.9060    0.7620    3.6340 S   0  0  0  0  0  0  0  0  0  0  0  0
    0.4900    0.9140    2.5030 C   0  0  0  0  0  0  0  0  0  0  0  0
    0.7280    0.0070    1.5480 N   0  0  0  0  0  0  0  0  0  0  0  0
    1.7620    0.0690    0.6680 C   0  0  0  0  0  0  0  0  0  0  0  0
    2.0060   -0.9890   -0.3280 C   0  0  0  0  0  0  0  0  0  0  0  0
    3.0120   -1.9880    0.1290 C   0  0  0  0  0  0  0  0  0  0  0  0
    3.2670   -3.0380   -0.9090 C   0  0  0  0  0  0  0  0  0  0  0  0
    2.7100   -3.1610   -2.1570 C   0  0  0  0  0  0  0  0  0  0  0  0
    3.2440   -4.2800   -2.7570 C   0  0  0  0  0  0  0  0  0  0  0  0
    4.1180   -4.7920   -1.8240 C   0  0  0  0  0  0  0  0  0  0  0  0
    4.0970   -4.0440   -0.7770 O   0  0  0  0  0  0  0  0  0  0  0  0
    2.5780    1.1720    0.8320 C   0  0  0  0  0  0  0  0  0  0  0  0
    3.6550    1.3980    0.0200 C   0  0  0  0  0  0  0  0  0  0  0  0
    3.8850    0.5570   -0.8830 O   0  0  0  0  0  0  0  0  0  0  0  0
    4.4630    2.4700    0.1480 N   0  0  0  0  0  0  0  0  0  0  0  0
    4.2220    3.3620    1.0960 C   0  0  0  0  0  0  0  0  0  0  0  0
    5.2890    4.7910    1.2870 S   0  0  0  0  0  0  0  0  0  0  0  0
    6.6600    4.7330    0.1140 C   0  0  0  0  0  0  0  0  0  0  0  0
    7.6130    3.6550    0.4080 C   0  0  0  0  0  0  0  0  0  0  0  0
    8.0780    2.5930   -0.2110 C   0  0  0  0  0  0  0  0  0  0  0  0
    8.8850    2.2950    0.9140 N   0  0  0  0  0  0  0  0  0  0  0  0
    8.4520    3.3390    1.5690 C   0  0  0  0  0  0  0  0  0  0  0  0
    3.1660    3.1690    1.9130 N   0  0  0  0  0  0  0  0  0  0  0  0
    2.3380    2.1180    1.8210 C   0  0  0  0  0  0  0  0  0  0  0  0
    1.2950    1.9710    2.6420 N   0  0  0  0  0  0  0  0  0  0  0  0
   -5.9450   -0.2760    0.8280 C   0  0  0  0  0  0  0  0  0  0  0  0
   -7.2900   -0.3910    0.1260 C   0  0  0  0  0  0  0  0  0  0  0  0
   -7.2990    0.5020   -0.9890 N   0  0  0  0  0  0  0  0  0  0  0  0
   -7.3000    1.8610   -0.5340 C   0  0  0  0  0  0  0  0  0  0  0  0
   -6.3550    0.2130   -2.0210 C   0  0  0  0  0  0  0  0  0  0  0  0
  1  2  1  0
  2  3  2  0
  2  6  1  0
  3  4  1  0
  4  5  2  0
  4 39  1  0
  5  6  1  0
  5 35  1  0
  6  7  1  0
  7  8  1  0
  8  9  1  0
  9 10  1  0
 10 11  1  0
 11 12  2  0
 11 34  1  0
 12 13  1  0
 13 14  1  0
 13 21  2  0
 14 15  1  0
 15 16  1  0
 16 17  2  0
 16 20  1  0
 17 18  1  0
 18 19  2  0
 19 20  1  0
 21 22  1  0
 21 33  1  0
 22 23  2  0
 22 24  1  0
 24 25  1  0
 25 26  1  0
 25 32  2  0
 26 27  1  0
 27 28  1  0
 28 29  2  0
 28 31  1  0
 29 30  1  0
 30 31  2  0
 32 33  1  0
 33 34  2  0
 35 36  1  0
 36 37  1  0
 37 38  1  0
 37 39  1  0
M  END
