
     RDKit          3D

 39 43  0  0  0  0  0  0  0  0999 V2000
   -8.8150    2.1300    0.3910 C   0  0  0  0  0  0  0  0  0  0  0  0
   -8.3640    2.0020   -1.0310 C   0  0  0  0  0  0  0  0  0  0  0  0
   -8.5850    0.3810   -1.7500 S   0  0  0  0  0  0  0  0  0  0  0  0
   -7.5620   -0.8840   -0.9660 C   0  0  0  0  0  0  0  0  0  0  0  0
   -7.7960   -1.6770    0.0430 N   0  0  0  0  0  0  0  0  0  0  0  0
   -6.7500   -2.4400    0.2490 N   0  0  0  0  0  0  0  0  0  0  0  0
   -5.7760   -2.1410   -0.6620 C   0  0  0  0  0  0  0  0  0  0  0  0
   -4.4690   -2.9240   -0.7060 C   0  0  0  0  0  0  0  0  0  0  0  0
   -3.6370   -2.8820    0.8320 S   0  0  2  0  0  0  0  0  0  0  0  0
   -2.4400   -3.9080    0.6060 O   0  0  0  0  0  0  0  0  0  0  0  0
   -4.3730   -3.5550    1.9670 O   0  0  0  0  0  0  0  0  0  0  0  0
   -2.9310   -1.4640    1.3920 N   0  0  0  0  0  0  0  0  0  0  0  0
   -1.6370   -1.0530    0.8670 C   0  0  0  0  0  0  0  0  0  0  0  0
   -1.3310   -0.2430   -0.1600 C   0  0  0  0  0  0  0  0  0  0  0  0
    0.0080    0.0680   -0.4720 C   0  0  0  0  0  0  0  0  0  0  0  0
    1.0790   -0.4550    0.2800 C   0  0  0  0  0  0  0  0  0  0  0  0
    2.4320   -0.1090   -0.0720 N   0  0  0  0  0  0  0  0  0  0  0  0
    3.4500   -0.5730    0.8330 C   0  0  0  0  0  0  0  0  0  0  0  0
    4.8050   -0.1650    0.3940 C   0  0  0  0  0  0  0  0  0  0  0  0
    5.6130   -0.8980   -0.3920 N   0  0  0  0  0  0  0  0  0  0  0  0
    6.8060   -0.2440   -0.5910 C   0  0  0  0  0  0  0  0  0  0  0  0
    7.9590   -0.4880   -1.2760 C   0  0  0  0  0  0  0  0  0  0  0  0
    9.0270    0.3630   -1.3110 C   0  0  0  0  0  0  0  0  0  0  0  0
    8.9040    1.5590   -0.5880 C   0  0  0  0  0  0  0  0  0  0  0  0
    7.7460    1.8150    0.1070 C   0  0  0  0  0  0  0  0  0  0  0  0
    6.6490    0.9540    0.1470 C   0  0  0  0  0  0  0  0  0  0  0  0
    5.4350    0.9770    0.7320 N   0  0  0  0  0  0  0  0  0  0  0  0
    4.9430    2.0650    1.5910 C   0  0  0  0  0  0  0  0  0  0  0  0
   10.1580    2.3220   -0.7550 C   0  0  0  0  0  0  0  0  0  0  0  0
   11.1730    1.1870   -1.0020 C   0  0  0  0  0  0  0  0  0  0  0  0
   10.3800    0.3020   -1.9650 C   0  0  0  0  0  0  0  0  0  0  0  0
    0.7450   -1.2660    1.3120 C   0  0  0  0  0  0  0  0  0  0  0  0
   -0.5470   -1.5830    1.6310 C   0  0  0  0  0  0  0  0  0  0  0  0
   -3.5600   -0.5260    2.3330 C   0  0  1  0  0  0  0  0  0  0  0  0
   -4.7880    0.1640    1.7120 C   0  0  0  0  0  0  0  0  0  0  0  0
   -3.9490   -1.1360    3.6380 C   0  0  0  0  0  0  0  0  0  0  0  0
   -6.2750   -1.1720   -1.4290 N   0  0  0  0  0  0  0  0  0  0  0  0
   -5.6550   -0.6040   -2.5810 C   0  0  0  0  0  0  0  0  0  0  0  0
   -4.7750    0.5800   -2.4070 C   0  0  0  0  0  0  0  0  0  0  0  0
  1  2  1  0
  2  3  1  0
  3  4  1  0
  4  5  2  0
  4 37  1  0
  5  6  1  0
  6  7  2  0
  7  8  1  0
  7 37  1  0
  9  8  1  6
  9 10  2  0
  9 11  2  0
  9 12  1  0
 12 13  1  0
 12 34  1  0
 13 14  2  0
 13 33  1  0
 14 15  1  0
 15 16  2  0
 16 17  1  0
 16 32  1  0
 17 18  1  0
 18 19  1  0
 19 20  2  0
 19 27  1  0
 20 21  1  0
 21 22  2  0
 21 26  1  0
 22 23  1  0
 23 24  2  0
 23 31  1  0
 24 25  1  0
 24 29  1  0
 25 26  2  0
 26 27  1  0
 27 28  1  0
 29 30  1  0
 30 31  1  0
 32 33  2  0
 34 35  1  6
 34 36  1  0
 37 38  1  0
 38 39  1  0
M  END
