
     RDKit          3D

 39 43  0  0  0  0  0  0  0  0999 V2000
   -2.3680    5.8260   -0.3420 C   0  0  0  0  0  0  0  0  0  0  0  0
   -3.5240    5.1560    0.1160 O   0  0  0  0  0  0  0  0  0  0  0  0
   -3.4720    3.7520    0.2080 C   0  0  0  0  0  0  0  0  0  0  0  0
   -2.3420    3.0540   -0.1350 C   0  0  0  0  0  0  0  0  0  0  0  0
   -2.3080    1.6610   -0.0390 C   0  0  0  0  0  0  0  0  0  0  0  0
   -3.3840    0.9300    0.3970 C   0  0  0  0  0  0  0  0  0  0  0  0
   -3.3970   -0.5190    0.5340 C   0  0  0  0  0  0  0  0  0  0  0  0
   -4.3900   -1.2750   -0.0990 C   0  0  0  0  0  0  0  0  0  0  0  0
   -4.4740   -2.6300   -0.0230 C   0  0  0  0  0  0  0  0  0  0  0  0
   -5.4990   -3.4510   -0.6730 C   0  0  2  0  0  0  0  0  0  0  0  0
   -5.3250   -3.3050   -2.1710 C   0  0  0  0  0  0  0  0  0  0  0  0
   -6.9040   -3.0730   -0.3030 C   0  0  0  0  0  0  0  0  0  0  0  0
   -3.5050   -3.2720    0.7340 C   0  0  0  0  0  0  0  0  0  0  0  0
   -2.5210   -2.5900    1.3680 C   0  0  0  0  0  0  0  0  0  0  0  0
   -2.4510   -1.1890    1.2770 C   0  0  0  0  0  0  0  0  0  0  0  0
   -1.4500   -0.5650    1.9700 N   0  0  0  0  0  0  0  0  0  0  0  0
   -0.2430   -0.3040    1.8030 C   0  0  0  0  0  0  0  0  0  0  0  0
    0.6160   -0.6060    0.6810 C   0  0  0  0  0  0  0  0  0  0  0  0
    0.2170   -1.2290   -0.4780 C   0  0  0  0  0  0  0  0  0  0  0  0
    1.0810   -1.4790   -1.5300 C   0  0  0  0  0  0  0  0  0  0  0  0
    2.3960   -1.0930   -1.4230 C   0  0  0  0  0  0  0  0  0  0  0  0
    2.8010   -0.4870   -0.3060 N   0  0  0  0  0  0  0  0  0  0  0  0
    1.9740   -0.2410    0.7170 C   0  0  0  0  0  0  0  0  0  0  0  0
    2.5470    0.5290    2.1840 S   0  0  0  0  0  0  0  0  0  0  0  0
    4.2450    1.0330    2.2290 C   0  0  0  0  0  0  0  0  0  0  0  0
    5.2460   -0.0250    2.0990 C   0  0  0  0  0  0  0  0  0  0  0  0
    5.5660   -0.9540    3.0230 N   0  0  0  0  0  0  0  0  0  0  0  0
    6.5340   -1.7410    2.6170 N   0  0  0  0  0  0  0  0  0  0  0  0
    6.8610   -1.3070    1.3740 C   0  0  0  0  0  0  0  0  0  0  0  0
    7.6810   -1.5120    0.3440 N   0  0  0  0  0  0  0  0  0  0  0  0
    7.4320   -0.6190   -0.6100 C   0  0  0  0  0  0  0  0  0  0  0  0
    6.3940    0.2090   -0.1680 C   0  0  0  0  0  0  0  0  0  0  0  0
    5.9170    1.2920   -0.9270 N   0  0  0  0  0  0  0  0  0  0  0  0
    4.9740    1.2210   -2.0190 C   0  0  0  0  0  0  0  0  0  0  0  0
    6.5150    2.8970   -0.5310 S   0  0  0  0  0  0  0  0  0  0  0  0
    7.8650    2.8060    0.1650 O   0  0  0  0  0  0  0  0  0  0  0  0
    6.0780   -0.2570    1.0510 N   0  0  0  0  0  0  0  0  0  0  0  0
   -4.5260    1.6670    0.7400 C   0  0  0  0  0  0  0  0  0  0  0  0
   -4.5700    3.0350    0.6490 C   0  0  0  0  0  0  0  0  0  0  0  0
  1  2  1  0
  2  3  1  0
  3  4  2  0
  3 39  1  0
  4  5  1  0
  5  6  2  0
  6  7  1  0
  6 38  1  0
  7  8  2  0
  7 15  1  0
  8  9  1  0
  9 10  1  0
  9 13  2  0
 10 11  1  6
 10 12  1  0
 13 14  1  0
 14 15  2  0
 15 16  1  0
 16 17  2  3
 17 18  1  0
 18 19  2  0
 18 23  1  0
 19 20  1  0
 20 21  2  0
 21 22  1  0
 22 23  2  0
 23 24  1  0
 24 25  1  0
 25 26  1  0
 26 27  2  0
 26 37  1  0
 27 28  1  0
 28 29  1  0
 29 30  2  0
 29 37  1  0
 30 31  1  0
 31 32  2  0
 32 33  1  0
 32 37  1  0
 33 34  1  0
 33 35  1  0
 35 36  2  0
 38 39  2  0
M  END
