
     RDKit          3D

 39 42  0  0  0  0  0  0  0  0999 V2000
   -4.8570   -4.4130    0.9970 C   0  0  0  0  0  0  0  0  0  0  0  0
   -3.5700   -3.8880    1.2540 O   0  0  0  0  0  0  0  0  0  0  0  0
   -3.1410   -2.8210    0.4440 C   0  0  0  0  0  0  0  0  0  0  0  0
   -3.9040   -2.2980   -0.5460 C   0  0  0  0  0  0  0  0  0  0  0  0
   -3.4820   -1.2360   -1.3550 C   0  0  0  0  0  0  0  0  0  0  0  0
   -4.3960   -0.7390   -2.4190 C   0  0  0  0  0  0  0  0  0  0  0  0
   -5.3770    0.2100   -1.8810 C   0  0  0  0  0  0  0  0  0  0  0  0
   -6.6470   -0.2540   -1.5890 C   0  0  0  0  0  0  0  0  0  0  0  0
   -7.5710    0.5480   -1.0810 N   0  0  0  0  0  0  0  0  0  0  0  0
   -7.2690    1.8520   -0.8410 C   0  0  0  0  0  0  0  0  0  0  0  0
   -8.2560    2.7150   -0.2970 N   0  0  0  0  0  0  0  0  0  0  0  0
   -6.0400    2.3080   -1.1210 N   0  0  0  0  0  0  0  0  0  0  0  0
   -5.0580    1.5180   -1.6450 C   0  0  0  0  0  0  0  0  0  0  0  0
   -3.7780    2.0420   -1.9480 N   0  0  0  0  0  0  0  0  0  0  0  0
   -2.2450   -0.7070   -1.1370 C   0  0  0  0  0  0  0  0  0  0  0  0
   -1.4170   -1.2340   -0.1050 C   0  0  0  0  0  0  0  0  0  0  0  0
   -0.1180   -0.5730    0.0690 C   0  0  0  0  0  0  0  0  0  0  0  0
    0.9060   -0.9700    0.7560 C   0  0  0  0  0  0  0  0  0  0  0  0
    2.2110   -0.4050    0.9980 C   0  0  0  0  0  0  0  0  0  0  0  0
    2.9300   -1.1760    1.7700 O   0  0  0  0  0  0  0  0  0  0  0  0
    2.7470    0.7770    0.5400 N   0  0  0  0  0  0  0  0  0  0  0  0
    2.0400    1.6620   -0.2960 N   0  0  0  0  0  0  0  0  0  0  0  0
    2.9450    2.7680   -0.7060 C   0  0  0  0  0  0  0  0  0  0  0  0
    4.1430    2.1340   -1.2620 C   0  0  0  0  0  0  0  0  0  0  0  0
    4.5680    2.3620   -2.5340 C   0  0  0  0  0  0  0  0  0  0  0  0
    5.6950    1.6770   -3.0260 C   0  0  0  0  0  0  0  0  0  0  0  0
    6.3140    0.8010   -2.1800 C   0  0  0  0  0  0  0  0  0  0  0  0
    5.8570    0.5810   -0.8650 C   0  0  0  0  0  0  0  0  0  0  0  0
    4.7900    1.2360   -0.4110 C   0  0  0  0  0  0  0  0  0  0  0  0
    4.1230    1.1670    0.9360 C   0  0  2  0  0  0  0  0  0  0  0  0
    4.7920    0.2610    1.8600 C   0  0  0  0  0  0  0  0  0  0  0  0
    6.1810    0.8560    2.2700 C   0  0  0  0  0  0  0  0  0  0  0  0
    6.8270   -0.1350    3.1770 C   0  0  1  0  0  0  0  0  0  0  0  0
    8.0600    0.3790    3.5510 F   0  0  0  0  0  0  0  0  0  0  0  0
    6.0960   -0.4000    4.3070 F   0  0  0  0  0  0  0  0  0  0  0  0
    7.0220   -1.3630    2.5490 F   0  0  0  0  0  0  0  0  0  0  0  0
   -1.8680   -2.2590    0.6540 C   0  0  0  0  0  0  0  0  0  0  0  0
   -1.1490   -2.8290    1.6770 O   0  0  0  0  0  0  0  0  0  0  0  0
   -1.3290   -2.3310    3.0250 C   0  0  0  0  0  0  0  0  0  0  0  0
  1  2  1  0
  2  3  1  0
  3  4  2  0
  3 37  1  0
  4  5  1  0
  5  6  1  0
  5 15  2  0
  6  7  1  0
  7  8  2  0
  7 13  1  0
  8  9  1  0
  9 10  2  0
 10 11  1  0
 10 12  1  0
 12 13  2  0
 13 14  1  0
 15 16  1  0
 16 17  1  0
 16 37  2  0
 17 18  2  3
 18 19  1  0
 19 20  2  0
 19 21  1  0
 21 22  1  0
 21 30  1  0
 22 23  1  0
 23 24  1  0
 24 25  2  0
 24 29  1  0
 25 26  1  0
 26 27  2  0
 27 28  1  0
 28 29  2  0
 29 30  1  0
 30 31  1  1
 31 32  1  0
 32 33  1  0
 33 34  1  1
 33 35  1  0
 33 36  1  0
 37 38  1  0
 38 39  1  0
M  CHG  1  22   1
M  END
