
     RDKit          3D

 39 42  0  0  0  0  0  0  0  0999 V2000
  -11.1510    3.1560   -3.7740 C   0  0  0  0  0  0  0  0  0  0  0  0
  -10.4750    2.3070   -2.9980 C   0  0  0  0  0  0  0  0  0  0  0  0
   -9.0400    2.2800   -2.9530 C   0  0  0  0  0  0  0  0  0  0  0  0
   -8.3540    1.4620   -2.2050 C   0  0  0  0  0  0  0  0  0  0  0  0
   -8.9390    0.4840   -1.3310 C   0  0  0  0  0  0  0  0  0  0  0  0
   -8.3430   -0.3470   -0.5720 C   0  0  0  0  0  0  0  0  0  0  0  0
   -6.8970   -0.5280   -0.3860 C   0  0  0  0  0  0  0  0  0  0  0  0
   -6.2730   -1.3620    0.3670 N   0  0  0  0  0  0  0  0  0  0  0  0
   -5.0240   -1.4720    0.4890 C   0  0  0  0  0  0  0  0  0  0  0  0
   -4.2570   -2.4570    1.3750 C   0  0  0  0  0  0  0  0  0  0  0  0
   -4.0350   -1.8610    2.7090 C   0  0  0  0  0  0  0  0  0  0  0  0
   -3.1470   -0.6600    2.6540 C   0  0  0  0  0  0  0  0  0  0  0  0
   -1.7490   -0.9840    2.2230 C   0  0  0  0  0  0  0  0  0  0  0  0
   -1.0830   -1.0310    1.0410 C   0  0  0  0  0  0  0  0  0  0  0  0
    0.2200   -1.3840    1.0610 C   0  0  0  0  0  0  0  0  0  0  0  0
    0.8650   -1.6800    2.1740 C   0  0  0  0  0  0  0  0  0  0  0  0
    2.2170   -2.0270    2.5700 C   0  0  0  0  0  0  0  0  0  0  0  0
    2.2400   -2.4120    3.8440 O   0  0  0  0  0  0  0  0  0  0  0  0
    3.4380   -2.0610    1.9710 N   0  0  0  0  0  0  0  0  0  0  0  0
    4.5440   -2.6720    2.7920 C   0  0  0  0  0  0  0  0  0  0  0  0
    5.2390   -1.6420    3.5640 C   0  0  0  0  0  0  0  0  0  0  0  0
    4.9030   -0.3520    3.5130 C   0  0  0  0  0  0  0  0  0  0  0  0
    3.8590   -1.4460    0.7800 C   0  0  0  0  0  0  0  0  0  0  0  0
    5.0110   -1.7970    0.1790 C   0  0  0  0  0  0  0  0  0  0  0  0
    5.3980   -1.1120   -1.0710 C   0  0  0  0  0  0  0  0  0  0  0  0
    5.2710    0.3330   -0.9350 N   0  0  0  0  0  0  0  0  0  0  0  0
    6.2030    1.2400   -1.4990 C   0  0  0  0  0  0  0  0  0  0  0  0
    5.9130    2.1820   -2.3920 N   0  0  0  0  0  0  0  0  0  0  0  0
    6.8690    2.9990   -2.8690 C   0  0  0  0  0  0  0  0  0  0  0  0
    6.6250    4.0660   -3.8590 C   0  0  0  0  0  0  0  0  0  0  0  0
    8.1370    2.8430   -2.4200 N   0  0  0  0  0  0  0  0  0  0  0  0
    8.4590    1.9220   -1.5360 N   0  0  0  0  0  0  0  0  0  0  0  0
    7.5120    1.1160   -1.0670 C   0  0  0  0  0  0  0  0  0  0  0  0
    7.8230    0.2280   -0.2150 O   0  0  0  0  0  0  0  0  0  0  0  0
    4.1570    0.8370   -0.1960 C   0  0  0  0  0  0  0  0  0  0  0  0
    3.1630   -0.2880    0.1510 C   0  0  0  0  0  0  0  0  0  0  0  0
   -0.4520   -1.4640    3.3980 S   0  0  0  0  0  0  0  0  0  0  0  0
   -4.2600   -0.5530   -0.3120 N   0  0  0  0  0  0  0  0  0  0  0  0
   -5.6000    0.3570   -1.1470 S   0  0  0  0  0  0  0  0  0  0  0  0
  1  2  2  0
  2  3  1  0
  3  4  2  3
  4  5  1  0
  5  6  2  3
  6  7  1  0
  7  8  2  0
  7 39  1  0
  8  9  1  0
  9 10  1  0
  9 38  2  0
 10 11  1  0
 11 12  1  0
 12 13  1  0
 13 14  2  0
 13 37  1  0
 14 15  1  0
 15 16  2  0
 16 17  1  0
 16 37  1  0
 17 18  2  0
 17 19  1  0
 19 20  1  0
 19 23  1  0
 20 21  1  0
 21 22  2  0
 23 24  2  0
 23 36  1  0
 24 25  1  0
 25 26  1  0
 26 27  1  0
 26 35  1  0
 27 28  2  0
 27 33  1  0
 28 29  1  0
 29 30  1  0
 29 31  2  0
 31 32  1  0
 32 33  1  0
 33 34  2  0
 35 36  1  0
 38 39  1  0
M  END
