
     RDKit          3D

 35 39  0  0  0  0  0  0  0  0999 V2000
   -4.9950   -2.1800   -0.7120 C   0  0  0  0  0  0  0  0  0  0  0  0
   -3.8590   -1.3040   -0.2300 C   0  0  1  0  0  0  0  0  0  0  0  0
   -3.9630   -0.0790   -0.9020 O   0  0  0  0  0  0  0  0  0  0  0  0
   -3.5000    0.8680    0.0520 C   0  0  2  0  0  0  0  0  0  0  0  0
   -2.0930    0.5190    0.3200 C   0  0  0  0  0  0  0  0  0  0  0  0
   -1.6760    0.4590    1.6190 C   0  0  0  0  0  0  0  0  0  0  0  0
   -0.3810    0.1450    2.0010 C   0  0  0  0  0  0  0  0  0  0  0  0
    0.5270   -0.1200    0.9650 C   0  0  0  0  0  0  0  0  0  0  0  0
    0.1260   -0.0650   -0.3670 C   0  0  0  0  0  0  0  0  0  0  0  0
    1.1050   -0.3530   -1.3900 C   0  0  0  0  0  0  0  0  0  0  0  0
    0.8600   -1.3640   -2.1620 O   0  0  0  0  0  0  0  0  0  0  0  0
    2.2940    0.3510   -1.6290 N   0  0  0  0  0  0  0  0  0  0  0  0
    3.2570   -0.0280   -2.6520 C   0  0  0  0  0  0  0  0  0  0  0  0
    3.8030   -1.4300   -2.2800 C   0  0  2  0  0  0  0  0  0  0  0  0
    4.3000   -1.3040   -0.8520 C   0  0  0  0  0  0  0  0  0  0  0  0
    5.7240   -0.8870   -0.8210 C   0  0  0  0  0  0  0  0  0  0  0  0
    6.2470    0.0110    0.0930 C   0  0  0  0  0  0  0  0  0  0  0  0
    7.5960    0.3200    0.0240 C   0  0  0  0  0  0  0  0  0  0  0  0
    8.4000   -0.2790   -0.9630 C   0  0  0  0  0  0  0  0  0  0  0  0
    7.8630   -1.1630   -1.8560 C   0  0  0  0  0  0  0  0  0  0  0  0
    6.5240   -1.4690   -1.7880 C   0  0  0  0  0  0  0  0  0  0  0  0
    5.8760   -2.4050   -2.7300 C   0  0  0  0  0  0  0  0  0  0  0  0
    4.7270   -1.7770   -3.2090 O   0  0  0  0  0  0  0  0  0  0  0  0
   -1.1730    0.2520   -0.6930 C   0  0  0  0  0  0  0  0  0  0  0  0
   -4.3680    0.4680    1.1670 N   0  0  0  0  0  0  0  0  0  0  0  0
   -5.1730    1.3100    1.9930 C   0  0  0  0  0  0  0  0  0  0  0  0
   -5.7140    0.8920    3.2060 C   0  0  0  0  0  0  0  0  0  0  0  0
   -6.4950    1.7110    3.9510 C   0  0  0  0  0  0  0  0  0  0  0  0
   -6.7730    2.9910    3.5200 C   0  0  0  0  0  0  0  0  0  0  0  0
   -6.2380    3.4250    2.3050 C   0  0  0  0  0  0  0  0  0  0  0  0
   -6.5040    4.6940    1.7570 C   0  0  0  0  0  0  0  0  0  0  0  0
   -6.7430    5.7720    1.3070 N   0  0  0  0  0  0  0  0  0  0  0  0
   -5.4280    2.5750    1.5350 C   0  0  0  0  0  0  0  0  0  0  0  0
   -4.2000   -0.9480    1.1820 C   0  0  0  0  0  0  0  0  0  0  0  0
   -4.3250   -1.6830    2.1890 O   0  0  0  0  0  0  0  0  0  0  0  0
  2  1  1  6
  2  3  1  0
  2 34  1  0
  3  4  1  0
  4  5  1  1
  4 25  1  0
  5  6  2  0
  5 24  1  0
  6  7  1  0
  7  8  2  0
  8  9  1  0
  9 10  1  0
  9 24  2  0
 10 11  2  0
 10 12  1  0
 12 13  1  0
 14 13  1  6
 14 15  1  0
 14 23  1  0
 15 16  1  0
 16 17  2  0
 16 21  1  0
 17 18  1  0
 18 19  2  0
 19 20  1  0
 20 21  2  0
 21 22  1  0
 22 23  1  0
 25 26  1  0
 25 34  1  0
 26 27  2  0
 26 33  1  0
 27 28  1  0
 28 29  2  0
 29 30  1  0
 30 31  1  0
 30 33  2  0
 31 32  3  0
 34 35  2  0
M  END
