
     RDKit          3D

 37 38  0  0  0  0  0  0  0  0999 V2000
   -4.8870   -1.8140   -2.6930 C   0  0  0  0  0  0  0  0  0  0  0  0
   -5.7030   -2.3670   -1.8250 C   0  0  0  0  0  0  0  0  0  0  0  0
   -5.6380   -2.0390   -0.3550 C   0  0  0  0  0  0  0  0  0  0  0  0
   -6.5040   -2.6580    0.3740 C   0  0  0  0  0  0  0  0  0  0  0  0
   -6.7420   -2.6140    1.8230 C   0  0  0  0  0  0  0  0  0  0  0  0
   -8.0090   -2.1520    2.0740 F   0  0  0  0  0  0  0  0  0  0  0  0
   -4.6770   -0.9990   -0.0550 C   0  0  0  0  0  0  0  0  0  0  0  0
   -5.0250    0.2690    0.2530 C   0  0  0  0  0  0  0  0  0  0  0  0
   -6.3840    0.7890    0.3760 C   0  0  0  0  0  0  0  0  0  0  0  0
   -6.8510    0.9100    1.7700 C   0  0  0  0  0  0  0  0  0  0  0  0
   -8.2950    1.4120    1.8560 C   0  0  0  0  0  0  0  0  0  0  0  0
   -4.0170    1.2220    0.5140 C   0  0  0  0  0  0  0  0  0  0  0  0
   -2.7030    0.8690    0.4570 C   0  0  0  0  0  0  0  0  0  0  0  0
   -1.6870    1.8480    0.7280 N   0  0  0  0  0  0  0  0  0  0  0  0
   -0.2860    1.5260    0.6650 C   0  0  0  0  0  0  0  0  0  0  0  0
   -0.0370    0.3280    0.3560 O   0  0  0  0  0  0  0  0  0  0  0  0
    0.7170    2.4760    0.9270 N   0  0  0  0  0  0  0  0  0  0  0  0
    2.1190    2.1230    0.8460 C   0  0  0  0  0  0  0  0  0  0  0  0
    2.4160    1.6850   -0.5560 C   0  0  0  0  0  0  0  0  0  0  0  0
    3.8620    1.2930   -0.7870 C   0  0  2  0  0  0  0  0  0  0  0  0
    3.9020    0.8930   -2.2750 C   0  0  0  0  0  0  0  0  0  0  0  0
    4.2150    0.0540   -0.0210 C   0  0  0  0  0  0  0  0  0  0  0  0
    5.4660   -0.4390   -0.4400 O   0  0  0  0  0  0  0  0  0  0  0  0
    6.0920   -1.5620    0.0590 C   0  0  0  0  0  0  0  0  0  0  0  0
    5.5820   -2.3680    1.0490 C   0  0  0  0  0  0  0  0  0  0  0  0
    6.2660   -3.4930    1.5100 C   0  0  0  0  0  0  0  0  0  0  0  0
    5.7820   -4.2950    2.4800 F   0  0  0  0  0  0  0  0  0  0  0  0
    7.4950   -3.8120    0.9590 C   0  0  0  0  0  0  0  0  0  0  0  0
    8.0160   -3.0220   -0.0240 C   0  0  0  0  0  0  0  0  0  0  0  0
    9.2320   -3.3730   -0.5440 F   0  0  0  0  0  0  0  0  0  0  0  0
    7.3230   -1.9080   -0.4720 C   0  0  0  0  0  0  0  0  0  0  0  0
    4.7780    2.3840   -0.6440 N   0  0  2  0  0  0  0  0  0  0  0  0
    5.6600    2.5320   -1.8020 C   0  0  0  0  0  0  0  0  0  0  0  0
    5.5330    2.4350    0.5580 C   0  0  0  0  0  0  0  0  0  0  0  0
   -2.3690   -0.4030    0.1480 N   0  0  0  0  0  0  0  0  0  0  0  0
   -3.3070   -1.3120   -0.1000 C   0  0  0  0  0  0  0  0  0  0  0  0
   -2.9880   -2.6440   -0.4240 O   0  0  0  0  0  0  0  0  0  0  0  0
  1  2  2  0
  2  3  1  0
  3  4  2  3
  3  7  1  0
  4  5  1  0
  5  6  1  0
  7  8  2  0
  7 36  1  0
  8  9  1  0
  8 12  1  0
  9 10  1  0
 10 11  1  0
 12 13  2  0
 13 14  1  0
 13 35  1  0
 14 15  1  0
 15 16  2  0
 15 17  1  0
 17 18  1  0
 18 19  1  0
 19 20  1  0
 20 21  1  6
 20 22  1  0
 20 32  1  0
 22 23  1  0
 23 24  1  0
 24 25  2  0
 24 31  1  0
 25 26  1  0
 26 27  1  0
 26 28  2  0
 28 29  1  0
 29 30  1  0
 29 31  2  0
 32 33  1  6
 32 34  1  0
 35 36  2  0
 36 37  1  0
M  CHG  1  32   1
M  END
