
     RDKit          3D

 36 40  0  0  0  0  0  0  0  0999 V2000
   -4.8980   -0.1500    2.4860 C   0  0  0  0  0  0  0  0  0  0  0  0
   -4.2590    0.2140    1.3290 O   0  0  0  0  0  0  0  0  0  0  0  0
   -4.9240    1.1510    0.5880 C   0  0  2  0  0  0  0  0  0  0  0  0
   -5.1260    2.4380    1.3740 C   0  0  0  0  0  0  0  0  0  0  0  0
   -6.2910    0.6910    0.1370 C   0  0  0  0  0  0  0  0  0  0  0  0
   -6.1110   -0.4540   -0.8260 C   0  0  0  0  0  0  0  0  0  0  0  0
   -5.3110    0.0340   -2.0020 C   0  0  0  0  0  0  0  0  0  0  0  0
   -3.9550    0.4370   -1.5600 N   0  0  0  0  0  0  0  0  0  0  0  0
   -3.2070   -0.6780   -1.1270 C   0  0  1  0  0  0  0  0  0  0  0  0
   -2.9920   -1.7010   -2.2380 C   0  0  0  0  0  0  0  0  0  0  0  0
   -2.3360   -2.8920   -1.5160 C   0  0  1  0  0  0  0  0  0  0  0  0
   -2.5160   -4.1260   -2.3540 C   0  0  0  0  0  0  0  0  0  0  0  0
   -0.8910   -2.4990   -1.3590 C   0  0  0  0  0  0  0  0  0  0  0  0
   -0.8060   -1.1320   -0.7920 C   0  0  0  0  0  0  0  0  0  0  0  0
   -1.8440   -0.2940   -0.6790 C   0  0  0  0  0  0  0  0  0  0  0  0
   -1.5930    0.9230   -0.1340 O   0  0  0  0  0  0  0  0  0  0  0  0
   -0.4520    1.5150    0.3430 C   0  0  2  0  0  0  0  0  0  0  0  0
   -0.2300    2.7970   -0.4430 C   0  0  0  0  0  0  0  0  0  0  0  0
    0.7010    0.6000    0.2310 C   0  0  0  0  0  0  0  0  0  0  0  0
    0.5050   -0.6420   -0.3110 C   0  0  0  0  0  0  0  0  0  0  0  0
    1.5570   -1.5110   -0.4300 N   0  0  0  0  0  0  0  0  0  0  0  0
    2.8030   -1.2030   -0.0320 C   0  0  0  0  0  0  0  0  0  0  0  0
    3.9290   -2.1840   -0.1790 C   0  0  0  0  0  0  0  0  0  0  0  0
    3.0100    0.0440    0.5150 C   0  0  0  0  0  0  0  0  0  0  0  0
    4.1680    0.6100    0.9990 C   0  0  0  0  0  0  0  0  0  0  0  0
    5.5230    0.0810    1.0830 C   0  0  0  0  0  0  0  0  0  0  0  0
    5.9090   -0.5520    2.1050 O   0  0  0  0  0  0  0  0  0  0  0  0
    6.4500    0.2400    0.0640 O   0  0  0  0  0  0  0  0  0  0  0  0
    7.7560   -0.2520    0.1090 C   0  0  2  0  0  0  0  0  0  0  0  0
    8.7900    0.8500   -0.0810 C   0  0  0  0  0  0  0  0  0  0  0  0
    7.9430   -1.2500   -1.0120 C   0  0  0  0  0  0  0  0  0  0  0  0
    3.8050    1.8870    1.4330 C   0  0  0  0  0  0  0  0  0  0  0  0
    4.7470    2.8710    2.0370 C   0  0  0  0  0  0  0  0  0  0  0  0
    2.4930    2.0390    1.2050 N   0  0  0  0  0  0  0  0  0  0  0  0
    1.9630    0.9560    0.6520 C   0  0  0  0  0  0  0  0  0  0  0  0
   -4.1620    1.5240   -0.6520 C   0  0  0  0  0  0  0  0  0  0  0  0
  1  2  1  0
  2  3  1  0
  3  4  1  1
  3  5  1  0
  3 36  1  0
  5  6  1  0
  6  7  1  0
  7  8  1  0
  9  8  1  6
  8 36  1  0
  9 10  1  0
  9 15  1  0
 10 11  1  0
 11 12  1  6
 11 13  1  0
 13 14  1  0
 14 15  2  0
 14 20  1  0
 15 16  1  0
 16 17  1  0
 17 18  1  6
 17 19  1  0
 19 20  2  0
 19 35  1  0
 20 21  1  0
 21 22  2  0
 22 23  1  0
 22 24  1  0
 24 25  1  0
 24 35  2  0
 25 26  1  0
 25 32  2  0
 26 27  2  0
 26 28  1  0
 28 29  1  0
 29 30  1  6
 29 31  1  0
 32 33  1  0
 32 34  1  0
 34 35  1  0
M  END
