
     RDKit          3D

 36 37  0  0  0  0  0  0  0  0999 V2000
   10.4130   -0.2260   -4.5980 C   0  0  0  0  0  0  0  0  0  0  0  0
    9.8850    0.5000   -3.4180 C   0  0  0  0  0  0  0  0  0  0  0  0
    8.9430   -0.0790   -2.6950 C   0  0  0  0  0  0  0  0  0  0  0  0
    8.4680   -1.3060   -3.0190 F   0  0  0  0  0  0  0  0  0  0  0  0
    8.3790    0.6010   -1.5130 C   0  0  0  0  0  0  0  0  0  0  0  0
    7.4460   -0.0220   -0.8310 C   0  0  0  0  0  0  0  0  0  0  0  0
    6.8150    0.5850    0.3770 C   0  0  0  0  0  0  0  0  0  0  0  0
    5.8970   -0.1600    0.9580 C   0  0  0  0  0  0  0  0  0  0  0  0
    5.1930    0.2460    2.1100 N   0  0  0  0  0  0  0  0  0  0  0  0
    4.2020   -0.6750    2.6570 C   0  0  0  0  0  0  0  0  0  0  0  0
    4.0480   -1.7700    2.0730 O   0  0  0  0  0  0  0  0  0  0  0  0
    3.4810   -0.3110    3.7820 N   0  0  0  0  0  0  0  0  0  0  0  0
    2.4640   -1.0420    4.4440 C   0  0  0  0  0  0  0  0  0  0  0  0
    1.1980   -1.2700    3.6850 C   0  0  2  0  0  0  0  0  0  0  0  0
    1.2920   -2.0870    2.4440 C   0  0  0  0  0  0  0  0  0  0  0  0
    0.5580    0.0800    3.3740 C   0  0  0  0  0  0  0  0  0  0  0  0
   -0.7260   -0.0590    2.6610 C   0  0  0  0  0  0  0  0  0  0  0  0
   -1.2610   -1.1780    2.5710 O   0  0  0  0  0  0  0  0  0  0  0  0
   -1.3830    1.0410    2.0660 N   0  0  0  0  0  0  0  0  0  0  0  0
   -2.5990    1.0340    1.3570 C   0  0  0  0  0  0  0  0  0  0  0  0
   -3.2020    2.2600    1.0600 C   0  0  0  0  0  0  0  0  0  0  0  0
   -4.3760    2.3780    0.3650 C   0  0  0  0  0  0  0  0  0  0  0  0
   -5.0110    1.2470   -0.0700 C   0  0  0  0  0  0  0  0  0  0  0  0
   -4.4560    0.0160    0.1990 C   0  0  0  0  0  0  0  0  0  0  0  0
   -3.2510   -0.0770    0.9130 C   0  0  0  0  0  0  0  0  0  0  0  0
   -4.9570   -1.3370   -0.1670 C   0  0  0  0  0  0  0  0  0  0  0  0
   -5.5830   -1.1640   -1.5580 C   0  0  0  0  0  0  0  0  0  0  0  0
   -7.0500   -0.8520   -1.3390 C   0  0  2  0  0  0  0  0  0  0  0  0
   -7.8330   -0.8530   -2.5340 N   0  0  1  0  0  0  0  0  0  0  0  0
   -8.0470    0.4350   -3.1320 C   0  0  0  0  0  0  0  0  0  0  0  0
   -7.1800   -1.6910   -3.5450 C   0  0  0  0  0  0  0  0  0  0  0  0
   -7.2330    0.3710   -0.4850 C   0  0  0  0  0  0  0  0  0  0  0  0
   -6.2870    1.4940   -0.8220 C   0  0  0  0  0  0  0  0  0  0  0  0
    7.2680    1.9190    0.7990 C   0  0  2  0  0  0  0  0  0  0  0  0
    8.5570    1.7870    1.3230 F   0  0  0  0  0  0  0  0  0  0  0  0
    6.4290    2.6260    1.5930 F   0  0  0  0  0  0  0  0  0  0  0  0
  1  2  1  0
  2  3  2  3
  3  4  1  0
  3  5  1  0
  5  6  2  3
  6  7  1  0
  7  8  2  3
  7 34  1  0
  8  9  1  0
  9 10  1  0
 10 11  2  0
 10 12  1  0
 12 13  1  0
 13 14  1  0
 14 15  1  6
 14 16  1  0
 16 17  1  0
 17 18  2  0
 17 19  1  0
 19 20  1  0
 20 21  2  0
 20 25  1  0
 21 22  1  0
 22 23  2  0
 23 24  1  0
 23 33  1  0
 24 25  2  0
 24 26  1  0
 26 27  1  0
 28 27  1  6
 28 29  1  0
 28 32  1  0
 29 30  1  6
 29 31  1  0
 32 33  1  0
 34 35  1  1
 34 36  1  0
M  CHG  1  29   1
M  END
