
     RDKit          3D

 36 39  0  0  0  0  0  0  0  0999 V2000
    0.0970    2.9230   -2.6560 C   0  0  0  0  0  0  0  0  0  0  0  0
   -0.0980    1.8030   -1.5870 C   0  0  0  0  0  0  0  0  0  0  0  0
   -1.1170    2.2210   -0.7440 N   0  0  0  0  0  0  0  0  0  0  0  0
   -1.8530    1.3460    0.1390 C   0  0  2  0  0  0  0  0  0  0  0  0
   -1.4240   -0.0200   -0.1180 C   0  0  1  0  0  0  0  0  0  0  0  0
   -0.0210   -0.2610    0.0710 N   0  0  0  0  0  0  0  0  0  0  0  0
    0.9510    0.0320    1.0310 C   0  0  0  0  0  0  0  0  0  0  0  0
    1.0160    1.1270    1.8260 C   0  0  0  0  0  0  0  0  0  0  0  0
    2.0740    1.3620    2.7140 C   0  0  0  0  0  0  0  0  0  0  0  0
    3.1130    0.4870    2.8310 C   0  0  0  0  0  0  0  0  0  0  0  0
    3.0430   -0.6600    2.0040 C   0  0  0  0  0  0  0  0  0  0  0  0
    2.0230   -0.8850    1.1470 C   0  0  0  0  0  0  0  0  0  0  0  0
    2.0040   -2.0330    0.3730 O   0  0  0  0  0  0  0  0  0  0  0  0
    2.9380   -2.9890    0.3520 C   0  0  0  0  0  0  0  0  0  0  0  0
    4.3260   -2.6680   -0.1660 C   0  0  0  0  0  0  0  0  0  0  0  0
    5.0970   -3.6410   -0.1100 O   0  0  0  0  0  0  0  0  0  0  0  0
    4.6600   -1.4150   -0.6340 N   0  0  0  0  0  0  0  0  0  0  0  0
    5.9890   -1.1030   -1.1630 C   0  0  0  0  0  0  0  0  0  0  0  0
    6.8180   -2.0570   -1.6710 C   0  0  0  0  0  0  0  0  0  0  0  0
    8.0720   -1.7420   -2.2010 C   0  0  0  0  0  0  0  0  0  0  0  0
    8.4970   -0.4240   -2.2160 C   0  0  0  0  0  0  0  0  0  0  0  0
    7.6630    0.5380   -1.7020 C   0  0  0  0  0  0  0  0  0  0  0  0
    6.4030    0.2200   -1.1700 C   0  0  0  0  0  0  0  0  0  0  0  0
   -2.1980   -1.2080    0.3750 C   0  0  1  0  0  0  0  0  0  0  0  0
   -1.4350   -2.4460   -0.2010 C   0  0  0  0  0  0  0  0  0  0  0  0
   -2.4240   -3.5860   -0.1460 C   0  0  0  0  0  0  0  0  0  0  0  0
   -3.3090   -3.4840    0.9840 N   0  0  0  0  0  0  0  0  0  0  0  0
   -2.7450   -2.8370    2.1270 C   0  0  0  0  0  0  0  0  0  0  0  0
   -2.0730   -1.5070    1.8530 C   0  0  0  0  0  0  0  0  0  0  0  0
   -3.3540    1.5990   -0.0320 C   0  0  2  0  0  0  0  0  0  0  0  0
   -3.9800    1.2880   -1.3110 C   0  0  0  0  0  0  0  0  0  0  0  0
   -3.5110    1.9590   -2.5700 C   0  0  0  0  0  0  0  0  0  0  0  0
   -3.4940    3.1330    0.1830 C   0  0  0  0  0  0  0  0  0  0  0  0
   -4.5940    3.3540    1.1760 C   0  0  0  0  0  0  0  0  0  0  0  0
   -5.3520    2.0580    1.2420 C   0  0  0  0  0  0  0  0  0  0  0  0
   -4.1210    1.1170    1.1300 C   0  0  0  0  0  0  0  0  0  0  0  0
  1  2  1  0
  2  3  1  0
  4  3  1  6
  4  5  1  0
  4 30  1  0
  5  6  1  1
  5 24  1  0
  6  7  1  0
  7  8  2  0
  7 12  1  0
  8  9  1  0
  9 10  2  0
 10 11  1  0
 11 12  2  0
 12 13  1  0
 13 14  1  0
 14 15  1  0
 15 16  2  0
 15 17  1  0
 17 18  1  0
 18 19  2  0
 18 23  1  0
 19 20  1  0
 20 21  2  0
 21 22  1  0
 22 23  2  0
 24 25  1  6
 24 29  1  0
 25 26  1  0
 26 27  1  0
 27 28  1  0
 28 29  1  0
 30 31  1  6
 30 33  1  0
 30 36  1  0
 31 32  1  0
 33 34  1  0
 34 35  1  0
 35 36  1  0
M  CHG  2   3   1  27   1
M  END
