
     RDKit          3D

 37 41  0  0  0  0  0  0  0  0999 V2000
   -5.5400    1.6530   -3.6710 C   0  0  0  0  0  0  0  0  0  0  0  0
   -5.0860    0.3770   -2.9570 C   0  0  0  0  0  0  0  0  0  0  0  0
   -3.7610    0.5850   -2.3190 C   0  0  0  0  0  0  0  0  0  0  0  0
   -3.5430    0.5340   -1.0300 C   0  0  0  0  0  0  0  0  0  0  0  0
   -4.6360    0.2480   -0.1140 C   0  0  0  0  0  0  0  0  0  0  0  0
   -5.8520   -0.2360   -0.2840 N   0  0  0  0  0  0  0  0  0  0  0  0
   -6.5410   -0.3250    0.9310 C   0  0  0  0  0  0  0  0  0  0  0  0
   -7.5700   -0.9890    1.2630 N   0  0  0  0  0  0  0  0  0  0  0  0
   -5.7880    0.5850    1.8670 C   0  0  0  0  0  0  0  0  0  0  0  0
   -4.4540    0.5010    1.2660 N   0  0  0  0  0  0  0  0  0  0  0  0
   -3.1790    0.6140    1.8730 C   0  0  0  0  0  0  0  0  0  0  0  0
   -2.0500    0.3010    0.9080 C   0  0  2  0  0  0  0  0  0  0  0  0
   -0.7110    0.5230    1.4910 C   0  0  0  0  0  0  0  0  0  0  0  0
   -0.5640    0.6910    2.9560 C   0  0  0  0  0  0  0  0  0  0  0  0
    0.3200    0.5760    0.6710 C   0  0  0  0  0  0  0  0  0  0  0  0
    1.6460    0.7710    1.2410 C   0  0  0  0  0  0  0  0  0  0  0  0
    1.8110    0.8690    2.5080 O   0  0  0  0  0  0  0  0  0  0  0  0
    2.8030    0.8710    0.5170 O   0  0  0  0  0  0  0  0  0  0  0  0
    4.0390    1.0640    1.1300 C   0  0  2  0  0  0  0  0  0  0  0  0
    4.5830    2.4190    0.7340 C   0  0  0  0  0  0  0  0  0  0  0  0
    5.8250    2.5650    1.3770 O   0  0  0  0  0  0  0  0  0  0  0  0
    5.0140   -0.0200    0.9120 C   0  0  0  0  0  0  0  0  0  0  0  0
    6.1610    0.1150    1.4380 O   0  0  0  0  0  0  0  0  0  0  0  0
    4.7960   -1.1900    0.1780 N   0  0  0  0  0  0  0  0  0  0  0  0
    5.8960   -2.1810    0.0580 C   0  0  0  0  0  0  0  0  0  0  0  0
    6.9790   -2.4170    0.3450 N   0  0  0  0  0  0  0  0  0  0  0  0
    7.6390   -3.5030    0.0090 N   0  0  0  0  0  0  0  0  0  0  0  0
    7.2250   -4.3820   -0.6260 C   0  0  0  0  0  0  0  0  0  0  0  0
    7.6300   -5.7030   -1.1840 C   0  0  0  0  0  0  0  0  0  0  0  0
    5.4690   -3.7300   -0.9460 S   0  0  0  0  0  0  0  0  0  0  0  0
    0.1540    0.6840   -0.7900 C   0  0  0  0  0  0  0  0  0  0  0  0
    1.3320    0.6020   -1.7120 C   0  0  0  0  0  0  0  0  0  0  0  0
   -1.0700    0.7660   -1.2940 C   0  0  0  0  0  0  0  0  0  0  0  0
   -1.2910    0.8660   -2.7460 C   0  0  0  0  0  0  0  0  0  0  0  0
   -0.3360    1.0360   -3.5090 O   0  0  0  0  0  0  0  0  0  0  0  0
   -2.6260    0.7620   -3.1880 N   0  0  0  0  0  0  0  0  0  0  0  0
   -2.2230    0.8750   -0.4130 C   0  0  1  0  0  0  0  0  0  0  0  0
  1  2  1  0
  2  3  1  0
  3  4  2  0
  3 36  1  0
  4  5  1  0
 37  4  1  6
  5  6  2  0
  5 10  1  0
  6  7  1  0
  7  8  2  0
  7  9  1  0
  9 10  1  0
 10 11  1  0
 12 11  1  1
 12 13  1  0
 12 37  1  0
 13 14  1  0
 13 15  2  0
 15 16  1  0
 15 31  1  0
 16 17  2  0
 16 18  1  0
 18 19  1  0
 19 20  1  6
 19 22  1  0
 20 21  1  0
 22 23  2  0
 22 24  1  0
 24 25  1  0
 25 26  2  0
 25 30  1  0
 26 27  1  0
 27 28  2  0
 28 29  1  0
 28 30  1  0
 31 32  1  0
 31 33  2  0
 33 34  1  0
 33 37  1  0
 34 35  2  0
 34 36  1  0
M  END
