
     RDKit          3D

 37 41  0  0  0  0  0  0  0  0999 V2000
    5.9670    0.8700   -2.6240 C   0  0  0  0  0  0  0  0  0  0  0  0
    5.0840    0.1560   -1.6050 C   0  0  2  0  0  0  0  0  0  0  0  0
    4.3830    1.1770   -0.8520 N   0  0  0  0  0  0  0  0  0  0  0  0
    2.9840    1.4460   -1.0150 C   0  0  0  0  0  0  0  0  0  0  0  0
    2.3920    0.7400   -1.8580 O   0  0  0  0  0  0  0  0  0  0  0  0
    2.2620    2.4690   -0.2650 C   0  0  2  0  0  0  0  0  0  0  0  0
    3.2950    3.2530    0.3670 O   0  0  0  0  0  0  0  0  0  0  0  0
    1.4430    1.9790    0.8540 C   0  0  0  0  0  0  0  0  0  0  0  0
    0.2860    1.1310    0.5200 N   0  0  0  0  0  0  0  0  0  0  0  0
    0.3530   -0.2870    0.6090 C   0  0  0  0  0  0  0  0  0  0  0  0
   -0.9190   -0.9760    0.3210 C   0  0  0  0  0  0  0  0  0  0  0  0
   -2.0330   -0.3700    0.0070 C   0  0  0  0  0  0  0  0  0  0  0  0
   -2.1040    1.0450   -0.0850 N   0  0  0  0  0  0  0  0  0  0  0  0
   -0.9340    1.7810    0.1750 C   0  0  0  0  0  0  0  0  0  0  0  0
   -0.9210    3.0530    0.1110 O   0  0  0  0  0  0  0  0  0  0  0  0
   -3.3000   -0.9890   -0.2840 N   0  0  0  0  0  0  0  0  0  0  0  0
   -4.4100   -0.1930    0.0980 C   0  0  0  0  0  0  0  0  0  0  0  0
   -5.5480   -0.2430   -0.6700 C   0  0  0  0  0  0  0  0  0  0  0  0
   -6.6920    0.4910   -0.3310 C   0  0  0  0  0  0  0  0  0  0  0  0
   -6.6450    1.2720    0.8000 C   0  0  0  0  0  0  0  0  0  0  0  0
   -7.5680    2.0890    1.3910 C   0  0  0  0  0  0  0  0  0  0  0  0
   -7.0010    2.6330    2.5070 N   0  0  0  0  0  0  0  0  0  0  0  0
   -5.7390    2.1620    2.6130 C   0  0  0  0  0  0  0  0  0  0  0  0
   -5.4900    1.2970    1.5420 C   0  0  0  0  0  0  0  0  0  0  0  0
   -4.4300    0.5880    1.1890 N   0  0  0  0  0  0  0  0  0  0  0  0
   -3.6210   -2.2560   -0.8600 C   0  0  0  0  0  0  0  0  0  0  0  0
   -3.0380   -3.4250   -0.1050 C   0  0  0  0  0  0  0  0  0  0  0  0
   -1.6030   -3.4480   -0.0630 N   0  0  0  0  0  0  0  0  0  0  0  0
   -0.7320   -2.4570    0.4280 C   0  0  0  0  0  0  0  0  0  0  0  0
    0.3150   -2.7990    1.0180 O   0  0  0  0  0  0  0  0  0  0  0  0
    5.8740   -0.7520   -0.7810 C   0  0  0  0  0  0  0  0  0  0  0  0
    7.7080   -0.9550   -1.0070 S   0  0  0  0  0  0  0  0  0  0  0  0
    7.8400   -2.1940    0.3480 C   0  0  0  0  0  0  0  0  0  0  0  0
    6.5690   -2.3210    0.8050 C   0  0  0  0  0  0  0  0  0  0  0  0
    5.5810   -1.6100    0.2510 C   0  0  0  0  0  0  0  0  0  0  0  0
    4.1620   -1.7010    0.7010 C   0  0  0  0  0  0  0  0  0  0  0  0
    3.8800   -2.4660    1.6370 O   0  0  0  0  0  0  0  0  0  0  0  0
  2  1  1  6
  2  3  1  0
  2 31  1  0
  3  4  1  0
  4  5  2  0
  4  6  1  0
  6  7  1  1
  6  8  1  0
  8  9  1  0
  9 10  1  0
  9 14  1  0
 10 11  1  0
 11 12  2  0
 11 29  1  0
 12 13  1  0
 12 16  1  0
 13 14  1  0
 14 15  2  0
 16 17  1  0
 16 26  1  0
 17 18  1  0
 17 25  2  0
 18 19  2  0
 19 20  1  0
 20 21  2  0
 20 24  1  0
 21 22  1  0
 22 23  1  0
 23 24  2  0
 24 25  1  0
 26 27  1  0
 27 28  1  0
 28 29  1  0
 29 30  2  0
 31 32  1  0
 31 35  2  0
 32 33  1  0
 33 34  2  0
 34 35  1  0
 35 36  1  0
 36 37  2  0
M  END
