
     RDKit          3D

 37 40  0  0  0  0  0  0  0  0999 V2000
    5.0240   -3.9060   -0.1450 C   0  0  0  0  0  0  0  0  0  0  0  0
    3.7100   -3.3940   -0.2250 O   0  0  0  0  0  0  0  0  0  0  0  0
    3.4730   -2.0980   -0.6140 C   0  0  0  0  0  0  0  0  0  0  0  0
    4.5280   -1.2610   -0.9380 C   0  0  0  0  0  0  0  0  0  0  0  0
    4.3210    0.0380   -1.3290 C   0  0  0  0  0  0  0  0  0  0  0  0
    5.4440    0.9450   -1.6620 C   0  0  0  0  0  0  0  0  0  0  0  0
    5.7740    1.8960   -0.5930 C   0  0  0  0  0  0  0  0  0  0  0  0
    5.3710    3.2350   -0.6710 C   0  0  0  0  0  0  0  0  0  0  0  0
    5.6820    4.0850    0.3220 N   0  0  0  0  0  0  0  0  0  0  0  0
    6.3750    3.7030    1.4100 C   0  0  0  0  0  0  0  0  0  0  0  0
    6.6750    4.6580    2.4340 N   0  0  0  0  0  0  0  0  0  0  0  0
    6.7630    2.4270    1.4920 N   0  0  0  0  0  0  0  0  0  0  0  0
    6.4770    1.5130    0.5120 C   0  0  0  0  0  0  0  0  0  0  0  0
    6.9140    0.1700    0.6400 N   0  0  0  0  0  0  0  0  0  0  0  0
    3.0140    0.4670   -1.3840 C   0  0  0  0  0  0  0  0  0  0  0  0
    1.9250   -0.3580   -1.0610 C   0  0  0  0  0  0  0  0  0  0  0  0
    0.6250    0.2220   -1.1760 C   0  0  0  0  0  0  0  0  0  0  0  0
   -0.5040   -0.2980   -0.7430 C   0  0  0  0  0  0  0  0  0  0  0  0
   -1.7450    0.4210   -0.9450 C   0  0  0  0  0  0  0  0  0  0  0  0
   -1.7660    1.5080   -1.5240 O   0  0  0  0  0  0  0  0  0  0  0  0
   -2.9730   -0.1390   -0.4630 N   0  0  0  0  0  0  0  0  0  0  0  0
   -2.8980   -1.3450    0.1780 N   0  0  0  0  0  0  0  0  0  0  0  0
   -4.0800   -1.9510    0.6670 C   0  0  0  0  0  0  0  0  0  0  0  0
   -5.2870   -1.5690   -0.1390 C   0  0  0  0  0  0  0  0  0  0  0  0
   -6.3140   -2.4770   -0.2030 C   0  0  0  0  0  0  0  0  0  0  0  0
   -7.4380   -2.1590   -0.9430 C   0  0  0  0  0  0  0  0  0  0  0  0
   -7.4790   -0.9450   -1.5830 C   0  0  0  0  0  0  0  0  0  0  0  0
   -6.4650   -0.0120   -1.5370 C   0  0  0  0  0  0  0  0  0  0  0  0
   -5.3370   -0.3540   -0.7840 C   0  0  0  0  0  0  0  0  0  0  0  0
   -4.2200    0.5600   -0.6630 C   0  0  1  0  0  0  0  0  0  0  0  0
   -4.3840    1.7190    0.2150 C   0  0  0  0  0  0  0  0  0  0  0  0
   -4.3860    1.5960    1.6710 C   0  0  1  0  0  0  0  0  0  0  0  0
   -3.1910    1.0620    2.3560 C   0  0  0  0  0  0  0  0  0  0  0  0
   -4.6220    3.0190    2.2210 C   0  0  0  0  0  0  0  0  0  0  0  0
    2.1520   -1.6390   -0.6780 C   0  0  0  0  0  0  0  0  0  0  0  0
    1.1810   -2.5770   -0.3350 O   0  0  0  0  0  0  0  0  0  0  0  0
    0.6600   -3.4660   -1.3440 C   0  0  0  0  0  0  0  0  0  0  0  0
  1  2  1  0
  2  3  1  0
  3  4  2  0
  3 35  1  0
  4  5  1  0
  5  6  1  0
  5 15  2  0
  6  7  1  0
  7  8  2  0
  7 13  1  0
  8  9  1  0
  9 10  2  0
 10 11  1  0
 10 12  1  0
 12 13  2  0
 13 14  1  0
 15 16  1  0
 16 17  1  0
 16 35  2  0
 17 18  2  3
 18 19  1  0
 19 20  2  0
 19 21  1  0
 21 22  1  0
 21 30  1  0
 22 23  1  0
 23 24  1  0
 24 25  2  0
 24 29  1  0
 25 26  1  0
 26 27  2  0
 27 28  1  0
 28 29  2  0
 29 30  1  0
 30 31  1  1
 31 32  1  0
 32 33  1  1
 32 34  1  0
 35 36  1  0
 36 37  1  0
M  CHG  1  22   1
M  END
