
     RDKit          3D

 36 40  0  0  0  0  0  0  0  0999 V2000
   -4.5590    0.5460   -3.2140 C   0  0  0  0  0  0  0  0  0  0  0  0
   -4.1180    0.1750   -1.8980 N   0  0  0  0  0  0  0  0  0  0  0  0
   -2.6580    0.3230   -1.7570 C   0  0  2  0  0  0  0  0  0  0  0  0
   -2.0730   -0.6170   -2.7270 C   0  0  0  0  0  0  0  0  0  0  0  0
   -1.1430   -0.1980   -3.5610 C   0  0  0  0  0  0  0  0  0  0  0  0
   -0.5150   -1.1020   -4.5630 C   0  0  0  0  0  0  0  0  0  0  0  0
   -0.9960   -2.4030   -4.5240 O   0  0  0  0  0  0  0  0  0  0  0  0
   -1.9550   -2.8170   -3.6560 C   0  0  0  0  0  0  0  0  0  0  0  0
   -2.5010   -1.9980   -2.7760 C   0  0  0  0  0  0  0  0  0  0  0  0
   -2.3830   -0.1420   -0.3060 C   0  0  2  0  0  0  0  0  0  0  0  0
   -3.1800    0.7670    0.5500 C   0  0  0  0  0  0  0  0  0  0  0  0
   -3.1300    0.5320    1.9740 N   0  0  0  0  0  0  0  0  0  0  0  0
   -4.4240    0.7930    2.5970 C   0  0  2  0  0  0  0  0  0  0  0  0
   -4.9680    2.1390    2.7570 C   0  0  0  0  0  0  0  0  0  0  0  0
   -4.3290    1.4940    3.9400 C   0  0  0  0  0  0  0  0  0  0  0  0
   -0.8970   -0.1640   -0.0790 C   0  0  1  0  0  0  0  0  0  0  0  0
   -0.2630    1.0950   -0.2360 N   0  0  0  0  0  0  0  0  0  0  0  0
    1.0620    1.2250    0.2280 C   0  0  0  0  0  0  0  0  0  0  0  0
    2.0530    1.6740   -0.8200 C   0  0  2  0  0  0  0  0  0  0  0  0
    2.1320    0.6910   -1.9350 C   0  0  0  0  0  0  0  0  0  0  0  0
    3.4600    0.6070   -2.3470 O   0  0  0  0  0  0  0  0  0  0  0  0
    4.2870    0.9500   -1.2800 C   0  0  0  0  0  0  0  0  0  0  0  0
    5.5560    0.6550   -1.2360 C   0  0  0  0  0  0  0  0  0  0  0  0
    6.5140    0.9540   -0.1880 C   0  0  0  0  0  0  0  0  0  0  0  0
    7.7850    0.6180   -0.2210 C   0  0  0  0  0  0  0  0  0  0  0  0
    8.4410    1.0890    1.0090 C   0  0  0  0  0  0  0  0  0  0  0  0
    7.4000    1.7360    1.7470 N   0  0  0  0  0  0  0  0  0  0  0  0
    6.2910    1.6560    1.0550 C   0  0  0  0  0  0  0  0  0  0  0  0
    3.4700    1.6690   -0.2780 C   0  0  0  0  0  0  0  0  0  0  0  0
   -0.5020   -1.0080    1.0330 C   0  0  0  0  0  0  0  0  0  0  0  0
   -0.1370   -0.5040    2.2650 C   0  0  0  0  0  0  0  0  0  0  0  0
    0.2260   -1.3310    3.2980 C   0  0  0  0  0  0  0  0  0  0  0  0
    0.2390   -2.7030    3.1400 C   0  0  0  0  0  0  0  0  0  0  0  0
    0.6240   -3.6000    4.2330 C   0  0  0  0  0  0  0  0  0  0  0  0
   -0.1260   -3.1940    1.9090 C   0  0  0  0  0  0  0  0  0  0  0  0
   -0.4910   -2.4070    0.8660 C   0  0  0  0  0  0  0  0  0  0  0  0
  1  2  1  0
  3  2  1  6
  3  4  1  0
  3 10  1  0
  4  5  2  0
  4  9  1  0
  5  6  1  0
  6  7  1  0
  7  8  1  0
  8  9  2  0
 10 11  1  1
 10 16  1  0
 11 12  1  0
 13 12  1  6
 13 14  1  0
 13 15  1  0
 14 15  1  0
 16 17  1  1
 16 30  1  0
 17 18  1  0
 19 18  1  1
 19 20  1  0
 19 29  1  0
 20 21  1  0
 21 22  1  0
 22 23  2  3
 22 29  1  0
 23 24  1  0
 24 25  2  0
 24 28  1  0
 25 26  1  0
 26 27  1  0
 27 28  2  0
 30 31  2  0
 30 36  1  0
 31 32  1  0
 32 33  2  0
 33 34  1  0
 33 35  1  0
 35 36  2  0
M  CHG  2  12   1  17   1
M  END
