
     RDKit          3D

 37 41  0  0  0  0  0  0  0  0999 V2000
   11.2120    1.1280    0.3100 C   0  0  0  0  0  0  0  0  0  0  0  0
    9.7960    0.8430   -0.0150 C   0  0  0  0  0  0  0  0  0  0  0  0
    9.0380    0.8910   -0.9310 N   0  0  0  0  0  0  0  0  0  0  0  0
    7.7880    0.5510   -0.8910 N   0  0  0  0  0  0  0  0  0  0  0  0
    7.2100    0.1400    0.0610 C   0  0  0  0  0  0  0  0  0  0  0  0
    5.9290   -0.3240    0.5230 N   0  0  0  0  0  0  0  0  0  0  0  0
    5.6840   -0.7500    1.8550 C   0  0  0  0  0  0  0  0  0  0  0  0
    6.6360   -0.7210    2.6710 O   0  0  0  0  0  0  0  0  0  0  0  0
    4.3210   -1.2250    2.2770 C   0  0  0  0  0  0  0  0  0  0  0  0
    3.4190   -1.1550    1.1450 N   0  0  0  0  0  0  0  0  0  0  0  0
    3.2020   -2.2270    0.2040 C   0  0  0  0  0  0  0  0  0  0  0  0
    3.7530   -3.3600    0.2250 O   0  0  0  0  0  0  0  0  0  0  0  0
    2.2510   -1.7550   -0.7420 N   0  0  0  0  0  0  0  0  0  0  0  0
    1.8870   -0.3960   -0.4880 C   0  0  1  0  0  0  0  0  0  0  0  0
    2.2460    0.5350   -1.6250 C   0  0  0  0  0  0  0  0  0  0  0  0
    1.7170   -0.0530   -2.9020 C   0  0  0  0  0  0  0  0  0  0  0  0
    0.3970   -0.7160   -2.7200 C   0  0  0  0  0  0  0  0  0  0  0  0
   -0.2220   -0.8450   -1.5710 C   0  0  0  0  0  0  0  0  0  0  0  0
   -1.5310   -1.5200   -1.4870 C   0  0  0  0  0  0  0  0  0  0  0  0
   -2.5710   -0.5480   -0.9330 C   0  0  0  0  0  0  0  0  0  0  0  0
   -2.2150    0.6140   -0.6400 O   0  0  0  0  0  0  0  0  0  0  0  0
   -3.8960   -0.9530   -0.7590 N   0  0  0  0  0  0  0  0  0  0  0  0
   -4.9420   -0.1500   -0.2620 C   0  0  0  0  0  0  0  0  0  0  0  0
   -4.8810    1.1990   -0.0370 C   0  0  0  0  0  0  0  0  0  0  0  0
   -5.9790    1.9130    0.4730 C   0  0  0  0  0  0  0  0  0  0  0  0
   -7.1590    1.2830    0.7660 C   0  0  0  0  0  0  0  0  0  0  0  0
   -7.2570   -0.0790    0.5510 C   0  0  0  0  0  0  0  0  0  0  0  0
   -6.1760   -0.7520    0.0540 C   0  0  0  0  0  0  0  0  0  0  0  0
   -8.6440   -0.4910    0.9550 C   0  0  0  0  0  0  0  0  0  0  0  0
   -9.3810    0.8070    1.0580 C   0  0  0  0  0  0  0  0  0  0  0  0
   -8.3670    1.8070    1.2800 N   0  0  0  0  0  0  0  0  0  0  0  0
   -8.5670    3.0910    1.9080 C   0  0  0  0  0  0  0  0  0  0  0  0
   -7.5760    3.8510    2.0270 O   0  0  0  0  0  0  0  0  0  0  0  0
    0.3760   -0.3160   -0.3090 C   0  0  0  0  0  0  0  0  0  0  0  0
    2.6060   -0.0580    0.7630 C   0  0  0  0  0  0  0  0  0  0  0  0
    2.4950    1.0320    1.3660 O   0  0  0  0  0  0  0  0  0  0  0  0
    8.6270    0.1720    1.3200 S   0  0  0  0  0  0  0  0  0  0  0  0
  1  2  1  0
  2  3  2  0
  2 37  1  0
  3  4  1  0
  4  5  2  0
  5  6  1  0
  5 37  1  0
  6  7  1  0
  7  8  2  0
  7  9  1  0
  9 10  1  0
 10 11  1  0
 10 35  1  0
 11 12  2  0
 11 13  1  0
 13 14  1  0
 14 15  1  6
 14 34  1  0
 14 35  1  0
 15 16  1  0
 16 17  1  0
 17 18  2  0
 18 19  1  0
 18 34  1  0
 19 20  1  0
 20 21  2  0
 20 22  1  0
 22 23  1  0
 23 24  2  0
 23 28  1  0
 24 25  1  0
 25 26  2  0
 26 27  1  0
 26 31  1  0
 27 28  2  0
 27 29  1  0
 29 30  1  0
 30 31  1  0
 31 32  1  0
 32 33  2  0
 35 36  2  0
M  END
