
     RDKit          3D

 37 41  0  0  0  0  0  0  0  0999 V2000
   -0.1150   -4.1260   -2.0610 C   0  0  0  0  0  0  0  0  0  0  0  0
   -0.0760   -2.7630   -1.4240 C   0  0  0  0  0  0  0  0  0  0  0  0
    0.9660   -1.9570   -1.3230 N   0  0  0  0  0  0  0  0  0  0  0  0
    0.6450   -0.7850   -0.6820 C   0  0  0  0  0  0  0  0  0  0  0  0
    1.6230    0.2480   -0.4350 C   0  0  0  0  0  0  0  0  0  0  0  0
    2.8600   -0.0580   -0.6520 O   0  0  0  0  0  0  0  0  0  0  0  0
    1.4310    1.5550    0.0070 N   0  0  0  0  0  0  0  0  0  0  0  0
    2.4990    2.4680    0.2120 N   0  0  0  0  0  0  0  0  0  0  0  0
    3.6590    1.9770    0.8540 C   0  0  0  0  0  0  0  0  0  0  0  0
    3.6000    1.9210    2.2410 C   0  0  0  0  0  0  0  0  0  0  0  0
    4.6720    1.4580    2.9520 C   0  0  0  0  0  0  0  0  0  0  0  0
    5.7630    1.0670    2.2730 N   0  0  0  0  0  0  0  0  0  0  0  0
    5.8190    1.1240    0.9100 C   0  0  0  0  0  0  0  0  0  0  0  0
    7.0360    0.6800    0.3040 N   0  0  0  0  0  0  0  0  0  0  0  0
    8.1290    0.2030    1.0740 C   0  0  0  0  0  0  0  0  0  0  0  0
    7.9670    0.1960    2.3360 O   0  0  0  0  0  0  0  0  0  0  0  0
    9.4110   -0.2710    0.5020 C   0  0  2  0  0  0  0  0  0  0  0  0
   10.0480    0.4250   -0.6570 C   0  0  0  0  0  0  0  0  0  0  0  0
    9.4540   -0.9100   -0.8370 C   0  0  0  0  0  0  0  0  0  0  0  0
    4.7790    1.5720    0.2330 N   0  0  0  0  0  0  0  0  0  0  0  0
   -0.6810   -0.8580   -0.3590 C   0  0  0  0  0  0  0  0  0  0  0  0
   -1.1260   -2.1180   -0.8370 C   0  0  0  0  0  0  0  0  0  0  0  0
   -2.5100   -2.4930   -0.6390 C   0  0  0  0  0  0  0  0  0  0  0  0
   -2.8650   -3.6990   -0.6290 O   0  0  0  0  0  0  0  0  0  0  0  0
   -3.5350   -1.4540   -0.4420 C   0  0  0  0  0  0  0  0  0  0  0  0
   -2.9390   -0.1010   -0.5560 C   0  0  1  0  0  0  0  0  0  0  0  0
   -3.8610    1.0480   -0.3110 C   0  0  1  0  0  0  0  0  0  0  0  0
   -4.9590    1.0280   -1.3470 C   0  0  0  0  0  0  0  0  0  0  0  0
   -5.9600    2.1360   -1.0690 C   0  0  0  0  0  0  0  0  0  0  0  0
   -6.4920    2.0600    0.3400 C   0  0  0  0  0  0  0  0  0  0  0  0
   -5.8350    1.1330    1.1720 N   0  0  0  0  0  0  0  0  0  0  0  0
   -6.6950   -0.1880    1.7370 S   0  0  1  0  0  0  0  0  0  0  0  0
   -7.3140   -1.2790    0.4960 C   0  0  0  0  0  0  0  0  0  0  0  0
   -5.7660   -1.0200    2.6120 O   0  0  0  0  0  0  0  0  0  0  0  0
   -7.8410    0.2600    2.5890 O   0  0  0  0  0  0  0  0  0  0  0  0
   -4.4240    1.0430    1.0930 C   0  0  0  0  0  0  0  0  0  0  0  0
   -1.6960   -0.0280    0.3240 C   0  0  0  0  0  0  0  0  0  0  0  0
  1  2  1  0
  2  3  1  0
  2 22  2  0
  3  4  1  0
  4  5  1  0
  4 21  2  0
  5  6  2  0
  5  7  1  0
  7  8  1  0
  8  9  1  0
  9 10  2  0
  9 20  1  0
 10 11  1  0
 11 12  2  0
 12 13  1  0
 13 14  1  0
 13 20  2  0
 14 15  1  0
 15 16  2  0
 17 15  1  6
 17 18  1  0
 17 19  1  0
 18 19  1  0
 21 22  1  0
 21 37  1  0
 22 23  1  0
 23 24  2  0
 23 25  1  0
 26 25  1  1
 26 27  1  0
 26 37  1  0
 27 28  1  6
 27 36  1  0
 28 29  1  0
 29 30  1  0
 30 31  1  0
 31 32  1  0
 31 36  1  0
 32 33  1  6
 32 34  2  0
 32 35  2  0
M  END
