
     RDKit          3D

  7  7  0  0  0  0  0  0  0  0999 V2000
   -1.9440   -0.4710    0.4580 N   0  0  0  0  0  0  0  0  0  0  0  0
   -0.6960   -0.4620   -0.2150 C   0  0  2  0  0  0  0  0  0  0  0  0
    0.6300   -1.2740    0.7680 S   0  0  0  0  0  0  0  0  0  0  0  0
    1.9520   -0.0720    0.3370 C   0  0  0  0  0  0  0  0  0  0  0  0
    1.2700    0.7930   -0.5240 O   0  0  0  0  0  0  0  0  0  0  0  0
   -0.0720    0.8950   -0.2970 C   0  0  0  0  0  0  0  0  0  0  0  0
   -0.7340    1.9750   -0.1670 O   0  0  0  0  0  0  0  0  0  0  0  0
  2  1  1  1
  2  3  1  0
  2  6  1  0
  3  4  1  0
  4  5  1  0
  5  6  1  0
  6  7  2  0
M  END
