
     RDKit          3D

  7  7  0  0  0  0  0  0  0  0999 V2000
   -0.7660    2.0150    0.3300 O   0  0  0  0  0  0  0  0  0  0  0  0
   -0.3720    0.8500    0.0570 C   0  0  0  0  0  0  0  0  0  0  0  0
   -1.3090   -0.2880   -0.1250 C   0  0  0  0  0  0  0  0  0  0  0  0
   -0.2240   -1.6440    0.4820 S   0  0  0  0  0  0  0  0  0  0  0  0
    1.3130   -0.8210    0.2540 N   0  0  0  0  0  0  0  0  0  0  0  0
    1.0120    0.4840   -0.1090 C   0  0  0  0  0  0  0  0  0  0  0  0
    1.8820    1.3080   -0.5560 O   0  0  0  0  0  0  0  0  0  0  0  0
  1  2  2  0
  2  3  1  0
  2  6  1  0
  3  4  1  0
  4  5  1  0
  5  6  1  0
  6  7  2  0
M  END
