
     RDKit          3D

  7  7  0  0  0  0  0  0  0  0999 V2000
    2.7700   -0.7400    0.1620 O   0  0  0  0  0  0  0  0  0  0  0  0
    1.5680   -0.3320    0.0330 C   0  0  0  0  0  0  0  0  0  0  0  0
    1.3960    0.9960   -0.4430 N   0  0  0  0  0  0  0  0  0  0  0  0
   -0.1430    1.7740   -0.0670 S   0  0  0  0  0  0  0  0  0  0  0  0
   -1.2980    0.4590    0.3860 C   0  0  0  0  0  0  0  0  0  0  0  0
   -0.8210   -0.9060   -0.0670 C   0  0  0  0  0  0  0  0  0  0  0  0
    0.5040   -1.1660    0.3500 O   0  0  0  0  0  0  0  0  0  0  0  0
  1  2  2  0
  2  3  1  0
  2  7  1  0
  3  4  1  0
  4  5  1  0
  5  6  1  0
  6  7  1  0
M  END
