
     RDKit          3D

  7  7  0  0  0  0  0  0  0  0999 V2000
    2.5510    0.0230    0.2930 N   0  0  0  0  0  0  0  0  0  0  0  0
    1.2940   -0.0030   -0.0640 C   0  0  0  0  0  0  0  0  0  0  0  0
    0.5530    0.9530   -0.7160 O   0  0  0  0  0  0  0  0  0  0  0  0
   -0.7910    0.9310   -0.4640 C   0  0  0  0  0  0  0  0  0  0  0  0
   -1.5070    1.9590   -0.3610 O   0  0  0  0  0  0  0  0  0  0  0  0
   -1.3690   -0.4230   -0.3170 C   0  0  0  0  0  0  0  0  0  0  0  0
    0.1330   -1.3450    0.2020 S   0  0  0  0  0  0  0  0  0  0  0  0
  1  2  2  0
  2  3  1  0
  2  7  1  0
  3  4  1  0
  4  5  2  0
  4  6  1  0
  6  7  1  0
M  END
