
     RDKit          3D

  6  6  0  0  0  0  0  0  0  0999 V2000
    2.1330   -0.7580    0.6550 N   0  0  0  0  0  0  0  0  0  0  0  0
    0.9370   -0.4690    0.4190 C   0  0  0  0  0  0  0  0  0  0  0  0
    0.3540    0.6540   -0.3890 C   0  0  0  0  0  0  0  0  0  0  0  0
   -0.7870    0.2240   -0.9850 O   0  0  0  0  0  0  0  0  0  0  0  0
   -1.6930   -0.2340   -0.0500 C   0  0  0  0  0  0  0  0  0  0  0  0
   -0.5830   -1.3020    0.9660 S   0  0  0  0  0  0  0  0  0  0  0  0
  1  2  2  0
  2  3  1  0
  2  6  1  0
  3  4  1  0
  4  5  1  0
  5  6  1  0
M  END
