
     RDKit          3D

  7  7  0  0  0  0  0  0  0  0999 V2000
   -2.4730    1.4850    0.3160 O   0  0  0  0  0  0  0  0  0  0  0  0
   -1.4000    0.8970    0.0210 C   0  0  0  0  0  0  0  0  0  0  0  0
   -1.3770   -0.4180   -0.4690 N   0  0  0  0  0  0  0  0  0  0  0  0
   -0.2720   -1.1740   -0.6180 O   0  0  0  0  0  0  0  0  0  0  0  0
    0.7200   -0.8600    0.3120 C   0  0  0  0  0  0  0  0  0  0  0  0
    1.4190    0.4380   -0.1050 C   0  0  0  0  0  0  0  0  0  0  0  0
    0.1680    1.7420    0.2240 S   0  0  0  0  0  0  0  0  0  0  0  0
  1  2  2  0
  2  3  1  0
  2  7  1  0
  3  4  1  0
  4  5  1  0
  5  6  1  0
  6  7  1  0
M  END
