
     RDKit          3D

  7  7  0  0  0  0  0  0  0  0999 V2000
   -1.9550    1.4980    0.4170 O   0  0  0  0  0  0  0  0  0  0  0  0
   -0.9650    0.7350    0.1440 C   0  0  0  0  0  0  0  0  0  0  0  0
   -1.3020   -0.6810   -0.1100 C   0  0  0  0  0  0  0  0  0  0  0  0
    0.1340   -1.4460   -0.9190 S   0  0  0  0  0  0  0  0  0  0  0  0
    1.5730   -0.6010   -0.1520 C   0  0  0  0  0  0  0  0  0  0  0  0
    1.4110    0.7390   -0.4260 O   0  0  0  0  0  0  0  0  0  0  0  0
    0.3230    1.2840    0.1090 N   0  0  0  0  0  0  0  0  0  0  0  0
  1  2  2  0
  2  3  1  0
  2  7  1  0
  3  4  1  0
  4  5  1  0
  5  6  1  0
  6  7  1  0
M  END
