
     RDKit          3D

  7  7  0  0  0  0  0  0  0  0999 V2000
   -2.7620   -0.6480    0.2010 O   0  0  0  0  0  0  0  0  0  0  0  0
   -1.6000   -0.1430    0.0970 C   0  0  0  0  0  0  0  0  0  0  0  0
   -0.4670   -0.8110   -0.1860 N   0  0  0  0  0  0  0  0  0  0  0  0
    0.5830    0.0340   -0.2190 C   0  0  0  0  0  0  0  0  0  0  0  0
    2.3030   -0.3250   -0.5470 S   0  0  0  0  0  0  0  0  0  0  0  0
    0.0350    1.2780    0.0620 C   0  0  0  0  0  0  0  0  0  0  0  0
   -1.2460    1.1110    0.2380 O   0  0  0  0  0  0  0  0  0  0  0  0
  1  2  2  0
  2  3  1  0
  2  7  1  0
  3  4  1  0
  4  5  1  0
  4  6  2  0
  6  7  1  0
M  END
