
     RDKit          3D

  7  7  0  0  0  0  0  0  0  0999 V2000
    1.4290   -1.5410    1.2420 O   0  0  0  0  0  0  0  0  0  0  0  0
    0.8860   -0.6880    0.4560 C   0  0  0  0  0  0  0  0  0  0  0  0
   -0.3030   -1.0970   -0.2660 C   0  0  0  0  0  0  0  0  0  0  0  0
   -1.0050   -0.1610   -0.9280 O   0  0  0  0  0  0  0  0  0  0  0  0
   -1.1470    1.0640   -0.3610 C   0  0  0  0  0  0  0  0  0  0  0  0
    0.4920    1.8870   -0.2630 S   0  0  0  0  0  0  0  0  0  0  0  0
    1.5230    0.5840    0.3810 N   0  0  0  0  0  0  0  0  0  0  0  0
  1  2  2  0
  2  3  1  0
  2  7  1  0
  3  4  1  0
  4  5  1  0
  5  6  1  0
  6  7  1  0
M  END
