
     RDKit          3D

  7  7  0  0  0  0  0  0  0  0999 V2000
    2.1400   -0.5610   -0.3260 O   0  0  0  0  0  0  0  0  0  0  0  0
    0.7970   -0.1880   -0.1540 C   0  0  0  0  0  0  0  0  0  0  0  0
   -0.1950   -0.9800   -0.1930 N   0  0  0  0  0  0  0  0  0  0  0  0
   -1.4540   -0.3230    0.0150 C   0  0  0  0  0  0  0  0  0  0  0  0
   -1.1150    1.0150    0.1940 O   0  0  0  0  0  0  0  0  0  0  0  0
    0.2580    1.1420    0.0980 C   0  0  0  0  0  0  0  0  0  0  0  0
    1.1430    2.5330    0.2390 S   0  0  0  0  0  0  0  0  0  0  0  0
  1  2  1  0
  2  3  2  0
  2  6  1  0
  3  4  1  0
  4  5  1  0
  5  6  1  0
  6  7  2  0
M  END
