
     RDKit          3D

 13 13  0  0  0  0  0  0  0  0999 V2000
    3.4090   -0.9720    0.7460 C   0  0  0  0  0  0  0  0  0  0  0  0
    2.0120   -1.0080    0.6220 O   0  0  0  0  0  0  0  0  0  0  0  0
    1.5780    0.2140    0.1090 C   0  0  0  0  0  0  0  0  0  0  0  0
    0.1150    0.1890   -0.0260 C   0  0  0  0  0  0  0  0  0  0  0  0
   -0.6150    1.2700   -0.5140 C   0  0  0  0  0  0  0  0  0  0  0  0
    0.1010    2.4990   -0.9170 C   0  0  0  0  0  0  0  0  0  0  0  0
   -0.8050    3.4530   -1.3730 O   0  0  0  0  0  0  0  0  0  0  0  0
   -1.9870    1.2380   -0.6360 C   0  0  0  0  0  0  0  0  0  0  0  0
   -2.6250    0.1140   -0.2670 N   0  0  0  0  0  0  0  0  0  0  0  0
   -1.9800   -0.9630    0.2120 C   0  0  0  0  0  0  0  0  0  0  0  0
   -2.7590   -2.1800    0.6030 C   0  0  0  0  0  0  0  0  0  0  0  0
   -0.6050   -0.9310    0.3350 C   0  0  0  0  0  0  0  0  0  0  0  0
    0.0780   -2.0400    0.8290 O   0  0  0  0  0  0  0  0  0  0  0  0
  1  2  1  0
  2  3  1  0
  3  4  1  0
  4  5  2  0
  4 12  1  0
  5  6  1  0
  5  8  1  0
  6  7  1  0
  8  9  2  0
  9 10  1  0
 10 11  1  0
 10 12  2  0
 12 13  1  0
M  END
