
     RDKit          3D

 23 23  0  0  0  0  0  0  0  0999 V2000
   -0.6160    2.1140   -1.3890 C   0  0  0  0  0  0  0  0  0  0  0  0
   -1.5170    1.1660   -0.7440 C   0  0  2  0  0  0  0  0  0  0  0  0
   -2.7980    1.8730   -0.5360 N   0  0  0  0  0  0  0  0  0  0  0  0
   -1.0920    0.4610    0.5110 C   0  0  2  0  0  0  0  0  0  0  0  0
   -0.7750    1.4580    1.5940 C   0  0  0  0  0  0  0  0  0  0  0  0
   -1.8780    2.2680    1.9150 O   0  0  0  0  0  0  0  0  0  0  0  0
   -0.3700   -0.7840    0.4430 C   0  0  1  0  0  0  0  0  0  0  0  0
   -0.1460   -1.2290    1.9190 C   0  0  0  0  0  0  0  0  0  0  0  0
   -1.3340   -1.1710    2.6270 O   0  0  0  0  0  0  0  0  0  0  0  0
   -1.3480   -1.7600   -0.0340 N   0  0  0  0  0  0  0  0  0  0  0  0
   -1.4340   -2.1160   -1.4030 C   0  0  0  0  0  0  0  0  0  0  0  0
   -2.4620   -2.6830   -1.8600 O   0  0  0  0  0  0  0  0  0  0  0  0
   -0.3780   -1.8290   -2.2090 O   0  0  0  0  0  0  0  0  0  0  0  0
    0.8050   -1.2980   -1.7350 C   0  0  0  0  0  0  0  0  0  0  0  0
    0.8840   -1.0920   -0.2330 C   0  0  1  0  0  0  0  0  0  0  0  0
    2.1310   -0.3430    0.0050 C   0  0  0  0  0  0  0  0  0  0  0  0
    2.1490    1.0160   -0.2670 O   0  0  0  0  0  0  0  0  0  0  0  0
    3.2950    1.7340   -0.0550 C   0  0  0  0  0  0  0  0  0  0  0  0
    3.3630    3.1230   -0.3180 N   0  0  0  0  0  0  0  0  0  0  0  0
    4.3260    1.1660    0.3850 O   0  0  0  0  0  0  0  0  0  0  0  0
    1.2550   -2.5090    0.2390 C   0  0  0  0  0  0  0  0  0  0  0  0
    0.4960   -3.6370   -0.1540 N   0  0  0  0  0  0  0  0  0  0  0  0
    2.2280   -2.7310    0.9800 O   0  0  0  0  0  0  0  0  0  0  0  0
  2  1  1  1
  2  3  1  0
  2  4  1  0
  4  5  1  6
  4  7  1  0
  5  6  1  0
  7  8  1  1
  7 10  1  0
  7 15  1  0
  8  9  1  0
 10 11  1  0
 11 12  2  0
 11 13  1  0
 13 14  1  0
 14 15  1  0
 15 16  1  6
 15 21  1  0
 16 17  1  0
 17 18  1  0
 18 19  1  0
 18 20  2  0
 21 22  1  0
 21 23  2  0
M  CHG  1   3   1
M  END
