
     RDKit          3D

 27 28  0  0  0  0  0  0  0  0999 V2000
   -2.7990   -2.4190    0.0670 C   0  0  0  0  0  0  0  0  0  0  0  0
   -3.4260   -1.0850   -0.0050 C   0  0  0  0  0  0  0  0  0  0  0  0
   -2.7030    0.0030   -0.0250 C   0  0  0  0  0  0  0  0  0  0  0  0
   -1.2560   -0.0460    0.0220 C   0  0  0  0  0  0  0  0  0  0  0  0
   -0.6520   -1.1770    0.0800 O   0  0  0  0  0  0  0  0  0  0  0  0
   -0.4550    1.1250    0.0050 N   0  0  0  0  0  0  0  0  0  0  0  0
   -1.1770    2.3640   -0.0450 C   0  0  0  0  0  0  0  0  0  0  0  0
   -1.4500    2.6460   -1.5130 C   0  0  0  0  0  0  0  0  0  0  0  0
    0.1300    2.3840   -2.3380 S   0  0  2  0  0  0  0  0  0  0  0  0
    0.1700    3.1640   -3.6230 O   0  0  0  0  0  0  0  0  0  0  0  0
    0.2940    0.9130   -2.5840 O   0  0  0  0  0  0  0  0  0  0  0  0
    1.3700    2.9870   -1.2270 C   0  0  0  0  0  0  0  0  0  0  0  0
    1.8800    1.9110   -0.3370 C   0  0  2  0  0  0  0  0  0  0  0  0
    3.2020    1.4150   -0.8980 C   0  0  0  0  0  0  0  0  0  0  0  0
    3.8270    0.3460   -0.1190 C   0  0  0  0  0  0  0  0  0  0  0  0
    3.6070   -0.9780   -0.4310 C   0  0  0  0  0  0  0  0  0  0  0  0
    4.2100   -1.9680    0.3380 C   0  0  0  0  0  0  0  0  0  0  0  0
    3.9570   -3.3810   -0.0190 C   0  0  0  0  0  0  0  0  0  0  0  0
    5.0200   -1.6330    1.4000 C   0  0  0  0  0  0  0  0  0  0  0  0
    5.2400   -0.3160    1.7110 C   0  0  0  0  0  0  0  0  0  0  0  0
    6.1070    0.0690    2.8480 C   0  0  0  0  0  0  0  0  0  0  0  0
    4.6460    0.6470    0.9550 C   0  0  0  0  0  0  0  0  0  0  0  0
    0.9630    0.8270    0.0380 C   0  0  0  0  0  0  0  0  0  0  0  0
   -4.9280   -0.9790   -0.0550 C   0  0  1  0  0  0  0  0  0  0  0  0
   -5.3580    0.4670   -0.1290 C   0  0  0  0  0  0  0  0  0  0  0  0
   -5.4640   -1.6800   -1.2930 C   0  0  0  0  0  0  0  0  0  0  0  0
   -5.4580   -1.6180    1.1890 C   0  0  0  0  0  0  0  0  0  0  0  0
  1  2  1  0
  2  3  2  3
  2 24  1  0
  3  4  1  0
  4  5  2  0
  4  6  1  0
  6  7  1  0
  6 23  1  0
  7  8  1  0
  9  8  1  1
  9 10  2  0
  9 11  2  0
  9 12  1  0
 12 13  1  0
 13 14  1  6
 13 23  1  0
 14 15  1  0
 15 16  2  0
 15 22  1  0
 16 17  1  0
 17 18  1  0
 17 19  2  0
 19 20  1  0
 20 21  1  0
 20 22  2  0
 24 25  1  6
 24 26  1  0
 24 27  1  0
M  END
