
     RDKit          3D

 22 22  0  0  0  0  0  0  0  0999 V2000
   -7.3220    1.6030    0.8310 C   0  0  0  0  0  0  0  0  0  0  0  0
   -6.1370    1.2220    0.1700 O   0  0  0  0  0  0  0  0  0  0  0  0
   -5.0840    0.5640    0.7610 C   0  0  0  0  0  0  0  0  0  0  0  0
   -5.1720    0.2750    1.9820 O   0  0  0  0  0  0  0  0  0  0  0  0
   -3.8500    0.1760    0.0380 C   0  0  1  0  0  0  0  0  0  0  0  0
   -3.1680    1.4020   -0.5320 C   0  0  0  0  0  0  0  0  0  0  0  0
   -2.0760    0.9660   -1.3500 N   0  0  0  0  0  0  0  0  0  0  0  0
   -1.7840   -0.4370   -1.2290 C   0  0  0  0  0  0  0  0  0  0  0  0
   -1.8680   -0.9370    0.1890 C   0  0  1  0  0  0  0  0  0  0  0  0
   -0.6580   -0.7300    0.9700 C   0  0  0  0  0  0  0  0  0  0  0  0
   -0.7360   -0.1810    2.0930 O   0  0  0  0  0  0  0  0  0  0  0  0
    0.5990   -1.1570    0.4390 N   0  0  0  0  0  0  0  0  0  0  0  0
    1.8360   -0.9820    1.1620 C   0  0  0  0  0  0  0  0  0  0  0  0
    2.9840   -1.5030    0.3530 C   0  0  1  0  0  0  0  0  0  0  0  0
    2.7750   -2.9370    0.0630 N   0  0  0  0  0  0  0  0  0  0  0  0
    3.2660   -0.8120   -0.9380 C   0  0  1  0  0  0  0  0  0  0  0  0
    2.2290   -0.9160   -1.8470 O   0  0  0  0  0  0  0  0  0  0  0  0
    3.9210    0.5190   -0.8620 C   0  0  2  0  0  0  0  0  0  0  0  0
    4.9620    0.4930    0.1440 N   0  0  0  0  0  0  0  0  0  0  0  0
    3.0440    1.7160   -0.7600 C   0  0  0  0  0  0  0  0  0  0  0  0
    3.9010    2.8370   -0.9400 O   0  0  0  0  0  0  0  0  0  0  0  0
   -2.9650   -0.4670    0.8650 O   0  0  0  0  0  0  0  0  0  0  0  0
  1  2  1  0
  2  3  1  0
  3  4  2  0
  5  3  1  1
  5  6  1  0
  5 22  1  0
  6  7  1  0
  7  8  1  0
  8  9  1  0
  9 10  1  1
  9 22  1  0
 10 11  2  0
 10 12  1  0
 12 13  1  0
 13 14  1  0
 14 15  1  6
 14 16  1  0
 16 17  1  1
 16 18  1  0
 18 19  1  1
 18 20  1  0
 20 21  1  0
M  CHG  2  15   1  19   1
M  END
