
     RDKit          3D

 23 23  0  0  0  0  0  0  0  0999 V2000
   -3.6140   -1.6650   -1.4970 N   0  0  0  0  0  0  0  0  0  0  0  0
   -3.6810   -0.2320   -1.4080 C   0  0  0  0  0  0  0  0  0  0  0  0
   -3.0530    0.3090   -0.1540 C   0  0  2  0  0  0  0  0  0  0  0  0
   -1.6310   -0.1080   -0.1690 C   0  0  0  0  0  0  0  0  0  0  0  0
   -1.1850   -0.8300    0.7550 O   0  0  0  0  0  0  0  0  0  0  0  0
   -0.8390    0.3350   -1.2390 N   0  0  0  0  0  0  0  0  0  0  0  0
    0.5170   -0.0470   -1.2790 N   0  0  0  0  0  0  0  0  0  0  0  0
    0.9210   -1.3610   -1.5560 C   0  0  0  0  0  0  0  0  0  0  0  0
   -0.0630   -2.1800   -1.7730 O   0  0  0  0  0  0  0  0  0  0  0  0
    2.2900   -1.8180   -1.6100 C   0  0  0  0  0  0  0  0  0  0  0  0
    3.3240   -1.0160   -1.2770 O   0  0  0  0  0  0  0  0  0  0  0  0
    3.4260   -0.5440   -0.0040 C   0  0  1  0  0  0  0  0  0  0  0  0
    4.5660   -1.3010    0.7460 C   0  0  0  0  0  0  0  0  0  0  0  0
    4.6790   -0.7420    1.9960 O   0  0  0  0  0  0  0  0  0  0  0  0
    5.2760    0.5010    1.9670 C   0  0  0  0  0  0  0  0  0  0  0  0
    4.9320    1.3230    0.7730 C   0  0  2  0  0  0  0  0  0  0  0  0
    4.7230    2.6450    1.2280 O   0  0  0  0  0  0  0  0  0  0  0  0
    3.6870    0.9170    0.0460 C   0  0  1  0  0  0  0  0  0  0  0  0
    3.8330    1.4220   -1.2710 O   0  0  0  0  0  0  0  0  0  0  0  0
   -3.7100   -0.2350    1.0940 C   0  0  1  0  0  0  0  0  0  0  0  0
   -3.1110    0.2820    2.2430 O   0  0  0  0  0  0  0  0  0  0  0  0
   -5.1540    0.2320    1.0900 C   0  0  0  0  0  0  0  0  0  0  0  0
   -5.2330    1.6740    1.0760 N   0  0  0  0  0  0  0  0  0  0  0  0
  1  2  1  0
  3  2  1  6
  3  4  1  0
  3 20  1  0
  4  5  2  0
  4  6  1  0
  6  7  1  0
  7  8  1  0
  8  9  2  0
  8 10  1  0
 10 11  1  0
 12 11  1  6
 12 13  1  0
 12 18  1  0
 13 14  1  0
 14 15  1  0
 15 16  1  0
 16 17  1  1
 16 18  1  0
 18 19  1  6
 20 21  1  1
 20 22  1  0
 22 23  1  0
M  CHG  2   1   1  23   1
M  END
