
     RDKit          3D

 23 23  0  0  0  0  0  0  0  0999 V2000
    7.6310    1.3310   -0.1940 C   0  0  0  0  0  0  0  0  0  0  0  0
    6.2730    1.6210    0.0690 O   0  0  0  0  0  0  0  0  0  0  0  0
    5.2310    0.7410   -0.0240 C   0  0  0  0  0  0  0  0  0  0  0  0
    5.4900   -0.4590   -0.3740 O   0  0  0  0  0  0  0  0  0  0  0  0
    3.8410    1.0970    0.2570 C   0  0  0  0  0  0  0  0  0  0  0  0
    2.9290   -0.0180    0.0820 N   0  0  0  0  0  0  0  0  0  0  0  0
    1.5460    0.1930    0.3020 C   0  0  0  0  0  0  0  0  0  0  0  0
    1.1770    1.3440    0.6380 O   0  0  0  0  0  0  0  0  0  0  0  0
    0.5140   -0.8410    0.1620 C   0  0  1  0  0  0  0  0  0  0  0  0
    1.1090   -2.0760   -0.1160 O   0  0  0  0  0  0  0  0  0  0  0  0
   -0.2990   -0.9080    1.4180 C   0  0  0  0  0  0  0  0  0  0  0  0
   -1.5640   -0.0880    1.3740 C   0  0  0  0  0  0  0  0  0  0  0  0
   -2.5170   -0.6910    0.3660 C   0  0  1  0  0  0  0  0  0  0  0  0
   -3.3870   -1.7070    1.1130 C   0  0  0  0  0  0  0  0  0  0  0  0
   -3.4000    0.3360   -0.1830 C   0  0  0  0  0  0  0  0  0  0  0  0
   -3.4370    0.5990   -1.4040 O   0  0  0  0  0  0  0  0  0  0  0  0
   -4.2460    1.0610    0.6950 N   0  0  0  0  0  0  0  0  0  0  0  0
   -5.0990    2.0520    0.1440 N   0  0  0  0  0  0  0  0  0  0  0  0
   -4.2940    2.8440   -0.5970 O   0  0  0  0  0  0  0  0  0  0  0  0
   -1.6940   -1.3860   -0.6930 C   0  0  1  0  0  0  0  0  0  0  0  0
   -2.4200   -1.6540   -1.9020 N   0  0  0  0  0  0  0  0  0  0  0  0
   -0.4390   -0.5650   -0.9810 C   0  0  1  0  0  0  0  0  0  0  0  0
   -0.7380    0.7720   -1.1370 O   0  0  0  0  0  0  0  0  0  0  0  0
  1  2  1  0
  2  3  1  0
  3  4  2  0
  3  5  1  0
  5  6  1  0
  6  7  1  0
  7  8  2  0
  7  9  1  0
  9 10  1  6
  9 11  1  0
  9 22  1  0
 11 12  1  0
 12 13  1  0
 13 14  1  1
 13 15  1  0
 13 20  1  0
 15 16  2  0
 15 17  1  0
 17 18  1  0
 18 19  1  0
 20 21  1  6
 20 22  1  0
 22 23  1  1
M  CHG  1  21   1
M  END
