
     RDKit          3D

 23 23  0  0  0  0  0  0  0  0999 V2000
   -2.1310   -4.0030    0.8330 C   0  0  0  0  0  0  0  0  0  0  0  0
   -2.2370   -2.5470    0.7520 N   0  0  0  0  0  0  0  0  0  0  0  0
   -0.9750   -1.9520    0.3810 C   0  0  0  0  0  0  0  0  0  0  0  0
   -1.1660   -0.7430   -0.4900 C   0  0  2  0  0  0  0  0  0  0  0  0
   -1.8840   -1.2390   -1.6260 O   0  0  0  0  0  0  0  0  0  0  0  0
    0.1420   -0.2870   -1.0600 C   0  0  0  0  0  0  0  0  0  0  0  0
    0.2850   -0.2060   -2.3070 O   0  0  0  0  0  0  0  0  0  0  0  0
    1.2710    0.0700   -0.2870 N   0  0  0  0  0  0  0  0  0  0  0  0
    2.5270    0.5160   -0.9090 C   0  0  2  0  0  0  0  0  0  0  0  0
    3.6240   -0.4590   -0.5970 C   0  0  0  0  0  0  0  0  0  0  0  0
    3.8940   -0.6210    0.8680 C   0  0  0  0  0  0  0  0  0  0  0  0
    4.2710    0.5300    1.5080 O   0  0  0  0  0  0  0  0  0  0  0  0
    2.8390    1.9060   -0.5240 C   0  0  0  0  0  0  0  0  0  0  0  0
    4.0050    2.5630   -0.9990 N   0  0  0  0  0  0  0  0  0  0  0  0
    2.0500    2.5380    0.2520 O   0  0  0  0  0  0  0  0  0  0  0  0
   -1.9430    0.3180    0.1860 C   0  0  1  0  0  0  0  0  0  0  0  0
   -3.1760   -0.1990    0.6500 O   0  0  0  0  0  0  0  0  0  0  0  0
   -1.2800    0.9380    1.3840 C   0  0  0  0  0  0  0  0  0  0  0  0
   -2.2340    1.6920    2.1010 O   0  0  0  0  0  0  0  0  0  0  0  0
   -2.8350    2.5920    1.3330 N   0  0  0  0  0  0  0  0  0  0  0  0
   -2.2610    2.7650    0.0330 C   0  0  0  0  0  0  0  0  0  0  0  0
   -2.3170    1.4730   -0.7210 C   0  0  1  0  0  0  0  0  0  0  0  0
   -1.5630    1.5810   -1.8560 O   0  0  0  0  0  0  0  0  0  0  0  0
  1  2  1  0
  2  3  1  0
  3  4  1  0
  4  5  1  6
  4  6  1  0
  4 16  1  0
  6  7  2  0
  6  8  1  0
  8  9  1  0
  9 10  1  1
  9 13  1  0
 10 11  1  0
 11 12  1  0
 13 14  1  0
 13 15  2  0
 16 17  1  1
 16 18  1  0
 16 22  1  0
 18 19  1  0
 19 20  1  0
 20 21  1  0
 21 22  1  0
 22 23  1  6
M  CHG  1   2   1
M  END
