
     RDKit          3D

 27 28  0  0  0  0  0  0  0  0999 V2000
    0.2130    1.2390   -1.5170 C   0  0  0  0  0  0  0  0  0  0  0  0
    0.9360    1.4050   -0.1290 C   0  0  1  0  0  0  0  0  0  0  0  0
    0.2230    2.5150    0.5480 C   0  0  0  0  0  0  0  0  0  0  0  0
    0.7750    0.1480    0.6090 N   0  0  0  0  0  0  0  0  0  0  0  0
   -0.5150   -0.0410    1.2510 C   0  0  0  0  0  0  0  0  0  0  0  0
   -1.6270    0.0180    0.4560 C   0  0  0  0  0  0  0  0  0  0  0  0
   -2.8670    0.0610    1.0520 C   0  0  0  0  0  0  0  0  0  0  0  0
   -4.0640    0.1640    0.4190 C   0  0  0  0  0  0  0  0  0  0  0  0
   -5.2230    0.2820   -0.1960 C   0  0  0  0  0  0  0  0  0  0  0  0
   -6.5540    0.4330   -0.9280 C   0  0  2  0  0  0  0  0  0  0  0  0
   -7.5330    0.4160    0.2400 C   0  0  0  0  0  0  0  0  0  0  0  0
   -6.6000   -0.4990   -2.0130 C   0  0  0  0  0  0  0  0  0  0  0  0
   -6.4570    1.8880   -1.3930 C   0  0  0  0  0  0  0  0  0  0  0  0
   -2.5150   -0.0210    2.7340 S   0  0  0  0  0  0  0  0  0  0  0  0
   -0.7270   -0.0860    2.6450 C   0  0  0  0  0  0  0  0  0  0  0  0
    0.2100   -0.1270    3.7100 C   0  0  0  0  0  0  0  0  0  0  0  0
    1.3450   -0.0210    3.9380 O   0  0  0  0  0  0  0  0  0  0  0  0
   -0.5380   -0.4230    5.0080 O   0  0  0  0  0  0  0  0  0  0  0  0
    1.8110   -0.8080    0.7810 C   0  0  0  0  0  0  0  0  0  0  0  0
    1.9900   -1.6820    1.5130 O   0  0  0  0  0  0  0  0  0  0  0  0
    2.9470   -0.6240   -0.3170 C   0  0  1  0  0  0  0  0  0  0  0  0
    4.0720    0.1600    0.1960 C   0  0  0  0  0  0  0  0  0  0  0  0
    5.1960    0.0360   -0.8590 C   0  0  0  0  0  0  0  0  0  0  0  0
    5.7930   -1.3480   -0.5230 C   0  0  2  0  0  0  0  0  0  0  0  0
    7.0630   -1.6190   -1.2620 C   0  0  0  0  0  0  0  0  0  0  0  0
    4.7610   -2.4040   -0.5130 C   0  0  0  0  0  0  0  0  0  0  0  0
    3.3400   -1.9670   -0.8220 C   0  0  0  0  0  0  0  0  0  0  0  0
  2  1  1  6
  2  3  1  0
  2  4  1  0
  4  5  1  0
  4 19  1  0
  5  6  1  0
  5 15  2  0
  6  7  2  0
  7  8  1  0
  7 14  1  0
  8  9  3  0
  9 10  1  0
 10 11  1  1
 10 12  1  0
 10 13  1  0
 14 15  1  0
 15 16  1  0
 16 17  2  0
 16 18  1  0
 19 20  2  0
 21 19  1  1
 21 22  1  0
 21 27  1  0
 22 23  1  0
 23 24  1  0
 24 25  1  6
 24 26  1  0
 26 27  1  0
M  END
