
     RDKit          3D

 14 15  0  0  0  0  0  0  0  0999 V2000
   -2.7400    0.0330    2.1860 O   0  0  0  0  0  0  0  0  0  0  0  0
   -1.4180    0.0420    1.6230 C   0  0  0  0  0  0  0  0  0  0  0  0
   -1.5150   -0.1320    0.1710 C   0  0  0  0  0  0  0  0  0  0  0  0
   -2.8130   -0.2970   -0.3530 C   0  0  0  0  0  0  0  0  0  0  0  0
   -2.9420   -0.4620   -1.7150 C   0  0  0  0  0  0  0  0  0  0  0  0
   -1.8550   -0.4610   -2.4850 N   0  0  0  0  0  0  0  0  0  0  0  0
   -0.6560   -0.3100   -2.0150 N   0  0  0  0  0  0  0  0  0  0  0  0
   -0.4350   -0.1380   -0.6580 C   0  0  0  0  0  0  0  0  0  0  0  0
    0.9540    0.0040   -0.2540 C   0  0  0  0  0  0  0  0  0  0  0  0
    1.8530    0.0960   -1.2560 C   0  0  0  0  0  0  0  0  0  0  0  0
    3.2980    0.2440   -1.0630 C   0  0  0  0  0  0  0  0  0  0  0  0
    3.7030    0.2480    0.2810 O   0  0  0  0  0  0  0  0  0  0  0  0
    2.8060    0.1540    1.2930 C   0  0  0  0  0  0  0  0  0  0  0  0
    1.4770    0.0360    1.0760 C   0  0  0  0  0  0  0  0  0  0  0  0
  1  2  1  0
  2  3  1  0
  3  4  2  0
  3  8  1  0
  4  5  1  0
  5  6  2  0
  6  7  1  0
  7  8  2  0
  8  9  1  0
  9 10  2  0
  9 14  1  0
 10 11  1  0
 11 12  1  0
 12 13  1  0
 13 14  2  0
M  END
