
     RDKit          3D

 14 15  0  0  0  0  0  0  0  0999 V2000
    4.3290   -0.1740    0.2170 C   0  0  0  0  0  0  0  0  0  0  0  0
    2.8710   -0.5920    0.2390 C   0  0  0  0  0  0  0  0  0  0  0  0
    1.9970    0.5420   -0.1130 C   0  0  0  0  0  0  0  0  0  0  0  0
    0.6100    0.3290   -0.1410 N   0  0  0  0  0  0  0  0  0  0  0  0
   -0.2220    0.5250    1.0320 C   0  0  0  0  0  0  0  0  0  0  0  0
    0.1050    0.8920    2.1830 O   0  0  0  0  0  0  0  0  0  0  0  0
   -1.5940    0.2080    0.6420 C   0  0  0  0  0  0  0  0  0  0  0  0
   -2.7040   -0.0720    1.2570 C   0  0  0  0  0  0  0  0  0  0  0  0
   -3.9590   -0.3770    0.5670 C   0  0  0  0  0  0  0  0  0  0  0  0
   -3.9600   -0.3880   -0.7460 C   0  0  0  0  0  0  0  0  0  0  0  0
   -2.7480   -0.1180   -1.4580 N   0  0  0  0  0  0  0  0  0  0  0  0
   -1.6380    0.4480   -0.8310 C   0  0  2  0  0  0  0  0  0  0  0  0
   -0.2990   -0.0880   -1.1670 C   0  0  0  0  0  0  0  0  0  0  0  0
   -0.0230   -0.7600   -2.1410 O   0  0  0  0  0  0  0  0  0  0  0  0
  1  2  1  0
  2  3  1  0
  3  4  1  0
  4  5  1  0
  4 13  1  0
  5  6  2  0
  5  7  1  0
  7  8  2  0
  7 12  1  0
  8  9  1  0
  9 10  2  0
 10 11  1  0
 12 11  1  6
 12 13  1  0
 13 14  2  0
M  END
