
     RDKit          3D

 27 28  0  0  0  0  0  0  0  0999 V2000
    2.1650   -2.9510    1.3000 C   0  0  0  0  0  0  0  0  0  0  0  0
    0.9880   -2.0810    1.5720 N   0  0  1  0  0  0  0  0  0  0  0  0
    1.1760   -1.4640    2.8700 C   0  0  0  0  0  0  0  0  0  0  0  0
    0.7070   -1.2600    0.5420 N   0  0  0  0  0  0  0  0  0  0  0  0
   -0.6310   -1.2010   -0.0850 C   0  0  0  0  0  0  0  0  0  0  0  0
   -1.5780   -0.2090    0.2270 C   0  0  0  0  0  0  0  0  0  0  0  0
   -2.6880   -0.1620   -0.2900 C   0  0  0  0  0  0  0  0  0  0  0  0
   -3.9390    0.4480   -0.3240 C   0  0  0  0  0  0  0  0  0  0  0  0
   -5.1010    1.0190   -0.3500 C   0  0  0  0  0  0  0  0  0  0  0  0
   -6.3670    1.6610   -0.3640 C   0  0  1  0  0  0  0  0  0  0  0  0
   -6.4290    3.0910   -0.6610 C   0  0  0  0  0  0  0  0  0  0  0  0
   -7.5700    0.8140   -0.2750 C   0  0  0  0  0  0  0  0  0  0  0  0
   -6.2580    1.9530    1.3800 C   0  0  0  0  0  0  0  0  0  0  0  0
   -2.7130   -1.6900   -1.5490 S   0  0  0  0  0  0  0  0  0  0  0  0
   -0.9400   -2.1270   -0.9820 C   0  0  0  0  0  0  0  0  0  0  0  0
   -0.3620   -3.3160   -1.5110 C   0  0  0  0  0  0  0  0  0  0  0  0
   -1.1500   -3.8550   -2.4830 O   0  0  0  0  0  0  0  0  0  0  0  0
    0.7190   -4.0050   -1.2850 O   0  0  0  0  0  0  0  0  0  0  0  0
    1.6480   -0.4780   -0.1660 C   0  0  0  0  0  0  0  0  0  0  0  0
    1.3730   -0.0270   -1.3590 O   0  0  0  0  0  0  0  0  0  0  0  0
    3.0170   -0.0590    0.2960 C   0  0  1  0  0  0  0  0  0  0  0  0
    4.1280   -0.6300   -0.5240 C   0  0  0  0  0  0  0  0  0  0  0  0
    4.7820    0.2540   -1.5250 C   0  0  0  0  0  0  0  0  0  0  0  0
    5.0950    1.5900   -0.8730 C   0  0  2  0  0  0  0  0  0  0  0  0
    5.9340    1.4100    0.3530 C   0  0  0  0  0  0  0  0  0  0  0  0
    3.7570    2.2190   -0.5500 C   0  0  0  0  0  0  0  0  0  0  0  0
    3.0050    1.4230    0.4860 C   0  0  0  0  0  0  0  0  0  0  0  0
  2  1  1  6
  2  3  1  0
  2  4  1  0
  4  5  1  0
  4 19  1  0
  5  6  1  0
  5 15  2  0
  6  7  2  0
  7  8  1  0
  7 14  1  0
  8  9  3  0
  9 10  1  0
 10 11  1  6
 10 12  1  0
 10 13  1  0
 14 15  1  0
 15 16  1  0
 16 17  2  0
 16 18  1  0
 19 20  2  0
 21 19  1  6
 21 22  1  0
 21 27  1  0
 22 23  1  0
 23 24  1  0
 24 25  1  1
 24 26  1  0
 26 27  1  0
M  CHG  1   2   1
M  END
