
     RDKit          3D

 18 18  0  0  0  0  0  0  0  0999 V2000
    5.5650    1.8100    0.6980 C   0  0  0  0  0  0  0  0  0  0  0  0
    4.2750    1.2380    0.5970 O   0  0  0  0  0  0  0  0  0  0  0  0
    3.7030    0.8570   -0.6080 C   0  0  0  0  0  0  0  0  0  0  0  0
    4.3780    1.0360   -1.6520 O   0  0  0  0  0  0  0  0  0  0  0  0
    2.3430    0.2680   -0.5880 C   0  0  0  0  0  0  0  0  0  0  0  0
    1.7840   -0.1590   -2.2600 S   0  0  0  0  0  0  0  0  0  0  0  0
    0.1400   -0.8590   -2.1160 C   0  0  0  0  0  0  0  0  0  0  0  0
   -0.4590   -1.2330   -3.1540 O   0  0  0  0  0  0  0  0  0  0  0  0
   -0.5130   -1.0050   -0.8610 N   0  0  0  0  0  0  0  0  0  0  0  0
   -1.8120   -1.5560   -0.7240 C   0  0  0  0  0  0  0  0  0  0  0  0
   -2.3970   -1.9260   -1.7830 O   0  0  0  0  0  0  0  0  0  0  0  0
   -2.4740   -1.6990    0.5970 C   0  0  1  0  0  0  0  0  0  0  0  0
   -1.5930   -1.2100    1.5610 O   0  0  0  0  0  0  0  0  0  0  0  0
   -1.6640    0.0930    1.4140 O   0  0  0  0  0  0  0  0  0  0  0  0
   -3.0070    0.4370    1.4040 C   0  0  1  0  0  0  0  0  0  0  0  0
   -3.1350    1.5840    0.6270 O   0  0  0  0  0  0  0  0  0  0  0  0
   -3.6490   -0.7640    0.7570 C   0  0  1  0  0  0  0  0  0  0  0  0
   -4.2640   -0.4640   -0.4450 O   0  0  0  0  0  0  0  0  0  0  0  0
  1  2  1  0
  2  3  1  0
  3  4  2  0
  3  5  1  0
  5  6  1  0
  6  7  1  0
  7  8  2  0
  7  9  1  0
  9 10  1  0
 10 11  2  0
 12 10  1  6
 12 13  1  0
 12 17  1  0
 13 14  1  0
 14 15  1  0
 15 16  1  6
 15 17  1  0
 17 18  1  6
M  END
