
     RDKit          3D

 14 15  0  0  0  0  0  0  0  0999 V2000
   -1.0400   -2.0280    1.3820 O   0  0  0  0  0  0  0  0  0  0  0  0
   -1.5980   -1.0660    0.7940 C   0  0  0  0  0  0  0  0  0  0  0  0
   -2.8180   -1.2860    0.1680 C   0  0  0  0  0  0  0  0  0  0  0  0
   -3.4780   -0.2630   -0.4940 C   0  0  0  0  0  0  0  0  0  0  0  0
   -2.8750    0.9430   -0.4970 N   0  0  0  0  0  0  0  0  0  0  0  0
   -1.6800    1.1500    0.1180 C   0  0  0  0  0  0  0  0  0  0  0  0
   -1.1590    2.2930    0.0880 O   0  0  0  0  0  0  0  0  0  0  0  0
   -1.0380    0.1570    0.7620 N   0  0  0  0  0  0  0  0  0  0  0  0
    0.2270    0.4030    1.4070 C   0  0  0  0  0  0  0  0  0  0  0  0
    1.3780    0.1690    0.4950 C   0  0  0  0  0  0  0  0  0  0  0  0
    1.3700   -0.2180   -0.7680 C   0  0  0  0  0  0  0  0  0  0  0  0
    2.7480   -0.3110   -1.2440 C   0  0  0  0  0  0  0  0  0  0  0  0
    3.5690    0.0790   -0.0770 C   0  0  0  0  0  0  0  0  0  0  0  0
    2.7580    0.3510    0.9150 C   0  0  0  0  0  0  0  0  0  0  0  0
  1  2  2  0
  2  3  1  0
  2  8  1  0
  3  4  2  0
  4  5  1  0
  5  6  1  0
  6  7  2  0
  6  8  1  0
  8  9  1  0
  9 10  1  0
 10 11  2  0
 10 14  1  0
 11 12  1  0
 12 13  1  0
 13 14  2  0
M  END
