
     RDKit          3D

 14 15  0  0  0  0  0  0  0  0999 V2000
   -2.4400   -1.0560   -1.4650 C   0  0  0  0  0  0  0  0  0  0  0  0
   -2.3900   -0.1080   -0.5360 C   0  0  0  0  0  0  0  0  0  0  0  0
   -3.3630    0.9500   -0.2920 C   0  0  0  0  0  0  0  0  0  0  0  0
   -2.8290    1.7200    0.8450 C   0  0  0  0  0  0  0  0  0  0  0  0
   -1.6900    1.1810    1.2170 C   0  0  0  0  0  0  0  0  0  0  0  0
   -1.3440    0.0510    0.4220 N   0  0  0  0  0  0  0  0  0  0  0  0
   -0.1850   -0.7440    0.5700 C   0  0  0  0  0  0  0  0  0  0  0  0
   -0.2180   -2.0750    0.2410 O   0  0  0  0  0  0  0  0  0  0  0  0
    0.8730   -0.2160    1.0060 N   0  0  0  0  0  0  0  0  0  0  0  0
    2.1120   -0.8080    1.2270 C   0  0  0  0  0  0  0  0  0  0  0  0
    2.3150   -1.6610    2.1170 O   0  0  0  0  0  0  0  0  0  0  0  0
    3.2460   -0.4060    0.3630 C   0  0  2  0  0  0  0  0  0  0  0  0
    3.2310    0.9790   -0.1700 C   0  0  0  0  0  0  0  0  0  0  0  0
    2.9050   -0.1040   -1.1210 C   0  0  0  0  0  0  0  0  0  0  0  0
  1  2  2  0
  2  3  1  0
  2  6  1  0
  3  4  1  0
  4  5  2  0
  5  6  1  0
  6  7  1  0
  7  8  1  0
  7  9  2  3
  9 10  1  0
 10 11  2  0
 12 10  1  1
 12 13  1  0
 12 14  1  0
 13 14  1  0
M  END
