
     RDKit          3D

 18 18  0  0  0  0  0  0  0  0999 V2000
   -2.4540   -2.1320    0.0420 C   0  0  0  0  0  0  0  0  0  0  0  0
   -2.0380   -0.6980    0.1100 C   0  0  1  0  0  0  0  0  0  0  0  0
   -1.1230   -0.2930   -1.0340 C   0  0  2  0  0  0  0  0  0  0  0  0
   -1.7120   -0.5100   -2.2620 O   0  0  0  0  0  0  0  0  0  0  0  0
    0.1410   -1.1200   -0.9320 C   0  0  0  0  0  0  0  0  0  0  0  0
    1.0100   -0.7760   -1.9320 O   0  0  0  0  0  0  0  0  0  0  0  0
    1.4370    0.5240   -1.9750 C   0  0  0  0  0  0  0  0  0  0  0  0
    2.1880    0.9530   -0.7850 C   0  0  0  0  0  0  0  0  0  0  0  0
    2.6020    2.1530   -0.6760 O   0  0  0  0  0  0  0  0  0  0  0  0
    2.4920    0.1220    0.2620 O   0  0  0  0  0  0  0  0  0  0  0  0
    3.3540    0.5800    1.6430 S   0  0  1  0  0  0  0  0  0  0  0  0
    4.6800    1.6000    1.3080 N   0  0  0  0  0  0  0  0  0  0  0  0
    2.4660    1.2890    2.6510 O   0  0  0  0  0  0  0  0  0  0  0  0
    3.8160   -0.6910    2.3340 O   0  0  0  0  0  0  0  0  0  0  0  0
   -3.2250    0.2330    0.1780 C   0  0  0  0  0  0  0  0  0  0  0  0
   -3.0020    0.9770    1.3440 O   0  0  0  0  0  0  0  0  0  0  0  0
   -1.6290    0.8880    1.6000 C   0  0  0  0  0  0  0  0  0  0  0  0
   -1.3410   -0.4350    1.2980 O   0  0  0  0  0  0  0  0  0  0  0  0
  2  1  1  6
  2  3  1  0
  2 15  1  0
  2 18  1  0
  3  4  1  6
  3  5  1  0
  5  6  1  0
  6  7  1  0
  7  8  1  0
  8  9  2  0
  8 10  1  0
 10 11  1  0
 11 12  1  6
 11 13  2  0
 11 14  2  0
 15 16  1  0
 16 17  1  0
 17 18  1  0
M  END
