
     RDKit          3D

 14 15  0  0  0  0  0  0  0  0999 V2000
   -1.2760   -2.1910   -0.2900 C   0  0  0  0  0  0  0  0  0  0  0  0
   -1.3840   -0.8250    0.0950 N   0  0  0  0  0  0  0  0  0  0  0  0
   -2.5370   -0.2110    0.7390 C   0  0  0  0  0  0  0  0  0  0  0  0
   -2.6850    1.0090   -0.1820 C   0  0  0  0  0  0  0  0  0  0  0  0
   -1.2640    1.4900   -0.3070 C   0  0  0  0  0  0  0  0  0  0  0  0
   -0.4580    0.2420   -0.0590 C   0  0  0  0  0  0  0  0  0  0  0  0
    0.8450    0.2100    0.0110 C   0  0  0  0  0  0  0  0  0  0  0  0
    1.5840   -1.0030    0.2780 C   0  0  0  0  0  0  0  0  0  0  0  0
    2.9010   -0.9690    0.3140 C   0  0  0  0  0  0  0  0  0  0  0  0
    3.6960    0.2270    0.1010 C   0  0  0  0  0  0  0  0  0  0  0  0
    4.9670    0.2120    0.1450 O   0  0  0  0  0  0  0  0  0  0  0  0
    3.0280    1.4420   -0.1650 N   0  0  0  0  0  0  0  0  0  0  0  0
    1.6030    1.4430   -0.2110 C   0  0  0  0  0  0  0  0  0  0  0  0
    1.0720    2.5550   -0.4520 O   0  0  0  0  0  0  0  0  0  0  0  0
  1  2  1  0
  2  3  1  0
  2  6  1  0
  3  4  1  0
  4  5  1  0
  5  6  1  0
  6  7  2  3
  7  8  1  0
  7 13  1  0
  8  9  2  0
  9 10  1  0
 10 11  2  0
 10 12  1  0
 12 13  1  0
 13 14  2  0
M  END
