
     RDKit          3D

 23 24  0  0  0  0  0  0  0  0999 V2000
    0.0950   -0.7000   -0.8980 O   0  0  0  0  0  0  0  0  0  0  0  0
   -0.6960   -0.1690   -0.0750 C   0  0  0  0  0  0  0  0  0  0  0  0
   -0.1710    0.8940    0.8120 C   0  0  0  0  0  0  0  0  0  0  0  0
    1.2390    1.2270    0.4520 C   0  0  0  0  0  0  0  0  0  0  0  0
    2.0800    0.1160    0.5460 O   0  0  0  0  0  0  0  0  0  0  0  0
    3.4320    0.2330    0.2460 C   0  0  0  0  0  0  0  0  0  0  0  0
    3.9170    1.4850   -0.1360 C   0  0  0  0  0  0  0  0  0  0  0  0
    5.2570    1.6020   -0.4370 C   0  0  0  0  0  0  0  0  0  0  0  0
    6.1220    0.5240   -0.3690 C   0  0  0  0  0  0  0  0  0  0  0  0
    5.6660   -0.7060    0.0020 C   0  0  0  0  0  0  0  0  0  0  0  0
    4.3080   -0.8330    0.3080 C   0  0  0  0  0  0  0  0  0  0  0  0
    3.8690   -2.0930    0.6830 O   0  0  0  0  0  0  0  0  0  0  0  0
   -2.0360   -0.6220   -0.0500 N   0  0  0  0  0  0  0  0  0  0  0  0
   -3.0150   -0.1710    0.7180 N   0  0  0  0  0  0  0  0  0  0  0  0
   -4.1730   -0.8460    0.4720 C   0  0  0  0  0  0  0  0  0  0  0  0
   -5.4370   -0.5500    1.1800 C   0  0  2  0  0  0  0  0  0  0  0  0
   -5.2090   -0.2380    2.4920 F   0  0  0  0  0  0  0  0  0  0  0  0
   -6.5150   -1.9520    1.1100 Cl  0  0  0  0  0  0  0  0  0  0  0  0
   -6.0460    0.6560    0.4570 C   0  0  0  0  0  0  0  0  0  0  0  0
   -5.1230    1.7070    0.5510 F   0  0  0  0  0  0  0  0  0  0  0  0
   -3.8930   -1.7470   -0.4830 N   0  0  0  0  0  0  0  0  0  0  0  0
   -2.5870   -1.5970   -0.7910 C   0  0  0  0  0  0  0  0  0  0  0  0
   -1.9650   -2.3580   -1.7240 F   0  0  0  0  0  0  0  0  0  0  0  0
  1  2  2  0
  2  3  1  0
  2 13  1  0
  3  4  1  0
  4  5  1  0
  5  6  1  0
  6  7  2  0
  6 11  1  0
  7  8  1  0
  8  9  2  0
  9 10  1  0
 10 11  2  0
 11 12  1  0
 13 14  1  0
 13 22  1  0
 14 15  2  0
 15 16  1  0
 15 21  1  0
 16 17  1  1
 16 18  1  0
 16 19  1  0
 19 20  1  0
 21 22  2  0
 22 23  1  0
M  CHG  1  21   1
M  END
