
     RDKit          3D

 22 23  0  0  0  0  0  0  0  0999 V2000
    4.6880    0.5910    0.6760 C   0  0  0  0  0  0  0  0  0  0  0  0
    3.1770    0.5020    0.9600 C   0  0  0  0  0  0  0  0  0  0  0  0
    2.7820   -0.6800    1.3750 C   0  0  0  0  0  0  0  0  0  0  0  0
    3.6970   -1.6710    1.5110 F   0  0  0  0  0  0  0  0  0  0  0  0
    1.3740   -1.0710    1.7070 C   0  0  2  0  0  0  0  0  0  0  0  0
    0.7250   -0.0310    2.3620 F   0  0  0  0  0  0  0  0  0  0  0  0
    1.5180   -2.3210    3.0100 Cl  0  0  0  0  0  0  0  0  0  0  0  0
    0.6670   -1.4900    0.6020 N   0  0  0  0  0  0  0  0  0  0  0  0
    0.2760   -2.1050   -0.3490 C   0  0  0  0  0  0  0  0  0  0  0  0
    0.9430   -3.3120   -0.7200 F   0  0  0  0  0  0  0  0  0  0  0  0
   -0.8170   -1.7340   -1.2260 N   0  0  0  0  0  0  0  0  0  0  0  0
   -1.9270   -0.8870   -0.9690 C   0  0  0  0  0  0  0  0  0  0  0  0
   -3.2100   -1.3540   -1.2960 C   0  0  0  0  0  0  0  0  0  0  0  0
   -4.3680   -0.6630   -1.0980 C   0  0  0  0  0  0  0  0  0  0  0  0
   -4.3020    0.5850   -0.5380 C   0  0  0  0  0  0  0  0  0  0  0  0
   -3.0620    1.0720   -0.2080 C   0  0  0  0  0  0  0  0  0  0  0  0
   -3.0180    2.3680    0.3750 O   0  0  0  0  0  0  0  0  0  0  0  0
   -1.8510    0.3840   -0.4020 C   0  0  0  0  0  0  0  0  0  0  0  0
   -0.6660    0.9610   -0.0400 O   0  0  0  0  0  0  0  0  0  0  0  0
    0.4900    1.3320   -0.7470 C   0  0  0  0  0  0  0  0  0  0  0  0
    1.4280    2.0420    0.1700 C   0  0  0  0  0  0  0  0  0  0  0  0
    2.4190    1.6440    0.7710 N   0  0  0  0  0  0  0  0  0  0  0  0
  1  2  1  0
  2  3  2  0
  2 22  1  0
  3  4  1  0
  3  5  1  0
  5  6  1  1
  5  7  1  0
  5  8  1  0
  8  9  2  0
  9 10  1  0
  9 11  1  0
 11 12  1  0
 12 13  2  0
 12 18  1  0
 13 14  1  0
 14 15  2  0
 15 16  1  0
 16 17  1  0
 16 18  2  0
 18 19  1  0
 19 20  1  0
 20 21  1  0
 21 22  2  0
M  END
