
     RDKit          3D

 23 23  0  0  0  0  0  0  0  0999 V2000
   -2.8190   -1.7520   -1.8780 C   0  0  0  0  0  0  0  0  0  0  0  0
   -2.0350   -0.5970   -1.8370 O   0  0  0  0  0  0  0  0  0  0  0  0
   -1.7470   -0.2880   -0.6280 O   0  0  0  0  0  0  0  0  0  0  0  0
   -0.7390   -0.9890   -0.0570 C   0  0  1  0  0  0  0  0  0  0  0  0
   -1.0580   -2.3770   -0.0770 O   0  0  0  0  0  0  0  0  0  0  0  0
    0.5890   -0.8350   -0.6580 C   0  0  0  0  0  0  0  0  0  0  0  0
    0.7720   -0.9000   -1.9540 C   0  0  0  0  0  0  0  0  0  0  0  0
    2.1230   -0.7390   -2.4920 C   0  0  0  0  0  0  0  0  0  0  0  0
    2.3500   -0.7960   -3.7820 C   0  0  0  0  0  0  0  0  0  0  0  0
    3.7050   -0.6360   -4.3490 C   0  0  0  0  0  0  0  0  0  0  0  0
    4.8290   -0.3720   -2.9850 Cl  0  0  0  0  0  0  0  0  0  0  0  0
    1.7070   -0.6330    0.1780 N   0  0  0  0  0  0  0  0  0  0  0  0
    1.6300   -0.0380    1.2680 N   0  0  0  0  0  0  0  0  0  0  0  0
    0.3040    0.4720    1.6830 C   0  0  2  0  0  0  0  0  0  0  0  0
   -0.0180    1.6850    0.8330 C   0  0  0  0  0  0  0  0  0  0  0  0
    0.4030    0.7370    3.1160 C   0  0  0  0  0  0  0  0  0  0  0  0
   -0.3500    1.4960    3.8470 C   0  0  0  0  0  0  0  0  0  0  0  0
   -1.4920    2.2810    3.4360 C   0  0  0  0  0  0  0  0  0  0  0  0
   -2.1480    3.0050    4.3120 N   0  0  0  0  0  0  0  0  0  0  0  0
   -3.2160    3.7520    3.9770 F   0  0  0  0  0  0  0  0  0  0  0  0
   -0.6870   -0.6090    1.4300 C   0  0  1  0  0  0  0  0  0  0  0  0
   -1.9240   -0.2570    1.8580 F   0  0  0  0  0  0  0  0  0  0  0  0
   -0.2760   -1.7290    2.1420 F   0  0  0  0  0  0  0  0  0  0  0  0
  1  2  1  0
  2  3  1  0
  3  4  1  0
  4  5  1  1
  4  6  1  0
  4 21  1  0
  6  7  2  3
  6 12  1  0
  7  8  1  0
  8  9  2  3
  9 10  1  0
 10 11  1  0
 12 13  2  0
 13 14  1  0
 14 15  1  6
 14 16  1  0
 14 21  1  0
 16 17  2  3
 17 18  1  0
 18 19  2  3
 19 20  1  0
 21 22  1  1
 21 23  1  0
M  CHG  1  19   1
M  END
