
     RDKit          3D

 23 23  0  0  0  0  0  0  0  0999 V2000
    4.1360    1.0570    1.0730 C   0  0  0  0  0  0  0  0  0  0  0  0
    2.7760    0.9210    0.6540 O   0  0  0  0  0  0  0  0  0  0  0  0
    1.9050    0.1680    1.4050 C   0  0  0  0  0  0  0  0  0  0  0  0
    2.3310   -0.3720    2.4290 O   0  0  0  0  0  0  0  0  0  0  0  0
    0.4910    0.0520    0.9290 C   0  0  0  0  0  0  0  0  0  0  0  0
   -0.2620   -0.6830    1.6790 C   0  0  0  0  0  0  0  0  0  0  0  0
   -1.6540   -1.0490    1.5830 C   0  0  0  0  0  0  0  0  0  0  0  0
   -2.1460   -1.8420    2.5560 C   0  0  0  0  0  0  0  0  0  0  0  0
   -3.4580   -2.2610    2.5790 O   0  0  0  0  0  0  0  0  0  0  0  0
   -4.3890   -1.9200    1.5990 C   0  0  0  0  0  0  0  0  0  0  0  0
   -3.8320   -1.0590    0.5490 C   0  0  0  0  0  0  0  0  0  0  0  0
   -2.5770   -0.6680    0.5550 C   0  0  0  0  0  0  0  0  0  0  0  0
    0.2070    0.7760   -0.2420 N   0  0  0  0  0  0  0  0  0  0  0  0
   -0.4940    2.0340   -0.2430 C   0  0  0  0  0  0  0  0  0  0  0  0
    0.6680    0.3160   -1.5600 C   0  0  0  0  0  0  0  0  0  0  0  0
    1.7480    0.7580   -1.9930 N   0  0  0  0  0  0  0  0  0  0  0  0
    2.6350    0.7550   -2.9850 C   0  0  0  0  0  0  0  0  0  0  0  0
    3.4760    1.7430   -3.2560 N   0  0  0  0  0  0  0  0  0  0  0  0
    3.5210    2.8680   -2.5450 F   0  0  0  0  0  0  0  0  0  0  0  0
   -0.1760   -0.6400   -2.3180 C   0  0  1  0  0  0  0  0  0  0  0  0
   -0.4260   -1.7600   -1.5110 F   0  0  0  0  0  0  0  0  0  0  0  0
   -1.3730   -0.0550   -2.7460 F   0  0  0  0  0  0  0  0  0  0  0  0
    0.6170   -1.2250   -3.7940 Cl  0  0  0  0  0  0  0  0  0  0  0  0
  1  2  1  0
  2  3  1  0
  3  4  2  0
  3  5  1  0
  5  6  2  3
  5 13  1  0
  6  7  1  0
  7  8  2  0
  7 12  1  0
  8  9  1  0
  9 10  1  0
 10 11  1  0
 11 12  2  0
 13 14  1  0
 13 15  1  0
 15 16  2  3
 15 20  1  0
 16 17  1  0
 17 18  2  3
 18 19  1  0
 20 21  1  1
 20 22  1  0
 20 23  1  0
M  END
