
     RDKit          3D

 24 24  0  0  0  0  0  0  0  0999 V2000
    7.3600    1.0630   -0.3080 C   0  0  0  0  0  0  0  0  0  0  0  0
    6.2110    1.5660    0.0770 C   0  0  0  0  0  0  0  0  0  0  0  0
    5.1600    0.7920    0.5410 O   0  0  0  0  0  0  0  0  0  0  0  0
    4.1740    0.2730   -0.3170 C   0  0  0  0  0  0  0  0  0  0  0  0
    4.2970    0.5490   -1.5250 O   0  0  0  0  0  0  0  0  0  0  0  0
    3.1290   -0.4980    0.1510 O   0  0  0  0  0  0  0  0  0  0  0  0
    2.1670   -0.9910   -0.7730 C   0  0  0  0  0  0  0  0  0  0  0  0
    1.1060   -1.8080   -0.0880 C   0  0  2  0  0  0  0  0  0  0  0  0
    0.1750   -2.2680   -1.0980 N   0  0  0  0  0  0  0  0  0  0  0  0
   -0.7540   -1.2710   -1.3140 N   0  0  0  0  0  0  0  0  0  0  0  0
   -0.7880   -0.4670   -0.2710 C   0  0  0  0  0  0  0  0  0  0  0  0
   -1.6860    0.7040   -0.1990 C   0  0  0  0  0  0  0  0  0  0  0  0
   -2.6940    0.6490    0.8080 N   0  0  0  0  0  0  0  0  0  0  0  0
   -3.8030    1.5090    0.4530 C   0  0  0  0  0  0  0  0  0  0  0  0
   -3.7720    2.9220    0.7940 C   0  0  0  0  0  0  0  0  0  0  0  0
   -2.7770    3.3970    1.3980 O   0  0  0  0  0  0  0  0  0  0  0  0
   -4.8540    1.0300   -0.1810 C   0  0  0  0  0  0  0  0  0  0  0  0
   -4.9440   -0.4140   -0.5570 C   0  0  0  0  0  0  0  0  0  0  0  0
   -5.8820    1.8300   -0.5090 F   0  0  0  0  0  0  0  0  0  0  0  0
    0.1740   -0.9280    0.7420 C   0  0  1  0  0  0  0  0  0  0  0  0
   -0.4520   -1.8660    1.7500 C   0  0  2  0  0  0  0  0  0  0  0  0
   -1.3280   -1.2520    2.6090 F   0  0  0  0  0  0  0  0  0  0  0  0
    0.5350   -2.4590    2.5280 F   0  0  0  0  0  0  0  0  0  0  0  0
   -1.3220   -3.1900    0.9230 Cl  0  0  0  0  0  0  0  0  0  0  0  0
  1  2  2  0
  2  3  1  0
  3  4  1  0
  4  5  2  0
  4  6  1  0
  6  7  1  0
  8  7  1  6
  8  9  1  0
  8 20  1  0
  9 10  1  0
 10 11  2  0
 11 12  1  0
 20 11  1  6
 12 13  1  0
 13 14  1  0
 14 15  1  0
 14 17  2  3
 15 16  2  0
 17 18  1  0
 17 19  1  0
 20 21  1  0
 21 22  1  1
 21 23  1  0
 21 24  1  0
M  CHG  1  13   1
M  END
