
     RDKit          3D

 20 21  0  0  0  0  0  0  0  0999 V2000
   -2.7670    1.4100   -1.2430 N   0  0  0  0  0  0  0  0  0  0  0  0
   -2.8540    0.2190   -0.3810 C   0  0  2  0  0  0  0  0  0  0  0  0
   -4.2870    0.3060    0.1980 C   0  0  0  0  0  0  0  0  0  0  0  0
   -4.4290   -0.8060    1.0300 O   0  0  0  0  0  0  0  0  0  0  0  0
   -1.9410    0.3520    0.7810 C   0  0  0  0  0  0  0  0  0  0  0  0
   -0.4960    0.5120    0.5250 C   0  0  2  0  0  0  0  0  0  0  0  0
   -0.2920    1.6470   -0.2430 O   0  0  0  0  0  0  0  0  0  0  0  0
    0.3370   -0.6310    0.1500 C   0  0  1  0  0  0  0  0  0  0  0  0
    0.0240   -1.8370    0.9490 N   0  0  0  0  0  0  0  0  0  0  0  0
    0.1920   -1.0330   -1.2830 C   0  0  0  0  0  0  0  0  0  0  0  0
    1.3540   -1.7430   -1.8920 C   0  0  0  0  0  0  0  0  0  0  0  0
    2.4910   -2.0790   -1.0290 C   0  0  0  0  0  0  0  0  0  0  0  0
    2.4210   -1.6810    0.2790 O   0  0  0  0  0  0  0  0  0  0  0  0
    1.8120   -0.4290    0.4520 C   0  0  1  0  0  0  0  0  0  0  0  0
    2.5440    0.6110   -0.2760 C   0  0  2  0  0  0  0  0  0  0  0  0
    3.9090    0.6330    0.1680 O   0  0  0  0  0  0  0  0  0  0  0  0
    3.8960    1.4260    1.3110 C   0  0  0  0  0  0  0  0  0  0  0  0
    2.7750    2.3750    1.0810 C   0  0  0  0  0  0  0  0  0  0  0  0
    2.5150    3.3390    1.8440 O   0  0  0  0  0  0  0  0  0  0  0  0
    2.1640    1.9470   -0.0810 O   0  0  0  0  0  0  0  0  0  0  0  0
  2  1  1  6
  2  3  1  0
  2  5  1  0
  3  4  1  0
  5  6  1  0
  6  7  1  6
  6  8  1  0
  8  9  1  1
  8 10  1  0
  8 14  1  0
 10 11  1  0
 11 12  1  0
 12 13  1  0
 14 13  1  6
 14 15  1  0
 15 16  1  1
 15 20  1  0
 16 17  1  0
 17 18  1  0
 18 19  2  0
 18 20  1  0
M  CHG  2   1   1   9   1
M  END
