
     RDKit          3D

 28 31  0  0  0  0  0  0  0  0999 V2000
    6.6470   -0.7330   -1.1920 O   0  0  0  0  0  0  0  0  0  0  0  0
    6.1790   -0.3180   -0.1270 C   0  0  0  0  0  0  0  0  0  0  0  0
    4.7590   -0.2190   -0.0080 N   0  0  0  0  0  0  0  0  0  0  0  0
    3.9330   -0.5990   -1.1130 C   0  0  0  0  0  0  0  0  0  0  0  0
    2.5160   -0.4040   -0.7350 C   0  0  0  0  0  0  0  0  0  0  0  0
    1.8770    0.0190    0.3600 C   0  0  0  0  0  0  0  0  0  0  0  0
    0.5570    0.0530    0.3040 N   0  0  0  0  0  0  0  0  0  0  0  0
   -0.1210   -0.2290   -0.5520 C   0  0  0  0  0  0  0  0  0  0  0  0
   -1.5310   -0.2970   -0.8970 N   0  0  0  0  0  0  0  0  0  0  0  0
   -2.5090    0.0890    0.0560 C   0  0  0  0  0  0  0  0  0  0  0  0
   -2.0460    0.4760    1.1770 O   0  0  0  0  0  0  0  0  0  0  0  0
   -3.9300    0.0520   -0.2070 C   0  0  0  0  0  0  0  0  0  0  0  0
   -4.4910   -0.3550   -1.3940 C   0  0  0  0  0  0  0  0  0  0  0  0
   -5.8580   -0.3750   -1.6030 C   0  0  0  0  0  0  0  0  0  0  0  0
   -6.3370   -0.7970   -2.8210 O   0  0  0  0  0  0  0  0  0  0  0  0
   -6.6990    0.0330   -0.5730 C   0  0  0  0  0  0  0  0  0  0  0  0
   -6.1530    0.4460    0.6290 C   0  0  0  0  0  0  0  0  0  0  0  0
   -4.7840    0.4510    0.7980 C   0  0  0  0  0  0  0  0  0  0  0  0
   -7.2570    0.8230    1.5440 C   0  0  0  0  0  0  0  0  0  0  0  0
   -8.3590    1.1920    0.5670 C   0  0  0  0  0  0  0  0  0  0  0  0
   -8.1720    0.1160   -0.5100 C   0  0  0  0  0  0  0  0  0  0  0  0
    1.1320   -0.7550   -1.8590 S   0  0  0  0  0  0  0  0  0  0  0  0
    7.0360    0.0440    0.9340 N   0  0  0  0  0  0  0  0  0  0  0  0
    8.4260   -0.0230    0.8960 N   0  0  0  0  0  0  0  0  0  0  0  0
    9.2110   -0.4200   -0.0880 C   0  0  0  0  0  0  0  0  0  0  0  0
   10.5390   -0.3180    0.3230 C   0  0  0  0  0  0  0  0  0  0  0  0
   10.5200    0.1490    1.5740 N   0  0  0  0  0  0  0  0  0  0  0  0
    9.2310    0.3290    1.9250 C   0  0  0  0  0  0  0  0  0  0  0  0
  1  2  2  0
  2  3  1  0
  2 23  1  0
  3  4  1  0
  4  5  1  0
  5  6  2  0
  5 22  1  0
  6  7  1  0
  7  8  2  0
  8  9  1  0
  8 22  1  0
  9 10  1  0
 10 11  2  0
 10 12  1  0
 12 13  2  0
 12 18  1  0
 13 14  1  0
 14 15  1  0
 14 16  2  0
 16 17  1  0
 16 21  1  0
 17 18  2  0
 17 19  1  0
 19 20  1  0
 20 21  1  0
 23 24  1  0
 24 25  1  0
 24 28  1  0
 25 26  2  0
 26 27  1  0
 27 28  2  0
M  END
