
     RDKit          3D

 28 31  0  0  0  0  0  0  0  0999 V2000
    8.7490    1.6100   -1.9150 C   0  0  0  0  0  0  0  0  0  0  0  0
    8.1920    0.4180   -1.2900 N   0  0  0  0  0  0  0  0  0  0  0  0
    6.9330    0.3690   -0.7630 C   0  0  0  0  0  0  0  0  0  0  0  0
    6.6870   -0.8750   -0.2470 C   0  0  0  0  0  0  0  0  0  0  0  0
    5.5780   -1.4530    0.3960 N   0  0  0  0  0  0  0  0  0  0  0  0
    4.3790   -0.7330    0.6330 C   0  0  0  0  0  0  0  0  0  0  0  0
    4.3200    0.4610    0.2500 O   0  0  0  0  0  0  0  0  0  0  0  0
    3.2600   -1.3100    1.2800 N   0  0  0  0  0  0  0  0  0  0  0  0
    2.1070   -0.4460    1.4500 C   0  0  0  0  0  0  0  0  0  0  0  0
    1.7150    0.6490    1.2340 N   0  0  0  0  0  0  0  0  0  0  0  0
    0.5450    1.1070    1.5470 N   0  0  0  0  0  0  0  0  0  0  0  0
   -0.3060    0.4610    2.1090 C   0  0  0  0  0  0  0  0  0  0  0  0
   -1.6930    0.6280    2.6080 C   0  0  0  0  0  0  0  0  0  0  0  0
   -2.7000    0.2880    1.5870 C   0  0  0  0  0  0  0  0  0  0  0  0
   -3.3950    1.2970    0.9190 C   0  0  0  0  0  0  0  0  0  0  0  0
   -4.3270    0.9330   -0.0280 C   0  0  0  0  0  0  0  0  0  0  0  0
   -4.5700   -0.3930   -0.3110 C   0  0  0  0  0  0  0  0  0  0  0  0
   -3.8750   -1.3560    0.3600 C   0  0  0  0  0  0  0  0  0  0  0  0
   -2.9280   -1.0440    1.3200 C   0  0  0  0  0  0  0  0  0  0  0  0
   -2.2440   -2.0570    1.9770 O   0  0  0  0  0  0  0  0  0  0  0  0
   -5.5980   -0.6690   -1.3520 C   0  0  1  0  0  0  0  0  0  0  0  0
   -5.8800   -2.0250   -1.3020 O   0  0  0  0  0  0  0  0  0  0  0  0
   -6.8380    0.1590   -1.1210 C   0  0  0  0  0  0  0  0  0  0  0  0
   -6.5620    1.5560   -0.6730 C   0  0  0  0  0  0  0  0  0  0  0  0
   -5.1030    1.9520   -0.7770 C   0  0  0  0  0  0  0  0  0  0  0  0
    0.6020   -1.1740    2.3010 S   0  0  0  0  0  0  0  0  0  0  0  0
    7.8720   -1.5840   -0.4890 C   0  0  0  0  0  0  0  0  0  0  0  0
    8.7380   -0.7700   -1.1130 N   0  0  0  0  0  0  0  0  0  0  0  0
  1  2  1  0
  2  3  1  0
  2 28  1  0
  3  4  2  0
  4  5  1  0
  4 27  1  0
  5  6  1  0
  6  7  2  0
  6  8  1  0
  8  9  1  0
  9 10  2  0
  9 26  1  0
 10 11  1  0
 11 12  2  0
 12 13  1  0
 12 26  1  0
 13 14  1  0
 14 15  2  0
 14 19  1  0
 15 16  1  0
 16 17  2  0
 16 25  1  0
 17 18  1  0
 17 21  1  0
 18 19  2  0
 19 20  1  0
 21 22  1  1
 21 23  1  0
 23 24  1  0
 24 25  1  0
 27 28  2  0
M  END
