
     RDKit          3D

 28 30  0  0  0  0  0  0  0  0999 V2000
   -6.4430   -1.7530    2.7730 C   0  0  0  0  0  0  0  0  0  0  0  0
   -5.6340   -1.3420    1.5890 C   0  0  0  0  0  0  0  0  0  0  0  0
   -4.9310   -2.2160    0.9000 C   0  0  0  0  0  0  0  0  0  0  0  0
   -4.1590   -1.7820   -0.2420 C   0  0  0  0  0  0  0  0  0  0  0  0
   -3.4070   -2.6030   -1.0120 N   0  0  0  0  0  0  0  0  0  0  0  0
   -2.8240   -1.9130   -1.9730 N   0  0  0  0  0  0  0  0  0  0  0  0
   -3.1830   -0.6200   -1.8520 C   0  0  0  0  0  0  0  0  0  0  0  0
   -2.7650    0.4990   -2.7130 C   0  0  0  0  0  0  0  0  0  0  0  0
   -3.3970    1.7810   -2.2290 C   0  0  0  0  0  0  0  0  0  0  0  0
   -2.9900    2.0540   -0.8760 N   0  0  0  0  0  0  0  0  0  0  0  0
   -1.6500    2.2380   -0.4800 C   0  0  0  0  0  0  0  0  0  0  0  0
   -0.7370    2.1660   -1.3310 O   0  0  0  0  0  0  0  0  0  0  0  0
   -1.3340    2.5150    0.9400 C   0  0  0  0  0  0  0  0  0  0  0  0
    0.0950    2.6700    1.1250 N   0  0  0  0  0  0  0  0  0  0  0  0
    0.9620    1.5950    0.7960 C   0  0  0  0  0  0  0  0  0  0  0  0
    0.4800    0.5260    0.3490 O   0  0  0  0  0  0  0  0  0  0  0  0
    2.3680    1.6770    0.9520 N   0  0  0  0  0  0  0  0  0  0  0  0
    3.2250    0.5790    0.6130 C   0  0  0  0  0  0  0  0  0  0  0  0
    2.6860   -0.9740   -0.0210 S   0  0  0  0  0  0  0  0  0  0  0  0
    4.2930   -1.7010   -0.1540 C   0  0  0  0  0  0  0  0  0  0  0  0
    4.5820   -3.0710   -0.6450 C   0  0  0  0  0  0  0  0  0  0  0  0
    5.1210   -0.7060    0.2960 C   0  0  0  0  0  0  0  0  0  0  0  0
    4.5910    0.4480    0.6840 C   0  0  0  0  0  0  0  0  0  0  0  0
    5.6980    1.3360    1.1190 C   0  0  0  0  0  0  0  0  0  0  0  0
    5.6140    2.3660    1.8240 O   0  0  0  0  0  0  0  0  0  0  0  0
    6.9750    0.8060    0.5760 C   0  0  0  0  0  0  0  0  0  0  0  0
    6.6400   -0.6590    0.4470 C   0  0  0  0  0  0  0  0  0  0  0  0
   -4.0040   -0.5700   -0.7790 N   0  0  0  0  0  0  0  0  0  0  0  0
  1  2  1  0
  2  3  2  3
  3  4  1  0
  4  5  2  0
  4 28  1  0
  5  6  1  0
  6  7  1  0
  7  8  1  0
  7 28  2  0
  8  9  1  0
  9 10  1  0
 10 11  1  0
 11 12  2  0
 11 13  1  0
 13 14  1  0
 14 15  1  0
 15 16  2  0
 15 17  1  0
 17 18  1  0
 18 19  1  0
 18 23  2  0
 19 20  1  0
 20 21  1  0
 20 22  2  0
 22 23  1  0
 22 27  1  0
 23 24  1  0
 24 25  2  0
 24 26  1  0
 26 27  1  0
M  END
