
     RDKit          3D

 27 30  0  0  0  0  0  0  0  0999 V2000
   -5.4110   -0.2840   -2.8900 C   0  0  0  0  0  0  0  0  0  0  0  0
   -4.0020   -0.0590   -2.4070 C   0  0  0  0  0  0  0  0  0  0  0  0
   -2.8810    0.1390   -3.1600 C   0  0  0  0  0  0  0  0  0  0  0  0
   -1.8260    0.2980   -2.2880 C   0  0  0  0  0  0  0  0  0  0  0  0
   -2.3180    0.1960   -1.0240 C   0  0  0  0  0  0  0  0  0  0  0  0
   -1.7000    0.1910    0.2880 C   0  0  0  0  0  0  0  0  0  0  0  0
   -2.3010   -0.5030    1.3550 C   0  0  0  0  0  0  0  0  0  0  0  0
   -1.8000   -0.5210    2.6230 C   0  0  0  0  0  0  0  0  0  0  0  0
   -2.4500   -1.2610    3.7360 C   0  0  0  0  0  0  0  0  0  0  0  0
   -0.6690    0.1700    2.8450 N   0  0  0  0  0  0  0  0  0  0  0  0
   -0.0610    0.8420    1.8860 C   0  0  0  0  0  0  0  0  0  0  0  0
    0.9990    1.4670    2.1760 O   0  0  0  0  0  0  0  0  0  0  0  0
   -0.5580    0.8770    0.5700 C   0  0  0  0  0  0  0  0  0  0  0  0
    0.3230    1.9010   -0.5380 S   0  0  2  0  0  0  0  0  0  0  0  0
    1.0260    2.9720    0.3450 O   0  0  0  0  0  0  0  0  0  0  0  0
   -0.6000    2.6570   -1.4620 O   0  0  0  0  0  0  0  0  0  0  0  0
    1.5010    1.0850   -1.4560 N   0  0  0  0  0  0  0  0  0  0  0  0
    2.6300    0.4030   -0.8940 C   0  0  0  0  0  0  0  0  0  0  0  0
    2.9680   -0.8630   -1.3450 C   0  0  0  0  0  0  0  0  0  0  0  0
    4.0430   -1.5420   -0.8280 C   0  0  0  0  0  0  0  0  0  0  0  0
    4.8090   -0.9620    0.1610 C   0  0  0  0  0  0  0  0  0  0  0  0
    5.8990   -1.3570    0.8570 N   0  0  0  0  0  0  0  0  0  0  0  0
    6.2680   -0.4080    1.7230 N   0  0  0  0  0  0  0  0  0  0  0  0
    5.4360    0.6370    1.6250 C   0  0  0  0  0  0  0  0  0  0  0  0
    4.5140    0.3100    0.6520 C   0  0  0  0  0  0  0  0  0  0  0  0
    3.4200    0.9460    0.0930 C   0  0  0  0  0  0  0  0  0  0  0  0
   -3.6800   -0.0280   -1.1220 N   0  0  0  0  0  0  0  0  0  0  0  0
  1  2  1  0
  2  3  2  0
  2 27  1  0
  3  4  1  0
  4  5  2  0
  5  6  1  0
  5 27  1  0
  6  7  1  0
  6 13  2  0
  7  8  2  0
  8  9  1  0
  8 10  1  0
 10 11  1  0
 11 12  2  0
 11 13  1  0
 13 14  1  0
 14 15  2  0
 14 16  2  0
 14 17  1  6
 17 18  1  0
 18 19  2  0
 18 26  1  0
 19 20  1  0
 20 21  2  0
 21 22  1  0
 21 25  1  0
 22 23  1  0
 23 24  2  0
 24 25  1  0
 25 26  2  0
M  END
