
     RDKit          3D

 28 31  0  0  0  0  0  0  0  0999 V2000
    0.8510   -0.4250    2.1540 C   0  0  0  0  0  0  0  0  0  0  0  0
    0.9800   -0.4950    0.6750 C   0  0  0  0  0  0  0  0  0  0  0  0
    0.0530   -0.7960   -0.2820 C   0  0  0  0  0  0  0  0  0  0  0  0
   -1.2510   -1.3820   -0.1330 C   0  0  0  0  0  0  0  0  0  0  0  0
   -1.3800   -2.5740   -0.6230 O   0  0  0  0  0  0  0  0  0  0  0  0
   -2.4550   -0.9150    0.4510 N   0  0  0  0  0  0  0  0  0  0  0  0
   -3.6460   -1.7670    0.4270 C   0  0  1  0  0  0  0  0  0  0  0  0
   -3.7630   -2.7080    1.5570 C   0  0  0  0  0  0  0  0  0  0  0  0
   -4.8890   -1.0960    0.0600 C   0  0  0  0  0  0  0  0  0  0  0  0
   -4.9960    0.2020    0.0070 C   0  0  0  0  0  0  0  0  0  0  0  0
   -6.1840    0.9620   -0.3710 C   0  0  0  0  0  0  0  0  0  0  0  0
   -6.3190    2.3420   -0.3040 C   0  0  0  0  0  0  0  0  0  0  0  0
   -7.5300    2.6760   -0.7370 C   0  0  0  0  0  0  0  0  0  0  0  0
   -8.1670    1.5100   -1.0710 C   0  0  0  0  0  0  0  0  0  0  0  0
   -7.3210    0.5300   -0.8280 O   0  0  0  0  0  0  0  0  0  0  0  0
    0.6590   -0.5400   -1.5140 N   0  0  0  0  0  0  0  0  0  0  0  0
    1.9220   -0.1160   -1.2900 C   0  0  0  0  0  0  0  0  0  0  0  0
    2.9600    0.1570   -2.0950 N   0  0  0  0  0  0  0  0  0  0  0  0
    4.1770    0.4110   -1.5380 C   0  0  0  0  0  0  0  0  0  0  0  0
    5.8110    0.6740   -2.2600 S   0  0  0  0  0  0  0  0  0  0  0  0
    6.7190    0.7250   -0.6630 C   0  0  0  0  0  0  0  0  0  0  0  0
    8.1500    0.5490   -0.4910 C   0  0  0  0  0  0  0  0  0  0  0  0
    9.0040    1.6210   -0.6150 N   0  0  0  0  0  0  0  0  0  0  0  0
    5.7150    0.5660    0.2010 C   0  0  0  0  0  0  0  0  0  0  0  0
    5.9980    0.5430    1.6180 O   0  0  0  0  0  0  0  0  0  0  0  0
    4.4190    0.4090   -0.1950 C   0  0  0  0  0  0  0  0  0  0  0  0
    3.3140    0.1530    0.5520 N   0  0  0  0  0  0  0  0  0  0  0  0
    2.1430   -0.0820    0.0120 N   0  0  0  0  0  0  0  0  0  0  0  0
  1  2  1  0
  2  3  2  0
  2 28  1  0
  3  4  1  0
  3 16  1  0
  4  5  2  0
  4  6  1  0
  6  7  1  0
  7  8  1  1
  7  9  1  0
  9 10  2  3
 10 11  1  0
 11 12  2  0
 11 15  1  0
 12 13  1  0
 13 14  2  0
 14 15  1  0
 16 17  2  0
 17 18  1  0
 17 28  1  0
 18 19  2  0
 19 20  1  0
 19 26  1  0
 20 21  1  0
 21 22  1  0
 21 24  2  0
 22 23  1  0
 24 25  1  0
 24 26  1  0
 26 27  2  0
 27 28  1  0
M  END
