
     RDKit          3D

 30 34  0  0  0  0  0  0  0  0999 V2000
    8.8480    0.3970   -1.5810 C   0  0  0  0  0  0  0  0  0  0  0  0
    7.4180    0.6080   -1.9430 C   0  0  0  0  0  0  0  0  0  0  0  0
    6.4870    0.2000   -0.8440 C   0  0  0  0  0  0  0  0  0  0  0  0
    7.0120   -0.2460    0.1840 O   0  0  0  0  0  0  0  0  0  0  0  0
    5.0970    0.3100   -0.9580 N   0  0  0  0  0  0  0  0  0  0  0  0
    4.1850   -0.0640    0.0570 C   0  0  0  0  0  0  0  0  0  0  0  0
    4.5310   -0.5630    1.2670 C   0  0  0  0  0  0  0  0  0  0  0  0
    3.5010   -0.8650    2.1120 C   0  0  0  0  0  0  0  0  0  0  0  0
    2.1670   -0.6940    1.8130 C   0  0  0  0  0  0  0  0  0  0  0  0
    1.2810   -1.3800    2.7680 C   0  0  0  0  0  0  0  0  0  0  0  0
    1.7610   -0.1620    0.5690 C   0  0  0  0  0  0  0  0  0  0  0  0
    2.8390    0.1110   -0.2380 C   0  0  0  0  0  0  0  0  0  0  0  0
    2.1390    0.6520   -1.7600 S   0  0  0  0  0  0  0  0  0  0  0  0
    0.4580    0.5080   -1.2490 C   0  0  0  0  0  0  0  0  0  0  0  0
   -0.6380    0.8220   -1.9470 N   0  0  0  0  0  0  0  0  0  0  0  0
   -1.8210    0.7270   -1.3900 C   0  0  0  0  0  0  0  0  0  0  0  0
   -2.8950    1.0140   -2.0440 N   0  0  0  0  0  0  0  0  0  0  0  0
   -4.1360    0.8850   -1.3690 C   0  0  0  0  0  0  0  0  0  0  0  0
   -4.5650    1.9190   -0.5730 C   0  0  0  0  0  0  0  0  0  0  0  0
   -5.7630    1.8270    0.0970 C   0  0  0  0  0  0  0  0  0  0  0  0
   -6.5430    0.6970   -0.0240 C   0  0  0  0  0  0  0  0  0  0  0  0
   -6.1250   -0.3350   -0.8120 C   0  0  0  0  0  0  0  0  0  0  0  0
   -4.9240   -0.2360   -1.4790 C   0  0  0  0  0  0  0  0  0  0  0  0
   -7.1870   -1.3860   -0.7230 C   0  0  0  0  0  0  0  0  0  0  0  0
   -8.3680   -0.6680   -0.1130 C   0  0  0  0  0  0  0  0  0  0  0  0
   -7.7600    0.4140    0.5570 O   0  0  0  0  0  0  0  0  0  0  0  0
   -1.8460    0.3170   -0.1230 N   0  0  0  0  0  0  0  0  0  0  0  0
   -0.7560   -0.0090    0.6160 C   0  0  0  0  0  0  0  0  0  0  0  0
   -1.0520   -0.1170    2.0510 C   0  0  0  0  0  0  0  0  0  0  0  0
    0.5310    0.0550    0.0600 C   0  0  0  0  0  0  0  0  0  0  0  0
  1  2  1  0
  2  3  1  0
  3  4  2  0
  3  5  1  0
  5  6  1  0
  6  7  2  0
  6 12  1  0
  7  8  1  0
  8  9  2  0
  9 10  1  0
  9 11  1  0
 11 12  2  0
 11 30  1  0
 12 13  1  0
 13 14  1  0
 14 15  2  0
 14 30  1  0
 15 16  1  0
 16 17  2  3
 16 27  1  0
 17 18  1  0
 18 19  2  0
 18 23  1  0
 19 20  1  0
 20 21  2  0
 21 22  1  0
 21 26  1  0
 22 23  2  0
 22 24  1  0
 24 25  1  0
 25 26  1  0
 27 28  1  0
 28 29  1  0
 28 30  2  0
M  END
