
     RDKit          3D

 31 34  0  0  0  0  0  0  0  0999 V2000
   -6.5590    1.5710    1.9600 C   0  0  0  0  0  0  0  0  0  0  0  0
   -6.1370    0.5620    0.9100 C   0  0  2  0  0  0  0  0  0  0  0  0
   -4.9830    1.1940    0.1210 C   0  0  0  0  0  0  0  0  0  0  0  0
   -4.6350    0.2490   -0.9070 N   0  0  0  0  0  0  0  0  0  0  0  0
   -3.2330   -0.0700   -1.1000 C   0  0  0  0  0  0  0  0  0  0  0  0
   -2.9070   -0.9830   -2.1030 C   0  0  0  0  0  0  0  0  0  0  0  0
   -1.0640   -1.0280   -1.9280 S   0  0  0  0  0  0  0  0  0  0  0  0
   -1.0420    0.2090   -0.5120 C   0  0  0  0  0  0  0  0  0  0  0  0
    0.1640    0.5950    0.0770 N   0  0  0  0  0  0  0  0  0  0  0  0
    1.4200    0.0720   -0.3660 C   0  0  0  0  0  0  0  0  0  0  0  0
    1.4180   -0.7430   -1.2980 O   0  0  0  0  0  0  0  0  0  0  0  0
    2.6340    0.5300    0.3070 C   0  0  0  0  0  0  0  0  0  0  0  0
    2.7120    1.4350    1.3510 C   0  0  0  0  0  0  0  0  0  0  0  0
    4.0940    1.4880    1.5800 C   0  0  0  0  0  0  0  0  0  0  0  0
    5.3350    2.2260    2.5770 S   0  0  0  0  0  0  0  0  0  0  0  0
    6.7980    1.3530    1.7570 C   0  0  0  0  0  0  0  0  0  0  0  0
    7.9360    1.6380    2.2240 C   0  0  0  0  0  0  0  0  0  0  0  0
    9.5300    1.1620    1.8750 Cl  0  0  0  0  0  0  0  0  0  0  0  0
    6.1420    0.6130    0.8290 C   0  0  0  0  0  0  0  0  0  0  0  0
    6.8270   -0.1980   -0.0220 C   0  0  0  0  0  0  0  0  0  0  0  0
    8.2160   -0.4820   -0.1850 C   0  0  0  0  0  0  0  0  0  0  0  0
    8.4150   -1.6170   -1.6290 S   0  0  2  0  0  0  0  0  0  0  0  0
    8.1670   -3.0200   -1.1850 O   0  0  0  0  0  0  0  0  0  0  0  0
    9.8230   -1.4980   -2.0990 O   0  0  0  0  0  0  0  0  0  0  0  0
    4.7690    0.7030    0.7650 C   0  0  0  0  0  0  0  0  0  0  0  0
    3.8070    0.1310   -0.0080 O   0  0  0  0  0  0  0  0  0  0  0  0
   -2.2710    0.4180   -0.4240 N   0  0  0  0  0  0  0  0  0  0  0  0
   -5.6580   -0.3360   -1.6930 C   0  0  0  0  0  0  0  0  0  0  0  0
   -6.9670   -0.5180   -0.9660 C   0  0  1  0  0  0  0  0  0  0  0  0
   -7.1690   -1.9670   -0.5230 C   0  0  0  0  0  0  0  0  0  0  0  0
   -7.1800    0.3830    0.0410 O   0  0  0  0  0  0  0  0  0  0  0  0
  2  1  1  1
  2  3  1  0
  2 31  1  0
  3  4  1  0
  4  5  1  0
  4 28  1  0
  5  6  2  0
  5 27  1  0
  6  7  1  0
  7  8  1  0
  8  9  1  0
  8 27  2  0
  9 10  1  0
 10 11  2  0
 10 12  1  0
 12 13  2  0
 12 26  1  0
 13 14  1  0
 14 15  1  0
 14 25  2  0
 15 16  1  0
 16 17  2  3
 16 19  1  0
 17 18  1  0
 19 20  2  3
 19 25  1  0
 20 21  1  0
 22 21  1  1
 22 23  2  0
 22 24  2  0
 25 26  1  0
 28 29  1  0
 29 30  1  1
 29 31  1  0
M  END
