
     RDKit          3D

 31 34  0  0  0  0  0  0  0  0999 V2000
    6.8650    2.8870    2.1220 C   0  0  0  0  0  0  0  0  0  0  0  0
    5.8510    2.8930    0.9880 C   0  0  0  0  0  0  0  0  0  0  0  0
    5.9270    3.8700    0.0290 C   0  0  0  0  0  0  0  0  0  0  0  0
    4.5090    3.4040   -1.0550 S   0  0  0  0  0  0  0  0  0  0  0  0
    4.0930    1.9300    0.0550 C   0  0  0  0  0  0  0  0  0  0  0  0
    2.6350    1.0000   -0.5790 S   0  0  0  0  0  0  0  0  0  0  0  0
    2.4020   -0.3440    0.5960 C   0  0  0  0  0  0  0  0  0  0  0  0
    1.2260   -1.2200    0.2190 C   0  0  1  0  0  0  0  0  0  0  0  0
    0.0400   -0.3330    0.2170 N   0  0  0  0  0  0  0  0  0  0  0  0
   -1.2320   -0.8670   -0.0990 C   0  0  0  0  0  0  0  0  0  0  0  0
   -1.3010   -2.1120   -0.3720 O   0  0  0  0  0  0  0  0  0  0  0  0
   -2.4820   -0.1390   -0.1450 C   0  0  0  0  0  0  0  0  0  0  0  0
   -3.6410   -0.7460   -0.4580 C   0  0  0  0  0  0  0  0  0  0  0  0
   -3.5110   -2.1110   -0.7250 O   0  0  0  0  0  0  0  0  0  0  0  0
   -4.3940   -2.9010   -1.4540 C   0  0  0  0  0  0  0  0  0  0  0  0
   -6.1170   -2.3520   -1.1900 S   0  0  0  0  0  0  0  0  0  0  0  0
   -6.0600   -0.6400   -0.8200 C   0  0  0  0  0  0  0  0  0  0  0  0
   -7.5100    0.3180   -0.8480 Cl  0  0  0  0  0  0  0  0  0  0  0  0
   -4.9020   -0.0370   -0.5080 C   0  0  0  0  0  0  0  0  0  0  0  0
   -5.0130    1.4080   -0.2190 C   0  0  0  0  0  0  0  0  0  0  0  0
   -3.7750    2.0100    0.0940 N   0  0  0  0  0  0  0  0  0  0  0  0
   -3.7590    3.4690    0.3880 C   0  0  0  0  0  0  0  0  0  0  0  0
   -2.5620    1.2760    0.1370 C   0  0  0  0  0  0  0  0  0  0  0  0
   -1.5460    1.9770    0.4460 O   0  0  0  0  0  0  0  0  0  0  0  0
    1.4160   -1.8060   -1.1380 C   0  0  0  0  0  0  0  0  0  0  0  0
    1.8390   -3.2330   -1.1650 C   0  0  0  0  0  0  0  0  0  0  0  0
    1.2520   -4.1020   -0.1210 C   0  0  0  0  0  0  0  0  0  0  0  0
    1.3840   -3.5120    1.1520 O   0  0  0  0  0  0  0  0  0  0  0  0
    1.0260   -2.1940    1.2880 C   0  0  0  0  0  0  0  0  0  0  0  0
    0.4980   -1.7700    2.3720 O   0  0  0  0  0  0  0  0  0  0  0  0
    4.8830    2.0230    0.8360 N   0  0  0  0  0  0  0  0  0  0  0  0
  1  2  1  0
  2  3  2  0
  2 31  1  0
  3  4  1  0
  4  5  1  0
  5  6  1  0
  5 31  2  0
  6  7  1  0
  8  7  1  1
  8  9  1  0
  8 25  1  0
  8 29  1  0
  9 10  1  0
 10 11  2  0
 10 12  1  0
 12 13  2  0
 12 23  1  0
 13 14  1  0
 13 19  1  0
 14 15  1  0
 15 16  1  0
 16 17  1  0
 17 18  1  0
 17 19  2  0
 19 20  1  0
 20 21  1  0
 21 22  1  0
 21 23  1  0
 23 24  2  0
 25 26  1  0
 26 27  1  0
 27 28  1  0
 28 29  1  0
 29 30  2  0
M  END
