
     RDKit          3D

 30 33  0  0  0  0  0  0  0  0999 V2000
   -4.9200   -2.5190   -3.0070 O   0  0  0  0  0  0  0  0  0  0  0  0
   -3.8480   -1.8930   -3.1380 C   0  0  0  0  0  0  0  0  0  0  0  0
   -3.4240   -1.0810   -2.1020 C   0  0  0  0  0  0  0  0  0  0  0  0
   -2.2540   -0.3940   -2.2390 C   0  0  0  0  0  0  0  0  0  0  0  0
   -1.6620    0.5070   -1.2510 C   0  0  0  0  0  0  0  0  0  0  0  0
   -2.4860    0.8380   -0.1320 N   0  0  0  0  0  0  0  0  0  0  0  0
   -3.6710    1.5030   -0.6090 C   0  0  0  0  0  0  0  0  0  0  0  0
   -3.6990    2.9890   -0.3380 C   0  0  0  0  0  0  0  0  0  0  0  0
   -3.6540    3.2750    1.1530 C   0  0  0  0  0  0  0  0  0  0  0  0
   -2.8820    2.1570    1.8360 C   0  0  0  0  0  0  0  0  0  0  0  0
   -1.8200    1.6830    0.8300 C   0  0  1  0  0  0  0  0  0  0  0  0
   -0.6920    1.0290    1.4640 C   0  0  0  0  0  0  0  0  0  0  0  0
   -0.4140   -0.1690    1.9860 C   0  0  0  0  0  0  0  0  0  0  0  0
    0.8020   -0.4180    2.5150 C   0  0  0  0  0  0  0  0  0  0  0  0
    1.7250    0.5520    2.5090 C   0  0  0  0  0  0  0  0  0  0  0  0
    3.1090    0.6470    2.9760 C   0  0  0  0  0  0  0  0  0  0  0  0
    4.3470    0.2640    1.8040 S   0  0  1  0  0  0  0  0  0  0  0  0
    4.3810    1.3010    0.6930 O   0  0  0  0  0  0  0  0  0  0  0  0
    5.6880    0.4390    2.5160 O   0  0  0  0  0  0  0  0  0  0  0  0
    4.3170   -1.2770    1.1490 N   0  0  0  0  0  0  0  0  0  0  0  0
    3.2260   -1.7120    0.4100 C   0  0  0  0  0  0  0  0  0  0  0  0
    3.6460   -2.0880   -1.0090 C   0  0  0  0  0  0  0  0  0  0  0  0
    5.2810   -2.7080   -0.6870 S   0  0  2  0  0  0  0  0  0  0  0  0
    6.2740   -2.1720   -1.6760 O   0  0  0  0  0  0  0  0  0  0  0  0
    5.3150   -4.2030   -0.6120 O   0  0  0  0  0  0  0  0  0  0  0  0
    5.5160   -1.9660    0.9350 C   0  0  0  0  0  0  0  0  0  0  0  0
    0.8270    1.9320    1.6990 S   0  0  0  0  0  0  0  0  0  0  0  0
   -1.5650   -0.5690   -3.4360 C   0  0  0  0  0  0  0  0  0  0  0  0
   -2.0170   -1.3870   -4.4460 C   0  0  0  0  0  0  0  0  0  0  0  0
   -3.1740   -2.0470   -4.2750 N   0  0  0  0  0  0  0  0  0  0  0  0
  1  2  2  0
  2  3  1  0
  2 30  1  0
  3  4  2  0
  4  5  1  0
  4 28  1  0
  5  6  1  0
  6  7  1  0
  6 11  1  0
  7  8  1  0
  8  9  1  0
  9 10  1  0
 10 11  1  0
 11 12  1  1
 12 13  2  0
 12 27  1  0
 13 14  1  0
 14 15  2  0
 15 16  1  0
 15 27  1  0
 17 16  1  1
 17 18  2  0
 17 19  2  0
 17 20  1  0
 20 21  1  0
 20 26  1  0
 21 22  1  0
 23 22  1  6
 23 24  2  0
 23 25  2  0
 23 26  1  0
 28 29  2  0
 29 30  1  0
M  END
