
     RDKit          3D

 31 33  0  0  0  0  0  0  0  0999 V2000
   -4.0470   -4.1990    0.0860 C   0  0  0  0  0  0  0  0  0  0  0  0
   -4.5920   -2.7910    0.1620 C   0  0  0  0  0  0  0  0  0  0  0  0
   -3.5430   -1.8360    0.0130 N   0  0  0  0  0  0  0  0  0  0  0  0
   -3.9990   -0.4690    0.0710 C   0  0  0  0  0  0  0  0  0  0  0  0
   -2.9250    0.5080   -0.3620 C   0  0  0  0  0  0  0  0  0  0  0  0
   -1.6100   -0.0440   -0.1410 N   0  0  0  0  0  0  0  0  0  0  0  0
   -0.4980    0.1300   -0.9570 C   0  0  0  0  0  0  0  0  0  0  0  0
   -0.1810   -0.8960   -1.7190 N   0  0  0  0  0  0  0  0  0  0  0  0
    0.9260   -0.8640   -2.6020 C   0  0  0  0  0  0  0  0  0  0  0  0
    0.6800   -0.8150   -3.8320 O   0  0  0  0  0  0  0  0  0  0  0  0
    2.3400   -0.8880   -2.1090 C   0  0  0  0  0  0  0  0  0  0  0  0
    2.6540   -0.9380   -0.8650 C   0  0  0  0  0  0  0  0  0  0  0  0
    4.0670   -0.9550   -0.5340 C   0  0  0  0  0  0  0  0  0  0  0  0
    4.6050   -1.2870    0.6090 C   0  0  0  0  0  0  0  0  0  0  0  0
    6.0470   -1.2440    0.7590 C   0  0  0  0  0  0  0  0  0  0  0  0
    6.8320   -0.8580   -0.2950 O   0  0  0  0  0  0  0  0  0  0  0  0
    6.6140   -1.5750    1.9030 C   0  0  0  0  0  0  0  0  0  0  0  0
    8.3590   -1.5240    2.0870 Cl  0  0  0  0  0  0  0  0  0  0  0  0
    4.8420   -0.4270   -2.0400 S   0  0  0  0  0  0  0  0  0  0  0  0
    4.9980    1.0850   -2.0000 O   0  0  0  0  0  0  0  0  0  0  0  0
    3.4450   -0.8540   -3.0970 C   0  0  0  0  0  0  0  0  0  0  0  0
    0.4990    1.5350   -1.0750 S   0  0  0  0  0  0  0  0  0  0  0  0
    0.0270    3.0170   -0.2170 C   0  0  1  0  0  0  0  0  0  0  0  0
   -1.1740    3.6230   -0.8550 C   0  0  0  0  0  0  0  0  0  0  0  0
   -1.8080    4.6280    0.0400 C   0  0  0  0  0  0  0  0  0  0  0  0
   -1.1860    4.2210    1.6490 S   0  0  1  0  0  0  0  0  0  0  0  0
   -0.2080    5.2330    2.1400 O   0  0  0  0  0  0  0  0  0  0  0  0
   -2.2790    3.9350    2.6300 O   0  0  0  0  0  0  0  0  0  0  0  0
   -0.2960    2.7090    1.2350 C   0  0  0  0  0  0  0  0  0  0  0  0
   -1.5270   -0.8860    1.0760 C   0  0  0  0  0  0  0  0  0  0  0  0
   -2.3850   -2.0920    0.8010 C   0  0  0  0  0  0  0  0  0  0  0  0
  1  2  1  0
  2  3  1  0
  3  4  1  0
  3 31  1  0
  4  5  1  0
  5  6  1  0
  6  7  1  0
  6 30  1  0
  7  8  2  3
  7 22  1  0
  8  9  1  0
  9 10  2  0
  9 11  1  0
 11 12  2  0
 11 21  1  0
 12 13  1  0
 13 14  2  3
 13 19  1  0
 14 15  1  0
 15 16  1  0
 15 17  2  3
 17 18  1  0
 19 20  2  0
 19 21  1  6
 23 22  1  6
 23 24  1  0
 23 29  1  0
 24 25  1  0
 26 25  1  6
 26 27  2  0
 26 28  2  0
 26 29  1  0
 30 31  1  0
M  END
