
     RDKit          3D

 27 31  0  0  0  0  0  0  0  0999 V2000
    6.5470   -1.1770    0.0460 C   0  0  0  0  0  0  0  0  0  0  0  0
    5.5490   -0.2290   -0.2390 O   0  0  0  0  0  0  0  0  0  0  0  0
    4.2770   -0.2810    0.3040 C   0  0  0  0  0  0  0  0  0  0  0  0
    3.9550   -1.2800    1.1530 C   0  0  0  0  0  0  0  0  0  0  0  0
    2.7010   -1.3330    1.6830 C   0  0  0  0  0  0  0  0  0  0  0  0
    1.6950   -0.3620    1.3730 C   0  0  0  0  0  0  0  0  0  0  0  0
    1.9940    0.6730    0.5210 C   0  0  0  0  0  0  0  0  0  0  0  0
    3.3360    0.6530    0.0040 C   0  0  0  0  0  0  0  0  0  0  0  0
    1.2950    1.8800    0.1430 C   0  0  0  0  0  0  0  0  0  0  0  0
    0.1290    2.2900   -0.2600 C   0  0  0  0  0  0  0  0  0  0  0  0
   -0.0970    3.7710   -0.5520 C   0  0  0  0  0  0  0  0  0  0  0  0
    0.7750    4.8880   -0.3430 N   0  0  0  0  0  0  0  0  0  0  0  0
   -1.2480    3.9130   -1.0380 N   0  0  0  0  0  0  0  0  0  0  0  0
   -1.9390    2.7780   -1.2180 C   0  0  2  0  0  0  0  0  0  0  0  0
   -3.3130    2.4310   -0.9540 C   0  0  0  0  0  0  0  0  0  0  0  0
   -3.1820    0.9290   -1.2930 C   0  0  0  0  0  0  0  0  0  0  0  0
   -1.8910    0.6220   -0.4670 C   0  0  2  0  0  0  0  0  0  0  0  0
   -2.5110    0.4640    0.9340 C   0  0  0  0  0  0  0  0  0  0  0  0
   -3.0720   -0.9180    1.1110 C   0  0  0  0  0  0  0  0  0  0  0  0
   -2.3030   -1.8870    0.2590 C   0  0  0  0  0  0  0  0  0  0  0  0
   -1.0080   -2.0990    0.4710 C   0  0  0  0  0  0  0  0  0  0  0  0
   -0.6180   -3.0960   -0.5560 C   0  0  0  0  0  0  0  0  0  0  0  0
   -1.8620   -3.7620   -0.8760 N   0  0  0  0  0  0  0  0  0  0  0  0
   -2.8510   -2.6920   -0.8510 C   0  0  0  0  0  0  0  0  0  0  0  0
   -0.5350   -1.3730    1.5290 N   0  0  0  0  0  0  0  0  0  0  0  0
    0.4150   -0.7010    1.9860 C   0  0  0  0  0  0  0  0  0  0  0  0
   -1.0840    1.7470   -0.5930 N   0  0  0  0  0  0  0  0  0  0  0  0
  1  2  1  0
  2  3  1  0
  3  4  2  0
  3  8  1  0
  4  5  1  0
  5  6  2  0
  6  7  1  0
  6 26  1  0
  7  8  2  0
  7  9  1  0
  9 10  2  0
 10 11  1  0
 10 27  1  0
 11 12  1  0
 11 13  2  0
 13 14  1  0
 14 15  1  1
 14 27  1  0
 15 16  1  0
 17 16  1  6
 17 18  1  0
 17 27  1  0
 18 19  1  0
 19 20  1  0
 20 21  2  0
 20 24  1  0
 21 22  1  0
 21 25  1  0
 22 23  1  0
 23 24  1  0
 25 26  2  0
M  CHG  1  23   1
M  END
