
     RDKit          3D

 27 30  0  0  0  0  0  0  0  0999 V2000
    6.4710   -1.6740   -0.1670 C   0  0  0  0  0  0  0  0  0  0  0  0
    5.7940   -0.7220   -1.0210 N   0  0  0  0  0  0  0  0  0  0  0  0
    4.5310   -0.2220   -0.6130 C   0  0  0  0  0  0  0  0  0  0  0  0
    3.8390    0.6900   -1.4070 C   0  0  0  0  0  0  0  0  0  0  0  0
    2.6110    1.1810   -1.0230 C   0  0  0  0  0  0  0  0  0  0  0  0
    2.0180    0.7990    0.1490 C   0  0  0  0  0  0  0  0  0  0  0  0
    0.7210    1.3230    0.6110 C   0  0  2  0  0  0  0  0  0  0  0  0
    0.7270    1.4930    2.0820 N   0  0  0  0  0  0  0  0  0  0  0  0
   -0.4780    0.6290    0.1460 C   0  0  0  0  0  0  0  0  0  0  0  0
   -1.4430    1.2560   -0.4590 C   0  0  0  0  0  0  0  0  0  0  0  0
   -1.5610    2.6580   -0.7920 C   0  0  0  0  0  0  0  0  0  0  0  0
   -0.6880    3.5080   -1.4020 C   0  0  0  0  0  0  0  0  0  0  0  0
   -1.2710    4.7470   -1.4860 C   0  0  0  0  0  0  0  0  0  0  0  0
   -2.5040    4.6250   -0.9180 C   0  0  0  0  0  0  0  0  0  0  0  0
   -2.6480    3.3980   -0.5220 O   0  0  0  0  0  0  0  0  0  0  0  0
   -0.6090   -0.8440    0.4080 C   0  0  2  0  0  0  0  0  0  0  0  0
    0.3860   -1.6950   -0.2840 C   0  0  0  0  0  0  0  0  0  0  0  0
   -0.4330   -2.7290   -1.0910 C   0  0  0  0  0  0  0  0  0  0  0  0
   -1.6890   -1.8800   -1.3460 C   0  0  0  0  0  0  0  0  0  0  0  0
   -1.8770   -1.3330   -0.0390 N   0  0  0  0  0  0  0  0  0  0  0  0
   -3.0970   -1.2870    0.6780 C   0  0  0  0  0  0  0  0  0  0  0  0
   -3.2870   -1.1040    1.9370 N   0  0  0  0  0  0  0  0  0  0  0  0
   -4.6790   -1.1170    2.3190 C   0  0  0  0  0  0  0  0  0  0  0  0
   -5.3930   -1.6900    1.1170 C   0  0  0  0  0  0  0  0  0  0  0  0
   -4.4050   -1.4420    0.0860 N   0  0  0  0  0  0  0  0  0  0  0  0
    2.6940   -0.1220    0.9730 C   0  0  0  0  0  0  0  0  0  0  0  0
    3.9220   -0.5970    0.5640 C   0  0  0  0  0  0  0  0  0  0  0  0
  1  2  1  0
  2  3  1  0
  3  4  2  0
  3 27  1  0
  4  5  1  0
  5  6  2  0
  6  7  1  0
  6 26  1  0
  7  8  1  1
  7  9  1  0
  9 10  2  3
 16  9  1  6
 10 11  1  0
 11 12  2  0
 11 15  1  0
 12 13  1  0
 13 14  2  0
 14 15  1  0
 16 17  1  0
 16 20  1  0
 17 18  1  0
 18 19  1  0
 19 20  1  0
 20 21  1  0
 21 22  2  0
 21 25  1  0
 22 23  1  0
 23 24  1  0
 24 25  1  0
 26 27  2  0
M  CHG  1  22   1
M  END
