
     RDKit          3D

 27 30  0  0  0  0  0  0  0  0999 V2000
   -0.1230    1.4780   -1.6360 C   0  0  0  0  0  0  0  0  0  0  0  0
   -0.2050    1.4860   -0.1300 C   0  0  0  0  0  0  0  0  0  0  0  0
   -0.2370    0.1210    0.4150 C   0  0  0  0  0  0  0  0  0  0  0  0
   -1.3660   -0.7100    0.5570 C   0  0  0  0  0  0  0  0  0  0  0  0
   -2.7070   -0.2640    0.1750 C   0  0  2  0  0  0  0  0  0  0  0  0
   -3.8460   -0.9580    0.9160 C   0  0  0  0  0  0  0  0  0  0  0  0
   -4.9380    0.1280    1.2060 C   0  0  0  0  0  0  0  0  0  0  0  0
   -5.5970    0.4930   -0.1040 C   0  0  0  0  0  0  0  0  0  0  0  0
   -4.6980    1.3540   -0.9390 C   0  0  0  0  0  0  0  0  0  0  0  0
   -3.7710    0.5920   -1.8440 C   0  0  0  0  0  0  0  0  0  0  0  0
   -2.9900   -0.4330   -1.2510 N   0  0  0  0  0  0  0  0  0  0  0  0
   -0.8940   -1.8760    1.0830 C   0  0  0  0  0  0  0  0  0  0  0  0
   -1.5770   -3.1210    1.3560 C   0  0  0  0  0  0  0  0  0  0  0  0
   -0.9050   -4.0500    2.2270 N   0  0  0  0  0  0  0  0  0  0  0  0
   -2.6710   -3.4990    0.9400 O   0  0  0  0  0  0  0  0  0  0  0  0
    0.4780   -1.7230    1.2470 N   0  0  0  0  0  0  0  0  0  0  0  0
    0.8530   -0.5410    0.8490 N   0  0  0  0  0  0  0  0  0  0  0  0
    2.1860   -0.0190    0.8550 C   0  0  0  0  0  0  0  0  0  0  0  0
    2.5590    1.0240    1.6880 C   0  0  0  0  0  0  0  0  0  0  0  0
    3.8360    1.5370    1.7080 C   0  0  0  0  0  0  0  0  0  0  0  0
    4.7820    0.9930    0.8660 C   0  0  0  0  0  0  0  0  0  0  0  0
    6.1270    1.3110    0.6800 C   0  0  0  0  0  0  0  0  0  0  0  0
    6.5690    0.4350   -0.2880 C   0  0  0  0  0  0  0  0  0  0  0  0
    7.9530    0.3740   -0.8380 C   0  0  0  0  0  0  0  0  0  0  0  0
    5.5520   -0.3590   -0.6610 N   0  0  0  0  0  0  0  0  0  0  0  0
    4.4340   -0.0450    0.0290 C   0  0  0  0  0  0  0  0  0  0  0  0
    3.1500   -0.5400    0.0280 C   0  0  0  0  0  0  0  0  0  0  0  0
  1  2  1  0
  2  3  1  0
  3  4  2  0
  3 17  1  0
  5  4  1  6
  4 12  1  0
  5  6  1  0
  5 11  1  0
  6  7  1  0
  7  8  1  0
  8  9  1  0
  9 10  1  0
 10 11  1  0
 12 13  1  0
 12 16  2  0
 13 14  1  0
 13 15  2  0
 16 17  1  0
 17 18  1  0
 18 19  2  0
 18 27  1  0
 19 20  1  0
 20 21  2  0
 21 22  1  0
 21 26  1  0
 22 23  2  0
 23 24  1  0
 23 25  1  0
 25 26  1  0
 26 27  2  0
M  CHG  1  11   1
M  END
