
     RDKit          3D

 27 30  0  0  0  0  0  0  0  0999 V2000
    6.8150    1.5570    1.2310 C   0  0  0  0  0  0  0  0  0  0  0  0
    5.7310    0.6290    0.7830 C   0  0  0  0  0  0  0  0  0  0  0  0
    5.6550    0.2230   -0.5340 C   0  0  0  0  0  0  0  0  0  0  0  0
    4.6570   -0.6360   -0.9610 C   0  0  0  0  0  0  0  0  0  0  0  0
    3.6950   -1.1210   -0.0830 C   0  0  0  0  0  0  0  0  0  0  0  0
    2.6170   -2.0440   -0.5290 C   0  0  2  0  0  0  0  0  0  0  0  0
    3.1990   -3.0140   -1.3310 O   0  0  0  0  0  0  0  0  0  0  0  0
    1.5690   -1.2680   -1.2340 C   0  0  0  0  0  0  0  0  0  0  0  0
    1.7050   -0.7800   -2.4770 N   0  0  0  0  0  0  0  0  0  0  0  0
    0.6260   -0.1500   -2.8190 N   0  0  0  0  0  0  0  0  0  0  0  0
   -0.2550   -0.2210   -1.7700 C   0  0  0  0  0  0  0  0  0  0  0  0
    0.3410   -0.9230   -0.7820 N   0  0  0  0  0  0  0  0  0  0  0  0
   -0.2410   -1.2410    0.4860 C   0  0  0  0  0  0  0  0  0  0  0  0
   -0.4390   -0.1590    1.4790 C   0  0  0  0  0  0  0  0  0  0  0  0
   -1.7480   -0.3790    2.2100 C   0  0  0  0  0  0  0  0  0  0  0  0
   -2.8130    0.5080    1.8110 N   0  0  0  0  0  0  0  0  0  0  0  0
   -3.8410   -0.1250    1.0350 C   0  0  0  0  0  0  0  0  0  0  0  0
   -4.5940    0.8070    0.1400 C   0  0  0  0  0  0  0  0  0  0  0  0
   -5.3550    1.8300    0.5600 N   0  0  0  0  0  0  0  0  0  0  0  0
   -5.9180    2.4350   -0.4840 C   0  0  0  0  0  0  0  0  0  0  0  0
   -5.4990    1.7720   -1.6100 C   0  0  0  0  0  0  0  0  0  0  0  0
   -4.6520    0.7340   -1.2240 C   0  0  0  0  0  0  0  0  0  0  0  0
   -3.9800   -0.2210   -2.0980 C   0  0  0  0  0  0  0  0  0  0  0  0
   -2.6890   -0.3820   -2.3230 C   0  0  0  0  0  0  0  0  0  0  0  0
   -1.5810    0.3660   -1.7520 C   0  0  0  0  0  0  0  0  0  0  0  0
    3.7960   -0.6990    1.2260 C   0  0  0  0  0  0  0  0  0  0  0  0
    4.7860    0.1560    1.6620 C   0  0  0  0  0  0  0  0  0  0  0  0
  1  2  1  0
  2  3  2  0
  2 27  1  0
  3  4  1  0
  4  5  2  0
  5  6  1  0
  5 26  1  0
  6  7  1  6
  6  8  1  0
  8  9  2  0
  8 12  1  0
  9 10  1  0
 10 11  2  0
 11 12  1  0
 11 25  1  0
 12 13  1  0
 13 14  1  0
 14 15  1  0
 15 16  1  0
 16 17  1  0
 17 18  1  0
 18 19  1  0
 18 22  2  0
 19 20  1  0
 20 21  2  0
 21 22  1  0
 22 23  1  0
 23 24  2  0
 24 25  1  0
 26 27  2  0
M  CHG  1  16   1
M  END
