
     RDKit          3D

 27 30  0  0  0  0  0  0  0  0999 V2000
    7.1690    1.2710   -1.6450 C   0  0  0  0  0  0  0  0  0  0  0  0
    5.9570    1.3260   -0.7720 C   0  0  0  0  0  0  0  0  0  0  0  0
    4.7700    0.9180   -1.4980 N   0  0  0  0  0  0  0  0  0  0  0  0
    3.4960    0.9040   -0.8370 C   0  0  0  0  0  0  0  0  0  0  0  0
    3.4450    1.2480    0.3640 O   0  0  0  0  0  0  0  0  0  0  0  0
    2.3130    0.5210   -1.4820 N   0  0  0  0  0  0  0  0  0  0  0  0
    1.0010    0.4110   -0.9590 C   0  0  0  0  0  0  0  0  0  0  0  0
    0.8360   -0.6750    0.0110 C   0  0  1  0  0  0  0  0  0  0  0  0
    1.6110   -0.7070    1.2280 C   0  0  0  0  0  0  0  0  0  0  0  0
    1.3500   -0.0090    2.3800 C   0  0  0  0  0  0  0  0  0  0  0  0
    2.1130   -0.1350    3.5110 C   0  0  0  0  0  0  0  0  0  0  0  0
    3.1570   -0.9660    3.5120 N   0  0  0  0  0  0  0  0  0  0  0  0
    3.4880   -1.6860    2.4390 C   0  0  0  0  0  0  0  0  0  0  0  0
    2.7320   -1.5670    1.3050 C   0  0  0  0  0  0  0  0  0  0  0  0
   -0.5620   -1.0190    0.2720 N   0  0  0  0  0  0  0  0  0  0  0  0
   -0.9850   -1.7280   -1.0010 C   0  0  0  0  0  0  0  0  0  0  0  0
   -2.2900   -2.3560   -0.6140 C   0  0  0  0  0  0  0  0  0  0  0  0
   -3.1030   -1.6650    0.1450 C   0  0  0  0  0  0  0  0  0  0  0  0
   -4.4040   -2.2360    0.5540 C   0  0  0  0  0  0  0  0  0  0  0  0
   -5.5110   -1.2300    0.5180 C   0  0  0  0  0  0  0  0  0  0  0  0
   -5.1000    0.1080    0.0060 C   0  0  0  0  0  0  0  0  0  0  0  0
   -3.8820    0.5650    0.0570 C   0  0  0  0  0  0  0  0  0  0  0  0
   -3.8340    1.8760   -0.5180 C   0  0  0  0  0  0  0  0  0  0  0  0
   -5.0640    2.1600   -0.9040 C   0  0  0  0  0  0  0  0  0  0  0  0
   -5.9110    1.0930   -0.6060 N   0  0  0  0  0  0  0  0  0  0  0  0
   -2.8100   -0.2840    0.6510 C   0  0  2  0  0  0  0  0  0  0  0  0
   -1.4280    0.1640    0.3070 C   0  0  0  0  0  0  0  0  0  0  0  0
  1  2  1  0
  2  3  1  0
  3  4  1  0
  4  5  2  0
  4  6  1  0
  6  7  1  0
  8  7  1  1
  8  9  1  0
  8 15  1  0
  9 10  2  0
  9 14  1  0
 10 11  1  0
 11 12  2  0
 12 13  1  0
 13 14  2  0
 15 16  1  0
 15 27  1  0
 16 17  1  0
 17 18  2  0
 18 19  1  0
 18 26  1  0
 19 20  1  0
 20 21  1  0
 21 22  2  0
 21 25  1  0
 22 23  1  0
 22 26  1  0
 23 24  2  0
 24 25  1  0
 26 27  1  6
M  CHG  1  25   1
M  END
