
     RDKit          3D

 27 31  0  0  0  0  0  0  0  0999 V2000
   -4.7190    0.7560    0.8030 C   0  0  0  0  0  0  0  0  0  0  0  0
   -3.9580   -0.3050    0.0200 C   0  0  1  0  0  0  0  0  0  0  0  0
   -5.0210   -1.2490   -0.5460 C   0  0  0  0  0  0  0  0  0  0  0  0
   -3.2370    0.2840   -1.1640 C   0  0  0  0  0  0  0  0  0  0  0  0
   -1.9950    1.0600   -0.7220 C   0  0  0  0  0  0  0  0  0  0  0  0
   -1.2060    0.2740    0.1900 N   0  0  0  0  0  0  0  0  0  0  0  0
    0.1370   -0.1140    0.0610 C   0  0  0  0  0  0  0  0  0  0  0  0
    0.5010   -1.4120   -0.0500 N   0  0  0  0  0  0  0  0  0  0  0  0
    1.7890   -1.7960   -0.1850 C   0  0  0  0  0  0  0  0  0  0  0  0
    2.1230   -3.1380   -0.2960 C   0  0  0  0  0  0  0  0  0  0  0  0
    3.4210   -3.5700   -0.4340 C   0  0  0  0  0  0  0  0  0  0  0  0
    4.4380   -2.6520   -0.4660 C   0  0  0  0  0  0  0  0  0  0  0  0
    5.7910   -3.0190   -0.6050 N   0  0  0  0  0  0  0  0  0  0  0  0
    4.1200   -1.3000   -0.3550 C   0  0  0  0  0  0  0  0  0  0  0  0
    2.8160   -0.8780   -0.2170 C   0  0  0  0  0  0  0  0  0  0  0  0
    2.4940    0.4460   -0.1070 C   0  0  0  0  0  0  0  0  0  0  0  0
    3.4890    1.3970   -0.1320 C   0  0  0  0  0  0  0  0  0  0  0  0
    3.1310    2.7470   -0.0150 C   0  0  0  0  0  0  0  0  0  0  0  0
    1.8120    3.1020    0.1210 C   0  0  0  0  0  0  0  0  0  0  0  0
    0.8270    2.1410    0.1440 C   0  0  0  0  0  0  0  0  0  0  0  0
    1.1450    0.8150    0.0310 C   0  0  0  0  0  0  0  0  0  0  0  0
    1.6950    4.4850    0.2200 O   0  0  0  0  0  0  0  0  0  0  0  0
    2.9230    5.0140   -0.2830 C   0  0  0  0  0  0  0  0  0  0  0  0
    3.8650    3.9590   -0.0000 N   0  0  0  0  0  0  0  0  0  0  0  0
   -1.9330   -0.1820    1.3910 C   0  0  0  0  0  0  0  0  0  0  0  0
   -3.0990   -1.0510    0.9770 C   0  0  2  0  0  0  0  0  0  0  0  0
   -2.6680   -2.2940    0.3750 N   0  0  0  0  0  0  0  0  0  0  0  0
  2  1  1  1
  2  3  1  0
  2  4  1  0
  2 26  1  0
  4  5  1  0
  5  6  1  0
  6  7  1  0
  6 25  1  0
  7  8  2  0
  7 21  1  0
  8  9  1  0
  9 10  2  0
  9 15  1  0
 10 11  1  0
 11 12  2  0
 12 13  1  0
 12 14  1  0
 14 15  2  0
 15 16  1  0
 16 17  2  0
 16 21  1  0
 17 18  1  0
 18 19  2  0
 18 24  1  0
 19 20  1  0
 19 22  1  0
 20 21  2  0
 22 23  1  0
 23 24  1  0
 25 26  1  0
 26 27  1  6
M  CHG  1  27   1
M  END
