
     RDKit          3D

 27 30  0  0  0  0  0  0  0  0999 V2000
   -3.8650   -1.7240    2.9040 C   0  0  0  0  0  0  0  0  0  0  0  0
   -3.5380   -0.9410    1.6500 C   0  0  0  0  0  0  0  0  0  0  0  0
   -2.4420   -0.2320    1.5600 C   0  0  0  0  0  0  0  0  0  0  0  0
   -2.0500    0.5330    0.4320 N   0  0  0  0  0  0  0  0  0  0  0  0
   -0.8340    1.2900    0.3620 C   0  0  0  0  0  0  0  0  0  0  0  0
   -0.9470    2.5600    0.4510 N   0  0  0  0  0  0  0  0  0  0  0  0
    0.4430    0.5910    0.1750 C   0  0  0  0  0  0  0  0  0  0  0  0
    1.6610    1.0300    0.0540 C   0  0  0  0  0  0  0  0  0  0  0  0
    2.0540    2.3940    0.0770 N   0  0  0  0  0  0  0  0  0  0  0  0
    2.6100   -0.0300   -0.1170 N   0  0  0  0  0  0  0  0  0  0  0  0
    4.0150    0.0320    0.0660 C   0  0  0  0  0  0  0  0  0  0  0  0
    4.9080    0.3350   -0.9500 C   0  0  0  0  0  0  0  0  0  0  0  0
    6.2780    0.3820   -0.7050 C   0  0  0  0  0  0  0  0  0  0  0  0
    6.7810    0.1300    0.5500 C   0  0  0  0  0  0  0  0  0  0  0  0
    5.8930   -0.1770    1.5850 C   0  0  0  0  0  0  0  0  0  0  0  0
    4.5560   -0.2140    1.3060 C   0  0  0  0  0  0  0  0  0  0  0  0
    1.8490   -1.2000   -0.5320 C   0  0  1  0  0  0  0  0  0  0  0  0
    2.4290   -2.4980   -0.0830 C   0  0  0  0  0  0  0  0  0  0  0  0
    0.5300   -0.8860    0.1000 C   0  0  0  0  0  0  0  0  0  0  0  0
   -0.3510   -1.6840    0.5000 O   0  0  0  0  0  0  0  0  0  0  0  0
   -2.9010    0.5440   -0.7000 C   0  0  0  0  0  0  0  0  0  0  0  0
   -2.6740    1.2060   -1.8080 C   0  0  0  0  0  0  0  0  0  0  0  0
   -3.5440    1.2290   -2.9930 C   0  0  0  0  0  0  0  0  0  0  0  0
   -4.7320    0.4430   -2.8410 N   0  0  0  0  0  0  0  0  0  0  0  0
   -4.9700   -0.2650   -1.6520 C   0  0  0  0  0  0  0  0  0  0  0  0
   -4.1350   -0.2440   -0.6220 C   0  0  0  0  0  0  0  0  0  0  0  0
   -4.5190   -1.0430    0.5650 C   0  0  0  0  0  0  0  0  0  0  0  0
  1  2  1  0
  2  3  2  0
  2 27  1  0
  3  4  1  0
  4  5  1  0
  4 21  1  0
  5  6  2  0
  5  7  1  0
  7  8  2  0
  7 19  1  0
  8  9  1  0
  8 10  1  0
 10 11  1  0
 10 17  1  0
 11 12  2  0
 11 16  1  0
 12 13  1  0
 13 14  2  0
 14 15  1  0
 15 16  2  0
 17 18  1  1
 17 19  1  0
 19 20  2  0
 21 22  2  0
 21 26  1  0
 22 23  1  0
 23 24  1  0
 24 25  1  0
 25 26  2  0
 26 27  1  0
M  CHG  1   6   1
M  END
