
     RDKit          3D

 33 36  0  0  0  0  0  0  0  0999 V2000
   -5.8560    0.5910    3.1660 C   0  0  0  0  0  0  0  0  0  0  0  0
   -5.6050    0.5660    1.7000 C   0  0  0  0  0  0  0  0  0  0  0  0
   -5.6630    1.5960    0.8720 N   0  0  0  0  0  0  0  0  0  0  0  0
   -5.3680    1.1650   -0.3910 C   0  0  0  0  0  0  0  0  0  0  0  0
   -5.3570    2.1050   -1.5210 C   0  0  1  0  0  0  0  0  0  0  0  0
   -5.1390    1.5880   -2.8950 C   0  0  0  0  0  0  0  0  0  0  0  0
   -6.5120    2.0870   -2.4860 C   0  0  0  0  0  0  0  0  0  0  0  0
   -5.1260   -0.1540   -0.3230 N   0  0  0  0  0  0  0  0  0  0  0  0
   -4.7740   -1.0160   -1.3180 N   0  0  0  0  0  0  0  0  0  0  0  0
   -3.6240   -1.4060   -1.7000 C   0  0  0  0  0  0  0  0  0  0  0  0
   -2.3630   -1.0130   -1.1530 C   0  0  0  0  0  0  0  0  0  0  0  0
   -1.9210   -0.1660   -0.1860 C   0  0  0  0  0  0  0  0  0  0  0  0
   -0.6080   -0.0640    0.0630 C   0  0  0  0  0  0  0  0  0  0  0  0
    0.3170   -0.7580   -0.5920 C   0  0  0  0  0  0  0  0  0  0  0  0
    1.7220   -0.9390   -0.6170 C   0  0  0  0  0  0  0  0  0  0  0  0
    2.1760   -1.7450   -1.5270 O   0  0  0  0  0  0  0  0  0  0  0  0
    2.7200   -0.3780    0.1960 N   0  0  0  0  0  0  0  0  0  0  0  0
    2.4300    0.5070    1.2950 C   0  0  0  0  0  0  0  0  0  0  0  0
    2.3090    1.9450    0.9520 C   0  0  0  0  0  0  0  0  0  0  0  0
    2.0230    2.6650    2.1380 O   0  0  0  0  0  0  0  0  0  0  0  0
    4.1190   -0.6960   -0.0760 C   0  0  2  0  0  0  0  0  0  0  0  0
    4.7960   -1.3930    1.0840 C   0  0  0  0  0  0  0  0  0  0  0  0
    6.1810   -1.8710    0.6780 C   0  0  0  0  0  0  0  0  0  0  0  0
    6.5150   -1.4360   -0.7310 C   0  0  0  0  0  0  0  0  0  0  0  0
    6.2450   -0.0110   -1.0350 C   0  0  2  0  0  0  0  0  0  0  0  0
    7.3540    0.8720   -0.7380 N   0  0  0  0  0  0  0  0  0  0  0  0
    4.9560    0.4830   -0.4320 C   0  0  0  0  0  0  0  0  0  0  0  0
   -0.7480   -1.7180   -1.7470 S   0  0  0  0  0  0  0  0  0  0  0  0
   -5.2690   -0.5550    0.9750 C   0  0  0  0  0  0  0  0  0  0  0  0
   -5.0950   -1.8770    1.5570 C   0  0  0  0  0  0  0  0  0  0  0  0
   -5.5970   -2.9680    1.0290 C   0  0  0  0  0  0  0  0  0  0  0  0
   -5.3780   -4.1700    1.6480 F   0  0  0  0  0  0  0  0  0  0  0  0
   -6.5580   -2.9820   -0.4110 Cl  0  0  0  0  0  0  0  0  0  0  0  0
  1  2  1  0
  2  3  1  0
  2 29  2  0
  3  4  2  0
  5  4  1  1
  4  8  1  0
  5  6  1  0
  5  7  1  0
  6  7  1  0
  8  9  1  0
  8 29  1  0
  9 10  2  3
 10 11  1  0
 11 12  2  0
 11 28  1  0
 12 13  1  0
 13 14  2  0
 14 15  1  0
 14 28  1  0
 15 16  2  0
 15 17  1  0
 17 18  1  0
 21 17  1  1
 18 19  1  0
 19 20  1  0
 21 22  1  0
 21 27  1  0
 22 23  1  0
 23 24  1  0
 24 25  1  0
 25 26  1  1
 25 27  1  0
 29 30  1  0
 30 31  2  3
 31 32  1  0
 31 33  1  0
M  CHG  1  26   1
M  END
