
     RDKit          3D

 33 36  0  0  0  0  0  0  0  0999 V2000
   -2.6120   -2.6560    0.3680 C   0  0  0  0  0  0  0  0  0  0  0  0
   -3.3190   -1.2860    0.5290 C   0  0  1  0  0  0  0  0  0  0  0  0
   -2.6160   -0.2650   -0.1480 N   0  0  0  0  0  0  0  0  0  0  0  0
   -1.8740    0.5940    0.7160 C   0  0  2  0  0  0  0  0  0  0  0  0
   -2.4680    0.6390    2.0920 C   0  0  0  0  0  0  0  0  0  0  0  0
   -1.8930    2.0120    0.1990 C   0  0  0  0  0  0  0  0  0  0  0  0
   -2.6820    2.9330    0.8250 C   0  0  0  0  0  0  0  0  0  0  0  0
   -2.7150    4.2250    0.3330 C   0  0  0  0  0  0  0  0  0  0  0  0
   -1.9580    4.5550   -0.7710 C   0  0  0  0  0  0  0  0  0  0  0  0
   -1.1690    3.5810   -1.3750 C   0  0  0  0  0  0  0  0  0  0  0  0
   -0.4500    3.9620   -2.4550 F   0  0  0  0  0  0  0  0  0  0  0  0
   -1.1260    2.2910   -0.8970 C   0  0  0  0  0  0  0  0  0  0  0  0
   -0.3280    1.3060   -1.4960 N   0  0  0  0  0  0  0  0  0  0  0  0
    1.0130    1.1130   -1.0220 C   0  0  0  0  0  0  0  0  0  0  0  0
    1.4920    1.7980   -0.0880 O   0  0  0  0  0  0  0  0  0  0  0  0
    1.8430    0.1370   -1.5980 N   0  0  0  0  0  0  0  0  0  0  0  0
    3.1590   -0.0890   -1.1730 N   0  0  0  0  0  0  0  0  0  0  0  0
    4.1600    0.9060   -1.2310 C   0  0  0  0  0  0  0  0  0  0  0  0
    3.7850    2.0220   -1.6970 O   0  0  0  0  0  0  0  0  0  0  0  0
    5.5310    0.6880   -0.7930 C   0  0  0  0  0  0  0  0  0  0  0  0
    6.5150    1.7710   -0.9120 C   0  0  0  0  0  0  0  0  0  0  0  0
    8.0310    1.0410   -0.2590 S   0  0  0  0  0  0  0  0  0  0  0  0
    7.1420   -0.6090    0.0830 C   0  0  0  0  0  0  0  0  0  0  0  0
    8.0010   -1.6700    0.6700 C   0  0  2  0  0  0  0  0  0  0  0  0
    7.5100   -3.0320    0.4900 C   0  0  0  0  0  0  0  0  0  0  0  0
    7.4730   -2.3970    1.8640 C   0  0  0  0  0  0  0  0  0  0  0  0
    6.1120   -0.3610   -0.2740 N   0  0  0  0  0  0  0  0  0  0  0  0
   -4.7520   -1.4480    0.0970 C   0  0  0  0  0  0  0  0  0  0  0  0
   -5.3880   -0.8860   -0.8950 C   0  0  0  0  0  0  0  0  0  0  0  0
   -6.8090   -1.3660   -0.9220 C   0  0  0  0  0  0  0  0  0  0  0  0
   -6.8540   -2.2950    0.2240 C   0  0  0  0  0  0  0  0  0  0  0  0
   -8.2670   -3.1940    0.7240 Cl  0  0  0  0  0  0  0  0  0  0  0  0
   -5.6850   -2.3390    0.8000 C   0  0  0  0  0  0  0  0  0  0  0  0
  2  1  1  6
  2  3  1  0
  2 28  1  0
  3  4  1  0
  4  5  1  1
  4  6  1  0
  6  7  2  0
  6 12  1  0
  7  8  1  0
  8  9  2  0
  9 10  1  0
 10 11  1  0
 10 12  2  0
 12 13  1  0
 13 14  1  0
 14 15  2  0
 14 16  1  0
 16 17  1  0
 17 18  1  0
 18 19  2  0
 18 20  1  0
 20 21  2  0
 20 27  1  0
 21 22  1  0
 22 23  1  0
 24 23  1  6
 23 27  2  0
 24 25  1  0
 24 26  1  0
 25 26  1  0
 28 29  2  0
 28 33  1  0
 29 30  1  0
 30 31  1  0
 31 32  1  0
 31 33  2  0
M  CHG  1   3   1
M  END
