
     RDKit          3D

 33 36  0  0  0  0  0  0  0  0999 V2000
    6.4610    2.3200    1.3960 N   0  0  0  0  0  0  0  0  0  0  0  0
    5.2360    1.5570    1.4230 C   0  0  0  0  0  0  0  0  0  0  0  0
    5.0980    0.7100    0.1470 C   0  0  0  0  0  0  0  0  0  0  0  0
    3.8570   -0.0500    0.1980 N   0  0  0  0  0  0  0  0  0  0  0  0
    2.6780    0.5650   -0.3450 C   0  0  0  0  0  0  0  0  0  0  0  0
    2.5670    0.4220   -1.8400 C   0  0  0  0  0  0  0  0  0  0  0  0
    3.2750   -0.7890   -2.3360 C   0  0  0  0  0  0  0  0  0  0  0  0
    4.4180   -1.0120   -1.8740 O   0  0  0  0  0  0  0  0  0  0  0  0
    2.7180   -1.6990   -3.3060 C   0  0  0  0  0  0  0  0  0  0  0  0
    3.9510   -2.5800   -4.2530 Cl  0  0  0  0  0  0  0  0  0  0  0  0
    1.4630   -1.9660   -3.5720 C   0  0  0  0  0  0  0  0  0  0  0  0
    0.2530   -1.4360   -2.9780 C   0  0  0  0  0  0  0  0  0  0  0  0
   -0.4130   -1.7900   -1.8960 C   0  0  0  0  0  0  0  0  0  0  0  0
   -0.1280   -2.8400   -0.9530 C   0  0  0  0  0  0  0  0  0  0  0  0
   -1.3470   -3.3440   -0.5930 C   0  0  0  0  0  0  0  0  0  0  0  0
   -2.3770   -2.6090   -1.2850 N   0  0  0  0  0  0  0  0  0  0  0  0
   -1.7740   -1.2470   -1.3830 C   0  0  1  0  0  0  0  0  0  0  0  0
   -1.6030   -0.4550    0.1980 S   0  0  0  0  0  0  0  0  0  0  0  0
   -3.1920    0.1590    0.7020 C   0  0  0  0  0  0  0  0  0  0  0  0
   -3.6020    1.4270    0.3750 C   0  0  0  0  0  0  0  0  0  0  0  0
   -4.8420    1.9430    0.7530 C   0  0  0  0  0  0  0  0  0  0  0  0
   -5.6410    1.1010    1.4810 C   0  0  0  0  0  0  0  0  0  0  0  0
   -5.2760   -0.1700    1.8310 C   0  0  0  0  0  0  0  0  0  0  0  0
   -4.0240   -0.6530    1.4330 C   0  0  0  0  0  0  0  0  0  0  0  0
   -3.6680   -1.9140    1.7830 F   0  0  0  0  0  0  0  0  0  0  0  0
   -6.9250    1.8180    1.8060 C   0  0  0  0  0  0  0  0  0  0  0  0
   -6.4950    3.2910    1.7130 C   0  0  0  0  0  0  0  0  0  0  0  0
   -5.5350    3.2190    0.5530 C   0  0  0  0  0  0  0  0  0  0  0  0
    1.1860   -3.2900   -0.4230 C   0  0  0  0  0  0  0  0  0  0  0  0
    1.8540   -2.6040    0.3230 N   0  0  0  0  0  0  0  0  0  0  0  0
    2.8070   -2.1700    1.1040 N   0  0  0  0  0  0  0  0  0  0  0  0
    3.9180   -1.3440    0.7840 C   0  0  0  0  0  0  0  0  0  0  0  0
    5.0770   -1.8530    1.0690 O   0  0  0  0  0  0  0  0  0  0  0  0
  1  2  1  0
  2  3  1  0
  3  4  1  0
  4  5  1  0
  4 32  1  0
  5  6  1  0
  6  7  1  0
  7  8  2  0
  7  9  1  0
  9 10  1  0
  9 11  2  0
 11 12  1  0
 12 13  2  0
 13 14  1  0
 13 17  1  0
 14 15  2  0
 14 29  1  0
 15 16  1  0
 16 17  1  0
 17 18  1  1
 18 19  1  0
 19 20  2  0
 19 24  1  0
 20 21  1  0
 21 22  2  0
 21 28  1  0
 22 23  1  0
 22 26  1  0
 23 24  2  0
 24 25  1  0
 26 27  1  0
 27 28  1  0
 29 30  2  0
 30 31  1  0
 31 32  1  0
 32 33  2  0
M  CHG  1   1   1
M  END
