
     RDKit          3D

 33 35  0  0  0  0  0  0  0  0999 V2000
   -1.6200    6.8860   -0.3510 C   0  0  0  0  0  0  0  0  0  0  0  0
   -1.4540    5.6460   -1.1140 C   0  0  0  0  0  0  0  0  0  0  0  0
   -1.9480    5.6250   -2.7950 Cl  0  0  0  0  0  0  0  0  0  0  0  0
   -0.9350    4.5560   -0.5310 C   0  0  0  0  0  0  0  0  0  0  0  0
   -0.7710    3.3330   -1.2850 C   0  0  0  0  0  0  0  0  0  0  0  0
   -0.2950    2.1990   -0.9560 C   0  0  0  0  0  0  0  0  0  0  0  0
   -0.1850    0.9610   -1.8480 C   0  0  0  0  0  0  0  0  0  0  0  0
   -0.9150    0.0190   -0.9000 N   0  0  0  0  0  0  0  0  0  0  0  0
   -2.2280    0.6360   -0.8520 C   0  0  0  0  0  0  0  0  0  0  0  0
   -3.3390   -0.2510   -0.5930 C   0  0  0  0  0  0  0  0  0  0  0  0
   -3.2320   -1.5540   -0.5000 C   0  0  0  0  0  0  0  0  0  0  0  0
   -4.3440   -2.4640   -0.2370 C   0  0  0  0  0  0  0  0  0  0  0  0
   -4.2370   -3.7860   -0.1420 C   0  0  0  0  0  0  0  0  0  0  0  0
   -5.5290   -4.3020    0.1170 N   0  0  0  0  0  0  0  0  0  0  0  0
   -6.3820   -3.2150    0.1660 N   0  0  0  0  0  0  0  0  0  0  0  0
   -5.7390   -2.1100   -0.0350 C   0  0  0  0  0  0  0  0  0  0  0  0
   -6.3320   -0.9030   -0.0400 F   0  0  0  0  0  0  0  0  0  0  0  0
   -0.1860    0.2950    0.3610 C   0  0  1  0  0  0  0  0  0  0  0  0
   -0.9180    0.0750    1.6050 C   0  0  0  0  0  0  0  0  0  0  0  0
    1.0920   -0.5600    0.3630 C   0  0  0  0  0  0  0  0  0  0  0  0
    0.8320   -1.9640    0.2810 N   0  0  0  0  0  0  0  0  0  0  0  0
    1.8960   -2.8830    0.1880 C   0  0  0  0  0  0  0  0  0  0  0  0
    1.4130   -4.4860    0.1130 S   0  0  0  0  0  0  0  0  0  0  0  0
    3.2680   -2.6440    0.1520 N   0  0  0  0  0  0  0  0  0  0  0  0
    4.1720   -3.8070    0.0560 C   0  0  0  0  0  0  0  0  0  0  0  0
    5.1710   -3.4450   -1.0230 C   0  0  0  0  0  0  0  0  0  0  0  0
    6.0190   -2.4440   -0.5640 O   0  0  0  0  0  0  0  0  0  0  0  0
    5.4840   -1.6800    0.4370 C   0  0  0  0  0  0  0  0  0  0  0  0
    3.9790   -1.3960    0.1830 C   0  0  0  0  0  0  0  0  0  0  0  0
    0.2880    1.7110    0.2920 C   0  0  0  0  0  0  0  0  0  0  0  0
    1.1020    2.3460    1.0820 C   0  0  0  0  0  0  0  0  0  0  0  0
    1.6810    1.8500    2.3490 C   0  0  0  0  0  0  0  0  0  0  0  0
    1.5450    3.6650    0.7650 O   0  0  0  0  0  0  0  0  0  0  0  0
  1  2  1  0
  2  3  1  0
  2  4  2  3
  4  5  1  0
  5  6  2  3
  6  7  1  0
  6 30  1  0
  7  8  1  0
  8  9  1  0
  8 18  1  0
  9 10  1  0
 10 11  2  3
 11 12  1  0
 12 13  2  0
 12 16  1  0
 13 14  1  0
 14 15  1  0
 15 16  2  0
 16 17  1  0
 18 19  1  1
 18 20  1  0
 18 30  1  0
 20 21  1  0
 21 22  1  0
 22 23  2  0
 22 24  1  0
 24 25  1  0
 24 29  1  0
 25 26  1  0
 26 27  1  0
 27 28  1  0
 28 29  1  0
 30 31  2  3
 31 32  1  0
 31 33  1  0
M  CHG  1  14   1
M  END
