
     RDKit          3D

 33 36  0  0  0  0  0  0  0  0999 V2000
    3.2290   -1.5430    2.1670 C   0  0  0  0  0  0  0  0  0  0  0  0
    2.4100   -2.5880    1.4370 C   0  0  2  0  0  0  0  0  0  0  0  0
    3.5200   -4.0420    1.2400 S   0  0  0  0  0  0  0  0  0  0  0  0
    2.7590   -5.0020   -0.1330 C   0  0  0  0  0  0  0  0  0  0  0  0
    1.3000   -4.5170   -0.1320 C   0  0  0  0  0  0  0  0  0  0  0  0
    1.3130   -3.1440   -0.7710 C   0  0  0  0  0  0  0  0  0  0  0  0
    1.9710   -2.0940    0.0780 C   0  0  1  0  0  0  0  0  0  0  0  0
    1.1370   -0.8880    0.1690 N   0  0  0  0  0  0  0  0  0  0  0  0
    1.6380    0.3220   -0.3930 C   0  0  0  0  0  0  0  0  0  0  0  0
    1.3510    0.5250   -1.8570 C   0  0  0  0  0  0  0  0  0  0  0  0
    2.0040    1.8140   -2.2600 C   0  0  0  0  0  0  0  0  0  0  0  0
    1.3730    3.0170   -2.2290 C   0  0  0  0  0  0  0  0  0  0  0  0
    2.0820    4.1630   -2.6180 C   0  0  0  0  0  0  0  0  0  0  0  0
    3.3910    4.0030   -3.0140 C   0  0  0  0  0  0  0  0  0  0  0  0
    3.9450    2.7790   -3.0170 N   0  0  0  0  0  0  0  0  0  0  0  0
    3.3070    1.7020   -2.6600 N   0  0  0  0  0  0  0  0  0  0  0  0
   -0.1150   -1.0090    0.8010 C   0  0  0  0  0  0  0  0  0  0  0  0
   -0.4400   -2.1300    1.2340 O   0  0  0  0  0  0  0  0  0  0  0  0
   -0.9660    0.1170    0.9400 N   0  0  0  0  0  0  0  0  0  0  0  0
   -2.2210    0.0780    1.6020 C   0  0  0  0  0  0  0  0  0  0  0  0
   -2.4700   -0.9430    2.5150 C   0  0  0  0  0  0  0  0  0  0  0  0
   -3.6340   -0.9560    3.2580 C   0  0  0  0  0  0  0  0  0  0  0  0
   -4.5350    0.0530    3.0820 C   0  0  0  0  0  0  0  0  0  0  0  0
   -6.0490    0.1030    4.0040 Cl  0  0  0  0  0  0  0  0  0  0  0  0
   -4.2950    1.0600    2.1860 C   0  0  0  0  0  0  0  0  0  0  0  0
   -5.0340    2.1760    1.8220 C   0  0  0  0  0  0  0  0  0  0  0  0
   -6.2480    2.4640    2.3800 F   0  0  0  0  0  0  0  0  0  0  0  0
   -4.3610    2.8300    0.9060 N   0  0  0  0  0  0  0  0  0  0  0  0
   -3.1770    2.2130    0.6120 C   0  0  0  0  0  0  0  0  0  0  0  0
   -2.2420    2.6850   -0.4250 C   0  0  0  0  0  0  0  0  0  0  0  0
   -2.4860    1.9380   -1.7120 C   0  0  0  0  0  0  0  0  0  0  0  0
   -2.3730    0.5840   -1.6670 O   0  0  0  0  0  0  0  0  0  0  0  0
   -3.1320    1.1030    1.4170 C   0  0  0  0  0  0  0  0  0  0  0  0
  2  1  1  6
  2  3  1  0
  2  7  1  0
  3  4  1  0
  4  5  1  0
  5  6  1  0
  6  7  1  0
  7  8  1  1
  8  9  1  0
  8 17  1  0
  9 10  1  0
 10 11  1  0
 11 12  2  0
 11 16  1  0
 12 13  1  0
 13 14  2  0
 14 15  1  0
 15 16  2  0
 17 18  2  0
 17 19  1  0
 19 20  1  0
 20 21  2  0
 20 33  1  0
 21 22  1  0
 22 23  2  0
 23 24  1  0
 23 25  1  0
 25 26  2  0
 25 33  1  0
 26 27  1  0
 26 28  1  0
 28 29  1  0
 29 30  1  0
 29 33  2  0
 30 31  1  0
 31 32  1  0
M  CHG  1  16   1
M  END
