
     RDKit          3D

  7  6  0  0  0  0  0  0  0  0999 V2000
    2.0300    0.2080   -0.8610 C   0  0  0  0  0  0  0  0  0  0  0  0
    1.8760   -0.3940    0.3770 O   0  0  0  0  0  0  0  0  0  0  0  0
    0.8020    0.1100    1.0920 C   0  0  0  0  0  0  0  0  0  0  0  0
   -0.4870   -0.0610    0.4080 C   0  0  0  0  0  0  0  0  0  0  0  0
   -1.0030   -1.3370    0.0580 N   0  0  0  0  0  0  0  0  0  0  0  0
   -1.1870    1.0090    0.1100 C   0  0  0  0  0  0  0  0  0  0  0  0
   -2.4000    0.8490   -0.5340 O   0  0  0  0  0  0  0  0  0  0  0  0
  1  2  1  0
  2  3  1  0
  3  4  1  0
  4  5  1  0
  4  6  2  3
  6  7  1  0
M  CHG  1   5   1
M  END
