
     RDKit          3D

  7  6  0  0  0  0  0  0  0  0999 V2000
   -2.1770   -0.4770   -0.3750 C   0  0  0  0  0  0  0  0  0  0  0  0
   -1.0730   -0.0780    0.4470 N   0  0  0  0  0  0  0  0  0  0  0  0
    0.1770   -0.0140   -0.2450 C   0  0  2  0  0  0  0  0  0  0  0  0
    1.0490   -1.1770    0.2460 C   0  0  0  0  0  0  0  0  0  0  0  0
    2.2900   -1.1750   -0.3910 O   0  0  0  0  0  0  0  0  0  0  0  0
    0.9380    1.2520    0.1200 C   0  0  0  0  0  0  0  0  0  0  0  0
    0.1710    2.3760   -0.2300 O   0  0  0  0  0  0  0  0  0  0  0  0
  1  2  1  0
  2  3  1  0
  3  4  1  1
  3  6  1  0
  4  5  1  0
  6  7  1  0
M  CHG  1   2   1
M  END
