
     RDKit          3D

  6  5  0  0  0  0  0  0  0  0999 V2000
    1.1650   -0.3710    1.1980 N   0  0  0  0  0  0  0  0  0  0  0  0
    0.2930    0.1210    0.1880 C   0  0  0  0  0  0  0  0  0  0  0  0
    0.4940    1.3020   -0.3140 C   0  0  0  0  0  0  0  0  0  0  0  0
   -0.3460    1.7870   -1.2930 O   0  0  0  0  0  0  0  0  0  0  0  0
   -0.8470   -0.6630   -0.3200 C   0  0  0  0  0  0  0  0  0  0  0  0
   -0.4480   -1.8700   -0.8850 O   0  0  0  0  0  0  0  0  0  0  0  0
  1  2  1  0
  2  3  2  3
  2  5  1  0
  3  4  1  0
  5  6  1  0
M  END
