
     RDKit          3D

  7  6  0  0  0  0  0  0  0  0999 V2000
    2.2660    0.9690    0.1910 N   0  0  0  0  0  0  0  0  0  0  0  0
    1.9640   -0.2660   -0.5300 C   0  0  0  0  0  0  0  0  0  0  0  0
    0.4750   -0.5510   -0.5010 C   0  0  0  0  0  0  0  0  0  0  0  0
   -0.0010   -0.6940    0.7840 O   0  0  0  0  0  0  0  0  0  0  0  0
   -1.3410   -0.9530    0.7900 C   0  0  0  0  0  0  0  0  0  0  0  0
   -2.2210    0.0800    0.1750 C   0  0  0  0  0  0  0  0  0  0  0  0
   -2.0670    1.2900    0.8470 O   0  0  0  0  0  0  0  0  0  0  0  0
  1  2  1  0
  2  3  1  0
  3  4  1  0
  4  5  1  0
  5  6  1  0
  6  7  1  0
M  CHG  1   1   1
M  END
