
     RDKit          3D

  7  6  0  0  0  0  0  0  0  0999 V2000
   -1.1910   -2.2110    0.5040 N   0  0  0  0  0  0  0  0  0  0  0  0
   -1.1680   -0.9230    0.5560 C   0  0  0  0  0  0  0  0  0  0  0  0
    0.0270   -0.1790    0.1810 C   0  0  0  0  0  0  0  0  0  0  0  0
    1.0950   -0.8300   -0.2150 C   0  0  0  0  0  0  0  0  0  0  0  0
    2.2570   -0.1580   -0.5820 O   0  0  0  0  0  0  0  0  0  0  0  0
    0.0580    1.2970    0.2390 C   0  0  0  0  0  0  0  0  0  0  0  0
   -0.8990    1.8880   -0.5830 O   0  0  0  0  0  0  0  0  0  0  0  0
  1  2  2  0
  2  3  1  0
  3  4  2  3
  3  6  1  0
  4  5  1  0
  6  7  1  0
M  END
