
     RDKit          3D

 14 14  0  0  0  0  0  0  0  0999 V2000
    5.4950    1.5380   -0.9140 O   0  0  0  0  0  0  0  0  0  0  0  0
    5.3060    0.0300   -0.5300 P   0  0  0  0  0  0  0  0  0  0  0  0
    3.7710   -0.7470   -0.8900 O   0  0  0  0  0  0  0  0  0  0  0  0
    2.5710   -0.3090   -0.3390 C   0  0  0  0  0  0  0  0  0  0  0  0
    2.6430    0.6860    0.4430 O   0  0  0  0  0  0  0  0  0  0  0  0
    1.3540   -0.8990   -0.6040 O   0  0  0  0  0  0  0  0  0  0  0  0
    0.2020   -0.3720    0.0100 C   0  0  2  0  0  0  0  0  0  0  0  0
   -0.5810   -1.3910    0.7780 C   0  0  0  0  0  0  0  0  0  0  0  0
   -1.9070   -0.9710    0.5940 O   0  0  0  0  0  0  0  0  0  0  0  0
   -1.8460    0.2430   -0.0500 C   0  0  2  0  0  0  0  0  0  0  0  0
   -3.0740    0.5710   -0.7980 C   0  0  0  0  0  0  0  0  0  0  0  0
   -4.0760   -0.1920   -0.8390 O   0  0  0  0  0  0  0  0  0  0  0  0
   -3.1190    1.7750   -1.4860 O   0  0  0  0  0  0  0  0  0  0  0  0
   -0.7440    0.0710   -0.9220 O   0  0  0  0  0  0  0  0  0  0  0  0
  1  2  2  0
  2  3  1  0
  3  4  1  0
  4  5  2  0
  4  6  1  0
  7  6  1  6
  7  8  1  0
  7 14  1  0
  8  9  1  0
  9 10  1  0
 10 11  1  6
 10 14  1  0
 11 12  2  0
 11 13  1  0
M  END
