
     RDKit          3D

 14 14  0  0  0  0  0  0  0  0999 V2000
    0.3500   -0.8720    1.6350 O   0  0  0  0  0  0  0  0  0  0  0  0
   -0.0890    0.3230    1.6930 C   0  0  0  0  0  0  0  0  0  0  0  0
   -0.7620    0.9010    0.6240 O   0  0  0  0  0  0  0  0  0  0  0  0
   -0.9310    0.0910   -0.5260 C   0  0  2  0  0  0  0  0  0  0  0  0
    0.3210   -0.3500   -1.1130 C   0  0  0  0  0  0  0  0  0  0  0  0
    0.3340   -1.0720   -2.1330 O   0  0  0  0  0  0  0  0  0  0  0  0
    1.5230    0.0240   -0.5480 O   0  0  0  0  0  0  0  0  0  0  0  0
    3.0880   -0.4560   -1.1810 P   0  0  0  0  0  0  0  0  0  0  0  0
    4.1840    0.8870   -1.0560 O   0  0  0  0  0  0  0  0  0  0  0  0
    3.7070   -1.7030   -0.1150 O   0  0  0  0  0  0  0  0  0  0  0  0
   -1.8840    0.7250   -1.5130 C   0  0  0  0  0  0  0  0  0  0  0  0
   -3.0960    0.6370   -0.8310 O   0  0  0  0  0  0  0  0  0  0  0  0
   -2.8960   -0.2410    0.2330 C   0  0  0  0  0  0  0  0  0  0  0  0
   -1.7440   -0.9860   -0.0950 O   0  0  0  0  0  0  0  0  0  0  0  0
  1  2  2  0
  2  3  1  0
  4  3  1  1
  4  5  1  0
  4 11  1  0
  4 14  1  0
  5  6  2  0
  5  7  1  0
  7  8  1  0
  8  9  1  0
  8 10  1  0
 11 12  1  0
 12 13  1  0
 13 14  1  0
M  END
