
     RDKit          3D

 14 14  0  0  0  0  0  0  0  0999 V2000
   -1.1330   -1.9490    0.1310 O   0  0  0  0  0  0  0  0  0  0  0  0
   -1.0380   -1.2580    1.1520 C   0  0  0  0  0  0  0  0  0  0  0  0
   -1.4290   -1.8190    2.3600 O   0  0  0  0  0  0  0  0  0  0  0  0
   -0.5530    0.0090    1.0000 O   0  0  0  0  0  0  0  0  0  0  0  0
   -0.1400    0.6500   -0.1510 C   0  0  1  0  0  0  0  0  0  0  0  0
    0.9800    0.0280   -0.8710 C   0  0  0  0  0  0  0  0  0  0  0  0
    1.3820    0.5330   -1.8960 O   0  0  0  0  0  0  0  0  0  0  0  0
    1.7660   -1.4830   -0.2430 P   0  0  0  0  0  0  0  0  0  0  0  0
    3.4130   -1.2740    0.1840 O   0  0  0  0  0  0  0  0  0  0  0  0
    1.5410   -2.8080   -1.3170 O   0  0  0  0  0  0  0  0  0  0  0  0
   -1.2290    1.1540   -1.0460 C   0  0  0  0  0  0  0  0  0  0  0  0
   -1.6770    2.2860   -0.3990 O   0  0  0  0  0  0  0  0  0  0  0  0
   -0.8810    2.4450    0.7400 C   0  0  0  0  0  0  0  0  0  0  0  0
    0.3530    1.9060    0.3090 O   0  0  0  0  0  0  0  0  0  0  0  0
  1  2  2  0
  2  3  1  0
  2  4  1  0
  5  4  1  1
  5  6  1  0
  5 11  1  0
  5 14  1  0
  6  7  2  0
  6  8  1  0
  8  9  1  0
  8 10  1  0
 11 12  1  0
 12 13  1  0
 13 14  1  0
M  END
