
     RDKit          3D

 13 12  0  0  0  0  0  0  0  0999 V2000
   -0.3120   -0.9920   -0.3810 O   0  0  0  0  0  0  0  0  0  0  0  0
    0.1440    0.1660   -0.1920 C   0  0  0  0  0  0  0  0  0  0  0  0
    1.5560    0.2880    0.2540 C   0  0  0  0  0  0  0  0  0  0  0  0
    2.4710   -0.5440   -0.5720 C   0  0  0  0  0  0  0  0  0  0  0  0
    4.2290   -0.4320   -0.1150 P   0  0  0  0  0  0  0  0  0  0  0  0
    4.9030    1.1250   -0.2680 O   0  0  0  0  0  0  0  0  0  0  0  0
    4.6820   -1.2800    1.3070 O   0  0  0  0  0  0  0  0  0  0  0  0
   -0.6750    1.2370   -0.4120 O   0  0  0  0  0  0  0  0  0  0  0  0
   -1.9240    1.1760   -0.8210 O   0  0  0  0  0  0  0  0  0  0  0  0
   -2.7600    0.4880    0.0340 C   0  0  1  0  0  0  0  0  0  0  0  0
   -3.6100    1.3670    0.7270 O   0  0  0  0  0  0  0  0  0  0  0  0
   -3.5960   -0.5010   -0.7320 C   0  0  0  0  0  0  0  0  0  0  0  0
   -4.4630   -1.2100    0.0980 O   0  0  0  0  0  0  0  0  0  0  0  0
  1  2  2  0
  2  3  1  0
  2  8  1  0
  3  4  1  0
  4  5  1  0
  5  6  1  0
  5  7  1  0
  8  9  1  0
  9 10  1  0
 10 11  1  6
 10 12  1  0
 12 13  1  0
M  END
