
     RDKit          3D

 14 14  0  0  0  0  0  0  0  0999 V2000
   -2.9010    2.1400   -1.1020 O   0  0  0  0  0  0  0  0  0  0  0  0
   -3.0250    1.1180   -0.3830 C   0  0  0  0  0  0  0  0  0  0  0  0
   -4.3040    0.7680    0.0170 O   0  0  0  0  0  0  0  0  0  0  0  0
   -1.8310    0.3670   -0.0160 C   0  0  1  0  0  0  0  0  0  0  0  0
   -2.0980   -0.7440    0.7820 O   0  0  0  0  0  0  0  0  0  0  0  0
   -0.8110   -1.2800    0.9270 C   0  0  0  0  0  0  0  0  0  0  0  0
   -0.2340   -1.0090   -0.4670 C   0  0  2  0  0  0  0  0  0  0  0  0
    0.9060   -0.1650   -0.3320 O   0  0  0  0  0  0  0  0  0  0  0  0
    2.1490   -0.5130   -0.8120 C   0  0  0  0  0  0  0  0  0  0  0  0
    2.2920   -1.6090   -1.3890 O   0  0  0  0  0  0  0  0  0  0  0  0
    3.5940    0.5800   -0.6290 P   0  0  0  0  0  0  0  0  0  0  0  0
    3.1680    2.1000    0.0730 O   0  0  0  0  0  0  0  0  0  0  0  0
    4.7560   -0.2270    0.3880 O   0  0  0  0  0  0  0  0  0  0  0  0
   -1.2090   -0.2460   -1.1200 O   0  0  0  0  0  0  0  0  0  0  0  0
  1  2  2  0
  2  3  1  0
  4  2  1  6
  4  5  1  0
  4 14  1  0
  5  6  1  0
  6  7  1  0
  7  8  1  1
  7 14  1  0
  8  9  1  0
  9 10  2  0
  9 11  1  0
 11 12  1  0
 11 13  1  0
M  END
