
     RDKit          3D

 13 13  0  0  0  0  0  0  0  0999 V2000
    0.4430   -1.1270   -1.5620 C   0  0  0  0  0  0  0  0  0  0  0  0
   -0.1480   -0.4210   -0.3860 C   0  0  2  0  0  0  0  0  0  0  0  0
   -0.0180    0.9580   -0.5240 O   0  0  0  0  0  0  0  0  0  0  0  0
    1.6060    1.4510   -0.6440 P   0  0  0  0  0  0  0  0  0  0  0  0
    2.7520    0.2760   -0.1700 O   0  0  0  0  0  0  0  0  0  0  0  0
    1.9180    2.9670    0.1350 O   0  0  0  0  0  0  0  0  0  0  0  0
    0.4530   -0.7810    0.8050 O   0  0  0  0  0  0  0  0  0  0  0  0
    0.0430    0.0040    1.8530 C   0  0  0  0  0  0  0  0  0  0  0  0
   -1.3630    0.0870    1.9780 O   0  0  0  0  0  0  0  0  0  0  0  0
   -2.2050   -0.2890    0.9560 C   0  0  0  0  0  0  0  0  0  0  0  0
   -3.4400   -0.1920    1.0960 O   0  0  0  0  0  0  0  0  0  0  0  0
   -1.6090   -0.8040   -0.2920 C   0  0  1  0  0  0  0  0  0  0  0  0
   -2.3270   -0.4680   -1.4250 O   0  0  0  0  0  0  0  0  0  0  0  0
  2  1  1  6
  2  3  1  0
  2  7  1  0
  2 12  1  0
  3  4  1  0
  4  5  1  0
  4  6  1  0
  7  8  1  0
  8  9  1  0
  9 10  1  0
 10 11  2  0
 10 12  1  0
 12 13  1  6
M  END
