
     RDKit          3D

 23 23  0  0  0  0  0  0  0  0999 V2000
   -2.7180   -1.9740   -0.9040 O   0  0  0  0  0  0  0  0  0  0  0  0
   -3.8240   -1.4240   -0.8820 C   0  0  0  0  0  0  0  0  0  0  0  0
   -4.9070   -1.9680   -1.5740 O   0  0  0  0  0  0  0  0  0  0  0  0
   -4.0770   -0.1790   -0.1380 C   0  0  0  0  0  0  0  0  0  0  0  0
   -3.0700    0.3410    0.5160 C   0  0  0  0  0  0  0  0  0  0  0  0
   -1.7950   -0.3560    0.4480 N   0  0  0  0  0  0  0  0  0  0  0  0
   -0.7430    0.0990   -0.4080 C   0  0  0  0  0  0  0  0  0  0  0  0
    0.4910   -0.7770   -0.3170 C   0  0  2  0  0  0  0  0  0  0  0  0
    1.0070   -0.8100    0.9650 O   0  0  0  0  0  0  0  0  0  0  0  0
    1.4690   -0.2490   -1.3450 C   0  0  2  0  0  0  0  0  0  0  0  0
    0.7820   -0.2800   -2.5710 O   0  0  0  0  0  0  0  0  0  0  0  0
    2.6930   -1.1110   -1.5040 C   0  0  2  0  0  0  0  0  0  0  0  0
    2.4330   -2.4230   -1.8120 O   0  0  0  0  0  0  0  0  0  0  0  0
    3.6120   -0.9370   -0.3180 C   0  0  0  0  0  0  0  0  0  0  0  0
    3.7750    0.4210   -0.1280 O   0  0  0  0  0  0  0  0  0  0  0  0
    4.8210    0.5600    1.2290 P   0  0  0  0  0  0  0  0  0  0  0  0
    5.5690   -0.7340    1.7840 O   0  0  0  0  0  0  0  0  0  0  0  0
    4.8470    2.0190    1.9900 O   0  0  0  0  0  0  0  0  0  0  0  0
    5.8920    0.9300    0.1920 O   0  0  0  0  0  0  0  0  0  0  0  0
   -3.1720    1.5740    1.3010 C   0  0  0  0  0  0  0  0  0  0  0  0
   -4.4880    2.2120    1.3070 C   0  0  0  0  0  0  0  0  0  0  0  0
   -5.5270    1.5430    0.5470 C   0  0  0  0  0  0  0  0  0  0  0  0
   -5.3970    0.4330   -0.1430 C   0  0  0  0  0  0  0  0  0  0  0  0
  1  2  2  0
  2  3  1  0
  2  4  1  0
  4  5  2  0
  4 23  1  0
  5  6  1  0
  5 20  1  0
  6  7  1  0
  7  8  1  0
  8  9  1  1
  8 10  1  0
 10 11  1  6
 10 12  1  0
 12 13  1  1
 12 14  1  0
 14 15  1  0
 15 16  1  0
 16 17  1  0
 16 18  1  0
 16 19  1  0
 20 21  1  0
 21 22  1  0
 22 23  2  0
M  END
