
     RDKit          3D

 14 14  0  0  0  0  0  0  0  0999 V2000
   -2.8110    0.7070   -0.3450 O   0  0  0  0  0  0  0  0  0  0  0  0
   -1.8510   -0.0500    0.1060 C   0  0  0  0  0  0  0  0  0  0  0  0
   -2.1860   -1.1340    0.9050 O   0  0  0  0  0  0  0  0  0  0  0  0
   -1.2740   -2.2650    0.6960 C   0  0  0  0  0  0  0  0  0  0  0  0
   -0.8050   -2.1310   -0.6110 O   0  0  0  0  0  0  0  0  0  0  0  0
    0.1160   -1.0570   -0.7430 C   0  0  0  0  0  0  0  0  0  0  0  0
   -0.4270    0.1690   -0.1450 C   0  0  1  0  0  0  0  0  0  0  0  0
   -0.3170    1.4620   -0.9790 C   0  0  0  0  0  0  0  0  0  0  0  0
   -1.3360    2.2170   -0.4060 O   0  0  0  0  0  0  0  0  0  0  0  0
   -0.9850    2.4960    0.8320 O   0  0  0  0  0  0  0  0  0  0  0  0
    0.2950    0.4950    1.0370 O   0  0  0  0  0  0  0  0  0  0  0  0
    1.9340    0.8040    0.5570 P   0  0  0  0  0  0  0  0  0  0  0  0
    3.0860    0.1000    1.5890 O   0  0  0  0  0  0  0  0  0  0  0  0
    2.2940    0.3700   -1.0520 O   0  0  0  0  0  0  0  0  0  0  0  0
  1  2  2  0
  2  3  1  0
  2  7  1  0
  3  4  1  0
  4  5  1  0
  5  6  1  0
  6  7  1  0
  7  8  1  6
  7 11  1  0
  8  9  1  0
  9 10  1  0
 11 12  1  0
 12 13  1  0
 12 14  1  0
M  END
