
     RDKit          3D

 13 13  0  0  0  0  0  0  0  0999 V2000
   -1.2430   -1.3010   -0.8190 C   0  0  0  0  0  0  0  0  0  0  0  0
   -0.2870   -0.5750    0.0850 C   0  0  1  0  0  0  0  0  0  0  0  0
   -0.9170    0.0480    1.1570 O   0  0  0  0  0  0  0  0  0  0  0  0
   -2.0710    1.2160    0.6730 P   0  0  0  0  0  0  0  0  0  0  0  0
   -3.6640    0.7060    1.1520 O   0  0  0  0  0  0  0  0  0  0  0  0
   -1.9930    1.5640   -1.0240 O   0  0  0  0  0  0  0  0  0  0  0  0
    0.7100   -1.5760    0.6130 C   0  0  0  0  0  0  0  0  0  0  0  0
    1.8160   -0.7640    0.8500 O   0  0  0  0  0  0  0  0  0  0  0  0
    1.8300   -0.0030   -0.3340 C   0  0  2  0  0  0  0  0  0  0  0  0
    2.7090    1.1550   -0.1820 C   0  0  0  0  0  0  0  0  0  0  0  0
    2.8500    1.9560   -1.1390 O   0  0  0  0  0  0  0  0  0  0  0  0
    3.4050    1.4170    0.9870 O   0  0  0  0  0  0  0  0  0  0  0  0
    0.5000    0.3380   -0.5700 O   0  0  0  0  0  0  0  0  0  0  0  0
  2  1  1  6
  2  3  1  0
  2  7  1  0
  2 13  1  0
  3  4  1  0
  4  5  1  0
  4  6  1  0
  7  8  1  0
  8  9  1  0
  9 10  1  1
  9 13  1  0
 10 11  2  0
 10 12  1  0
M  END
