
     RDKit          3D

 13 13  0  0  0  0  0  0  0  0999 V2000
   -2.4340   -0.5840    0.9660 C   0  0  0  0  0  0  0  0  0  0  0  0
   -1.8350    0.4770    0.0850 C   0  0  1  0  0  0  0  0  0  0  0  0
   -2.8830    1.2960   -0.3720 O   0  0  0  0  0  0  0  0  0  0  0  0
   -0.9950    1.2520    0.8430 O   0  0  0  0  0  0  0  0  0  0  0  0
    0.2250    0.5580    0.8290 C   0  0  0  0  0  0  0  0  0  0  0  0
    0.2580   -0.0240   -0.5440 C   0  0  2  0  0  0  0  0  0  0  0  0
    0.7170   -1.4610   -0.5960 C   0  0  0  0  0  0  0  0  0  0  0  0
    0.6080   -1.8550   -1.9480 O   0  0  0  0  0  0  0  0  0  0  0  0
    1.0790    0.7180   -1.3560 O   0  0  0  0  0  0  0  0  0  0  0  0
    2.6840    0.7790   -0.7930 P   0  0  0  0  0  0  0  0  0  0  0  0
    2.9450    0.1010    0.7550 O   0  0  0  0  0  0  0  0  0  0  0  0
    3.2820    2.4290   -0.7710 O   0  0  0  0  0  0  0  0  0  0  0  0
   -1.0720   -0.0090   -0.9420 O   0  0  0  0  0  0  0  0  0  0  0  0
  2  1  1  1
  2  3  1  0
  2  4  1  0
  2 13  1  0
  4  5  1  0
  5  6  1  0
  6  7  1  1
  6  9  1  0
  6 13  1  0
  7  8  1  0
  9 10  1  0
 10 11  1  0
 10 12  1  0
M  END
