
     RDKit          3D

 11 10  0  0  0  0  0  0  0  0999 V2000
    0.4690   -2.3270   -0.6740 C   0  0  0  0  0  0  0  0  0  0  0  0
    0.7280   -1.1010   -0.2510 C   0  0  0  0  0  0  0  0  0  0  0  0
    2.0940   -0.7130    0.0910 C   0  0  0  0  0  0  0  0  0  0  0  0
    2.3500    0.4790    0.5040 N   0  0  0  0  0  0  0  0  0  0  0  0
    3.6460    0.8520    0.8300 N   0  0  0  0  0  0  0  0  0  0  0  0
   -0.3530   -0.1610   -0.1330 C   0  0  0  0  0  0  0  0  0  0  0  0
   -1.5700   -0.4950   -0.4340 N   0  0  0  0  0  0  0  0  0  0  0  0
   -2.6650    0.4510   -0.3160 C   0  0  2  0  0  0  0  0  0  0  0  0
   -2.1150    1.7680   -0.5050 N   0  0  0  0  0  0  0  0  0  0  0  0
   -3.2550    0.3160    0.9430 O   0  0  0  0  0  0  0  0  0  0  0  0
   -3.6480    0.1570   -1.2700 O   0  0  0  0  0  0  0  0  0  0  0  0
  1  2  2  0
  2  3  1  0
  2  6  1  0
  3  4  2  3
  4  5  1  0
  6  7  2  3
  7  8  1  0
  8  9  1  6
  8 10  1  0
  8 11  1  0
M  CHG  1   5   1
M  END
