
     RDKit          3D

 12 11  0  0  0  0  0  0  0  0999 V2000
    3.4850   -1.1730    0.0580 N   0  0  0  0  0  0  0  0  0  0  0  0
    2.5890   -0.7600    1.0450 O   0  0  0  0  0  0  0  0  0  0  0  0
    1.6280    0.1860    0.5450 C   0  0  0  0  0  0  0  0  0  0  0  0
    0.4810   -0.3350    0.2540 C   0  0  0  0  0  0  0  0  0  0  0  0
   -0.7140    0.2950   -0.2670 C   0  0  0  0  0  0  0  0  0  0  0  0
   -0.8550    1.6280   -0.5620 O   0  0  0  0  0  0  0  0  0  0  0  0
   -1.8220   -0.4430   -0.5060 C   0  0  0  0  0  0  0  0  0  0  0  0
   -1.7160   -1.8340   -0.2120 N   0  0  0  0  0  0  0  0  0  0  0  0
   -3.0120    0.1180   -1.0120 N   0  0  0  0  0  0  0  0  0  0  0  0
   -4.1550   -0.1880   -0.5870 N   0  0  0  0  0  0  0  0  0  0  0  0
    2.1420    1.5440    0.4680 C   0  0  0  0  0  0  0  0  0  0  0  0
    1.3340    2.5350    0.0110 O   0  0  0  0  0  0  0  0  0  0  0  0
  1  2  1  0
  2  3  1  0
  3  4  2  3
  3 11  1  0
  4  5  1  0
  5  6  1  0
  5  7  2  3
  7  8  1  0
  7  9  1  0
  9 10  2  0
 11 12  1  0
M  CHG  1  10   1
M  END
