
     RDKit          3D

 16 16  0  0  0  0  0  0  0  0999 V2000
   -1.6440   -3.0540    0.7550 C   0  0  0  0  0  0  0  0  0  0  0  0
   -1.2890   -2.3250   -0.2790 C   0  0  0  0  0  0  0  0  0  0  0  0
    0.1390   -2.1820   -0.6110 C   0  0  0  0  0  0  0  0  0  0  0  0
    0.6110   -0.8860   -0.4170 O   0  0  0  0  0  0  0  0  0  0  0  0
    2.0060   -0.9820   -0.3280 C   0  0  1  0  0  0  0  0  0  0  0  0
    2.6440   -0.8390   -1.6200 N   0  0  0  0  0  0  0  0  0  0  0  0
    2.5420    0.0610    0.6320 C   0  0  2  0  0  0  0  0  0  0  0  0
    2.1010   -0.2220    1.9220 O   0  0  0  0  0  0  0  0  0  0  0  0
    2.0560    1.4300    0.2090 C   0  0  0  0  0  0  0  0  0  0  0  0
    0.8950    1.6890    0.9320 O   0  0  0  0  0  0  0  0  0  0  0  0
    0.0750    2.5260    0.1630 C   0  0  0  0  0  0  0  0  0  0  0  0
   -1.3240    2.4000    0.7390 C   0  0  0  0  0  0  0  0  0  0  0  0
   -1.5230    1.0290    1.0060 O   0  0  0  0  0  0  0  0  0  0  0  0
   -2.7360    0.6460    0.4330 C   0  0  0  0  0  0  0  0  0  0  0  0
   -2.6010    0.2540   -0.9980 C   0  0  0  0  0  0  0  0  0  0  0  0
   -2.5450   -1.5340   -1.2470 S   0  0  0  0  0  0  0  0  0  0  0  0
  1  2  2  0
  2  3  1  0
  2 16  1  0
  3  4  1  0
  4  5  1  0
  5  6  1  6
  5  7  1  0
  7  8  1  1
  7  9  1  0
  9 10  1  0
 10 11  1  0
 11 12  1  0
 12 13  1  0
 13 14  1  0
 14 15  1  0
 15 16  1  0
M  END
