
     RDKit          3D

 14 14  0  0  0  0  0  0  0  0999 V2000
    2.1750   -0.9930   -0.5810 C   0  0  0  0  0  0  0  0  0  0  0  0
    1.9820    0.1300    0.4150 C   0  0  2  0  0  0  0  0  0  0  0  0
    3.0690    0.0690    1.4770 C   0  0  0  0  0  0  0  0  0  0  0  0
    4.6740    0.2420    0.6530 S   0  0  0  0  0  0  0  0  0  0  0  0
    0.6290    0.0700    1.0350 C   0  0  0  0  0  0  0  0  0  0  0  0
    0.5620   -0.0980    2.2660 O   0  0  0  0  0  0  0  0  0  0  0  0
   -0.5200    0.1980    0.2450 N   0  0  0  0  0  0  0  0  0  0  0  0
   -0.6450    0.4000   -1.1770 C   0  0  0  0  0  0  0  0  0  0  0  0
   -1.7630    1.4520   -1.2220 C   0  0  0  0  0  0  0  0  0  0  0  0
   -2.7540    0.8250   -0.2640 C   0  0  0  0  0  0  0  0  0  0  0  0
   -1.8980    0.1470    0.7530 C   0  0  1  0  0  0  0  0  0  0  0  0
   -2.3220   -1.2730    0.8660 C   0  0  0  0  0  0  0  0  0  0  0  0
   -1.5740   -2.2370    0.5600 O   0  0  0  0  0  0  0  0  0  0  0  0
   -3.6060   -1.5200    1.3340 O   0  0  0  0  0  0  0  0  0  0  0  0
  2  1  1  6
  2  3  1  0
  2  5  1  0
  3  4  1  0
  5  6  2  0
  5  7  1  0
  7  8  1  0
  7 11  1  0
  8  9  1  0
  9 10  1  0
 10 11  1  0
 11 12  1  6
 12 13  2  0
 12 14  1  0
M  END
