
     RDKit          3D

 16 17  0  0  0  0  0  0  0  0999 V2000
    2.4800   -1.7080    0.6190 O   0  0  0  0  0  0  0  0  0  0  0  0
    1.9190   -0.9270   -0.1690 C   0  0  0  0  0  0  0  0  0  0  0  0
    2.6620   -0.1990   -1.0770 O   0  0  0  0  0  0  0  0  0  0  0  0
    4.0520   -0.2990   -1.1560 C   0  0  0  0  0  0  0  0  0  0  0  0
    4.7220    0.0930    0.1210 C   0  0  0  0  0  0  0  0  0  0  0  0
    6.1200   -0.0360   -0.0460 O   0  0  0  0  0  0  0  0  0  0  0  0
    0.5100   -0.7570   -0.1630 N   0  0  0  0  0  0  0  0  0  0  0  0
   -0.3940   -1.4580    0.7390 C   0  0  0  0  0  0  0  0  0  0  0  0
   -1.7410   -0.9190    0.4600 C   0  0  1  0  0  0  0  0  0  0  0  0
   -2.6660   -0.4740    1.9820 S   0  0  0  0  0  0  0  0  0  0  0  0
   -3.5450    1.0600    1.4820 C   0  0  0  0  0  0  0  0  0  0  0  0
   -3.8490    1.0300    0.0030 C   0  0  0  0  0  0  0  0  0  0  0  0
   -2.6740    0.8770   -0.8770 C   0  0  2  0  0  0  0  0  0  0  0  0
   -2.9750   -0.1280   -1.8280 O   0  0  0  0  0  0  0  0  0  0  0  0
   -1.4390    0.4530   -0.1650 C   0  0  2  0  0  0  0  0  0  0  0  0
   -0.2810    0.1270   -1.0320 C   0  0  0  0  0  0  0  0  0  0  0  0
  1  2  2  0
  2  3  1  0
  2  7  1  0
  3  4  1  0
  4  5  1  0
  5  6  1  0
  7  8  1  0
  7 16  1  0
  9  8  1  1
  9 10  1  0
  9 15  1  0
 10 11  1  0
 11 12  1  0
 12 13  1  0
 13 14  1  6
 13 15  1  0
 15 16  1  6
M  END
