
     RDKit          3D

 12 11  0  0  0  0  0  0  0  0999 V2000
   -2.8440    1.4290   -0.9770 N   0  0  0  0  0  0  0  0  0  0  0  0
   -2.1910    0.2760   -1.4050 O   0  0  0  0  0  0  0  0  0  0  0  0
   -1.1150   -0.0920   -0.5260 C   0  0  0  0  0  0  0  0  0  0  0  0
    0.0390    0.3400   -0.9040 C   0  0  0  0  0  0  0  0  0  0  0  0
    1.3540    0.2070   -0.3370 C   0  0  0  0  0  0  0  0  0  0  0  0
    1.5600   -0.5080    0.8580 N   0  0  0  0  0  0  0  0  0  0  0  0
    2.4240    0.7520   -0.9170 C   0  0  0  0  0  0  0  0  0  0  0  0
    3.7040    0.6250   -0.3690 N   0  0  0  0  0  0  0  0  0  0  0  0
    4.3840   -0.5300   -0.4720 O   0  0  0  0  0  0  0  0  0  0  0  0
   -1.5330   -0.8720    0.6040 C   0  0  0  0  0  0  0  0  0  0  0  0
   -2.9520   -1.2010    0.7460 N   0  0  0  0  0  0  0  0  0  0  0  0
   -0.8190   -1.3280    1.5230 O   0  0  0  0  0  0  0  0  0  0  0  0
  1  2  1  0
  2  3  1  0
  3  4  2  3
  3 10  1  0
  4  5  1  0
  5  6  1  0
  5  7  2  3
  7  8  1  0
  8  9  1  0
 10 11  1  0
 10 12  2  0
M  CHG  1  11   1
M  END
