
     RDKit          3D

 19 22  0  0  0  0  0  0  0  0999 V2000
   -3.3080   -2.3030   -0.2230 C   0  0  0  0  0  0  0  0  0  0  0  0
   -2.0570   -2.5960   -0.2630 N   0  0  0  0  0  0  0  0  0  0  0  0
   -1.0420   -1.6510   -0.1470 C   0  0  0  0  0  0  0  0  0  0  0  0
    0.2420   -1.9870   -0.1210 N   0  0  0  0  0  0  0  0  0  0  0  0
    1.2070   -0.9260    0.0020 C   0  0  0  0  0  0  0  0  0  0  0  0
    2.3770   -1.0770   -0.5790 C   0  0  0  0  0  0  0  0  0  0  0  0
    3.3970   -0.0700   -0.5060 N   0  0  0  0  0  0  0  0  0  0  0  0
    4.5050   -0.0770    0.2500 C   0  0  0  0  0  0  0  0  0  0  0  0
    5.2280    1.0620    0.0400 C   0  0  0  0  0  0  0  0  0  0  0  0
    4.5130    1.7830   -0.8890 C   0  0  0  0  0  0  0  0  0  0  0  0
    3.3850    1.0690   -1.2150 C   0  0  0  0  0  0  0  0  0  0  0  0
    0.8350    0.2640    0.7660 C   0  0  0  0  0  0  0  0  0  0  0  0
   -0.5600    0.3300    1.0670 N   0  0  0  0  0  0  0  0  0  0  0  0
   -1.3300   -0.2130   -0.0380 C   0  0  2  0  0  0  0  0  0  0  0  0
   -2.7700    0.0430    0.0560 C   0  0  0  0  0  0  0  0  0  0  0  0
   -3.4910    1.2390    0.2350 C   0  0  0  0  0  0  0  0  0  0  0  0
   -4.8260    0.9630    0.2270 C   0  0  0  0  0  0  0  0  0  0  0  0
   -4.9410   -0.3930    0.0450 C   0  0  0  0  0  0  0  0  0  0  0  0
   -3.6860   -0.9220   -0.0540 N   0  0  0  0  0  0  0  0  0  0  0  0
  1  2  2  0
  1 19  1  0
  2  3  1  0
  3  4  2  0
  3 14  1  0
  4  5  1  0
  5  6  2  3
  5 12  1  0
  6  7  1  0
  7  8  1  0
  7 11  1  0
  8  9  2  0
  9 10  1  0
 10 11  2  0
 12 13  1  0
 14 13  1  1
 14 15  1  0
 15 16  2  0
 15 19  1  0
 16 17  1  0
 17 18  2  0
 18 19  1  0
M  CHG  1  13   1
M  END
