
     RDKit          3D

 19 21  0  0  0  0  0  0  0  0999 V2000
   -4.5170    1.8620   -0.5170 C   0  0  0  0  0  0  0  0  0  0  0  0
   -4.3480    0.4060   -0.1650 C   0  0  0  0  0  0  0  0  0  0  0  0
   -5.1720   -0.5540   -0.5200 C   0  0  0  0  0  0  0  0  0  0  0  0
   -4.6450   -1.8130    0.0230 C   0  0  0  0  0  0  0  0  0  0  0  0
   -3.4120   -1.4390    0.7320 C   0  0  0  0  0  0  0  0  0  0  0  0
   -3.2460   -0.1360    0.6160 C   0  0  0  0  0  0  0  0  0  0  0  0
   -2.1910    0.6420    1.1460 N   0  0  0  0  0  0  0  0  0  0  0  0
   -0.8990    0.5010    0.5830 C   0  0  0  0  0  0  0  0  0  0  0  0
   -0.5660   -0.4710   -0.1920 N   0  0  0  0  0  0  0  0  0  0  0  0
    0.7580   -0.3640   -0.5990 N   0  0  0  0  0  0  0  0  0  0  0  0
    1.3110    0.6960   -0.0840 C   0  0  0  0  0  0  0  0  0  0  0  0
    2.6390    1.1360   -0.2680 N   0  0  0  0  0  0  0  0  0  0  0  0
    3.7280    0.2290   -0.2870 C   0  0  0  0  0  0  0  0  0  0  0  0
    3.5820   -1.1270   -0.1290 C   0  0  0  0  0  0  0  0  0  0  0  0
    4.7060   -1.9540   -0.1730 C   0  0  0  0  0  0  0  0  0  0  0  0
    5.9690   -1.4550   -0.3700 C   0  0  0  0  0  0  0  0  0  0  0  0
    6.0780   -0.0910   -0.5240 C   0  0  0  0  0  0  0  0  0  0  0  0
    4.9970    0.6930   -0.4810 N   0  0  0  0  0  0  0  0  0  0  0  0
    0.2850    1.3610    0.7300 C   0  0  0  0  0  0  0  0  0  0  0  0
  1  2  1  0
  2  3  2  0
  2  6  1  0
  3  4  1  0
  4  5  1  0
  5  6  2  0
  6  7  1  0
  7  8  1  0
  8  9  2  0
  8 19  1  0
  9 10  1  0
 10 11  2  0
 11 12  1  0
 11 19  1  0
 12 13  1  0
 13 14  2  0
 13 18  1  0
 14 15  1  0
 15 16  2  0
 16 17  1  0
 17 18  2  0
M  CHG  1  18   1
M  END
