
     RDKit          3D

 19 21  0  0  0  0  0  0  0  0999 V2000
    6.8070   -0.1660   -0.0740 C   0  0  0  0  0  0  0  0  0  0  0  0
    5.5480   -0.7540    0.4450 C   0  0  0  0  0  0  0  0  0  0  0  0
    4.3780   -0.2690    0.0630 C   0  0  0  0  0  0  0  0  0  0  0  0
    4.3090    0.8100   -0.8390 N   0  0  0  0  0  0  0  0  0  0  0  0
    3.1970    1.2970   -1.2220 C   0  0  0  0  0  0  0  0  0  0  0  0
    1.9430    0.7530   -0.7400 C   0  0  0  0  0  0  0  0  0  0  0  0
    0.6510    1.1000   -1.0030 N   0  0  0  0  0  0  0  0  0  0  0  0
   -0.1170    0.2840   -0.3030 C   0  0  0  0  0  0  0  0  0  0  0  0
   -1.5730    0.3010   -0.2870 C   0  0  0  0  0  0  0  0  0  0  0  0
   -2.1730   -0.6020    0.4820 C   0  0  0  0  0  0  0  0  0  0  0  0
   -3.5800   -0.8830    0.7480 C   0  0  0  0  0  0  0  0  0  0  0  0
   -3.9210   -1.8170    1.8540 C   0  0  0  0  0  0  0  0  0  0  0  0
   -4.5810   -0.3490    0.0550 C   0  0  0  0  0  0  0  0  0  0  0  0
   -4.5910    0.5970   -1.0850 C   0  0  0  0  0  0  0  0  0  0  0  0
   -3.3530    0.6260   -1.8110 N   0  0  0  0  0  0  0  0  0  0  0  0
   -2.2870    1.3070   -1.1150 C   0  0  0  0  0  0  0  0  0  0  0  0
    0.6480   -0.5580    0.3850 N   0  0  0  0  0  0  0  0  0  0  0  0
    1.9410   -0.3060    0.1460 C   0  0  0  0  0  0  0  0  0  0  0  0
    3.1840   -0.8410    0.5680 N   0  0  0  0  0  0  0  0  0  0  0  0
  1  2  1  0
  2  3  2  3
  3  4  1  0
  3 19  1  0
  4  5  2  0
  5  6  1  0
  6  7  1  0
  6 18  2  0
  7  8  1  0
  8  9  1  0
  8 17  2  0
  9 10  2  0
  9 16  1  0
 10 11  1  0
 11 12  1  0
 11 13  2  0
 13 14  1  0
 14 15  1  0
 15 16  1  0
 17 18  1  0
 18 19  1  0
M  CHG  1  15   1
M  END
