
     RDKit          3D

 19 22  0  0  0  0  0  0  0  0999 V2000
   -3.3950    0.8480    0.5710 C   0  0  0  0  0  0  0  0  0  0  0  0
   -2.6350   -0.1230    0.0300 C   0  0  0  0  0  0  0  0  0  0  0  0
   -3.2550   -1.2520   -0.5580 N   0  0  0  0  0  0  0  0  0  0  0  0
   -2.5250   -2.3030   -1.1410 C   0  0  0  0  0  0  0  0  0  0  0  0
   -1.0610   -2.1620   -1.1060 C   0  0  0  0  0  0  0  0  0  0  0  0
   -0.0830   -2.9990   -1.5810 N   0  0  0  0  0  0  0  0  0  0  0  0
    1.0670   -2.4570   -1.3220 N   0  0  0  0  0  0  0  0  0  0  0  0
    0.9290   -1.2690   -0.6820 N   0  0  0  0  0  0  0  0  0  0  0  0
    2.0320   -0.4710   -0.2850 C   0  0  0  0  0  0  0  0  0  0  0  0
    2.6380   -0.6150    0.9400 C   0  0  0  0  0  0  0  0  0  0  0  0
    3.7430    0.1630    1.2880 C   0  0  0  0  0  0  0  0  0  0  0  0
    4.2380    1.0850    0.4070 C   0  0  0  0  0  0  0  0  0  0  0  0
    3.6300    1.2270   -0.8190 C   0  0  0  0  0  0  0  0  0  0  0  0
    2.5430    0.4540   -1.1480 C   0  0  0  0  0  0  0  0  0  0  0  0
   -0.3950   -1.1040   -0.5570 C   0  0  0  0  0  0  0  0  0  0  0  0
   -1.1850   -0.0210    0.0440 C   0  0  0  0  0  0  0  0  0  0  0  0
   -0.5890    1.0000    0.5750 C   0  0  0  0  0  0  0  0  0  0  0  0
   -1.3290    2.1160    1.1930 C   0  0  0  0  0  0  0  0  0  0  0  0
   -2.7360    1.9410    1.1380 N   0  0  0  0  0  0  0  0  0  0  0  0
  1  2  2  0
  1 19  1  0
  2  3  1  0
  2 16  1  0
  3  4  1  0
  4  5  1  0
  5  6  1  0
  5 15  2  0
  6  7  2  0
  7  8  1  0
  8  9  1  0
  8 15  1  0
  9 10  2  0
  9 14  1  0
 10 11  1  0
 11 12  2  0
 12 13  1  0
 13 14  2  0
 15 16  1  0
 16 17  2  0
 17 18  1  0
 18 19  1  0
M  END
