
     RDKit          3D

 19 22  0  0  0  0  0  0  0  0999 V2000
    0.2070    3.4040   -0.6120 C   0  0  0  0  0  0  0  0  0  0  0  0
   -0.7900    2.3310   -0.3040 C   0  0  0  0  0  0  0  0  0  0  0  0
   -2.1060    2.5410   -0.1780 N   0  0  0  0  0  0  0  0  0  0  0  0
   -2.6760    1.3410    0.0990 C   0  0  0  0  0  0  0  0  0  0  0  0
   -3.9640    0.9250    0.3290 C   0  0  0  0  0  0  0  0  0  0  0  0
   -4.3290   -0.3350    0.5900 N   0  0  0  0  0  0  0  0  0  0  0  0
   -3.3630   -1.2680    0.6310 C   0  0  0  0  0  0  0  0  0  0  0  0
   -3.4040   -2.6070    0.8650 N   0  0  0  0  0  0  0  0  0  0  0  0
   -2.1610   -3.1020    0.7970 C   0  0  0  0  0  0  0  0  0  0  0  0
   -1.3060   -2.0530    0.5110 C   0  0  0  0  0  0  0  0  0  0  0  0
   -2.0220   -0.9060    0.4030 C   0  0  0  0  0  0  0  0  0  0  0  0
   -1.6630    0.4000    0.1350 C   0  0  0  0  0  0  0  0  0  0  0  0
   -0.4880    0.9990   -0.1130 N   0  0  0  0  0  0  0  0  0  0  0  0
    0.8140    0.3870   -0.1680 C   0  0  1  0  0  0  0  0  0  0  0  0
    1.4340    0.0180    1.1230 C   0  0  0  0  0  0  0  0  0  0  0  0
    2.9470   -0.1100    0.8940 C   0  0  0  0  0  0  0  0  0  0  0  0
    3.2370   -0.9740   -0.2220 N   0  0  0  0  0  0  0  0  0  0  0  0
    2.6690   -0.5080   -1.4650 C   0  0  0  0  0  0  0  0  0  0  0  0
    1.1350   -0.4120   -1.3630 C   0  0  0  0  0  0  0  0  0  0  0  0
  1  2  1  0
  2  3  2  0
  2 13  1  0
  3  4  1  0
  4  5  2  0
  4 12  1  0
  5  6  1  0
  6  7  2  0
  7  8  1  0
  7 11  1  0
  8  9  1  0
  9 10  2  0
 10 11  1  0
 11 12  2  0
 12 13  1  0
 14 13  1  1
 14 15  1  0
 14 19  1  0
 15 16  1  0
 16 17  1  0
 17 18  1  0
 18 19  1  0
M  CHG  1  17   1
M  END
