
     RDKit          3D

 23 25  0  0  0  0  0  0  0  0999 V2000
   -5.3110    2.1910   -0.4270 C   0  0  0  0  0  0  0  0  0  0  0  0
   -4.7750    1.2040   -1.2970 O   0  0  0  0  0  0  0  0  0  0  0  0
   -3.9330    0.2050   -0.7690 C   0  0  0  0  0  0  0  0  0  0  0  0
   -4.6020   -0.8910   -0.2660 C   0  0  0  0  0  0  0  0  0  0  0  0
   -6.0910   -1.0180   -0.3980 C   0  0  0  0  0  0  0  0  0  0  0  0
   -3.8790   -1.9080    0.2740 C   0  0  0  0  0  0  0  0  0  0  0  0
   -2.5010   -1.8520    0.3060 C   0  0  0  0  0  0  0  0  0  0  0  0
   -1.8250   -2.9940    0.9740 C   0  0  0  0  0  0  0  0  0  0  0  0
   -1.7750   -0.7970   -0.1930 C   0  0  0  0  0  0  0  0  0  0  0  0
   -0.3720   -0.8040   -0.3800 C   0  0  0  0  0  0  0  0  0  0  0  0
    0.7180   -0.4620    0.4160 N   0  0  0  0  0  0  0  0  0  0  0  0
    1.4420    0.7020    0.1410 C   0  0  0  0  0  0  0  0  0  0  0  0
    2.5920    0.7280    0.8740 C   0  0  0  0  0  0  0  0  0  0  0  0
    3.7150    1.7450    0.6370 C   0  0  0  0  0  0  0  0  0  0  0  0
    4.8830    0.9080    0.5830 N   0  0  0  0  0  0  0  0  0  0  0  0
    5.5600    0.7710   -0.6410 C   0  0  2  0  0  0  0  0  0  0  0  0
    7.0770    0.7000   -0.6160 C   0  0  0  0  0  0  0  0  0  0  0  0
    6.3240    1.7460   -1.4110 C   0  0  0  0  0  0  0  0  0  0  0  0
    2.5970   -0.3660    1.5980 N   0  0  0  0  0  0  0  0  0  0  0  0
    1.4660   -1.0970    1.3330 C   0  0  0  0  0  0  0  0  0  0  0  0
    1.2730   -2.5360    2.0670 S   0  0  0  0  0  0  0  0  0  0  0  0
   -2.5750    0.2530   -0.7360 C   0  0  0  0  0  0  0  0  0  0  0  0
   -1.9060    1.3570   -1.2360 O   0  0  0  0  0  0  0  0  0  0  0  0
  1  2  1  0
  2  3  1  0
  3  4  2  0
  3 22  1  0
  4  5  1  0
  4  6  1  0
  6  7  2  0
  7  8  1  0
  7  9  1  0
  9 10  1  0
  9 22  2  0
 10 11  1  0
 11 12  1  0
 11 20  1  0
 12 13  2  0
 13 14  1  0
 13 19  1  0
 14 15  1  0
 16 15  1  1
 16 17  1  0
 16 18  1  0
 17 18  1  0
 19 20  1  0
 20 21  2  0
 22 23  1  0
M  END
