
     RDKit          3D

 23 24  0  0  0  0  0  0  0  0999 V2000
   -3.9060    2.1060    2.0650 C   0  0  0  0  0  0  0  0  0  0  0  0
   -3.9100    1.4490    0.9190 C   0  0  0  0  0  0  0  0  0  0  0  0
   -4.9620    1.7250   -0.0920 C   0  0  0  0  0  0  0  0  0  0  0  0
   -5.3730    0.4920   -0.8110 C   0  0  0  0  0  0  0  0  0  0  0  0
   -6.5820    0.2580   -1.1990 N   0  0  0  0  0  0  0  0  0  0  0  0
   -4.3230   -0.4850   -1.0770 C   0  0  0  0  0  0  0  0  0  0  0  0
   -4.4970   -1.4020   -2.0020 C   0  0  0  0  0  0  0  0  0  0  0  0
   -3.0760   -0.4290   -0.2910 C   0  0  0  0  0  0  0  0  0  0  0  0
   -2.0510   -1.3800   -0.5410 N   0  0  0  0  0  0  0  0  0  0  0  0
   -0.6830   -1.0310   -0.4720 C   0  0  0  0  0  0  0  0  0  0  0  0
   -0.2200    0.2450   -0.3230 C   0  0  0  0  0  0  0  0  0  0  0  0
    1.1420    0.5560   -0.2480 C   0  0  0  0  0  0  0  0  0  0  0  0
    2.0730   -0.4550   -0.3240 C   0  0  0  0  0  0  0  0  0  0  0  0
    3.4030   -0.2640   -0.2590 O   0  0  0  0  0  0  0  0  0  0  0  0
    4.2390    0.8010   -0.0940 C   0  0  0  0  0  0  0  0  0  0  0  0
    4.0900    1.5050    1.2310 C   0  0  0  0  0  0  0  0  0  0  0  0
    5.2730    2.9030    1.3030 S   0  0  0  0  0  0  0  0  0  0  0  0
    6.9630    2.2000    1.3160 C   0  0  0  0  0  0  0  0  0  0  0  0
    1.6190   -1.7760   -0.4780 C   0  0  0  0  0  0  0  0  0  0  0  0
    2.5700   -2.7760   -0.5540 O   0  0  0  0  0  0  0  0  0  0  0  0
    2.2690   -4.1360   -0.7070 C   0  0  0  0  0  0  0  0  0  0  0  0
    0.2740   -2.0320   -0.5470 C   0  0  0  0  0  0  0  0  0  0  0  0
   -2.9200    0.4620    0.6080 N   0  0  0  0  0  0  0  0  0  0  0  0
  1  2  2  0
  2  3  1  0
  2 23  1  0
  3  4  1  0
  4  5  2  0
  4  6  1  0
  6  7  2  0
  6  8  1  0
  8  9  1  0
  8 23  2  0
  9 10  1  0
 10 11  2  0
 10 22  1  0
 11 12  1  0
 12 13  2  0
 13 14  1  0
 13 19  1  0
 14 15  1  0
 15 16  1  0
 16 17  1  0
 17 18  1  0
 19 20  1  0
 19 22  2  0
 20 21  1  0
M  END
