
     RDKit          3D

 24 24  0  0  0  0  0  0  0  0999 V2000
   -2.6440   -2.3710   -2.1740 C   0  0  0  0  0  0  0  0  0  0  0  0
   -4.0270   -1.9350   -2.0660 C   0  0  0  0  0  0  0  0  0  0  0  0
   -4.6240   -0.9450   -1.5230 C   0  0  0  0  0  0  0  0  0  0  0  0
   -4.1510    0.1810   -0.7680 C   0  0  0  0  0  0  0  0  0  0  0  0
   -4.9440    1.1660   -0.2590 C   0  0  0  0  0  0  0  0  0  0  0  0
   -6.3350    1.1620   -0.4370 O   0  0  0  0  0  0  0  0  0  0  0  0
   -4.1600    2.0890    0.4120 N   0  0  0  0  0  0  0  0  0  0  0  0
   -2.9170    1.7970    0.3900 C   0  0  0  0  0  0  0  0  0  0  0  0
   -1.6110    2.7540    1.1470 S   0  0  0  0  0  0  0  0  0  0  0  0
   -2.3360    4.1930    1.9710 C   0  0  0  0  0  0  0  0  0  0  0  0
   -2.7700    0.5450   -0.3660 C   0  0  0  0  0  0  0  0  0  0  0  0
   -1.7100   -0.1050   -0.6260 N   0  0  0  0  0  0  0  0  0  0  0  0
   -0.4450    0.2350   -0.2520 N   0  0  0  0  0  0  0  0  0  0  0  0
    0.6580   -0.4910   -0.8500 C   0  0  0  0  0  0  0  0  0  0  0  0
    0.3980   -1.3810   -1.6660 O   0  0  0  0  0  0  0  0  0  0  0  0
    2.0380   -0.1280   -0.4530 C   0  0  0  0  0  0  0  0  0  0  0  0
    2.9710   -1.0440   -1.2030 C   0  0  0  0  0  0  0  0  0  0  0  0
    4.3540   -0.8180   -0.9260 N   0  0  0  0  0  0  0  0  0  0  0  0
    4.9340   -0.9310    0.3750 C   0  0  0  0  0  0  0  0  0  0  0  0
    4.2000   -1.2440    1.3410 O   0  0  0  0  0  0  0  0  0  0  0  0
    6.3720   -0.6890    0.6240 C   0  0  0  0  0  0  0  0  0  0  0  0
    6.6300   -0.8840    2.0330 N   0  0  0  0  0  0  0  0  0  0  0  0
    7.0800    0.0010    2.7860 O   0  0  0  0  0  0  0  0  0  0  0  0
    6.3770   -2.1160    2.6240 O   0  0  0  0  0  0  0  0  0  0  0  0
  1  2  1  0
  2  3  2  3
  3  4  1  0
  4  5  2  0
  4 11  1  0
  5  6  1  0
  5  7  1  0
  7  8  2  0
  8  9  1  0
  8 11  1  0
  9 10  1  0
 11 12  2  3
 12 13  1  0
 13 14  1  0
 14 15  2  0
 14 16  1  0
 16 17  1  0
 17 18  1  0
 18 19  1  0
 19 20  2  0
 19 21  1  0
 21 22  1  0
 22 23  2  0
 22 24  1  0
M  CHG  2  22   1  24  -1
M  END
