
     RDKit          3D

 23 25  0  0  0  0  0  0  0  0999 V2000
   -0.6890   -3.0230   -0.6160 O   0  0  0  0  0  0  0  0  0  0  0  0
   -1.0500   -1.8470   -0.3090 C   0  0  0  0  0  0  0  0  0  0  0  0
   -2.3780   -1.5760   -0.2890 N   0  0  0  0  0  0  0  0  0  0  0  0
   -2.7900   -0.3400    0.0340 C   0  0  0  0  0  0  0  0  0  0  0  0
   -4.2210   -0.1250    0.2070 C   0  0  0  0  0  0  0  0  0  0  0  0
   -5.1000   -1.2170    0.2670 C   0  0  0  0  0  0  0  0  0  0  0  0
   -6.4640   -1.0350    0.4680 C   0  0  0  0  0  0  0  0  0  0  0  0
   -7.0020    0.2080    0.6120 C   0  0  0  0  0  0  0  0  0  0  0  0
   -6.1710    1.2980    0.5590 C   0  0  0  0  0  0  0  0  0  0  0  0
   -4.7790    1.1180    0.3560 C   0  0  0  0  0  0  0  0  0  0  0  0
   -4.0620    2.2870    0.3230 O   0  0  0  0  0  0  0  0  0  0  0  0
   -1.8770    0.5820    0.3130 N   0  0  0  0  0  0  0  0  0  0  0  0
   -0.5460    0.3360    0.2980 C   0  0  0  0  0  0  0  0  0  0  0  0
   -0.0720   -0.9080   -0.0110 C   0  0  0  0  0  0  0  0  0  0  0  0
    1.3160   -1.4120    0.0650 C   0  0  0  0  0  0  0  0  0  0  0  0
    2.6070   -0.3140    0.4960 S   0  0  0  0  0  0  0  0  0  0  0  0
    3.7000    0.0250   -0.9240 C   0  0  0  0  0  0  0  0  0  0  0  0
    4.9720    0.6350   -0.4230 C   0  0  0  0  0  0  0  0  0  0  0  0
    5.2890    1.9470   -0.4070 C   0  0  0  0  0  0  0  0  0  0  0  0
    6.4750    2.3610    0.1620 C   0  0  0  0  0  0  0  0  0  0  0  0
    7.3710    1.5010    0.7220 N   0  0  0  0  0  0  0  0  0  0  0  0
    7.0630    0.1950    0.7090 C   0  0  0  0  0  0  0  0  0  0  0  0
    5.8860   -0.2440    0.1490 C   0  0  0  0  0  0  0  0  0  0  0  0
  1  2  2  0
  2  3  1  0
  2 14  1  0
  3  4  1  0
  4  5  1  0
  4 12  2  0
  5  6  2  0
  5 10  1  0
  6  7  1  0
  7  8  2  0
  8  9  1  0
  9 10  2  0
 10 11  1  0
 12 13  1  0
 13 14  2  0
 14 15  1  0
 15 16  1  0
 16 17  1  0
 17 18  1  0
 18 19  2  0
 18 23  1  0
 19 20  1  0
 20 21  2  0
 21 22  1  0
 22 23  2  0
M  END
