
     RDKit          3D

 24 25  0  0  0  0  0  0  0  0999 V2000
   -5.0800   -1.2990    1.2000 N   0  0  0  0  0  0  0  0  0  0  0  0
   -3.7940   -0.6320    1.0600 C   0  0  0  0  0  0  0  0  0  0  0  0
   -3.0190   -0.7000    2.0550 O   0  0  0  0  0  0  0  0  0  0  0  0
   -3.5140    0.0400   -0.1790 C   0  0  0  0  0  0  0  0  0  0  0  0
   -2.4250    0.6810   -0.4240 C   0  0  0  0  0  0  0  0  0  0  0  0
   -1.2720    0.8690    0.4770 C   0  0  0  0  0  0  0  0  0  0  0  0
   -1.4020    1.4140    1.7380 C   0  0  0  0  0  0  0  0  0  0  0  0
    0.3340    1.3580    2.3640 S   0  0  0  0  0  0  0  0  0  0  0  0
    0.9350    0.5910    0.7700 C   0  0  0  0  0  0  0  0  0  0  0  0
    2.3850    0.2720    0.6370 C   0  0  0  0  0  0  0  0  0  0  0  0
    2.8540   -0.2800   -0.5230 C   0  0  0  0  0  0  0  0  0  0  0  0
    4.1820   -0.5930   -0.6900 C   0  0  0  0  0  0  0  0  0  0  0  0
    4.6600   -1.1660   -1.8950 N   0  0  0  0  0  0  0  0  0  0  0  0
    5.7050   -0.6820   -2.4440 C   0  0  0  0  0  0  0  0  0  0  0  0
    6.1820   -1.2320   -3.6200 O   0  0  0  0  0  0  0  0  0  0  0  0
    5.0260   -0.3160    0.3900 C   0  0  0  0  0  0  0  0  0  0  0  0
    4.5700    0.2210    1.5200 N   0  0  0  0  0  0  0  0  0  0  0  0
    3.2610    0.5180    1.6540 C   0  0  0  0  0  0  0  0  0  0  0  0
    2.8180    1.0290    2.7230 O   0  0  0  0  0  0  0  0  0  0  0  0
   -0.0420    0.5190    0.1700 N   0  0  0  0  0  0  0  0  0  0  0  0
   -4.5690   -0.0180   -1.2490 C   0  0  0  0  0  0  0  0  0  0  0  0
   -5.8090    0.5560   -0.8320 N   0  0  0  0  0  0  0  0  0  0  0  0
   -6.8450   -0.1220   -0.8150 O   0  0  0  0  0  0  0  0  0  0  0  0
   -5.8190    1.8900   -0.4510 O   0  0  0  0  0  0  0  0  0  0  0  0
  1  2  1  0
  2  3  2  0
  2  4  1  0
  4  5  2  3
  4 21  1  0
  5  6  1  0
  6  7  2  0
  6 20  1  0
  7  8  1  0
  8  9  1  0
  9 10  1  0
  9 20  2  0
 10 11  2  0
 10 18  1  0
 11 12  1  0
 12 13  1  0
 12 16  2  0
 13 14  2  3
 14 15  1  0
 16 17  1  0
 17 18  1  0
 18 19  2  0
 21 22  1  0
 22 23  2  0
 22 24  1  0
M  CHG  2  22   1  24  -1
M  END
