
     RDKit          3D

 24 25  0  0  0  0  0  0  0  0999 V2000
    6.8280    2.1730   -0.5090 C   0  0  0  0  0  0  0  0  0  0  0  0
    6.5040    1.0630    0.3560 N   0  0  0  0  0  0  0  0  0  0  0  0
    5.1620    0.6290    0.4460 C   0  0  0  0  0  0  0  0  0  0  0  0
    4.1990    1.2700   -0.2880 C   0  0  0  0  0  0  0  0  0  0  0  0
    2.8910    0.8320   -0.1870 C   0  0  0  0  0  0  0  0  0  0  0  0
    2.5660   -0.2150    0.6250 C   0  0  0  0  0  0  0  0  0  0  0  0
    1.1900   -0.7250    0.7730 C   0  0  0  0  0  0  0  0  0  0  0  0
    0.9770   -1.6960    1.5440 O   0  0  0  0  0  0  0  0  0  0  0  0
    0.0990   -0.1630    0.0790 N   0  0  0  0  0  0  0  0  0  0  0  0
   -1.2530   -0.5900    0.1540 C   0  0  0  0  0  0  0  0  0  0  0  0
   -1.7020   -1.7540    0.7120 C   0  0  0  0  0  0  0  0  0  0  0  0
   -3.0460   -2.1300    0.7810 C   0  0  0  0  0  0  0  0  0  0  0  0
   -3.9650   -1.2670    0.2510 C   0  0  0  0  0  0  0  0  0  0  0  0
   -5.2980   -1.5850    0.2910 O   0  0  0  0  0  0  0  0  0  0  0  0
   -5.7500   -2.7910    0.8720 C   0  0  0  0  0  0  0  0  0  0  0  0
   -3.5690   -0.0680   -0.3300 C   0  0  0  0  0  0  0  0  0  0  0  0
   -4.5310    0.8150   -0.8690 N   0  0  0  0  0  0  0  0  0  0  0  0
   -4.1140    2.1500   -1.8500 S   0  0  1  0  0  0  0  0  0  0  0  0
   -2.9490    1.8930   -2.7580 O   0  0  0  0  0  0  0  0  0  0  0  0
   -5.2580    2.5570   -2.7460 O   0  0  0  0  0  0  0  0  0  0  0  0
   -2.2420    0.2670   -0.3800 C   0  0  0  0  0  0  0  0  0  0  0  0
    3.5450   -0.8160    1.3290 N   0  0  0  0  0  0  0  0  0  0  0  0
    3.2560   -1.8890    2.1710 O   0  0  0  0  0  0  0  0  0  0  0  0
    4.7730   -0.3900    1.2220 N   0  0  0  0  0  0  0  0  0  0  0  0
  1  2  1  0
  2  3  1  0
  3  4  2  0
  3 24  1  0
  4  5  1  0
  5  6  2  0
  6  7  1  0
  6 22  1  0
  7  8  2  0
  7  9  1  0
  9 10  1  0
 10 11  2  0
 10 21  1  0
 11 12  1  0
 12 13  2  0
 13 14  1  0
 13 16  1  0
 14 15  1  0
 16 17  1  0
 16 21  2  0
 18 17  1  6
 18 19  2  0
 18 20  2  0
 22 23  1  0
 22 24  2  0
M  CHG  2  22   1  23  -1
M  END
