
     RDKit          3D

 24 25  0  0  0  0  0  0  0  0999 V2000
    6.2040    0.7400   -1.3660 N   0  0  0  0  0  0  0  0  0  0  0  0
    4.9350    1.1780   -1.8840 C   0  0  0  0  0  0  0  0  0  0  0  0
    3.8400    1.0290   -0.9850 N   0  0  0  0  0  0  0  0  0  0  0  0
    3.4270   -0.0750   -0.4880 C   0  0  0  0  0  0  0  0  0  0  0  0
    4.1470   -1.3040   -0.8770 C   0  0  0  0  0  0  0  0  0  0  0  0
    4.8620   -1.8830    0.2280 N   0  0  0  0  0  0  0  0  0  0  0  0
    6.0980   -2.0180    0.1850 O   0  0  0  0  0  0  0  0  0  0  0  0
    4.1940   -2.2950    1.3440 O   0  0  0  0  0  0  0  0  0  0  0  0
    2.3110   -0.1640    0.4290 C   0  0  0  0  0  0  0  0  0  0  0  0
    1.7130    0.9170    0.7620 O   0  0  0  0  0  0  0  0  0  0  0  0
    1.8160   -1.3160    0.9920 O   0  0  0  0  0  0  0  0  0  0  0  0
    0.7230   -1.3690    1.8850 C   0  0  0  0  0  0  0  0  0  0  0  0
   -0.5200   -0.8470    1.2900 C   0  0  0  0  0  0  0  0  0  0  0  0
   -0.4430   -0.4360    0.0940 O   0  0  0  0  0  0  0  0  0  0  0  0
   -1.7490   -0.7820    1.9550 N   0  0  0  0  0  0  0  0  0  0  0  0
   -2.9690   -0.2630    1.3550 C   0  0  0  0  0  0  0  0  0  0  0  0
   -4.1000   -0.0620    1.5770 N   0  0  0  0  0  0  0  0  0  0  0  0
   -5.0260    0.4510    0.7900 C   0  0  0  0  0  0  0  0  0  0  0  0
   -6.3870    0.6990    1.0360 C   0  0  0  0  0  0  0  0  0  0  0  0
   -7.1770    1.2470    0.0580 C   0  0  0  0  0  0  0  0  0  0  0  0
   -6.7360    1.5910   -1.2010 C   0  0  0  0  0  0  0  0  0  0  0  0
   -5.3820    1.3490   -1.4600 C   0  0  0  0  0  0  0  0  0  0  0  0
   -4.6000    0.7960   -0.4640 C   0  0  0  0  0  0  0  0  0  0  0  0
   -2.8470    0.3410   -0.4070 S   0  0  0  0  0  0  0  0  0  0  0  0
  1  2  1  0
  2  3  1  0
  3  4  2  3
  4  5  1  0
  4  9  1  0
  5  6  1  0
  6  7  2  0
  6  8  1  0
  9 10  2  0
  9 11  1  0
 11 12  1  0
 12 13  1  0
 13 14  2  0
 13 15  1  0
 15 16  1  0
 16 17  2  0
 16 24  1  0
 17 18  1  0
 18 19  2  0
 18 23  1  0
 19 20  1  0
 20 21  2  0
 21 22  1  0
 22 23  2  0
 23 24  1  0
M  CHG  2   6   1   8  -1
M  END
