
     RDKit          3D

 17 17  0  0  0  0  0  0  0  0999 V2000
   -5.4270    0.7690   -0.5720 N   0  0  0  0  0  0  0  0  0  0  0  0
   -4.0920    1.1420   -0.8380 C   0  0  0  0  0  0  0  0  0  0  0  0
   -3.8670    2.1830   -1.4960 O   0  0  0  0  0  0  0  0  0  0  0  0
   -2.9820    0.3400   -0.3610 C   0  0  0  0  0  0  0  0  0  0  0  0
   -3.2820   -0.8110    0.3680 C   0  0  0  0  0  0  0  0  0  0  0  0
   -2.2830   -1.6130    0.8470 C   0  0  0  0  0  0  0  0  0  0  0  0
   -0.9560   -1.2520    0.5880 C   0  0  0  0  0  0  0  0  0  0  0  0
   -0.6060   -0.1440   -0.1150 C   0  0  0  0  0  0  0  0  0  0  0  0
    0.6950    0.3140   -0.4150 N   0  0  0  0  0  0  0  0  0  0  0  0
    1.8390   -0.2240    0.2200 C   0  0  0  0  0  0  0  0  0  0  0  0
    1.8060   -1.1300    1.0860 O   0  0  0  0  0  0  0  0  0  0  0  0
    3.1700    0.2700   -0.1200 C   0  0  0  0  0  0  0  0  0  0  0  0
    4.2310   -0.2250    0.4640 C   0  0  0  0  0  0  0  0  0  0  0  0
    5.5480    0.2810    0.1110 C   0  0  0  0  0  0  0  0  0  0  0  0
    5.6760    1.2020   -0.7610 O   0  0  0  0  0  0  0  0  0  0  0  0
    6.6800   -0.2060    0.6950 O   0  0  0  0  0  0  0  0  0  0  0  0
   -1.6700    0.6490   -0.5870 C   0  0  0  0  0  0  0  0  0  0  0  0
  1  2  1  0
  2  3  2  0
  2  4  1  0
  4  5  2  0
  4 17  1  0
  5  6  1  0
  6  7  2  0
  7  8  1  0
  8  9  1  0
  8 17  2  0
  9 10  1  0
 10 11  2  0
 10 12  1  0
 12 13  2  3
 13 14  1  0
 14 15  2  0
 14 16  1  0
M  END
