
     RDKit          3D

 12 11  0  0  0  0  0  0  0  0999 V2000
   -0.1690   -3.0920   -1.7740 O   0  0  0  0  0  0  0  0  0  0  0  0
   -0.6310   -3.3190   -0.4790 C   0  0  0  0  0  0  0  0  0  0  0  0
   -0.6510   -1.9790    0.2810 C   0  0  0  0  0  0  0  0  0  0  0  0
    0.6280   -1.5200    0.2870 O   0  0  0  0  0  0  0  0  0  0  0  0
    0.9250   -0.3530    0.8780 C   0  0  0  0  0  0  0  0  0  0  0  0
    0.3480    0.9110    0.3660 C   0  0  2  0  0  0  0  0  0  0  0  0
    0.7240    1.2070   -0.9380 O   0  0  0  0  0  0  0  0  0  0  0  0
   -0.2800    1.5720   -1.7900 C   0  0  0  0  0  0  0  0  0  0  0  0
   -1.2810    0.6380   -1.9880 O   0  0  0  0  0  0  0  0  0  0  0  0
    0.8040    2.0810    1.2900 C   0  0  2  0  0  0  0  0  0  0  0  0
    0.4300    1.7920    2.6010 O   0  0  0  0  0  0  0  0  0  0  0  0
    0.1350    3.2420    0.9100 O   0  0  0  0  0  0  0  0  0  0  0  0
  1  2  1  0
  2  3  1  0
  3  4  1  0
  4  5  1  0
  6  5  1  1
  6  7  1  0
  6 10  1  0
  7  8  1  0
  8  9  1  0
 10 11  1  1
 10 12  1  0
M  END
