
     RDKit          3D

 12 11  0  0  0  0  0  0  0  0999 V2000
    0.6170    1.0040   -1.1720 O   0  0  0  0  0  0  0  0  0  0  0  0
    0.7840    0.2030   -0.2210 C   0  0  0  0  0  0  0  0  0  0  0  0
   -0.3930   -0.5540    0.2530 C   0  0  0  0  0  0  0  0  0  0  0  0
   -1.5160   -0.2440   -0.4520 O   0  0  0  0  0  0  0  0  0  0  0  0
   -2.6540   -0.8810   -0.1000 C   0  0  2  0  0  0  0  0  0  0  0  0
   -3.0610   -1.7020   -1.1760 O   0  0  0  0  0  0  0  0  0  0  0  0
   -3.8170   -0.0100    0.2510 C   0  0  0  0  0  0  0  0  0  0  0  0
   -4.1620    0.8050   -0.8510 O   0  0  0  0  0  0  0  0  0  0  0  0
    2.0580    0.0960    0.3060 O   0  0  0  0  0  0  0  0  0  0  0  0
    3.1420    0.8750   -0.2230 C   0  0  0  0  0  0  0  0  0  0  0  0
    4.4200    0.5960    0.4970 C   0  0  0  0  0  0  0  0  0  0  0  0
    4.7290   -0.7610    0.3550 O   0  0  0  0  0  0  0  0  0  0  0  0
  1  2  2  0
  2  3  1  0
  2  9  1  0
  3  4  1  0
  4  5  1  0
  5  6  1  6
  5  7  1  0
  7  8  1  0
  9 10  1  0
 10 11  1  0
 11 12  1  0
M  END
