
     RDKit          3D

 12 11  0  0  0  0  0  0  0  0999 V2000
    1.2790    2.4690    1.0670 O   0  0  0  0  0  0  0  0  0  0  0  0
    1.4420    2.2980   -0.1510 C   0  0  0  0  0  0  0  0  0  0  0  0
    2.2370    3.1410   -0.9310 O   0  0  0  0  0  0  0  0  0  0  0  0
    0.7940    1.2110   -0.7450 O   0  0  0  0  0  0  0  0  0  0  0  0
   -0.0200    0.3570    0.0810 C   0  0  2  0  0  0  0  0  0  0  0  0
    0.6160   -1.0110   -0.0470 C   0  0  0  0  0  0  0  0  0  0  0  0
    2.0580   -0.8200    0.4630 C   0  0  0  0  0  0  0  0  0  0  0  0
    2.7610   -2.0170    0.3980 O   0  0  0  0  0  0  0  0  0  0  0  0
   -1.3880    0.3230   -0.5090 C   0  0  0  0  0  0  0  0  0  0  0  0
   -2.3890   -0.5190    0.2250 C   0  0  1  0  0  0  0  0  0  0  0  0
   -3.6010   -0.3860   -0.5060 O   0  0  0  0  0  0  0  0  0  0  0  0
   -2.0380   -1.8830    0.1670 O   0  0  0  0  0  0  0  0  0  0  0  0
  1  2  2  0
  2  3  1  0
  2  4  1  0
  4  5  1  0
  5  6  1  6
  5  9  1  0
  6  7  1  0
  7  8  1  0
  9 10  1  0
 10 11  1  6
 10 12  1  0
M  END
