
     RDKit          3D

 13 12  0  0  0  0  0  0  0  0999 V2000
    3.1840    0.0850    0.3430 O   0  0  0  0  0  0  0  0  0  0  0  0
    2.6540    0.7270   -0.5830 C   0  0  0  0  0  0  0  0  0  0  0  0
    3.2860    0.7650   -1.8340 O   0  0  0  0  0  0  0  0  0  0  0  0
    1.3890    1.4470   -0.4120 C   0  0  0  0  0  0  0  0  0  0  0  0
    0.8170    1.3000    0.8210 O   0  0  0  0  0  0  0  0  0  0  0  0
    0.4600    0.0300    1.1170 C   0  0  0  0  0  0  0  0  0  0  0  0
   -0.5810   -0.5530    0.1850 C   0  0  1  0  0  0  0  0  0  0  0  0
   -0.7770   -1.9920    0.6330 C   0  0  0  0  0  0  0  0  0  0  0  0
   -1.2020   -2.0450    1.9560 O   0  0  0  0  0  0  0  0  0  0  0  0
   -1.7220    0.2140    0.2600 O   0  0  0  0  0  0  0  0  0  0  0  0
   -2.3430    0.8270   -0.7960 C   0  0  0  0  0  0  0  0  0  0  0  0
   -1.8600    0.6920   -1.9200 O   0  0  0  0  0  0  0  0  0  0  0  0
   -3.4950    1.5710   -0.5150 O   0  0  0  0  0  0  0  0  0  0  0  0
  1  2  2  0
  2  3  1  0
  2  4  1  0
  4  5  1  0
  5  6  1  0
  7  6  1  1
  7  8  1  0
  7 10  1  0
  8  9  1  0
 10 11  1  0
 11 12  2  0
 11 13  1  0
M  END
