
     RDKit          3D

 12 11  0  0  0  0  0  0  0  0999 V2000
   -2.7900    2.3290   -0.4200 O   0  0  0  0  0  0  0  0  0  0  0  0
   -2.3860    1.4560    0.5690 C   0  0  0  0  0  0  0  0  0  0  0  0
   -1.7880    0.1770    0.0270 C   0  0  1  0  0  0  0  0  0  0  0  0
   -2.7750   -0.6350   -0.7530 C   0  0  0  0  0  0  0  0  0  0  0  0
   -2.1570   -1.8370   -1.0960 O   0  0  0  0  0  0  0  0  0  0  0  0
   -0.6630    0.4140   -0.7610 O   0  0  0  0  0  0  0  0  0  0  0  0
    0.4100   -0.1840   -0.1640 C   0  0  0  0  0  0  0  0  0  0  0  0
    1.6050   -0.0460   -0.8160 O   0  0  0  0  0  0  0  0  0  0  0  0
    2.5810   -0.7170   -0.0660 C   0  0  1  0  0  0  0  0  0  0  0  0
    3.1670   -1.7500   -0.7910 O   0  0  0  0  0  0  0  0  0  0  0  0
    3.5790    0.3130    0.3810 C   0  0  0  0  0  0  0  0  0  0  0  0
    2.8910    1.2520    1.1540 O   0  0  0  0  0  0  0  0  0  0  0  0
  1  2  1  0
  3  2  1  6
  3  4  1  0
  3  6  1  0
  4  5  1  0
  6  7  1  0
  7  8  1  0
  8  9  1  0
  9 10  1  6
  9 11  1  0
 11 12  1  0
M  END
