
     RDKit          3D

 25 27  0  0  0  0  0  0  0  0999 V2000
   -3.7660   -0.6370    3.3060 C   0  0  0  0  0  0  0  0  0  0  0  0
   -3.9320   -1.4330    2.0710 C   0  0  0  0  0  0  0  0  0  0  0  0
   -3.9010   -0.5700    0.8270 N   0  0  2  0  0  0  0  0  0  0  0  0
   -3.9150   -1.6070   -0.2140 C   0  0  0  0  0  0  0  0  0  0  0  0
   -2.5790    0.0130    0.9090 C   0  0  0  0  0  0  0  0  0  0  0  0
   -1.9220    0.3360   -0.3630 C   0  0  0  0  0  0  0  0  0  0  0  0
   -0.5110    0.3870   -0.4820 C   0  0  0  0  0  0  0  0  0  0  0  0
    0.4050    0.4110    0.6550 C   0  0  0  0  0  0  0  0  0  0  0  0
    1.7760    0.2760    0.3600 N   0  0  1  0  0  0  0  0  0  0  0  0
    2.4560    0.7760    1.4480 O   0  0  0  0  0  0  0  0  0  0  0  0
    2.1150   -1.1840    0.4050 C   0  0  0  0  0  0  0  0  0  0  0  0
    3.5620   -1.2480    0.8000 C   0  0  0  0  0  0  0  0  0  0  0  0
    4.4150   -0.4110   -0.1400 C   0  0  2  0  0  0  0  0  0  0  0  0
    3.5330    0.0080   -1.2850 C   0  0  0  0  0  0  0  0  0  0  0  0
    2.3530    0.8640   -0.7660 C   0  0  0  0  0  0  0  0  0  0  0  0
    5.4960   -1.1110   -0.6280 O   0  0  0  0  0  0  0  0  0  0  0  0
    6.5510   -0.8900    0.2540 C   0  0  0  0  0  0  0  0  0  0  0  0
    5.9810    0.1030    1.2550 C   0  0  0  0  0  0  0  0  0  0  0  0
    4.9510    0.6900    0.5050 O   0  0  0  0  0  0  0  0  0  0  0  0
   -0.2950    0.6690   -1.7610 N   0  0  0  0  0  0  0  0  0  0  0  0
   -1.3950    0.8140   -2.4190 N   0  0  0  0  0  0  0  0  0  0  0  0
   -2.4570    0.6240   -1.5680 C   0  0  0  0  0  0  0  0  0  0  0  0
   -3.8670    0.9350   -2.0090 C   0  0  0  0  0  0  0  0  0  0  0  0
   -3.8380    2.3340   -2.2970 O   0  0  0  0  0  0  0  0  0  0  0  0
   -2.8870    2.8910   -3.0120 C   0  0  0  0  0  0  0  0  0  0  0  0
  1  2  1  0
  2  3  1  0
  3  4  1  6
  3  5  1  0
  5  6  1  0
  6  7  1  0
  6 22  2  0
  7  8  1  0
  7 20  2  0
  8  9  1  0
  9 10  1  1
  9 11  1  0
  9 15  1  0
 11 12  1  0
 13 12  1  1
 13 14  1  0
 13 16  1  0
 13 19  1  0
 14 15  1  0
 16 17  1  0
 17 18  1  0
 18 19  1  0
 20 21  1  0
 21 22  1  0
 22 23  1  0
 23 24  1  0
 24 25  1  0
M  CHG  3   3   1   9   1  10  -1
M  END
