
     RDKit          3D

 20 22  0  0  0  0  0  0  0  0999 V2000
    5.4680    1.6390    0.3570 C   0  0  0  0  0  0  0  0  0  0  0  0
    4.5720    1.1900   -1.1860 S   0  0  0  0  0  0  0  0  0  0  0  0
    3.9790   -0.5190   -1.0090 C   0  0  0  0  0  0  0  0  0  0  0  0
    2.7980   -0.5580   -0.0470 C   0  0  1  0  0  0  0  0  0  0  0  0
    1.5920    0.1520   -0.5090 C   0  0  0  0  0  0  0  0  0  0  0  0
    0.4450   -0.5300    0.1350 N   0  0  1  0  0  0  0  0  0  0  0  0
   -0.6560   -0.2790   -0.7310 C   0  0  0  0  0  0  0  0  0  0  0  0
   -2.0370   -0.3450   -0.2250 C   0  0  0  0  0  0  0  0  0  0  0  0
   -2.8800   -1.3700    0.0260 C   0  0  0  0  0  0  0  0  0  0  0  0
   -4.1280   -0.9150    0.2640 N   0  0  0  0  0  0  0  0  0  0  0  0
   -4.0780    0.4380    0.1690 C   0  0  0  0  0  0  0  0  0  0  0  0
   -5.0680    1.3600    0.3900 C   0  0  0  0  0  0  0  0  0  0  0  0
   -6.4030    1.0950    0.7230 N   0  0  0  0  0  0  0  0  0  0  0  0
   -4.7030    2.6840    0.2800 N   0  0  0  0  0  0  0  0  0  0  0  0
   -3.4560    3.0100   -0.0180 C   0  0  0  0  0  0  0  0  0  0  0  0
   -2.4590    2.1290   -0.2340 N   0  0  0  0  0  0  0  0  0  0  0  0
   -2.8130    0.8300   -0.1300 C   0  0  0  0  0  0  0  0  0  0  0  0
    0.8290   -1.8040    0.5340 C   0  0  0  0  0  0  0  0  0  0  0  0
    2.3500   -1.9260    0.3360 C   0  0  2  0  0  0  0  0  0  0  0  0
    2.9280   -2.3100    1.5550 O   0  0  0  0  0  0  0  0  0  0  0  0
  1  2  1  0
  2  3  1  0
  4  3  1  6
  4  5  1  0
  4 19  1  0
  5  6  1  0
  6  7  1  6
  6 18  1  0
  7  8  1  0
  8  9  2  0
  8 17  1  0
  9 10  1  0
 10 11  1  0
 11 12  2  0
 11 17  1  0
 12 13  1  0
 12 14  1  0
 14 15  2  0
 15 16  1  0
 16 17  2  0
 18 19  1  0
 19 20  1  1
M  CHG  1   6   1
M  END
