
     RDKit          3D

 25 26  0  0  0  0  0  0  0  0999 V2000
   -2.4850    4.6300   -2.0040 C   0  0  0  0  0  0  0  0  0  0  0  0
   -2.3580    3.7890   -0.7100 C   0  0  0  0  0  0  0  0  0  0  0  0
   -3.3070    2.7080   -0.7550 C   0  0  0  0  0  0  0  0  0  0  0  0
   -3.2800    1.4060   -0.7090 C   0  0  0  0  0  0  0  0  0  0  0  0
   -4.4790    0.6470   -0.7890 O   0  0  0  0  0  0  0  0  0  0  0  0
   -4.2280   -0.6760   -0.6740 C   0  0  0  0  0  0  0  0  0  0  0  0
   -2.7170   -0.7900   -0.5880 C   0  0  0  0  0  0  0  0  0  0  0  0
   -2.1100   -2.1230   -0.8680 C   0  0  0  0  0  0  0  0  0  0  0  0
   -2.8540   -3.2260   -0.7140 C   0  0  0  0  0  0  0  0  0  0  0  0
   -2.3390   -4.5100   -0.9630 N   0  0  0  0  0  0  0  0  0  0  0  0
   -0.8780   -2.2930   -1.4860 N   0  0  0  0  0  0  0  0  0  0  0  0
   -0.1970   -3.3440   -1.2910 O   0  0  0  0  0  0  0  0  0  0  0  0
   -0.3880   -1.3270   -2.3440 O   0  0  0  0  0  0  0  0  0  0  0  0
   -2.2070    0.3890   -0.5800 C   0  0  0  0  0  0  0  0  0  0  0  0
   -0.9150    0.7560   -0.1240 N   0  0  0  0  0  0  0  0  0  0  0  0
    0.0700   -0.0310    0.5010 C   0  0  0  0  0  0  0  0  0  0  0  0
   -0.0900   -1.2080    0.7970 O   0  0  0  0  0  0  0  0  0  0  0  0
    1.3710    0.6220    0.8120 C   0  0  1  0  0  0  0  0  0  0  0  0
    1.2250    1.7030    1.8630 C   0  0  0  0  0  0  0  0  0  0  0  0
    2.6720    1.9170    2.2580 C   0  0  0  0  0  0  0  0  0  0  0  0
    3.3880    0.6510    1.7870 C   0  0  0  0  0  0  0  0  0  0  0  0
    2.2960   -0.2760    1.4460 N   0  0  2  0  0  0  0  0  0  0  0  0
    2.7290   -1.3400    0.5990 C   0  0  0  0  0  0  0  0  0  0  0  0
    4.1760   -1.7290    0.8040 C   0  0  0  0  0  0  0  0  0  0  0  0
    4.4830   -2.8680   -0.1660 C   0  0  0  0  0  0  0  0  0  0  0  0
  1  2  1  0
  2  3  1  0
  3  4  2  3
  4  5  1  0
  4 14  1  0
  5  6  1  0
  6  7  1  0
  7  8  1  0
  7 14  2  0
  8  9  2  3
  8 11  1  0
  9 10  1  0
 11 12  2  0
 11 13  1  0
 14 15  1  0
 15 16  1  0
 16 17  2  0
 18 16  1  1
 18 19  1  0
 18 22  1  0
 19 20  1  0
 20 21  1  0
 21 22  1  0
 22 23  1  6
 23 24  1  0
 24 25  1  0
M  CHG  3  11   1  13  -1  22   1
M  END
