
     RDKit          3D

 25 25  0  0  0  0  0  0  0  0999 V2000
    6.0400    2.0510   -0.8880 C   0  0  0  0  0  0  0  0  0  0  0  0
    5.6430    1.7120    0.5220 C   0  0  0  0  0  0  0  0  0  0  0  0
    4.2160    1.2210    0.6150 C   0  0  0  0  0  0  0  0  0  0  0  0
    4.1060    0.0020   -0.2260 C   0  0  0  0  0  0  0  0  0  0  0  0
    2.6540   -0.5530   -0.1710 C   0  0  0  0  0  0  0  0  0  0  0  0
    1.6800    0.3250   -0.7010 N   0  0  0  0  0  0  0  0  0  0  0  0
    0.3100    0.2250   -0.5000 C   0  0  0  0  0  0  0  0  0  0  0  0
   -0.1590   -0.6480    0.2120 O   0  0  0  0  0  0  0  0  0  0  0  0
   -0.5790    1.1760   -1.1490 C   0  0  0  0  0  0  0  0  0  0  0  0
   -2.0350    0.9680   -0.8570 C   0  0  1  0  0  0  0  0  0  0  0  0
   -2.5540   -0.3390   -1.2650 C   0  0  0  0  0  0  0  0  0  0  0  0
   -1.8140   -1.2260   -1.7560 O   0  0  0  0  0  0  0  0  0  0  0  0
   -3.9110   -0.7510   -1.1610 N   0  0  0  0  0  0  0  0  0  0  0  0
   -4.2170   -2.0690   -1.6350 C   0  0  0  0  0  0  0  0  0  0  0  0
   -4.0550   -3.0370   -0.4830 C   0  0  0  0  0  0  0  0  0  0  0  0
   -5.0050   -0.0870   -0.6720 O   0  0  0  0  0  0  0  0  0  0  0  0
   -4.7500    0.4590    0.5850 C   0  0  0  0  0  0  0  0  0  0  0  0
   -3.8090    1.6310    0.5330 C   0  0  0  0  0  0  0  0  0  0  0  0
   -2.4140    1.2170    0.4970 N   0  0  2  0  0  0  0  0  0  0  0  0
   -1.6620    2.2240    1.1700 C   0  0  0  0  0  0  0  0  0  0  0  0
   -1.9780    2.1040    2.6670 C   0  0  0  0  0  0  0  0  0  0  0  0
    2.4820   -1.5620    0.4980 N   0  0  0  0  0  0  0  0  0  0  0  0
    3.7050   -2.0030    1.1310 O   0  0  0  0  0  0  0  0  0  0  0  0
    1.4650   -2.5040    0.7520 C   0  0  0  0  0  0  0  0  0  0  0  0
    2.1280   -3.9630    0.7200 C   0  0  0  0  0  0  0  0  0  0  0  0
  1  2  1  0
  2  3  1  0
  3  4  1  0
  4  5  1  0
  5  6  1  0
  5 22  2  3
  6  7  1  0
  7  8  2  0
  7  9  1  0
 10  9  1  1
 10 11  1  0
 10 19  1  0
 11 12  2  0
 11 13  1  0
 13 14  1  0
 13 16  1  0
 14 15  1  0
 16 17  1  0
 17 18  1  0
 18 19  1  0
 19 20  1  6
 20 21  1  0
 22 23  1  0
 22 24  1  0
 24 25  1  0
M  CHG  3  19   1  22   1  23  -1
M  END
