
     RDKit          3D

 25 27  0  0  0  0  0  0  0  0999 V2000
    8.1080   -2.3660    0.2110 C   0  0  0  0  0  0  0  0  0  0  0  0
    7.1490   -1.4990   -0.2830 O   0  0  0  0  0  0  0  0  0  0  0  0
    5.9120   -1.6790    0.3360 C   0  0  0  0  0  0  0  0  0  0  0  0
    4.9640   -0.6580   -0.3110 C   0  0  0  0  0  0  0  0  0  0  0  0
    3.6940   -0.7590    0.2430 O   0  0  0  0  0  0  0  0  0  0  0  0
    2.8590    0.1200   -0.3060 N   0  0  2  0  0  0  0  0  0  0  0  0
    2.1480   -0.5310   -1.2610 O   0  0  0  0  0  0  0  0  0  0  0  0
    3.4920    1.2470   -0.9480 C   0  0  0  0  0  0  0  0  0  0  0  0
    2.4080    2.0140   -1.6930 C   0  0  0  0  0  0  0  0  0  0  0  0
    1.1590    1.4460   -1.4320 O   0  0  0  0  0  0  0  0  0  0  0  0
    0.9470    1.5420   -0.0590 C   0  0  1  0  0  0  0  0  0  0  0  0
   -0.4990    1.3240    0.2910 C   0  0  0  0  0  0  0  0  0  0  0  0
   -0.9870    0.0430   -0.1050 N   0  0  0  0  0  0  0  0  0  0  0  0
   -2.4170   -0.0250   -0.1940 C   0  0  2  0  0  0  0  0  0  0  0  0
   -3.0040    0.8090   -1.2770 C   0  0  0  0  0  0  0  0  0  0  0  0
   -3.9050    1.9010   -0.8330 C   0  0  0  0  0  0  0  0  0  0  0  0
   -4.9340    1.5140    0.1720 C   0  0  0  0  0  0  0  0  0  0  0  0
   -4.5580    0.3620    1.0380 C   0  0  1  0  0  0  0  0  0  0  0  0
   -5.2050   -0.8290    0.5570 N   0  0  0  0  0  0  0  0  0  0  0  0
   -4.7850   -2.1160    0.6790 C   0  0  0  0  0  0  0  0  0  0  0  0
   -5.7300   -2.8990    0.0650 C   0  0  0  0  0  0  0  0  0  0  0  0
   -6.7220   -2.0640   -0.4250 C   0  0  0  0  0  0  0  0  0  0  0  0
   -6.3530   -0.8320   -0.1000 N   0  0  0  0  0  0  0  0  0  0  0  0
   -3.0670    0.2120    1.1580 C   0  0  0  0  0  0  0  0  0  0  0  0
    1.8900    0.6430    0.6500 C   0  0  0  0  0  0  0  0  0  0  0  0
  1  2  1  0
  2  3  1  0
  3  4  1  0
  4  5  1  0
  5  6  1  0
  6  7  1  6
  6  8  1  0
  6 25  1  0
  8  9  1  0
  9 10  1  0
 10 11  1  0
 11 12  1  6
 11 25  1  0
 12 13  1  0
 14 13  1  1
 14 15  1  0
 14 24  1  0
 15 16  1  0
 16 17  1  0
 17 18  1  0
 18 19  1  6
 18 24  1  0
 19 20  1  0
 19 23  1  0
 20 21  2  0
 21 22  1  0
 22 23  2  0
M  CHG  3   6   1   7  -1  13   1
M  END
