
     RDKit          3D

 25 26  0  0  0  0  0  0  0  0999 V2000
   -2.3210   -0.7700    3.1060 C   0  0  0  0  0  0  0  0  0  0  0  0
   -1.1490   -0.9640    2.2030 C   0  0  0  0  0  0  0  0  0  0  0  0
   -1.5290   -0.9230    0.7400 C   0  0  1  0  0  0  0  0  0  0  0  0
   -0.3680   -1.1150   -0.0930 N   0  0  0  0  0  0  0  0  0  0  0  0
    0.4960    0.0150   -0.1650 C   0  0  0  0  0  0  0  0  0  0  0  0
    1.8940   -0.3540   -0.5060 C   0  0  0  0  0  0  0  0  0  0  0  0
    2.4130   -1.6070   -0.7590 C   0  0  0  0  0  0  0  0  0  0  0  0
    3.7030   -1.4920   -1.0220 O   0  0  0  0  0  0  0  0  0  0  0  0
    4.0540   -0.2290   -0.9550 C   0  0  0  0  0  0  0  0  0  0  0  0
    5.4240    0.3040   -1.1880 C   0  0  0  0  0  0  0  0  0  0  0  0
    6.2150    0.3390    0.1190 C   0  0  1  0  0  0  0  0  0  0  0  0
    7.5960    0.8750   -0.1080 C   0  0  0  0  0  0  0  0  0  0  0  0
    5.4700    1.1240    1.1740 C   0  0  0  0  0  0  0  0  0  0  0  0
    2.9370    0.4840   -0.6350 N   0  0  0  0  0  0  0  0  0  0  0  0
   -2.5800   -1.9260    0.3890 C   0  0  0  0  0  0  0  0  0  0  0  0
   -3.7350   -1.1800   -0.2300 C   0  0  2  0  0  0  0  0  0  0  0  0
   -3.7820   -1.3580   -1.7340 C   0  0  0  0  0  0  0  0  0  0  0  0
   -3.5440    0.2220    0.1360 N   0  0  0  0  0  0  0  0  0  0  0  0
   -4.5860    1.2170    0.1730 C   0  0  0  0  0  0  0  0  0  0  0  0
   -4.7530    1.9300   -1.1430 C   0  0  0  0  0  0  0  0  0  0  0  0
   -5.8130    2.9070   -1.0220 N   0  0  0  0  0  0  0  0  0  0  0  0
   -6.4260    3.0490    0.0560 O   0  0  0  0  0  0  0  0  0  0  0  0
   -6.2020    3.7180   -2.0570 O   0  0  0  0  0  0  0  0  0  0  0  0
   -2.1740    0.3730    0.4300 C   0  0  0  0  0  0  0  0  0  0  0  0
   -1.6000    1.5080    0.4200 O   0  0  0  0  0  0  0  0  0  0  0  0
  1  2  1  0
  3  2  1  1
  3  4  1  0
  3 15  1  0
  3 24  1  0
  4  5  1  0
  5  6  1  0
  6  7  2  0
  6 14  1  0
  7  8  1  0
  8  9  1  0
  9 10  1  0
  9 14  2  0
 10 11  1  0
 11 12  1  6
 11 13  1  0
 15 16  1  0
 16 17  1  6
 16 18  1  0
 18 19  1  0
 18 24  1  0
 19 20  1  0
 20 21  1  0
 21 22  2  0
 21 23  1  0
 24 25  2  0
M  CHG  3   4   1  21   1  23  -1
M  END
