
     RDKit          3D

 25 26  0  0  0  0  0  0  0  0999 V2000
    6.9770   -0.7040    0.5550 C   0  0  0  0  0  0  0  0  0  0  0  0
    6.0170   -1.7460    0.3550 N   0  0  0  0  0  0  0  0  0  0  0  0
    5.2720   -1.6520   -0.8640 C   0  0  0  0  0  0  0  0  0  0  0  0
    4.0750   -0.7580   -0.7130 C   0  0  0  0  0  0  0  0  0  0  0  0
    4.1080    0.5900   -0.9890 C   0  0  0  0  0  0  0  0  0  0  0  0
    2.7940    1.0170   -0.7130 C   0  0  0  0  0  0  0  0  0  0  0  0
    2.0620   -0.0450   -0.3010 C   0  0  0  0  0  0  0  0  0  0  0  0
    0.6820   -0.1790    0.1010 C   0  0  0  0  0  0  0  0  0  0  0  0
    0.3120   -1.3740    0.5030 O   0  0  0  0  0  0  0  0  0  0  0  0
   -0.3400    0.7620    0.1380 N   0  0  0  0  0  0  0  0  0  0  0  0
   -1.6720    0.2960    0.6670 C   0  0  0  0  0  0  0  0  0  0  0  0
   -2.4930   -0.2120   -0.4260 C   0  0  0  0  0  0  0  0  0  0  0  0
   -3.7860   -0.7460   -0.2330 N   0  0  0  0  0  0  0  0  0  0  0  0
   -4.4910   -1.0980   -1.4520 C   0  0  0  0  0  0  0  0  0  0  0  0
   -5.6760   -1.6130   -1.4980 C   0  0  0  0  0  0  0  0  0  0  0  0
   -6.3900   -1.8750   -0.2540 C   0  0  0  0  0  0  0  0  0  0  0  0
   -5.6560   -1.5110    0.9520 C   0  0  0  0  0  0  0  0  0  0  0  0
   -4.4360   -0.9820    0.9840 C   0  0  0  0  0  0  0  0  0  0  0  0
   -3.8750   -0.7090    2.3150 C   0  0  0  0  0  0  0  0  0  0  0  0
   -0.2010    2.0970   -0.3400 C   0  0  0  0  0  0  0  0  0  0  0  0
    0.3170    3.0900    0.6420 C   0  0  0  0  0  0  0  0  0  0  0  0
    0.4120    4.3990    0.0280 N   0  0  0  0  0  0  0  0  0  0  0  0
    0.0730    4.5350   -1.1620 O   0  0  0  0  0  0  0  0  0  0  0  0
    0.8610    5.5040    0.7040 O   0  0  0  0  0  0  0  0  0  0  0  0
    2.8900   -1.0770   -0.3240 O   0  0  0  0  0  0  0  0  0  0  0  0
  1  2  1  0
  2  3  1  0
  3  4  1  0
  4  5  2  0
  4 25  1  0
  5  6  1  0
  6  7  2  0
  7  8  1  0
  7 25  1  0
  8  9  2  0
  8 10  1  0
 10 11  1  0
 10 20  1  0
 11 12  1  0
 12 13  1  0
 13 14  1  0
 13 18  1  0
 14 15  2  0
 15 16  1  0
 16 17  1  0
 17 18  2  0
 18 19  1  0
 20 21  1  0
 21 22  1  0
 22 23  2  0
 22 24  1  0
M  CHG  3   2   1  22   1  24  -1
M  END
