
     RDKit          3D

 24 25  0  0  0  0  0  0  0  0999 V2000
   -2.2150   -2.6860   -1.3510 C   0  0  0  0  0  0  0  0  0  0  0  0
   -3.0150   -1.4580   -1.0080 C   0  0  0  0  0  0  0  0  0  0  0  0
   -2.6470   -0.8300    0.2330 N   0  0  1  0  0  0  0  0  0  0  0  0
   -1.2500   -0.8880    0.5620 C   0  0  0  0  0  0  0  0  0  0  0  0
   -0.3120   -0.6030   -0.5120 C   0  0  0  0  0  0  0  0  0  0  0  0
   -0.7370   -0.3220   -1.6550 O   0  0  0  0  0  0  0  0  0  0  0  0
    1.0910   -0.6310   -0.3180 N   0  0  0  0  0  0  0  0  0  0  0  0
    1.7120   -0.9430    0.9580 C   0  0  0  0  0  0  0  0  0  0  0  0
    2.9790   -1.7220    0.6200 C   0  0  0  0  0  0  0  0  0  0  0  0
    3.9860   -0.7060    0.1090 C   0  0  1  0  0  0  0  0  0  0  0  0
    3.2560    0.2700   -0.7650 C   0  0  1  0  0  0  0  0  0  0  0  0
    4.2240    0.7630   -1.8180 C   0  0  0  0  0  0  0  0  0  0  0  0
    5.0520    1.7880   -1.2110 N   0  0  0  0  0  0  0  0  0  0  0  0
    5.4750    1.9820    0.1330 C   0  0  0  0  0  0  0  0  0  0  0  0
    6.2010    2.9700    0.3940 O   0  0  0  0  0  0  0  0  0  0  0  0
    5.1320    1.1110    1.2760 C   0  0  0  0  0  0  0  0  0  0  0  0
    4.5070   -0.0180    1.2750 N   0  0  0  0  0  0  0  0  0  0  0  0
    4.3480   -0.5770    2.5110 O   0  0  0  0  0  0  0  0  0  0  0  0
    2.0160   -0.3430   -1.4050 C   0  0  0  0  0  0  0  0  0  0  0  0
   -3.2060    0.4770    0.3950 C   0  0  2  0  0  0  0  0  0  0  0  0
   -3.7430    1.0450   -0.9290 C   0  0  0  0  0  0  0  0  0  0  0  0
   -2.2260    1.5170    0.9000 C   0  0  0  0  0  0  0  0  0  0  0  0
   -4.4270    0.4000    1.2930 C   0  0  0  0  0  0  0  0  0  0  0  0
   -5.0770    1.7260    1.5180 C   0  0  0  0  0  0  0  0  0  0  0  0
  1  2  1  0
  3  2  1  6
  3  4  1  0
  3 20  1  0
  4  5  1  0
  5  6  2  0
  5  7  1  0
  7  8  1  0
  7 19  1  0
  8  9  1  0
 10  9  1  1
 10 11  1  0
 10 17  1  0
 11 12  1  6
 11 19  1  0
 12 13  1  0
 13 14  1  0
 14 15  2  0
 14 16  1  0
 16 17  2  0
 17 18  1  0
 20 21  1  6
 20 22  1  0
 20 23  1  0
 23 24  1  0
M  CHG  3   3   1  17   1  18  -1
M  END
