
     RDKit          3D

 15 15  0  0  0  0  0  0  0  0999 V2000
    5.8020    0.0750    0.1950 C   0  0  0  0  0  0  0  0  0  0  0  0
    4.5120    0.6060    0.1890 O   0  0  0  0  0  0  0  0  0  0  0  0
    3.3560   -0.1270    0.0920 C   0  0  0  0  0  0  0  0  0  0  0  0
    3.4450   -1.3770   -0.0010 O   0  0  0  0  0  0  0  0  0  0  0  0
    1.9960    0.4810    0.0900 C   0  0  0  0  0  0  0  0  0  0  0  0
    1.0330   -0.4700   -0.0170 O   0  0  0  0  0  0  0  0  0  0  0  0
   -0.2800   -0.0350   -0.0420 C   0  0  1  0  0  0  0  0  0  0  0  0
   -0.5630    0.6980    1.2500 C   0  0  0  0  0  0  0  0  0  0  0  0
   -0.3650   -0.1300    2.3490 O   0  0  0  0  0  0  0  0  0  0  0  0
   -0.5680    0.8650   -1.2140 C   0  0  0  0  0  0  0  0  0  0  0  0
   -1.7940    0.4460   -1.9820 C   0  0  0  0  0  0  0  0  0  0  0  0
   -2.9510    0.1140   -1.0720 C   0  0  0  0  0  0  0  0  0  0  0  0
   -2.5750   -1.0730   -0.2580 C   0  0  2  0  0  0  0  0  0  0  0  0
   -3.3340   -1.0130    0.9900 N   0  0  0  0  0  0  0  0  0  0  0  0
   -1.1280   -1.2840   -0.0470 C   0  0  0  0  0  0  0  0  0  0  0  0
  1  2  1  0
  2  3  1  0
  3  4  2  0
  3  5  1  0
  5  6  1  0
  6  7  1  0
  7  8  1  1
  7 10  1  0
  7 15  1  0
  8  9  1  0
 10 11  1  0
 11 12  1  0
 12 13  1  0
 13 14  1  1
 13 15  1  0
M  CHG  1  14   1
M  END
