
     RDKit          3D

 15 15  0  0  0  0  0  0  0  0999 V2000
    6.1320   -0.0710   -0.0310 C   0  0  0  0  0  0  0  0  0  0  0  0
    5.0440   -0.4090    0.7780 O   0  0  0  0  0  0  0  0  0  0  0  0
    3.8990   -0.3620   -0.0320 C   0  0  0  0  0  0  0  0  0  0  0  0
    2.7170   -0.7610    0.8090 C   0  0  0  0  0  0  0  0  0  0  0  0
    1.5040   -0.7590    0.1310 O   0  0  0  0  0  0  0  0  0  0  0  0
    0.9750    0.3990   -0.4030 C   0  0  0  0  0  0  0  0  0  0  0  0
    1.6170    1.4710   -0.2570 O   0  0  0  0  0  0  0  0  0  0  0  0
   -0.3200    0.3110   -1.1190 C   0  0  0  0  0  0  0  0  0  0  0  0
   -1.3890   -0.0380   -0.1330 C   0  0  1  0  0  0  0  0  0  0  0  0
   -1.0780   -1.2750    0.4620 O   0  0  0  0  0  0  0  0  0  0  0  0
   -1.5420    0.9390    1.0060 C   0  0  0  0  0  0  0  0  0  0  0  0
   -2.9070    0.4710    1.5400 C   0  0  0  0  0  0  0  0  0  0  0  0
   -3.7150    0.5380    0.2480 C   0  0  2  0  0  0  0  0  0  0  0  0
   -4.9740   -0.1420    0.3240 N   0  0  0  0  0  0  0  0  0  0  0  0
   -2.7610   -0.1010   -0.7330 C   0  0  0  0  0  0  0  0  0  0  0  0
  1  2  1  0
  2  3  1  0
  3  4  1  0
  4  5  1  0
  5  6  1  0
  6  7  2  0
  6  8  1  0
  8  9  1  0
  9 10  1  1
  9 11  1  0
  9 15  1  0
 11 12  1  0
 12 13  1  0
 13 14  1  1
 13 15  1  0
M  CHG  1  14   1
M  END
