
     RDKit          3D

 15 15  0  0  0  0  0  0  0  0999 V2000
   -1.7460   -3.1390   -0.1150 C   0  0  0  0  0  0  0  0  0  0  0  0
   -2.3710   -2.0810    0.3310 C   0  0  0  0  0  0  0  0  0  0  0  0
   -3.6630   -2.1700    0.8220 O   0  0  0  0  0  0  0  0  0  0  0  0
   -1.7490   -0.7190    0.3450 C   0  0  0  0  0  0  0  0  0  0  0  0
   -2.4790    0.2580    0.8170 C   0  0  0  0  0  0  0  0  0  0  0  0
   -2.1480    1.6740    0.9550 C   0  0  0  0  0  0  0  0  0  0  0  0
   -3.0770    2.5220    0.1830 N   0  0  0  0  0  0  0  0  0  0  0  0
   -0.4950   -0.6900   -0.1430 O   0  0  0  0  0  0  0  0  0  0  0  0
    0.4640    0.2260   -0.4080 C   0  0  0  0  0  0  0  0  0  0  0  0
    1.7450   -0.3930   -0.9870 C   0  0  1  0  0  0  0  0  0  0  0  0
    2.6520    0.6930   -1.4600 C   0  0  0  0  0  0  0  0  0  0  0  0
    3.2090    1.3270   -0.3570 O   0  0  0  0  0  0  0  0  0  0  0  0
    3.9930    0.3790    0.3030 C   0  0  0  0  0  0  0  0  0  0  0  0
    3.1820   -0.7840    0.7870 C   0  0  0  0  0  0  0  0  0  0  0  0
    2.3160   -1.3020   -0.1380 O   0  0  0  0  0  0  0  0  0  0  0  0
  1  2  2  0
  2  3  1  0
  2  4  1  0
  4  5  2  3
  4  8  1  0
  5  6  1  0
  6  7  1  0
  8  9  1  0
 10  9  1  1
 10 11  1  0
 10 15  1  0
 11 12  1  0
 12 13  1  0
 13 14  1  0
 14 15  1  0
M  CHG  1   7   1
M  END
