
     RDKit          3D

 26 28  0  0  0  0  0  0  0  0999 V2000
   -6.1530    0.7270   -0.3120 C   0  0  0  0  0  0  0  0  0  0  0  0
   -5.2160    1.0170    0.8210 C   0  0  0  0  0  0  0  0  0  0  0  0
   -3.8210    0.5840    0.5240 C   0  0  0  0  0  0  0  0  0  0  0  0
   -3.3280   -0.5660    1.1270 C   0  0  0  0  0  0  0  0  0  0  0  0
   -2.0420   -1.0020    0.8840 C   0  0  0  0  0  0  0  0  0  0  0  0
   -1.1850   -0.3360    0.0440 C   0  0  0  0  0  0  0  0  0  0  0  0
    0.1550   -0.7510   -0.3010 C   0  0  0  0  0  0  0  0  0  0  0  0
    0.4690   -1.9420   -1.0460 C   0  0  0  0  0  0  0  0  0  0  0  0
    0.1070   -3.2780   -0.5270 C   0  0  1  0  0  0  0  0  0  0  0  0
    0.7230   -3.5710    0.8240 C   0  0  0  0  0  0  0  0  0  0  0  0
   -1.3000   -3.7130   -0.6470 C   0  0  0  0  0  0  0  0  0  0  0  0
    1.1720    0.0660    0.0530 C   0  0  0  0  0  0  0  0  0  0  0  0
    2.6090   -0.2010   -0.2220 C   0  0  0  0  0  0  0  0  0  0  0  0
    3.3330    0.9470    0.3220 C   0  0  0  0  0  0  0  0  0  0  0  0
    2.4580    1.8290    0.9020 C   0  0  0  0  0  0  0  0  0  0  0  0
    2.9660    2.9870    1.4850 C   0  0  0  0  0  0  0  0  0  0  0  0
    4.3120    3.2750    1.4970 C   0  0  0  0  0  0  0  0  0  0  0  0
    5.1690    2.3820    0.9130 C   0  0  0  0  0  0  0  0  0  0  0  0
    6.5320    2.7040    0.9420 O   0  0  0  0  0  0  0  0  0  0  0  0
    4.7050    1.2330    0.3310 C   0  0  0  0  0  0  0  0  0  0  0  0
    5.6370    0.2640   -0.3020 C   0  0  0  0  0  0  0  0  0  0  0  0
    1.0850    1.3320    0.7670 C   0  0  0  0  0  0  0  0  0  0  0  0
    0.0570    1.9160    1.2000 O   0  0  0  0  0  0  0  0  0  0  0  0
   -1.7110    0.8220   -0.5500 C   0  0  0  0  0  0  0  0  0  0  0  0
   -2.9740    1.2630   -0.3200 C   0  0  0  0  0  0  0  0  0  0  0  0
   -3.4620    2.5020   -0.9960 C   0  0  0  0  0  0  0  0  0  0  0  0
  1  2  1  0
  2  3  1  0
  3  4  2  0
  3 25  1  0
  4  5  1  0
  5  6  2  0
  6  7  1  0
  6 24  1  0
  7  8  1  0
  7 12  2  3
  8  9  1  0
  9 10  1  1
  9 11  1  0
 12 13  1  0
 12 22  1  0
 13 14  1  0
 14 15  2  0
 14 20  1  0
 15 16  1  0
 15 22  1  0
 16 17  2  0
 17 18  1  0
 18 19  1  0
 18 20  2  0
 20 21  1  0
 22 23  2  0
 24 25  2  0
 25 26  1  0
M  END
