
     RDKit          3D

 15 15  0  0  0  0  0  0  0  0999 V2000
   -2.7020   -0.3690   -0.0980 C   0  0  0  0  0  0  0  0  0  0  0  0
   -1.5290   -0.6930    0.3960 C   0  0  0  0  0  0  0  0  0  0  0  0
   -1.4250   -0.7780    1.9010 C   0  0  0  0  0  0  0  0  0  0  0  0
   -0.3950   -0.9580   -0.4760 C   0  0  1  0  0  0  0  0  0  0  0  0
   -0.7040   -0.4640   -1.8720 C   0  0  0  0  0  0  0  0  0  0  0  0
   -0.5970    1.0010   -1.7700 N   0  0  0  0  0  0  0  0  0  0  0  0
    0.0760    1.2820   -0.5160 C   0  0  2  0  0  0  0  0  0  0  0  0
    0.9690    2.4310   -0.5810 C   0  0  0  0  0  0  0  0  0  0  0  0
    1.1500    3.1250   -1.6120 O   0  0  0  0  0  0  0  0  0  0  0  0
    1.6680    2.7900    0.5610 O   0  0  0  0  0  0  0  0  0  0  0  0
    0.7760   -0.0240   -0.2550 C   0  0  1  0  0  0  0  0  0  0  0  0
    1.5260   -0.1320    0.9790 C   0  0  0  0  0  0  0  0  0  0  0  0
    2.1260   -1.4820    1.1240 C   0  0  0  0  0  0  0  0  0  0  0  0
    2.7970   -1.7960    2.1690 O   0  0  0  0  0  0  0  0  0  0  0  0
    2.0270   -2.4950    0.1880 O   0  0  0  0  0  0  0  0  0  0  0  0
  1  2  2  0
  2  3  1  0
  4  2  1  1
  4  5  1  0
  4 11  1  0
  5  6  1  0
  6  7  1  0
  7  8  1  6
  7 11  1  0
  8  9  2  0
  8 10  1  0
 11 12  1  1
 12 13  1  0
 13 14  2  0
 13 15  1  0
M  CHG  1   6   1
M  END
