
     RDKit          3D

 15 15  0  0  0  0  0  0  0  0999 V2000
   -3.8180    1.5490    1.5280 C   0  0  0  0  0  0  0  0  0  0  0  0
   -2.9790    0.5060    0.7810 C   0  0  0  0  0  0  0  0  0  0  0  0
   -1.6510    0.6780    0.9810 O   0  0  0  0  0  0  0  0  0  0  0  0
   -0.7720   -0.1350    0.3330 C   0  0  2  0  0  0  0  0  0  0  0  0
   -0.7940   -1.5890    0.6450 C   0  0  0  0  0  0  0  0  0  0  0  0
   -1.9780   -2.3110    0.3580 N   0  0  0  0  0  0  0  0  0  0  0  0
    0.6840    0.3040    0.6010 C   0  0  0  0  0  0  0  0  0  0  0  0
    1.3860    0.2690   -0.7340 C   0  0  2  0  0  0  0  0  0  0  0  0
    1.0490   -0.8330   -1.5070 O   0  0  0  0  0  0  0  0  0  0  0  0
    2.8840    0.2820   -0.5990 C   0  0  0  0  0  0  0  0  0  0  0  0
    3.2510   -0.9080    0.0200 O   0  0  0  0  0  0  0  0  0  0  0  0
    4.6270   -1.0030    0.1970 C   0  0  0  0  0  0  0  0  0  0  0  0
    0.8770    1.4880   -1.5030 C   0  0  0  0  0  0  0  0  0  0  0  0
   -0.6500    1.4050   -1.3530 C   0  0  0  0  0  0  0  0  0  0  0  0
   -1.0230    0.0840   -1.0540 O   0  0  0  0  0  0  0  0  0  0  0  0
  1  2  1  0
  2  3  1  0
  3  4  1  0
  4  5  1  1
  4  7  1  0
  4 15  1  0
  5  6  1  0
  7  8  1  0
  8  9  1  6
  8 10  1  0
  8 13  1  0
 10 11  1  0
 11 12  1  0
 13 14  1  0
 14 15  1  0
M  CHG  1   6   1
M  END
