
     RDKit          3D

 15 15  0  0  0  0  0  0  0  0999 V2000
   -2.4390   -1.4630    1.7110 C   0  0  0  0  0  0  0  0  0  0  0  0
   -2.1990   -1.2360    0.3700 O   0  0  0  0  0  0  0  0  0  0  0  0
   -1.8480    0.0520    0.0640 C   0  0  2  0  0  0  0  0  0  0  0  0
   -2.9160    0.7090   -0.8070 C   0  0  0  0  0  0  0  0  0  0  0  0
   -2.4940    2.0100   -1.0770 O   0  0  0  0  0  0  0  0  0  0  0  0
   -0.5500    0.1580   -0.7080 C   0  0  2  0  0  0  0  0  0  0  0  0
   -0.7070   -0.5660   -1.9290 N   0  0  0  0  0  0  0  0  0  0  0  0
    0.6410   -0.3300    0.0770 C   0  0  1  0  0  0  0  0  0  0  0  0
    0.6170   -1.7930    0.3780 C   0  0  0  0  0  0  0  0  0  0  0  0
    1.8790    0.0410   -0.7450 C   0  0  0  0  0  0  0  0  0  0  0  0
    2.3180    1.4580   -0.3560 C   0  0  0  0  0  0  0  0  0  0  0  0
    3.3870    1.4450    0.5160 O   0  0  0  0  0  0  0  0  0  0  0  0
    2.9470    1.2530    1.8170 C   0  0  0  0  0  0  0  0  0  0  0  0
    1.9340    0.1340    1.9140 C   0  0  0  0  0  0  0  0  0  0  0  0
    0.7550    0.4010    1.2640 O   0  0  0  0  0  0  0  0  0  0  0  0
  1  2  1  0
  2  3  1  0
  3  4  1  6
  3  6  1  0
  4  5  1  0
  6  7  1  6
  6  8  1  0
  8  9  1  1
  8 10  1  0
  8 15  1  0
 10 11  1  0
 11 12  1  0
 12 13  1  0
 13 14  1  0
 14 15  1  0
M  CHG  1   7   1
M  END
