
     RDKit          3D

 15 15  0  0  0  0  0  0  0  0999 V2000
    4.9740    0.8400    1.0430 C   0  0  0  0  0  0  0  0  0  0  0  0
    4.5350    0.0760   -0.0110 O   0  0  0  0  0  0  0  0  0  0  0  0
    3.3480    0.5410   -0.5120 C   0  0  0  0  0  0  0  0  0  0  0  0
    2.1990    0.5660    0.4370 C   0  0  2  0  0  0  0  0  0  0  0  0
    1.7820   -0.8150    0.8880 C   0  0  0  0  0  0  0  0  0  0  0  0
    0.3920   -0.7000    0.8920 O   0  0  0  0  0  0  0  0  0  0  0  0
    0.1510   -0.0000   -0.2630 C   0  0  1  0  0  0  0  0  0  0  0  0
   -1.2230    0.5550   -0.3810 C   0  0  2  0  0  0  0  0  0  0  0  0
   -1.4510    1.4610    0.7260 N   0  0  0  0  0  0  0  0  0  0  0  0
   -2.3060   -0.4930   -0.4570 C   0  0  2  0  0  0  0  0  0  0  0  0
   -2.1510   -1.4040   -1.6300 C   0  0  0  0  0  0  0  0  0  0  0  0
   -3.6400    0.2260   -0.6020 C   0  0  0  0  0  0  0  0  0  0  0  0
   -2.3950   -1.3200    0.8070 C   0  0  0  0  0  0  0  0  0  0  0  0
   -2.6760   -0.5200    1.9240 O   0  0  0  0  0  0  0  0  0  0  0  0
    1.0500    1.0500   -0.1970 O   0  0  0  0  0  0  0  0  0  0  0  0
  1  2  1  0
  2  3  1  0
  4  3  1  6
  4  5  1  0
  4 15  1  0
  5  6  1  0
  7  6  1  1
  7  8  1  0
  7 15  1  0
  8  9  1  1
  8 10  1  0
 10 11  1  6
 10 12  1  0
 10 13  1  0
 13 14  1  0
M  CHG  1   9   1
M  END
