
     RDKit          3D

 22 24  0  0  0  0  0  0  0  0999 V2000
    2.4050   -2.4040   -1.6080 N   0  0  0  0  0  0  0  0  0  0  0  0
    1.5430   -1.3830   -1.0970 C   0  0  0  0  0  0  0  0  0  0  0  0
    0.1370   -1.4520   -1.2910 C   0  0  0  0  0  0  0  0  0  0  0  0
   -0.3510   -0.3230   -0.6440 C   0  0  0  0  0  0  0  0  0  0  0  0
   -1.8270   -0.0160   -0.5030 C   0  0  2  0  0  0  0  0  0  0  0  0
   -2.6140   -1.2010   -0.9600 C   0  0  0  0  0  0  0  0  0  0  0  0
   -2.2790   -2.3400   -0.1440 N   0  0  0  0  0  0  0  0  0  0  0  0
   -2.1640    1.2390   -1.2290 C   0  0  0  0  0  0  0  0  0  0  0  0
   -2.4650    2.4100   -0.3100 C   0  0  0  0  0  0  0  0  0  0  0  0
   -3.5490    2.1220    0.6950 C   0  0  0  0  0  0  0  0  0  0  0  0
   -3.4940    0.6830    1.1550 C   0  0  0  0  0  0  0  0  0  0  0  0
   -2.0770    0.1870    1.0030 C   0  0  0  0  0  0  0  0  0  0  0  0
    0.6780    0.3320   -0.1240 N   0  0  0  0  0  0  0  0  0  0  0  0
    1.8210   -0.3270   -0.4060 N   0  0  0  0  0  0  0  0  0  0  0  0
    3.0630    0.1030    0.1300 C   0  0  0  0  0  0  0  0  0  0  0  0
    3.9760   -0.9000    0.5720 C   0  0  0  0  0  0  0  0  0  0  0  0
    5.1080   -0.5120    1.2110 C   0  0  0  0  0  0  0  0  0  0  0  0
    5.4630    0.7540    1.4810 C   0  0  0  0  0  0  0  0  0  0  0  0
    6.8980    1.2770    2.2980 Cl  0  0  0  0  0  0  0  0  0  0  0  0
    4.5660    1.7710    1.0480 C   0  0  0  0  0  0  0  0  0  0  0  0
    4.9580    3.4440    1.3340 Cl  0  0  0  0  0  0  0  0  0  0  0  0
    3.4400    1.3640    0.4110 C   0  0  0  0  0  0  0  0  0  0  0  0
  1  2  1  0
  2  3  2  0
  2 14  1  0
  3  4  1  0
  4  5  1  0
  4 13  2  0
  5  6  1  6
  5  8  1  0
  5 12  1  0
  6  7  1  0
  8  9  1  0
  9 10  1  0
 10 11  1  0
 11 12  1  0
 13 14  1  0
 14 15  1  0
 15 16  2  0
 15 22  1  0
 16 17  1  0
 17 18  2  0
 18 19  1  0
 18 20  1  0
 20 21  1  0
 20 22  2  0
M  CHG  1   7   1
M  END
