
     RDKit          3D

 18 19  0  0  0  0  0  0  0  0999 V2000
   -3.0120   -2.2640   -0.3240 C   0  0  0  0  0  0  0  0  0  0  0  0
   -1.8390   -1.3580   -0.7210 C   0  0  2  0  0  0  0  0  0  0  0  0
   -0.8060   -1.4750    0.3360 C   0  0  0  0  0  0  0  0  0  0  0  0
   -0.1010   -0.2080    0.6900 C   0  0  1  0  0  0  0  0  0  0  0  0
    0.9510    0.0160   -0.2850 N   0  0  0  0  0  0  0  0  0  0  0  0
    2.3210   -0.0260    0.0230 C   0  0  0  0  0  0  0  0  0  0  0  0
    2.6420   -0.2760    1.2290 O   0  0  0  0  0  0  0  0  0  0  0  0
    3.3690    0.1880   -0.9070 N   0  0  0  0  0  0  0  0  0  0  0  0
    4.7410    0.1330   -0.5350 C   0  0  0  0  0  0  0  0  0  0  0  0
    5.8950    0.2830   -1.1560 C   0  0  0  0  0  0  0  0  0  0  0  0
    6.4830    0.6720   -2.9450 Br  0  0  0  0  0  0  0  0  0  0  0  0
    6.6310    0.0340    0.0820 C   0  0  0  0  0  0  0  0  0  0  0  0
    5.4740   -0.1160    0.7000 C   0  0  0  0  0  0  0  0  0  0  0  0
   -0.9750    0.9720    0.9010 C   0  0  0  0  0  0  0  0  0  0  0  0
   -2.2970    0.9210    0.2160 C   0  0  1  0  0  0  0  0  0  0  0  0
   -3.4000    0.5890    1.2260 C   0  0  0  0  0  0  0  0  0  0  0  0
   -2.6130    2.3340   -0.2750 C   0  0  0  0  0  0  0  0  0  0  0  0
   -2.3420    0.0210   -0.9710 C   0  0  0  0  0  0  0  0  0  0  0  0
  2  1  1  1
  2  3  1  0
  2 18  1  0
  3  4  1  0
  4  5  1  6
  4 14  1  0
  5  6  1  0
  6  7  2  0
  6  8  1  0
  8  9  1  0
  9 10  2  0
  9 13  1  0
 10 11  1  0
 10 12  1  0
 12 13  2  0
 14 15  1  0
 15 16  1  1
 15 17  1  0
 15 18  1  0
M  END
