
     RDKit          3D

 18 20  0  0  0  0  0  0  0  0999 V2000
    1.0630   -2.0010   -1.5620 O   0  0  0  0  0  0  0  0  0  0  0  0
    1.4990   -1.1210   -0.7760 C   0  0  0  0  0  0  0  0  0  0  0  0
    2.9630   -1.2530   -0.5120 C   0  0  0  0  0  0  0  0  0  0  0  0
    3.4130   -0.2940    0.4710 N   0  0  0  0  0  0  0  0  0  0  0  0
    3.4440    1.0250   -0.1180 C   0  0  0  0  0  0  0  0  0  0  0  0
    2.1800    1.7140    0.1830 N   0  0  0  0  0  0  0  0  0  0  0  0
    0.9120    1.0730    0.1330 C   0  0  0  0  0  0  0  0  0  0  0  0
    0.5200   -0.1340   -0.2590 C   0  0  0  0  0  0  0  0  0  0  0  0
   -0.6130   -1.0010   -0.4130 C   0  0  1  0  0  0  0  0  0  0  0  0
   -0.6370   -2.2030    0.5410 C   0  0  0  0  0  0  0  0  0  0  0  0
   -2.1110   -2.6040    0.6480 C   0  0  0  0  0  0  0  0  0  0  0  0
   -2.8260   -1.6870   -0.3550 C   0  0  0  0  0  0  0  0  0  0  0  0
   -1.9490   -0.4570   -0.2050 C   0  0  0  0  0  0  0  0  0  0  0  0
   -2.5940    0.6610    0.0540 C   0  0  0  0  0  0  0  0  0  0  0  0
   -4.4990    0.3720    0.1510 Br  0  0  0  0  0  0  0  0  0  0  0  0
   -2.2480    2.0540    0.2900 C   0  0  0  0  0  0  0  0  0  0  0  0
   -0.9800    2.5460   -0.3120 C   0  0  0  0  0  0  0  0  0  0  0  0
    0.1430    2.2190    0.6690 C   0  0  0  0  0  0  0  0  0  0  0  0
  1  2  2  0
  2  3  1  0
  2  8  1  0
  3  4  1  0
  4  5  1  0
  5  6  1  0
  6  7  1  0
  7  8  2  0
  7 18  1  0
  8  9  1  0
  9 10  1  1
  9 13  1  0
 10 11  1  0
 11 12  1  0
 12 13  1  0
 13 14  2  0
 14 15  1  0
 14 16  1  0
 16 17  1  0
 17 18  1  0
M  END
