
     RDKit          3D

 23 25  0  0  0  0  0  0  0  0999 V2000
   -3.1120   -2.6540    1.0560 N   0  0  0  0  0  0  0  0  0  0  0  0
   -2.8550   -1.4000    0.3990 C   0  0  0  0  0  0  0  0  0  0  0  0
   -3.7080   -0.4480    0.0890 C   0  0  0  0  0  0  0  0  0  0  0  0
   -5.1670   -0.3390    0.3000 C   0  0  0  0  0  0  0  0  0  0  0  0
   -5.7410    0.4660   -0.8450 C   0  0  0  0  0  0  0  0  0  0  0  0
   -5.1640    1.8580   -0.8170 C   0  0  0  0  0  0  0  0  0  0  0  0
   -3.6850    1.8850   -1.0380 C   0  0  2  0  0  0  0  0  0  0  0  0
   -3.0260    3.3090   -0.1590 Cl  0  0  0  0  0  0  0  0  0  0  0  0
   -3.3680    2.1350   -2.7640 Cl  0  0  0  0  0  0  0  0  0  0  0  0
   -3.0170    0.6440   -0.5740 C   0  0  0  0  0  0  0  0  0  0  0  0
   -1.7770    0.3280   -0.6500 N   0  0  0  0  0  0  0  0  0  0  0  0
   -1.5470   -0.9400   -0.0690 C   0  0  0  0  0  0  0  0  0  0  0  0
   -0.4390   -1.6150    0.0920 C   0  0  0  0  0  0  0  0  0  0  0  0
    0.8730   -1.1840   -0.3660 C   0  0  0  0  0  0  0  0  0  0  0  0
    1.0720   -0.6900   -1.6370 C   0  0  0  0  0  0  0  0  0  0  0  0
    2.3150   -0.2850   -2.0570 C   0  0  0  0  0  0  0  0  0  0  0  0
    3.3800   -0.3720   -1.1940 C   0  0  0  0  0  0  0  0  0  0  0  0
    3.1860   -0.8590    0.0670 C   0  0  0  0  0  0  0  0  0  0  0  0
    4.2480   -0.9340    1.0010 N   0  0  0  0  0  0  0  0  0  0  0  0
    5.5700   -0.4380    0.7130 C   0  0  0  0  0  0  0  0  0  0  0  0
    5.6590    1.0720    0.6810 C   0  0  0  0  0  0  0  0  0  0  0  0
    5.2710    1.6560    1.9830 N   0  0  0  0  0  0  0  0  0  0  0  0
    1.9480   -1.2460    0.4340 N   0  0  0  0  0  0  0  0  0  0  0  0
  1  2  1  0
  2  3  2  0
  2 12  1  0
  3  4  1  0
  3 10  1  0
  4  5  1  0
  5  6  1  0
  6  7  1  0
  7  8  1  1
  7  9  1  0
  7 10  1  0
 10 11  2  0
 11 12  1  0
 12 13  2  3
 13 14  1  0
 14 15  2  0
 14 23  1  0
 15 16  1  0
 16 17  2  0
 17 18  1  0
 18 19  1  0
 18 23  2  0
 19 20  1  0
 20 21  1  0
 21 22  1  0
M  CHG  1  22   1
M  END
