
     RDKit          3D

 23 25  0  0  0  0  0  0  0  0999 V2000
   -2.7480   -4.0280   -0.0380 C   0  0  0  0  0  0  0  0  0  0  0  0
   -2.3100   -2.6100   -0.1710 C   0  0  0  0  0  0  0  0  0  0  0  0
   -3.1770   -1.6480   -0.3910 C   0  0  0  0  0  0  0  0  0  0  0  0
   -2.8670   -0.1980   -0.5420 C   0  0  0  0  0  0  0  0  0  0  0  0
   -1.4570    0.0860   -0.4300 C   0  0  0  0  0  0  0  0  0  0  0  0
   -0.5310   -0.8980   -0.2000 C   0  0  0  0  0  0  0  0  0  0  0  0
    0.7720   -0.6010   -0.0980 N   0  0  0  0  0  0  0  0  0  0  0  0
    1.2280    0.6520   -0.2150 C   0  0  0  0  0  0  0  0  0  0  0  0
    2.6090    0.9850   -0.1160 N   0  0  0  0  0  0  0  0  0  0  0  0
    3.6850    0.1410    0.1010 C   0  0  0  0  0  0  0  0  0  0  0  0
    3.6110   -1.2120    0.2640 C   0  0  0  0  0  0  0  0  0  0  0  0
    4.7440   -2.0070    0.4780 C   0  0  0  0  0  0  0  0  0  0  0  0
    4.5830   -3.7470    0.6800 Cl  0  0  0  0  0  0  0  0  0  0  0  0
    5.9450   -1.4490    0.5300 N   0  0  0  0  0  0  0  0  0  0  0  0
    6.0690   -0.1140    0.3750 C   0  0  0  0  0  0  0  0  0  0  0  0
    4.9680    0.6860    0.1620 C   0  0  0  0  0  0  0  0  0  0  0  0
    5.2440    2.4030   -0.0250 Cl  0  0  0  0  0  0  0  0  0  0  0  0
    0.2890    1.5910   -0.4400 N   0  0  0  0  0  0  0  0  0  0  0  0
   -1.0300    1.3890   -0.5560 C   0  0  0  0  0  0  0  0  0  0  0  0
   -1.8460    2.5370   -0.8170 C   0  0  2  0  0  0  0  0  0  0  0  0
   -1.0200    3.7920   -0.6250 C   0  0  0  0  0  0  0  0  0  0  0  0
   -3.1000    2.7400   -0.2380 N   0  0  0  0  0  0  0  0  0  0  0  0
   -0.8890   -2.3200   -0.0480 C   0  0  0  0  0  0  0  0  0  0  0  0
  1  2  1  0
  2  3  2  0
  2 23  1  0
  3  4  1  0
  4  5  1  0
  5  6  2  0
  5 19  1  0
  6  7  1  0
  6 23  1  0
  7  8  2  0
  8  9  1  0
  8 18  1  0
  9 10  1  0
 10 11  2  0
 10 16  1  0
 11 12  1  0
 12 13  1  0
 12 14  2  0
 14 15  1  0
 15 16  2  0
 16 17  1  0
 18 19  2  0
 19 20  1  0
 20 21  1  1
 20 22  1  0
M  CHG  1  22   1
M  END
