
     RDKit          3D

 22 24  0  0  0  0  0  0  0  0999 V2000
    7.3320    1.4250   -1.2280 N   0  0  0  0  0  0  0  0  0  0  0  0
    6.4030    0.6200   -0.5150 C   0  0  0  0  0  0  0  0  0  0  0  0
    5.0380    0.9280   -0.5030 C   0  0  0  0  0  0  0  0  0  0  0  0
    4.1350    0.1510    0.1870 C   0  0  0  0  0  0  0  0  0  0  0  0
    2.7020    0.4610    0.2090 C   0  0  0  0  0  0  0  0  0  0  0  0
    1.6940   -0.2200    0.8490 C   0  0  0  0  0  0  0  0  0  0  0  0
    0.5230    0.4540    0.5750 C   0  0  0  0  0  0  0  0  0  0  0  0
   -0.8300    0.0540    1.0770 C   0  0  0  0  0  0  0  0  0  0  0  0
   -1.4670   -0.8440    0.1490 N   0  0  0  0  0  0  0  0  0  0  0  0
   -2.7610   -1.2250    0.6320 C   0  0  2  0  0  0  0  0  0  0  0  0
   -3.4450   -2.1720   -0.3310 C   0  0  0  0  0  0  0  0  0  0  0  0
   -4.6560   -1.5550   -0.9750 C   0  0  0  0  0  0  0  0  0  0  0  0
   -4.3860   -0.1500   -1.4900 C   0  0  0  0  0  0  0  0  0  0  0  0
   -3.9100    0.7580   -0.3650 C   0  0  1  0  0  0  0  0  0  0  0  0
   -4.9220    1.8290   -0.0440 C   0  0  0  0  0  0  0  0  0  0  0  0
   -4.2530    2.8150    1.2760 Cl  0  0  0  0  0  0  0  0  0  0  0  0
   -3.6820   -0.0640    0.8900 C   0  0  0  0  0  0  0  0  0  0  0  0
    0.8020    1.5100   -0.2040 N   0  0  0  0  0  0  0  0  0  0  0  0
    2.1040    1.4920   -0.4070 N   0  0  0  0  0  0  0  0  0  0  0  0
    4.6280   -0.9430    0.8650 C   0  0  0  0  0  0  0  0  0  0  0  0
    5.9850   -1.2280    0.8370 C   0  0  0  0  0  0  0  0  0  0  0  0
    6.8580   -0.4540    0.1550 N   0  0  0  0  0  0  0  0  0  0  0  0
  1  2  1  0
  2  3  2  0
  2 22  1  0
  3  4  1  0
  4  5  1  0
  4 20  2  0
  5  6  1  0
  5 19  2  0
  6  7  2  0
  7  8  1  0
  7 18  1  0
  8  9  1  0
 10  9  1  6
 10 11  1  0
 10 17  1  0
 11 12  1  0
 12 13  1  0
 13 14  1  0
 14 15  1  1
 14 17  1  0
 15 16  1  0
 18 19  1  0
 20 21  1  0
 21 22  2  0
M  CHG  1  22   1
M  END
