
     RDKit          3D

 23 25  0  0  0  0  0  0  0  0999 V2000
    4.8580    1.1250   -1.1180 C   0  0  0  0  0  0  0  0  0  0  0  0
    4.5450    1.3810    0.3320 C   0  0  0  0  0  0  0  0  0  0  0  0
    5.2640    0.5090    1.2700 C   0  0  0  0  0  0  0  0  0  0  0  0
    5.1460   -0.9590    1.2130 C   0  0  0  0  0  0  0  0  0  0  0  0
    3.6650   -1.8120    1.4160 S   0  0  0  0  0  0  0  0  0  0  0  0
    2.4040   -1.9960    0.2390 C   0  0  0  0  0  0  0  0  0  0  0  0
    1.6620   -0.7730   -0.1420 C   0  0  1  0  0  0  0  0  0  0  0  0
    0.5390   -1.1230   -1.1680 C   0  0  0  0  0  0  0  0  0  0  0  0
   -0.5470   -0.2300   -0.8710 N   0  0  1  0  0  0  0  0  0  0  0  0
   -1.7740   -0.9580   -0.5560 C   0  0  0  0  0  0  0  0  0  0  0  0
   -2.9210   -0.0020   -0.6020 C   0  0  0  0  0  0  0  0  0  0  0  0
   -2.9040    1.3530   -0.8870 C   0  0  0  0  0  0  0  0  0  0  0  0
   -4.1840    1.7900   -0.8070 N   0  0  0  0  0  0  0  0  0  0  0  0
   -4.9900    0.7610   -0.4840 C   0  0  0  0  0  0  0  0  0  0  0  0
   -6.3350    0.6380   -0.2790 C   0  0  0  0  0  0  0  0  0  0  0  0
   -7.1940    1.7600   -0.3980 N   0  0  0  0  0  0  0  0  0  0  0  0
   -6.8360   -0.5680    0.0390 N   0  0  0  0  0  0  0  0  0  0  0  0
   -6.0990   -1.6660    0.1700 C   0  0  0  0  0  0  0  0  0  0  0  0
   -4.7740   -1.5680   -0.0280 N   0  0  0  0  0  0  0  0  0  0  0  0
   -4.2190   -0.3840   -0.3490 C   0  0  0  0  0  0  0  0  0  0  0  0
   -0.2030    0.5470    0.2880 C   0  0  0  0  0  0  0  0  0  0  0  0
    0.7870   -0.3220    0.9940 C   0  0  2  0  0  0  0  0  0  0  0  0
    1.4910    0.3360    1.9890 O   0  0  0  0  0  0  0  0  0  0  0  0
  1  2  1  0
  2  3  1  0
  3  4  1  0
  4  5  1  0
  5  6  1  0
  7  6  1  1
  7  8  1  0
  7 22  1  0
  8  9  1  0
  9 10  1  1
  9 21  1  0
 10 11  1  0
 11 12  2  0
 11 20  1  0
 12 13  1  0
 13 14  1  0
 14 15  2  0
 14 20  1  0
 15 16  1  0
 15 17  1  0
 17 18  2  0
 18 19  1  0
 19 20  2  0
 21 22  1  0
 22 23  1  1
M  CHG  1   9   1
M  END
