
     RDKit          3D

 22 24  0  0  0  0  0  0  0  0999 V2000
    5.6140    0.2530   -0.2400 C   0  0  0  0  0  0  0  0  0  0  0  0
    4.1370    0.3300   -0.0940 C   0  0  0  0  0  0  0  0  0  0  0  0
    3.3930   -0.3520    0.7870 N   0  0  0  0  0  0  0  0  0  0  0  0
    2.0890   -0.0410    0.6420 C   0  0  0  0  0  0  0  0  0  0  0  0
    1.0260   -0.5710    1.4240 N   0  0  0  0  0  0  0  0  0  0  0  0
   -0.3580   -0.2920    1.2610 C   0  0  2  0  0  0  0  0  0  0  0  0
   -1.1330   -0.8980    2.4100 C   0  0  0  0  0  0  0  0  0  0  0  0
   -2.4760   -1.4290    2.0690 C   0  0  0  0  0  0  0  0  0  0  0  0
   -3.0960   -0.6140    0.9880 C   0  0  0  0  0  0  0  0  0  0  0  0
   -4.4020   -0.1740    1.0070 C   0  0  0  0  0  0  0  0  0  0  0  0
   -4.9390    0.5780   -0.0190 C   0  0  0  0  0  0  0  0  0  0  0  0
   -6.6190    1.1090    0.0680 Cl  0  0  0  0  0  0  0  0  0  0  0  0
   -4.1460    0.9010   -1.0970 C   0  0  0  0  0  0  0  0  0  0  0  0
   -4.7260    1.6870   -2.1560 C   0  0  0  0  0  0  0  0  0  0  0  0
   -5.2010    2.3240   -2.9890 N   0  0  0  0  0  0  0  0  0  0  0  0
   -2.8200    0.4600   -1.1280 C   0  0  0  0  0  0  0  0  0  0  0  0
   -2.3120   -0.2850   -0.0960 C   0  0  0  0  0  0  0  0  0  0  0  0
   -0.9180   -0.7800   -0.0610 C   0  0  2  0  0  0  0  0  0  0  0  0
   -1.0060   -2.2310   -0.0920 N   0  0  0  0  0  0  0  0  0  0  0  0
    2.0370    0.8530   -0.3520 N   0  0  0  0  0  0  0  0  0  0  0  0
    3.2710    1.1080   -0.8310 C   0  0  0  0  0  0  0  0  0  0  0  0
    3.6530    2.0320   -1.9290 C   0  0  0  0  0  0  0  0  0  0  0  0
  1  2  1  0
  2  3  1  0
  2 21  2  0
  3  4  1  0
  4  5  1  0
  4 20  2  0
  6  5  1  1
  6  7  1  0
  6 18  1  0
  7  8  1  0
  8  9  1  0
  9 10  2  0
  9 17  1  0
 10 11  1  0
 11 12  1  0
 11 13  2  0
 13 14  1  0
 13 16  1  0
 14 15  3  0
 16 17  2  0
 17 18  1  0
 18 19  1  1
 20 21  1  0
 21 22  1  0
M  CHG  1  20   1
M  END
