
     RDKit          3D

 26 28  0  0  0  0  0  0  0  0999 V2000
   -7.1990    2.2880    0.2840 N   0  0  0  0  0  0  0  0  0  0  0  0
   -6.4120    1.2220    0.8000 C   0  0  0  0  0  0  0  0  0  0  0  0
   -6.7580    0.5090    1.8850 N   0  0  0  0  0  0  0  0  0  0  0  0
   -6.0260   -0.4970    2.3810 C   0  0  0  0  0  0  0  0  0  0  0  0
   -4.8780   -0.8400    1.7870 N   0  0  0  0  0  0  0  0  0  0  0  0
   -4.4530   -0.1890    0.7000 C   0  0  0  0  0  0  0  0  0  0  0  0
   -3.3210   -0.3160   -0.1250 C   0  0  0  0  0  0  0  0  0  0  0  0
   -2.2570   -1.3010    0.0600 C   0  0  0  0  0  0  0  0  0  0  0  0
   -1.1790   -1.2990   -0.8620 N   0  0  2  0  0  0  0  0  0  0  0  0
   -0.1800   -2.2100   -0.3520 C   0  0  0  0  0  0  0  0  0  0  0  0
    1.0630   -1.4130    0.0080 C   0  0  2  0  0  0  0  0  0  0  0  0
    0.9480   -0.7480    1.3460 C   0  0  0  0  0  0  0  0  0  0  0  0
    2.4020    0.0480    1.8980 S   0  0  0  0  0  0  0  0  0  0  0  0
    3.2130    1.3390    1.0910 C   0  0  0  0  0  0  0  0  0  0  0  0
    4.0800    1.0480   -0.0970 C   0  0  0  0  0  0  0  0  0  0  0  0
    5.2230    0.1090    0.2660 C   0  0  2  0  0  0  0  0  0  0  0  0
    6.0690    0.6860    1.2940 N   0  0  0  0  0  0  0  0  0  0  0  0
    6.0370   -0.0480   -0.9670 C   0  0  0  0  0  0  0  0  0  0  0  0
    7.2480    0.2730   -1.0010 O   0  0  0  0  0  0  0  0  0  0  0  0
    5.4540   -0.5640   -2.1200 O   0  0  0  0  0  0  0  0  0  0  0  0
    0.9760   -0.2750   -1.0130 C   0  0  1  0  0  0  0  0  0  0  0  0
    1.5680   -0.6410   -2.1890 O   0  0  0  0  0  0  0  0  0  0  0  0
   -0.5290   -0.0750   -1.1430 C   0  0  0  0  0  0  0  0  0  0  0  0
   -3.4700    0.6480   -1.0740 C   0  0  0  0  0  0  0  0  0  0  0  0
   -4.6170    1.3500   -0.8760 N   0  0  0  0  0  0  0  0  0  0  0  0
   -5.2120    0.8410    0.2020 C   0  0  0  0  0  0  0  0  0  0  0  0
  1  2  1  0
  2  3  2  0
  2 26  1  0
  3  4  1  0
  4  5  2  0
  5  6  1  0
  6  7  1  0
  6 26  2  0
  7  8  1  0
  7 24  2  0
  9  8  1  1
  9 10  1  0
  9 23  1  0
 10 11  1  0
 11 12  1  1
 11 21  1  0
 12 13  1  0
 13 14  1  0
 14 15  1  0
 15 16  1  0
 16 17  1  1
 16 18  1  0
 18 19  2  0
 18 20  1  0
 21 22  1  6
 21 23  1  0
 24 25  1  0
 25 26  1  0
M  CHG  2   9   1  17   1
M  END
