
     RDKit          3D

 16 17  0  0  0  0  0  0  0  0999 V2000
   -1.5420   -3.3970   -0.1540 C   0  0  0  0  0  0  0  0  0  0  0  0
   -1.1820   -1.9520   -0.1970 C   0  0  0  0  0  0  0  0  0  0  0  0
   -2.1420   -0.9630   -0.3480 C   0  0  0  0  0  0  0  0  0  0  0  0
   -1.8480    0.3770   -0.3910 C   0  0  0  0  0  0  0  0  0  0  0  0
   -2.9460    1.3800   -0.5570 C   0  0  0  0  0  0  0  0  0  0  0  0
   -3.4890    1.8020    0.7200 N   0  0  0  0  0  0  0  0  0  0  0  0
   -0.5230    0.7690   -0.2800 C   0  0  0  0  0  0  0  0  0  0  0  0
    0.4620   -0.1860   -0.1290 C   0  0  0  0  0  0  0  0  0  0  0  0
    1.8710    0.2020   -0.0090 C   0  0  0  0  0  0  0  0  0  0  0  0
    2.8590   -0.6250   -0.4810 C   0  0  0  0  0  0  0  0  0  0  0  0
    4.1670   -0.2370   -0.3560 C   0  0  0  0  0  0  0  0  0  0  0  0
    4.5300    0.9550    0.2270 C   0  0  0  0  0  0  0  0  0  0  0  0
    3.5400    1.7810    0.6980 C   0  0  0  0  0  0  0  0  0  0  0  0
    3.9660    3.3020    1.4440 Cl  0  0  0  0  0  0  0  0  0  0  0  0
    2.2060    1.3880    0.5720 C   0  0  0  0  0  0  0  0  0  0  0  0
    0.1290   -1.5350   -0.0880 C   0  0  0  0  0  0  0  0  0  0  0  0
  1  2  1  0
  2  3  2  0
  2 16  1  0
  3  4  1  0
  4  5  1  0
  4  7  2  0
  5  6  1  0
  7  8  1  0
  8  9  1  0
  8 16  2  0
  9 10  2  0
  9 15  1  0
 10 11  1  0
 11 12  2  0
 12 13  1  0
 13 14  1  0
 13 15  2  0
M  CHG  1   6   1
M  END
