
     RDKit          3D

 20 22  0  0  0  0  0  0  0  0999 V2000
   -4.0280    1.3090    2.2120 C   0  0  0  0  0  0  0  0  0  0  0  0
   -3.0280    1.0450    1.3970 C   0  0  0  0  0  0  0  0  0  0  0  0
   -1.6250    1.0660    1.8710 C   0  0  0  0  0  0  0  0  0  0  0  0
   -0.7440    0.4120    1.0190 O   0  0  0  0  0  0  0  0  0  0  0  0
   -0.9200    0.1020   -0.2970 C   0  0  0  0  0  0  0  0  0  0  0  0
   -2.1800    0.2380   -0.8870 C   0  0  0  0  0  0  0  0  0  0  0  0
   -2.3710   -0.0730   -2.2150 C   0  0  0  0  0  0  0  0  0  0  0  0
   -1.2970   -0.5220   -2.9620 C   0  0  0  0  0  0  0  0  0  0  0  0
   -1.4270   -0.9440   -4.6530 Cl  0  0  0  0  0  0  0  0  0  0  0  0
   -0.0350   -0.6580   -2.3700 C   0  0  0  0  0  0  0  0  0  0  0  0
    0.1550   -0.3470   -1.0410 C   0  0  0  0  0  0  0  0  0  0  0  0
    1.4640   -0.4880   -0.4280 C   0  0  0  0  0  0  0  0  0  0  0  0
    2.2580   -1.6070   -0.6290 C   0  0  0  0  0  0  0  0  0  0  0  0
    3.4970   -1.7060   -0.0300 C   0  0  0  0  0  0  0  0  0  0  0  0
    3.9960   -0.7040    0.7900 C   0  0  0  0  0  0  0  0  0  0  0  0
    5.2770   -0.8530    1.3830 N   0  0  0  0  0  0  0  0  0  0  0  0
    3.2060    0.4100    0.9910 C   0  0  0  0  0  0  0  0  0  0  0  0
    1.9750    0.4990    0.3900 C   0  0  0  0  0  0  0  0  0  0  0  0
   -3.2470    0.7170   -0.0220 C   0  0  0  0  0  0  0  0  0  0  0  0
   -4.4230    0.8710   -0.4710 N   0  0  0  0  0  0  0  0  0  0  0  0
  1  2  2  0
  2  3  1  0
  2 19  1  0
  3  4  1  0
  4  5  1  0
  5  6  2  0
  5 11  1  0
  6  7  1  0
  6 19  1  0
  7  8  2  0
  8  9  1  0
  8 10  1  0
 10 11  2  0
 11 12  1  0
 12 13  2  0
 12 18  1  0
 13 14  1  0
 14 15  2  0
 15 16  1  0
 15 17  1  0
 17 18  2  0
 19 20  2  0
M  END
