
     RDKit          3D

 16 17  0  0  0  0  0  0  0  0999 V2000
   -4.4740    0.7960   -0.1510 C   0  0  0  0  0  0  0  0  0  0  0  0
   -3.4380   -0.1620   -0.6990 C   0  0  0  0  0  0  0  0  0  0  0  0
   -2.2140   -0.0290    0.2170 C   0  0  1  0  0  0  0  0  0  0  0  0
   -2.6290   -0.4030    1.6440 C   0  0  0  0  0  0  0  0  0  0  0  0
   -1.1920   -0.9050   -0.2610 N   0  0  0  0  0  0  0  0  0  0  0  0
    0.0910   -0.3440   -0.3170 C   0  0  0  0  0  0  0  0  0  0  0  0
    0.3560    0.9460   -0.7270 C   0  0  0  0  0  0  0  0  0  0  0  0
    1.6420    1.4460   -0.7620 C   0  0  0  0  0  0  0  0  0  0  0  0
    1.9080    3.1080   -1.2990 Cl  0  0  0  0  0  0  0  0  0  0  0  0
    2.7240    0.6620   -0.3820 C   0  0  0  0  0  0  0  0  0  0  0  0
    3.9960    1.2100   -0.4350 C   0  0  0  0  0  0  0  0  0  0  0  0
    5.0540    0.4180   -0.0550 C   0  0  0  0  0  0  0  0  0  0  0  0
    4.8270   -0.8830    0.3630 C   0  0  0  0  0  0  0  0  0  0  0  0
    3.5540   -1.4270    0.4150 C   0  0  0  0  0  0  0  0  0  0  0  0
    2.4800   -0.6190    0.0270 C   0  0  0  0  0  0  0  0  0  0  0  0
    1.1980   -1.1100    0.0600 C   0  0  0  0  0  0  0  0  0  0  0  0
  1  2  1  0
  2  3  1  0
  3  4  1  1
  3  5  1  0
  5  6  1  0
  6  7  2  0
  6 16  1  0
  7  8  1  0
  8  9  1  0
  8 10  2  0
 10 11  1  0
 10 15  1  0
 11 12  2  0
 12 13  1  0
 13 14  2  0
 14 15  1  0
 15 16  2  0
M  CHG  1   5   1
M  END
