
     RDKit          3D

 20 22  0  0  0  0  0  0  0  0999 V2000
    5.8170   -0.0300   -0.5090 C   0  0  0  0  0  0  0  0  0  0  0  0
    4.3320   -0.0300   -0.5030 C   0  0  0  0  0  0  0  0  0  0  0  0
    3.6850   -0.2130   -1.7130 C   0  0  0  0  0  0  0  0  0  0  0  0
    2.3040   -0.2310   -1.8250 C   0  0  0  0  0  0  0  0  0  0  0  0
    1.4900   -0.4640   -3.3620 Cl  0  0  0  0  0  0  0  0  0  0  0  0
    1.5840   -0.0550   -0.6620 C   0  0  0  0  0  0  0  0  0  0  0  0
    0.1750   -0.0630   -0.7100 C   0  0  0  0  0  0  0  0  0  0  0  0
   -0.5720    0.1110    0.4350 C   0  0  0  0  0  0  0  0  0  0  0  0
   -2.0360    0.0990    0.3660 C   0  0  0  0  0  0  0  0  0  0  0  0
   -2.6780   -0.0850   -0.8530 C   0  0  0  0  0  0  0  0  0  0  0  0
   -4.0650   -0.0960   -0.9150 C   0  0  0  0  0  0  0  0  0  0  0  0
   -4.8290    0.0760    0.2160 C   0  0  0  0  0  0  0  0  0  0  0  0
   -6.2500    0.0720    0.1980 N   0  0  0  0  0  0  0  0  0  0  0  0
   -4.2160    0.2600    1.4310 C   0  0  0  0  0  0  0  0  0  0  0  0
   -2.8170    0.2690    1.4860 C   0  0  0  0  0  0  0  0  0  0  0  0
    0.0910    0.2860    1.5940 N   0  0  0  0  0  0  0  0  0  0  0  0
    1.4450    0.2960    1.6570 C   0  0  0  0  0  0  0  0  0  0  0  0
    1.9620    0.4670    2.7790 O   0  0  0  0  0  0  0  0  0  0  0  0
    2.2240    0.1290    0.5470 C   0  0  0  0  0  0  0  0  0  0  0  0
    3.6010    0.1430    0.6370 C   0  0  0  0  0  0  0  0  0  0  0  0
  1  2  1  0
  2  3  2  0
  2 20  1  0
  3  4  1  0
  4  5  1  0
  4  6  2  0
  6  7  1  0
  6 19  1  0
  7  8  2  0
  8  9  1  0
  8 16  1  0
  9 10  2  0
  9 15  1  0
 10 11  1  0
 11 12  2  0
 12 13  1  0
 12 14  1  0
 14 15  2  0
 16 17  1  0
 17 18  2  0
 17 19  1  0
 19 20  2  0
M  END
