
     RDKit          3D

 16 17  0  0  0  0  0  0  0  0999 V2000
    4.5850    0.7120    0.8700 C   0  0  0  0  0  0  0  0  0  0  0  0
    3.2520    0.1510    0.5100 C   0  0  0  0  0  0  0  0  0  0  0  0
    2.5720   -0.7180    1.3370 C   0  0  0  0  0  0  0  0  0  0  0  0
    1.3320   -1.1920    0.9280 C   0  0  0  0  0  0  0  0  0  0  0  0
    0.7300   -0.8490   -0.2630 C   0  0  0  0  0  0  0  0  0  0  0  0
   -0.6130   -1.3790   -0.6420 C   0  0  0  0  0  0  0  0  0  0  0  0
   -1.7120   -0.3980   -0.4610 C   0  0  0  0  0  0  0  0  0  0  0  0
   -2.3000    0.2410   -1.5570 C   0  0  0  0  0  0  0  0  0  0  0  0
   -3.3230    1.1760   -1.4170 C   0  0  0  0  0  0  0  0  0  0  0  0
   -3.7900    1.4950   -0.1610 C   0  0  0  0  0  0  0  0  0  0  0  0
   -3.2440    0.8910    0.9380 C   0  0  0  0  0  0  0  0  0  0  0  0
   -2.2170   -0.0440    0.7810 C   0  0  0  0  0  0  0  0  0  0  0  0
   -1.6940   -0.6740    1.9610 N   0  0  0  0  0  0  0  0  0  0  0  0
    1.4080    0.0140   -1.0860 C   0  0  0  0  0  0  0  0  0  0  0  0
    0.8140    0.5410   -2.6560 Cl  0  0  0  0  0  0  0  0  0  0  0  0
    2.6480    0.4890   -0.6770 C   0  0  0  0  0  0  0  0  0  0  0  0
  1  2  1  0
  2  3  2  0
  2 16  1  0
  3  4  1  0
  4  5  2  0
  5  6  1  0
  5 14  1  0
  6  7  1  0
  7  8  2  0
  7 12  1  0
  8  9  1  0
  9 10  2  0
 10 11  1  0
 11 12  2  0
 12 13  1  0
 14 15  1  0
 14 16  2  0
M  CHG  1  13   1
M  END
