
     RDKit          3D

 29 32  0  0  0  0  0  0  0  0999 V2000
    6.4280   -2.4280   -0.1340 C   0  0  0  0  0  0  0  0  0  0  0  0
    5.3120   -2.6590    0.6370 O   0  0  0  0  0  0  0  0  0  0  0  0
    4.6750   -1.5190    1.0620 C   0  0  0  0  0  0  0  0  0  0  0  0
    4.1730   -0.6730   -0.0590 C   0  0  0  0  0  0  0  0  0  0  0  0
    3.4570    0.5690    0.4410 C   0  0  1  0  0  0  0  0  0  0  0  0
    4.4000    1.4290    1.2830 C   0  0  0  0  0  0  0  0  0  0  0  0
    5.4610    1.7730    0.4920 O   0  0  0  0  0  0  0  0  0  0  0  0
    5.1350    2.5480   -0.6120 C   0  0  0  0  0  0  0  0  0  0  0  0
    3.9650    2.0230   -1.4020 C   0  0  0  0  0  0  0  0  0  0  0  0
    2.9650    1.4070   -0.5830 N   0  0  0  0  0  0  0  0  0  0  0  0
    1.7520    1.0690   -1.2170 C   0  0  0  0  0  0  0  0  0  0  0  0
    0.8270    0.4580   -0.2340 C   0  0  0  0  0  0  0  0  0  0  0  0
   -0.0110    1.1250    0.6310 C   0  0  0  0  0  0  0  0  0  0  0  0
   -0.7140    0.1760    1.3840 C   0  0  0  0  0  0  0  0  0  0  0  0
   -1.6960    0.5720    2.4060 C   0  0  0  0  0  0  0  0  0  0  0  0
   -2.9930    0.6990    1.7350 N   0  0  0  0  0  0  0  0  0  0  0  0
   -3.5760   -0.4170    1.0850 C   0  0  0  0  0  0  0  0  0  0  0  0
   -2.9240   -1.6140    1.1010 N   0  0  0  0  0  0  0  0  0  0  0  0
   -3.4620   -2.6840    0.5000 C   0  0  0  0  0  0  0  0  0  0  0  0
   -2.8720   -3.7960    0.5070 O   0  0  0  0  0  0  0  0  0  0  0  0
   -4.6530   -2.6050   -0.1320 N   0  0  0  0  0  0  0  0  0  0  0  0
   -5.3290   -1.4450   -0.1720 C   0  0  0  0  0  0  0  0  0  0  0  0
   -4.7850   -0.3140    0.4500 C   0  0  0  0  0  0  0  0  0  0  0  0
   -5.5880    0.9210    0.3550 C   0  0  0  0  0  0  0  0  0  0  0  0
   -5.9760    1.1120   -1.0990 C   0  0  0  0  0  0  0  0  0  0  0  0
   -6.6460   -0.0700   -1.7110 C   0  0  0  0  0  0  0  0  0  0  0  0
   -6.6430   -1.2940   -0.8440 C   0  0  0  0  0  0  0  0  0  0  0  0
   -0.2830   -1.0040    0.9550 N   0  0  0  0  0  0  0  0  0  0  0  0
    0.6380   -0.8500   -0.0120 N   0  0  0  0  0  0  0  0  0  0  0  0
  1  2  1  0
  2  3  1  0
  3  4  1  0
  5  4  1  6
  5  6  1  0
  5 10  1  0
  6  7  1  0
  7  8  1  0
  8  9  1  0
  9 10  1  0
 10 11  1  0
 11 12  1  0
 12 13  2  0
 12 29  1  0
 13 14  1  0
 14 15  1  0
 14 28  2  0
 15 16  1  0
 16 17  1  0
 17 18  2  0
 17 23  1  0
 18 19  1  0
 19 20  2  0
 19 21  1  0
 21 22  1  0
 22 23  2  0
 22 27  1  0
 23 24  1  0
 24 25  1  0
 25 26  1  0
 26 27  1  0
 28 29  1  0
M  END
