
     RDKit          3D

 29 31  0  0  0  0  0  0  0  0999 V2000
   -3.0190    5.6990    0.0190 C   0  0  0  0  0  0  0  0  0  0  0  0
   -3.0690    4.2060   -0.0360 C   0  0  0  0  0  0  0  0  0  0  0  0
   -3.6730    3.5350    0.9870 C   0  0  0  0  0  0  0  0  0  0  0  0
   -3.7390    2.1440    0.9740 C   0  0  0  0  0  0  0  0  0  0  0  0
   -3.2060    1.4050   -0.0580 C   0  0  0  0  0  0  0  0  0  0  0  0
   -3.2990   -0.0280   -0.0260 N   0  0  0  0  0  0  0  0  0  0  0  0
   -4.3930   -0.7590   -0.1880 N   0  0  0  0  0  0  0  0  0  0  0  0
   -4.1020   -2.0610   -0.0950 C   0  0  0  0  0  0  0  0  0  0  0  0
   -5.0370   -3.2100   -0.2160 C   0  0  1  0  0  0  0  0  0  0  0  0
   -5.7080   -3.2050   -1.5580 C   0  0  0  0  0  0  0  0  0  0  0  0
   -4.3400   -4.5230    0.0710 C   0  0  0  0  0  0  0  0  0  0  0  0
   -6.1130   -3.0500    0.8470 C   0  0  0  0  0  0  0  0  0  0  0  0
   -2.7260   -2.1140    0.1420 C   0  0  0  0  0  0  0  0  0  0  0  0
   -2.2320   -0.8310    0.1840 C   0  0  0  0  0  0  0  0  0  0  0  0
   -0.9020   -0.3750    0.3960 N   0  0  0  0  0  0  0  0  0  0  0  0
    0.2110   -1.2240    0.6150 C   0  0  0  0  0  0  0  0  0  0  0  0
    0.0380   -2.4670    0.6250 O   0  0  0  0  0  0  0  0  0  0  0  0
    1.5300   -0.7260    0.8250 N   0  0  0  0  0  0  0  0  0  0  0  0
    2.6560   -1.6380    1.0470 C   0  0  0  0  0  0  0  0  0  0  0  0
    3.9160   -0.8590    1.2380 C   0  0  0  0  0  0  0  0  0  0  0  0
    4.2010   -0.0130   -0.0020 C   0  0  0  0  0  0  0  0  0  0  0  0
    5.4330    0.7090    0.2620 N   0  0  1  0  0  0  0  0  0  0  0  0
    6.5290   -0.1350   -0.2050 C   0  0  0  0  0  0  0  0  0  0  0  0
    7.8080    0.4550    0.3390 C   0  0  0  0  0  0  0  0  0  0  0  0
    7.7750    1.8200    0.1650 O   0  0  0  0  0  0  0  0  0  0  0  0
    6.9140    2.2460   -0.8210 C   0  0  0  0  0  0  0  0  0  0  0  0
    5.4760    1.9330   -0.5110 C   0  0  0  0  0  0  0  0  0  0  0  0
   -2.6010    2.1040   -1.0790 C   0  0  0  0  0  0  0  0  0  0  0  0
   -2.5290    3.4810   -1.0780 C   0  0  0  0  0  0  0  0  0  0  0  0
  1  2  1  0
  2  3  2  0
  2 29  1  0
  3  4  1  0
  4  5  2  0
  5  6  1  0
  5 28  1  0
  6  7  1  0
  6 14  1  0
  7  8  2  0
  8  9  1  0
  8 13  1  0
  9 10  1  6
  9 11  1  0
  9 12  1  0
 13 14  2  0
 14 15  1  0
 15 16  1  0
 16 17  2  0
 16 18  1  0
 18 19  1  0
 19 20  1  0
 20 21  1  0
 22 21  1  6
 22 23  1  0
 22 27  1  0
 23 24  1  0
 24 25  1  0
 25 26  1  0
 26 27  1  0
 28 29  2  0
M  CHG  1  22   1
M  END
