
     RDKit          3D

 29 32  0  0  0  0  0  0  0  0999 V2000
   -5.6090   -2.3650    2.3600 C   0  0  0  0  0  0  0  0  0  0  0  0
   -4.7390   -1.5660    1.7960 C   0  0  0  0  0  0  0  0  0  0  0  0
   -3.3350   -1.4770    2.1430 C   0  0  0  0  0  0  0  0  0  0  0  0
   -2.7680   -0.5060    1.1870 C   0  0  0  0  0  0  0  0  0  0  0  0
   -1.4480   -0.0740    1.0600 C   0  0  0  0  0  0  0  0  0  0  0  0
   -1.0710    0.8510    0.1360 C   0  0  0  0  0  0  0  0  0  0  0  0
    0.3130    1.3420   -0.0350 C   0  0  0  0  0  0  0  0  0  0  0  0
    1.0130    0.4330   -1.0510 C   0  0  0  0  0  0  0  0  0  0  0  0
    2.4020    0.8460   -1.2820 C   0  0  0  0  0  0  0  0  0  0  0  0
    2.5790    1.6830   -2.2390 O   0  0  0  0  0  0  0  0  0  0  0  0
    3.5680    0.4020   -0.5400 C   0  0  0  0  0  0  0  0  0  0  0  0
    4.8320    0.8800   -0.9180 C   0  0  0  0  0  0  0  0  0  0  0  0
    5.9650    0.4980   -0.2680 C   0  0  0  0  0  0  0  0  0  0  0  0
    5.8240   -0.3930    0.7940 C   0  0  0  0  0  0  0  0  0  0  0  0
    4.6010   -0.8630    1.1680 C   0  0  0  0  0  0  0  0  0  0  0  0
    3.4340   -0.4720    0.5030 C   0  0  0  0  0  0  0  0  0  0  0  0
    2.2240   -0.9750    0.9210 O   0  0  0  0  0  0  0  0  0  0  0  0
    7.1660   -0.6790    1.3620 C   0  0  1  0  0  0  0  0  0  0  0  0
    7.2500   -1.9700    1.8660 O   0  0  0  0  0  0  0  0  0  0  0  0
    8.0580   -0.4460    0.1690 C   0  0  0  0  0  0  0  0  0  0  0  0
    7.4290    0.8130   -0.4160 C   0  0  0  0  0  0  0  0  0  0  0  0
   -2.0430    1.3470   -0.6750 C   0  0  0  0  0  0  0  0  0  0  0  0
   -3.3780    0.9560   -0.6010 C   0  0  0  0  0  0  0  0  0  0  0  0
   -4.3060    1.4920   -1.6080 C   0  0  0  0  0  0  0  0  0  0  0  0
   -4.3860    0.4570   -2.7300 C   0  0  0  0  0  0  0  0  0  0  0  0
   -3.7490    0.0200    0.3420 C   0  0  0  0  0  0  0  0  0  0  0  0
   -5.0320   -0.5950    0.6740 C   0  0  0  0  0  0  0  0  0  0  0  0
   -6.2350   -0.4200    0.2400 C   0  0  0  0  0  0  0  0  0  0  0  0
   -6.9960    0.3170   -0.7180 C   0  0  0  0  0  0  0  0  0  0  0  0
  1  2  2  0
  2  3  1  0
  2 27  1  0
  3  4  1  0
  4  5  2  0
  4 26  1  0
  5  6  1  0
  6  7  1  0
  6 22  2  0
  7  8  1  0
  8  9  1  0
  9 10  2  0
  9 11  1  0
 11 12  2  0
 11 16  1  0
 12 13  1  0
 13 14  2  0
 13 21  1  0
 14 15  1  0
 14 18  1  0
 15 16  2  0
 16 17  1  0
 18 19  1  6
 18 20  1  0
 20 21  1  0
 22 23  1  0
 23 24  1  0
 23 26  2  0
 24 25  1  0
 26 27  1  0
 27 28  2  3
 28 29  1  0
M  CHG  1  17  -1
M  END
