
     RDKit          3D

 29 32  0  0  0  0  0  0  0  0999 V2000
   -9.6170    0.3070    0.7090 C   0  0  0  0  0  0  0  0  0  0  0  0
   -8.8330    1.1770   -0.1480 N   0  0  0  0  0  0  0  0  0  0  0  0
   -7.4420    0.9790   -0.2490 C   0  0  0  0  0  0  0  0  0  0  0  0
   -6.7240    1.8300   -1.0780 C   0  0  0  0  0  0  0  0  0  0  0  0
   -5.3760    1.6330   -1.1710 C   0  0  0  0  0  0  0  0  0  0  0  0
   -4.6940    0.6180   -0.4720 C   0  0  0  0  0  0  0  0  0  0  0  0
   -3.2910    0.5010   -0.6680 N   0  0  0  0  0  0  0  0  0  0  0  0
   -2.4720   -0.2280    0.1950 C   0  0  0  0  0  0  0  0  0  0  0  0
   -2.8800   -0.8210    1.1910 O   0  0  0  0  0  0  0  0  0  0  0  0
   -1.0180   -0.2850   -0.1180 C   0  0  0  0  0  0  0  0  0  0  0  0
   -0.5670    0.3050   -1.1200 O   0  0  0  0  0  0  0  0  0  0  0  0
   -0.1420   -1.0090    0.7220 N   0  0  0  0  0  0  0  0  0  0  0  0
    1.2470   -1.0940    0.4690 C   0  0  0  0  0  0  0  0  0  0  0  0
    1.9850   -0.5490   -0.5440 C   0  0  0  0  0  0  0  0  0  0  0  0
    3.3050   -0.8790   -0.4120 N   0  0  0  0  0  0  0  0  0  0  0  0
    4.3960   -0.5020   -1.2620 C   0  0  0  0  0  0  0  0  0  0  0  0
    5.0540    0.7810   -0.9170 C   0  0  1  0  0  0  0  0  0  0  0  0
    5.6670    0.8600    0.4500 C   0  0  0  0  0  0  0  0  0  0  0  0
    6.8010    1.8570    0.2190 C   0  0  0  0  0  0  0  0  0  0  0  0
    6.8810    2.0030   -1.2730 C   0  0  0  0  0  0  0  0  0  0  0  0
    6.1560    0.9540   -1.7840 O   0  0  0  0  0  0  0  0  0  0  0  0
    3.4090   -1.6370    0.6880 C   0  0  0  0  0  0  0  0  0  0  0  0
    4.4240   -2.2610    1.3360 N   0  0  0  0  0  0  0  0  0  0  0  0
    4.2370   -2.9810    2.4530 C   0  0  0  0  0  0  0  0  0  0  0  0
    3.0000   -3.1420    3.0320 C   0  0  0  0  0  0  0  0  0  0  0  0
    1.9360   -2.5250    2.4090 C   0  0  0  0  0  0  0  0  0  0  0  0
    2.1640   -1.7950    1.2630 C   0  0  0  0  0  0  0  0  0  0  0  0
   -5.4480   -0.1800    0.3200 C   0  0  0  0  0  0  0  0  0  0  0  0
   -6.7870    0.0150    0.4130 N   0  0  0  0  0  0  0  0  0  0  0  0
  1  2  1  0
  2  3  1  0
  3  4  2  0
  3 29  1  0
  4  5  1  0
  5  6  2  0
  6  7  1  0
  6 28  1  0
  7  8  1  0
  8  9  2  0
  8 10  1  0
 10 11  2  0
 10 12  1  0
 12 13  1  0
 13 14  2  0
 13 27  1  0
 14 15  1  0
 15 16  1  0
 15 22  1  0
 17 16  1  6
 17 18  1  0
 17 21  1  0
 18 19  1  0
 19 20  1  0
 20 21  1  0
 22 23  2  0
 22 27  1  0
 23 24  1  0
 24 25  2  0
 25 26  1  0
 26 27  2  0
 28 29  2  0
M  END
