
     RDKit          3D

 29 32  0  0  0  0  0  0  0  0999 V2000
   -4.8270   -1.8940   -2.4000 C   0  0  0  0  0  0  0  0  0  0  0  0
   -3.5530   -1.3790   -2.0780 O   0  0  0  0  0  0  0  0  0  0  0  0
   -3.4440   -0.6660   -0.8620 C   0  0  0  0  0  0  0  0  0  0  0  0
   -2.2280   -0.1330   -0.4810 C   0  0  0  0  0  0  0  0  0  0  0  0
   -2.0940    0.5590    0.6860 C   0  0  0  0  0  0  0  0  0  0  0  0
   -0.8170    1.1860    1.1570 C   0  0  0  0  0  0  0  0  0  0  0  0
    0.2210    0.2290    1.3380 N   0  0  0  0  0  0  0  0  0  0  0  0
    1.1480   -0.0120    0.4170 C   0  0  0  0  0  0  0  0  0  0  0  0
    2.0670   -1.0390    0.6440 C   0  0  0  0  0  0  0  0  0  0  0  0
    2.0350   -1.7900    1.7830 N   0  0  0  0  0  0  0  0  0  0  0  0
    1.1070   -1.5510    2.7150 C   0  0  0  0  0  0  0  0  0  0  0  0
    0.2220   -0.5480    2.4720 C   0  0  0  0  0  0  0  0  0  0  0  0
   -0.6810   -0.2750    3.3210 O   0  0  0  0  0  0  0  0  0  0  0  0
    3.0400   -1.2920   -0.3510 N   0  0  0  0  0  0  0  0  0  0  0  0
    3.2170   -0.5060   -1.5380 C   0  0  2  0  0  0  0  0  0  0  0  0
    4.6050    0.0150   -1.6200 C   0  0  0  0  0  0  0  0  0  0  0  0
    4.8970    1.3110   -1.9370 C   0  0  0  0  0  0  0  0  0  0  0  0
    6.2120    1.7060   -1.9920 C   0  0  0  0  0  0  0  0  0  0  0  0
    7.2020    0.8430   -1.7400 N   0  0  0  0  0  0  0  0  0  0  0  0
    6.9550   -0.4280   -1.4280 C   0  0  0  0  0  0  0  0  0  0  0  0
    5.6400   -0.8570   -1.3650 C   0  0  0  0  0  0  0  0  0  0  0  0
    2.2330    0.5060   -1.6550 N   0  0  0  0  0  0  0  0  0  0  0  0
    1.2770    0.7650   -0.7930 C   0  0  0  0  0  0  0  0  0  0  0  0
    0.4380    1.8540   -1.0960 N   0  0  0  0  0  0  0  0  0  0  0  0
   -3.2360    0.6920    1.4530 C   0  0  0  0  0  0  0  0  0  0  0  0
   -4.4730    0.1800    1.1190 C   0  0  0  0  0  0  0  0  0  0  0  0
   -5.5880    0.3580    1.9560 O   0  0  0  0  0  0  0  0  0  0  0  0
   -5.4560    1.0770    3.1710 C   0  0  0  0  0  0  0  0  0  0  0  0
   -4.5530   -0.5060   -0.0610 C   0  0  0  0  0  0  0  0  0  0  0  0
  1  2  1  0
  2  3  1  0
  3  4  2  0
  3 29  1  0
  4  5  1  0
  5  6  1  0
  5 25  2  0
  6  7  1  0
  7  8  1  0
  7 12  1  0
  8  9  2  0
  8 23  1  0
  9 10  1  0
  9 14  1  0
 10 11  2  0
 11 12  1  0
 12 13  2  0
 14 15  1  0
 15 16  1  1
 15 22  1  0
 16 17  2  0
 16 21  1  0
 17 18  1  0
 18 19  2  0
 19 20  1  0
 20 21  2  0
 22 23  2  0
 23 24  1  0
 25 26  1  0
 26 27  1  0
 26 29  2  0
 27 28  1  0
M  END
