
     RDKit          3D

 29 31  0  0  0  0  0  0  0  0999 V2000
    6.4370    3.1630   -1.2780 C   0  0  0  0  0  0  0  0  0  0  0  0
    5.2920    3.0140   -2.1500 N   0  0  0  0  0  0  0  0  0  0  0  0
    4.0190    2.8320   -1.5170 C   0  0  0  0  0  0  0  0  0  0  0  0
    3.9340    2.8080   -0.2500 O   0  0  0  0  0  0  0  0  0  0  0  0
    2.8320    2.6760   -2.2630 N   0  0  0  0  0  0  0  0  0  0  0  0
    1.5530    2.4730   -1.7090 C   0  0  0  0  0  0  0  0  0  0  0  0
    1.3820    1.1790   -0.9390 C   0  0  0  0  0  0  0  0  0  0  0  0
    2.3180    0.3030   -0.8700 C   0  0  0  0  0  0  0  0  0  0  0  0
    2.4270   -0.9480   -0.2390 N   0  0  0  0  0  0  0  0  0  0  0  0
    2.9250   -1.0570    1.0940 C   0  0  0  0  0  0  0  0  0  0  0  0
    2.8940   -2.1740    1.7840 C   0  0  0  0  0  0  0  0  0  0  0  0
    2.3290   -3.3630    1.1720 C   0  0  0  0  0  0  0  0  0  0  0  0
    2.4810   -4.5190    1.6740 O   0  0  0  0  0  0  0  0  0  0  0  0
    1.5430   -3.2560   -0.0810 C   0  0  0  0  0  0  0  0  0  0  0  0
    2.0760   -2.1610   -0.9390 C   0  0  0  0  0  0  0  0  0  0  0  0
    0.0840    1.0650   -0.3190 C   0  0  0  0  0  0  0  0  0  0  0  0
   -0.7780    2.0260   -0.4650 O   0  0  0  0  0  0  0  0  0  0  0  0
   -0.4090    0.0080    0.4640 N   0  0  0  0  0  0  0  0  0  0  0  0
   -1.7390    0.0230    1.0290 C   0  0  0  0  0  0  0  0  0  0  0  0
   -1.9880    0.5520    2.2780 C   0  0  0  0  0  0  0  0  0  0  0  0
   -0.9940    1.1710    3.2260 C   0  0  0  0  0  0  0  0  0  0  0  0
   -3.3050    0.4020    2.4810 N   0  0  0  0  0  0  0  0  0  0  0  0
   -3.8580   -0.1820    1.4320 N   0  0  0  0  0  0  0  0  0  0  0  0
   -2.9070   -0.4330    0.5060 C   0  0  0  0  0  0  0  0  0  0  0  0
   -3.2290   -1.0800   -0.7690 C   0  0  0  0  0  0  0  0  0  0  0  0
   -4.2840   -2.1290   -0.6460 C   0  0  0  0  0  0  0  0  0  0  0  0
   -5.1660   -1.9860    0.5510 C   0  0  0  0  0  0  0  0  0  0  0  0
   -5.2140   -0.5840    1.1030 C   0  0  2  0  0  0  0  0  0  0  0  0
   -5.8150    0.3860    0.1290 C   0  0  0  0  0  0  0  0  0  0  0  0
  1  2  1  0
  2  3  1  0
  3  4  2  0
  3  5  1  0
  5  6  1  0
  6  7  1  0
  7  8  2  3
  7 16  1  0
  8  9  1  0
  9 10  1  0
  9 15  1  0
 10 11  2  0
 11 12  1  0
 12 13  2  0
 12 14  1  0
 14 15  1  0
 16 17  2  0
 16 18  1  0
 18 19  1  0
 19 20  1  0
 19 24  2  0
 20 21  1  0
 20 22  2  0
 22 23  1  0
 23 24  1  0
 23 28  1  0
 24 25  1  0
 25 26  1  0
 26 27  1  0
 27 28  1  0
 28 29  1  6
M  END
