
     RDKit          3D

 29 32  0  0  0  0  0  0  0  0999 V2000
    8.5230   -0.8860    0.1820 C   0  0  0  0  0  0  0  0  0  0  0  0
    7.1510   -0.5430   -0.3570 C   0  0  0  0  0  0  0  0  0  0  0  0
    6.2010   -0.4660    0.8030 C   0  0  0  0  0  0  0  0  0  0  0  0
    4.8190   -0.1100    0.3600 C   0  0  0  0  0  0  0  0  0  0  0  0
    3.7800   -0.8640    0.5780 C   0  0  0  0  0  0  0  0  0  0  0  0
    4.0420   -2.0600    1.2720 O   0  0  0  0  0  0  0  0  0  0  0  0
    2.4350   -0.5470    0.1580 C   0  0  0  0  0  0  0  0  0  0  0  0
    1.4200   -1.4180    0.5980 C   0  0  0  0  0  0  0  0  0  0  0  0
    0.0780   -1.1350    0.7630 C   0  0  0  0  0  0  0  0  0  0  0  0
   -0.6520   -0.0910    0.2520 C   0  0  0  0  0  0  0  0  0  0  0  0
   -2.0850   -0.2100    0.0560 C   0  0  0  0  0  0  0  0  0  0  0  0
   -2.6730    0.0890   -1.1800 C   0  0  0  0  0  0  0  0  0  0  0  0
   -4.0240   -0.0480   -1.3490 C   0  0  0  0  0  0  0  0  0  0  0  0
   -4.6600    0.2620   -2.6500 C   0  0  0  0  0  0  0  0  0  0  0  0
   -4.8650   -0.4840   -0.3160 C   0  0  0  0  0  0  0  0  0  0  0  0
   -4.3000   -0.7780    0.8950 C   0  0  0  0  0  0  0  0  0  0  0  0
   -2.9180   -0.6360    1.0630 C   0  0  0  0  0  0  0  0  0  0  0  0
   -2.3690   -0.9430    2.3100 O   0  0  0  0  0  0  0  0  0  0  0  0
   -5.3460   -1.2220    1.8530 C   0  0  0  0  0  0  0  0  0  0  0  0
   -6.5320   -1.5250    0.9850 C   0  0  0  0  0  0  0  0  0  0  0  0
   -6.3310   -0.6850   -0.2390 C   0  0  0  0  0  0  0  0  0  0  0  0
   -0.1110    1.1350   -0.1410 C   0  0  0  0  0  0  0  0  0  0  0  0
   -1.0320    2.1580   -0.1070 C   0  0  0  0  0  0  0  0  0  0  0  0
   -0.7020    3.4520   -0.4750 C   0  0  0  0  0  0  0  0  0  0  0  0
    0.5810    3.7240   -0.8850 C   0  0  0  0  0  0  0  0  0  0  0  0
    1.5140    2.7040   -0.9220 C   0  0  0  0  0  0  0  0  0  0  0  0
    1.1760    1.4230   -0.5540 C   0  0  0  0  0  0  0  0  0  0  0  0
    2.2590    0.5470   -0.6440 C   0  0  0  0  0  0  0  0  0  0  0  0
    3.0900    0.8210   -1.5280 O   0  0  0  0  0  0  0  0  0  0  0  0
  1  2  1  0
  2  3  1  0
  3  4  1  0
  4  5  2  3
  5  6  1  0
  5  7  1  0
  7  8  2  0
  7 28  1  0
  8  9  1  0
  9 10  2  0
 10 11  1  0
 10 22  1  0
 11 12  2  0
 11 17  1  0
 12 13  1  0
 13 14  1  0
 13 15  2  0
 15 16  1  0
 15 21  1  0
 16 17  2  0
 16 19  1  0
 17 18  1  0
 19 20  1  0
 20 21  1  0
 22 23  2  0
 22 27  1  0
 23 24  1  0
 24 25  2  0
 25 26  1  0
 26 27  2  0
 27 28  1  0
 28 29  2  0
M  CHG  1   6  -1
M  END
