
     RDKit          3D

 29 32  0  0  0  0  0  0  0  0999 V2000
   -4.9750   -3.1530    0.6200 C   0  0  0  0  0  0  0  0  0  0  0  0
   -4.1240   -2.1860    0.3930 C   0  0  0  0  0  0  0  0  0  0  0  0
   -2.6720   -2.4450    0.0840 C   0  0  0  0  0  0  0  0  0  0  0  0
   -2.2950   -1.4330   -0.9770 C   0  0  0  0  0  0  0  0  0  0  0  0
   -2.2380   -0.0620   -0.3400 C   0  0  2  0  0  0  0  0  0  0  0  0
   -0.8650    0.0810    0.2880 C   0  0  0  0  0  0  0  0  0  0  0  0
   -0.6360    1.3620    0.9500 C   0  0  0  0  0  0  0  0  0  0  0  0
   -1.4560    1.7330    2.0160 O   0  0  0  0  0  0  0  0  0  0  0  0
    0.3370    2.1570    0.5430 C   0  0  0  0  0  0  0  0  0  0  0  0
    0.7030    3.4740    1.0970 C   0  0  0  0  0  0  0  0  0  0  0  0
    0.2100    3.9650    2.1530 O   0  0  0  0  0  0  0  0  0  0  0  0
    1.7220    4.1120    0.2300 C   0  0  0  0  0  0  0  0  0  0  0  0
    1.7030    3.2620   -1.0020 C   0  0  0  0  0  0  0  0  0  0  0  0
    1.2610    1.8920   -0.5520 C   0  0  1  0  0  0  0  0  0  0  0  0
    2.3920    1.0100   -0.1650 C   0  0  0  0  0  0  0  0  0  0  0  0
    3.1610    1.1930    0.9620 C   0  0  0  0  0  0  0  0  0  0  0  0
    4.2090    0.3410    1.2770 C   0  0  0  0  0  0  0  0  0  0  0  0
    4.5050   -0.7220    0.4490 C   0  0  0  0  0  0  0  0  0  0  0  0
    5.5400   -1.5990    0.7180 C   0  0  0  0  0  0  0  0  0  0  0  0
    6.2960   -1.3900    1.8600 O   0  0  0  0  0  0  0  0  0  0  0  0
    5.7890   -2.6390   -0.1410 C   0  0  0  0  0  0  0  0  0  0  0  0
    5.0410   -2.8570   -1.2840 C   0  0  0  0  0  0  0  0  0  0  0  0
    4.0140   -1.9890   -1.5530 C   0  0  0  0  0  0  0  0  0  0  0  0
    3.7580   -0.9390   -0.6910 C   0  0  0  0  0  0  0  0  0  0  0  0
    2.7280   -0.0660   -0.9590 C   0  0  0  0  0  0  0  0  0  0  0  0
   -3.3640    0.1690    0.6400 C   0  0  0  0  0  0  0  0  0  0  0  0
   -4.4900   -0.7760    0.4150 C   0  0  0  0  0  0  0  0  0  0  0  0
   -5.7360   -0.4060    0.2420 C   0  0  0  0  0  0  0  0  0  0  0  0
   -6.1540    1.0290    0.2580 C   0  0  0  0  0  0  0  0  0  0  0  0
  1  2  2  0
  2  3  1  0
  2 27  1  0
  3  4  1  0
  4  5  1  0
  5  6  1  1
  5 26  1  0
  6  7  1  0
  7  8  1  0
  7  9  2  3
  9 10  1  0
  9 14  1  0
 10 11  2  0
 10 12  1  0
 12 13  1  0
 13 14  1  0
 14 15  1  1
 15 16  2  0
 15 25  1  0
 16 17  1  0
 17 18  2  0
 18 19  1  0
 18 24  1  0
 19 20  1  0
 19 21  2  0
 21 22  1  0
 22 23  2  0
 23 24  1  0
 24 25  2  0
 26 27  1  0
 27 28  2  3
 28 29  1  0
M  CHG  1   8  -1
M  END
