
     RDKit          3D

 29 31  0  0  0  0  0  0  0  0999 V2000
    8.8650    0.5220   -2.0870 C   0  0  0  0  0  0  0  0  0  0  0  0
    9.1040    0.7620   -0.6260 C   0  0  0  0  0  0  0  0  0  0  0  0
    8.4480   -0.1700    0.1930 O   0  0  0  0  0  0  0  0  0  0  0  0
    7.0630   -0.2580    0.1190 C   0  0  0  0  0  0  0  0  0  0  0  0
    6.4730    0.5090   -0.6830 O   0  0  0  0  0  0  0  0  0  0  0  0
    6.2760   -1.2010    0.9340 C   0  0  0  0  0  0  0  0  0  0  0  0
    4.8380   -1.0340    0.6110 C   0  0  0  0  0  0  0  0  0  0  0  0
    4.1180   -1.6710   -0.3310 N   0  0  0  0  0  0  0  0  0  0  0  0
    2.8890   -1.2570   -0.3130 O   0  0  0  0  0  0  0  0  0  0  0  0
    2.7440   -0.3500    0.6200 C   0  0  0  0  0  0  0  0  0  0  0  0
    1.5330    0.3830    0.9910 C   0  0  0  0  0  0  0  0  0  0  0  0
    1.5850    1.3080    2.0120 C   0  0  0  0  0  0  0  0  0  0  0  0
    0.4710    2.0270    2.4020 C   0  0  0  0  0  0  0  0  0  0  0  0
   -0.6940    1.8180    1.7680 N   0  0  0  0  0  0  0  0  0  0  0  0
   -0.8150    0.9280    0.7610 C   0  0  0  0  0  0  0  0  0  0  0  0
   -2.0690    0.7380    0.1160 N   0  0  0  0  0  0  0  0  0  0  0  0
   -2.9990    0.0990    0.7290 C   0  0  0  0  0  0  0  0  0  0  0  0
   -4.2960   -0.1280    0.1280 C   0  0  0  0  0  0  0  0  0  0  0  0
   -4.6220    0.2960   -1.0760 C   0  0  0  0  0  0  0  0  0  0  0  0
   -3.6140    1.0630   -1.9010 C   0  0  0  0  0  0  0  0  0  0  0  0
   -5.8990    0.0540   -1.6340 N   0  0  0  0  0  0  0  0  0  0  0  0
   -6.9200   -0.6460   -0.9440 C   0  0  2  0  0  0  0  0  0  0  0  0
   -8.2140    0.1630   -0.8640 C   0  0  0  0  0  0  0  0  0  0  0  0
   -6.5090   -1.0930    0.3810 C   0  0  0  0  0  0  0  0  0  0  0  0
   -5.3210   -0.8580    0.8660 C   0  0  0  0  0  0  0  0  0  0  0  0
   -5.0240   -1.3750    2.2500 C   0  0  0  0  0  0  0  0  0  0  0  0
    0.3180    0.2070    0.3760 C   0  0  0  0  0  0  0  0  0  0  0  0
    0.2160   -0.7220   -0.6680 N   0  0  0  0  0  0  0  0  0  0  0  0
    3.9510   -0.2090    1.1960 N   0  0  0  0  0  0  0  0  0  0  0  0
  1  2  1  0
  2  3  1  0
  3  4  1  0
  4  5  2  0
  4  6  1  0
  6  7  1  0
  7  8  2  0
  7 29  1  0
  8  9  1  0
  9 10  1  0
 10 11  1  0
 10 29  2  0
 11 12  2  0
 11 27  1  0
 12 13  1  0
 13 14  2  0
 14 15  1  0
 15 16  1  0
 15 27  2  0
 16 17  2  3
 17 18  1  0
 18 19  2  0
 18 25  1  0
 19 20  1  0
 19 21  1  0
 21 22  1  0
 22 23  1  1
 22 24  1  0
 24 25  2  0
 25 26  1  0
 27 28  1  0
M  END
