
     RDKit          3D

 46 49  0  0  0  0  0  0  0  0999 V2000
  -10.0510    0.8960    1.9340 C   0  0  0  0  0  0  0  0  0  0  0  0
   -9.2980    0.5360    0.6560 C   0  0  2  0  0  0  0  0  0  0  0  0
   -7.9680    1.0180    0.7150 O   0  0  0  0  0  0  0  0  0  0  0  0
   -6.8400    0.2110    0.7330 C   0  0  0  0  0  0  0  0  0  0  0  0
   -6.9850   -1.0150    0.7020 O   0  0  0  0  0  0  0  0  0  0  0  0
   -5.5110    0.8320    0.7910 C   0  0  0  0  0  0  0  0  0  0  0  0
   -4.4230   -0.1000    0.9030 N   0  0  1  0  0  0  0  0  0  0  0  0
   -4.7440   -1.2180    1.7580 C   0  0  0  0  0  0  0  0  0  0  0  0
   -3.8370   -0.4510   -0.3520 C   0  0  2  0  0  0  0  0  0  0  0  0
   -4.7040   -1.2580   -1.2740 C   0  0  0  0  0  0  0  0  0  0  0  0
   -2.5080   -1.1010   -0.1990 C   0  0  0  0  0  0  0  0  0  0  0  0
   -2.1620   -2.2910   -0.7980 C   0  0  0  0  0  0  0  0  0  0  0  0
   -0.8980   -2.8770   -0.6290 C   0  0  0  0  0  0  0  0  0  0  0  0
    0.0650   -2.2890    0.1490 C   0  0  0  0  0  0  0  0  0  0  0  0
    1.3680   -2.8040    0.3820 N   0  0  0  0  0  0  0  0  0  0  0  0
    1.9510   -3.9470   -0.1930 C   0  0  0  0  0  0  0  0  0  0  0  0
    1.3040   -4.6300   -1.0070 O   0  0  0  0  0  0  0  0  0  0  0  0
    3.3500   -4.3800    0.1480 C   0  0  0  0  0  0  0  0  0  0  0  0
    4.0420   -3.1370    1.3070 S   0  0  0  0  0  0  0  0  0  0  0  0
    4.2210   -1.6230    0.3840 C   0  0  0  0  0  0  0  0  0  0  0  0
    3.9420   -1.5210   -0.9560 C   0  0  0  0  0  0  0  0  0  0  0  0
    4.0830   -0.3240   -1.6210 C   0  0  0  0  0  0  0  0  0  0  0  0
    4.5160    0.7970   -0.9180 C   0  0  0  0  0  0  0  0  0  0  0  0
    4.8050    0.7240    0.4330 C   0  0  0  0  0  0  0  0  0  0  0  0
    5.2610    1.9270    1.1670 C   0  0  0  0  0  0  0  0  0  0  0  0
    6.5820    1.6510    1.7010 N   0  0  0  0  0  0  0  0  0  0  0  0
    7.7450    1.6150    0.9050 C   0  0  0  0  0  0  0  0  0  0  0  0
    7.5740    1.8370   -0.3300 O   0  0  0  0  0  0  0  0  0  0  0  0
    9.0730    1.3420    1.4330 C   0  0  0  0  0  0  0  0  0  0  0  0
    9.2500    1.1550    2.6610 O   0  0  0  0  0  0  0  0  0  0  0  0
   10.1370    1.2900    0.5830 O   0  0  0  0  0  0  0  0  0  0  0  0
   11.4730    1.0410    0.9660 C   0  0  1  0  0  0  0  0  0  0  0  0
   11.8380   -0.2840    0.2710 C   0  0  0  0  0  0  0  0  0  0  0  0
   12.0100    0.1610   -1.1580 C   0  0  0  0  0  0  0  0  0  0  0  0
   12.2920    1.6290   -1.1420 C   0  0  0  0  0  0  0  0  0  0  0  0
   12.4630    1.9740    0.3270 C   0  0  0  0  0  0  0  0  0  0  0  0
    4.6520   -0.4950    1.0660 C   0  0  0  0  0  0  0  0  0  0  0  0
   -0.2930   -1.0790    0.7550 C   0  0  0  0  0  0  0  0  0  0  0  0
   -1.5340   -0.5170    0.5800 C   0  0  0  0  0  0  0  0  0  0  0  0
   -9.9670    1.2500   -0.4520 C   0  0  0  0  0  0  0  0  0  0  0  0
   -9.7600    2.6240   -0.5110 C   0  0  0  0  0  0  0  0  0  0  0  0
  -10.3160    3.4190   -1.4680 C   0  0  0  0  0  0  0  0  0  0  0  0
  -11.0980    2.8490   -2.3980 N   0  0  0  0  0  0  0  0  0  0  0  0
  -11.3200    1.5040   -2.3680 C   0  0  0  0  0  0  0  0  0  0  0  0
  -12.1680    0.9600   -3.3870 N   0  0  0  0  0  0  0  0  0  0  0  0
  -10.7660    0.6820   -1.4050 C   0  0  0  0  0  0  0  0  0  0  0  0
  2  1  1  1
  2  3  1  0
  2 40  1  0
  3  4  1  0
  4  5  2  0
  4  6  1  0
  6  7  1  0
  7  8  1  6
  7  9  1  0
  9 10  1  1
  9 11  1  0
 11 12  2  0
 11 39  1  0
 12 13  1  0
 13 14  2  0
 14 15  1  0
 14 38  1  0
 15 16  1  0
 16 17  2  0
 16 18  1  0
 18 19  1  0
 19 20  1  0
 20 21  2  0
 20 37  1  0
 21 22  1  0
 22 23  2  0
 23 24  1  0
 24 25  1  0
 24 37  2  0
 25 26  1  0
 26 27  1  0
 27 28  2  0
 27 29  1  0
 29 30  2  0
 29 31  1  0
 32 31  1  6
 32 33  1  0
 32 36  1  0
 33 34  1  0
 34 35  1  0
 35 36  1  0
 38 39  2  0
 40 41  2  0
 40 46  1  0
 41 42  1  0
 42 43  2  0
 43 44  1  0
 44 45  1  0
 44 46  2  0
M  CHG  2   7   1  43   1
M  END
