
     RDKit          3D

 46 48  0  0  0  0  0  0  0  0999 V2000
    4.3940    4.8620    1.8940 C   0  0  0  0  0  0  0  0  0  0  0  0
    3.2770    5.6910    1.6770 O   0  0  0  0  0  0  0  0  0  0  0  0
    2.0120    5.1330    1.5950 C   0  0  0  0  0  0  0  0  0  0  0  0
    1.7680    3.7700    1.7130 C   0  0  0  0  0  0  0  0  0  0  0  0
    0.5080    3.2310    1.6300 C   0  0  0  0  0  0  0  0  0  0  0  0
    0.3090    1.7600    1.7460 C   0  0  0  0  0  0  0  0  0  0  0  0
    0.1370    1.1600    0.4330 N   0  0  0  0  0  0  0  0  0  0  0  0
    1.1520    1.2080   -0.5850 C   0  0  0  0  0  0  0  0  0  0  0  0
    2.3440    0.4030   -0.2460 C   0  0  0  0  0  0  0  0  0  0  0  0
    2.4100   -0.2120    0.8440 O   0  0  0  0  0  0  0  0  0  0  0  0
    3.4350    0.3030   -1.1410 N   0  0  0  0  0  0  0  0  0  0  0  0
    4.6240   -0.5150   -0.7980 C   0  0  0  0  0  0  0  0  0  0  0  0
    5.7230    0.1450   -0.5780 C   0  0  0  0  0  0  0  0  0  0  0  0
    7.0580   -0.1420   -0.2340 C   0  0  0  0  0  0  0  0  0  0  0  0
    7.6700   -1.4720    0.0040 C   0  0  0  0  0  0  0  0  0  0  0  0
    7.9440    0.8810   -0.0970 C   0  0  0  0  0  0  0  0  0  0  0  0
    7.7150    2.3020   -0.2580 C   0  0  0  0  0  0  0  0  0  0  0  0
    8.5350    2.8340   -1.2890 O   0  0  0  0  0  0  0  0  0  0  0  0
    4.3990   -1.9190   -0.8440 C   0  0  0  0  0  0  0  0  0  0  0  0
    5.3000   -2.7260   -0.5060 O   0  0  0  0  0  0  0  0  0  0  0  0
    3.1820   -2.5600   -1.2650 N   0  0  0  0  0  0  0  0  0  0  0  0
    1.9600   -2.0740   -1.7810 C   0  0  0  0  0  0  0  0  0  0  0  0
    1.4870   -3.1800   -2.7310 C   0  0  0  0  0  0  0  0  0  0  0  0
    1.9850   -4.4300   -2.1020 C   0  0  0  0  0  0  0  0  0  0  0  0
    3.0670   -4.0390   -1.1680 C   0  0  0  0  0  0  0  0  0  0  0  0
   -1.0680    0.5120    0.1210 C   0  0  0  0  0  0  0  0  0  0  0  0
   -1.2370   -0.8330    0.3080 C   0  0  0  0  0  0  0  0  0  0  0  0
   -2.4320   -1.4690   -0.0090 C   0  0  0  0  0  0  0  0  0  0  0  0
   -3.4810   -0.7480   -0.5230 C   0  0  0  0  0  0  0  0  0  0  0  0
   -4.7050   -1.3310   -0.8790 N   0  0  0  0  0  0  0  0  0  0  0  0
   -5.4970   -2.0380   -0.1010 C   0  0  0  0  0  0  0  0  0  0  0  0
   -5.1160   -2.2720    1.2810 C   0  0  0  0  0  0  0  0  0  0  0  0
   -4.8060   -3.6290    1.7660 C   0  0  0  0  0  0  0  0  0  0  0  0
   -5.8990   -4.5440    1.7820 N   0  0  0  0  0  0  0  0  0  0  0  0
   -6.7180   -2.5160   -0.7640 C   0  0  1  0  0  0  0  0  0  0  0  0
   -7.9740   -2.1240    0.0200 C   0  0  0  0  0  0  0  0  0  0  0  0
   -6.7940   -1.7270   -2.1020 C   0  0  0  0  0  0  0  0  0  0  0  0
   -6.7780   -3.9490   -1.1240 C   0  0  0  0  0  0  0  0  0  0  0  0
   -3.3240    0.6430   -0.7210 C   0  0  0  0  0  0  0  0  0  0  0  0
   -2.1210    1.2280   -0.3920 C   0  0  0  0  0  0  0  0  0  0  0  0
   -0.5490    4.0900    1.4210 C   0  0  0  0  0  0  0  0  0  0  0  0
   -0.3550    5.4610    1.2970 C   0  0  0  0  0  0  0  0  0  0  0  0
   -1.4100    6.3360    1.0870 O   0  0  0  0  0  0  0  0  0  0  0  0
   -2.7410    5.8470    0.9870 C   0  0  0  0  0  0  0  0  0  0  0  0
    0.9150    5.9770    1.3840 C   0  0  0  0  0  0  0  0  0  0  0  0
    1.1460    7.3530    1.2630 O   0  0  0  0  0  0  0  0  0  0  0  0
  1  2  1  0
  2  3  1  0
  3  4  2  0
  3 45  1  0
  4  5  1  0
  5  6  1  0
  5 41  2  0
  6  7  1  0
  7  8  1  0
  7 26  1  0
  8  9  1  0
  9 10  2  0
  9 11  1  0
 11 12  1  0
 12 13  2  3
 12 19  1  0
 13 14  1  0
 14 15  1  0
 14 16  2  3
 16 17  1  0
 17 18  1  0
 19 20  2  0
 19 21  1  0
 21 22  1  0
 21 25  1  0
 22 23  1  0
 23 24  1  0
 24 25  1  0
 26 27  2  0
 26 40  1  0
 27 28  1  0
 28 29  2  0
 29 30  1  0
 29 39  1  0
 30 31  2  3
 31 32  1  0
 31 35  1  0
 32 33  1  0
 33 34  1  0
 35 36  1  1
 35 37  1  0
 35 38  1  0
 39 40  2  0
 41 42  1  0
 42 43  1  0
 42 45  2  0
 43 44  1  0
 45 46  1  0
M  CHG  1  34   1
M  END
