
     RDKit          3D

 46 48  0  0  0  0  0  0  0  0999 V2000
    9.9750    4.9060    2.3690 C   0  0  0  0  0  0  0  0  0  0  0  0
   10.0890    3.4830    1.9730 C   0  0  0  0  0  0  0  0  0  0  0  0
   10.9940    2.6240    2.5880 C   0  0  0  0  0  0  0  0  0  0  0  0
   11.0660    1.2880    2.1860 C   0  0  0  0  0  0  0  0  0  0  0  0
   10.2310    0.8730    1.1890 C   0  0  0  0  0  0  0  0  0  0  0  0
    9.3220    1.7060    0.5620 C   0  0  0  0  0  0  0  0  0  0  0  0
    8.4810    1.1430   -0.4880 C   0  0  0  0  0  0  0  0  0  0  0  0
    8.5690   -0.0830   -0.8130 O   0  0  0  0  0  0  0  0  0  0  0  0
    7.5430    1.9140   -1.1860 O   0  0  0  0  0  0  0  0  0  0  0  0
    6.7680    1.2730   -2.1880 C   0  0  0  0  0  0  0  0  0  0  0  0
    5.9670    0.2080   -1.5470 C   0  0  0  0  0  0  0  0  0  0  0  0
    6.0160    0.0610   -0.3050 O   0  0  0  0  0  0  0  0  0  0  0  0
    5.1350   -0.6670   -2.2740 N   0  0  0  0  0  0  0  0  0  0  0  0
    4.3750   -1.6780   -1.6130 C   0  0  0  0  0  0  0  0  0  0  0  0
    3.3700   -1.1920   -0.6250 C   0  0  0  0  0  0  0  0  0  0  0  0
    2.1130   -0.1260   -1.3830 S   0  0  0  0  0  0  0  0  0  0  0  0
    1.0780   -1.0230   -2.4980 C   0  0  0  0  0  0  0  0  0  0  0  0
    1.4060   -1.1340   -3.8300 C   0  0  0  0  0  0  0  0  0  0  0  0
    0.5440   -1.8760   -4.6530 C   0  0  0  0  0  0  0  0  0  0  0  0
   -0.5910   -2.4760   -4.1660 C   0  0  0  0  0  0  0  0  0  0  0  0
   -0.9090   -2.3500   -2.8060 C   0  0  0  0  0  0  0  0  0  0  0  0
   -0.0690   -1.6270   -2.0040 C   0  0  0  0  0  0  0  0  0  0  0  0
   -0.3320   -1.4750   -0.6700 O   0  0  0  0  0  0  0  0  0  0  0  0
   -1.4830   -2.0320   -0.0600 C   0  0  0  0  0  0  0  0  0  0  0  0
   -2.7280   -1.4670   -0.5950 C   0  0  0  0  0  0  0  0  0  0  0  0
   -2.6580   -0.5250   -1.4380 O   0  0  0  0  0  0  0  0  0  0  0  0
   -4.0130   -1.9990   -0.1600 N   0  0  0  0  0  0  0  0  0  0  0  0
   -5.1210   -1.4340   -0.8600 C   0  0  0  0  0  0  0  0  0  0  0  0
   -5.6780   -0.1390   -0.5340 C   0  0  0  0  0  0  0  0  0  0  0  0
   -5.6780    0.8490   -1.4530 C   0  0  0  0  0  0  0  0  0  0  0  0
   -6.2160    2.1580   -1.2250 C   0  0  0  0  0  0  0  0  0  0  0  0
   -7.5470    2.3580   -0.8470 C   0  0  0  0  0  0  0  0  0  0  0  0
   -8.0380    3.6190   -0.6270 C   0  0  0  0  0  0  0  0  0  0  0  0
   -7.2650    4.7570   -0.7600 C   0  0  0  0  0  0  0  0  0  0  0  0
   -5.9450    4.5470   -1.1360 C   0  0  0  0  0  0  0  0  0  0  0  0
   -5.4250    3.3000   -1.3640 C   0  0  0  0  0  0  0  0  0  0  0  0
   -4.0640    3.1640   -1.7490 N   0  0  0  0  0  0  0  0  0  0  0  0
   -6.2080    0.2030    0.7920 C   0  0  0  0  0  0  0  0  0  0  0  0
   -7.3050   -0.5440    1.1780 O   0  0  0  0  0  0  0  0  0  0  0  0
   -4.0310   -3.0450    0.7670 C   0  0  0  0  0  0  0  0  0  0  0  0
   -4.1970   -3.0300    2.2040 C   0  0  2  0  0  0  0  0  0  0  0  0
   -5.5010   -2.5380    2.6940 N   0  0  0  0  0  0  0  0  0  0  0  0
   -3.1330   -2.4440    3.0900 C   0  0  2  0  0  0  0  0  0  0  0  0
   -3.6720   -2.6740    4.5250 C   0  0  0  0  0  0  0  0  0  0  0  0
   -3.0030   -0.9430    3.0130 C   0  0  0  0  0  0  0  0  0  0  0  0
    9.2720    3.0090    0.9750 C   0  0  0  0  0  0  0  0  0  0  0  0
  1  2  1  0
  2  3  2  0
  2 46  1  0
  3  4  1  0
  4  5  2  0
  5  6  1  0
  6  7  1  0
  6 46  2  0
  7  8  2  0
  7  9  1  0
  9 10  1  0
 10 11  1  0
 11 12  2  0
 11 13  1  0
 13 14  1  0
 14 15  1  0
 15 16  1  0
 16 17  1  0
 17 18  2  0
 17 22  1  0
 18 19  1  0
 19 20  2  0
 20 21  1  0
 21 22  2  0
 22 23  1  0
 23 24  1  0
 24 25  1  0
 25 26  2  0
 25 27  1  0
 27 28  1  0
 27 40  1  0
 28 29  1  0
 29 30  2  3
 29 38  1  0
 30 31  1  0
 31 32  2  0
 31 36  1  0
 32 33  1  0
 33 34  2  0
 34 35  1  0
 35 36  2  0
 36 37  1  0
 38 39  1  0
 40 41  1  0
 41 42  1  6
 41 43  1  0
 43 44  1  1
 43 45  1  0
M  CHG  1  42   1
M  END
