
     RDKit          3D

 46 50  0  0  0  0  0  0  0  0999 V2000
   -9.3040   -0.1090    3.2730 C   0  0  0  0  0  0  0  0  0  0  0  0
   -7.9160   -0.0510    3.0300 O   0  0  0  0  0  0  0  0  0  0  0  0
   -7.4040   -0.3520    1.7770 C   0  0  0  0  0  0  0  0  0  0  0  0
   -8.1860   -0.7200    0.7060 C   0  0  0  0  0  0  0  0  0  0  0  0
   -7.6700   -1.0170   -0.5300 C   0  0  0  0  0  0  0  0  0  0  0  0
   -8.4080   -1.3980   -1.6710 N   0  0  0  0  0  0  0  0  0  0  0  0
   -9.4140   -0.7010   -2.3170 C   0  0  0  0  0  0  0  0  0  0  0  0
  -10.1210   -1.4660   -3.6250 S   0  0  0  0  0  0  0  0  0  0  0  0
   -9.9090    0.5560   -2.0130 N   0  0  0  0  0  0  0  0  0  0  0  0
  -11.0160    1.0830   -2.8500 C   0  0  0  0  0  0  0  0  0  0  0  0
  -11.8890    1.8940   -1.9370 C   0  0  0  0  0  0  0  0  0  0  0  0
  -11.2620    2.9740   -1.3490 O   0  0  0  0  0  0  0  0  0  0  0  0
   -9.9010    2.8870   -1.5010 C   0  0  0  0  0  0  0  0  0  0  0  0
   -9.4770    1.4820   -0.9930 C   0  0  0  0  0  0  0  0  0  0  0  0
   -6.2910   -0.9340   -0.6790 C   0  0  0  0  0  0  0  0  0  0  0  0
   -5.4540   -0.5660    0.3750 C   0  0  0  0  0  0  0  0  0  0  0  0
   -6.0160   -0.2770    1.6000 C   0  0  0  0  0  0  0  0  0  0  0  0
   -5.2000    0.0850    2.6430 O   0  0  0  0  0  0  0  0  0  0  0  0
   -3.8000    0.1700    2.5370 C   0  0  0  0  0  0  0  0  0  0  0  0
   -3.3140   -1.0890    2.1930 O   0  0  0  0  0  0  0  0  0  0  0  0
   -1.9780   -1.4210    1.9950 C   0  0  0  0  0  0  0  0  0  0  0  0
   -1.6200   -2.7080    1.6550 C   0  0  0  0  0  0  0  0  0  0  0  0
   -0.2990   -3.0440    1.4570 C   0  0  0  0  0  0  0  0  0  0  0  0
    0.7430   -2.1300    1.5820 C   0  0  0  0  0  0  0  0  0  0  0  0
    2.1080   -2.5760    1.3540 C   0  0  0  0  0  0  0  0  0  0  0  0
    2.3100   -3.7600    1.0010 O   0  0  0  0  0  0  0  0  0  0  0  0
    3.2310   -1.7210    1.5150 N   0  0  0  0  0  0  0  0  0  0  0  0
    4.5940   -2.1670    1.2870 C   0  0  2  0  0  0  0  0  0  0  0  0
    5.2730   -2.1420    2.6640 C   0  0  0  0  0  0  0  0  0  0  0  0
    5.3180   -1.3480    0.3140 C   0  0  0  0  0  0  0  0  0  0  0  0
    6.0870   -1.9040   -0.6900 C   0  0  0  0  0  0  0  0  0  0  0  0
    6.7730   -1.1680   -1.6080 C   0  0  0  0  0  0  0  0  0  0  0  0
    6.6820    0.2060   -1.5120 C   0  0  0  0  0  0  0  0  0  0  0  0
    7.4500    0.9950   -2.5320 C   0  0  0  0  0  0  0  0  0  0  0  0
    8.7960    1.2140   -1.9260 C   0  0  0  0  0  0  0  0  0  0  0  0
    9.0110    2.3310   -1.1770 C   0  0  0  0  0  0  0  0  0  0  0  0
   10.2680    2.5100   -0.6230 C   0  0  0  0  0  0  0  0  0  0  0  0
   11.2740    1.5810   -0.8260 C   0  0  0  0  0  0  0  0  0  0  0  0
   12.6150    1.7670   -0.2370 C   0  0  0  0  0  0  0  0  0  0  0  0
   13.4480    2.4760   -1.1780 N   0  0  0  0  0  0  0  0  0  0  0  0
   11.0220    0.4560   -1.5940 C   0  0  0  0  0  0  0  0  0  0  0  0
    9.7840    0.2710   -2.1440 C   0  0  0  0  0  0  0  0  0  0  0  0
    5.9290    0.8080   -0.5310 C   0  0  0  0  0  0  0  0  0  0  0  0
    5.2390    0.0260    0.3930 C   0  0  0  0  0  0  0  0  0  0  0  0
    0.3820   -0.8470    1.9200 C   0  0  0  0  0  0  0  0  0  0  0  0
   -0.9600   -0.5010    2.1230 C   0  0  0  0  0  0  0  0  0  0  0  0
  1  2  1  0
  2  3  1  0
  3  4  2  0
  3 17  1  0
  4  5  1  0
  5  6  1  0
  5 15  2  0
  6  7  1  0
  7  8  2  0
  7  9  1  0
  9 10  1  0
  9 14  1  0
 10 11  1  0
 11 12  1  0
 12 13  1  0
 13 14  1  0
 15 16  1  0
 16 17  2  0
 17 18  1  0
 18 19  1  0
 19 20  1  0
 20 21  1  0
 21 22  2  0
 21 46  1  0
 22 23  1  0
 23 24  2  0
 24 25  1  0
 24 45  1  0
 25 26  2  0
 25 27  1  0
 27 28  1  0
 28 29  1  1
 28 30  1  0
 30 31  2  0
 30 44  1  0
 31 32  1  0
 32 33  2  0
 33 34  1  0
 33 43  1  0
 34 35  1  0
 35 36  2  0
 35 42  1  0
 36 37  1  0
 37 38  2  0
 38 39  1  0
 38 41  1  0
 39 40  1  0
 41 42  2  0
 43 44  2  0
 45 46  2  0
M  CHG  1  40   1
M  END
