
     RDKit          3D

 46 49  0  0  0  0  0  0  0  0999 V2000
   -4.1490   -5.2570    0.7780 C   0  0  0  0  0  0  0  0  0  0  0  0
   -4.7270   -4.2480   -0.1520 C   0  0  0  0  0  0  0  0  0  0  0  0
   -4.4130   -2.7940    0.2110 C   0  0  2  0  0  0  0  0  0  0  0  0
   -5.1740   -1.9710   -0.7860 C   0  0  0  0  0  0  0  0  0  0  0  0
   -4.2560   -1.4650   -1.8150 C   0  0  0  0  0  0  0  0  0  0  0  0
   -3.4010   -0.3990   -1.0510 C   0  0  2  0  0  0  0  0  0  0  0  0
   -2.8870    0.5090   -2.0000 N   0  0  0  0  0  0  0  0  0  0  0  0
   -2.5380   -1.1250   -0.1520 C   0  0  2  0  0  0  0  0  0  0  0  0
   -1.1170   -0.9970    0.0440 C   0  0  0  0  0  0  0  0  0  0  0  0
   -0.3790    0.0770    0.5120 N   0  0  0  0  0  0  0  0  0  0  0  0
   -0.6660    0.5810    1.8970 C   0  0  0  0  0  0  0  0  0  0  0  0
   -1.8060    1.5350    1.6020 C   0  0  0  0  0  0  0  0  0  0  0  0
   -1.6820    2.5480    0.6370 C   0  0  0  0  0  0  0  0  0  0  0  0
   -2.8800    3.2240    0.6170 C   0  0  0  0  0  0  0  0  0  0  0  0
   -3.6830    2.6000    1.5640 C   0  0  0  0  0  0  0  0  0  0  0  0
   -5.0580    3.0320    1.8420 C   0  0  0  0  0  0  0  0  0  0  0  0
   -6.0020    2.5460    0.9540 O   0  0  0  0  0  0  0  0  0  0  0  0
   -5.6770    2.9160   -0.3520 C   0  0  0  0  0  0  0  0  0  0  0  0
   -3.0010    1.6240    2.1080 O   0  0  0  0  0  0  0  0  0  0  0  0
    0.4920    0.9400   -0.2270 C   0  0  0  0  0  0  0  0  0  0  0  0
    0.4970    1.1180   -1.4030 O   0  0  0  0  0  0  0  0  0  0  0  0
    1.5020    1.6490    0.6960 C   0  0  0  0  0  0  0  0  0  0  0  0
    2.3500    2.6290    0.1690 N   0  0  0  0  0  0  0  0  0  0  0  0
    3.1370    3.0770    1.5290 C   0  0  0  0  0  0  0  0  0  0  0  0
    3.4230    1.8320    2.1610 C   0  0  0  0  0  0  0  0  0  0  0  0
    4.2050    1.6180    3.3740 C   0  0  0  0  0  0  0  0  0  0  0  0
    5.4250    2.0910    3.6870 C   0  0  0  0  0  0  0  0  0  0  0  0
    6.2240    1.5310    4.7080 C   0  0  0  0  0  0  0  0  0  0  0  0
    5.7430    0.4990    5.3790 C   0  0  0  0  0  0  0  0  0  0  0  0
    6.5240   -0.2500    6.3710 C   0  0  0  0  0  0  0  0  0  0  0  0
    7.1100   -0.8230    7.1420 N   0  0  0  0  0  0  0  0  0  0  0  0
    4.4630   -0.0230    5.0920 C   0  0  0  0  0  0  0  0  0  0  0  0
    3.6980    0.4890    4.1340 C   0  0  0  0  0  0  0  0  0  0  0  0
    3.7430    2.2320   -0.7300 S   0  0  1  0  0  0  0  0  0  0  0  0
    4.2800    3.6140   -1.2730 O   0  0  0  0  0  0  0  0  0  0  0  0
    4.8460    1.6360    0.0580 O   0  0  0  0  0  0  0  0  0  0  0  0
    3.3780    1.2990   -2.1300 C   0  0  0  0  0  0  0  0  0  0  0  0
    4.1700    0.2980   -2.5130 C   0  0  0  0  0  0  0  0  0  0  0  0
    3.8780   -0.4970   -3.6630 C   0  0  0  0  0  0  0  0  0  0  0  0
    2.7040   -0.3140   -4.4090 C   0  0  0  0  0  0  0  0  0  0  0  0
    2.4480   -1.2280   -5.3570 C   0  0  0  0  0  0  0  0  0  0  0  0
    3.2000   -2.3030   -5.6770 C   0  0  0  0  0  0  0  0  0  0  0  0
    4.3650   -2.4720   -4.9410 C   0  0  0  0  0  0  0  0  0  0  0  0
    5.2020   -3.6100   -5.0700 N   0  0  0  0  0  0  0  0  0  0  0  0
    4.7350   -1.5800   -3.9220 C   0  0  0  0  0  0  0  0  0  0  0  0
   -2.9310   -2.5840    0.1620 C   0  0  0  0  0  0  0  0  0  0  0  0
  1  2  1  0
  3  2  1  6
  3  4  1  0
  3 46  1  0
  4  5  1  0
  5  6  1  0
  6  7  1  6
  6  8  1  0
  8  9  1  6
  8 46  1  0
  9 10  1  0
 10 11  1  0
 10 20  1  0
 11 12  1  0
 12 13  2  0
 12 19  1  0
 13 14  1  0
 14 15  2  0
 15 16  1  0
 15 19  1  0
 16 17  1  0
 17 18  1  0
 20 21  2  0
 20 22  1  0
 22 23  1  0
 23 24  1  0
 34 23  1  1
 24 25  1  0
 25 26  1  0
 26 27  2  0
 26 33  1  0
 27 28  1  0
 28 29  2  0
 29 30  1  0
 29 32  1  0
 30 31  3  0
 32 33  2  0
 34 35  2  0
 34 36  2  0
 34 37  1  0
 37 38  2  3
 38 39  1  0
 39 40  2  0
 39 45  1  0
 40 41  1  0
 41 42  2  0
 42 43  1  0
 43 44  1  0
 43 45  2  0
M  CHG  1   7   1
M  END
