
     RDKit          3D

 46 49  0  0  0  0  0  0  0  0999 V2000
  -10.5260   -0.4880   -0.0630 C   0  0  0  0  0  0  0  0  0  0  0  0
   -9.6700    0.5190    0.0080 C   0  0  0  0  0  0  0  0  0  0  0  0
   -9.4030    1.2090    1.2490 C   0  0  0  0  0  0  0  0  0  0  0  0
   -8.1300    1.0510    1.9540 C   0  0  2  0  0  0  0  0  0  0  0  0
   -8.1590    1.9100    3.2630 C   0  0  0  0  0  0  0  0  0  0  0  0
   -9.2240    1.4890    4.1030 N   0  0  0  0  0  0  0  0  0  0  0  0
   -9.3320    2.3650    5.5880 S   0  0  0  0  0  0  0  0  0  0  0  0
   -9.7880    1.4920    6.7510 O   0  0  0  0  0  0  0  0  0  0  0  0
   -6.8820    1.4070    1.3000 C   0  0  0  0  0  0  0  0  0  0  0  0
   -6.3310    0.8000    0.1580 N   0  0  2  0  0  0  0  0  0  0  0  0
   -6.4610    1.6470   -1.0090 C   0  0  0  0  0  0  0  0  0  0  0  0
   -5.1670    1.8960   -1.6980 C   0  0  0  0  0  0  0  0  0  0  0  0
   -4.1880    0.8200   -1.4150 C   0  0  0  0  0  0  0  0  0  0  0  0
   -2.8930    1.3110   -1.6580 C   0  0  0  0  0  0  0  0  0  0  0  0
   -1.8120    0.4800   -1.4690 C   0  0  0  0  0  0  0  0  0  0  0  0
   -1.9580   -0.8160   -1.0500 C   0  0  0  0  0  0  0  0  0  0  0  0
   -0.8120   -1.7210   -0.8410 C   0  0  0  0  0  0  0  0  0  0  0  0
   -1.0920   -2.8920   -0.4650 O   0  0  0  0  0  0  0  0  0  0  0  0
    0.5290   -1.3800   -1.0240 N   0  0  0  0  0  0  0  0  0  0  0  0
    1.6680   -2.1980   -0.8420 C   0  0  0  0  0  0  0  0  0  0  0  0
    1.5680   -3.5540   -0.8190 C   0  0  0  0  0  0  0  0  0  0  0  0
    2.7070   -4.3520   -0.5800 C   0  0  0  0  0  0  0  0  0  0  0  0
    3.9410   -3.7470   -0.3680 C   0  0  0  0  0  0  0  0  0  0  0  0
    4.0730   -2.3860   -0.3910 C   0  0  0  0  0  0  0  0  0  0  0  0
    5.3210   -1.6540   -0.2730 C   0  0  0  0  0  0  0  0  0  0  0  0
    5.2040   -0.4190    0.1260 O   0  0  0  0  0  0  0  0  0  0  0  0
    6.6220   -2.0830   -0.5220 N   0  0  0  0  0  0  0  0  0  0  0  0
    7.7140   -1.1850   -0.0410 C   0  0  0  0  0  0  0  0  0  0  0  0
    8.1410   -0.2640   -1.1400 C   0  0  0  0  0  0  0  0  0  0  0  0
    9.2020    0.6670   -0.7450 C   0  0  0  0  0  0  0  0  0  0  0  0
   10.5260    0.2850   -0.8450 C   0  0  0  0  0  0  0  0  0  0  0  0
   11.5420    1.1360   -0.5130 C   0  0  0  0  0  0  0  0  0  0  0  0
   11.2440    2.3950   -0.0720 C   0  0  0  0  0  0  0  0  0  0  0  0
   12.2360    3.2850    0.2710 O   0  0  0  0  0  0  0  0  0  0  0  0
   11.9230    4.6010    0.7150 C   0  0  0  0  0  0  0  0  0  0  0  0
    9.9210    2.8060    0.0400 C   0  0  0  0  0  0  0  0  0  0  0  0
    8.9250    1.9370   -0.2970 C   0  0  0  0  0  0  0  0  0  0  0  0
    7.0680   -3.1740   -1.2780 C   0  0  0  0  0  0  0  0  0  0  0  0
    8.5050   -3.5240   -1.5280 C   0  0  0  0  0  0  0  0  0  0  0  0
    6.2590   -3.9710   -1.8250 O   0  0  0  0  0  0  0  0  0  0  0  0
    2.9100   -1.6400   -0.6300 C   0  0  0  0  0  0  0  0  0  0  0  0
   -3.2300   -1.2560   -0.8250 C   0  0  0  0  0  0  0  0  0  0  0  0
   -4.3880   -0.4490   -1.0000 C   0  0  0  0  0  0  0  0  0  0  0  0
   -5.5260   -1.3210   -0.6400 C   0  0  2  0  0  0  0  0  0  0  0  0
   -5.8480   -2.2280   -1.6540 O   0  0  0  0  0  0  0  0  0  0  0  0
   -6.7370   -0.5170   -0.2190 C   0  0  0  0  0  0  0  0  0  0  0  0
  1  2  2  0
  2  3  1  0
  4  3  1  6
  4  5  1  0
  4  9  1  0
  5  6  1  0
  6  7  1  0
  7  8  2  0
 10  9  1  1
 10 11  1  0
 10 46  1  0
 11 12  1  0
 12 13  1  0
 13 14  2  0
 13 43  1  0
 14 15  1  0
 15 16  2  0
 16 17  1  0
 16 42  1  0
 17 18  2  0
 17 19  1  0
 19 20  1  0
 20 21  2  0
 20 41  1  0
 21 22  1  0
 22 23  2  0
 23 24  1  0
 24 25  1  0
 24 41  2  0
 25 26  2  0
 25 27  1  0
 27 28  1  0
 27 38  1  0
 28 29  1  0
 29 30  1  0
 30 31  2  0
 30 37  1  0
 31 32  1  0
 32 33  2  0
 33 34  1  0
 33 36  1  0
 34 35  1  0
 36 37  2  0
 38 39  1  0
 38 40  2  0
 42 43  2  0
 43 44  1  0
 44 45  1  6
 44 46  1  0
M  CHG  1  10   1
M  END
