
     RDKit          3D

 46 48  0  0  0  0  0  0  0  0999 V2000
   -6.8210   -0.3130    2.5590 C   0  0  0  0  0  0  0  0  0  0  0  0
   -5.6630    0.5540    2.3980 N   0  0  0  0  0  0  0  0  0  0  0  0
   -5.9190    1.6650    1.5480 C   0  0  0  0  0  0  0  0  0  0  0  0
   -5.4310    1.6060    0.1730 C   0  0  0  0  0  0  0  0  0  0  0  0
   -4.7070    0.5760   -0.3890 C   0  0  0  0  0  0  0  0  0  0  0  0
   -4.2460    0.5840   -1.6980 C   0  0  0  0  0  0  0  0  0  0  0  0
   -3.4870   -0.4670   -2.2810 N   0  0  0  0  0  0  0  0  0  0  0  0
   -3.9530   -1.3050   -3.3510 C   0  0  0  0  0  0  0  0  0  0  0  0
   -4.6480   -2.5590   -2.9430 C   0  0  2  0  0  0  0  0  0  0  0  0
   -5.0020   -3.2060   -4.1590 O   0  0  0  0  0  0  0  0  0  0  0  0
   -5.8860   -2.4010   -2.2010 C   0  0  0  0  0  0  0  0  0  0  0  0
   -7.0240   -1.9310   -2.8030 C   0  0  0  0  0  0  0  0  0  0  0  0
   -8.2150   -1.7800   -2.1210 C   0  0  0  0  0  0  0  0  0  0  0  0
   -8.2770   -2.1090   -0.7850 C   0  0  0  0  0  0  0  0  0  0  0  0
   -7.1540   -2.5820   -0.1550 C   0  0  0  0  0  0  0  0  0  0  0  0
   -5.9550   -2.7270   -0.8690 C   0  0  0  0  0  0  0  0  0  0  0  0
   -2.1810   -0.6930   -1.7870 C   0  0  0  0  0  0  0  0  0  0  0  0
   -1.4960   -1.6090   -2.3220 O   0  0  0  0  0  0  0  0  0  0  0  0
   -1.5710    0.0800   -0.6840 C   0  0  0  0  0  0  0  0  0  0  0  0
   -0.9900    1.3600   -1.2660 C   0  0  2  0  0  0  0  0  0  0  0  0
    0.0700    1.0210   -2.3120 C   0  0  0  0  0  0  0  0  0  0  0  0
   -0.2860    2.3980    0.0470 S   0  0  0  0  0  0  0  0  0  0  0  0
    1.1540    1.5810    0.6840 C   0  0  0  0  0  0  0  0  0  0  0  0
    2.4240    1.8320    0.2260 C   0  0  0  0  0  0  0  0  0  0  0  0
    3.5330    1.1610    0.7440 C   0  0  0  0  0  0  0  0  0  0  0  0
    3.3900    0.2310    1.7260 C   0  0  0  0  0  0  0  0  0  0  0  0
    4.4830   -0.4660    2.3130 N   0  0  0  0  0  0  0  0  0  0  0  0
    5.7980    0.0350    2.3140 C   0  0  0  0  0  0  0  0  0  0  0  0
    6.1470    1.1280    1.8240 O   0  0  0  0  0  0  0  0  0  0  0  0
    6.8430   -0.8440    2.9670 C   0  0  2  0  0  0  0  0  0  0  0  0
    6.3520   -1.1870    4.3290 C   0  0  0  0  0  0  0  0  0  0  0  0
    8.0850   -0.1420    2.9120 N   0  0  0  0  0  0  0  0  0  0  0  0
    9.1860   -0.5090    2.1080 C   0  0  0  0  0  0  0  0  0  0  0  0
    9.0440   -1.5450    1.3840 O   0  0  0  0  0  0  0  0  0  0  0  0
   10.4680    0.2640    2.0830 C   0  0  0  0  0  0  0  0  0  0  0  0
   11.3880   -0.2820    1.0040 C   0  0  0  0  0  0  0  0  0  0  0  0
   10.7100   -0.1500   -0.3040 C   0  0  0  0  0  0  0  0  0  0  0  0
    9.5740    0.3350   -0.3680 O   0  0  0  0  0  0  0  0  0  0  0  0
   11.3580   -0.5730   -1.4410 O   0  0  0  0  0  0  0  0  0  0  0  0
   10.7390   -0.4640   -2.7290 C   0  0  0  0  0  0  0  0  0  0  0  0
    2.1000   -0.0300    2.1970 C   0  0  0  0  0  0  0  0  0  0  0  0
    1.0300    0.6400    1.6750 C   0  0  0  0  0  0  0  0  0  0  0  0
   -4.5610    1.7230   -2.4500 C   0  0  0  0  0  0  0  0  0  0  0  0
   -5.2800    2.7610   -1.9180 C   0  0  0  0  0  0  0  0  0  0  0  0
   -5.7270    2.7330   -0.6170 C   0  0  0  0  0  0  0  0  0  0  0  0
   -6.5170    3.8820   -0.0720 C   0  0  0  0  0  0  0  0  0  0  0  0
  1  2  1  0
  2  3  1  0
  3  4  1  0
  4  5  2  0
  4 45  1  0
  5  6  1  0
  6  7  1  0
  6 43  2  0
  7  8  1  0
  7 17  1  0
  8  9  1  0
  9 10  1  6
  9 11  1  0
 11 12  2  0
 11 16  1  0
 12 13  1  0
 13 14  2  0
 14 15  1  0
 15 16  2  0
 17 18  2  0
 17 19  1  0
 19 20  1  0
 20 21  1  6
 20 22  1  0
 22 23  1  0
 23 24  2  0
 23 42  1  0
 24 25  1  0
 25 26  2  0
 26 27  1  0
 26 41  1  0
 27 28  1  0
 28 29  2  0
 28 30  1  0
 30 31  1  1
 30 32  1  0
 32 33  1  0
 33 34  2  0
 33 35  1  0
 35 36  1  0
 36 37  1  0
 37 38  2  0
 37 39  1  0
 39 40  1  0
 41 42  2  0
 43 44  1  0
 44 45  2  0
 45 46  1  0
M  CHG  1   2   1
M  END
