
     RDKit          3D

 46 49  0  0  0  0  0  0  0  0999 V2000
   11.5410    1.6430   -1.5770 C   0  0  0  0  0  0  0  0  0  0  0  0
   11.4810    0.5870   -0.4690 C   0  0  0  0  0  0  0  0  0  0  0  0
   10.8620    1.1620    0.7720 C   0  0  0  0  0  0  0  0  0  0  0  0
    9.5880    1.6000    0.5650 O   0  0  0  0  0  0  0  0  0  0  0  0
    8.4450    0.9680    0.2410 C   0  0  0  0  0  0  0  0  0  0  0  0
    8.3280   -0.3870    0.0830 C   0  0  0  0  0  0  0  0  0  0  0  0
    7.1350   -0.9880   -0.2530 C   0  0  0  0  0  0  0  0  0  0  0  0
    5.9640   -0.2320   -0.4510 C   0  0  0  0  0  0  0  0  0  0  0  0
    4.7660   -0.9280   -0.8160 C   0  0  0  0  0  0  0  0  0  0  0  0
    3.5870   -0.7050   -0.2810 C   0  0  0  0  0  0  0  0  0  0  0  0
    3.4270    0.3120    0.7700 C   0  0  0  0  0  0  0  0  0  0  0  0
    2.1440   -1.6330   -0.8570 S   0  0  0  0  0  0  0  0  0  0  0  0
    0.6530   -0.7830   -0.1790 C   0  0  1  0  0  0  0  0  0  0  0  0
    0.6100    0.5360   -0.9040 C   0  0  0  0  0  0  0  0  0  0  0  0
   -0.5340   -1.6200   -0.3250 C   0  0  0  0  0  0  0  0  0  0  0  0
   -0.3240   -2.7250   -0.9680 O   0  0  0  0  0  0  0  0  0  0  0  0
   -1.8480   -1.4100    0.1250 N   0  0  0  0  0  0  0  0  0  0  0  0
   -2.7680   -2.5190   -0.1740 C   0  0  0  0  0  0  0  0  0  0  0  0
   -3.4300   -2.6250   -1.3650 C   0  0  0  0  0  0  0  0  0  0  0  0
   -3.1930   -1.7590   -2.5020 C   0  0  0  0  0  0  0  0  0  0  0  0
   -2.2300   -0.9840   -2.5480 O   0  0  0  0  0  0  0  0  0  0  0  0
   -4.0810   -1.7760   -3.6160 N   0  0  0  0  0  0  0  0  0  0  0  0
   -3.9100   -0.9440   -4.7810 C   0  0  0  0  0  0  0  0  0  0  0  0
   -4.3360   -3.6490   -1.5400 N   0  0  0  0  0  0  0  0  0  0  0  0
   -4.5920   -4.5500   -0.5850 C   0  0  0  0  0  0  0  0  0  0  0  0
   -5.5190   -5.5790   -0.7810 C   0  0  0  0  0  0  0  0  0  0  0  0
   -5.7960   -6.5120    0.1920 C   0  0  0  0  0  0  0  0  0  0  0  0
   -5.1340   -6.4310    1.4140 C   0  0  0  0  0  0  0  0  0  0  0  0
   -4.2230   -5.4140    1.5970 C   0  0  0  0  0  0  0  0  0  0  0  0
   -3.9440   -4.4810    0.6250 C   0  0  0  0  0  0  0  0  0  0  0  0
   -3.0240   -3.4460    0.8130 C   0  0  0  0  0  0  0  0  0  0  0  0
   -2.4070   -3.4320    2.0280 O   0  0  0  0  0  0  0  0  0  0  0  0
   -2.3840   -0.2850    0.8390 C   0  0  1  0  0  0  0  0  0  0  0  0
   -1.8620   -0.0670    2.2240 C   0  0  0  0  0  0  0  0  0  0  0  0
   -2.0440    1.3890    2.6140 C   0  0  0  0  0  0  0  0  0  0  0  0
   -3.4380    1.8100    2.2120 C   0  0  0  0  0  0  0  0  0  0  0  0
   -3.7200    1.7690    0.7550 C   0  0  1  0  0  0  0  0  0  0  0  0
   -3.8070    3.0000    0.0660 N   0  0  0  0  0  0  0  0  0  0  0  0
   -5.1110    3.5470   -0.1160 C   0  0  2  0  0  0  0  0  0  0  0  0
   -5.2570    4.8580    0.6310 C   0  0  0  0  0  0  0  0  0  0  0  0
   -6.2400    2.6200    0.2230 C   0  0  0  0  0  0  0  0  0  0  0  0
   -7.5850    3.2920   -0.0020 C   0  0  0  0  0  0  0  0  0  0  0  0
   -2.5070    1.0130    0.1210 C   0  0  0  0  0  0  0  0  0  0  0  0
    6.1060    1.1320   -0.2860 C   0  0  0  0  0  0  0  0  0  0  0  0
    7.2860    1.7490    0.0490 C   0  0  0  0  0  0  0  0  0  0  0  0
    7.3560    3.1280    0.2010 O   0  0  0  0  0  0  0  0  0  0  0  0
  1  2  1  0
  2  3  1  0
  3  4  1  0
  4  5  1  0
  5  6  2  0
  5 45  1  0
  6  7  1  0
  7  8  2  0
  8  9  1  0
  8 44  1  0
  9 10  2  3
 10 11  1  0
 10 12  1  0
 12 13  1  0
 13 14  1  6
 13 15  1  0
 15 16  2  0
 15 17  1  0
 17 18  1  0
 33 17  1  6
 18 19  2  0
 18 31  1  0
 19 20  1  0
 19 24  1  0
 20 21  2  0
 20 22  1  0
 22 23  1  0
 24 25  2  0
 25 26  1  0
 25 30  1  0
 26 27  2  0
 27 28  1  0
 28 29  2  0
 29 30  1  0
 30 31  2  0
 31 32  1  0
 33 34  1  0
 33 43  1  0
 34 35  1  0
 35 36  1  0
 36 37  1  0
 37 38  1  6
 37 43  1  0
 38 39  1  0
 39 40  1  1
 39 41  1  0
 41 42  1  0
 44 45  2  0
 45 46  1  0
M  CHG  1  38   1
M  END
