
     RDKit          3D

 40 44  0  0  0  0  0  0  0  0999 V2000
   -8.5530    3.3310   -0.2340 C   0  0  0  0  0  0  0  0  0  0  0  0
   -7.4890    2.6490    0.6050 C   0  0  0  0  0  0  0  0  0  0  0  0
   -6.9820    1.4470   -0.1680 C   0  0  0  0  0  0  0  0  0  0  0  0
   -5.9110    0.7100    0.6050 C   0  0  0  0  0  0  0  0  0  0  0  0
   -5.4010   -0.4740   -0.1270 C   0  0  0  0  0  0  0  0  0  0  0  0
   -5.4940   -1.6560    0.3460 N   0  0  0  0  0  0  0  0  0  0  0  0
   -5.0090   -2.8450   -0.3290 C   0  0  0  0  0  0  0  0  0  0  0  0
   -5.8810   -3.7710   -0.5660 N   0  0  0  0  0  0  0  0  0  0  0  0
   -5.4850   -4.9480   -1.2270 C   0  0  0  0  0  0  0  0  0  0  0  0
   -4.2400   -5.1070   -1.6150 C   0  0  0  0  0  0  0  0  0  0  0  0
   -3.2110   -4.1080   -1.4010 C   0  0  0  0  0  0  0  0  0  0  0  0
   -3.6120   -2.9610   -0.5990 N   0  0  0  0  0  0  0  0  0  0  0  0
   -2.7630   -2.0900   -0.1080 N   0  0  0  0  0  0  0  0  0  0  0  0
   -2.3420   -1.2040    0.6240 C   0  0  0  0  0  0  0  0  0  0  0  0
   -0.9470   -0.6780    0.4500 C   0  0  0  0  0  0  0  0  0  0  0  0
   -0.1180   -0.7860    1.5500 C   0  0  0  0  0  0  0  0  0  0  0  0
    1.2210   -0.3840    1.5220 C   0  0  0  0  0  0  0  0  0  0  0  0
    1.6770    0.1260    0.3430 C   0  0  0  0  0  0  0  0  0  0  0  0
    3.0450    0.5550    0.2600 N   0  0  0  0  0  0  0  0  0  0  0  0
    3.3340    1.8100    0.8810 C   0  0  0  0  0  0  0  0  0  0  0  0
    4.6950    2.3140    0.7670 C   0  0  0  0  0  0  0  0  0  0  0  0
    5.4990    2.3870    1.8840 C   0  0  0  0  0  0  0  0  0  0  0  0
    6.7990    2.8750    1.7990 C   0  0  0  0  0  0  0  0  0  0  0  0
    7.3050    3.2960    0.5830 C   0  0  0  0  0  0  0  0  0  0  0  0
    8.7020    3.8200    0.4990 C   0  0  0  0  0  0  0  0  0  0  0  0
    6.4970    3.2170   -0.5140 C   0  0  0  0  0  0  0  0  0  0  0  0
    5.2020    2.7360   -0.4510 C   0  0  0  0  0  0  0  0  0  0  0  0
    3.9740   -0.2930   -0.4260 C   0  0  0  0  0  0  0  0  0  0  0  0
    5.0020   -0.9580    0.4320 C   0  0  1  0  0  0  0  0  0  0  0  0
    4.3440   -1.8680    1.4360 C   0  0  0  0  0  0  0  0  0  0  0  0
    5.3750   -2.9910    1.5190 C   0  0  0  0  0  0  0  0  0  0  0  0
    5.7880   -3.0400    0.0590 C   0  0  0  0  0  0  0  0  0  0  0  0
    5.8000   -1.7350   -0.3960 O   0  0  0  0  0  0  0  0  0  0  0  0
    0.8620    0.2330   -0.7390 C   0  0  0  0  0  0  0  0  0  0  0  0
   -0.4980   -0.1540   -0.7700 C   0  0  0  0  0  0  0  0  0  0  0  0
   -1.2780    0.0450   -1.9420 N   0  0  0  0  0  0  0  0  0  0  0  0
   -2.5030    0.7050   -2.1530 C   0  0  0  0  0  0  0  0  0  0  0  0
   -2.5080    1.5030   -3.2000 O   0  0  0  0  0  0  0  0  0  0  0  0
   -3.7420    0.7200   -1.5010 N   0  0  0  0  0  0  0  0  0  0  0  0
   -4.7850   -0.2750   -1.4570 C   0  0  0  0  0  0  0  0  0  0  0  0
  1  2  1  0
  2  3  1  0
  3  4  1  0
  4  5  1  0
  5  6  2  0
  5 40  1  0
  6  7  1  0
  7  8  2  0
  7 12  1  0
  8  9  1  0
  9 10  2  0
 10 11  1  0
 11 12  1  0
 12 13  1  0
 13 14  2  0
 14 15  1  0
 15 16  2  0
 15 35  1  0
 16 17  1  0
 17 18  2  0
 18 19  1  0
 18 34  1  0
 19 20  1  0
 19 28  1  0
 20 21  1  0
 21 22  2  0
 21 27  1  0
 22 23  1  0
 23 24  2  0
 24 25  1  0
 24 26  1  0
 26 27  2  0
 29 28  1  6
 29 30  1  0
 29 33  1  0
 30 31  1  0
 31 32  1  0
 32 33  1  0
 34 35  2  0
 35 36  1  0
 36 37  1  0
 37 38  2  0
 37 39  1  0
 39 40  1  0
M  END
