
     RDKit          3D

 40 44  0  0  0  0  0  0  0  0999 V2000
    5.9360   -3.4160   -0.3850 C   0  0  0  0  0  0  0  0  0  0  0  0
    4.9630   -2.4540   -0.2360 O   0  0  0  0  0  0  0  0  0  0  0  0
    5.2970   -1.4930    0.7180 C   0  0  0  0  0  0  0  0  0  0  0  0
    4.2340   -0.4900    0.8450 C   0  0  0  0  0  0  0  0  0  0  0  0
    4.4960    0.7450    0.5750 N   0  0  0  0  0  0  0  0  0  0  0  0
    5.7850    1.1530    0.1590 C   0  0  0  0  0  0  0  0  0  0  0  0
    6.2330    0.9560   -1.1500 C   0  0  0  0  0  0  0  0  0  0  0  0
    7.4930    1.3890   -1.4540 C   0  0  0  0  0  0  0  0  0  0  0  0
    8.2780    1.9890   -0.5150 C   0  0  0  0  0  0  0  0  0  0  0  0
    9.6290    2.4340   -0.9120 C   0  0  1  0  0  0  0  0  0  0  0  0
   10.4910    1.2440   -1.2960 C   0  0  0  0  0  0  0  0  0  0  0  0
    9.5570    3.3970   -2.0760 C   0  0  0  0  0  0  0  0  0  0  0  0
    7.8130    2.1670    0.7570 C   0  0  0  0  0  0  0  0  0  0  0  0
    6.5790    1.7470    1.0680 N   0  0  0  0  0  0  0  0  0  0  0  0
    2.9030   -0.8490    1.2600 N   0  0  0  0  0  0  0  0  0  0  0  0
    1.9310    0.0140    1.5050 N   0  0  0  0  0  0  0  0  0  0  0  0
    0.8190   -0.6130    1.8670 C   0  0  0  0  0  0  0  0  0  0  0  0
   -0.5120   -0.0970    2.2330 C   0  0  0  0  0  0  0  0  0  0  0  0
   -1.4970   -0.2750    1.1230 C   0  0  0  0  0  0  0  0  0  0  0  0
   -1.1690   -0.8130    0.0380 O   0  0  0  0  0  0  0  0  0  0  0  0
   -2.8310    0.1710    1.2910 N   0  0  0  0  0  0  0  0  0  0  0  0
   -3.8740    0.0770    0.3490 C   0  0  0  0  0  0  0  0  0  0  0  0
   -3.8510   -0.5050   -0.8780 C   0  0  0  0  0  0  0  0  0  0  0  0
   -4.9630   -0.5230   -1.7280 C   0  0  0  0  0  0  0  0  0  0  0  0
   -6.1380    0.0520   -1.3560 C   0  0  0  0  0  0  0  0  0  0  0  0
   -6.1950    0.6520   -0.1170 C   0  0  0  0  0  0  0  0  0  0  0  0
   -5.0920    0.6620    0.7110 C   0  0  0  0  0  0  0  0  0  0  0  0
   -7.4870    1.2750    0.2690 C   0  0  0  0  0  0  0  0  0  0  0  0
   -8.5490    0.4910   -0.2770 N   0  0  0  0  0  0  0  0  0  0  0  0
   -9.8500    0.8630    0.2420 C   0  0  2  0  0  0  0  0  0  0  0  0
  -10.9360    0.0060   -0.3530 C   0  0  0  0  0  0  0  0  0  0  0  0
  -10.2040    2.3010   -0.0370 C   0  0  0  0  0  0  0  0  0  0  0  0
   -8.5410    0.5640   -1.7280 C   0  0  0  0  0  0  0  0  0  0  0  0
   -7.2850    0.0020   -2.2990 C   0  0  0  0  0  0  0  0  0  0  0  0
    1.1190   -1.9580    1.8470 C   0  0  0  0  0  0  0  0  0  0  0  0
    0.4400   -3.1300    2.1080 C   0  0  0  0  0  0  0  0  0  0  0  0
    0.9970   -4.3790    2.0070 C   0  0  0  0  0  0  0  0  0  0  0  0
    2.3220   -4.4350    1.6160 C   0  0  0  0  0  0  0  0  0  0  0  0
    3.0050   -3.3180    1.3560 N   0  0  0  0  0  0  0  0  0  0  0  0
    2.4530   -2.0860    1.4570 C   0  0  0  0  0  0  0  0  0  0  0  0
  1  2  1  0
  2  3  1  0
  3  4  1  0
  4  5  2  3
  4 15  1  0
  5  6  1  0
  6  7  2  0
  6 14  1  0
  7  8  1  0
  8  9  2  0
  9 10  1  0
  9 13  1  0
 10 11  1  6
 10 12  1  0
 13 14  2  0
 15 16  1  0
 15 40  1  0
 16 17  2  0
 17 18  1  0
 17 35  1  0
 18 19  1  0
 19 20  2  0
 19 21  1  0
 21 22  1  0
 22 23  2  0
 22 27  1  0
 23 24  1  0
 24 25  2  0
 25 26  1  0
 25 34  1  0
 26 27  2  0
 26 28  1  0
 28 29  1  0
 29 30  1  0
 29 33  1  0
 30 31  1  6
 30 32  1  0
 33 34  1  0
 35 36  2  0
 35 40  1  0
 36 37  1  0
 37 38  2  0
 38 39  1  0
 39 40  2  0
M  END
