
     RDKit          3D

 40 44  0  0  0  0  0  0  0  0999 V2000
    8.4010   -0.8720   -0.5030 C   0  0  0  0  0  0  0  0  0  0  0  0
    7.7550    0.2980   -1.2300 C   0  0  0  0  0  0  0  0  0  0  0  0
    6.2840    0.2420   -0.9610 C   0  0  0  0  0  0  0  0  0  0  0  0
    5.4380   -0.4600   -1.7910 C   0  0  0  0  0  0  0  0  0  0  0  0
    4.0860   -0.4940   -1.5140 C   0  0  0  0  0  0  0  0  0  0  0  0
    3.5360    0.1510   -0.4280 C   0  0  0  0  0  0  0  0  0  0  0  0
    2.1420    0.0950   -0.1520 N   0  0  0  0  0  0  0  0  0  0  0  0
    1.3310    1.1190   -0.2040 N   0  0  0  0  0  0  0  0  0  0  0  0
    0.0140    1.1080    0.0580 C   0  0  0  0  0  0  0  0  0  0  0  0
   -0.7460    2.3600    0.0040 C   0  0  0  0  0  0  0  0  0  0  0  0
   -1.9460    2.3570    0.3200 O   0  0  0  0  0  0  0  0  0  0  0  0
   -0.1690    3.5790   -0.3960 N   0  0  0  0  0  0  0  0  0  0  0  0
   -0.8480    4.7900   -0.4650 N   0  0  0  0  0  0  0  0  0  0  0  0
   -0.3670    5.8960   -0.0080 C   0  0  0  0  0  0  0  0  0  0  0  0
    0.9050    6.1480    0.6460 C   0  0  0  0  0  0  0  0  0  0  0  0
    0.9260    7.4430    0.9260 C   0  0  0  0  0  0  0  0  0  0  0  0
   -0.2810    8.0460    0.4810 N   0  0  0  0  0  0  0  0  0  0  0  0
   -1.0630    7.1700   -0.0710 C   0  0  0  0  0  0  0  0  0  0  0  0
   -2.4010    7.4400   -0.6470 C   0  0  0  0  0  0  0  0  0  0  0  0
   -0.5620   -0.1160    0.4220 C   0  0  0  0  0  0  0  0  0  0  0  0
   -1.9330   -0.1230    0.7180 N   0  0  0  0  0  0  0  0  0  0  0  0
   -3.0530   -0.3310   -0.1580 C   0  0  2  0  0  0  0  0  0  0  0  0
   -4.3100    0.1320    0.5720 C   0  0  0  0  0  0  0  0  0  0  0  0
   -5.0230   -1.0500    1.1200 C   0  0  0  0  0  0  0  0  0  0  0  0
   -5.5420   -1.8850   -0.0410 C   0  0  0  0  0  0  0  0  0  0  0  0
   -4.5480   -2.0620   -1.0360 N   0  0  0  0  0  0  0  0  0  0  0  0
   -4.8360   -2.5890   -2.2720 C   0  0  0  0  0  0  0  0  0  0  0  0
   -3.2220   -1.7570   -0.6330 C   0  0  0  0  0  0  0  0  0  0  0  0
    0.2380   -1.2190    0.4930 C   0  0  0  0  0  0  0  0  0  0  0  0
   -0.2740   -2.5320    0.8580 C   0  0  0  0  0  0  0  0  0  0  0  0
   -0.3810   -3.4500   -0.1940 C   0  0  0  0  0  0  0  0  0  0  0  0
   -0.8630   -4.6970    0.0750 C   0  0  0  0  0  0  0  0  0  0  0  0
   -1.2420   -5.0690    1.3450 C   0  0  0  0  0  0  0  0  0  0  0  0
   -1.7650   -6.4540    1.5700 C   0  0  0  0  0  0  0  0  0  0  0  0
   -1.1210   -4.1410    2.3430 C   0  0  0  0  0  0  0  0  0  0  0  0
   -0.6440   -2.8650    2.1470 C   0  0  0  0  0  0  0  0  0  0  0  0
    1.6070   -1.0870    0.1970 C   0  0  0  0  0  0  0  0  0  0  0  0
    2.2980   -2.1140    0.2740 O   0  0  0  0  0  0  0  0  0  0  0  0
    4.4080    0.8520    0.3960 C   0  0  0  0  0  0  0  0  0  0  0  0
    5.7630    0.9080    0.1500 C   0  0  0  0  0  0  0  0  0  0  0  0
  1  2  1  0
  2  3  1  0
  3  4  2  0
  3 40  1  0
  4  5  1  0
  5  6  2  0
  6  7  1  0
  6 39  1  0
  7  8  1  0
  7 37  1  0
  8  9  2  0
  9 10  1  0
  9 20  1  0
 10 11  2  0
 10 12  1  0
 12 13  1  0
 13 14  2  3
 14 15  1  0
 14 18  1  0
 15 16  2  0
 16 17  1  0
 17 18  2  0
 18 19  1  0
 20 21  1  0
 20 29  2  0
 22 21  1  1
 22 23  1  0
 22 28  1  0
 23 24  1  0
 24 25  1  0
 25 26  1  0
 26 27  1  0
 26 28  1  0
 29 30  1  0
 29 37  1  0
 30 31  2  0
 30 36  1  0
 31 32  1  0
 32 33  2  0
 33 34  1  0
 33 35  1  0
 35 36  2  0
 37 38  2  0
 39 40  2  0
M  END
