
     RDKit          3D

 39 43  0  0  0  0  0  0  0  0999 V2000
    5.8210   -2.0920   -1.8450 C   0  0  0  0  0  0  0  0  0  0  0  0
    6.5290   -0.7770   -1.4680 C   0  0  0  0  0  0  0  0  0  0  0  0
    6.7560   -0.7660   -0.0300 N   0  0  0  0  0  0  0  0  0  0  0  0
    5.7210   -0.6610    0.9520 C   0  0  0  0  0  0  0  0  0  0  0  0
    4.5570   -0.5190    0.8310 N   0  0  0  0  0  0  0  0  0  0  0  0
    3.3920   -0.3690    0.4020 N   0  0  0  0  0  0  0  0  0  0  0  0
    2.6840    0.1500   -0.4370 C   0  0  0  0  0  0  0  0  0  0  0  0
    1.2360   -0.0020   -0.4970 C   0  0  0  0  0  0  0  0  0  0  0  0
    0.7250   -0.7950    0.3750 O   0  0  0  0  0  0  0  0  0  0  0  0
    0.4100    0.6600   -1.4040 N   0  0  0  0  0  0  0  0  0  0  0  0
   -1.0100    0.5500   -1.4510 C   0  0  0  0  0  0  0  0  0  0  0  0
   -1.7280   -0.3630   -0.7390 C   0  0  0  0  0  0  0  0  0  0  0  0
   -3.1110   -0.3400   -0.7870 C   0  0  0  0  0  0  0  0  0  0  0  0
   -3.9220   -1.3420   -0.0130 C   0  0  0  0  0  0  0  0  0  0  0  0
   -3.8380    0.5830   -1.5380 C   0  0  0  0  0  0  0  0  0  0  0  0
   -5.2340    0.6350   -1.4310 N   0  0  0  0  0  0  0  0  0  0  0  0
   -6.1470    1.3760   -2.1840 C   0  0  0  0  0  0  0  0  0  0  0  0
   -5.7540    2.0840   -3.1250 O   0  0  0  0  0  0  0  0  0  0  0  0
   -7.6230    1.3470   -1.8700 C   0  0  0  0  0  0  0  0  0  0  0  0
   -7.8250    0.4800   -0.7160 N   0  0  0  0  0  0  0  0  0  0  0  0
   -8.1900   -0.8000   -0.6910 C   0  0  0  0  0  0  0  0  0  0  0  0
   -8.2440   -1.2480    0.6290 C   0  0  0  0  0  0  0  0  0  0  0  0
   -7.9000   -0.1990    1.4140 C   0  0  0  0  0  0  0  0  0  0  0  0
   -7.7590   -0.0630    2.7770 C   0  0  0  0  0  0  0  0  0  0  0  0
   -7.3620    1.1360    3.3300 C   0  0  0  0  0  0  0  0  0  0  0  0
   -7.1110    2.1930    2.4930 C   0  0  0  0  0  0  0  0  0  0  0  0
   -7.2510    2.0650    1.1080 C   0  0  0  0  0  0  0  0  0  0  0  0
   -7.6480    0.8530    0.5760 C   0  0  0  0  0  0  0  0  0  0  0  0
   -3.0950    1.4790   -2.2460 C   0  0  0  0  0  0  0  0  0  0  0  0
   -1.7120    1.4910   -2.2260 C   0  0  0  0  0  0  0  0  0  0  0  0
   -0.9440    2.4750   -3.0170 C   0  0  0  0  0  0  0  0  0  0  0  0
    6.4280   -0.7260    2.2590 C   0  0  0  0  0  0  0  0  0  0  0  0
    5.7690   -0.6510    3.5870 C   0  0  0  0  0  0  0  0  0  0  0  0
    7.7170   -0.8520    2.0730 C   0  0  0  0  0  0  0  0  0  0  0  0
    9.0270   -0.9780    2.7290 C   0  0  0  0  0  0  0  0  0  0  0  0
    9.9200   -1.0670    1.7850 C   0  0  0  0  0  0  0  0  0  0  0  0
   11.4010   -1.2110    2.0080 C   0  0  0  0  0  0  0  0  0  0  0  0
    9.2780   -1.0080    0.5310 N   0  0  0  0  0  0  0  0  0  0  0  0
    7.9900   -0.8830    0.6500 C   0  0  0  0  0  0  0  0  0  0  0  0
  1  2  1  0
  2  3  1  0
  3  4  1  0
  3 39  1  0
  4  5  2  3
  4 32  1  0
  5  6  1  0
  6  7  2  3
  7  8  1  0
  8  9  2  0
  8 10  1  0
 10 11  1  0
 11 12  2  0
 11 30  1  0
 12 13  1  0
 13 14  1  0
 13 15  2  0
 15 16  1  0
 15 29  1  0
 16 17  1  0
 17 18  2  0
 17 19  1  0
 19 20  1  0
 20 21  1  0
 20 28  1  0
 21 22  2  0
 22 23  1  0
 23 24  2  0
 23 28  1  0
 24 25  1  0
 25 26  2  0
 26 27  1  0
 27 28  2  0
 29 30  2  0
 30 31  1  0
 32 33  1  0
 32 34  2  0
 34 35  1  0
 34 39  1  0
 35 36  2  0
 36 37  1  0
 36 38  1  0
 38 39  2  0
M  END
