
     RDKit          3D

 40 44  0  0  0  0  0  0  0  0999 V2000
    3.3440   -3.5480    0.3510 C   0  0  0  0  0  0  0  0  0  0  0  0
    3.1990   -2.2910   -0.0050 C   0  0  0  0  0  0  0  0  0  0  0  0
    2.4480   -1.7970   -1.0290 C   0  0  0  0  0  0  0  0  0  0  0  0
    1.7100   -2.3930   -1.9440 C   0  0  0  0  0  0  0  0  0  0  0  0
    1.4850   -3.8340   -2.1240 C   0  0  0  0  0  0  0  0  0  0  0  0
    2.6410   -0.4380   -0.9830 N   0  0  0  0  0  0  0  0  0  0  0  0
    3.4670   -0.1090    0.0090 C   0  0  0  0  0  0  0  0  0  0  0  0
    3.8820    1.2450    0.3180 C   0  0  0  0  0  0  0  0  0  0  0  0
    5.1000    1.4730    0.9700 C   0  0  0  0  0  0  0  0  0  0  0  0
    5.5180    2.7510    1.2670 C   0  0  0  0  0  0  0  0  0  0  0  0
    4.7200    3.8210    0.9100 C   0  0  0  0  0  0  0  0  0  0  0  0
    3.5230    3.6060    0.2680 C   0  0  0  0  0  0  0  0  0  0  0  0
    3.0900    2.2960   -0.0350 C   0  0  0  0  0  0  0  0  0  0  0  0
    1.7810    2.1360   -0.6450 C   0  0  0  0  0  0  0  0  0  0  0  0
    1.5640    1.8390   -1.8420 O   0  0  0  0  0  0  0  0  0  0  0  0
    0.5840    2.3480    0.1650 N   0  0  0  0  0  0  0  0  0  0  0  0
   -0.7040    2.2330   -0.4190 C   0  0  0  0  0  0  0  0  0  0  0  0
   -1.4160    3.3630   -0.6220 C   0  0  0  0  0  0  0  0  0  0  0  0
   -0.8460    4.6370   -0.2340 C   0  0  0  0  0  0  0  0  0  0  0  0
   -0.4390    4.9640    1.0370 C   0  0  0  0  0  0  0  0  0  0  0  0
    0.1440    6.1830    1.3200 C   0  0  0  0  0  0  0  0  0  0  0  0
    0.3150    7.0890    0.2860 C   0  0  0  0  0  0  0  0  0  0  0  0
   -0.0930    6.7450   -0.9450 N   0  0  0  0  0  0  0  0  0  0  0  0
   -0.6570    5.5750   -1.2400 C   0  0  0  0  0  0  0  0  0  0  0  0
   -1.3390    0.9740   -0.7920 C   0  0  0  0  0  0  0  0  0  0  0  0
   -2.5270    0.8770   -1.4100 N   0  0  0  0  0  0  0  0  0  0  0  0
   -2.8400   -0.3660   -1.5490 O   0  0  0  0  0  0  0  0  0  0  0  0
   -1.9090   -1.1240   -1.0460 C   0  0  0  0  0  0  0  0  0  0  0  0
   -1.8560   -2.6340   -0.9830 C   0  0  0  0  0  0  0  0  0  0  0  0
   -2.8500   -3.1120   -0.0440 N   0  0  0  0  0  0  0  0  0  0  0  0
   -4.2410   -3.0940   -0.2950 C   0  0  0  0  0  0  0  0  0  0  0  0
   -4.7400   -2.7880   -1.5400 C   0  0  0  0  0  0  0  0  0  0  0  0
   -6.1110   -2.7870   -1.8220 C   0  0  0  0  0  0  0  0  0  0  0  0
   -7.0070   -3.0990   -0.8340 C   0  0  0  0  0  0  0  0  0  0  0  0
   -6.5200   -3.4080    0.4180 C   0  0  0  0  0  0  0  0  0  0  0  0
   -5.1700   -3.4050    0.6810 C   0  0  0  0  0  0  0  0  0  0  0  0
   -4.7050   -3.7440    2.0380 C   0  0  0  0  0  0  0  0  0  0  0  0
   -0.9530   -0.2830   -0.5660 N   0  0  0  0  0  0  0  0  0  0  0  0
    3.8030   -1.2420    0.6070 N   0  0  0  0  0  0  0  0  0  0  0  0
    4.6380   -1.4340    1.7990 C   0  0  0  0  0  0  0  0  0  0  0  0
  1  2  2  0
  2  3  1  0
  2 39  1  0
  3  4  2  3
  3  6  1  0
  4  5  1  0
  6  7  2  0
  7  8  1  0
  7 39  1  0
  8  9  2  0
  8 13  1  0
  9 10  1  0
 10 11  2  0
 11 12  1  0
 12 13  2  0
 13 14  1  0
 14 15  2  0
 14 16  1  0
 16 17  1  0
 17 18  2  3
 17 25  1  0
 18 19  1  0
 19 20  2  0
 19 24  1  0
 20 21  1  0
 21 22  2  0
 22 23  1  0
 23 24  2  0
 25 26  2  0
 25 38  1  0
 26 27  1  0
 27 28  1  0
 28 29  1  0
 28 38  2  0
 29 30  1  0
 30 31  1  0
 31 32  2  0
 31 36  1  0
 32 33  1  0
 33 34  2  0
 34 35  1  0
 35 36  2  0
 36 37  1  0
 39 40  1  0
M  END
