
     RDKit          3D

 15 16  0  0  0  0  0  0  0  0999 V2000
    4.6500   -0.4690   -0.0620 C   0  0  0  0  0  0  0  0  0  0  0  0
    3.3530    0.1990    0.2150 C   0  0  0  0  0  0  0  0  0  0  0  0
    2.9980    0.4210    1.5910 C   0  0  0  0  0  0  0  0  0  0  0  0
    2.6960    0.5870    2.7110 N   0  0  0  0  0  0  0  0  0  0  0  0
    2.5460    0.5800   -0.7360 C   0  0  0  0  0  0  0  0  0  0  0  0
    1.3150    1.2140   -0.4960 N   0  0  0  0  0  0  0  0  0  0  0  0
    0.0950    0.4960   -0.4680 C   0  0  0  0  0  0  0  0  0  0  0  0
    0.1200   -0.8620   -0.6840 C   0  0  0  0  0  0  0  0  0  0  0  0
   -1.0580   -1.5970   -0.6640 C   0  0  0  0  0  0  0  0  0  0  0  0
   -2.2680   -0.9770   -0.4280 C   0  0  0  0  0  0  0  0  0  0  0  0
   -2.2720    0.3790   -0.2150 C   0  0  0  0  0  0  0  0  0  0  0  0
   -1.0960    1.1300   -0.2320 C   0  0  0  0  0  0  0  0  0  0  0  0
   -3.7000    0.7670    0.0040 C   0  0  0  0  0  0  0  0  0  0  0  0
   -4.3360   -0.5250    0.4370 C   0  0  0  0  0  0  0  0  0  0  0  0
   -3.5910   -1.4640   -0.3510 O   0  0  0  0  0  0  0  0  0  0  0  0
  1  2  1  0
  2  3  1  0
  2  5  2  3
  3  4  3  0
  5  6  1  0
  6  7  1  0
  7  8  2  0
  7 12  1  0
  8  9  1  0
  9 10  2  0
 10 11  1  0
 10 15  1  0
 11 12  2  0
 11 13  1  0
 13 14  1  0
 14 15  1  0
M  END
