
     RDKit          3D

 15 15  0  0  0  0  0  0  0  0999 V2000
    1.6810    1.2980   -1.5430 C   0  0  0  0  0  0  0  0  0  0  0  0
    1.6810    0.1940   -0.4460 C   0  0  0  0  0  0  0  0  0  0  0  0
    0.5140   -0.0400    0.0390 C   0  0  0  0  0  0  0  0  0  0  0  0
    0.0100   -0.9340    1.0360 C   0  0  0  0  0  0  0  0  0  0  0  0
   -1.2710   -0.9670    1.3460 N   0  0  0  0  0  0  0  0  0  0  0  0
   -2.2120   -0.1170    0.7060 C   0  0  0  0  0  0  0  0  0  0  0  0
   -3.1700   -0.5290   -0.1070 C   0  0  0  0  0  0  0  0  0  0  0  0
   -3.4690   -1.9300   -0.5190 C   0  0  0  0  0  0  0  0  0  0  0  0
   -3.9450    0.6310   -0.5770 C   0  0  0  0  0  0  0  0  0  0  0  0
   -4.7320    0.6510   -1.5780 O   0  0  0  0  0  0  0  0  0  0  0  0
   -3.6080    1.7350    0.3540 C   0  0  0  0  0  0  0  0  0  0  0  0
   -2.2850    1.2970    0.8250 N   0  0  0  0  0  0  0  0  0  0  0  0
    2.9770   -0.3870   -0.1500 C   0  0  1  0  0  0  0  0  0  0  0  0
    4.0080    0.7150    0.1880 C   0  0  0  0  0  0  0  0  0  0  0  0
    3.0440   -1.4500    0.8920 C   0  0  0  0  0  0  0  0  0  0  0  0
  1  2  1  0
  2  3  2  3
  2 13  1  0
  3  4  1  0
  4  5  2  3
  5  6  1  0
  6  7  2  0
  6 12  1  0
  7  8  1  0
  7  9  1  0
  9 10  2  0
  9 11  1  0
 11 12  1  0
 13 14  1  1
 13 15  1  0
M  END
