
     RDKit          3D

 15 16  0  0  0  0  0  0  0  0999 V2000
   -0.7240   -1.1440   -0.6650 O   0  0  0  0  0  0  0  0  0  0  0  0
   -0.5010   -0.2040    0.1300 C   0  0  0  0  0  0  0  0  0  0  0  0
    0.8960    0.2490    0.4250 C   0  0  0  0  0  0  0  0  0  0  0  0
    1.8460   -0.6080   -0.3770 C   0  0  0  0  0  0  0  0  0  0  0  0
    3.2520   -0.1950   -0.1150 C   0  0  0  0  0  0  0  0  0  0  0  0
    3.6780    0.7680    0.6840 C   0  0  0  0  0  0  0  0  0  0  0  0
    5.1580    0.8310    0.6390 C   0  0  0  0  0  0  0  0  0  0  0  0
    5.5000   -0.2120   -0.2810 N   0  0  0  0  0  0  0  0  0  0  0  0
    4.4410   -0.7900   -0.7070 C   0  0  0  0  0  0  0  0  0  0  0  0
   -1.5760    0.4490    0.7640 N   0  0  0  0  0  0  0  0  0  0  0  0
   -2.9460    0.1070    0.5620 C   0  0  0  0  0  0  0  0  0  0  0  0
   -3.4710   -0.8120   -0.1940 C   0  0  0  0  0  0  0  0  0  0  0  0
   -4.9450   -0.7760   -0.0630 C   0  0  0  0  0  0  0  0  0  0  0  0
   -5.2060    0.3060    0.8850 C   0  0  0  0  0  0  0  0  0  0  0  0
   -4.0550    0.8170    1.2470 C   0  0  0  0  0  0  0  0  0  0  0  0
  1  2  2  0
  2  3  1  0
  2 10  1  0
  3  4  1  0
  4  5  1  0
  5  6  2  0
  5  9  1  0
  6  7  1  0
  7  8  1  0
  8  9  2  0
 10 11  1  0
 11 12  2  0
 11 15  1  0
 12 13  1  0
 13 14  1  0
 14 15  2  0
M  END
