
     RDKit          3D

 15 15  0  0  0  0  0  0  0  0999 V2000
    1.1870    2.7890   -0.6600 C   0  0  0  0  0  0  0  0  0  0  0  0
    0.9310    1.5470   -0.3120 C   0  0  0  0  0  0  0  0  0  0  0  0
    2.1090    0.6850   -0.1880 C   0  0  0  0  0  0  0  0  0  0  0  0
    2.1210   -0.6320   -0.1020 C   0  0  0  0  0  0  0  0  0  0  0  0
    3.4250   -1.2690    0.0150 C   0  0  0  0  0  0  0  0  0  0  0  0
    4.6010   -0.3570    0.0230 C   0  0  0  0  0  0  0  0  0  0  0  0
    0.9830   -1.5420   -0.1080 C   0  0  0  0  0  0  0  0  0  0  0  0
    1.2760   -2.7730   -0.1610 O   0  0  0  0  0  0  0  0  0  0  0  0
   -0.4030   -1.1900   -0.0610 N   0  0  0  0  0  0  0  0  0  0  0  0
   -1.0100   -0.0580   -0.0610 C   0  0  0  0  0  0  0  0  0  0  0  0
   -2.4490   -0.1470   -0.0030 C   0  0  0  0  0  0  0  0  0  0  0  0
   -3.2540    1.1000    0.0020 C   0  0  0  0  0  0  0  0  0  0  0  0
   -3.0720   -1.3070    0.0460 C   0  0  0  0  0  0  0  0  0  0  0  0
   -4.5550   -1.3980    0.1060 C   0  0  0  0  0  0  0  0  0  0  0  0
   -0.4420    1.2350   -0.1110 N   0  0  0  0  0  0  0  0  0  0  0  0
  1  2  2  0
  2  3  1  0
  2 15  1  0
  3  4  2  0
  4  5  1  0
  4  7  1  0
  5  6  1  0
  7  8  2  0
  7  9  1  0
  9 10  2  0
 10 11  1  0
 10 15  1  0
 11 12  1  0
 11 13  2  3
 13 14  1  0
M  END
