
     RDKit          3D

 15 16  0  0  0  0  0  0  0  0999 V2000
   -2.0660   -0.6500    1.4660 C   0  0  0  0  0  0  0  0  0  0  0  0
   -1.8790   -0.5710    0.0050 N   0  0  0  0  0  0  0  0  0  0  0  0
   -2.5170   -1.6290   -0.7590 C   0  0  0  0  0  0  0  0  0  0  0  0
   -1.1430    0.4940   -0.5600 C   0  0  0  0  0  0  0  0  0  0  0  0
   -1.7120    1.5030   -1.3510 C   0  0  0  0  0  0  0  0  0  0  0  0
   -0.7480    2.3620   -1.6690 N   0  0  0  0  0  0  0  0  0  0  0  0
    0.4460    1.9710   -1.1260 C   0  0  0  0  0  0  0  0  0  0  0  0
    1.7060    2.6650   -1.2990 C   0  0  0  0  0  0  0  0  0  0  0  0
    1.6670    3.7480   -2.0110 O   0  0  0  0  0  0  0  0  0  0  0  0
    0.1960    0.8060   -0.4350 C   0  0  0  0  0  0  0  0  0  0  0  0
    1.1510   -0.0650    0.2720 C   0  0  0  0  0  0  0  0  0  0  0  0
    2.3540    0.1920    0.7290 C   0  0  0  0  0  0  0  0  0  0  0  0
    2.9850   -1.0000    1.3840 C   0  0  0  0  0  0  0  0  0  0  0  0
    1.9480   -2.0180    1.2140 C   0  0  0  0  0  0  0  0  0  0  0  0
    0.9200   -1.4810    0.5900 C   0  0  0  0  0  0  0  0  0  0  0  0
  1  2  1  0
  2  3  1  0
  2  4  1  0
  4  5  2  0
  4 10  1  0
  5  6  1  0
  6  7  1  0
  7  8  1  0
  7 10  2  0
  8  9  2  0
 10 11  1  0
 11 12  2  0
 11 15  1  0
 12 13  1  0
 13 14  1  0
 14 15  2  0
M  END
