
     RDKit          3D

 15 15  0  0  0  0  0  0  0  0999 V2000
    0.0990   -2.7550    0.1670 C   0  0  0  0  0  0  0  0  0  0  0  0
   -0.7320   -1.7400    0.8240 C   0  0  0  0  0  0  0  0  0  0  0  0
   -0.7740   -0.4050    0.3990 N   0  0  0  0  0  0  0  0  0  0  0  0
   -2.0400    0.2760    0.6310 C   0  0  0  0  0  0  0  0  0  0  0  0
   -3.0600   -0.4150    1.4690 C   0  0  0  0  0  0  0  0  0  0  0  0
   -2.2700    1.4710    0.1140 C   0  0  0  0  0  0  0  0  0  0  0  0
   -1.2510    2.1160   -0.6970 C   0  0  0  0  0  0  0  0  0  0  0  0
   -1.5250    3.4670   -1.2850 C   0  0  0  0  0  0  0  0  0  0  0  0
   -0.1200    1.5700   -0.9290 N   0  0  0  0  0  0  0  0  0  0  0  0
    0.1900    0.2250   -0.3610 C   0  0  0  0  0  0  0  0  0  0  0  0
    1.4420   -0.0380   -0.3860 C   0  0  0  0  0  0  0  0  0  0  0  0
    2.2710    0.8150   -1.3830 C   0  0  0  0  0  0  0  0  0  0  0  0
    2.2600   -0.7360    0.5670 C   0  0  0  0  0  0  0  0  0  0  0  0
    3.7200   -0.9960    0.1900 C   0  0  0  0  0  0  0  0  0  0  0  0
    1.9760   -1.1870    1.6950 O   0  0  0  0  0  0  0  0  0  0  0  0
  1  2  1  0
  2  3  1  0
  3  4  1  0
  3 10  1  0
  4  5  1  0
  4  6  2  0
  6  7  1  0
  7  8  1  0
  7  9  2  0
  9 10  1  0
 10 11  2  3
 11 12  1  0
 11 13  1  0
 13 14  1  0
 13 15  2  0
M  END
