
     RDKit          3D

 22 23  0  0  0  0  0  0  0  0999 V2000
   -5.1330    1.1410   -2.5470 C   0  0  0  0  0  0  0  0  0  0  0  0
   -5.1600    0.2120   -1.4850 O   0  0  0  0  0  0  0  0  0  0  0  0
   -4.0510    0.0080   -0.6790 C   0  0  0  0  0  0  0  0  0  0  0  0
   -2.9170    0.7130   -0.9140 C   0  0  0  0  0  0  0  0  0  0  0  0
   -1.7900    0.5150   -0.1060 C   0  0  0  0  0  0  0  0  0  0  0  0
   -1.8030   -0.3830    0.9280 C   0  0  0  0  0  0  0  0  0  0  0  0
   -0.7100   -0.6550    1.7920 N   0  0  0  0  0  0  0  0  0  0  0  0
    0.5830   -0.1030    1.6210 C   0  0  0  0  0  0  0  0  0  0  0  0
    1.5990    0.4540    2.9680 S   0  0  0  0  0  0  0  0  0  0  0  0
    1.0390   -0.0050    0.4230 N   0  0  0  0  0  0  0  0  0  0  0  0
    2.3280    0.5300    0.0760 C   0  0  0  0  0  0  0  0  0  0  0  0
    2.6800    0.0220   -1.2940 C   0  0  0  0  0  0  0  0  0  0  0  0
    4.0150    0.5310   -1.7480 C   0  0  0  0  0  0  0  0  0  0  0  0
    5.0280    0.0940   -0.8290 N   0  0  0  0  0  0  0  0  0  0  0  0
    5.4480    0.7470    0.2600 C   0  0  0  0  0  0  0  0  0  0  0  0
    6.4230    0.0210    0.8840 C   0  0  0  0  0  0  0  0  0  0  0  0
    6.5970   -1.0930    0.1620 N   0  0  0  0  0  0  0  0  0  0  0  0
    5.7560   -1.0400   -0.8640 C   0  0  0  0  0  0  0  0  0  0  0  0
   -3.0000   -1.0810    1.1230 C   0  0  0  0  0  0  0  0  0  0  0  0
   -4.1130   -0.9070    0.3490 C   0  0  0  0  0  0  0  0  0  0  0  0
   -5.2990   -1.6130    0.5580 O   0  0  0  0  0  0  0  0  0  0  0  0
   -5.3110   -2.5390    1.6260 C   0  0  0  0  0  0  0  0  0  0  0  0
  1  2  1  0
  2  3  1  0
  3  4  2  0
  3 20  1  0
  4  5  1  0
  5  6  2  0
  6  7  1  0
  6 19  1  0
  7  8  1  0
  8  9  1  0
  8 10  2  3
 10 11  1  0
 11 12  1  0
 12 13  1  0
 13 14  1  0
 14 15  1  0
 14 18  1  0
 15 16  2  0
 16 17  1  0
 17 18  2  0
 19 20  2  0
 20 21  1  0
 21 22  1  0
M  END
