
     RDKit          3D

 15 16  0  0  0  0  0  0  0  0999 V2000
    3.9840   -0.7330   -0.1290 C   0  0  0  0  0  0  0  0  0  0  0  0
    3.0620    0.0980   -0.4300 C   0  0  0  0  0  0  0  0  0  0  0  0
    3.7530    1.3630   -1.1110 C   0  0  0  0  0  0  0  0  0  0  0  0
    1.6860    0.2160   -0.3410 C   0  0  0  0  0  0  0  0  0  0  0  0
    0.5280   -0.2420    0.0010 C   0  0  0  0  0  0  0  0  0  0  0  0
   -0.5900    0.5530   -0.2620 N   0  0  0  0  0  0  0  0  0  0  0  0
   -1.8490    0.2420    0.0210 C   0  0  0  0  0  0  0  0  0  0  0  0
   -2.9840    1.1770   -0.3080 C   0  0  1  0  0  0  0  0  0  0  0  0
   -4.2260    0.5280   -0.8270 C   0  0  0  0  0  0  0  0  0  0  0  0
   -4.2030    1.1520    0.5250 C   0  0  0  0  0  0  0  0  0  0  0  0
   -2.0840   -0.9290    0.6070 N   0  0  0  0  0  0  0  0  0  0  0  0
   -1.1040   -1.7780    0.9110 C   0  0  0  0  0  0  0  0  0  0  0  0
   -1.3040   -2.8850    1.4630 O   0  0  0  0  0  0  0  0  0  0  0  0
    0.2410   -1.4290    0.6010 C   0  0  0  0  0  0  0  0  0  0  0  0
    1.1600   -2.3000    0.9210 C   0  0  0  0  0  0  0  0  0  0  0  0
  1  2  2  0
  2  3  1  0
  2  4  1  0
  4  5  2  3
  5  6  1  0
  5 14  1  0
  6  7  1  0
  8  7  1  1
  7 11  2  0
  8  9  1  0
  8 10  1  0
  9 10  1  0
 11 12  1  0
 12 13  2  0
 12 14  1  0
 14 15  2  0
M  END
