
     RDKit          3D

 25 28  0  0  0  0  0  0  0  0999 V2000
    4.9810   -1.2090    2.0120 C   0  0  0  0  0  0  0  0  0  0  0  0
    4.4750   -1.3280    0.6810 N   0  0  0  0  0  0  0  0  0  0  0  0
    5.3230   -1.7260   -0.3990 C   0  0  0  0  0  0  0  0  0  0  0  0
    3.1160   -1.0480    0.4320 C   0  0  0  0  0  0  0  0  0  0  0  0
    2.6380    0.2020    0.1100 C   0  0  0  0  0  0  0  0  0  0  0  0
    1.2830    0.3260   -0.1080 C   0  0  0  0  0  0  0  0  0  0  0  0
    0.7260    1.6230   -0.4510 C   0  0  0  0  0  0  0  0  0  0  0  0
    1.1410    2.2590   -1.5920 C   0  0  0  0  0  0  0  0  0  0  0  0
    0.6160    3.4920   -1.9260 C   0  0  0  0  0  0  0  0  0  0  0  0
   -0.3000    4.0350   -1.1050 N   0  0  0  0  0  0  0  0  0  0  0  0
   -0.7360    3.4490    0.0220 C   0  0  0  0  0  0  0  0  0  0  0  0
   -0.2120    2.2190    0.3540 C   0  0  0  0  0  0  0  0  0  0  0  0
    0.4460   -0.7890   -0.0010 C   0  0  0  0  0  0  0  0  0  0  0  0
   -0.9740   -0.6770   -0.2270 C   0  0  0  0  0  0  0  0  0  0  0  0
   -1.4490   -0.3020   -1.4540 C   0  0  0  0  0  0  0  0  0  0  0  0
   -2.8210   -0.1860   -1.7010 C   0  0  0  0  0  0  0  0  0  0  0  0
   -3.7110   -0.4540   -0.6810 C   0  0  0  0  0  0  0  0  0  0  0  0
   -5.0840   -0.3520   -0.8780 C   0  0  0  0  0  0  0  0  0  0  0  0
   -5.9920   -0.6140    0.1220 C   0  0  0  0  0  0  0  0  0  0  0  0
   -5.5120   -0.9910    1.3570 C   0  0  0  0  0  0  0  0  0  0  0  0
   -4.1560   -1.0990    1.5770 C   0  0  0  0  0  0  0  0  0  0  0  0
   -3.2460   -0.8370    0.5760 C   0  0  0  0  0  0  0  0  0  0  0  0
   -1.8670   -0.9420    0.7810 C   0  0  0  0  0  0  0  0  0  0  0  0
    0.9910   -1.9740    0.3170 N   0  0  0  0  0  0  0  0  0  0  0  0
    2.2680   -2.0950    0.5230 N   0  0  0  0  0  0  0  0  0  0  0  0
  1  2  1  0
  2  3  1  0
  2  4  1  0
  4  5  2  0
  4 25  1  0
  5  6  1  0
  6  7  1  0
  6 13  2  0
  7  8  2  0
  7 12  1  0
  8  9  1  0
  9 10  2  0
 10 11  1  0
 11 12  2  0
 13 14  1  0
 13 24  1  0
 14 15  2  0
 14 23  1  0
 15 16  1  0
 16 17  2  0
 17 18  1  0
 17 22  1  0
 18 19  2  0
 19 20  1  0
 20 21  2  0
 21 22  1  0
 22 23  2  0
 24 25  2  0
M  END
