
     RDKit          3D

 26 28  0  0  0  0  0  0  0  0999 V2000
   -2.3430   -3.2580    0.9740 C   0  0  0  0  0  0  0  0  0  0  0  0
   -1.4110   -2.0270    0.9150 C   0  0  1  0  0  0  0  0  0  0  0  0
   -1.1440   -1.6800    2.2210 O   0  0  0  0  0  0  0  0  0  0  0  0
   -0.1470   -2.4000    0.2030 C   0  0  0  0  0  0  0  0  0  0  0  0
    0.8710   -1.3940    0.1340 N   0  0  0  0  0  0  0  0  0  0  0  0
    1.5510   -0.8410    1.2390 C   0  0  0  0  0  0  0  0  0  0  0  0
    1.2860   -1.2280    2.3950 O   0  0  0  0  0  0  0  0  0  0  0  0
    2.5980    0.2080    1.1330 C   0  0  1  0  0  0  0  0  0  0  0  0
    3.9180   -0.4310    1.5080 C   0  0  0  0  0  0  0  0  0  0  0  0
    4.1260   -1.2980    0.3900 O   0  0  0  0  0  0  0  0  0  0  0  0
    3.6580   -0.5890   -0.7180 C   0  0  0  0  0  0  0  0  0  0  0  0
    3.9010   -0.8050   -1.9360 O   0  0  0  0  0  0  0  0  0  0  0  0
    2.8060    0.4880   -0.2710 N   0  0  0  0  0  0  0  0  0  0  0  0
    2.3160    1.5620   -1.0750 C   0  0  0  0  0  0  0  0  0  0  0  0
    3.2310    2.7380   -1.0660 C   0  0  0  0  0  0  0  0  0  0  0  0
    4.4520    2.7460   -0.3190 N   0  0  0  0  0  0  0  0  0  0  0  0
    2.9660    3.7770   -1.7210 O   0  0  0  0  0  0  0  0  0  0  0  0
   -2.1230   -0.9470    0.1670 C   0  0  0  0  0  0  0  0  0  0  0  0
   -1.5490    0.2120   -0.2620 C   0  0  0  0  0  0  0  0  0  0  0  0
   -2.5520    0.9420   -0.9100 C   0  0  0  0  0  0  0  0  0  0  0  0
   -3.6840    0.1750   -0.8340 C   0  0  0  0  0  0  0  0  0  0  0  0
   -3.3890   -0.9310   -0.1910 O   0  0  0  0  0  0  0  0  0  0  0  0
   -4.8040    0.6310   -1.3750 C   0  0  0  0  0  0  0  0  0  0  0  0
   -4.9400    1.9230   -2.0670 C   0  0  0  0  0  0  0  0  0  0  0  0
   -3.7240    2.6200   -2.0870 O   0  0  0  0  0  0  0  0  0  0  0  0
   -2.5660    2.1200   -1.5130 C   0  0  0  0  0  0  0  0  0  0  0  0
  2  1  1  1
  2  3  1  0
  2  4  1  0
  2 18  1  0
  4  5  1  0
  5  6  1  0
  6  7  2  0
  8  6  1  6
  8  9  1  0
  8 13  1  0
  9 10  1  0
 10 11  1  0
 11 12  2  0
 11 13  1  0
 13 14  1  0
 14 15  1  0
 15 16  1  0
 15 17  2  0
 18 19  2  0
 18 22  1  0
 19 20  1  0
 20 21  1  0
 20 26  2  0
 21 22  1  0
 21 23  2  0
 23 24  1  0
 24 25  1  0
 25 26  1  0
M  END
