
     RDKit          3D

 26 27  0  0  0  0  0  0  0  0999 V2000
    6.3410    2.3110    1.0850 C   0  0  0  0  0  0  0  0  0  0  0  0
    6.0040    1.3350    0.0950 O   0  0  0  0  0  0  0  0  0  0  0  0
    6.8610    0.3100   -0.2030 C   0  0  0  0  0  0  0  0  0  0  0  0
    7.9540    0.2700    0.4350 O   0  0  0  0  0  0  0  0  0  0  0  0
    6.5830   -0.7280   -1.2080 C   0  0  0  0  0  0  0  0  0  0  0  0
    5.3410   -0.6180   -1.8230 O   0  0  0  0  0  0  0  0  0  0  0  0
    4.1190   -0.6930   -1.1670 C   0  0  0  0  0  0  0  0  0  0  0  0
    3.9520   -0.8940    0.1750 C   0  0  0  0  0  0  0  0  0  0  0  0
    2.6960   -0.9510    0.7340 C   0  0  0  0  0  0  0  0  0  0  0  0
    1.5390   -0.8050   -0.0490 C   0  0  0  0  0  0  0  0  0  0  0  0
    0.2790   -0.8830    0.5430 N   0  0  0  0  0  0  0  0  0  0  0  0
   -0.9310   -0.5380   -0.0520 C   0  0  0  0  0  0  0  0  0  0  0  0
   -0.9850   -0.1070   -1.2080 O   0  0  0  0  0  0  0  0  0  0  0  0
   -2.2010   -0.6660    0.6470 N   0  0  0  0  0  0  0  0  0  0  0  0
   -3.4370   -0.3040    0.0100 C   0  0  2  0  0  0  0  0  0  0  0  0
   -4.1220    0.8520    0.7090 C   0  0  2  0  0  0  0  0  0  0  0  0
   -5.0270    0.3830    1.6360 O   0  0  0  0  0  0  0  0  0  0  0  0
   -4.8450    1.6390   -0.3170 C   0  0  0  0  0  0  0  0  0  0  0  0
   -4.8670    3.0360   -0.1230 N   0  0  0  0  0  0  0  0  0  0  0  0
   -5.4640    1.1700   -1.3830 C   0  0  0  0  0  0  0  0  0  0  0  0
   -5.5730   -0.1810   -1.7790 O   0  0  0  0  0  0  0  0  0  0  0  0
   -5.5980   -1.2570   -0.8610 C   0  0  0  0  0  0  0  0  0  0  0  0
   -4.3180   -1.5050   -0.1490 C   0  0  2  0  0  0  0  0  0  0  0  0
   -4.5930   -2.1440    1.0510 O   0  0  0  0  0  0  0  0  0  0  0  0
    1.7500   -0.6080   -1.3740 C   0  0  0  0  0  0  0  0  0  0  0  0
    3.0040   -0.5470   -1.9550 C   0  0  0  0  0  0  0  0  0  0  0  0
  1  2  1  0
  2  3  1  0
  3  4  2  0
  3  5  1  0
  5  6  1  0
  6  7  1  0
  7  8  2  0
  7 26  1  0
  8  9  1  0
  9 10  2  0
 10 11  1  0
 10 25  1  0
 11 12  1  0
 12 13  2  0
 12 14  1  0
 15 14  1  1
 15 16  1  0
 15 23  1  0
 16 17  1  1
 16 18  1  0
 18 19  1  0
 18 20  2  0
 20 21  1  0
 21 22  1  0
 22 23  1  0
 23 24  1  1
 25 26  2  0
M  END
