
     RDKit          3D

 25 28  0  0  0  0  0  0  0  0999 V2000
   -3.4860    4.0390   -0.4630 C   0  0  0  0  0  0  0  0  0  0  0  0
   -3.4290    2.6590   -0.0410 N   0  0  0  0  0  0  0  0  0  0  0  0
   -4.5790    2.0640    0.5870 C   0  0  0  0  0  0  0  0  0  0  0  0
   -2.2640    1.8820   -0.2340 C   0  0  0  0  0  0  0  0  0  0  0  0
   -2.1580    0.5590    0.1510 C   0  0  0  0  0  0  0  0  0  0  0  0
   -1.0110   -0.1770   -0.0470 C   0  0  0  0  0  0  0  0  0  0  0  0
   -0.9330   -1.5560    0.3670 C   0  0  0  0  0  0  0  0  0  0  0  0
   -0.0470   -2.0030    1.3180 C   0  0  0  0  0  0  0  0  0  0  0  0
   -0.0680   -3.3590    1.6350 C   0  0  0  0  0  0  0  0  0  0  0  0
   -0.9130   -4.2260    1.0480 N   0  0  0  0  0  0  0  0  0  0  0  0
   -1.7810   -3.8060    0.1220 C   0  0  0  0  0  0  0  0  0  0  0  0
   -1.7780   -2.4780   -0.2050 C   0  0  0  0  0  0  0  0  0  0  0  0
    0.0790    0.4050   -0.6480 C   0  0  0  0  0  0  0  0  0  0  0  0
    1.3040   -0.3510   -0.8690 C   0  0  0  0  0  0  0  0  0  0  0  0
    1.3710   -1.4740   -1.6660 C   0  0  0  0  0  0  0  0  0  0  0  0
    2.5420   -2.1760   -1.8620 C   0  0  0  0  0  0  0  0  0  0  0  0
    3.7040   -1.7650   -1.2540 C   0  0  0  0  0  0  0  0  0  0  0  0
    3.6700   -0.6510   -0.4560 C   0  0  0  0  0  0  0  0  0  0  0  0
    4.8400   -0.2480    0.1480 C   0  0  0  0  0  0  0  0  0  0  0  0
    4.8670    0.8790    0.9720 C   0  0  0  0  0  0  0  0  0  0  0  0
    3.7050    1.5830    1.1730 C   0  0  0  0  0  0  0  0  0  0  0  0
    2.5330    1.1630    0.5560 C   0  0  0  0  0  0  0  0  0  0  0  0
    2.4810    0.0520   -0.2630 C   0  0  0  0  0  0  0  0  0  0  0  0
   -0.0530    1.7140   -1.0190 N   0  0  0  0  0  0  0  0  0  0  0  0
   -1.1530    2.4030   -0.8230 N   0  0  0  0  0  0  0  0  0  0  0  0
  1  2  1  0
  2  3  1  0
  2  4  1  0
  4  5  2  0
  4 25  1  0
  5  6  1  0
  6  7  1  0
  6 13  2  0
  7  8  2  0
  7 12  1  0
  8  9  1  0
  9 10  2  0
 10 11  1  0
 11 12  2  0
 13 14  1  0
 13 24  1  0
 14 15  2  0
 14 23  1  0
 15 16  1  0
 16 17  2  0
 17 18  1  0
 18 19  2  0
 18 23  1  0
 19 20  1  0
 20 21  2  0
 21 22  1  0
 22 23  2  0
 24 25  2  0
M  END
