
     RDKit          3D

 25 28  0  0  0  0  0  0  0  0999 V2000
    6.1880    1.4390   -0.0270 C   0  0  0  0  0  0  0  0  0  0  0  0
    5.1320    0.3700   -0.1200 C   0  0  0  0  0  0  0  0  0  0  0  0
    3.8690    0.6280    0.0820 C   0  0  0  0  0  0  0  0  0  0  0  0
    2.7990   -0.3150    0.0160 N   0  0  0  0  0  0  0  0  0  0  0  0
    1.4540    0.0790    0.2570 C   0  0  0  0  0  0  0  0  0  0  0  0
    0.7450   -0.2520    1.3830 C   0  0  0  0  0  0  0  0  0  0  0  0
   -0.5510    0.1900    1.5750 C   0  0  0  0  0  0  0  0  0  0  0  0
   -1.1110    0.9840    0.5800 C   0  0  0  0  0  0  0  0  0  0  0  0
   -2.4540    1.5590    0.6810 C   0  0  0  0  0  0  0  0  0  0  0  0
   -3.5420    0.6220    0.6060 N   0  0  0  0  0  0  0  0  0  0  0  0
   -4.0960    0.0830    1.7250 C   0  0  0  0  0  0  0  0  0  0  0  0
   -5.1120   -0.7310    1.2730 C   0  0  0  0  0  0  0  0  0  0  0  0
   -5.1870   -0.6960   -0.1020 C   0  0  0  0  0  0  0  0  0  0  0  0
   -5.9970   -1.3010   -1.0490 C   0  0  0  0  0  0  0  0  0  0  0  0
   -5.8460   -1.0820   -2.3660 N   0  0  0  0  0  0  0  0  0  0  0  0
   -4.8630   -0.2380   -2.7790 C   0  0  0  0  0  0  0  0  0  0  0  0
   -4.6740    0.0350   -4.5020 Cl  0  0  0  0  0  0  0  0  0  0  0  0
   -4.0420    0.3790   -1.8530 C   0  0  0  0  0  0  0  0  0  0  0  0
   -4.1820    0.1660   -0.4840 C   0  0  0  0  0  0  0  0  0  0  0  0
   -0.3740    1.2840   -0.5180 N   0  0  0  0  0  0  0  0  0  0  0  0
    0.8490    0.8490   -0.6660 N   0  0  0  0  0  0  0  0  0  0  0  0
    3.1560   -1.6490   -0.3020 C   0  0  0  0  0  0  0  0  0  0  0  0
    2.2970   -2.5550   -0.3870 O   0  0  0  0  0  0  0  0  0  0  0  0
    4.5250   -1.9520   -0.5300 N   0  0  0  0  0  0  0  0  0  0  0  0
    5.6030   -1.0020   -0.4500 C   0  0  0  0  0  0  0  0  0  0  0  0
  1  2  1  0
  2  3  2  0
  2 25  1  0
  3  4  1  0
  4  5  1  0
  4 22  1  0
  5  6  2  0
  5 21  1  0
  6  7  1  0
  7  8  2  0
  8  9  1  0
  8 20  1  0
  9 10  1  0
 10 11  1  0
 10 19  1  0
 11 12  2  0
 12 13  1  0
 13 14  2  0
 13 19  1  0
 14 15  1  0
 15 16  2  0
 16 17  1  0
 16 18  1  0
 18 19  2  0
 20 21  2  0
 22 23  2  0
 22 24  1  0
 24 25  1  0
M  END
