
     RDKit          3D

 25 28  0  0  0  0  0  0  0  0999 V2000
   -2.4460    1.8440    1.1460 C   0  0  0  0  0  0  0  0  0  0  0  0
   -3.6100    1.3710    0.3400 C   0  0  0  0  0  0  0  0  0  0  0  0
   -4.8760    1.8700    0.5150 N   0  0  0  0  0  0  0  0  0  0  0  0
   -5.6900    1.2180   -0.3290 C   0  0  0  0  0  0  0  0  0  0  0  0
   -4.8980    0.3320   -1.0030 C   0  0  0  0  0  0  0  0  0  0  0  0
   -3.6000    0.4270   -0.5880 N   0  0  0  0  0  0  0  0  0  0  0  0
   -2.5920   -0.3790   -1.0920 C   0  0  0  0  0  0  0  0  0  0  0  0
   -2.8940   -1.2860   -1.9680 O   0  0  0  0  0  0  0  0  0  0  0  0
   -1.1760   -0.3720   -0.7820 C   0  0  0  0  0  0  0  0  0  0  0  0
   -0.3430    0.7150   -0.8570 C   0  0  0  0  0  0  0  0  0  0  0  0
    0.9580    0.6370   -0.5460 N   0  0  0  0  0  0  0  0  0  0  0  0
    1.5770   -0.4930   -0.1350 C   0  0  0  0  0  0  0  0  0  0  0  0
    2.9540   -0.5120    0.1770 N   0  0  0  0  0  0  0  0  0  0  0  0
    3.7850    0.6500    0.0860 C   0  0  0  0  0  0  0  0  0  0  0  0
    3.4850    1.8800   -0.2940 C   0  0  0  0  0  0  0  0  0  0  0  0
    4.7020    2.7610   -0.2220 C   0  0  0  0  0  0  0  0  0  0  0  0
    5.7070    1.8680    0.2420 N   0  0  0  0  0  0  0  0  0  0  0  0
    5.2230    0.7200    0.4130 C   0  0  0  0  0  0  0  0  0  0  0  0
    0.7960   -1.6140   -0.0390 C   0  0  0  0  0  0  0  0  0  0  0  0
    1.3180   -2.8220    0.3680 C   0  0  0  0  0  0  0  0  0  0  0  0
    0.4690   -3.9040    0.4360 C   0  0  0  0  0  0  0  0  0  0  0  0
    1.1940   -5.4290    0.9620 Cl  0  0  0  0  0  0  0  0  0  0  0  0
   -0.8620   -3.8230    0.1190 C   0  0  0  0  0  0  0  0  0  0  0  0
   -1.3530   -2.6410   -0.2750 N   0  0  0  0  0  0  0  0  0  0  0  0
   -0.5740   -1.5510   -0.3620 C   0  0  0  0  0  0  0  0  0  0  0  0
  1  2  1  0
  2  3  2  0
  2  6  1  0
  3  4  1  0
  4  5  2  0
  5  6  1  0
  6  7  1  0
  7  8  2  0
  7  9  1  0
  9 10  2  0
  9 25  1  0
 10 11  1  0
 11 12  2  0
 12 13  1  0
 12 19  1  0
 13 14  1  0
 14 15  2  0
 14 18  1  0
 15 16  1  0
 16 17  1  0
 17 18  2  0
 19 20  2  0
 19 25  1  0
 20 21  1  0
 21 22  1  0
 21 23  2  0
 23 24  1  0
 24 25  2  0
M  END
