
     RDKit          3D

 25 28  0  0  0  0  0  0  0  0999 V2000
   -4.0850   -2.2160   -1.3000 C   0  0  0  0  0  0  0  0  0  0  0  0
   -3.3050   -1.0760   -0.8010 C   0  0  0  0  0  0  0  0  0  0  0  0
   -1.9520   -1.0310   -0.8960 C   0  0  0  0  0  0  0  0  0  0  0  0
   -1.2970   -1.9330   -1.4890 O   0  0  0  0  0  0  0  0  0  0  0  0
   -1.1660    0.0370   -0.3440 C   0  0  0  0  0  0  0  0  0  0  0  0
    0.2440    0.1020   -0.7520 C   0  0  0  0  0  0  0  0  0  0  0  0
    1.2510   -0.3190    0.1690 N   0  0  0  0  0  0  0  0  0  0  0  0
    2.5980   -0.0000   -0.1880 C   0  0  0  0  0  0  0  0  0  0  0  0
    2.8290    1.0500   -1.0330 N   0  0  0  0  0  0  0  0  0  0  0  0
    4.0930    1.4030   -1.2630 N   0  0  0  0  0  0  0  0  0  0  0  0
    5.1410    0.7870   -0.7190 C   0  0  0  0  0  0  0  0  0  0  0  0
    6.5390    1.1830   -0.9910 C   0  0  0  0  0  0  0  0  0  0  0  0
    4.9240   -0.2620    0.1200 N   0  0  0  0  0  0  0  0  0  0  0  0
    5.7680   -1.0800    0.7310 C   0  0  0  0  0  0  0  0  0  0  0  0
    5.0270   -2.0190    1.4100 N   0  0  0  0  0  0  0  0  0  0  0  0
    3.7300   -1.7870    1.2190 C   0  0  0  0  0  0  0  0  0  0  0  0
    3.6760   -0.6380    0.3740 C   0  0  0  0  0  0  0  0  0  0  0  0
   -1.8770    1.0160    0.2940 C   0  0  0  0  0  0  0  0  0  0  0  0
   -3.2330    0.9920    0.3900 N   0  0  0  0  0  0  0  0  0  0  0  0
   -3.9450    1.9940    0.9230 C   0  0  0  0  0  0  0  0  0  0  0  0
   -5.3350    2.0290    0.9580 C   0  0  0  0  0  0  0  0  0  0  0  0
   -6.1890    3.4360    1.6510 Cl  0  0  0  0  0  0  0  0  0  0  0  0
   -6.0340    0.9880    0.4230 C   0  0  0  0  0  0  0  0  0  0  0  0
   -5.3040   -0.0410   -0.1290 C   0  0  0  0  0  0  0  0  0  0  0  0
   -3.9400   -0.0480   -0.1530 C   0  0  0  0  0  0  0  0  0  0  0  0
  1  2  1  0
  2  3  1  0
  2 25  2  0
  3  4  2  0
  3  5  1  0
  5  6  1  0
  5 18  2  0
  6  7  1  0
  7  8  1  0
  8  9  2  0
  8 17  1  0
  9 10  1  0
 10 11  2  0
 11 12  1  0
 11 13  1  0
 13 14  1  0
 13 17  1  0
 14 15  2  0
 15 16  1  0
 16 17  2  0
 18 19  1  0
 19 20  1  0
 19 25  1  0
 20 21  2  0
 21 22  1  0
 21 23  1  0
 23 24  2  0
 24 25  1  0
M  END
