
     RDKit          3D

 25 28  0  0  0  0  0  0  0  0999 V2000
    7.2200   -2.0820   -0.6570 Cl  0  0  0  0  0  0  0  0  0  0  0  0
    5.8060   -1.0270   -0.6920 C   0  0  0  0  0  0  0  0  0  0  0  0
    5.2110   -0.7190    0.4500 C   0  0  0  0  0  0  0  0  0  0  0  0
    4.0590    0.1500    0.3590 N   0  0  0  0  0  0  0  0  0  0  0  0
    4.4580    1.5320    0.2560 C   0  0  0  0  0  0  0  0  0  0  0  0
    3.6850    2.3170   -0.7750 C   0  0  0  0  0  0  0  0  0  0  0  0
    2.3320    2.4460   -0.4420 O   0  0  0  0  0  0  0  0  0  0  0  0
    1.3840    1.4340   -0.3550 C   0  0  0  0  0  0  0  0  0  0  0  0
    0.1110    1.8540   -0.6940 C   0  0  0  0  0  0  0  0  0  0  0  0
   -0.9890    0.9860   -0.6710 C   0  0  0  0  0  0  0  0  0  0  0  0
   -0.7680   -0.2980   -0.2970 C   0  0  0  0  0  0  0  0  0  0  0  0
   -1.8280   -1.3120   -0.2200 C   0  0  0  0  0  0  0  0  0  0  0  0
   -1.6790   -2.5530   -0.7940 N   0  0  0  0  0  0  0  0  0  0  0  0
   -2.7010   -3.2890   -0.5220 N   0  0  0  0  0  0  0  0  0  0  0  0
   -3.5610   -2.6020    0.2220 C   0  0  0  0  0  0  0  0  0  0  0  0
   -3.0120   -1.3270    0.4220 C   0  0  0  0  0  0  0  0  0  0  0  0
   -3.7880   -0.3310    1.1670 C   0  0  0  0  0  0  0  0  0  0  0  0
   -4.7440    0.3340    0.3080 N   0  0  0  0  0  0  0  0  0  0  0  0
   -4.7030    1.4710   -0.3760 C   0  0  0  0  0  0  0  0  0  0  0  0
   -5.8700    1.6450   -1.0620 N   0  0  0  0  0  0  0  0  0  0  0  0
   -6.6460    0.6030   -0.8000 C   0  0  0  0  0  0  0  0  0  0  0  0
   -5.9730   -0.1910    0.0230 N   0  0  0  0  0  0  0  0  0  0  0  0
    0.5330   -0.7150    0.0460 C   0  0  0  0  0  0  0  0  0  0  0  0
    1.6200    0.1360    0.0210 C   0  0  0  0  0  0  0  0  0  0  0  0
    2.8410   -0.5840    0.4000 C   0  0  0  0  0  0  0  0  0  0  0  0
  1  2  1  0
  2  3  2  3
  3  4  1  0
  4  5  1  0
  4 25  1  0
  5  6  1  0
  6  7  1  0
  7  8  1  0
  8  9  2  0
  8 24  1  0
  9 10  1  0
 10 11  2  0
 11 12  1  0
 11 23  1  0
 12 13  2  0
 12 16  1  0
 13 14  1  0
 14 15  1  0
 15 16  2  0
 16 17  1  0
 17 18  1  0
 18 19  1  0
 18 22  1  0
 19 20  2  0
 20 21  1  0
 21 22  2  0
 23 24  2  0
 24 25  1  0
M  END
