
     RDKit          3D

 25 28  0  0  0  0  0  0  0  0999 V2000
   -5.5080   -0.6320    1.7520 C   0  0  0  0  0  0  0  0  0  0  0  0
   -4.5340   -0.5760    0.6280 C   0  0  0  0  0  0  0  0  0  0  0  0
   -4.4940   -1.6160   -0.2730 C   0  0  0  0  0  0  0  0  0  0  0  0
   -3.5910   -1.5560   -1.3070 C   0  0  0  0  0  0  0  0  0  0  0  0
   -3.5170   -2.8660   -2.4710 Cl  0  0  0  0  0  0  0  0  0  0  0  0
   -2.7480   -0.4490   -1.4120 C   0  0  0  0  0  0  0  0  0  0  0  0
   -2.7690    0.5970   -0.5280 C   0  0  0  0  0  0  0  0  0  0  0  0
   -1.8700    1.7990   -0.6080 C   0  0  0  0  0  0  0  0  0  0  0  0
   -0.7020    1.6890    0.2020 N   0  0  0  0  0  0  0  0  0  0  0  0
   -0.7630    2.0730    1.5060 N   0  0  0  0  0  0  0  0  0  0  0  0
    0.4260    1.8570    2.0630 C   0  0  0  0  0  0  0  0  0  0  0  0
    1.1840    1.3540    1.1100 N   0  0  0  0  0  0  0  0  0  0  0  0
    0.5190    1.2320   -0.0750 C   0  0  0  0  0  0  0  0  0  0  0  0
    1.1110    0.6940   -1.2990 C   0  0  0  0  0  0  0  0  0  0  0  0
    0.5380    0.6850   -2.5490 C   0  0  0  0  0  0  0  0  0  0  0  0
    1.4360    0.0760   -3.3690 N   0  0  0  0  0  0  0  0  0  0  0  0
    2.4840   -0.2660   -2.6890 N   0  0  0  0  0  0  0  0  0  0  0  0
    2.3500    0.0930   -1.3700 C   0  0  0  0  0  0  0  0  0  0  0  0
    3.3720   -0.1720   -0.3700 C   0  0  0  0  0  0  0  0  0  0  0  0
    3.3520    0.1260    0.9240 N   0  0  0  0  0  0  0  0  0  0  0  0
    4.4610   -0.2670    1.5340 C   0  0  0  0  0  0  0  0  0  0  0  0
    5.2230   -0.8550    0.5280 C   0  0  0  0  0  0  0  0  0  0  0  0
    6.5690   -1.4490    0.7470 C   0  0  0  0  0  0  0  0  0  0  0  0
    4.5320   -0.7690   -0.5650 O   0  0  0  0  0  0  0  0  0  0  0  0
   -3.7000    0.5080    0.5170 C   0  0  0  0  0  0  0  0  0  0  0  0
  1  2  1  0
  2  3  2  0
  2 25  1  0
  3  4  1  0
  4  5  1  0
  4  6  2  0
  6  7  1  0
  7  8  1  0
  7 25  2  0
  8  9  1  0
  9 10  1  0
  9 13  1  0
 10 11  2  0
 11 12  1  0
 12 13  2  0
 13 14  1  0
 14 15  1  0
 14 18  2  0
 15 16  2  0
 16 17  1  0
 17 18  1  0
 18 19  1  0
 19 20  2  0
 19 24  1  0
 20 21  1  0
 21 22  2  0
 22 23  1  0
 22 24  1  0
M  END
