
     RDKit          3D

 25 28  0  0  0  0  0  0  0  0999 V2000
   -2.4050    3.0610   -0.7230 C   0  0  0  0  0  0  0  0  0  0  0  0
   -1.9620    1.9710    0.1280 N   0  0  0  0  0  0  0  0  0  0  0  0
   -2.4900    0.6480   -0.0290 C   0  0  0  0  0  0  0  0  0  0  0  0
   -3.4810    0.5180   -0.9660 N   0  0  0  0  0  0  0  0  0  0  0  0
   -4.1040   -0.6500   -1.1830 C   0  0  0  0  0  0  0  0  0  0  0  0
   -5.0880   -1.0630   -2.0140 N   0  0  0  0  0  0  0  0  0  0  0  0
   -5.3390   -2.3660   -1.8160 C   0  0  0  0  0  0  0  0  0  0  0  0
   -4.5000   -2.7670   -0.8500 N   0  0  0  0  0  0  0  0  0  0  0  0
   -3.7590   -1.7310   -0.4730 N   0  0  0  0  0  0  0  0  0  0  0  0
   -2.7780   -1.6320    0.4630 C   0  0  0  0  0  0  0  0  0  0  0  0
   -2.3940   -2.8010    1.2480 C   0  0  0  0  0  0  0  0  0  0  0  0
   -2.1050   -0.4340    0.7170 C   0  0  0  0  0  0  0  0  0  0  0  0
   -1.0250   -0.3090    1.6720 C   0  0  0  0  0  0  0  0  0  0  0  0
    0.3200   -0.3810    1.2390 N   0  0  0  0  0  0  0  0  0  0  0  0
    0.9990   -1.5260    1.1620 C   0  0  0  0  0  0  0  0  0  0  0  0
    2.2610   -1.2810    0.7260 C   0  0  0  0  0  0  0  0  0  0  0  0
    2.4010    0.0710    0.5150 C   0  0  0  0  0  0  0  0  0  0  0  0
    3.6330    0.7390    0.0430 C   0  0  0  0  0  0  0  0  0  0  0  0
    4.7200    0.0110   -0.1920 C   0  0  0  0  0  0  0  0  0  0  0  0
    6.0200    0.4920   -0.6590 C   0  0  0  0  0  0  0  0  0  0  0  0
    6.0160    1.8590   -0.8470 O   0  0  0  0  0  0  0  0  0  0  0  0
    4.9230    2.6550   -0.6210 C   0  0  0  0  0  0  0  0  0  0  0  0
    3.7410    2.1620   -0.1880 C   0  0  0  0  0  0  0  0  0  0  0  0
    2.4320    3.2700    0.0590 Cl  0  0  0  0  0  0  0  0  0  0  0  0
    1.1660    0.5820    0.8490 C   0  0  0  0  0  0  0  0  0  0  0  0
  1  2  1  0
  2  3  1  0
  3  4  2  0
  3 12  1  0
  4  5  1  0
  5  6  2  0
  5  9  1  0
  6  7  1  0
  7  8  2  0
  8  9  1  0
  9 10  1  0
 10 11  1  0
 10 12  2  0
 12 13  1  0
 13 14  1  0
 14 15  1  0
 14 25  1  0
 15 16  2  0
 16 17  1  0
 17 18  1  0
 17 25  2  0
 18 19  2  0
 18 23  1  0
 19 20  1  0
 20 21  1  0
 21 22  1  0
 22 23  2  0
 23 24  1  0
M  END
