
     RDKit          3D

 25 26  0  0  0  0  0  0  0  0999 V2000
   -1.0930   -0.1920   -0.8000 O   0  0  0  0  0  0  0  0  0  0  0  0
   -1.0340    0.5650   -1.6470 C   0  0  0  0  0  0  0  0  0  0  0  0
   -1.7260    1.8260   -2.0050 C   0  0  0  0  0  0  0  0  0  0  0  0
   -2.6030    2.2330   -0.9740 N   0  0  0  0  0  0  0  0  0  0  0  0
   -3.7130    1.5000   -0.4910 C   0  0  0  0  0  0  0  0  0  0  0  0
   -4.0550    0.4000   -0.9660 O   0  0  0  0  0  0  0  0  0  0  0  0
   -4.4850    2.0580    0.6270 C   0  0  0  0  0  0  0  0  0  0  0  0
   -4.3030    3.1470    1.2650 C   0  0  0  0  0  0  0  0  0  0  0  0
   -5.2570    3.3230    2.2680 O   0  0  0  0  0  0  0  0  0  0  0  0
   -5.6880    1.9960    2.5830 C   0  0  2  0  0  0  0  0  0  0  0  0
   -4.5990    1.3080    3.4010 C   0  0  0  0  0  0  0  0  0  0  0  0
   -3.1520    1.2130    2.4140 Cl  0  0  0  0  0  0  0  0  0  0  0  0
   -5.6310    1.4080    1.2170 N   0  0  0  0  0  0  0  0  0  0  0  0
    0.1560    0.2660   -2.8770 N   0  0  0  0  0  0  0  0  0  0  0  0
    0.6580   -1.0540   -2.2410 C   0  0  0  0  0  0  0  0  0  0  0  0
    0.1690   -1.6570   -1.3990 O   0  0  0  0  0  0  0  0  0  0  0  0
    1.8980   -1.4160   -2.9160 N   0  0  0  0  0  0  0  0  0  0  0  0
    2.6570   -2.5610   -2.5840 C   0  0  0  0  0  0  0  0  0  0  0  0
    3.1070   -2.6210   -1.1480 C   0  0  0  0  0  0  0  0  0  0  0  0
    3.9200   -1.4120   -0.7820 C   0  0  0  0  0  0  0  0  0  0  0  0
    4.3690   -1.4370    0.5700 N   0  0  0  0  0  0  0  0  0  0  0  0
    3.7770   -0.9990    1.6700 C   0  0  0  0  0  0  0  0  0  0  0  0
    4.6540   -1.2290    2.7260 C   0  0  0  0  0  0  0  0  0  0  0  0
    5.7250   -1.7880    2.2410 N   0  0  0  0  0  0  0  0  0  0  0  0
    5.6170   -1.9530    0.9040 C   0  0  0  0  0  0  0  0  0  0  0  0
  1  2  2  0
  2  3  1  0
  2 14  1  0
  3  4  1  0
  4  5  1  0
  5  6  2  0
  5  7  1  0
  7  8  2  0
  7 13  1  0
  8  9  1  0
  9 10  1  0
 10 11  1  1
 10 13  1  0
 11 12  1  0
 14 15  1  0
 15 16  2  0
 15 17  1  0
 17 18  1  0
 18 19  1  0
 19 20  1  0
 20 21  1  0
 21 22  1  0
 21 25  1  0
 22 23  2  0
 23 24  1  0
 24 25  2  0
M  CHG  1  24   1
M  END
