
     RDKit          3D

 25 27  0  0  0  0  0  0  0  0999 V2000
   -5.6350    0.8400   -0.8070 C   0  0  0  0  0  0  0  0  0  0  0  0
   -4.6950    0.0660    0.0880 C   0  0  2  0  0  0  0  0  0  0  0  0
   -5.1220   -1.3790    0.2410 C   0  0  0  0  0  0  0  0  0  0  0  0
   -4.5260    0.7140    1.3630 N   0  0  0  0  0  0  0  0  0  0  0  0
   -3.1770    1.1130    1.5590 C   0  0  0  0  0  0  0  0  0  0  0  0
   -2.6860    1.6940    2.5600 O   0  0  0  0  0  0  0  0  0  0  0  0
   -2.4700    0.7220    0.3840 N   0  0  0  0  0  0  0  0  0  0  0  0
   -1.0770    0.9190    0.1290 C   0  0  0  0  0  0  0  0  0  0  0  0
   -0.2620   -0.2660    0.6230 C   0  0  1  0  0  0  0  0  0  0  0  0
   -0.6540   -1.4900   -0.0260 N   0  0  0  0  0  0  0  0  0  0  0  0
    1.1810   -0.0320    0.2990 C   0  0  0  0  0  0  0  0  0  0  0  0
    1.7050    1.1670   -0.0850 N   0  0  0  0  0  0  0  0  0  0  0  0
    3.0150    0.9760   -0.2830 C   0  0  0  0  0  0  0  0  0  0  0  0
    3.9880    1.9970   -0.7080 C   0  0  0  0  0  0  0  0  0  0  0  0
    3.3980    3.2450   -0.8970 O   0  0  0  0  0  0  0  0  0  0  0  0
    3.2890   -0.3100   -0.0260 N   0  0  0  0  0  0  0  0  0  0  0  0
    4.5910   -0.8770   -0.1320 C   0  0  0  0  0  0  0  0  0  0  0  0
    5.4600   -0.9890    0.9340 C   0  0  0  0  0  0  0  0  0  0  0  0
    6.6180   -1.5800    0.4710 C   0  0  0  0  0  0  0  0  0  0  0  0
    6.4080   -1.8080   -0.8720 C   0  0  0  0  0  0  0  0  0  0  0  0
    7.5920   -2.5560   -1.9560 Cl  0  0  0  0  0  0  0  0  0  0  0  0
    5.2220   -1.3790   -1.1490 O   0  0  0  0  0  0  0  0  0  0  0  0
    2.1590   -0.9250    0.3310 N   0  0  0  0  0  0  0  0  0  0  0  0
   -3.3600    0.0870   -0.5370 C   0  0  0  0  0  0  0  0  0  0  0  0
   -3.0810   -0.3760   -1.6760 O   0  0  0  0  0  0  0  0  0  0  0  0
  2  1  1  6
  2  3  1  0
  2  4  1  0
  2 24  1  0
  4  5  1  0
  5  6  2  0
  5  7  1  0
  7  8  1  0
  7 24  1  0
  8  9  1  0
  9 10  1  6
  9 11  1  0
 11 12  1  0
 11 23  2  0
 12 13  2  0
 13 14  1  0
 13 16  1  0
 14 15  1  0
 16 17  1  0
 16 23  1  0
 17 18  2  0
 17 22  1  0
 18 19  1  0
 19 20  2  0
 20 21  1  0
 20 22  1  0
 24 25  2  0
M  CHG  1  10   1
M  END
