
     RDKit          3D

 25 26  0  0  0  0  0  0  0  0999 V2000
   -0.5440   -0.3010   -3.3360 C   0  0  0  0  0  0  0  0  0  0  0  0
   -1.3240   -0.2470   -2.0350 C   0  0  0  0  0  0  0  0  0  0  0  0
   -0.7590   -1.1700   -0.9980 C   0  0  2  0  0  0  0  0  0  0  0  0
    0.6120   -0.7880   -0.7060 N   0  0  0  0  0  0  0  0  0  0  0  0
    0.9620   -1.0710    0.6740 C   0  0  0  0  0  0  0  0  0  0  0  0
    2.1920   -0.3020    1.0090 C   0  0  0  0  0  0  0  0  0  0  0  0
    2.7740    0.4590    0.1500 N   0  0  0  0  0  0  0  0  0  0  0  0
    3.9350    1.2160    0.3840 C   0  0  0  0  0  0  0  0  0  0  0  0
    4.4950    1.9880   -0.5460 C   0  0  0  0  0  0  0  0  0  0  0  0
    3.7290    2.0400   -2.1160 Cl  0  0  0  0  0  0  0  0  0  0  0  0
    4.5420    1.1600    1.6630 N   0  0  0  0  0  0  0  0  0  0  0  0
    3.9480    0.3380    2.6600 C   0  0  0  0  0  0  0  0  0  0  0  0
    4.4600    0.2580    3.8260 O   0  0  0  0  0  0  0  0  0  0  0  0
    2.7720   -0.3830    2.3050 N   0  0  0  0  0  0  0  0  0  0  0  0
   -0.8140   -2.5900   -1.4580 C   0  0  0  0  0  0  0  0  0  0  0  0
   -0.7460   -3.0540   -2.6210 O   0  0  0  0  0  0  0  0  0  0  0  0
   -0.9620   -3.3470   -0.3160 O   0  0  0  0  0  0  0  0  0  0  0  0
   -1.4400   -2.5750    0.7250 C   0  0  0  0  0  0  0  0  0  0  0  0
   -1.7030   -2.8930    1.9100 O   0  0  0  0  0  0  0  0  0  0  0  0
   -1.6120   -1.1870    0.1900 C   0  0  0  0  0  0  0  0  0  0  0  0
   -2.3850   -0.2900    0.7920 C   0  0  0  0  0  0  0  0  0  0  0  0
   -3.1150   -0.6460    1.9840 N   0  0  0  0  0  0  0  0  0  0  0  0
   -2.5700    1.0470    0.3790 N   0  0  0  0  0  0  0  0  0  0  0  0
   -1.6130    2.0520    0.8240 C   0  0  0  0  0  0  0  0  0  0  0  0
   -3.6930    1.4300   -0.4480 C   0  0  0  0  0  0  0  0  0  0  0  0
  1  2  1  0
  3  2  1  6
  3  4  1  0
  3 15  1  0
  3 20  1  0
  4  5  1  0
  5  6  1  0
  6  7  2  0
  6 14  1  0
  7  8  1  0
  8  9  2  3
  8 11  1  0
  9 10  1  0
 11 12  1  0
 12 13  2  0
 12 14  1  0
 15 16  2  0
 15 17  1  0
 17 18  1  0
 18 19  2  0
 18 20  1  0
 20 21  2  3
 21 22  1  0
 21 23  1  0
 23 24  1  0
 23 25  1  0
M  CHG  1   4   1
M  END
