
     RDKit          3D

 24 27  0  0  0  0  0  0  0  0999 V2000
   -0.0520   -3.8260   -0.2290 C   0  0  0  0  0  0  0  0  0  0  0  0
    0.0950   -2.7210    0.7900 C   0  0  0  0  0  0  0  0  0  0  0  0
   -0.7700   -1.5590    0.3910 C   0  0  0  0  0  0  0  0  0  0  0  0
   -1.9620   -1.2820    0.9620 N   0  0  0  0  0  0  0  0  0  0  0  0
   -2.4900   -0.2220    0.4000 N   0  0  0  0  0  0  0  0  0  0  0  0
   -1.6890    0.2580   -0.5620 C   0  0  0  0  0  0  0  0  0  0  0  0
   -2.2800    1.3530   -1.1230 N   0  0  0  0  0  0  0  0  0  0  0  0
   -3.4540    1.5480   -0.5000 C   0  0  0  0  0  0  0  0  0  0  0  0
   -4.4530    2.4970   -0.6560 C   0  0  0  0  0  0  0  0  0  0  0  0
   -5.5740    2.4330    0.1590 C   0  0  0  0  0  0  0  0  0  0  0  0
   -5.6790    1.4280    1.1110 C   0  0  0  0  0  0  0  0  0  0  0  0
   -4.6830    0.5250    1.2290 N   0  0  0  0  0  0  0  0  0  0  0  0
   -3.5910    0.5620    0.4580 C   0  0  0  0  0  0  0  0  0  0  0  0
   -0.5810   -0.5980   -0.5710 C   0  0  0  0  0  0  0  0  0  0  0  0
    0.5620   -0.4790   -1.4740 C   0  0  0  0  0  0  0  0  0  0  0  0
    1.8180   -0.0080   -0.9300 C   0  0  0  0  0  0  0  0  0  0  0  0
    2.8760   -0.8920   -0.6810 C   0  0  0  0  0  0  0  0  0  0  0  0
    4.0850   -0.4820   -0.1730 C   0  0  0  0  0  0  0  0  0  0  0  0
    5.3990   -1.6080    0.1330 Cl  0  0  0  0  0  0  0  0  0  0  0  0
    4.2940    0.8470    0.1130 C   0  0  0  0  0  0  0  0  0  0  0  0
    5.6150    1.2800    0.6630 C   0  0  0  0  0  0  0  0  0  0  0  0
    3.2890    1.7300   -0.1170 C   0  0  0  0  0  0  0  0  0  0  0  0
    2.0610    1.2970   -0.6360 C   0  0  0  0  0  0  0  0  0  0  0  0
    0.8570    2.5050   -0.9000 Cl  0  0  0  0  0  0  0  0  0  0  0  0
  1  2  1  0
  2  3  1  0
  3  4  2  0
  3 14  1  0
  4  5  1  0
  5  6  1  0
  5 13  1  0
  6  7  1  0
  6 14  2  0
  7  8  1  0
  8  9  2  0
  8 13  1  0
  9 10  1  0
 10 11  2  0
 11 12  1  0
 12 13  2  0
 14 15  1  0
 15 16  1  0
 16 17  2  0
 16 23  1  0
 17 18  1  0
 18 19  1  0
 18 20  2  0
 20 21  1  0
 20 22  1  0
 22 23  2  0
 23 24  1  0
M  END
