
     RDKit          3D

 25 26  0  0  0  0  0  0  0  0999 V2000
   -4.8370    2.4320    0.9200 C   0  0  0  0  0  0  0  0  0  0  0  0
   -4.5860    1.2360    0.4630 C   0  0  0  0  0  0  0  0  0  0  0  0
   -5.6750    0.2290    0.2300 C   0  0  0  0  0  0  0  0  0  0  0  0
   -5.1020   -0.8310   -0.2160 C   0  0  0  0  0  0  0  0  0  0  0  0
   -5.9900   -2.3060   -0.6410 Cl  0  0  0  0  0  0  0  0  0  0  0  0
   -3.6790   -0.6280   -0.3080 C   0  0  0  0  0  0  0  0  0  0  0  0
   -2.7500   -1.6790   -0.7920 C   0  0  0  0  0  0  0  0  0  0  0  0
   -3.3380    0.6220    0.0990 C   0  0  0  0  0  0  0  0  0  0  0  0
   -2.0000    1.0130    0.0800 N   0  0  0  0  0  0  0  0  0  0  0  0
   -1.3410    2.1950    0.4260 C   0  0  0  0  0  0  0  0  0  0  0  0
   -2.0050    3.1500    0.8350 O   0  0  0  0  0  0  0  0  0  0  0  0
    0.1400    2.3930    0.3310 C   0  0  0  0  0  0  0  0  0  0  0  0
    0.8890    1.2660   -0.0790 N   0  0  0  0  0  0  0  0  0  0  0  0
    0.9800    0.0500    0.6510 C   0  0  0  0  0  0  0  0  0  0  0  0
    0.3610   -0.0350    1.7510 O   0  0  0  0  0  0  0  0  0  0  0  0
    1.7530   -1.0620    0.1650 N   0  0  0  0  0  0  0  0  0  0  0  0
    1.7950   -2.2650    0.9680 C   0  0  0  0  0  0  0  0  0  0  0  0
    2.4160   -0.9270   -1.0440 N   0  0  0  0  0  0  0  0  0  0  0  0
    3.6860   -0.7360   -1.0470 C   0  0  0  0  0  0  0  0  0  0  0  0
    4.5660   -0.6390    0.1100 C   0  0  0  0  0  0  0  0  0  0  0  0
    4.2810   -0.7180    1.3160 O   0  0  0  0  0  0  0  0  0  0  0  0
    5.8710   -0.4270   -0.4350 N   0  0  0  0  0  0  0  0  0  0  0  0
    5.7520   -0.4030   -1.8330 N   0  0  0  0  0  0  0  0  0  0  0  0
    4.5480   -0.5730   -2.2080 C   0  0  0  0  0  0  0  0  0  0  0  0
    4.1460   -0.5930   -3.5470 O   0  0  0  0  0  0  0  0  0  0  0  0
  1  2  2  0
  2  3  1  0
  2  8  1  0
  3  4  2  0
  4  5  1  0
  4  6  1  0
  6  7  1  0
  6  8  2  0
  8  9  1  0
  9 10  1  0
 10 11  2  0
 10 12  1  0
 12 13  1  0
 13 14  1  0
 14 15  2  0
 14 16  1  0
 16 17  1  0
 16 18  1  0
 18 19  2  3
 19 20  1  0
 19 24  1  0
 20 21  2  0
 20 22  1  0
 22 23  1  0
 23 24  2  0
 24 25  1  0
M  CHG  1  23   1
M  END
