
     RDKit          3D

 24 27  0  0  0  0  0  0  0  0999 V2000
    4.5020   -2.8850   -2.6940 Cl  0  0  0  0  0  0  0  0  0  0  0  0
    3.6920   -2.3900   -1.2120 C   0  0  0  0  0  0  0  0  0  0  0  0
    3.7660   -3.2170   -0.1100 C   0  0  0  0  0  0  0  0  0  0  0  0
    3.1390   -2.8560    1.0710 C   0  0  0  0  0  0  0  0  0  0  0  0
    3.1980   -3.8570    2.4910 Cl  0  0  0  0  0  0  0  0  0  0  0  0
    2.4410   -1.6600    1.1290 C   0  0  0  0  0  0  0  0  0  0  0  0
    2.3560   -0.8210    0.0370 C   0  0  0  0  0  0  0  0  0  0  0  0
    1.6280    0.4250    0.1000 N   0  0  0  0  0  0  0  0  0  0  0  0
    2.0870    1.6300    0.0960 N   0  0  0  0  0  0  0  0  0  0  0  0
    1.1120    2.5430    0.1640 C   0  0  0  0  0  0  0  0  0  0  0  0
    1.1360    3.9370    0.2180 C   0  0  0  0  0  0  0  0  0  0  0  0
   -0.0240    4.6620    0.3300 C   0  0  0  0  0  0  0  0  0  0  0  0
   -1.2180    3.9790    0.3880 C   0  0  0  0  0  0  0  0  0  0  0  0
   -1.2300    2.5920    0.3320 C   0  0  0  0  0  0  0  0  0  0  0  0
   -0.0800    1.8440    0.2160 C   0  0  0  0  0  0  0  0  0  0  0  0
    0.2540    0.5070    0.1720 C   0  0  0  0  0  0  0  0  0  0  0  0
   -0.5650   -0.6200    0.2900 N   0  0  0  0  0  0  0  0  0  0  0  0
   -1.8800   -0.8980   -0.0220 C   0  0  0  0  0  0  0  0  0  0  0  0
   -2.6900   -0.1680   -0.8420 C   0  0  0  0  0  0  0  0  0  0  0  0
   -4.0100   -0.5140   -1.0320 C   0  0  0  0  0  0  0  0  0  0  0  0
   -4.5740   -1.6050   -0.4110 C   0  0  0  0  0  0  0  0  0  0  0  0
   -3.7530   -2.3310    0.4070 C   0  0  0  0  0  0  0  0  0  0  0  0
   -2.4770   -1.9730    0.5750 N   0  0  0  0  0  0  0  0  0  0  0  0
    2.9930   -1.2170   -1.1150 C   0  0  0  0  0  0  0  0  0  0  0  0
  1  2  1  0
  2  3  2  0
  2 24  1  0
  3  4  1  0
  4  5  1  0
  4  6  2  0
  6  7  1  0
  7  8  1  0
  7 24  2  0
  8  9  1  0
  8 16  1  0
  9 10  2  0
 10 11  1  0
 10 15  1  0
 11 12  2  0
 12 13  1  0
 13 14  2  0
 14 15  1  0
 15 16  2  0
 16 17  1  0
 17 18  1  0
 18 19  2  0
 18 23  1  0
 19 20  1  0
 20 21  2  0
 21 22  1  0
 22 23  2  0
M  END
