
     RDKit          3D

 22 23  0  0  0  0  0  0  0  0999 V2000
   -5.3500    3.8760    1.1670 C   0  0  0  0  0  0  0  0  0  0  0  0
   -5.3950    2.4690    1.3040 O   0  0  0  0  0  0  0  0  0  0  0  0
   -4.2760    1.7380    0.9630 C   0  0  0  0  0  0  0  0  0  0  0  0
   -3.1320    2.3350    0.4980 C   0  0  0  0  0  0  0  0  0  0  0  0
   -2.0240    1.5890    0.1630 C   0  0  0  0  0  0  0  0  0  0  0  0
   -2.0180    0.2230    0.2790 C   0  0  0  0  0  0  0  0  0  0  0  0
   -0.9110   -0.6120   -0.0140 N   0  0  0  0  0  0  0  0  0  0  0  0
    0.4350   -0.2840    0.0140 C   0  0  0  0  0  0  0  0  0  0  0  0
    0.9290    1.1900    0.4860 S   0  0  0  0  0  0  0  0  0  0  0  0
    1.3990   -1.2970   -0.3440 N   0  0  0  0  0  0  0  0  0  0  0  0
    2.8050   -0.9890   -0.3340 C   0  0  0  0  0  0  0  0  0  0  0  0
    3.1160   -0.0480   -1.4530 C   0  0  0  0  0  0  0  0  0  0  0  0
    4.5940    0.3050   -1.4650 C   0  0  0  0  0  0  0  0  0  0  0  0
    5.3480   -0.9130   -1.6380 N   0  0  0  0  0  0  0  0  0  0  0  0
    5.8390   -1.7590   -0.7180 C   0  0  0  0  0  0  0  0  0  0  0  0
    6.4860   -2.7800   -1.3790 C   0  0  0  0  0  0  0  0  0  0  0  0
    6.3710   -2.5270   -2.6920 N   0  0  0  0  0  0  0  0  0  0  0  0
    5.6790   -1.3920   -2.8620 C   0  0  0  0  0  0  0  0  0  0  0  0
   -3.2010   -0.3710    0.7570 C   0  0  0  0  0  0  0  0  0  0  0  0
   -4.3100    0.3370    1.0960 C   0  0  0  0  0  0  0  0  0  0  0  0
   -5.4920   -0.1980    1.5680 O   0  0  0  0  0  0  0  0  0  0  0  0
   -5.7080   -1.5590    1.7670 C   0  0  0  0  0  0  0  0  0  0  0  0
  1  2  1  0
  2  3  1  0
  3  4  2  0
  3 20  1  0
  4  5  1  0
  5  6  2  0
  6  7  1  0
  6 19  1  0
  7  8  1  0
  8  9  2  0
  8 10  1  0
 10 11  1  0
 11 12  1  0
 12 13  1  0
 13 14  1  0
 14 15  1  0
 14 18  1  0
 15 16  2  0
 16 17  1  0
 17 18  2  0
 19 20  2  0
 20 21  1  0
 21 22  1  0
M  END
