
     RDKit          3D

 23 26  0  0  0  0  0  0  0  0999 V2000
   -6.3330    2.4060    1.6880 Cl  0  0  0  0  0  0  0  0  0  0  0  0
   -5.5340    1.3080    0.5790 C   0  0  0  0  0  0  0  0  0  0  0  0
   -4.2950    0.8990    0.8010 C   0  0  0  0  0  0  0  0  0  0  0  0
   -3.5070    1.5030    2.2410 Cl  0  0  0  0  0  0  0  0  0  0  0  0
   -3.6230   -0.0210   -0.1450 C   0  0  0  0  0  0  0  0  0  0  0  0
   -4.2410   -0.4720   -1.2940 C   0  0  0  0  0  0  0  0  0  0  0  0
   -3.3680   -1.3010   -1.9650 C   0  0  0  0  0  0  0  0  0  0  0  0
   -2.2320   -1.3260   -1.1880 C   0  0  0  0  0  0  0  0  0  0  0  0
   -2.3940   -0.5520   -0.0930 N   0  0  0  0  0  0  0  0  0  0  0  0
   -1.4550   -0.3340    0.9480 C   0  0  0  0  0  0  0  0  0  0  0  0
   -0.5900    0.7910    0.7990 N   0  0  0  0  0  0  0  0  0  0  0  0
    0.2860    0.8500    1.9430 C   0  0  0  0  0  0  0  0  0  0  0  0
    1.6280    1.4770    1.6050 C   0  0  0  0  0  0  0  0  0  0  0  0
    2.1970    0.6180    0.5360 C   0  0  0  0  0  0  0  0  0  0  0  0
    1.3630    0.3510   -0.5310 C   0  0  0  0  0  0  0  0  0  0  0  0
    2.0240   -0.4430   -1.4160 N   0  0  0  0  0  0  0  0  0  0  0  0
    3.2600   -0.6900   -0.9410 C   0  0  0  0  0  0  0  0  0  0  0  0
    4.3570   -1.4010   -1.3670 C   0  0  0  0  0  0  0  0  0  0  0  0
    5.5000   -1.4400   -0.6010 C   0  0  0  0  0  0  0  0  0  0  0  0
    5.5730   -0.7810    0.5870 C   0  0  0  0  0  0  0  0  0  0  0  0
    4.4980   -0.0890    0.9950 N   0  0  0  0  0  0  0  0  0  0  0  0
    3.3660   -0.0280    0.2760 C   0  0  0  0  0  0  0  0  0  0  0  0
    0.0110    0.9630   -0.4660 C   0  0  0  0  0  0  0  0  0  0  0  0
  1  2  1  0
  2  3  2  3
  3  4  1  0
  3  5  1  0
  5  6  2  0
  5  9  1  0
  6  7  1  0
  7  8  2  0
  8  9  1  0
  9 10  1  0
 10 11  1  0
 11 12  1  0
 11 23  1  0
 12 13  1  0
 13 14  1  0
 14 15  2  0
 14 22  1  0
 15 16  1  0
 15 23  1  0
 16 17  1  0
 17 18  2  0
 17 22  1  0
 18 19  1  0
 19 20  2  0
 20 21  1  0
 21 22  2  0
M  END
