
     RDKit          3D

 25 27  0  0  0  0  0  0  0  0999 V2000
    3.4890   -0.1290    0.9800 O   0  0  0  0  0  0  0  0  0  0  0  0
    2.7960    0.0820   -0.0600 C   0  0  0  0  0  0  0  0  0  0  0  0
    1.3990    0.3190    0.0420 N   0  0  0  0  0  0  0  0  0  0  0  0
    0.6640   -0.6810    0.4660 C   0  0  0  0  0  0  0  0  0  0  0  0
   -0.7260   -0.4140    0.5560 N   0  0  0  0  0  0  0  0  0  0  0  0
   -1.4750    0.2880   -0.4190 C   0  0  0  0  0  0  0  0  0  0  0  0
   -0.9610    0.7650   -1.5990 C   0  0  0  0  0  0  0  0  0  0  0  0
   -1.7140    1.4450   -2.5450 C   0  0  0  0  0  0  0  0  0  0  0  0
   -3.0110    1.6390   -2.2790 N   0  0  0  0  0  0  0  0  0  0  0  0
   -3.5570    1.1890   -1.1360 C   0  0  0  0  0  0  0  0  0  0  0  0
   -2.8220    0.5130   -0.1890 C   0  0  0  0  0  0  0  0  0  0  0  0
   -3.6930    0.1950    0.8590 O   0  0  0  0  0  0  0  0  0  0  0  0
   -4.7700    1.1380    0.7810 C   0  0  1  0  0  0  0  0  0  0  0  0
   -4.3950    2.4050    1.3670 N   0  0  0  0  0  0  0  0  0  0  0  0
   -5.4620    3.2260    1.2510 O   0  0  0  0  0  0  0  0  0  0  0  0
   -4.9010    1.2810   -0.6490 N   0  0  0  0  0  0  0  0  0  0  0  0
    1.2350   -1.9760    0.8210 C   0  0  0  0  0  0  0  0  0  0  0  0
    0.7630   -2.8680    1.7580 C   0  0  0  0  0  0  0  0  0  0  0  0
    1.6070   -3.9650    1.7710 C   0  0  0  0  0  0  0  0  0  0  0  0
    2.5690   -3.6820    0.8240 C   0  0  0  0  0  0  0  0  0  0  0  0
    2.3050   -2.5090    0.3000 O   0  0  0  0  0  0  0  0  0  0  0  0
    3.4720    0.0700   -1.3100 N   0  0  0  0  0  0  0  0  0  0  0  0
    4.8880   -0.1740   -1.3720 C   0  0  0  0  0  0  0  0  0  0  0  0
    5.7020    0.8370   -0.6100 C   0  0  0  0  0  0  0  0  0  0  0  0
    5.4680    2.4800   -1.2130 Cl  0  0  0  0  0  0  0  0  0  0  0  0
  1  2  2  0
  2  3  1  0
  2 22  1  0
  3  4  2  3
  4  5  1  0
  4 17  1  0
  5  6  1  0
  6  7  2  0
  6 11  1  0
  7  8  1  0
  8  9  2  0
  9 10  1  0
 10 11  2  0
 10 16  1  0
 11 12  1  0
 12 13  1  0
 13 14  1  1
 13 16  1  0
 14 15  1  0
 17 18  2  0
 17 21  1  0
 18 19  1  0
 19 20  2  0
 20 21  1  0
 22 23  1  0
 23 24  1  0
 24 25  1  0
M  CHG  1  16   1
M  END
