
     RDKit          3D

 23 25  0  0  0  0  0  0  0  0999 V2000
    3.4250    0.3340    2.0330 N   0  0  0  0  0  0  0  0  0  0  0  0
    3.8980   -0.3590    0.9250 N   0  0  0  0  0  0  0  0  0  0  0  0
    5.0240   -1.1130    0.8480 C   0  0  0  0  0  0  0  0  0  0  0  0
    5.1280   -1.6060   -0.3870 N   0  0  0  0  0  0  0  0  0  0  0  0
    4.0810   -1.1610   -1.0590 N   0  0  0  0  0  0  0  0  0  0  0  0
    3.3000   -0.3860   -0.2710 C   0  0  0  0  0  0  0  0  0  0  0  0
    2.0370    0.2650   -0.7010 C   0  0  2  0  0  0  0  0  0  0  0  0
    1.9410    1.7200   -0.3810 C   0  0  0  0  0  0  0  0  0  0  0  0
    0.8960    2.2520   -1.3630 C   0  0  0  0  0  0  0  0  0  0  0  0
   -0.1780    1.1830   -1.5630 C   0  0  0  0  0  0  0  0  0  0  0  0
   -0.3440    0.4410   -0.2950 N   0  0  0  0  0  0  0  0  0  0  0  0
   -1.4810   -0.3570   -0.2890 C   0  0  1  0  0  0  0  0  0  0  0  0
   -1.3720   -1.5900    0.5650 C   0  0  0  0  0  0  0  0  0  0  0  0
   -2.3840   -2.6430    0.1430 C   0  0  0  0  0  0  0  0  0  0  0  0
   -3.3360   -2.0500   -0.8650 C   0  0  0  0  0  0  0  0  0  0  0  0
   -3.7750   -0.7300   -0.3690 C   0  0  0  0  0  0  0  0  0  0  0  0
   -5.4610   -0.3680   -0.1930 Cl  0  0  0  0  0  0  0  0  0  0  0  0
   -2.8210    0.1850   -0.0540 C   0  0  0  0  0  0  0  0  0  0  0  0
   -3.2710    1.4450    0.4300 C   0  0  0  0  0  0  0  0  0  0  0  0
   -2.6260    2.4990    0.8410 C   0  0  0  0  0  0  0  0  0  0  0  0
   -3.2610    3.6470    1.2750 F   0  0  0  0  0  0  0  0  0  0  0  0
   -1.2930    2.5380    0.9160 F   0  0  0  0  0  0  0  0  0  0  0  0
    0.8270   -0.4250   -0.1030 C   0  0  0  0  0  0  0  0  0  0  0  0
  1  2  1  0
  2  3  1  0
  2  6  1  0
  3  4  2  0
  4  5  1  0
  5  6  2  0
  7  6  1  1
  7  8  1  0
  7 23  1  0
  8  9  1  0
  9 10  1  0
 10 11  1  0
 12 11  1  1
 11 23  1  0
 12 13  1  0
 12 18  1  0
 13 14  1  0
 14 15  1  0
 15 16  1  0
 16 17  1  0
 16 18  2  0
 18 19  1  0
 19 20  2  3
 20 21  1  0
 20 22  1  0
M  END
