
     RDKit          3D

 24 26  0  0  0  0  0  0  0  0999 V2000
   -3.5580   -2.5920    0.3100 C   0  0  0  0  0  0  0  0  0  0  0  0
   -4.0700   -1.2160    0.1510 C   0  0  0  0  0  0  0  0  0  0  0  0
   -3.3160   -0.1470    0.2980 C   0  0  0  0  0  0  0  0  0  0  0  0
   -1.8810   -0.3660    0.6420 C   0  0  0  0  0  0  0  0  0  0  0  0
   -0.9880    0.1760   -0.3570 N   0  0  0  0  0  0  0  0  0  0  0  0
    0.3990    0.0780   -0.1980 C   0  0  0  0  0  0  0  0  0  0  0  0
    1.0510   -0.5060    0.8520 N   0  0  0  0  0  0  0  0  0  0  0  0
    2.3910   -0.4160    0.6680 C   0  0  0  0  0  0  0  0  0  0  0  0
    2.5510    0.2280   -0.5040 C   0  0  0  0  0  0  0  0  0  0  0  0
    1.3670    0.5550   -1.0800 C   0  0  0  0  0  0  0  0  0  0  0  0
    1.7370    1.2210   -2.2960 N   0  0  0  0  0  0  0  0  0  0  0  0
    3.0670    1.2390   -2.3490 C   0  0  0  0  0  0  0  0  0  0  0  0
    3.6090    0.5810   -1.1620 C   0  0  0  0  0  0  0  0  0  0  0  0
    4.9530    0.2460   -0.5750 C   0  0  0  0  0  0  0  0  0  0  0  0
    4.7500   -0.4440    0.6830 N   0  0  0  0  0  0  0  0  0  0  0  0
    5.9280   -0.8650    1.4290 C   0  0  0  0  0  0  0  0  0  0  0  0
    3.4970   -0.7560    1.2690 N   0  0  0  0  0  0  0  0  0  0  0  0
   -3.8730    1.1760    0.1310 C   0  0  0  0  0  0  0  0  0  0  0  0
   -3.1120    2.2480    0.2820 C   0  0  0  0  0  0  0  0  0  0  0  0
   -3.7280    3.8740    0.0920 Cl  0  0  0  0  0  0  0  0  0  0  0  0
   -5.2920    1.3380   -0.2060 C   0  0  1  0  0  0  0  0  0  0  0  0
   -5.6530    0.7280   -1.3920 F   0  0  0  0  0  0  0  0  0  0  0  0
   -6.0620    0.7890    0.8010 F   0  0  0  0  0  0  0  0  0  0  0  0
   -5.6550    2.6760   -0.3030 F   0  0  0  0  0  0  0  0  0  0  0  0
  1  2  1  0
  2  3  2  3
  3  4  1  0
  3 18  1  0
  4  5  1  0
  5  6  1  0
  6  7  1  0
  6 10  2  0
  7  8  1  0
  8  9  1  0
  8 17  2  0
  9 10  1  0
  9 13  2  0
 10 11  1  0
 11 12  2  0
 12 13  1  0
 13 14  1  0
 14 15  1  0
 15 16  1  0
 15 17  1  0
 18 19  2  3
 18 21  1  0
 19 20  1  0
 21 22  1  6
 21 23  1  0
 21 24  1  0
M  END
