
     RDKit          3D

 24 26  0  0  0  0  0  0  0  0999 V2000
    4.6800   -2.4680    1.6930 N   0  0  0  0  0  0  0  0  0  0  0  0
    4.6530   -1.6850    0.8660 C   0  0  0  0  0  0  0  0  0  0  0  0
    4.6320   -0.6710   -0.1790 C   0  0  2  0  0  0  0  0  0  0  0  0
    3.4530   -0.6750   -1.0140 N   0  0  0  0  0  0  0  0  0  0  0  0
    2.1730   -0.4660   -0.4340 C   0  0  0  0  0  0  0  0  0  0  0  0
    1.8900   -0.2500    0.8800 N   0  0  0  0  0  0  0  0  0  0  0  0
    0.5740   -0.1000    1.0180 N   0  0  0  0  0  0  0  0  0  0  0  0
   -0.0050   -0.2140   -0.1890 C   0  0  0  0  0  0  0  0  0  0  0  0
   -1.4640   -0.1120   -0.4960 C   0  0  0  0  0  0  0  0  0  0  0  0
   -2.2910    0.1090    0.4720 C   0  0  0  0  0  0  0  0  0  0  0  0
   -3.7400    0.2360    0.3460 C   0  0  0  0  0  0  0  0  0  0  0  0
   -4.4280    0.4640    1.4570 C   0  0  0  0  0  0  0  0  0  0  0  0
   -5.8700    0.6200    1.5340 C   0  0  2  0  0  0  0  0  0  0  0  0
   -6.1210    1.9050    2.0670 F   0  0  0  0  0  0  0  0  0  0  0  0
   -6.3770   -0.3230    2.4400 F   0  0  0  0  0  0  0  0  0  0  0  0
   -6.6030    0.5000    0.2680 C   0  0  0  0  0  0  0  0  0  0  0  0
   -5.7890    0.2490   -0.9300 C   0  0  0  0  0  0  0  0  0  0  0  0
   -6.6110    0.1060   -2.4700 Cl  0  0  0  0  0  0  0  0  0  0  0  0
   -4.4560    0.1240   -0.9060 C   0  0  0  0  0  0  0  0  0  0  0  0
   -3.7960   -0.1060   -2.0540 F   0  0  0  0  0  0  0  0  0  0  0  0
    0.9850   -0.4370   -1.0640 N   0  0  0  0  0  0  0  0  0  0  0  0
    5.9320   -0.4880   -0.9320 C   0  0  0  0  0  0  0  0  0  0  0  0
    6.3300    0.5340    0.1220 C   0  0  0  0  0  0  0  0  0  0  0  0
    4.8350    0.7520    0.3580 C   0  0  0  0  0  0  0  0  0  0  0  0
  1  2  3  0
  3  2  1  1
  3  4  1  0
  3 22  1  0
  3 24  1  0
  4  5  1  0
  5  6  2  0
  5 21  1  0
  6  7  1  0
  7  8  2  0
  8  9  1  0
  8 21  1  0
  9 10  2  3
 10 11  1  0
 11 12  2  0
 11 19  1  0
 12 13  1  0
 13 14  1  1
 13 15  1  0
 13 16  1  0
 16 17  1  0
 17 18  1  0
 17 19  2  0
 19 20  1  0
 22 23  1  0
 23 24  1  0
M  END
