
     RDKit          3D

 24 26  0  0  0  0  0  0  0  0999 V2000
   -5.0910    0.1940   -1.7410 C   0  0  0  0  0  0  0  0  0  0  0  0
   -4.2290    0.0870   -0.6160 N   0  0  0  0  0  0  0  0  0  0  0  0
   -4.8850    0.0950    0.6510 C   0  0  0  0  0  0  0  0  0  0  0  0
   -3.1960   -0.8850   -0.7340 C   0  0  0  0  0  0  0  0  0  0  0  0
   -2.4640   -0.8070    0.5160 N   0  0  0  0  0  0  0  0  0  0  0  0
   -1.4150   -1.6070    0.7090 C   0  0  0  0  0  0  0  0  0  0  0  0
   -0.1170   -2.1790    0.9200 C   0  0  0  0  0  0  0  0  0  0  0  0
    0.7830   -1.0060    1.0600 N   0  0  0  0  0  0  0  0  0  0  0  0
    0.5860    0.2690    0.4180 C   0  0  0  0  0  0  0  0  0  0  0  0
   -0.6630    0.9050    0.3080 C   0  0  0  0  0  0  0  0  0  0  0  0
   -0.3440    2.0880   -0.2920 N   0  0  0  0  0  0  0  0  0  0  0  0
    0.9360    2.1560   -0.5170 N   0  0  0  0  0  0  0  0  0  0  0  0
    1.5870    1.0490   -0.0990 C   0  0  0  0  0  0  0  0  0  0  0  0
    2.9810    0.6650   -0.2460 C   0  0  0  0  0  0  0  0  0  0  0  0
    3.4080   -0.5640   -0.2100 C   0  0  0  0  0  0  0  0  0  0  0  0
    4.8400   -0.8980   -0.3590 C   0  0  1  0  0  0  0  0  0  0  0  0
    5.2060   -1.6080    0.7900 F   0  0  0  0  0  0  0  0  0  0  0  0
    4.9600   -1.8080   -1.4080 F   0  0  0  0  0  0  0  0  0  0  0  0
    5.7670    0.2350   -0.5260 C   0  0  0  0  0  0  0  0  0  0  0  0
    5.1990    1.5810   -0.5520 C   0  0  0  0  0  0  0  0  0  0  0  0
    6.2660    2.9960   -0.7650 Cl  0  0  0  0  0  0  0  0  0  0  0  0
    3.9210    1.7940   -0.4250 C   0  0  0  0  0  0  0  0  0  0  0  0
    3.5090    3.0910   -0.4510 F   0  0  0  0  0  0  0  0  0  0  0  0
   -2.0440    0.6070    0.6530 C   0  0  0  0  0  0  0  0  0  0  0  0
  1  2  1  0
  2  3  1  0
  2  4  1  0
  4  5  1  0
  5  6  1  0
  5 24  1  0
  6  7  1  0
  7  8  1  0
  8  9  1  0
  9 10  1  0
  9 13  2  0
 10 11  2  0
 10 24  1  0
 11 12  1  0
 12 13  1  0
 13 14  1  0
 14 15  2  0
 14 22  1  0
 15 16  1  0
 16 17  1  1
 16 18  1  0
 16 19  1  0
 19 20  1  0
 20 21  1  0
 20 22  2  0
 22 23  1  0
M  END
