
     RDKit          3D

 24 26  0  0  0  0  0  0  0  0999 V2000
    2.5270   -4.1530   -0.7090 F   0  0  0  0  0  0  0  0  0  0  0  0
    1.3160   -3.8830   -1.3250 C   0  0  1  0  0  0  0  0  0  0  0  0
    1.5360   -3.8750   -2.6940 F   0  0  0  0  0  0  0  0  0  0  0  0
    0.3890   -4.8720   -1.0850 F   0  0  0  0  0  0  0  0  0  0  0  0
    0.7650   -2.5920   -0.8590 C   0  0  0  0  0  0  0  0  0  0  0  0
   -0.4160   -2.6900   -0.2700 C   0  0  0  0  0  0  0  0  0  0  0  0
   -1.2290   -1.6410    0.2950 N   0  0  0  0  0  0  0  0  0  0  0  0
   -0.9080   -0.2700    0.3250 C   0  0  0  0  0  0  0  0  0  0  0  0
   -1.8710    0.5690    0.9340 N   0  0  0  0  0  0  0  0  0  0  0  0
   -3.1480    0.8470    0.3650 C   0  0  0  0  0  0  0  0  0  0  0  0
   -4.2260    0.1170    0.5740 C   0  0  0  0  0  0  0  0  0  0  0  0
   -5.3550    0.7030   -0.1740 C   0  0  0  0  0  0  0  0  0  0  0  0
   -4.7610    1.8770   -0.8420 C   0  0  0  0  0  0  0  0  0  0  0  0
   -3.4850    1.9510   -0.5240 C   0  0  0  0  0  0  0  0  0  0  0  0
    0.1610    0.3460   -0.1320 C   0  0  0  0  0  0  0  0  0  0  0  0
    0.2310    2.0760    0.0770 Cl  0  0  0  0  0  0  0  0  0  0  0  0
    1.3550   -0.1970   -0.8160 C   0  0  0  0  0  0  0  0  0  0  0  0
    2.3400    0.7570   -1.1820 N   0  0  0  0  0  0  0  0  0  0  0  0
    3.2120    1.1440   -0.2770 C   0  0  0  0  0  0  0  0  0  0  0  0
    4.2800    2.0870   -0.4290 C   0  0  0  0  0  0  0  0  0  0  0  0
    4.9370    2.2140    0.6970 C   0  0  0  0  0  0  0  0  0  0  0  0
    4.3350    1.3370    1.7140 C   0  0  0  0  0  0  0  0  0  0  0  0
    3.2460    0.6740    1.0640 N   0  0  0  0  0  0  0  0  0  0  0  0
    1.5610   -1.4300   -1.0980 N   0  0  0  0  0  0  0  0  0  0  0  0
  2  1  1  1
  2  3  1  0
  2  4  1  0
  2  5  1  0
  5  6  2  0
  5 24  1  0
  6  7  1  0
  7  8  1  0
  8  9  1  0
  8 15  2  0
  9 10  1  0
 10 11  2  0
 10 14  1  0
 11 12  1  0
 12 13  1  0
 13 14  2  0
 15 16  1  0
 15 17  1  0
 17 18  1  0
 17 24  2  0
 18 19  2  3
 19 20  1  0
 19 23  1  0
 20 21  2  0
 21 22  1  0
 22 23  1  0
M  END
