
     RDKit          3D

 21 23  0  0  0  0  0  0  0  0999 V2000
    5.6610    1.8970   -0.0900 C   0  0  0  0  0  0  0  0  0  0  0  0
    4.0370    2.3420   -0.6140 S   0  0  0  0  0  0  0  0  0  0  0  0
    2.8640    0.9200   -0.5260 C   0  0  0  0  0  0  0  0  0  0  0  0
    1.5850    1.2680   -0.4130 N   0  0  0  0  0  0  0  0  0  0  0  0
    0.6490    0.2930   -0.1160 C   0  0  0  0  0  0  0  0  0  0  0  0
   -0.8100    0.5170   -0.0530 C   0  0  0  0  0  0  0  0  0  0  0  0
   -1.1850    1.3730    0.9550 C   0  0  0  0  0  0  0  0  0  0  0  0
   -2.5020    1.6440    1.1010 C   0  0  0  0  0  0  0  0  0  0  0  0
   -3.4610    1.1200    0.2940 C   0  0  0  0  0  0  0  0  0  0  0  0
   -4.8830    1.3760    0.6230 C   0  0  0  0  0  0  0  0  0  0  0  0
   -3.0510    0.2820   -0.7140 C   0  0  0  0  0  0  0  0  0  0  0  0
   -1.6980   -0.0260   -0.8870 C   0  0  0  0  0  0  0  0  0  0  0  0
   -1.3500   -0.9710   -1.9500 C   0  0  0  0  0  0  0  0  0  0  0  0
    1.1120   -1.0040    0.0300 C   0  0  0  0  0  0  0  0  0  0  0  0
    0.3910   -2.1610    0.4510 C   0  0  0  0  0  0  0  0  0  0  0  0
   -0.8770   -2.0860    1.1530 C   0  0  0  0  0  0  0  0  0  0  0  0
   -1.9510   -2.0120    1.7480 N   0  0  0  0  0  0  0  0  0  0  0  0
    1.3180   -3.1370    0.4540 C   0  0  0  0  0  0  0  0  0  0  0  0
    2.5350   -2.6070    0.1130 N   0  0  0  0  0  0  0  0  0  0  0  0
    2.4340   -1.2850   -0.1330 C   0  0  0  0  0  0  0  0  0  0  0  0
    3.3540   -0.3100   -0.4240 N   0  0  0  0  0  0  0  0  0  0  0  0
  1  2  1  0
  2  3  1  0
  3  4  2  0
  3 21  1  0
  4  5  1  0
  5  6  1  0
  5 14  2  0
  6  7  2  0
  6 12  1  0
  7  8  1  0
  8  9  2  0
  9 10  1  0
  9 11  1  0
 11 12  2  0
 12 13  1  0
 14 15  1  0
 14 20  1  0
 15 16  1  0
 15 18  2  0
 16 17  3  0
 18 19  1  0
 19 20  1  0
 20 21  2  0
M  END
