
     RDKit          3D

 24 27  0  0  0  0  0  0  0  0999 V2000
   -1.9670    3.1180    0.1820 F   0  0  0  0  0  0  0  0  0  0  0  0
   -1.9840    1.7740    0.0700 C   0  0  0  0  0  0  0  0  0  0  0  0
   -0.8090    1.1140   -0.2330 C   0  0  0  0  0  0  0  0  0  0  0  0
   -0.7810   -0.2490   -0.3560 C   0  0  0  0  0  0  0  0  0  0  0  0
   -1.9860   -0.9370   -0.1630 C   0  0  0  0  0  0  0  0  0  0  0  0
   -2.2090   -2.2560   -0.2290 N   0  0  0  0  0  0  0  0  0  0  0  0
   -3.5020   -2.5110    0.0190 C   0  0  0  0  0  0  0  0  0  0  0  0
   -4.1290   -1.2960    0.2550 C   0  0  0  0  0  0  0  0  0  0  0  0
   -3.1810   -0.3000    0.1420 C   0  0  0  0  0  0  0  0  0  0  0  0
   -3.1690    1.0740    0.2580 C   0  0  0  0  0  0  0  0  0  0  0  0
   -4.4090    1.7950    0.5790 C   0  0  2  0  0  0  0  0  0  0  0  0
   -5.5050    1.0040    0.7400 F   0  0  0  0  0  0  0  0  0  0  0  0
   -4.6610    2.7980   -0.3750 F   0  0  0  0  0  0  0  0  0  0  0  0
   -4.0930    2.7170    2.0970 Cl  0  0  0  0  0  0  0  0  0  0  0  0
    0.3960   -0.9890   -0.6660 N   0  0  0  0  0  0  0  0  0  0  0  0
    1.5070   -0.3660   -0.8440 C   0  0  0  0  0  0  0  0  0  0  0  0
    2.7750   -1.1010   -1.1730 C   0  0  0  0  0  0  0  0  0  0  0  0
    3.7750   -0.8690   -0.1760 N   0  0  0  0  0  0  0  0  0  0  0  0
    4.6780    0.1350   -0.2020 C   0  0  0  0  0  0  0  0  0  0  0  0
    5.4360   -0.0150    0.9340 C   0  0  0  0  0  0  0  0  0  0  0  0
    4.9880   -1.0740    1.6020 N   0  0  0  0  0  0  0  0  0  0  0  0
    3.9550   -1.6170    0.9270 C   0  0  0  0  0  0  0  0  0  0  0  0
    1.5270    1.0280   -0.7290 N   0  0  0  0  0  0  0  0  0  0  0  0
    0.4440    1.8900   -0.4280 C   0  0  0  0  0  0  0  0  0  0  0  0
  1  2  1  0
  2  3  2  0
  2 10  1  0
  3  4  1  0
  3 24  1  0
  4  5  2  0
  4 15  1  0
  5  6  1  0
  5  9  1  0
  6  7  1  0
  7  8  2  0
  8  9  1  0
  9 10  2  0
 10 11  1  0
 11 12  1  1
 11 13  1  0
 11 14  1  0
 15 16  2  0
 16 17  1  0
 16 23  1  0
 17 18  1  0
 18 19  1  0
 18 22  1  0
 19 20  2  0
 20 21  1  0
 21 22  2  0
 23 24  1  0
M  END
