
     RDKit          3D

 24 26  0  0  0  0  0  0  0  0999 V2000
    0.0090    5.0910    0.6240 F   0  0  0  0  0  0  0  0  0  0  0  0
    0.6700    4.0380    0.0080 C   0  0  1  0  0  0  0  0  0  0  0  0
    1.1570    4.5220   -1.1950 F   0  0  0  0  0  0  0  0  0  0  0  0
    1.6770    3.5920    0.8340 F   0  0  0  0  0  0  0  0  0  0  0  0
   -0.3540    2.9670   -0.2320 C   0  0  0  0  0  0  0  0  0  0  0  0
   -0.0650    1.6900   -0.0810 C   0  0  0  0  0  0  0  0  0  0  0  0
    1.1950    1.1220    0.3160 N   0  0  0  0  0  0  0  0  0  0  0  0
    1.0030   -0.0940    0.7420 C   0  0  0  0  0  0  0  0  0  0  0  0
    2.0420   -0.9580    1.2160 N   0  0  0  0  0  0  0  0  0  0  0  0
    3.3190   -0.9990    0.5960 C   0  0  0  0  0  0  0  0  0  0  0  0
    3.6940   -0.2690   -0.4950 C   0  0  0  0  0  0  0  0  0  0  0  0
    4.9540   -0.3810   -1.0100 N   0  0  0  0  0  0  0  0  0  0  0  0
    5.8590   -1.2010   -0.4680 C   0  0  0  0  0  0  0  0  0  0  0  0
    5.5000   -1.9390    0.6240 C   0  0  0  0  0  0  0  0  0  0  0  0
    4.2660   -1.8240    1.1210 N   0  0  0  0  0  0  0  0  0  0  0  0
   -0.3770   -0.4160    0.6650 N   0  0  0  0  0  0  0  0  0  0  0  0
   -0.9660    0.5460   -0.2830 C   0  0  1  0  0  0  0  0  0  0  0  0
   -2.3760    0.8230    0.1490 C   0  0  0  0  0  0  0  0  0  0  0  0
   -3.2100   -0.4140   -0.1100 C   0  0  0  0  0  0  0  0  0  0  0  0
   -2.7800   -1.5410   -0.6290 C   0  0  0  0  0  0  0  0  0  0  0  0
   -3.9020   -2.4900   -0.7110 C   0  0  0  0  0  0  0  0  0  0  0  0
   -5.0460   -1.7600   -0.1680 C   0  0  0  0  0  0  0  0  0  0  0  0
   -4.6260   -0.5650    0.1730 C   0  0  0  0  0  0  0  0  0  0  0  0
   -5.6560    0.6880    0.8830 Cl  0  0  0  0  0  0  0  0  0  0  0  0
  2  1  1  1
  2  3  1  0
  2  4  1  0
  2  5  1  0
  5  6  2  3
  6  7  1  0
  6 17  1  0
  7  8  2  0
  8  9  1  0
  8 16  1  0
  9 10  1  0
 10 11  2  0
 10 15  1  0
 11 12  1  0
 12 13  2  0
 13 14  1  0
 14 15  2  0
 16 17  1  0
 17 18  1  1
 18 19  1  0
 19 20  2  0
 19 23  1  0
 20 21  1  0
 21 22  1  0
 22 23  2  0
 23 24  1  0
M  END
