
     RDKit          3D

 24 26  0  0  0  0  0  0  0  0999 V2000
   -0.3540   -4.5540    0.0070 C   0  0  0  0  0  0  0  0  0  0  0  0
   -0.1010   -3.3610    0.0280 C   0  0  0  0  0  0  0  0  0  0  0  0
    0.1720   -1.9610    0.0540 C   0  0  0  0  0  0  0  0  0  0  0  0
   -0.8690   -0.9680    0.0750 C   0  0  0  0  0  0  0  0  0  0  0  0
   -2.2020   -1.3680    0.1690 N   0  0  0  0  0  0  0  0  0  0  0  0
   -3.3930   -0.5460    0.2180 C   0  0  0  0  0  0  0  0  0  0  0  0
   -4.2260   -0.7700   -0.7220 C   0  0  0  0  0  0  0  0  0  0  0  0
   -5.5130   -0.3070   -1.1850 C   0  0  0  0  0  0  0  0  0  0  0  0
   -6.2070    0.6170   -0.5310 F   0  0  0  0  0  0  0  0  0  0  0  0
   -3.5210    0.3350    1.4260 C   0  0  0  0  0  0  0  0  0  0  0  0
   -5.1130    1.1040    1.6400 Cl  0  0  0  0  0  0  0  0  0  0  0  0
   -2.6220    0.4790    2.1660 C   0  0  0  0  0  0  0  0  0  0  0  0
   -1.4440    0.4350    2.7900 F   0  0  0  0  0  0  0  0  0  0  0  0
   -3.3000    1.4650    3.2550 F   0  0  0  0  0  0  0  0  0  0  0  0
   -0.3170    0.2470    0.0430 N   0  0  0  0  0  0  0  0  0  0  0  0
    1.0420    0.0590    0.0040 C   0  0  0  0  0  0  0  0  0  0  0  0
    2.2600    0.7150   -0.0330 C   0  0  0  0  0  0  0  0  0  0  0  0
    3.2340   -0.2190   -0.0360 C   0  0  0  0  0  0  0  0  0  0  0  0
    2.6380   -1.4520   -0.0120 N   0  0  0  0  0  0  0  0  0  0  0  0
    1.2990   -1.2620    0.0120 N   0  0  0  0  0  0  0  0  0  0  0  0
    4.5400    0.4650   -0.0610 C   0  0  0  0  0  0  0  0  0  0  0  0
    4.2580    1.8320   -0.1690 N   0  0  0  0  0  0  0  0  0  0  0  0
    5.0220    2.6060   -1.0940 C   0  0  0  0  0  0  0  0  0  0  0  0
    2.8770    2.0850   -0.0830 C   0  0  0  0  0  0  0  0  0  0  0  0
  1  2  3  0
  2  3  1  0
  3  4  2  0
  3 20  1  0
  4  5  1  0
  4 15  1  0
  5  6  1  0
  6  7  2  3
  6 10  1  0
  7  8  1  0
  8  9  1  0
 10 11  1  0
 10 12  2  3
 12 13  1  0
 12 14  1  0
 15 16  1  0
 16 17  2  0
 16 20  1  0
 17 18  1  0
 17 24  1  0
 18 19  2  0
 18 21  1  0
 19 20  1  0
 21 22  1  0
 22 23  1  0
 22 24  1  0
M  END
