
     RDKit          3D

 24 26  0  0  0  0  0  0  0  0999 V2000
    3.4100    2.7380    2.3530 F   0  0  0  0  0  0  0  0  0  0  0  0
    4.3110    1.8470    1.7760 C   0  0  2  0  0  0  0  0  0  0  0  0
    4.5440    0.7950    2.6660 F   0  0  0  0  0  0  0  0  0  0  0  0
    5.5510    2.4470    1.5750 F   0  0  0  0  0  0  0  0  0  0  0  0
    3.8320    1.3210    0.4710 C   0  0  0  0  0  0  0  0  0  0  0  0
    3.5360    2.4740   -0.7960 Cl  0  0  0  0  0  0  0  0  0  0  0  0
    3.6640    0.0520    0.3030 C   0  0  0  0  0  0  0  0  0  0  0  0
    3.1970   -0.6950   -0.9030 C   0  0  0  0  0  0  0  0  0  0  0  0
    2.0250   -1.4670   -0.6410 N   0  0  0  0  0  0  0  0  0  0  0  0
    2.1280   -2.7290   -0.0760 C   0  0  0  0  0  0  0  0  0  0  0  0
    0.8680   -3.2320    0.1270 C   0  0  0  0  0  0  0  0  0  0  0  0
    0.0460   -2.2850   -0.3100 N   0  0  0  0  0  0  0  0  0  0  0  0
    0.7430   -1.1940   -0.7860 C   0  0  0  0  0  0  0  0  0  0  0  0
    0.0920   -0.0080   -1.3210 C   0  0  0  0  0  0  0  0  0  0  0  0
    0.5250    1.0380   -2.0560 C   0  0  0  0  0  0  0  0  0  0  0  0
   -0.5340    1.8840   -2.2620 N   0  0  0  0  0  0  0  0  0  0  0  0
   -1.6100    1.4250   -1.6960 N   0  0  0  0  0  0  0  0  0  0  0  0
   -1.2740    0.2730   -1.1090 C   0  0  0  0  0  0  0  0  0  0  0  0
   -2.2400   -0.5550   -0.3150 C   0  0  2  0  0  0  0  0  0  0  0  0
   -3.6310   -0.0760   -0.6100 C   0  0  0  0  0  0  0  0  0  0  0  0
   -4.1120    1.0620    0.2200 C   0  0  0  0  0  0  0  0  0  0  0  0
   -3.1890    1.3970    1.2900 N   0  0  0  0  0  0  0  0  0  0  0  0
   -2.8180    0.2090    2.0020 C   0  0  0  0  0  0  0  0  0  0  0  0
   -1.9020   -0.6180    1.1350 C   0  0  0  0  0  0  0  0  0  0  0  0
  2  1  1  1
  2  3  1  0
  2  4  1  0
  2  5  1  0
  5  6  1  0
  5  7  2  3
  7  8  1  0
  8  9  1  0
  9 10  1  0
  9 13  1  0
 10 11  2  0
 11 12  1  0
 12 13  2  0
 13 14  1  0
 14 15  1  0
 14 18  2  0
 15 16  2  0
 16 17  1  0
 17 18  1  0
 19 18  1  6
 19 20  1  0
 19 24  1  0
 20 21  1  0
 21 22  1  0
 22 23  1  0
 23 24  1  0
M  END
