
     RDKit          3D

 24 26  0  0  0  0  0  0  0  0999 V2000
    4.1290   -0.3370    1.7310 C   0  0  0  0  0  0  0  0  0  0  0  0
    3.0860   -0.2090    0.6940 C   0  0  0  0  0  0  0  0  0  0  0  0
    3.2480    0.1710   -0.5620 C   0  0  0  0  0  0  0  0  0  0  0  0
    4.5550    0.5490   -1.1580 C   0  0  1  0  0  0  0  0  0  0  0  0
    4.5350    1.8900   -1.5710 F   0  0  0  0  0  0  0  0  0  0  0  0
    5.5850    0.4240   -0.2570 F   0  0  0  0  0  0  0  0  0  0  0  0
    4.8020   -0.2590   -2.2610 F   0  0  0  0  0  0  0  0  0  0  0  0
    1.9090    0.1420   -1.2080 C   0  0  0  0  0  0  0  0  0  0  0  0
    1.0230   -0.3080   -0.1210 C   0  0  0  0  0  0  0  0  0  0  0  0
   -0.4100   -0.5010   -0.3040 N   0  0  0  0  0  0  0  0  0  0  0  0
   -0.8630   -1.7400    0.1710 C   0  0  0  0  0  0  0  0  0  0  0  0
   -2.2760   -2.0290    0.3370 C   0  0  0  0  0  0  0  0  0  0  0  0
   -3.3500   -1.3160    0.1830 C   0  0  0  0  0  0  0  0  0  0  0  0
   -4.5340   -2.1400    0.4940 C   0  0  0  0  0  0  0  0  0  0  0  0
   -3.9800   -3.4380    0.8510 C   0  0  0  0  0  0  0  0  0  0  0  0
   -2.6920   -3.3860    0.7640 C   0  0  0  0  0  0  0  0  0  0  0  0
   -1.6520   -4.7710    1.1240 Cl  0  0  0  0  0  0  0  0  0  0  0  0
   -1.0680    0.5850   -0.9420 C   0  0  0  0  0  0  0  0  0  0  0  0
   -1.1850    1.8040   -0.0800 C   0  0  0  0  0  0  0  0  0  0  0  0
   -2.2910    2.3050    0.4090 N   0  0  0  0  0  0  0  0  0  0  0  0
   -2.0910    3.4300    1.1670 N   0  0  0  0  0  0  0  0  0  0  0  0
   -0.7200    3.8740    0.9310 C   0  0  0  0  0  0  0  0  0  0  0  0
   -0.1390    2.6430    0.3860 N   0  0  0  0  0  0  0  0  0  0  0  0
    1.6990   -0.4940    0.9200 N   0  0  0  0  0  0  0  0  0  0  0  0
  1  2  1  0
  2  3  2  0
  2 24  1  0
  3  4  1  0
  3  8  1  0
  4  5  1  6
  4  6  1  0
  4  7  1  0
  8  9  1  0
  9 10  1  0
  9 24  2  0
 10 11  1  0
 10 18  1  0
 11 12  1  0
 12 13  2  0
 12 16  1  0
 13 14  1  0
 14 15  1  0
 15 16  2  0
 16 17  1  0
 18 19  1  0
 19 20  2  0
 19 23  1  0
 20 21  1  0
 21 22  1  0
 22 23  1  0
M  END
