
     RDKit          3D

  8  7  0  0  0  0  0  0  0  0999 V2000
    2.4820   -0.4220   -0.8560 C   0  0  0  0  0  0  0  0  0  0  0  0
    1.7340   -0.8410    0.3800 C   0  0  0  0  0  0  0  0  0  0  0  0
    0.7260    0.1260    0.8530 C   0  0  0  0  0  0  0  0  0  0  0  0
   -0.4060    0.4730   -0.0330 C   0  0  1  0  0  0  0  0  0  0  0  0
   -1.2600    1.4870    0.7670 C   0  0  0  0  0  0  0  0  0  0  0  0
   -0.0450    1.1680   -1.3150 C   0  0  0  0  0  0  0  0  0  0  0  0
   -1.2980   -0.6970   -0.3730 C   0  0  0  0  0  0  0  0  0  0  0  0
   -1.9300   -1.3380    0.8140 C   0  0  0  0  0  0  0  0  0  0  0  0
  1  2  1  0
  2  3  1  0
  3  4  1  0
  4  5  1  1
  4  6  1  0
  4  7  1  0
  7  8  1  0
M  END
