
     RDKit          3D

  8  8  0  0  0  0  0  0  0  0999 V2000
   -0.5490    1.9940    0.6460 C   0  0  0  0  0  0  0  0  0  0  0  0
   -0.0480    1.0410   -0.3950 C   0  0  2  0  0  0  0  0  0  0  0  0
   -0.6270   -0.3650   -0.2460 C   0  0  2  0  0  0  0  0  0  0  0  0
   -1.1900   -0.9110   -1.5260 C   0  0  0  0  0  0  0  0  0  0  0  0
   -1.3790   -0.7000    1.0170 C   0  0  0  0  0  0  0  0  0  0  0  0
    0.8250   -0.0970   -0.0860 C   0  0  2  0  0  0  0  0  0  0  0  0
    1.4160   -0.1130    1.3120 C   0  0  0  0  0  0  0  0  0  0  0  0
    1.7210   -0.6870   -1.1270 C   0  0  0  0  0  0  0  0  0  0  0  0
  2  1  1  1
  2  3  1  0
  2  6  1  0
  3  4  1  6
  3  5  1  0
  3  6  1  0
  6  7  1  1
  6  8  1  0
M  END
