
     RDKit          3D

  8  8  0  0  0  0  0  0  0  0999 V2000
    2.5330    0.7710   -0.2740 C   0  0  0  0  0  0  0  0  0  0  0  0
    2.1750   -0.6150   -0.7500 C   0  0  0  0  0  0  0  0  0  0  0  0
    0.9250   -1.1170   -0.1410 C   0  0  0  0  0  0  0  0  0  0  0  0
   -0.3250   -0.3670   -0.3840 C   0  0  1  0  0  0  0  0  0  0  0  0
   -1.4680   -1.0970    0.3440 C   0  0  0  0  0  0  0  0  0  0  0  0
   -2.5750   -0.0500    0.1620 C   0  0  0  0  0  0  0  0  0  0  0  0
   -1.8570    1.1440    0.7570 C   0  0  0  0  0  0  0  0  0  0  0  0
   -0.4500    1.0040    0.1450 C   0  0  0  0  0  0  0  0  0  0  0  0
  1  2  1  0
  2  3  1  0
  4  3  1  1
  4  5  1  0
  4  8  1  0
  5  6  1  0
  6  7  1  0
  7  8  1  0
M  END
