
     RDKit          3D

  8  8  0  0  0  0  0  0  0  0999 V2000
    2.5730    0.4060    0.2260 C   0  0  0  0  0  0  0  0  0  0  0  0
    1.2210    0.3280   -0.4490 C   0  0  2  0  0  0  0  0  0  0  0  0
    0.2660    1.2570    0.2670 C   0  0  0  0  0  0  0  0  0  0  0  0
   -1.0310    1.2400   -0.4560 C   0  0  0  0  0  0  0  0  0  0  0  0
   -2.0650    0.3320    0.1380 C   0  0  0  0  0  0  0  0  0  0  0  0
   -1.7070   -1.1040    0.1470 C   0  0  0  0  0  0  0  0  0  0  0  0
   -0.3010   -1.4140    0.5340 C   0  0  0  0  0  0  0  0  0  0  0  0
    0.7020   -1.0730   -0.5380 C   0  0  0  0  0  0  0  0  0  0  0  0
  2  1  1  1
  2  3  1  0
  2  8  1  0
  3  4  1  0
  4  5  1  0
  5  6  1  0
  6  7  1  0
  7  8  1  0
M  END
