
     RDKit          3D

  8  8  0  0  0  0  0  0  0  0999 V2000
   -2.8340    0.2070   -0.3560 C   0  0  0  0  0  0  0  0  0  0  0  0
   -1.3790    0.2120    0.0140 C   0  0  1  0  0  0  0  0  0  0  0  0
   -0.7910   -1.1810   -0.1770 C   0  0  0  0  0  0  0  0  0  0  0  0
    0.6350   -1.1070    0.3690 C   0  0  0  0  0  0  0  0  0  0  0  0
    1.3810   -0.1530   -0.5380 C   0  0  2  0  0  0  0  0  0  0  0  0
    2.8540   -0.2370   -0.3400 C   0  0  0  0  0  0  0  0  0  0  0  0
    0.8100    1.2240   -0.3110 C   0  0  0  0  0  0  0  0  0  0  0  0
   -0.6170    1.1770   -0.8670 C   0  0  0  0  0  0  0  0  0  0  0  0
  2  1  1  6
  2  3  1  0
  2  8  1  0
  3  4  1  0
  4  5  1  0
  5  6  1  1
  5  7  1  0
  7  8  1  0
M  END
