
     RDKit          3D

  8  8  0  0  0  0  0  0  0  0999 V2000
    2.3350   -0.3600    0.4930 C   0  0  0  0  0  0  0  0  0  0  0  0
    0.8470   -0.4790    0.6860 C   0  0  0  0  0  0  0  0  0  0  0  0
    0.0600    0.2960   -0.3340 C   0  0  1  0  0  0  0  0  0  0  0  0
    0.4380    1.7570   -0.2190 C   0  0  0  0  0  0  0  0  0  0  0  0
    0.3130   -0.1650   -1.7440 C   0  0  0  0  0  0  0  0  0  0  0  0
   -1.4130    0.2080   -0.0050 C   0  0  1  0  0  0  0  0  0  0  0  0
   -2.1010   -1.1040    0.0420 C   0  0  0  0  0  0  0  0  0  0  0  0
   -1.8300   -0.2900    1.3000 C   0  0  0  0  0  0  0  0  0  0  0  0
  1  2  1  0
  2  3  1  0
  3  4  1  6
  3  5  1  0
  3  6  1  0
  6  7  1  6
  6  8  1  0
  7  8  1  0
M  END
