
     RDKit          3D

  7  7  0  0  0  0  0  0  0  0999 V2000
    2.4910    0.2100    0.6120 C   0  0  0  0  0  0  0  0  0  0  0  0
    1.3260    0.7080   -0.1920 C   0  0  0  0  0  0  0  0  0  0  0  0
    0.3170   -0.3660   -0.5090 C   0  0  2  0  0  0  0  0  0  0  0  0
   -0.7890    0.2820   -1.3150 C   0  0  0  0  0  0  0  0  0  0  0  0
   -1.9190    0.5000   -0.3530 C   0  0  0  0  0  0  0  0  0  0  0  0
   -1.8110   -0.6760    0.6020 C   0  0  0  0  0  0  0  0  0  0  0  0
   -0.3370   -0.9240    0.7300 C   0  0  0  0  0  0  0  0  0  0  0  0
  1  2  1  0
  3  2  1  1
  3  4  1  0
  3  7  1  0
  4  5  1  0
  5  6  1  0
  6  7  1  0
M  END
