
     RDKit          3D

  8  8  0  0  0  0  0  0  0  0999 V2000
   -1.7870   -0.8180   -1.0040 C   0  0  0  0  0  0  0  0  0  0  0  0
   -1.4160   -0.2120    0.3130 C   0  0  2  0  0  0  0  0  0  0  0  0
   -2.0690    1.1670    0.4030 C   0  0  0  0  0  0  0  0  0  0  0  0
    0.0450   -0.0120    0.5070 C   0  0  2  0  0  0  0  0  0  0  0  0
    0.7030    0.8810   -0.4870 C   0  0  0  0  0  0  0  0  0  0  0  0
    2.1740    0.6820   -0.1520 C   0  0  0  0  0  0  0  0  0  0  0  0
    2.2630   -0.6640    0.5440 C   0  0  0  0  0  0  0  0  0  0  0  0
    0.8630   -1.2690    0.3850 C   0  0  0  0  0  0  0  0  0  0  0  0
  2  1  1  6
  2  3  1  0
  2  4  1  0
  4  5  1  6
  4  8  1  0
  5  6  1  0
  6  7  1  0
  7  8  1  0
M  END
