
     RDKit          3D

  8  8  0  0  0  0  0  0  0  0999 V2000
    2.7660    0.4260    0.2730 C   0  0  0  0  0  0  0  0  0  0  0  0
    1.8390   -0.4540   -0.5640 C   0  0  0  0  0  0  0  0  0  0  0  0
    0.4860   -0.3990    0.0920 C   0  0  1  0  0  0  0  0  0  0  0  0
    0.0550    1.0680    0.0800 C   0  0  0  0  0  0  0  0  0  0  0  0
   -1.2420    1.0880    0.8740 C   0  0  0  0  0  0  0  0  0  0  0  0
   -2.2700    0.4190   -0.0400 C   0  0  0  0  0  0  0  0  0  0  0  0
   -1.9120   -1.0260   -0.1950 C   0  0  0  0  0  0  0  0  0  0  0  0
   -0.5020   -1.2790   -0.5960 C   0  0  0  0  0  0  0  0  0  0  0  0
  1  2  1  0
  3  2  1  6
  3  4  1  0
  3  8  1  0
  4  5  1  0
  5  6  1  0
  6  7  1  0
  7  8  1  0
M  END
