
     RDKit          3D

 24 24  0  0  0  0  0  0  0  0999 V2000
    6.4070    1.1380   -2.4670 N   0  0  0  0  0  0  0  0  0  0  0  0
    6.4730    0.8040   -1.1370 C   0  0  0  0  0  0  0  0  0  0  0  0
    7.8440    0.5630   -0.7420 C   0  0  0  0  0  0  0  0  0  0  0  0
    8.0740   -0.7470   -0.3540 O   0  0  0  0  0  0  0  0  0  0  0  0
    5.1480    0.8680   -0.8040 N   0  0  0  0  0  0  0  0  0  0  0  0
    4.5340    0.5490    0.3440 C   0  0  0  0  0  0  0  0  0  0  0  0
    5.3920    0.1310    1.2080 O   0  0  0  0  0  0  0  0  0  0  0  0
    3.0940    0.6360    0.6140 C   0  0  0  0  0  0  0  0  0  0  0  0
    2.8910    0.0160    1.9370 N   0  0  0  0  0  0  0  0  0  0  0  0
    2.4890   -1.3200    1.6530 C   0  0  0  0  0  0  0  0  0  0  0  0
    1.0290   -1.5690    1.9250 C   0  0  0  0  0  0  0  0  0  0  0  0
    0.2190   -0.6050    1.2900 C   0  0  0  0  0  0  0  0  0  0  0  0
    0.3110    0.5790    1.2060 O   0  0  0  0  0  0  0  0  0  0  0  0
   -1.1820   -1.2310    0.4660 N   0  0  0  0  0  0  0  0  0  0  0  0
   -1.7960   -0.0490    0.2190 C   0  0  0  0  0  0  0  0  0  0  0  0
   -1.6250    1.1060    0.5060 O   0  0  0  0  0  0  0  0  0  0  0  0
   -3.0030   -0.2890   -0.6430 N   0  0  0  0  0  0  0  0  0  0  0  0
   -3.8300    0.7850   -1.0630 C   0  0  1  0  0  0  0  0  0  0  0  0
   -4.6820    0.3660   -2.1940 C   0  0  0  0  0  0  0  0  0  0  0  0
   -6.1650    0.5310   -1.8910 C   0  0  0  0  0  0  0  0  0  0  0  0
   -6.5880   -0.3480   -0.7270 C   0  0  0  0  0  0  0  0  0  0  0  0
   -5.5110   -0.3030    0.3340 C   0  0  2  0  0  0  0  0  0  0  0  0
   -6.0220   -0.4540    1.6320 O   0  0  0  0  0  0  0  0  0  0  0  0
   -4.7880    0.9960    0.1570 C   0  0  0  0  0  0  0  0  0  0  0  0
  1  2  2  0
  2  3  1  0
  2  5  1  0
  3  4  1  0
  5  6  1  0
  6  7  2  0
  6  8  1  0
  8  9  1  0
  9 10  1  0
 10 11  1  0
 11 12  1  0
 12 13  2  0
 12 14  1  0
 14 15  1  0
 15 16  2  0
 15 17  1  0
 18 17  1  1
 18 19  1  0
 18 24  1  0
 19 20  1  0
 20 21  1  0
 21 22  1  0
 22 23  1  1
 22 24  1  0
M  CHG  1   9   1
M  END
