
     RDKit          3D

 24 24  0  0  0  0  0  0  0  0999 V2000
    8.6390   -1.0160   -1.0740 C   0  0  0  0  0  0  0  0  0  0  0  0
    7.4670   -0.2590   -0.8900 O   0  0  0  0  0  0  0  0  0  0  0  0
    6.2660   -0.7340   -0.4490 C   0  0  0  0  0  0  0  0  0  0  0  0
    6.2190   -1.9800   -0.1790 O   0  0  0  0  0  0  0  0  0  0  0  0
    5.0320    0.0700   -0.2620 C   0  0  1  0  0  0  0  0  0  0  0  0
    5.3360    1.0470    0.8880 C   0  0  0  0  0  0  0  0  0  0  0  0
    4.7590    0.8270   -1.5430 C   0  0  0  0  0  0  0  0  0  0  0  0
    3.8880   -0.8300    0.1480 C   0  0  0  0  0  0  0  0  0  0  0  0
    2.6310   -0.0830    0.3250 C   0  0  0  0  0  0  0  0  0  0  0  0
    2.5960    1.1820    0.1110 O   0  0  0  0  0  0  0  0  0  0  0  0
    1.3900   -0.6460    0.7250 N   0  0  0  0  0  0  0  0  0  0  0  0
    0.2250    0.1060    0.8640 N   0  0  0  0  0  0  0  0  0  0  0  0
   -1.0360   -0.3630    0.3380 C   0  0  0  0  0  0  0  0  0  0  0  0
   -1.0170   -1.4690   -0.2140 O   0  0  0  0  0  0  0  0  0  0  0  0
   -2.2380    0.3770    0.4330 N   0  0  0  0  0  0  0  0  0  0  0  0
   -3.4670   -0.1160   -0.0900 C   0  0  2  0  0  0  0  0  0  0  0  0
   -3.7410    0.4110   -1.5020 C   0  0  0  0  0  0  0  0  0  0  0  0
   -5.0460   -0.2260   -1.9270 C   0  0  0  0  0  0  0  0  0  0  0  0
   -6.1440    0.4440   -1.2290 N   0  0  0  0  0  0  0  0  0  0  0  0
   -5.7220    0.9810    0.0330 C   0  0  0  0  0  0  0  0  0  0  0  0
   -4.6830    0.1170    0.7310 C   0  0  1  0  0  0  0  0  0  0  0  0
   -5.3470   -1.1390    1.2050 C   0  0  0  0  0  0  0  0  0  0  0  0
   -4.2710    0.8750    1.9240 N   0  0  0  0  0  0  0  0  0  0  0  0
   -5.3290    1.1320    2.7310 O   0  0  0  0  0  0  0  0  0  0  0  0
  1  2  1  0
  2  3  1  0
  3  4  2  0
  3  5  1  0
  5  6  1  1
  5  7  1  0
  5  8  1  0
  8  9  1  0
  9 10  2  0
  9 11  1  0
 11 12  1  0
 12 13  1  0
 13 14  2  0
 13 15  1  0
 16 15  1  1
 16 17  1  0
 16 21  1  0
 17 18  1  0
 18 19  1  0
 19 20  1  0
 20 21  1  0
 21 22  1  1
 21 23  1  0
 23 24  1  0
M  CHG  1  19   1
M  END
