
     RDKit          3D

 21 23  0  0  0  0  0  0  0  0999 V2000
   -3.2340    1.5830   -0.4090 C   0  0  0  0  0  0  0  0  0  0  0  0
   -3.0760    0.2780    0.2990 C   0  0  1  0  0  0  0  0  0  0  0  0
   -4.3910   -0.3760    0.4430 C   0  0  0  0  0  0  0  0  0  0  0  0
   -4.6450   -0.8300   -1.0070 C   0  0  0  0  0  0  0  0  0  0  0  0
   -3.3400   -0.7250   -1.6890 N   0  0  0  0  0  0  0  0  0  0  0  0
   -2.4500   -0.7950   -0.6250 C   0  0  1  0  0  0  0  0  0  0  0  0
   -1.0830   -0.3190   -0.6890 C   0  0  0  0  0  0  0  0  0  0  0  0
   -0.8370    0.0660    0.6920 N   0  0  0  0  0  0  0  0  0  0  0  0
    0.4410    0.2390    1.2810 C   0  0  0  0  0  0  0  0  0  0  0  0
    0.5880    0.5750    2.4830 O   0  0  0  0  0  0  0  0  0  0  0  0
    1.6670    0.0220    0.4730 C   0  0  0  0  0  0  0  0  0  0  0  0
    2.8680    0.2470    1.2520 N   0  0  0  0  0  0  0  0  0  0  0  0
    4.1500    0.1010    0.6970 C   0  0  0  0  0  0  0  0  0  0  0  0
    4.2640   -0.2590   -0.6010 N   0  0  0  0  0  0  0  0  0  0  0  0
    5.4470   -0.4020   -1.1420 N   0  0  0  0  0  0  0  0  0  0  0  0
    6.5390   -0.1850   -0.3900 C   0  0  0  0  0  0  0  0  0  0  0  0
    7.6710   -0.3240   -0.9160 O   0  0  0  0  0  0  0  0  0  0  0  0
    6.4700    0.1730    0.8990 N   0  0  0  0  0  0  0  0  0  0  0  0
    5.2700    0.3230    1.4660 C   0  0  0  0  0  0  0  0  0  0  0  0
    5.1740    0.6610    2.6820 O   0  0  0  0  0  0  0  0  0  0  0  0
   -2.1170    0.2540    1.3990 C   0  0  0  0  0  0  0  0  0  0  0  0
  2  1  1  6
  2  3  1  0
  2  6  1  0
  2 21  1  0
  3  4  1  0
  4  5  1  0
  5  6  1  0
  6  7  1  6
  7  8  1  0
  8  9  1  0
  8 21  1  0
  9 10  2  0
  9 11  1  0
 11 12  1  0
 12 13  1  0
 13 14  2  0
 13 19  1  0
 14 15  1  0
 15 16  1  0
 16 17  2  0
 16 18  1  0
 18 19  1  0
 19 20  2  0
M  CHG  1   5   1
M  END
