
     RDKit          3D

 24 24  0  0  0  0  0  0  0  0999 V2000
   -6.5140    0.8660   -0.9230 C   0  0  0  0  0  0  0  0  0  0  0  0
   -6.1180    1.1280    0.3820 O   0  0  0  0  0  0  0  0  0  0  0  0
   -5.9160   -0.0140    1.1310 C   0  0  0  0  0  0  0  0  0  0  0  0
   -4.8390   -0.8850    0.5180 C   0  0  0  0  0  0  0  0  0  0  0  0
   -3.6050   -0.1460    0.4610 N   0  0  0  0  0  0  0  0  0  0  0  0
   -2.4310   -0.7530   -0.0800 C   0  0  0  0  0  0  0  0  0  0  0  0
   -2.4570   -1.9350   -0.5110 O   0  0  0  0  0  0  0  0  0  0  0  0
   -1.2010   -0.0490   -0.1500 N   0  0  0  0  0  0  0  0  0  0  0  0
    0.0320   -0.6350   -0.6990 C   0  0  1  0  0  0  0  0  0  0  0  0
    0.3940    0.1210   -1.8870 C   0  0  0  0  0  0  0  0  0  0  0  0
   -0.6760    0.0560   -2.6670 O   0  0  0  0  0  0  0  0  0  0  0  0
    1.5040    0.8190   -2.3350 N   0  0  0  0  0  0  0  0  0  0  0  0
    2.3710    1.8160   -1.8450 C   0  0  0  0  0  0  0  0  0  0  0  0
    2.5070    2.9570   -2.5080 O   0  0  0  0  0  0  0  0  0  0  0  0
    3.1820    1.8250   -0.6950 N   0  0  0  0  0  0  0  0  0  0  0  0
    4.2460    0.9600   -0.2820 C   0  0  0  0  0  0  0  0  0  0  0  0
    4.5090   -0.2340   -1.1200 C   0  0  0  0  0  0  0  0  0  0  0  0
    5.0570   -1.3860   -0.3200 C   0  0  0  0  0  0  0  0  0  0  0  0
    4.3730   -1.9700    0.6320 C   0  0  0  0  0  0  0  0  0  0  0  0
    2.9890   -1.5960    1.0570 C   0  0  0  0  0  0  0  0  0  0  0  0
    2.2840   -0.9950    0.0440 O   0  0  0  0  0  0  0  0  0  0  0  0
    0.9680   -0.8570    0.4050 C   0  0  1  0  0  0  0  0  0  0  0  0
    0.7100   -0.0620    1.6570 C   0  0  0  0  0  0  0  0  0  0  0  0
    1.1550    1.2780    1.6740 N   0  0  0  0  0  0  0  0  0  0  0  0
  1  2  1  0
  2  3  1  0
  3  4  1  0
  4  5  1  0
  5  6  1  0
  6  7  2  0
  6  8  1  0
  9  8  1  1
  9 10  1  0
  9 22  1  0
 10 11  2  0
 10 12  1  0
 12 13  1  0
 13 14  2  0
 13 15  1  0
 15 16  1  0
 16 17  1  0
 17 18  1  0
 18 19  2  0
 19 20  1  0
 20 21  1  0
 21 22  1  0
 22 23  1  1
 23 24  1  0
M  CHG  1  24   1
M  END
