
     RDKit          3D

 21 22  0  0  0  0  0  0  0  0999 V2000
    3.8460    0.8690   -0.5260 C   0  0  0  0  0  0  0  0  0  0  0  0
    4.1320   -0.2500    0.4280 C   0  0  2  0  0  0  0  0  0  0  0  0
    3.5330   -1.5140    0.0600 N   0  0  0  0  0  0  0  0  0  0  0  0
    2.1470   -1.7040   -0.0880 C   0  0  0  0  0  0  0  0  0  0  0  0
    1.2300   -0.7410    0.0920 N   0  0  0  0  0  0  0  0  0  0  0  0
   -0.1070   -0.9640   -0.0610 C   0  0  0  0  0  0  0  0  0  0  0  0
   -1.1250    0.0880    0.1350 C   0  0  1  0  0  0  0  0  0  0  0  0
   -1.6140    0.6210   -1.1910 C   0  0  0  0  0  0  0  0  0  0  0  0
   -2.9350    1.1910   -1.1230 N   0  0  0  0  0  0  0  0  0  0  0  0
   -2.9390    2.5210   -0.5600 C   0  0  0  0  0  0  0  0  0  0  0  0
   -3.8950    0.3130   -0.5480 C   0  0  2  0  0  0  0  0  0  0  0  0
   -4.7620    0.9150    0.5040 C   0  0  0  0  0  0  0  0  0  0  0  0
   -3.1610   -0.8750    0.0340 C   0  0  0  0  0  0  0  0  0  0  0  0
   -2.1620   -0.4490    0.8870 O   0  0  0  0  0  0  0  0  0  0  0  0
   -0.4860   -2.2020   -0.4060 N   0  0  0  0  0  0  0  0  0  0  0  0
    0.3820   -3.1800   -0.5940 N   0  0  0  0  0  0  0  0  0  0  0  0
    1.6810   -2.9650   -0.4460 C   0  0  0  0  0  0  0  0  0  0  0  0
    2.4980   -3.9210   -0.6320 O   0  0  0  0  0  0  0  0  0  0  0  0
    3.7010    0.1350    1.8030 C   0  0  0  0  0  0  0  0  0  0  0  0
    4.1740    1.3810    2.3270 N   0  0  0  0  0  0  0  0  0  0  0  0
    2.9620   -0.5560    2.5150 O   0  0  0  0  0  0  0  0  0  0  0  0
  2  1  1  6
  2  3  1  0
  2 19  1  0
  3  4  1  0
  4  5  2  0
  4 17  1  0
  5  6  1  0
  7  6  1  6
  6 15  2  0
  7  8  1  0
  7 14  1  0
  8  9  1  0
  9 10  1  0
  9 11  1  0
 11 12  1  1
 11 13  1  0
 13 14  1  0
 15 16  1  0
 16 17  1  0
 17 18  2  0
 19 20  1  0
 19 21  2  0
M  CHG  1   5   1
M  END
