
     RDKit          3D

 24 24  0  0  0  0  0  0  0  0999 V2000
    6.6890    0.8810    1.6850 C   0  0  0  0  0  0  0  0  0  0  0  0
    6.2470   -0.4660    2.0720 N   0  0  0  0  0  0  0  0  0  0  0  0
    4.9960   -0.4220    2.8000 C   0  0  0  0  0  0  0  0  0  0  0  0
    3.8360   -0.8820    1.9180 C   0  0  0  0  0  0  0  0  0  0  0  0
    2.5820   -0.8080    2.7480 C   0  0  0  0  0  0  0  0  0  0  0  0
    1.4080   -1.2250    2.0030 N   0  0  0  0  0  0  0  0  0  0  0  0
    1.0120   -0.5420    0.8450 C   0  0  0  0  0  0  0  0  0  0  0  0
    1.7010    0.4460    0.4700 O   0  0  0  0  0  0  0  0  0  0  0  0
   -0.1610   -0.9070    0.0370 C   0  0  0  0  0  0  0  0  0  0  0  0
   -0.8660   -1.8940    0.3660 O   0  0  0  0  0  0  0  0  0  0  0  0
   -0.5200   -0.1740   -1.1060 N   0  0  0  0  0  0  0  0  0  0  0  0
   -1.6710   -0.4780   -1.9610 C   0  0  2  0  0  0  0  0  0  0  0  0
   -1.1150   -0.5850   -3.3600 C   0  0  0  0  0  0  0  0  0  0  0  0
   -2.2230   -1.1710   -4.2150 C   0  0  0  0  0  0  0  0  0  0  0  0
   -3.4990   -0.3850   -4.0290 C   0  0  0  0  0  0  0  0  0  0  0  0
   -3.2450    0.9160   -3.2990 C   0  0  0  0  0  0  0  0  0  0  0  0
   -2.6150    0.6950   -1.9800 C   0  0  1  0  0  0  0  0  0  0  0  0
   -3.5870    0.6020   -0.9020 N   0  0  0  0  0  0  0  0  0  0  0  0
   -3.6180    1.4640    0.1600 C   0  0  0  0  0  0  0  0  0  0  0  0
   -2.6980    2.3500    0.0830 O   0  0  0  0  0  0  0  0  0  0  0  0
   -4.3270    1.6960    1.3020 N   0  0  0  0  0  0  0  0  0  0  0  0
   -5.3760    1.1910    2.0400 C   0  0  0  0  0  0  0  0  0  0  0  0
   -5.9370    0.2020    1.5560 O   0  0  0  0  0  0  0  0  0  0  0  0
   -5.7950    1.7360    3.2510 O   0  0  0  0  0  0  0  0  0  0  0  0
  1  2  1  0
  2  3  1  0
  3  4  1  0
  4  5  1  0
  5  6  1  0
  6  7  1  0
  7  8  2  0
  7  9  1  0
  9 10  2  0
  9 11  1  0
 12 11  1  1
 12 13  1  0
 12 17  1  0
 13 14  1  0
 14 15  1  0
 15 16  1  0
 16 17  1  0
 17 18  1  1
 18 19  1  0
 19 20  2  0
 19 21  1  0
 21 22  1  0
 22 23  2  0
 22 24  1  0
M  CHG  1   2   1
M  END
