
     RDKit          3D

 21 23  0  0  0  0  0  0  0  0999 V2000
    6.3180    2.3160    0.3790 O   0  0  0  0  0  0  0  0  0  0  0  0
    5.8680    1.1830    0.0690 C   0  0  0  0  0  0  0  0  0  0  0  0
    6.5250   -0.0140    0.2860 O   0  0  0  0  0  0  0  0  0  0  0  0
    5.6600   -1.1050   -0.0100 C   0  0  0  0  0  0  0  0  0  0  0  0
    4.7470   -0.5160   -1.0750 C   0  0  0  0  0  0  0  0  0  0  0  0
    4.5590    0.8970   -0.5830 C   0  0  1  0  0  0  0  0  0  0  0  0
    3.4880    0.8820    0.4160 N   0  0  0  0  0  0  0  0  0  0  0  0
    2.1730    0.6230   -0.0440 C   0  0  0  0  0  0  0  0  0  0  0  0
    1.8670    0.3930   -1.3330 N   0  0  0  0  0  0  0  0  0  0  0  0
    0.6220    0.1510   -1.7450 C   0  0  0  0  0  0  0  0  0  0  0  0
   -0.3700    0.1330   -0.8510 N   0  0  0  0  0  0  0  0  0  0  0  0
   -0.1070    0.3560    0.4400 C   0  0  0  0  0  0  0  0  0  0  0  0
   -1.1330    0.3440    1.4090 N   0  0  0  0  0  0  0  0  0  0  0  0
   -2.5170    0.1150    1.2000 C   0  0  2  0  0  0  0  0  0  0  0  0
   -2.8130   -1.2100    0.5280 C   0  0  0  0  0  0  0  0  0  0  0  0
   -4.2990   -1.3650    0.3130 C   0  0  0  0  0  0  0  0  0  0  0  0
   -4.9740   -0.1980   -0.1440 N   0  0  0  0  0  0  0  0  0  0  0  0
   -4.6300    1.0280    0.5270 C   0  0  0  0  0  0  0  0  0  0  0  0
   -3.1100    1.1930    0.3220 C   0  0  2  0  0  0  0  0  0  0  0  0
   -2.9050    0.8110   -1.0090 O   0  0  0  0  0  0  0  0  0  0  0  0
    1.1710    0.6030    0.8470 N   0  0  0  0  0  0  0  0  0  0  0  0
  1  2  2  0
  2  3  1  0
  2  6  1  0
  3  4  1  0
  4  5  1  0
  5  6  1  0
  6  7  1  1
  7  8  1  0
  8  9  2  0
  8 21  1  0
  9 10  1  0
 10 11  2  0
 11 12  1  0
 12 13  1  0
 12 21  2  0
 14 13  1  6
 14 15  1  0
 14 19  1  0
 15 16  1  0
 16 17  1  0
 17 18  1  0
 18 19  1  0
 19 20  1  6
M  CHG  1  17   1
M  END
