
     RDKit          3D

 23 25  0  0  0  0  0  0  0  0999 V2000
   -1.8780    4.0250    0.4630 C   0  0  0  0  0  0  0  0  0  0  0  0
   -1.6370    2.6570    0.9860 C   0  0  0  0  0  0  0  0  0  0  0  0
   -2.6710    1.8430    1.1400 C   0  0  0  0  0  0  0  0  0  0  0  0
   -2.3860    0.4560    1.6760 C   0  0  0  0  0  0  0  0  0  0  0  0
   -1.2150   -0.0170    0.9530 C   0  0  0  0  0  0  0  0  0  0  0  0
   -0.1320    0.8340    0.7810 C   0  0  0  0  0  0  0  0  0  0  0  0
    0.9770    0.4370    0.1380 N   0  0  0  0  0  0  0  0  0  0  0  0
    1.0790   -0.7960   -0.3620 C   0  0  0  0  0  0  0  0  0  0  0  0
    2.2010   -1.2780   -1.0410 N   0  0  0  0  0  0  0  0  0  0  0  0
    3.3730   -0.5510   -1.2970 C   0  0  0  0  0  0  0  0  0  0  0  0
    3.6050    0.7480   -0.9240 C   0  0  0  0  0  0  0  0  0  0  0  0
    4.8150    1.3790   -1.2320 C   0  0  0  0  0  0  0  0  0  0  0  0
    5.0880    3.0510   -0.7410 Cl  0  0  0  0  0  0  0  0  0  0  0  0
    5.7800    0.7470   -1.8930 N   0  0  0  0  0  0  0  0  0  0  0  0
    5.5670   -0.5140   -2.2600 C   0  0  0  0  0  0  0  0  0  0  0  0
    4.4140   -1.1790   -1.9900 C   0  0  0  0  0  0  0  0  0  0  0  0
    4.1840   -2.8460   -2.5000 Cl  0  0  0  0  0  0  0  0  0  0  0  0
    0.0160   -1.6580   -0.2030 N   0  0  0  0  0  0  0  0  0  0  0  0
   -1.1230   -1.2770    0.4470 C   0  0  0  0  0  0  0  0  0  0  0  0
   -2.2590   -2.2080    0.5870 C   0  0  2  0  0  0  0  0  0  0  0  0
   -1.8740   -3.6300    0.2080 C   0  0  0  0  0  0  0  0  0  0  0  0
   -3.4420   -1.7910   -0.1480 N   0  0  0  0  0  0  0  0  0  0  0  0
   -0.2490    2.2040    1.3320 C   0  0  0  0  0  0  0  0  0  0  0  0
  1  2  1  0
  2  3  2  0
  2 23  1  0
  3  4  1  0
  4  5  1  0
  5  6  2  0
  5 19  1  0
  6  7  1  0
  6 23  1  0
  7  8  2  0
  8  9  1  0
  8 18  1  0
  9 10  1  0
 10 11  2  0
 10 16  1  0
 11 12  1  0
 12 13  1  0
 12 14  2  0
 14 15  1  0
 15 16  2  0
 16 17  1  0
 18 19  2  0
 19 20  1  0
 20 21  1  6
 20 22  1  0
M  CHG  1  22   1
M  END
