
     RDKit          3D

 23 25  0  0  0  0  0  0  0  0999 V2000
   -1.5030   -1.4410   -0.6670 N   0  0  0  0  0  0  0  0  0  0  0  0
   -2.1930   -0.2930   -0.1840 C   0  0  0  0  0  0  0  0  0  0  0  0
   -3.4720   -0.0950   -0.4370 C   0  0  0  0  0  0  0  0  0  0  0  0
   -4.4590   -0.9230   -1.2160 C   0  0  0  0  0  0  0  0  0  0  0  0
   -5.8100   -0.6840   -0.5800 C   0  0  0  0  0  0  0  0  0  0  0  0
   -6.1630    0.7770   -0.7360 C   0  0  0  0  0  0  0  0  0  0  0  0
   -5.2850    1.6770    0.0670 C   0  0  2  0  0  0  0  0  0  0  0  0
   -5.9950    1.8370    1.7110 Cl  0  0  0  0  0  0  0  0  0  0  0  0
   -5.3320    3.2990   -0.6600 Cl  0  0  0  0  0  0  0  0  0  0  0  0
   -3.8890    1.1620    0.1710 C   0  0  0  0  0  0  0  0  0  0  0  0
   -2.8790    1.6840    0.7640 N   0  0  0  0  0  0  0  0  0  0  0  0
   -1.7300    0.8190    0.5950 C   0  0  0  0  0  0  0  0  0  0  0  0
   -0.5290    1.0230    1.0840 C   0  0  0  0  0  0  0  0  0  0  0  0
    0.6270    0.1620    0.9610 C   0  0  0  0  0  0  0  0  0  0  0  0
    0.5050   -1.1570    1.3380 C   0  0  0  0  0  0  0  0  0  0  0  0
    1.6100   -1.9650    1.1810 C   0  0  0  0  0  0  0  0  0  0  0  0
    2.7770   -1.4490    0.6670 C   0  0  0  0  0  0  0  0  0  0  0  0
    2.8980   -0.1260    0.2890 C   0  0  0  0  0  0  0  0  0  0  0  0
    4.1150    0.3940   -0.2420 N   0  0  0  0  0  0  0  0  0  0  0  0
    5.2880   -0.4340   -0.4150 C   0  0  0  0  0  0  0  0  0  0  0  0
    6.4210    0.3480   -0.9860 C   0  0  0  0  0  0  0  0  0  0  0  0
    6.7480    1.4350   -0.0890 N   0  0  0  0  0  0  0  0  0  0  0  0
    1.8060    0.6320    0.4540 N   0  0  0  0  0  0  0  0  0  0  0  0
  1  2  1  0
  2  3  2  0
  2 12  1  0
  3  4  1  0
  3 10  1  0
  4  5  1  0
  5  6  1  0
  6  7  1  0
  7  8  1  1
  7  9  1  0
  7 10  1  0
 10 11  2  0
 11 12  1  0
 12 13  2  3
 13 14  1  0
 14 15  2  0
 14 23  1  0
 15 16  1  0
 16 17  2  0
 17 18  1  0
 18 19  1  0
 18 23  2  0
 19 20  1  0
 20 21  1  0
 21 22  1  0
M  CHG  1  22   1
M  END
