
     RDKit          3D

 23 25  0  0  0  0  0  0  0  0999 V2000
    5.5300   -0.4190    0.8710 C   0  0  0  0  0  0  0  0  0  0  0  0
    4.8470   -1.7550    0.9540 C   0  0  0  0  0  0  0  0  0  0  0  0
    4.5210   -2.3670   -0.3310 C   0  0  0  0  0  0  0  0  0  0  0  0
    3.5370   -1.8070   -1.2730 C   0  0  0  0  0  0  0  0  0  0  0  0
    3.6580   -0.1860   -1.8950 S   0  0  0  0  0  0  0  0  0  0  0  0
    3.0620    1.1360   -0.9030 C   0  0  0  0  0  0  0  0  0  0  0  0
    1.5590    1.2580   -0.8840 C   0  0  1  0  0  0  0  0  0  0  0  0
    0.7870    0.0870   -0.3910 C   0  0  0  0  0  0  0  0  0  0  0  0
   -0.5430    0.7140   -0.1990 N   0  0  1  0  0  0  0  0  0  0  0  0
   -1.4190   -0.0640    0.6060 C   0  0  0  0  0  0  0  0  0  0  0  0
   -2.8230    0.0920    0.1060 C   0  0  0  0  0  0  0  0  0  0  0  0
   -3.3150    0.8330   -0.9400 C   0  0  0  0  0  0  0  0  0  0  0  0
   -4.6560    0.6490   -1.0070 N   0  0  0  0  0  0  0  0  0  0  0  0
   -5.0090   -0.1830   -0.0320 C   0  0  0  0  0  0  0  0  0  0  0  0
   -6.2700   -0.6620    0.2920 C   0  0  0  0  0  0  0  0  0  0  0  0
   -7.3850   -0.2540   -0.4820 N   0  0  0  0  0  0  0  0  0  0  0  0
   -6.3990   -1.4960    1.3170 N   0  0  0  0  0  0  0  0  0  0  0  0
   -5.3130   -1.8680    2.0310 C   0  0  0  0  0  0  0  0  0  0  0  0
   -4.0730   -1.4040    1.7220 N   0  0  0  0  0  0  0  0  0  0  0  0
   -3.8950   -0.5710    0.7070 C   0  0  0  0  0  0  0  0  0  0  0  0
   -0.2990    1.9900    0.3690 C   0  0  0  0  0  0  0  0  0  0  0  0
    1.1330    2.3540    0.0950 C   0  0  2  0  0  0  0  0  0  0  0  0
    1.2730    3.6200   -0.4380 O   0  0  0  0  0  0  0  0  0  0  0  0
  1  2  1  0
  2  3  1  0
  3  4  1  0
  4  5  1  0
  5  6  1  0
  7  6  1  1
  7  8  1  0
  7 22  1  0
  8  9  1  0
  9 10  1  1
  9 21  1  0
 10 11  1  0
 11 12  2  0
 11 20  1  0
 12 13  1  0
 13 14  1  0
 14 15  2  0
 14 20  1  0
 15 16  1  0
 15 17  1  0
 17 18  2  0
 18 19  1  0
 19 20  2  0
 21 22  1  0
 22 23  1  6
M  CHG  1   9   1
M  END
