
     RDKit          3D

 22 24  0  0  0  0  0  0  0  0999 V2000
    7.8190    0.8030   -0.5280 N   0  0  0  0  0  0  0  0  0  0  0  0
    6.7880   -0.0230   -0.0370 C   0  0  0  0  0  0  0  0  0  0  0  0
    5.4780    0.3400   -0.2070 C   0  0  0  0  0  0  0  0  0  0  0  0
    4.4270   -0.4540    0.2650 C   0  0  0  0  0  0  0  0  0  0  0  0
    3.0470   -0.0400    0.0720 C   0  0  0  0  0  0  0  0  0  0  0  0
    1.9050   -0.6880    0.4520 C   0  0  0  0  0  0  0  0  0  0  0  0
    0.7900    0.0640    0.0690 C   0  0  0  0  0  0  0  0  0  0  0  0
   -0.6390   -0.2530    0.2740 C   0  0  0  0  0  0  0  0  0  0  0  0
   -1.4200    0.8700   -0.1420 N   0  0  0  0  0  0  0  0  0  0  0  0
   -2.8430    0.7080    0.0020 C   0  0  2  0  0  0  0  0  0  0  0  0
   -3.2270    0.5180    1.4500 C   0  0  0  0  0  0  0  0  0  0  0  0
   -4.7230    0.6760    1.6010 C   0  0  0  0  0  0  0  0  0  0  0  0
   -5.5010   -0.1320    0.6250 C   0  0  0  0  0  0  0  0  0  0  0  0
   -4.9290   -0.3210   -0.7220 C   0  0  1  0  0  0  0  0  0  0  0  0
   -5.5450    0.5700   -1.7850 C   0  0  0  0  0  0  0  0  0  0  0  0
   -5.3930    2.2850   -1.4800 Cl  0  0  0  0  0  0  0  0  0  0  0  0
   -3.4310   -0.3860   -0.8030 C   0  0  0  0  0  0  0  0  0  0  0  0
    1.3110    1.1490   -0.5340 N   0  0  0  0  0  0  0  0  0  0  0  0
    2.6460    1.0900   -0.5340 N   0  0  0  0  0  0  0  0  0  0  0  0
    4.7990   -1.6140    0.9070 C   0  0  0  0  0  0  0  0  0  0  0  0
    6.1280   -1.9770    1.0770 C   0  0  0  0  0  0  0  0  0  0  0  0
    7.1030   -1.1580    0.5920 N   0  0  0  0  0  0  0  0  0  0  0  0
  1  2  1  0
  2  3  2  0
  2 22  1  0
  3  4  1  0
  4  5  1  0
  4 20  2  0
  5  6  1  0
  5 19  2  0
  6  7  2  0
  7  8  1  0
  7 18  1  0
  8  9  1  0
 10  9  1  1
 10 11  1  0
 10 17  1  0
 11 12  1  0
 12 13  1  0
 13 14  1  0
 14 15  1  6
 14 17  1  0
 15 16  1  0
 18 19  1  0
 20 21  1  0
 21 22  2  0
M  CHG  1  22   1
M  END
