
     RDKit          3D

 18 19  0  0  0  0  0  0  0  0999 V2000
   -2.6780   -2.2610    1.3920 C   0  0  0  0  0  0  0  0  0  0  0  0
   -2.0140   -1.3200    0.4210 C   0  0  2  0  0  0  0  0  0  0  0  0
   -0.9380   -0.5670    1.1740 C   0  0  0  0  0  0  0  0  0  0  0  0
   -0.1280    0.3220    0.2320 C   0  0  1  0  0  0  0  0  0  0  0  0
    1.0290   -0.4570   -0.1630 N   0  0  0  0  0  0  0  0  0  0  0  0
    2.3630   -0.0300    0.1270 C   0  0  0  0  0  0  0  0  0  0  0  0
    2.4640    1.0570    0.7430 O   0  0  0  0  0  0  0  0  0  0  0  0
    3.4990   -0.7880   -0.2560 N   0  0  0  0  0  0  0  0  0  0  0  0
    4.8380   -0.3770    0.0250 C   0  0  0  0  0  0  0  0  0  0  0  0
    5.4490    0.6310    0.6150 C   0  0  0  0  0  0  0  0  0  0  0  0
    4.9380    2.2430    1.5020 Br  0  0  0  0  0  0  0  0  0  0  0  0
    6.7460    0.0100    0.3140 C   0  0  0  0  0  0  0  0  0  0  0  0
    6.1500   -0.9970   -0.2750 C   0  0  0  0  0  0  0  0  0  0  0  0
   -0.9630    0.7370   -0.9520 C   0  0  0  0  0  0  0  0  0  0  0  0
   -2.4050    0.9580   -0.5450 C   0  0  1  0  0  0  0  0  0  0  0  0
   -2.5500    1.8710    0.6320 C   0  0  0  0  0  0  0  0  0  0  0  0
   -3.1500    1.5950   -1.7090 C   0  0  0  0  0  0  0  0  0  0  0  0
   -2.9910   -0.4150   -0.2540 C   0  0  0  0  0  0  0  0  0  0  0  0
  2  1  1  1
  2  3  1  0
  2 18  1  0
  3  4  1  0
  4  5  1  6
  4 14  1  0
  5  6  1  0
  6  7  2  0
  6  8  1  0
  8  9  1  0
  9 10  2  0
  9 13  1  0
 10 11  1  0
 10 12  1  0
 12 13  2  0
 14 15  1  0
 15 16  1  1
 15 17  1  0
 15 18  1  0
M  END
