
     RDKit          3D

 18 20  0  0  0  0  0  0  0  0999 V2000
    0.4800   -2.4700   -1.1240 O   0  0  0  0  0  0  0  0  0  0  0  0
    1.1380   -1.5840   -0.4750 C   0  0  0  0  0  0  0  0  0  0  0  0
    2.5200   -2.0110   -0.0630 C   0  0  0  0  0  0  0  0  0  0  0  0
    3.4110   -1.0580   -0.7300 N   0  0  0  0  0  0  0  0  0  0  0  0
    3.5950    0.0680    0.1360 C   0  0  0  0  0  0  0  0  0  0  0  0
    2.5610    1.0860   -0.0300 N   0  0  0  0  0  0  0  0  0  0  0  0
    1.1660    0.8300   -0.0460 C   0  0  0  0  0  0  0  0  0  0  0  0
    0.4670   -0.3040   -0.2320 C   0  0  0  0  0  0  0  0  0  0  0  0
   -0.8530   -0.8160   -0.2950 C   0  0  1  0  0  0  0  0  0  0  0  0
   -1.2400   -1.8450    0.7610 C   0  0  0  0  0  0  0  0  0  0  0  0
   -2.6280   -2.2140    0.2310 C   0  0  0  0  0  0  0  0  0  0  0  0
   -3.1700   -0.8500   -0.1940 C   0  0  0  0  0  0  0  0  0  0  0  0
   -1.9910    0.1020   -0.1050 C   0  0  0  0  0  0  0  0  0  0  0  0
   -2.3420    1.3380    0.1200 C   0  0  0  0  0  0  0  0  0  0  0  0
   -4.2260    1.6050    0.2120 Br  0  0  0  0  0  0  0  0  0  0  0  0
   -1.6160    2.5980    0.3430 C   0  0  0  0  0  0  0  0  0  0  0  0
   -0.4450    2.6390   -0.5890 C   0  0  0  0  0  0  0  0  0  0  0  0
    0.7740    2.2290    0.1820 C   0  0  0  0  0  0  0  0  0  0  0  0
  1  2  2  0
  2  3  1  0
  2  8  1  0
  3  4  1  0
  4  5  1  0
  5  6  1  0
  6  7  1  0
  7  8  2  0
  7 18  1  0
  8  9  1  0
  9 10  1  1
  9 13  1  0
 10 11  1  0
 11 12  1  0
 12 13  1  0
 13 14  2  0
 14 15  1  0
 14 16  1  0
 16 17  1  0
 17 18  1  0
M  END
