
     RDKit          3D

 22 24  0  0  0  0  0  0  0  0999 V2000
    5.1470    0.5370    0.8380 C   0  0  0  0  0  0  0  0  0  0  0  0
    4.5790   -0.3840   -0.2130 C   0  0  2  0  0  0  0  0  0  0  0  0
    4.5060    0.2650   -1.5680 C   0  0  0  0  0  0  0  0  0  0  0  0
    3.1410    0.6290   -1.8120 N   0  0  0  0  0  0  0  0  0  0  0  0
    2.5290    0.4360   -0.5010 C   0  0  1  0  0  0  0  0  0  0  0  0
    1.0660    0.3870   -0.5710 C   0  0  0  0  0  0  0  0  0  0  0  0
    0.1590   -0.7820   -1.4960 Cl  0  0  0  0  0  0  0  0  0  0  0  0
    0.3860    1.2820    0.1090 C   0  0  0  0  0  0  0  0  0  0  0  0
   -1.0510    1.2420    0.0470 N   0  0  0  0  0  0  0  0  0  0  0  0
   -1.7830    0.1610    0.5460 C   0  0  0  0  0  0  0  0  0  0  0  0
   -1.1240   -0.8590    1.0920 N   0  0  0  0  0  0  0  0  0  0  0  0
   -1.7170   -1.9460    1.6020 C   0  0  0  0  0  0  0  0  0  0  0  0
   -3.0780   -2.0200    1.5610 C   0  0  0  0  0  0  0  0  0  0  0  0
   -3.8300   -0.9890    1.0040 C   0  0  0  0  0  0  0  0  0  0  0  0
   -5.2010   -1.0690    0.9660 C   0  0  0  0  0  0  0  0  0  0  0  0
   -5.9300   -0.0390    0.4100 C   0  0  0  0  0  0  0  0  0  0  0  0
   -5.2670    1.0550   -0.0980 C   0  0  0  0  0  0  0  0  0  0  0  0
   -5.9840    2.1320   -0.6770 N   0  0  0  0  0  0  0  0  0  0  0  0
   -3.8870    1.1330   -0.0590 C   0  0  0  0  0  0  0  0  0  0  0  0
   -3.1500    0.1210    0.4880 C   0  0  0  0  0  0  0  0  0  0  0  0
    3.1750   -0.6950    0.0530 N   0  0  0  0  0  0  0  0  0  0  0  0
    2.9270   -1.9490   -0.5540 C   0  0  0  0  0  0  0  0  0  0  0  0
  2  1  1  1
  2  3  1  0
  2 21  1  0
  3  4  1  0
  4  5  1  0
  5  6  1  6
  5 21  1  0
  6  7  1  0
  6  8  2  3
  8  9  1  0
  9 10  1  0
 10 11  2  0
 10 20  1  0
 11 12  1  0
 12 13  2  0
 13 14  1  0
 14 15  2  0
 14 20  1  0
 15 16  1  0
 16 17  2  0
 17 18  1  0
 17 19  1  0
 19 20  2  0
 21 22  1  0
M  CHG  1   4   1
M  END
