
     RDKit          3D

 10  9  0  0  0  0  0  0  0  0999 V2000
   -2.1210   -1.2240    0.8700 C   0  0  0  0  0  0  0  0  0  0  0  0
   -1.5810   -0.2640   -0.1370 C   0  0  2  0  0  0  0  0  0  0  0  0
   -1.8420    1.1600    0.3150 C   0  0  0  0  0  0  0  0  0  0  0  0
   -2.2860   -0.4390   -1.3350 O   0  0  0  0  0  0  0  0  0  0  0  0
   -0.1170   -0.4840   -0.4540 C   0  0  1  0  0  0  0  0  0  0  0  0
    0.1990    0.4880   -1.4170 O   0  0  0  0  0  0  0  0  0  0  0  0
    0.7540   -0.3010    0.7530 C   0  0  0  0  0  0  0  0  0  0  0  0
    2.2140   -0.5120    0.4920 C   0  0  0  0  0  0  0  0  0  0  0  0
    2.8180    0.3990   -0.5210 C   0  0  0  0  0  0  0  0  0  0  0  0
    2.6820    1.7260   -0.1180 O   0  0  0  0  0  0  0  0  0  0  0  0
  2  1  1  1
  2  3  1  0
  2  4  1  0
  2  5  1  0
  5  6  1  6
  5  7  1  0
  7  8  1  0
  8  9  1  0
  9 10  1  0
M  END
