
     RDKit          3D

 10  9  0  0  0  0  0  0  0  0999 V2000
    0.6570   -1.8190   -0.0050 C   0  0  0  0  0  0  0  0  0  0  0  0
    0.5640   -0.2950   -0.1390 C   0  0  2  0  0  0  0  0  0  0  0  0
    1.4070    0.1400   -1.3190 C   0  0  0  0  0  0  0  0  0  0  0  0
    1.1280    0.2850    1.1140 C   0  0  0  0  0  0  0  0  0  0  0  0
    2.4710   -0.1540    1.2110 O   0  0  0  0  0  0  0  0  0  0  0  0
   -0.8510    0.0650   -0.4220 C   0  0  1  0  0  0  0  0  0  0  0  0
   -1.8100   -0.3690    0.6660 C   0  0  0  0  0  0  0  0  0  0  0  0
   -1.7660   -1.7480    0.8250 O   0  0  0  0  0  0  0  0  0  0  0  0
   -1.0900    1.4930   -0.7550 C   0  0  0  0  0  0  0  0  0  0  0  0
   -0.7330    2.3940    0.2140 O   0  0  0  0  0  0  0  0  0  0  0  0
  2  1  1  1
  2  3  1  0
  2  4  1  0
  2  6  1  0
  4  5  1  0
  6  7  1  1
  6  9  1  0
  7  8  1  0
  9 10  1  0
M  END
