
     RDKit          3D

 19 19  0  0  0  0  0  0  0  0999 V2000
   -0.7090   -2.2150   -0.9190 C   0  0  0  0  0  0  0  0  0  0  0  0
   -0.2530   -0.7300   -0.7580 C   0  0  1  0  0  0  0  0  0  0  0  0
    0.1620   -0.3800   -2.0270 O   0  0  0  0  0  0  0  0  0  0  0  0
   -1.4760    0.0900   -0.3760 C   0  0  2  0  0  0  0  0  0  0  0  0
   -1.1720    1.5320   -0.5940 C   0  0  0  0  0  0  0  0  0  0  0  0
   -2.2790    2.4900   -0.2560 C   0  0  0  0  0  0  0  0  0  0  0  0
   -2.5570    2.3760    1.0910 O   0  0  0  0  0  0  0  0  0  0  0  0
   -1.9230   -0.1780    0.8670 O   0  0  0  0  0  0  0  0  0  0  0  0
   -3.0720   -0.8290    1.0940 C   0  0  0  0  0  0  0  0  0  0  0  0
   -4.3770   -0.2630    0.6670 C   0  0  0  0  0  0  0  0  0  0  0  0
   -4.4060   -0.0750   -0.7030 O   0  0  0  0  0  0  0  0  0  0  0  0
    0.8650   -0.7390    0.2090 C   0  0  1  0  0  0  0  0  0  0  0  0
    1.8200   -1.7370   -0.1640 O   0  0  0  0  0  0  0  0  0  0  0  0
    2.7500   -1.7740    0.8820 C   0  0  0  0  0  0  0  0  0  0  0  0
    3.9270   -0.8660    0.6120 C   0  0  0  0  0  0  0  0  0  0  0  0
    3.5590    0.2860   -0.2850 C   0  0  2  0  0  0  0  0  0  0  0  0
    4.5240    1.4440   -0.1420 C   0  0  0  0  0  0  0  0  0  0  0  0
    4.5160    1.8940    1.1590 O   0  0  0  0  0  0  0  0  0  0  0  0
    1.8700    0.8030    0.1300 S   0  0  0  0  0  0  0  0  0  0  0  0
  2  1  1  6
  2  3  1  0
  2  4  1  0
  2 12  1  0
  4  5  1  1
  4  8  1  0
  5  6  1  0
  6  7  1  0
  8  9  1  0
  9 10  1  0
 10 11  1  0
 12 13  1  6
 12 19  1  0
 13 14  1  0
 14 15  1  0
 15 16  1  0
 16 17  1  1
 16 19  1  0
 17 18  1  0
M  END
