
     RDKit          3D

 11 11  0  0  0  0  0  0  0  0999 V2000
    0.6890   -0.7930   -1.2020 O   0  0  0  0  0  0  0  0  0  0  0  0
    0.2760   -0.1480   -0.2170 C   0  0  0  0  0  0  0  0  0  0  0  0
    1.0520   -0.0300    0.9190 O   0  0  0  0  0  0  0  0  0  0  0  0
    2.3220   -0.6050    1.0520 C   0  0  0  0  0  0  0  0  0  0  0  0
    3.2620   -0.0610    0.0010 C   0  0  0  0  0  0  0  0  0  0  0  0
    3.3450    1.3190    0.1770 O   0  0  0  0  0  0  0  0  0  0  0  0
   -1.0430    0.5040   -0.2320 C   0  0  2  0  0  0  0  0  0  0  0  0
   -1.9280   -0.0430    0.8810 C   0  0  0  0  0  0  0  0  0  0  0  0
   -3.2500   -0.1910    0.1550 C   0  0  0  0  0  0  0  0  0  0  0  0
   -2.8300   -0.7400   -1.0690 O   0  0  0  0  0  0  0  0  0  0  0  0
   -1.8300    0.1200   -1.4600 C   0  0  0  0  0  0  0  0  0  0  0  0
  1  2  2  0
  2  3  1  0
  7  2  1  6
  3  4  1  0
  4  5  1  0
  5  6  1  0
  7  8  1  0
  7 11  1  0
  8  9  1  0
  9 10  1  0
 10 11  1  0
M  END
