
     RDKit          3D

 10 10  0  0  0  0  0  0  0  0999 V2000
    3.4640    0.8750   -0.9490 O   0  0  0  0  0  0  0  0  0  0  0  0
    3.4580   -0.0670    0.0510 C   0  0  0  0  0  0  0  0  0  0  0  0
    2.2370   -0.9810   -0.0720 C   0  0  0  0  0  0  0  0  0  0  0  0
    1.0230   -0.0890    0.0380 C   0  0  0  0  0  0  0  0  0  0  0  0
   -0.1660   -0.8100   -0.0600 O   0  0  0  0  0  0  0  0  0  0  0  0
   -1.2030    0.0640    0.0480 C   0  0  2  0  0  0  0  0  0  0  0  0
   -2.1500   -0.2660    1.2070 C   0  0  0  0  0  0  0  0  0  0  0  0
   -3.3300    0.5980    0.7400 C   0  0  0  0  0  0  0  0  0  0  0  0
   -3.4440    0.2340   -0.5770 O   0  0  0  0  0  0  0  0  0  0  0  0
   -2.1890    0.0070   -1.0910 C   0  0  0  0  0  0  0  0  0  0  0  0
  1  2  1  0
  2  3  1  0
  3  4  1  0
  4  5  1  0
  6  5  1  6
  6  7  1  0
  6 10  1  0
  7  8  1  0
  8  9  1  0
  9 10  1  0
M  END
