
     RDKit          3D

 10 10  0  0  0  0  0  0  0  0999 V2000
    3.6400    1.0160    0.4280 O   0  0  0  0  0  0  0  0  0  0  0  0
    2.2970    1.0150    0.1450 C   0  0  0  0  0  0  0  0  0  0  0  0
    1.6410   -0.3220    0.3930 C   0  0  2  0  0  0  0  0  0  0  0  0
    2.2680   -1.2610   -0.4240 O   0  0  0  0  0  0  0  0  0  0  0  0
    0.1880   -0.2960    0.0150 C   0  0  2  0  0  0  0  0  0  0  0  0
   -0.6060    0.7560    0.7220 C   0  0  0  0  0  0  0  0  0  0  0  0
   -2.0150    0.7280    0.1370 C   0  0  0  0  0  0  0  0  0  0  0  0
   -2.1410   -0.2710   -0.9810 C   0  0  0  0  0  0  0  0  0  0  0  0
   -1.6080   -1.5930   -0.5280 C   0  0  0  0  0  0  0  0  0  0  0  0
   -0.4290   -1.5090    0.1800 O   0  0  0  0  0  0  0  0  0  0  0  0
  1  2  1  0
  2  3  1  0
  3  4  1  6
  3  5  1  0
  5  6  1  1
  5 10  1  0
  6  7  1  0
  7  8  1  0
  8  9  1  0
  9 10  1  0
M  END
