
     RDKit          3D

 11 11  0  0  0  0  0  0  0  0999 V2000
   -2.5650    0.9350   -0.4460 O   0  0  0  0  0  0  0  0  0  0  0  0
   -2.8500   -0.2730    0.1290 C   0  0  0  0  0  0  0  0  0  0  0  0
   -1.8890   -0.7570    1.1700 C   0  0  0  0  0  0  0  0  0  0  0  0
   -0.6070   -0.9510    0.7510 O   0  0  0  0  0  0  0  0  0  0  0  0
    0.0350    0.1410    0.2740 C   0  0  0  0  0  0  0  0  0  0  0  0
    1.4590   -0.1610   -0.0930 C   0  0  0  0  0  0  0  0  0  0  0  0
    2.1730   -1.3250   -0.0200 C   0  0  0  0  0  0  0  0  0  0  0  0
    3.3920   -1.0990   -0.4570 O   0  0  0  0  0  0  0  0  0  0  0  0
    3.5480    0.1560   -0.8240 C   0  0  0  0  0  0  0  0  0  0  0  0
    2.3150    0.7830   -0.5990 C   0  0  0  0  0  0  0  0  0  0  0  0
    2.1110    2.1260   -0.8750 O   0  0  0  0  0  0  0  0  0  0  0  0
  1  2  1  0
  2  3  1  0
  3  4  1  0
  4  5  1  0
  5  6  1  0
  6  7  2  0
  6 10  1  0
  7  8  1  0
  8  9  1  0
  9 10  2  0
 10 11  1  0
M  END
