
     RDKit          3D

 11 11  0  0  0  0  0  0  0  0999 V2000
    3.0960   -1.1970   -0.0000 O   0  0  0  0  0  0  0  0  0  0  0  0
    2.4490   -0.1270   -0.1310 C   0  0  0  0  0  0  0  0  0  0  0  0
    3.1490    1.0350   -0.3430 O   0  0  0  0  0  0  0  0  0  0  0  0
    0.9940   -0.1820   -0.0490 C   0  0  0  0  0  0  0  0  0  0  0  0
    0.3260   -1.3700    0.1660 C   0  0  0  0  0  0  0  0  0  0  0  0
   -1.0500   -1.4330    0.2450 C   0  0  0  0  0  0  0  0  0  0  0  0
   -1.8340   -0.3060    0.1130 C   0  0  0  0  0  0  0  0  0  0  0  0
   -3.2270   -0.3580    0.1910 O   0  0  0  0  0  0  0  0  0  0  0  0
   -1.1660    0.8810   -0.1020 C   0  0  0  0  0  0  0  0  0  0  0  0
   -1.9420    2.0260   -0.2380 O   0  0  0  0  0  0  0  0  0  0  0  0
    0.2130    0.9480   -0.1820 C   0  0  0  0  0  0  0  0  0  0  0  0
  1  2  2  0
  2  3  1  0
  2  4  1  0
  4  5  2  0
  4 11  1  0
  5  6  1  0
  6  7  2  0
  7  8  1  0
  7  9  1  0
  9 10  1  0
  9 11  2  0
M  END
