
     RDKit          3D

 24 26  0  0  0  0  0  0  0  0999 V2000
   -8.6290   -0.1120   -0.7120 C   0  0  0  0  0  0  0  0  0  0  0  0
   -7.5170    0.1590   -0.0870 C   0  0  0  0  0  0  0  0  0  0  0  0
   -7.5380    0.7720    1.2150 C   0  0  0  0  0  0  0  0  0  0  0  0
   -8.6580    1.0550    1.7690 N   0  0  0  0  0  0  0  0  0  0  0  0
   -6.2330   -0.1650   -0.6970 C   0  0  0  0  0  0  0  0  0  0  0  0
   -6.0540   -0.8240   -1.8840 N   0  0  0  0  0  0  0  0  0  0  0  0
   -4.7700   -0.9500   -2.1360 N   0  0  0  0  0  0  0  0  0  0  0  0
   -4.1110   -0.3760   -1.1170 C   0  0  0  0  0  0  0  0  0  0  0  0
   -2.7140   -0.2430   -0.9030 N   0  0  0  0  0  0  0  0  0  0  0  0
   -1.9400    0.8260   -1.4950 C   0  0  0  0  0  0  0  0  0  0  0  0
   -0.4800    0.5440   -1.2170 C   0  0  0  0  0  0  0  0  0  0  0  0
   -0.2170    0.4190    0.1750 N   0  0  0  0  0  0  0  0  0  0  0  0
    1.0880   -0.1160    0.4800 C   0  0  0  0  0  0  0  0  0  0  0  0
    2.2010    0.8100    0.1320 C   0  0  0  0  0  0  0  0  0  0  0  0
    3.5180    0.2950    0.4480 N   0  0  2  0  0  0  0  0  0  0  0  0
    4.4780    1.0580   -0.3050 C   0  0  0  0  0  0  0  0  0  0  0  0
    5.6600    0.2780   -0.7890 C   0  0  0  0  0  0  0  0  0  0  0  0
    6.0760   -0.7910    0.1870 C   0  0  1  0  0  0  0  0  0  0  0  0
    6.5250   -0.1230    1.4770 C   0  0  0  0  0  0  0  0  0  0  0  0
    4.9310   -1.7080    0.4590 C   0  0  0  0  0  0  0  0  0  0  0  0
    3.5720   -1.1160    0.2310 C   0  0  0  0  0  0  0  0  0  0  0  0
   -1.2010   -0.3350    0.9170 C   0  0  0  0  0  0  0  0  0  0  0  0
   -2.0100   -1.1880   -0.0590 C   0  0  0  0  0  0  0  0  0  0  0  0
   -5.0190    0.0770   -0.2840 O   0  0  0  0  0  0  0  0  0  0  0  0
  1  2  2  0
  2  3  1  0
  2  5  1  0
  3  4  2  0
  5  6  2  0
  5 24  1  0
  6  7  1  0
  7  8  2  0
  8  9  1  0
  8 24  1  0
  9 10  1  0
  9 23  1  0
 10 11  1  0
 11 12  1  0
 12 13  1  0
 12 22  1  0
 13 14  1  0
 15 14  1  6
 15 16  1  0
 15 21  1  0
 16 17  1  0
 17 18  1  0
 18 19  1  1
 18 20  1  0
 20 21  1  0
 22 23  1  0
M  CHG  1  15   1
M  END
