
     RDKit          3D

 24 26  0  0  0  0  0  0  0  0999 V2000
   -1.1210    4.9320    0.2170 C   0  0  0  0  0  0  0  0  0  0  0  0
   -0.3400    3.8730    0.2600 C   0  0  0  0  0  0  0  0  0  0  0  0
   -0.9060    2.5930    0.2810 N   0  0  0  0  0  0  0  0  0  0  0  0
   -0.1940    1.4940    0.3280 C   0  0  0  0  0  0  0  0  0  0  0  0
   -0.9150    0.1820    0.3360 C   0  0  0  0  0  0  0  0  0  0  0  0
   -2.3070    0.5040   -0.0510 N   0  0  0  0  0  0  0  0  0  0  0  0
   -3.1660   -0.6270    0.0550 C   0  0  1  0  0  0  0  0  0  0  0  0
   -3.7550   -1.0480   -1.2820 C   0  0  0  0  0  0  0  0  0  0  0  0
   -2.5200   -1.8470    0.6610 C   0  0  0  0  0  0  0  0  0  0  0  0
   -4.3380   -0.2270    0.9460 C   0  0  0  0  0  0  0  0  0  0  0  0
    1.2150    1.5620    0.3600 N   0  0  0  0  0  0  0  0  0  0  0  0
    2.2600    0.6350    0.4050 C   0  0  0  0  0  0  0  0  0  0  0  0
    2.2470   -0.8170    0.3670 C   0  0  0  0  0  0  0  0  0  0  0  0
    1.4470   -1.5780    1.1310 C   0  0  0  0  0  0  0  0  0  0  0  0
    1.3880   -2.9600    1.0160 C   0  0  0  0  0  0  0  0  0  0  0  0
    2.1970   -3.5490    0.0710 C   0  0  0  0  0  0  0  0  0  0  0  0
    2.9960   -2.7770   -0.6860 N   0  0  0  0  0  0  0  0  0  0  0  0
    3.0590   -1.4580   -0.5850 C   0  0  0  0  0  0  0  0  0  0  0  0
    3.8890   -0.6600   -1.3720 O   0  0  0  0  0  0  0  0  0  0  0  0
    4.6990   -1.3230   -2.3240 C   0  0  0  0  0  0  0  0  0  0  0  0
    3.4270    1.3380    0.3980 C   0  0  0  0  0  0  0  0  0  0  0  0
    3.1990    2.7070    0.3570 N   0  0  0  0  0  0  0  0  0  0  0  0
    1.7730    2.8950    0.3310 C   0  0  0  0  0  0  0  0  0  0  0  0
    1.0790    3.9760    0.2860 N   0  0  0  0  0  0  0  0  0  0  0  0
  1  2  2  0
  2  3  1  0
  2 24  1  0
  3  4  2  0
  4  5  1  0
  4 11  1  0
  5  6  1  0
  6  7  1  0
  7  8  1  6
  7  9  1  0
  7 10  1  0
 11 12  1  0
 11 23  1  0
 12 13  1  0
 12 21  2  0
 13 14  2  0
 13 18  1  0
 14 15  1  0
 15 16  2  0
 16 17  1  0
 17 18  2  0
 18 19  1  0
 19 20  1  0
 21 22  1  0
 22 23  1  0
 23 24  2  0
M  CHG  1   6   1
M  END
