
     RDKit          3D

 24 26  0  0  0  0  0  0  0  0999 V2000
    4.3810   -4.4430    3.0810 C   0  0  0  0  0  0  0  0  0  0  0  0
    4.0610   -3.6750    1.8940 N   0  0  0  0  0  0  0  0  0  0  0  0
    3.0640   -2.6590    1.9280 C   0  0  0  0  0  0  0  0  0  0  0  0
    2.4230   -2.3910    2.9970 O   0  0  0  0  0  0  0  0  0  0  0  0
    2.8080   -1.9290    0.6640 C   0  0  0  0  0  0  0  0  0  0  0  0
    1.7720   -0.9270    0.8450 N   0  0  0  0  0  0  0  0  0  0  0  0
    1.4150   -0.1420   -0.2810 C   0  0  0  0  0  0  0  0  0  0  0  0
    0.4250    0.8150   -0.1050 C   0  0  0  0  0  0  0  0  0  0  0  0
    0.0610    1.5800   -1.1710 C   0  0  0  0  0  0  0  0  0  0  0  0
   -1.0060    2.6210   -1.0170 C   0  0  0  0  0  0  0  0  0  0  0  0
   -2.3160    2.1720   -1.4710 C   0  0  0  0  0  0  0  0  0  0  0  0
   -2.7180    2.6070   -2.7400 C   0  0  0  0  0  0  0  0  0  0  0  0
   -3.9300    2.2390   -3.2810 C   0  0  0  0  0  0  0  0  0  0  0  0
   -4.7320    1.4260   -2.5270 C   0  0  0  0  0  0  0  0  0  0  0  0
   -4.3400    1.0180   -1.3220 N   0  0  0  0  0  0  0  0  0  0  0  0
   -3.1620    1.3560   -0.7560 C   0  0  0  0  0  0  0  0  0  0  0  0
   -2.8060    0.8940    0.5470 N   0  0  0  0  0  0  0  0  0  0  0  0
   -2.7270    1.6060    1.6760 C   0  0  0  0  0  0  0  0  0  0  0  0
   -2.3600    0.7490    2.6730 C   0  0  0  0  0  0  0  0  0  0  0  0
   -2.2160   -0.5050    2.1220 C   0  0  0  0  0  0  0  0  0  0  0  0
   -2.5030   -0.3600    0.8120 N   0  0  0  0  0  0  0  0  0  0  0  0
    0.6890    1.3750   -2.3810 C   0  0  0  0  0  0  0  0  0  0  0  0
    1.6620    0.4240   -2.5230 C   0  0  0  0  0  0  0  0  0  0  0  0
    2.0190   -0.3280   -1.4760 N   0  0  0  0  0  0  0  0  0  0  0  0
  1  2  1  0
  2  3  1  0
  3  4  2  0
  3  5  1  0
  5  6  1  0
  6  7  1  0
  7  8  2  0
  7 24  1  0
  8  9  1  0
  9 10  1  0
  9 22  2  0
 10 11  1  0
 11 12  2  0
 11 16  1  0
 12 13  1  0
 13 14  2  0
 14 15  1  0
 15 16  2  0
 16 17  1  0
 17 18  1  0
 17 21  1  0
 18 19  2  0
 19 20  1  0
 20 21  2  0
 22 23  1  0
 23 24  2  0
M  CHG  1  24   1
M  END
