
     RDKit          3D

 24 26  0  0  0  0  0  0  0  0999 V2000
   -2.1530   -1.2470    3.2380 C   0  0  0  0  0  0  0  0  0  0  0  0
   -3.2840   -1.2070    2.6150 C   0  0  0  0  0  0  0  0  0  0  0  0
   -3.4710   -0.6860    1.2660 C   0  0  0  0  0  0  0  0  0  0  0  0
   -4.7100   -0.7350    0.8110 C   0  0  0  0  0  0  0  0  0  0  0  0
   -5.7790   -1.3080    1.7060 C   0  0  0  0  0  0  0  0  0  0  0  0
   -2.3660   -0.1580    0.5190 N   0  0  0  0  0  0  0  0  0  0  0  0
   -1.1120   -0.1360    0.9530 N   0  0  0  0  0  0  0  0  0  0  0  0
   -0.2820    0.4160    0.0680 C   0  0  0  0  0  0  0  0  0  0  0  0
    1.1840    0.6140    0.1990 C   0  0  0  0  0  0  0  0  0  0  0  0
    1.9210   -0.4680   -0.2830 O   0  0  0  0  0  0  0  0  0  0  0  0
    3.3000   -0.4460   -0.2370 C   0  0  0  0  0  0  0  0  0  0  0  0
    3.9830   -1.5370   -0.7240 C   0  0  0  0  0  0  0  0  0  0  0  0
    5.3730   -1.5120   -0.6760 C   0  0  0  0  0  0  0  0  0  0  0  0
    6.0440   -0.4210   -0.1520 C   0  0  0  0  0  0  0  0  0  0  0  0
    7.3630   -0.2010   -0.0160 N   0  0  0  0  0  0  0  0  0  0  0  0
    7.5010    1.0020    0.5460 C   0  0  0  0  0  0  0  0  0  0  0  0
    6.2840    1.5340    0.7600 N   0  0  0  0  0  0  0  0  0  0  0  0
    5.3520    0.6710    0.3350 C   0  0  0  0  0  0  0  0  0  0  0  0
    3.9550    0.6440    0.2860 C   0  0  0  0  0  0  0  0  0  0  0  0
   -1.0690    0.7490   -0.9620 N   0  0  0  0  0  0  0  0  0  0  0  0
   -2.3780    0.3940   -0.6890 C   0  0  0  0  0  0  0  0  0  0  0  0
   -3.4800    0.6480   -1.6590 C   0  0  0  0  0  0  0  0  0  0  0  0
   -2.8880    1.3960   -2.8050 N   0  0  0  0  0  0  0  0  0  0  0  0
   -3.9360    1.6640   -3.7710 C   0  0  0  0  0  0  0  0  0  0  0  0
  1  2  2  0
  2  3  1  0
  3  4  2  3
  3  6  1  0
  4  5  1  0
  6  7  1  0
  6 21  1  0
  7  8  2  0
  8  9  1  0
  8 20  1  0
  9 10  1  0
 10 11  1  0
 11 12  2  0
 11 19  1  0
 12 13  1  0
 13 14  2  0
 14 15  1  0
 14 18  1  0
 15 16  2  0
 16 17  1  0
 17 18  1  0
 18 19  2  0
 20 21  2  0
 21 22  1  0
 22 23  1  0
 23 24  1  0
M  CHG  1  15   1
M  END
