
     RDKit          3D

 24 26  0  0  0  0  0  0  0  0999 V2000
    3.5670    2.0460    2.5040 C   0  0  0  0  0  0  0  0  0  0  0  0
    3.9540    1.7010    1.1600 N   0  0  0  0  0  0  0  0  0  0  0  0
    4.9560    2.4880    0.4920 C   0  0  0  0  0  0  0  0  0  0  0  0
    3.3790    0.6010    0.4540 C   0  0  0  0  0  0  0  0  0  0  0  0
    2.4200   -0.1500    1.0910 C   0  0  0  0  0  0  0  0  0  0  0  0
    1.8470   -1.2160    0.4380 C   0  0  0  0  0  0  0  0  0  0  0  0
    0.8210   -2.0260    1.1100 C   0  0  0  0  0  0  0  0  0  0  0  0
   -0.5540   -1.5320    0.8900 C   0  0  0  0  0  0  0  0  0  0  0  0
   -1.1750   -0.6130    1.7100 C   0  0  0  0  0  0  0  0  0  0  0  0
   -2.4320   -0.2020    1.4530 N   0  0  0  0  0  0  0  0  0  0  0  0
   -3.1540   -0.6520    0.4000 C   0  0  0  0  0  0  0  0  0  0  0  0
   -4.4780   -0.2010    0.1540 N   0  0  0  0  0  0  0  0  0  0  0  0
   -5.2960   -0.6420   -0.9510 C   0  0  0  0  0  0  0  0  0  0  0  0
   -6.3230    0.4600   -1.1040 C   0  0  0  0  0  0  0  0  0  0  0  0
   -6.5940    0.8350    0.3440 C   0  0  0  0  0  0  0  0  0  0  0  0
   -5.2130    0.7550    0.9530 C   0  0  0  0  0  0  0  0  0  0  0  0
   -2.5380   -1.5480   -0.3940 N   0  0  0  0  0  0  0  0  0  0  0  0
   -1.2860   -1.9910   -0.1840 C   0  0  0  0  0  0  0  0  0  0  0  0
    2.2690   -1.4860   -0.8450 C   0  0  0  0  0  0  0  0  0  0  0  0
    3.2410   -0.7250   -1.4910 C   0  0  0  0  0  0  0  0  0  0  0  0
    3.6470   -1.0580   -2.8470 C   0  0  0  0  0  0  0  0  0  0  0  0
    4.6320   -0.3060   -3.5300 N   0  0  0  0  0  0  0  0  0  0  0  0
    3.1250   -2.0310   -3.4440 O   0  0  0  0  0  0  0  0  0  0  0  0
    3.7490    0.2900   -0.7960 N   0  0  0  0  0  0  0  0  0  0  0  0
  1  2  1  0
  2  3  1  0
  2  4  1  0
  4  5  2  0
  4 24  1  0
  5  6  1  0
  6  7  1  0
  6 19  2  0
  7  8  1  0
  8  9  2  0
  8 18  1  0
  9 10  1  0
 10 11  2  0
 11 12  1  0
 11 17  1  0
 12 13  1  0
 12 16  1  0
 13 14  1  0
 14 15  1  0
 15 16  1  0
 17 18  2  0
 19 20  1  0
 20 21  1  0
 20 24  2  0
 21 22  1  0
 21 23  2  0
M  CHG  1  22   1
M  END
