
     RDKit          3D

 25 29  0  0  0  0  0  0  0  0999 V2000
    4.2230   -3.0170   -0.3380 C   0  0  0  0  0  0  0  0  0  0  0  0
    4.3970   -1.8870    1.0260 S   0  0  2  0  0  0  0  0  0  0  0  0
    5.8380   -1.4770    1.0720 O   0  0  0  0  0  0  0  0  0  0  0  0
    3.9530   -2.4760    2.3180 O   0  0  0  0  0  0  0  0  0  0  0  0
    3.4830   -0.4610    0.7260 N   0  0  0  0  0  0  0  0  0  0  0  0
    2.0370   -0.7990    0.5980 C   0  0  0  0  0  0  0  0  0  0  0  0
    1.3460    0.4890    0.3430 C   0  0  0  0  0  0  0  0  0  0  0  0
    1.9380    1.7220    0.4610 N   0  0  0  0  0  0  0  0  0  0  0  0
    1.0690    2.6840    0.1650 C   0  0  0  0  0  0  0  0  0  0  0  0
    1.1910    4.0590    0.1380 C   0  0  0  0  0  0  0  0  0  0  0  0
    0.1580    4.8370   -0.2000 N   0  0  0  0  0  0  0  0  0  0  0  0
   -1.0060    4.2770   -0.5150 C   0  0  0  0  0  0  0  0  0  0  0  0
   -2.1510    4.8500   -0.8780 N   0  0  0  0  0  0  0  0  0  0  0  0
   -3.0420    3.8960   -1.0960 C   0  0  0  0  0  0  0  0  0  0  0  0
   -2.4420    2.6780   -0.8640 C   0  0  0  0  0  0  0  0  0  0  0  0
   -1.1490    2.8820   -0.4930 C   0  0  0  0  0  0  0  0  0  0  0  0
   -0.1180    2.0400   -0.1530 C   0  0  0  0  0  0  0  0  0  0  0  0
    0.0740    0.6910   -0.0370 N   0  0  0  0  0  0  0  0  0  0  0  0
   -0.9600   -0.2390   -0.3040 C   0  0  2  0  0  0  0  0  0  0  0  0
   -1.9080   -0.2970    0.8760 C   0  0  0  0  0  0  0  0  0  0  0  0
   -2.3120   -1.7590    0.9910 C   0  0  1  0  0  0  0  0  0  0  0  0
   -3.0550   -2.1340   -0.2360 C   0  0  0  0  0  0  0  0  0  0  0  0
   -2.0080   -2.1260   -1.3230 C   0  0  0  0  0  0  0  0  0  0  0  0
   -0.7040   -1.6370   -0.5840 C   0  0  2  0  0  0  0  0  0  0  0  0
   -0.9310   -2.3850    0.6990 C   0  0  0  0  0  0  0  0  0  0  0  0
  2  1  1  6
  2  3  2  0
  2  4  2  0
  2  5  1  0
  5  6  1  0
  6  7  1  0
  7  8  2  0
  7 18  1  0
  8  9  1  0
  9 10  2  0
  9 17  1  0
 10 11  1  0
 11 12  2  0
 12 13  1  0
 12 16  1  0
 13 14  1  0
 14 15  2  0
 15 16  1  0
 16 17  2  0
 17 18  1  0
 19 18  1  1
 19 20  1  0
 19 24  1  0
 21 20  1  6
 21 22  1  0
 21 25  1  0
 22 23  1  0
 24 23  1  6
 24 25  1  0
M  END
