
     RDKit          3D

 31 32  0  0  0  0  0  0  0  0999 V2000
    1.4250   -5.4630    1.1620 N   0  0  0  0  0  0  0  0  0  0  0  0
    1.1290   -4.4820    0.3000 O   0  0  0  0  0  0  0  0  0  0  0  0
    0.5360   -3.4430    0.9760 C   0  0  0  0  0  0  0  0  0  0  0  0
    0.1650   -2.2960    0.0410 C   0  0  2  0  0  0  0  0  0  0  0  0
    1.3900   -1.8550   -0.7100 C   0  0  0  0  0  0  0  0  0  0  0  0
    2.4610   -1.2420    0.1040 C   0  0  0  0  0  0  0  0  0  0  0  0
    3.0890   -2.0580    0.8410 O   0  0  0  0  0  0  0  0  0  0  0  0
    2.8100    0.1640    0.0960 N   0  0  0  0  0  0  0  0  0  0  0  0
    4.1960    0.4570    0.0730 C   0  0  0  0  0  0  0  0  0  0  0  0
    5.1020   -0.4390    0.1180 O   0  0  0  0  0  0  0  0  0  0  0  0
    4.6560    1.8120   -0.0050 N   0  0  0  0  0  0  0  0  0  0  0  0
    6.0090    2.0550   -0.0170 O   0  0  0  0  0  0  0  0  0  0  0  0
    6.2000    3.3220   -0.1880 O   0  0  0  0  0  0  0  0  0  0  0  0
    5.4940    4.0440    0.6670 O   0  0  0  0  0  0  0  0  0  0  0  0
    6.3450    4.5900    1.5070 O   0  0  0  0  0  0  0  0  0  0  0  0
    1.8230    1.1880    0.0960 C   0  0  0  0  0  0  0  0  0  0  0  0
    2.0960    2.2510    0.8040 O   0  0  0  0  0  0  0  0  0  0  0  0
    0.6600    1.1920   -0.5310 O   0  0  0  0  0  0  0  0  0  0  0  0
   -0.0290    1.3940   -1.6610 C   0  0  0  0  0  0  0  0  0  0  0  0
   -1.3940    2.0030   -1.2530 C   0  0  0  0  0  0  0  0  0  0  0  0
   -2.2390    1.0980   -0.6290 N   0  0  0  0  0  0  0  0  0  0  0  0
   -1.9150    0.4590    0.5700 C   0  0  0  0  0  0  0  0  0  0  0  0
   -1.7340   -1.0300    0.5510 C   0  0  1  0  0  0  0  0  0  0  0  0
   -2.3550   -1.7230   -0.6180 C   0  0  0  0  0  0  0  0  0  0  0  0
   -3.7430   -1.2820   -0.8400 N   0  0  0  0  0  0  0  0  0  0  0  0
   -3.5510    0.3800   -1.5620 P   0  0  0  0  0  0  0  0  0  0  0  0
   -5.0630    1.2680   -1.1740 N   0  0  0  0  0  0  0  0  0  0  0  0
   -5.0980    1.9280    0.4660 P   0  0  0  0  0  0  0  0  0  0  0  0
   -4.7120    3.6230    0.5350 O   0  0  0  0  0  0  0  0  0  0  0  0
   -6.6840    1.7380    1.1460 O   0  0  0  0  0  0  0  0  0  0  0  0
   -0.4130   -1.3130    0.7500 O   0  0  0  0  0  0  0  0  0  0  0  0
  1  2  1  0
  2  3  1  0
  4  3  1  1
  4  5  1  0
  4 31  1  0
  5  6  1  0
  6  7  2  0
  6  8  1  0
  8  9  1  0
  8 16  1  0
  9 10  2  0
  9 11  1  0
 11 12  1  0
 12 13  1  0
 13 14  1  0
 14 15  1  0
 16 17  2  0
 16 18  1  0
 18 19  1  0
 19 20  1  0
 20 21  1  0
 21 22  1  0
 21 26  1  0
 22 23  1  0
 23 24  1  6
 23 31  1  0
 24 25  1  0
 25 26  1  0
 26 27  1  0
 27 28  1  0
 28 29  1  0
 28 30  1  0
M  END
