
     RDKit          3D

 31 32  0  0  0  0  0  0  0  0999 V2000
   -6.9420   -1.2130   -2.3910 O   0  0  0  0  0  0  0  0  0  0  0  0
   -7.4970   -0.4890   -1.5300 C   0  0  0  0  0  0  0  0  0  0  0  0
   -6.9330    0.7710   -1.1890 N   0  0  0  0  0  0  0  0  0  0  0  0
   -5.7320    1.2720   -1.7890 C   0  0  2  0  0  0  0  0  0  0  0  0
   -5.5130    2.5700   -1.4340 O   0  0  0  0  0  0  0  0  0  0  0  0
   -5.9600    1.2420   -3.1870 O   0  0  0  0  0  0  0  0  0  0  0  0
   -4.5390    0.3610   -1.5490 C   0  0  0  0  0  0  0  0  0  0  0  0
   -4.7360   -0.7070   -0.9720 N   0  0  0  0  0  0  0  0  0  0  0  0
   -4.1520   -1.8300   -0.5110 N   0  0  0  0  0  0  0  0  0  0  0  0
   -3.9320   -2.1370    0.8440 N   0  0  0  0  0  0  0  0  0  0  0  0
   -3.3450   -1.3940    1.7000 C   0  0  0  0  0  0  0  0  0  0  0  0
   -3.0350   -1.5180    3.0650 O   0  0  0  0  0  0  0  0  0  0  0  0
   -1.7550   -0.8960    3.2210 C   0  0  0  0  0  0  0  0  0  0  0  0
   -1.8900    0.2870    2.3060 C   0  0  2  0  0  0  0  0  0  0  0  0
   -2.8360   -0.1400    1.3600 O   0  0  0  0  0  0  0  0  0  0  0  0
   -0.7240    0.6310    1.6730 O   0  0  0  0  0  0  0  0  0  0  0  0
   -0.4380   -0.2150    0.2030 P   0  0  0  0  0  0  0  0  0  0  0  0
    1.0980    0.2030   -0.5500 N   0  0  0  0  0  0  0  0  0  0  0  0
    2.3260   -0.1390    0.0850 C   0  0  0  0  0  0  0  0  0  0  0  0
    2.3430   -0.7500    1.1980 O   0  0  0  0  0  0  0  0  0  0  0  0
    3.5620    0.2030   -0.5230 N   0  0  0  0  0  0  0  0  0  0  0  0
    4.8550   -0.1170    0.0810 C   0  0  0  0  0  0  0  0  0  0  0  0
    5.0490    0.5380    1.3980 C   0  0  0  0  0  0  0  0  0  0  0  0
    6.1950    0.2910    2.0450 O   0  0  0  0  0  0  0  0  0  0  0  0
    7.4010    0.5820    1.5580 C   0  0  0  0  0  0  0  0  0  0  0  0
    7.9720   -0.2850    0.0460 P   0  0  0  0  0  0  0  0  0  0  0  0
    8.9310   -1.6780    0.4220 O   0  0  0  0  0  0  0  0  0  0  0  0
    8.7650    0.7620   -1.0740 O   0  0  0  0  0  0  0  0  0  0  0  0
   -1.7680   -0.3720   -0.8340 O   0  0  0  0  0  0  0  0  0  0  0  0
   -2.0560    0.7030   -1.6120 C   0  0  0  0  0  0  0  0  0  0  0  0
   -3.3570    0.8830   -2.0370 O   0  0  0  0  0  0  0  0  0  0  0  0
  1  2  2  0
  2  3  1  0
  3  4  1  0
  4  5  1  1
  4  6  1  0
  4  7  1  0
  7  8  2  0
  7 31  1  0
  8  9  1  0
  9 10  1  0
 10 11  2  0
 11 12  1  0
 11 15  1  0
 12 13  1  0
 14 13  1  1
 14 15  1  0
 14 16  1  0
 16 17  1  0
 17 18  1  0
 17 29  1  0
 18 19  1  0
 19 20  2  0
 19 21  1  0
 21 22  1  0
 22 23  1  0
 23 24  1  0
 24 25  1  0
 25 26  1  0
 26 27  1  0
 26 28  1  0
 29 30  1  0
 30 31  1  0
M  END
