
     RDKit          3D

 31 33  0  0  0  0  0  0  0  0999 V2000
    7.4420    2.8370    0.3670 N   0  0  0  0  0  0  0  0  0  0  0  0
    6.8780    1.5740    0.0870 C   0  0  0  0  0  0  0  0  0  0  0  0
    7.6580    0.5300   -0.2070 N   0  0  0  0  0  0  0  0  0  0  0  0
    7.1330   -0.6670   -0.4730 C   0  0  0  0  0  0  0  0  0  0  0  0
    5.8040   -0.8260   -0.4440 N   0  0  0  0  0  0  0  0  0  0  0  0
    4.9490    0.1730   -0.1570 C   0  0  0  0  0  0  0  0  0  0  0  0
    5.5150    1.3990    0.1130 C   0  0  0  0  0  0  0  0  0  0  0  0
    4.4570    2.2130    0.3660 N   0  0  0  0  0  0  0  0  0  0  0  0
    3.3190    1.5040    0.2510 C   0  0  0  0  0  0  0  0  0  0  0  0
    3.6000    0.2420   -0.0720 N   0  0  0  0  0  0  0  0  0  0  0  0
    2.7480   -0.8900   -0.3050 C   0  0  2  0  0  0  0  0  0  0  0  0
    1.4500   -0.5210   -0.6570 O   0  0  0  0  0  0  0  0  0  0  0  0
    0.8170   -1.7430   -0.7160 C   0  0  2  0  0  0  0  0  0  0  0  0
   -0.6640   -1.6340   -0.6580 C   0  0  0  0  0  0  0  0  0  0  0  0
   -0.9410   -1.0030    0.5810 O   0  0  0  0  0  0  0  0  0  0  0  0
   -2.4400   -0.8050    0.8180 P   0  0  0  0  0  0  0  0  0  0  0  0
   -2.0990   -0.0810    2.2920 O   0  0  0  0  0  0  0  0  0  0  0  0
   -2.6540   -2.4580    0.8150 O   0  0  0  0  0  0  0  0  0  0  0  0
   -2.6470    0.0600   -0.5230 O   0  0  0  0  0  0  0  0  0  0  0  0
   -3.8200    1.0080   -0.8430 P   0  0  0  0  0  0  0  0  0  0  0  0
   -3.5360    1.6490    0.6670 O   0  0  0  0  0  0  0  0  0  0  0  0
   -4.8550   -0.2690   -0.9400 O   0  0  0  0  0  0  0  0  0  0  0  0
   -5.0160    2.0650   -1.0050 N   0  0  0  0  0  0  0  0  0  0  0  0
   -6.4930    1.8400   -0.2400 P   0  0  0  0  0  0  0  0  0  0  0  0
   -6.0290    0.8310    0.8110 O   0  0  0  0  0  0  0  0  0  0  0  0
   -6.9850    2.8650    0.9820 O   0  0  0  0  0  0  0  0  0  0  0  0
   -7.5760    0.7030   -0.8080 O   0  0  0  0  0  0  0  0  0  0  0  0
    1.2760   -2.5240    0.5100 C   0  0  1  0  0  0  0  0  0  0  0  0
    1.6820   -3.7890    0.1450 O   0  0  0  0  0  0  0  0  0  0  0  0
    2.4980   -1.7130    0.9400 C   0  0  1  0  0  0  0  0  0  0  0  0
    3.5680   -2.5470    1.2420 O   0  0  0  0  0  0  0  0  0  0  0  0
  1  2  1  0
  2  3  2  0
  2  7  1  0
  3  4  1  0
  4  5  2  0
  5  6  1  0
  6  7  2  0
  6 10  1  0
  7  8  1  0
  8  9  2  0
  9 10  1  0
 11 10  1  1
 11 12  1  0
 11 30  1  0
 12 13  1  0
 13 14  1  1
 13 28  1  0
 14 15  1  0
 15 16  1  0
 16 17  1  0
 16 18  1  0
 16 19  1  0
 19 20  1  0
 20 21  1  0
 20 22  1  0
 20 23  1  0
 23 24  1  0
 24 25  1  0
 24 26  1  0
 24 27  1  0
 28 29  1  6
 28 30  1  0
 30 31  1  6
M  END
