
     RDKit          3D

 31 31  0  0  0  0  0  0  0  0999 V2000
   -4.6170    3.7420   -1.2840 N   0  0  0  0  0  0  0  0  0  0  0  0
   -3.3340    3.3230   -1.7860 C   0  0  2  0  0  0  0  0  0  0  0  0
   -3.3510    3.5680   -3.2990 C   0  0  0  0  0  0  0  0  0  0  0  0
   -3.5650    4.9300   -3.4690 O   0  0  0  0  0  0  0  0  0  0  0  0
   -3.0190    1.9960   -1.4840 O   0  0  0  0  0  0  0  0  0  0  0  0
   -2.0260    1.5190   -0.9050 N   0  0  0  0  0  0  0  0  0  0  0  0
   -1.0250    1.1200   -0.3760 C   0  0  0  0  0  0  0  0  0  0  0  0
    0.1820    1.8110   -0.5170 C   0  0  0  0  0  0  0  0  0  0  0  0
    0.2440    3.0050   -1.2960 N   0  0  0  0  0  0  0  0  0  0  0  0
    0.7150    4.0730   -0.8770 O   0  0  0  0  0  0  0  0  0  0  0  0
    1.3270    1.3550    0.0880 C   0  0  0  0  0  0  0  0  0  0  0  0
    1.3050    0.2340    0.8280 N   0  0  0  0  0  0  0  0  0  0  0  0
    2.5040   -0.2160    1.4440 C   0  0  0  0  0  0  0  0  0  0  0  0
    2.9860    0.4840    2.4050 N   0  0  0  0  0  0  0  0  0  0  0  0
    4.4760    0.0700    3.2890 P   0  0  0  0  0  0  0  0  0  0  0  0
    4.2550    0.1350    5.0100 O   0  0  0  0  0  0  0  0  0  0  0  0
    5.8250    1.0350    2.7840 O   0  0  0  0  0  0  0  0  0  0  0  0
    3.1770   -1.3650    1.0660 O   0  0  0  0  0  0  0  0  0  0  0  0
    4.4800   -1.5520    1.2780 O   0  0  0  0  0  0  0  0  0  0  0  0
    5.2240   -0.9040    0.4120 O   0  0  0  0  0  0  0  0  0  0  0  0
    5.5390   -1.9950   -0.9120 P   0  0  0  0  0  0  0  0  0  0  0  0
    6.6070   -1.2550   -2.0720 O   0  0  0  0  0  0  0  0  0  0  0  0
    3.9980   -2.2510   -1.7050 O   0  0  0  0  0  0  0  0  0  0  0  0
    0.1430   -0.4570    0.9820 C   0  0  0  0  0  0  0  0  0  0  0  0
   -1.0270   -0.0340    0.3910 C   0  0  0  0  0  0  0  0  0  0  0  0
   -2.2400   -0.7270    0.5540 N   0  0  0  0  0  0  0  0  0  0  0  0
   -2.4360   -1.9790    1.2220 C   0  0  0  0  0  0  0  0  0  0  0  0
   -1.8230   -3.0900    0.4370 C   0  0  2  0  0  0  0  0  0  0  0  0
   -2.4190   -3.1660   -0.8370 O   0  0  0  0  0  0  0  0  0  0  0  0
   -2.0210   -4.4440    1.0750 C   0  0  0  0  0  0  0  0  0  0  0  0
   -3.3460   -4.7990    1.2150 O   0  0  0  0  0  0  0  0  0  0  0  0
  2  1  1  6
  2  3  1  0
  2  5  1  0
  3  4  1  0
  5  6  1  0
  6  7  2  3
  7  8  1  0
  7 25  1  0
  8  9  1  0
  8 11  2  0
  9 10  2  0
 11 12  1  0
 12 13  1  0
 12 24  1  0
 13 14  2  3
 13 18  1  0
 14 15  1  0
 15 16  1  0
 15 17  1  0
 18 19  1  0
 19 20  1  0
 20 21  1  0
 21 22  1  0
 21 23  1  0
 24 25  2  0
 25 26  1  0
 26 27  1  0
 27 28  1  0
 28 29  1  6
 28 30  1  0
 30 31  1  0
M  END
