
     RDKit          3D

 31 31  0  0  0  0  0  0  0  0999 V2000
   -2.8430    1.6590    1.1800 N   0  0  0  0  0  0  0  0  0  0  0  0
   -1.8940    1.6090    0.2590 C   0  0  0  0  0  0  0  0  0  0  0  0
   -0.6590    2.2720    0.5110 N   0  0  0  0  0  0  0  0  0  0  0  0
    0.3120    2.7490   -0.3810 C   0  0  0  0  0  0  0  0  0  0  0  0
    0.6700    4.0110   -0.3300 O   0  0  0  0  0  0  0  0  0  0  0  0
    1.0140    2.0450   -1.3910 N   0  0  0  0  0  0  0  0  0  0  0  0
    1.8440    0.9180   -1.3000 C   0  0  0  0  0  0  0  0  0  0  0  0
    1.7990    0.0880   -2.2830 O   0  0  0  0  0  0  0  0  0  0  0  0
    2.7730    0.5370   -0.2330 C   0  0  2  0  0  0  0  0  0  0  0  0
    2.3930    1.0440    1.0200 O   0  0  0  0  0  0  0  0  0  0  0  0
    4.4560    1.2530   -0.6050 P   0  0  0  0  0  0  0  0  0  0  0  0
    4.8680    2.5520    0.4220 O   0  0  0  0  0  0  0  0  0  0  0  0
    4.7330    1.5230   -2.2640 O   0  0  0  0  0  0  0  0  0  0  0  0
    3.0170   -1.3000   -0.1500 P   0  0  0  0  0  0  0  0  0  0  0  0
    4.0300   -1.6850    1.1640 O   0  0  0  0  0  0  0  0  0  0  0  0
    3.3960   -2.0510    2.2880 N   0  0  0  0  0  0  0  0  0  0  0  0
    1.5330   -2.1570   -0.1730 O   0  0  0  0  0  0  0  0  0  0  0  0
    0.6350   -1.7520    0.7860 C   0  0  0  0  0  0  0  0  0  0  0  0
   -0.7570   -1.9020    0.1810 C   0  0  2  0  0  0  0  0  0  0  0  0
   -1.7810   -1.6950    1.2740 C   0  0  0  0  0  0  0  0  0  0  0  0
   -1.4610   -2.6580    2.2750 O   0  0  0  0  0  0  0  0  0  0  0  0
   -0.8760   -3.3560   -0.1900 C   0  0  0  0  0  0  0  0  0  0  0  0
   -0.7760   -4.2680    0.6630 O   0  0  0  0  0  0  0  0  0  0  0  0
   -1.1030   -3.7120   -1.5010 O   0  0  0  0  0  0  0  0  0  0  0  0
   -0.8380   -1.1430   -0.9650 N   0  0  0  0  0  0  0  0  0  0  0  0
   -1.3330   -0.1340   -1.4630 C   0  0  0  0  0  0  0  0  0  0  0  0
   -2.2110    0.8610   -0.9050 N   0  0  0  0  0  0  0  0  0  0  0  0
   -3.4340    1.1360   -1.6150 C   0  0  0  0  0  0  0  0  0  0  0  0
   -4.4350    1.9320   -0.8940 C   0  0  0  0  0  0  0  0  0  0  0  0
   -4.7220    3.1090   -1.2210 O   0  0  0  0  0  0  0  0  0  0  0  0
   -5.1020    1.3750    0.1870 O   0  0  0  0  0  0  0  0  0  0  0  0
  1  2  2  0
  2  3  1  0
  2 27  1  0
  3  4  1  0
  4  5  2  0
  4  6  1  0
  6  7  1  0
  7  8  2  0
  7  9  1  0
  9 10  1  1
  9 11  1  0
  9 14  1  0
 11 12  1  0
 11 13  1  0
 14 15  1  0
 14 17  1  0
 15 16  1  0
 17 18  1  0
 18 19  1  0
 19 20  1  1
 19 22  1  0
 19 25  1  0
 20 21  1  0
 22 23  2  0
 22 24  1  0
 25 26  2  0
 26 27  1  0
 27 28  1  0
 28 29  1  0
 29 30  2  0
 29 31  1  0
M  END
