
     RDKit          3D

 31 32  0  0  0  0  0  0  0  0999 V2000
    3.0700    0.9160   -2.4870 O   0  0  0  0  0  0  0  0  0  0  0  0
    4.2380    0.7030   -2.0860 C   0  0  0  0  0  0  0  0  0  0  0  0
    5.1470    1.7400   -1.7770 N   0  0  0  0  0  0  0  0  0  0  0  0
    4.7470    3.0260   -1.9160 O   0  0  0  0  0  0  0  0  0  0  0  0
    4.6360   -0.6260   -1.9470 O   0  0  0  0  0  0  0  0  0  0  0  0
    3.7790   -1.5980   -2.2390 O   0  0  0  0  0  0  0  0  0  0  0  0
    2.8780   -1.7280   -1.1950 C   0  0  1  0  0  0  0  0  0  0  0  0
    1.5050   -1.5080   -1.6750 N   0  0  0  0  0  0  0  0  0  0  0  0
    0.4720   -1.6140   -0.7120 C   0  0  0  0  0  0  0  0  0  0  0  0
    0.1000   -0.4840   -0.0140 C   0  0  0  0  0  0  0  0  0  0  0  0
    0.7710    0.6860   -0.2990 O   0  0  0  0  0  0  0  0  0  0  0  0
    0.4400    1.8720    0.3720 C   0  0  0  0  0  0  0  0  0  0  0  0
   -0.9590    2.2900    0.1480 C   0  0  0  0  0  0  0  0  0  0  0  0
   -1.4200    2.7430   -1.0640 C   0  0  0  0  0  0  0  0  0  0  0  0
   -2.7020    3.0500   -0.9090 N   0  0  0  0  0  0  0  0  0  0  0  0
   -3.0650    2.8000    0.3780 C   0  0  0  0  0  0  0  0  0  0  0  0
   -4.3390    3.0210    0.8500 O   0  0  0  0  0  0  0  0  0  0  0  0
   -4.6680    2.7490    2.1940 C   0  0  0  0  0  0  0  0  0  0  0  0
   -4.3830    0.9680    2.5280 P   0  0  0  0  0  0  0  0  0  0  0  0
   -4.6890    0.0520    1.0850 O   0  0  0  0  0  0  0  0  0  0  0  0
   -5.3430    0.3910    3.8530 O   0  0  0  0  0  0  0  0  0  0  0  0
   -1.9730    2.3290    1.0190 N   0  0  0  0  0  0  0  0  0  0  0  0
   -0.8890   -0.6020    0.8980 N   0  0  0  0  0  0  0  0  0  0  0  0
   -1.5120   -1.7680    1.1420 C   0  0  0  0  0  0  0  0  0  0  0  0
   -2.4460   -1.8720    2.0050 O   0  0  0  0  0  0  0  0  0  0  0  0
   -1.1190   -2.8450    0.4390 N   0  0  0  0  0  0  0  0  0  0  0  0
   -0.1490   -2.8220   -0.4840 C   0  0  0  0  0  0  0  0  0  0  0  0
    0.2530   -3.9320   -1.2050 O   0  0  0  0  0  0  0  0  0  0  0  0
    3.0900   -3.4120   -0.4680 P   0  0  0  0  0  0  0  0  0  0  0  0
    3.0930   -3.3990    1.2470 O   0  0  0  0  0  0  0  0  0  0  0  0
    4.3780   -4.2890   -1.1630 O   0  0  0  0  0  0  0  0  0  0  0  0
  1  2  2  0
  2  3  1  0
  2  5  1  0
  3  4  1  0
  5  6  1  0
  6  7  1  0
  7  8  1  6
  7 29  1  0
  8  9  1  0
  9 10  1  0
  9 27  2  0
 10 11  1  0
 10 23  2  0
 11 12  1  0
 12 13  1  0
 13 14  2  0
 13 22  1  0
 14 15  1  0
 15 16  1  0
 16 17  1  0
 16 22  2  0
 17 18  1  0
 18 19  1  0
 19 20  1  0
 19 21  1  0
 23 24  1  0
 24 25  2  0
 24 26  1  0
 26 27  1  0
 27 28  1  0
 29 30  1  0
 29 31  1  0
M  END
