
     RDKit          3D

 31 33  0  0  0  0  0  0  0  0999 V2000
   -2.0980    0.0090   -1.4660 N   0  0  0  0  0  0  0  0  0  0  0  0
   -2.1770    0.0310   -0.1570 C   0  0  0  0  0  0  0  0  0  0  0  0
   -1.4990   -0.9000    0.5360 N   0  0  0  0  0  0  0  0  0  0  0  0
   -0.6930   -1.9170   -0.0960 C   0  0  1  0  0  0  0  0  0  0  0  0
    0.2730   -1.3890   -1.0230 N   0  0  0  0  0  0  0  0  0  0  0  0
    0.1220   -1.7670   -2.3970 C   0  0  0  0  0  0  0  0  0  0  0  0
   -0.4650   -2.8610   -2.7090 O   0  0  0  0  0  0  0  0  0  0  0  0
    0.6140   -0.9500   -3.4500 N   0  0  0  0  0  0  0  0  0  0  0  0
    1.6250    0.0080   -3.1450 C   0  0  0  0  0  0  0  0  0  0  0  0
    1.5520    0.5730   -1.7440 C   0  0  2  0  0  0  0  0  0  0  0  0
    2.8010    1.2050   -1.5230 O   0  0  0  0  0  0  0  0  0  0  0  0
    3.4390    0.9890   -0.3320 C   0  0  0  0  0  0  0  0  0  0  0  0
    4.6880    0.8300   -0.2690 O   0  0  0  0  0  0  0  0  0  0  0  0
    2.5580    0.9560    0.8890 C   0  0  1  0  0  0  0  0  0  0  0  0
    2.2740    2.2550    1.2130 O   0  0  0  0  0  0  0  0  0  0  0  0
    2.8500    2.5520    2.3550 O   0  0  0  0  0  0  0  0  0  0  0  0
    4.1140    2.1960    2.3960 O   0  0  0  0  0  0  0  0  0  0  0  0
    1.3210    0.1240    0.6270 C   0  0  0  0  0  0  0  0  0  0  0  0
    1.3590   -0.5360   -0.7080 C   0  0  1  0  0  0  0  0  0  0  0  0
    0.0880   -3.0530    1.1560 P   0  0  0  0  0  0  0  0  0  0  0  0
   -1.0650   -4.1730    1.7410 O   0  0  0  0  0  0  0  0  0  0  0  0
    1.3660   -3.9110    0.3690 O   0  0  0  0  0  0  0  0  0  0  0  0
   -1.6070   -0.8420    1.8720 C   0  0  0  0  0  0  0  0  0  0  0  0
   -1.0140   -1.6620    2.5920 O   0  0  0  0  0  0  0  0  0  0  0  0
   -2.3540    0.0970    2.4920 N   0  0  0  0  0  0  0  0  0  0  0  0
   -3.0130    1.0020    1.7830 C   0  0  0  0  0  0  0  0  0  0  0  0
   -3.7240    1.8950    2.3700 O   0  0  0  0  0  0  0  0  0  0  0  0
   -2.9260    0.9720    0.4450 N   0  0  0  0  0  0  0  0  0  0  0  0
   -3.8300    2.2120   -0.4800 P   0  0  0  0  0  0  0  0  0  0  0  0
   -5.1980    2.7250    0.4560 O   0  0  0  0  0  0  0  0  0  0  0  0
   -2.8240    3.5960   -0.7630 O   0  0  0  0  0  0  0  0  0  0  0  0
  1  2  2  0
  2  3  1  0
  2 28  1  0
  3  4  1  0
  3 23  1  0
  4  5  1  0
  4 20  1  1
  5  6  1  0
  5 19  1  0
  6  7  2  0
  6  8  1  0
  8  9  1  0
 10  9  1  6
 10 11  1  0
 10 19  1  0
 11 12  1  0
 12 13  2  0
 12 14  1  0
 14 15  1  6
 14 18  1  0
 15 16  1  0
 16 17  1  0
 19 18  1  1
 20 21  1  0
 20 22  1  0
 23 24  2  0
 23 25  1  0
 25 26  1  0
 26 27  2  0
 26 28  1  0
 28 29  1  0
 29 30  1  0
 29 31  1  0
M  END
