
     RDKit          3D

 31 32  0  0  0  0  0  0  0  0999 V2000
    1.2290   -3.0640    1.3330 N   0  0  0  0  0  0  0  0  0  0  0  0
    1.8170   -1.9190    0.9820 C   0  0  0  0  0  0  0  0  0  0  0  0
    3.1020   -2.0170    0.3890 N   0  0  0  0  0  0  0  0  0  0  0  0
    4.5950   -1.1690    0.8550 P   0  0  0  0  0  0  0  0  0  0  0  0
    5.7750   -2.3970    1.2700 O   0  0  0  0  0  0  0  0  0  0  0  0
    5.2850   -0.1160   -0.3740 N   0  0  0  0  0  0  0  0  0  0  0  0
    4.6380    0.9970   -0.6560 O   0  0  0  0  0  0  0  0  0  0  0  0
    4.9970    2.1290    0.0290 C   0  0  0  0  0  0  0  0  0  0  0  0
    3.8740    2.8600    0.5010 O   0  0  0  0  0  0  0  0  0  0  0  0
    2.9330    1.9020    0.8270 C   0  0  0  0  0  0  0  0  0  0  0  0
    1.5540    2.4220    0.9920 C   0  0  0  0  0  0  0  0  0  0  0  0
    1.3260    3.6480    1.1470 O   0  0  0  0  0  0  0  0  0  0  0  0
    0.4700    1.5090    0.9750 N   0  0  0  0  0  0  0  0  0  0  0  0
    0.4670    0.1990    0.3650 C   0  0  1  0  0  0  0  0  0  0  0  0
   -1.0600   -0.1670    0.2220 C   0  0  0  0  0  0  0  0  0  0  0  0
   -1.7430    0.7650   -0.6910 C   0  0  2  0  0  0  0  0  0  0  0  0
   -2.6460    0.2840   -1.6560 N   0  0  0  0  0  0  0  0  0  0  0  0
   -3.8430   -0.3490   -1.3070 C   0  0  1  0  0  0  0  0  0  0  0  0
   -3.8410   -1.6380   -0.6440 C   0  0  0  0  0  0  0  0  0  0  0  0
   -3.0380   -2.5360   -0.9780 O   0  0  0  0  0  0  0  0  0  0  0  0
   -4.7230   -1.9620    0.3990 O   0  0  0  0  0  0  0  0  0  0  0  0
   -4.6640   -3.1560    0.9570 O   0  0  0  0  0  0  0  0  0  0  0  0
   -4.9620   -3.0610    2.2550 O   0  0  0  0  0  0  0  0  0  0  0  0
   -5.0020    0.7710   -0.3470 P   0  0  0  0  0  0  0  0  0  0  0  0
   -6.5770    0.0350   -0.4240 O   0  0  0  0  0  0  0  0  0  0  0  0
   -5.1230    2.3190   -1.1200 O   0  0  0  0  0  0  0  0  0  0  0  0
   -0.8510    1.7910   -1.3700 C   0  0  0  0  0  0  0  0  0  0  0  0
    0.3010    1.1390   -1.8400 O   0  0  0  0  0  0  0  0  0  0  0  0
    0.8940    0.1590   -1.0360 C   0  0  0  0  0  0  0  0  0  0  0  0
    1.7140   -0.6690   -1.5000 O   0  0  0  0  0  0  0  0  0  0  0  0
    1.0780   -0.7450    1.2480 N   0  0  0  0  0  0  0  0  0  0  0  0
  1  2  2  0
  2  3  1  0
  2 31  1  0
  3  4  1  0
  4  5  1  0
  4  6  1  0
  6  7  1  0
  7  8  1  0
  8  9  1  0
  9 10  1  0
 10 11  1  0
 11 12  2  0
 11 13  1  0
 13 14  1  0
 14 15  1  6
 14 29  1  0
 14 31  1  0
 15 16  1  0
 16 17  1  6
 16 27  1  0
 18 17  1  1
 18 19  1  0
 18 24  1  0
 19 20  2  0
 19 21  1  0
 21 22  1  0
 22 23  1  0
 24 25  1  0
 24 26  1  0
 27 28  1  0
 28 29  1  0
 29 30  2  0
M  END
