
     RDKit          3D

 31 32  0  0  0  0  0  0  0  0999 V2000
   -3.5110    3.2040    0.2660 O   0  0  0  0  0  0  0  0  0  0  0  0
   -3.3720    3.6250   -0.9100 C   0  0  0  0  0  0  0  0  0  0  0  0
   -2.9520    4.9390   -1.0780 O   0  0  0  0  0  0  0  0  0  0  0  0
   -3.6510    2.7370   -2.0530 C   0  0  0  0  0  0  0  0  0  0  0  0
   -4.0710    1.4380   -1.5740 N   0  0  0  0  0  0  0  0  0  0  0  0
   -3.1090    0.5970   -0.8920 C   0  0  0  0  0  0  0  0  0  0  0  0
   -1.8900    0.8090   -1.1260 N   0  0  0  0  0  0  0  0  0  0  0  0
   -0.8340    0.0120   -0.4900 C   0  0  0  0  0  0  0  0  0  0  0  0
    0.4430    0.5800   -0.6760 N   0  0  0  0  0  0  0  0  0  0  0  0
    1.6680    0.4080   -0.0560 C   0  0  0  0  0  0  0  0  0  0  0  0
    1.8310   -0.3290    0.8890 O   0  0  0  0  0  0  0  0  0  0  0  0
    2.8120    1.1130   -0.5250 O   0  0  0  0  0  0  0  0  0  0  0  0
    4.0400    0.9180    0.1240 C   0  0  1  0  0  0  0  0  0  0  0  0
    5.0630    0.4080   -0.8720 C   0  0  0  0  0  0  0  0  0  0  0  0
    4.5340   -0.8100   -1.3540 O   0  0  0  0  0  0  0  0  0  0  0  0
    5.3840   -1.3090   -2.2320 O   0  0  0  0  0  0  0  0  0  0  0  0
    5.8390   -2.4860   -1.8080 O   0  0  0  0  0  0  0  0  0  0  0  0
    6.6350   -2.3250   -0.7770 O   0  0  0  0  0  0  0  0  0  0  0  0
    4.5120    2.1790    0.7660 C   0  0  0  0  0  0  0  0  0  0  0  0
    5.5880    2.2240    1.4000 O   0  0  0  0  0  0  0  0  0  0  0  0
    3.7170    3.3060    0.6380 O   0  0  0  0  0  0  0  0  0  0  0  0
   -1.2030   -0.9310    0.3220 C   0  0  0  0  0  0  0  0  0  0  0  0
   -0.2280   -1.7550    0.9580 N   0  0  0  0  0  0  0  0  0  0  0  0
   -0.3890   -2.1710    2.3310 C   0  0  0  0  0  0  0  0  0  0  0  0
   -1.8580   -2.1540    2.7240 C   0  0  0  0  0  0  0  0  0  0  0  0
   -2.6250   -1.0990    2.1470 N   0  0  0  0  0  0  0  0  0  0  0  0
   -2.6030   -1.2310    0.6850 C   0  0  2  0  0  0  0  0  0  0  0  0
   -3.0110   -3.0340    0.3610 P   0  0  0  0  0  0  0  0  0  0  0  0
   -2.1690   -3.6360   -1.0060 O   0  0  0  0  0  0  0  0  0  0  0  0
   -4.7260   -3.2190    0.1750 O   0  0  0  0  0  0  0  0  0  0  0  0
   -3.5360   -0.3900    0.0100 N   0  0  0  0  0  0  0  0  0  0  0  0
  1  2  2  0
  2  3  1  0
  2  4  1  0
  4  5  1  0
  5  6  1  0
  6  7  2  0
  6 31  1  0
  7  8  1  0
  8  9  1  0
  8 22  2  0
  9 10  1  0
 10 11  2  0
 10 12  1  0
 12 13  1  0
 13 14  1  6
 13 19  1  0
 14 15  1  0
 15 16  1  0
 16 17  1  0
 17 18  1  0
 19 20  2  0
 19 21  1  0
 22 23  1  0
 22 27  1  0
 23 24  1  0
 24 25  1  0
 25 26  1  0
 26 27  1  0
 27 28  1  1
 27 31  1  0
 28 29  1  0
 28 30  1  0
M  END
