
     RDKit          3D

 31 32  0  0  0  0  0  0  0  0999 V2000
   -6.6150    2.4910    1.3370 N   0  0  0  0  0  0  0  0  0  0  0  0
   -6.3790    1.1090    1.1950 C   0  0  0  0  0  0  0  0  0  0  0  0
   -7.1010    0.3080    1.8390 O   0  0  0  0  0  0  0  0  0  0  0  0
   -5.3880    0.5700    0.3800 O   0  0  0  0  0  0  0  0  0  0  0  0
   -5.2130   -0.8270    0.2910 C   0  0  0  0  0  0  0  0  0  0  0  0
   -5.9100   -1.6980    0.9160 N   0  0  0  0  0  0  0  0  0  0  0  0
   -5.4780   -2.9880    0.6040 O   0  0  0  0  0  0  0  0  0  0  0  0
   -4.9190   -2.8930   -0.7230 C   0  0  0  0  0  0  0  0  0  0  0  0
   -4.2080   -1.5420   -0.5270 C   0  0  2  0  0  0  0  0  0  0  0  0
   -3.0060   -1.7780    0.2160 N   0  0  0  0  0  0  0  0  0  0  0  0
   -2.1930   -0.8350    0.8100 N   0  0  0  0  0  0  0  0  0  0  0  0
   -2.1420    0.4030    0.4900 C   0  0  0  0  0  0  0  0  0  0  0  0
   -1.2180    1.2100    1.2460 N   0  0  0  0  0  0  0  0  0  0  0  0
   -0.1650    0.5900    1.8230 O   0  0  0  0  0  0  0  0  0  0  0  0
    0.5130   -0.0570    0.8960 O   0  0  0  0  0  0  0  0  0  0  0  0
    1.7920    0.1830    1.0930 O   0  0  0  0  0  0  0  0  0  0  0  0
    2.4100   -0.0270   -0.0950 N   0  0  0  0  0  0  0  0  0  0  0  0
    1.7070    0.5950   -1.1730 C   0  0  0  0  0  0  0  0  0  0  0  0
    2.1790    1.9970   -1.4780 C   0  0  0  0  0  0  0  0  0  0  0  0
    3.5190    1.8350   -1.9980 O   0  0  0  0  0  0  0  0  0  0  0  0
    4.2080    0.7310   -1.4040 C   0  0  0  0  0  0  0  0  0  0  0  0
    5.0290    0.1330   -2.0730 O   0  0  0  0  0  0  0  0  0  0  0  0
    3.8190    0.4440   -0.0060 C   0  0  2  0  0  0  0  0  0  0  0  0
    4.6080   -0.5870    0.7130 C   0  0  0  0  0  0  0  0  0  0  0  0
    6.0330   -0.3350    0.9970 C   0  0  0  0  0  0  0  0  0  0  0  0
    7.1890   -0.0790   -0.3730 P   0  0  0  0  0  0  0  0  0  0  0  0
    7.9180   -1.5430   -0.9510 O   0  0  0  0  0  0  0  0  0  0  0  0
    8.4750    0.9760    0.1370 O   0  0  0  0  0  0  0  0  0  0  0  0
   -3.9160   -0.7280   -2.1640 P   0  0  0  0  0  0  0  0  0  0  0  0
   -4.6140    0.8300   -2.2970 O   0  0  0  0  0  0  0  0  0  0  0  0
   -2.2180   -0.6970   -2.5050 O   0  0  0  0  0  0  0  0  0  0  0  0
  1  2  1  0
  2  3  2  0
  2  4  1  0
  4  5  1  0
  5  6  2  0
  5  9  1  0
  6  7  1  0
  7  8  1  0
  8  9  1  0
  9 10  1  1
  9 29  1  0
 10 11  1  0
 11 12  2  3
 12 13  1  0
 13 14  1  0
 14 15  1  0
 15 16  1  0
 16 17  1  0
 17 18  1  0
 17 23  1  0
 18 19  1  0
 19 20  1  0
 20 21  1  0
 21 22  2  0
 21 23  1  0
 23 24  1  6
 24 25  1  0
 25 26  1  0
 26 27  1  0
 26 28  1  0
 29 30  1  0
 29 31  1  0
M  END
