
     RDKit          3D

 31 33  0  0  0  0  0  0  0  0999 V2000
   -8.2220    2.4160    0.8910 N   0  0  0  0  0  0  0  0  0  0  0  0
   -7.3320    1.3320    0.7100 C   0  0  0  0  0  0  0  0  0  0  0  0
   -7.8360    0.1300    0.3940 N   0  0  0  0  0  0  0  0  0  0  0  0
   -7.0120   -0.9370    0.2110 C   0  0  0  0  0  0  0  0  0  0  0  0
   -5.6800   -0.8210    0.3410 N   0  0  0  0  0  0  0  0  0  0  0  0
   -5.1270    0.3430    0.6520 C   0  0  0  0  0  0  0  0  0  0  0  0
   -5.9670    1.4430    0.8410 C   0  0  0  0  0  0  0  0  0  0  0  0
   -5.1640    2.4660    1.1380 N   0  0  0  0  0  0  0  0  0  0  0  0
   -3.8920    2.0310    1.1360 C   0  0  0  0  0  0  0  0  0  0  0  0
   -3.8380    0.7230    0.8390 N   0  0  0  0  0  0  0  0  0  0  0  0
   -2.6960   -0.1290    0.7310 C   0  0  2  0  0  0  0  0  0  0  0  0
   -1.5910    0.5500    0.2060 O   0  0  0  0  0  0  0  0  0  0  0  0
   -0.6570   -0.4700    0.0380 C   0  0  2  0  0  0  0  0  0  0  0  0
    0.4450   -0.0960   -0.9210 C   0  0  0  0  0  0  0  0  0  0  0  0
    1.3140   -1.1460   -1.0290 O   0  0  0  0  0  0  0  0  0  0  0  0
    2.5910   -0.9420   -2.0310 P   0  0  0  0  0  0  0  0  0  0  0  0
    3.3790    0.4620   -2.1850 O   0  0  0  0  0  0  0  0  0  0  0  0
    2.9720   -2.2160   -3.0960 O   0  0  0  0  0  0  0  0  0  0  0  0
    3.5500   -1.5870   -1.0470 O   0  0  0  0  0  0  0  0  0  0  0  0
    4.7990   -0.8510   -0.3360 P   0  0  0  0  0  0  0  0  0  0  0  0
    4.5750   -1.7810    0.8930 O   0  0  0  0  0  0  0  0  0  0  0  0
    5.2780   -0.3390   -1.7170 O   0  0  0  0  0  0  0  0  0  0  0  0
    4.5660    0.6340    0.4460 N   0  0  0  0  0  0  0  0  0  0  0  0
    5.7440    1.1040    1.4890 P   0  0  0  0  0  0  0  0  0  0  0  0
    5.4080    1.7160    2.9960 O   0  0  0  0  0  0  0  0  0  0  0  0
    6.0010    2.5170    0.9590 O   0  0  0  0  0  0  0  0  0  0  0  0
    7.3950    0.7600    1.1600 O   0  0  0  0  0  0  0  0  0  0  0  0
   -1.4100   -1.6630   -0.4850 C   0  0  1  0  0  0  0  0  0  0  0  0
   -1.0840   -2.7830    0.2490 O   0  0  0  0  0  0  0  0  0  0  0  0
   -2.8640   -1.2520   -0.2480 C   0  0  1  0  0  0  0  0  0  0  0  0
   -3.4930   -2.3650    0.3060 O   0  0  0  0  0  0  0  0  0  0  0  0
  1  2  1  0
  2  3  2  0
  2  7  1  0
  3  4  1  0
  4  5  2  0
  5  6  1  0
  6  7  2  0
  6 10  1  0
  7  8  1  0
  8  9  2  0
  9 10  1  0
 11 10  1  6
 11 12  1  0
 11 30  1  0
 12 13  1  0
 13 14  1  6
 13 28  1  0
 14 15  1  0
 15 16  1  0
 16 17  1  0
 16 18  1  0
 16 19  1  0
 19 20  1  0
 20 21  1  0
 20 22  1  0
 20 23  1  0
 23 24  1  0
 24 25  1  0
 24 26  1  0
 24 27  1  0
 28 29  1  1
 28 30  1  0
 30 31  1  1
M  END
