
     RDKit          3D

 31 33  0  0  0  0  0  0  0  0999 V2000
    3.0070    0.8830    0.6930 N   0  0  0  0  0  0  0  0  0  0  0  0
    2.9240   -0.0790   -0.1410 C   0  0  0  0  0  0  0  0  0  0  0  0
    1.6970   -0.4040   -0.6270 N   0  0  0  0  0  0  0  0  0  0  0  0
    0.5010    0.3180   -0.2120 C   0  0  1  0  0  0  0  0  0  0  0  0
   -0.4600   -0.5170    0.4100 N   0  0  0  0  0  0  0  0  0  0  0  0
   -0.1310   -1.1350    1.6430 C   0  0  0  0  0  0  0  0  0  0  0  0
    1.0290   -1.0720    2.1690 O   0  0  0  0  0  0  0  0  0  0  0  0
   -1.1080   -1.8710    2.3630 N   0  0  0  0  0  0  0  0  0  0  0  0
   -2.4870   -1.4820    2.2160 C   0  0  0  0  0  0  0  0  0  0  0  0
   -2.8320   -0.8030    0.9490 C   0  0  2  0  0  0  0  0  0  0  0  0
   -3.9690   -1.4770    0.3830 O   0  0  0  0  0  0  0  0  0  0  0  0
   -4.3870   -0.9360   -0.8490 C   0  0  0  0  0  0  0  0  0  0  0  0
   -5.2800   -1.4890   -1.5460 O   0  0  0  0  0  0  0  0  0  0  0  0
   -3.7010    0.3210   -1.2580 C   0  0  1  0  0  0  0  0  0  0  0  0
   -4.2350    1.4320   -0.5890 O   0  0  0  0  0  0  0  0  0  0  0  0
   -4.8420    2.2630   -1.3970 O   0  0  0  0  0  0  0  0  0  0  0  0
   -4.8690    3.4620   -0.8090 O   0  0  0  0  0  0  0  0  0  0  0  0
   -2.2100    0.2410   -1.1420 C   0  0  0  0  0  0  0  0  0  0  0  0
   -1.7740   -0.7950   -0.1160 C   0  0  1  0  0  0  0  0  0  0  0  0
    1.0300    1.7810    0.7550 P   0  0  0  0  0  0  0  0  0  0  0  0
    1.5770    3.0050   -0.3190 O   0  0  0  0  0  0  0  0  0  0  0  0
   -0.1750    2.3740    1.8290 O   0  0  0  0  0  0  0  0  0  0  0  0
    1.6670   -1.4250   -1.5040 C   0  0  0  0  0  0  0  0  0  0  0  0
    0.5460   -1.7700   -1.9890 O   0  0  0  0  0  0  0  0  0  0  0  0
    2.7960   -2.0870   -1.8780 N   0  0  0  0  0  0  0  0  0  0  0  0
    3.9830   -1.7350   -1.3760 C   0  0  0  0  0  0  0  0  0  0  0  0
    5.0370   -2.3550   -1.7270 O   0  0  0  0  0  0  0  0  0  0  0  0
    4.0440   -0.7180   -0.4970 N   0  0  0  0  0  0  0  0  0  0  0  0
    5.6680   -0.2910    0.1430 P   0  0  0  0  0  0  0  0  0  0  0  0
    5.6780   -0.1170    1.8530 O   0  0  0  0  0  0  0  0  0  0  0  0
    6.1850    1.1650   -0.6340 O   0  0  0  0  0  0  0  0  0  0  0  0
  1  2  2  0
  2  3  1  0
  2 28  1  0
  3  4  1  0
  3 23  1  0
  4  5  1  0
  4 20  1  1
  5  6  1  0
  5 19  1  0
  6  7  2  0
  6  8  1  0
  8  9  1  0
 10  9  1  1
 10 11  1  0
 10 19  1  0
 11 12  1  0
 12 13  2  0
 12 14  1  0
 14 15  1  1
 14 18  1  0
 15 16  1  0
 16 17  1  0
 19 18  1  6
 20 21  1  0
 20 22  1  0
 23 24  2  0
 23 25  1  0
 25 26  1  0
 26 27  2  0
 26 28  1  0
 28 29  1  0
 29 30  1  0
 29 31  1  0
M  END
