
     RDKit          3D

 31 32  0  0  0  0  0  0  0  0999 V2000
   -4.7620   -0.4120    4.4480 O   0  0  0  0  0  0  0  0  0  0  0  0
   -5.1980    0.4820    3.6760 C   0  0  0  0  0  0  0  0  0  0  0  0
   -6.5170    1.0420    3.8320 N   0  0  0  0  0  0  0  0  0  0  0  0
   -7.3190    0.6050    4.8330 O   0  0  0  0  0  0  0  0  0  0  0  0
   -4.3580    0.9140    2.6570 O   0  0  0  0  0  0  0  0  0  0  0  0
   -3.1280    0.4270    2.4710 O   0  0  0  0  0  0  0  0  0  0  0  0
   -2.9050    0.2610    1.1290 C   0  0  1  0  0  0  0  0  0  0  0  0
   -1.7790    1.0500    0.6460 N   0  0  0  0  0  0  0  0  0  0  0  0
   -1.4430    0.9710   -0.7130 C   0  0  0  0  0  0  0  0  0  0  0  0
   -0.5260    0.0190   -1.1710 C   0  0  0  0  0  0  0  0  0  0  0  0
    0.0210   -0.8260   -0.2200 O   0  0  0  0  0  0  0  0  0  0  0  0
    0.9460   -1.8150   -0.5490 C   0  0  0  0  0  0  0  0  0  0  0  0
    2.1930   -1.3210   -1.1680 C   0  0  0  0  0  0  0  0  0  0  0  0
    2.5360   -1.2280   -2.5010 C   0  0  0  0  0  0  0  0  0  0  0  0
    3.7740   -0.7180   -2.6050 N   0  0  0  0  0  0  0  0  0  0  0  0
    4.2390   -0.4790   -1.3480 C   0  0  0  0  0  0  0  0  0  0  0  0
    5.4900    0.0510   -1.0650 O   0  0  0  0  0  0  0  0  0  0  0  0
    5.8240    0.2390    0.3030 C   0  0  0  0  0  0  0  0  0  0  0  0
    7.5110    0.9470    0.5140 P   0  0  0  0  0  0  0  0  0  0  0  0
    7.8940    0.9390    2.2070 O   0  0  0  0  0  0  0  0  0  0  0  0
    8.7110    0.0580   -0.3560 O   0  0  0  0  0  0  0  0  0  0  0  0
    3.2680   -0.8510   -0.4940 N   0  0  0  0  0  0  0  0  0  0  0  0
   -0.2460   -0.0080   -2.4730 N   0  0  0  0  0  0  0  0  0  0  0  0
   -0.7780    0.8120   -3.3960 C   0  0  0  0  0  0  0  0  0  0  0  0
   -0.4670    0.7310   -4.6200 O   0  0  0  0  0  0  0  0  0  0  0  0
   -1.6610    1.7310   -2.9610 N   0  0  0  0  0  0  0  0  0  0  0  0
   -1.9910    1.8160   -1.6560 C   0  0  0  0  0  0  0  0  0  0  0  0
   -2.9100    2.7680   -1.1880 O   0  0  0  0  0  0  0  0  0  0  0  0
   -2.6740   -1.5510    0.8000 P   0  0  0  0  0  0  0  0  0  0  0  0
   -3.6710   -2.4970    1.8330 O   0  0  0  0  0  0  0  0  0  0  0  0
   -2.8240   -1.9510   -0.8600 O   0  0  0  0  0  0  0  0  0  0  0  0
  1  2  2  0
  2  3  1  0
  2  5  1  0
  3  4  1  0
  5  6  1  0
  6  7  1  0
  7  8  1  1
  7 29  1  0
  8  9  1  0
  9 10  1  0
  9 27  2  0
 10 11  1  0
 10 23  2  0
 11 12  1  0
 12 13  1  0
 13 14  2  0
 13 22  1  0
 14 15  1  0
 15 16  1  0
 16 17  1  0
 16 22  2  0
 17 18  1  0
 18 19  1  0
 19 20  1  0
 19 21  1  0
 23 24  1  0
 24 25  2  0
 24 26  1  0
 26 27  1  0
 27 28  1  0
 29 30  1  0
 29 31  1  0
M  END
