
     RDKit          3D

 31 32  0  0  0  0  0  0  0  0999 V2000
   -4.9430    3.6950    2.4010 O   0  0  0  0  0  0  0  0  0  0  0  0
   -3.9740    3.0260    2.8340 C   0  0  0  0  0  0  0  0  0  0  0  0
   -3.5560    3.2450    4.1350 O   0  0  0  0  0  0  0  0  0  0  0  0
   -3.3370    2.0800    2.0090 O   0  0  0  0  0  0  0  0  0  0  0  0
   -3.7550    1.8630    0.7120 C   0  0  0  0  0  0  0  0  0  0  0  0
   -4.7440    2.5690    0.3220 O   0  0  0  0  0  0  0  0  0  0  0  0
   -3.1570    0.9070   -0.2090 C   0  0  0  0  0  0  0  0  0  0  0  0
   -3.5880    0.7200   -1.4680 N   0  0  0  0  0  0  0  0  0  0  0  0
   -2.8160   -0.2310   -2.0400 C   0  0  0  0  0  0  0  0  0  0  0  0
   -2.9530   -0.7360   -3.4160 C   0  0  0  0  0  0  0  0  0  0  0  0
   -2.1750   -1.6160   -3.8220 O   0  0  0  0  0  0  0  0  0  0  0  0
   -3.9240   -0.2520   -4.2640 O   0  0  0  0  0  0  0  0  0  0  0  0
   -4.0020   -0.7440   -5.4960 O   0  0  0  0  0  0  0  0  0  0  0  0
   -1.9020   -0.6430   -1.1460 N   0  0  0  0  0  0  0  0  0  0  0  0
   -2.0900    0.0490    0.0030 C   0  0  0  0  0  0  0  0  0  0  0  0
   -1.3570   -0.0910    1.1960 N   0  0  0  0  0  0  0  0  0  0  0  0
   -0.2330   -0.9620    1.4120 C   0  0  0  0  0  0  0  0  0  0  0  0
    0.9740   -0.4850    0.6360 C   0  0  1  0  0  0  0  0  0  0  0  0
    1.3580    0.7980    1.0270 O   0  0  0  0  0  0  0  0  0  0  0  0
    1.2510    1.7340    0.0290 C   0  0  0  0  0  0  0  0  0  0  0  0
    1.7990    3.3710    0.7190 P   0  0  0  0  0  0  0  0  0  0  0  0
    1.5050    4.6180   -0.4390 O   0  0  0  0  0  0  0  0  0  0  0  0
    3.4700    3.3100    1.1890 O   0  0  0  0  0  0  0  0  0  0  0  0
    2.1010   -1.4440    0.7210 C   0  0  0  0  0  0  0  0  0  0  0  0
    3.0060   -1.6150    1.7030 N   0  0  0  0  0  0  0  0  0  0  0  0
    3.8510   -2.5700    1.4080 N   0  0  0  0  0  0  0  0  0  0  0  0
    3.5110   -3.0640    0.1900 C   0  0  0  0  0  0  0  0  0  0  0  0
    4.3390   -4.4110   -0.7250 P   0  0  0  0  0  0  0  0  0  0  0  0
    4.5480   -4.0010   -2.4020 O   0  0  0  0  0  0  0  0  0  0  0  0
    5.9450   -4.5780   -0.0500 O   0  0  0  0  0  0  0  0  0  0  0  0
    2.4370   -2.3640   -0.2190 N   0  0  0  0  0  0  0  0  0  0  0  0
  1  2  2  0
  2  3  1  0
  2  4  1  0
  4  5  1  0
  5  6  2  0
  5  7  1  0
  7  8  1  0
  7 15  2  0
  8  9  2  0
  9 10  1  0
  9 14  1  0
 10 11  2  0
 10 12  1  0
 12 13  1  0
 14 15  1  0
 15 16  1  0
 16 17  1  0
 18 17  1  1
 18 19  1  0
 18 24  1  0
 19 20  1  0
 20 21  1  0
 21 22  1  0
 21 23  1  0
 24 25  2  0
 24 31  1  0
 25 26  1  0
 26 27  1  0
 27 28  1  0
 27 31  2  0
 28 29  1  0
 28 30  1  0
M  END
