
     RDKit          3D

 31 32  0  0  0  0  0  0  0  0999 V2000
   -1.1420   -1.0400    3.6960 N   0  0  0  0  0  0  0  0  0  0  0  0
   -1.7510   -0.6790    2.5700 C   0  0  0  0  0  0  0  0  0  0  0  0
   -2.5570   -1.6570    1.9390 N   0  0  0  0  0  0  0  0  0  0  0  0
   -4.2810   -1.5610    1.4790 P   0  0  0  0  0  0  0  0  0  0  0  0
   -5.0580   -0.1330    1.9820 O   0  0  0  0  0  0  0  0  0  0  0  0
   -4.5450   -1.7710   -0.2830 N   0  0  0  0  0  0  0  0  0  0  0  0
   -5.0550   -0.6710   -0.8700 O   0  0  0  0  0  0  0  0  0  0  0  0
   -4.6940   -0.4920   -2.1800 C   0  0  0  0  0  0  0  0  0  0  0  0
   -3.5520    0.3290   -2.3410 O   0  0  0  0  0  0  0  0  0  0  0  0
   -3.0870    0.5840   -1.0630 C   0  0  0  0  0  0  0  0  0  0  0  0
   -2.2050    1.7760   -0.9990 C   0  0  0  0  0  0  0  0  0  0  0  0
   -2.1420    2.4800   -2.0590 O   0  0  0  0  0  0  0  0  0  0  0  0
   -1.4810    2.1040    0.1700 N   0  0  0  0  0  0  0  0  0  0  0  0
   -0.7820    1.1360    0.9920 C   0  0  1  0  0  0  0  0  0  0  0  0
   -0.1060    0.0970    0.1550 C   0  0  0  0  0  0  0  0  0  0  0  0
    1.3940    0.0330    0.3650 C   0  0  2  0  0  0  0  0  0  0  0  0
    2.0080   -0.9810   -0.4220 N   0  0  0  0  0  0  0  0  0  0  0  0
    3.3730   -0.6340   -0.7740 C   0  0  1  0  0  0  0  0  0  0  0  0
    4.2050   -1.8280   -1.0240 C   0  0  0  0  0  0  0  0  0  0  0  0
    3.7520   -2.9810   -0.9450 O   0  0  0  0  0  0  0  0  0  0  0  0
    5.5350   -1.6440   -1.3590 O   0  0  0  0  0  0  0  0  0  0  0  0
    6.3990   -2.6200   -1.6110 O   0  0  0  0  0  0  0  0  0  0  0  0
    7.5150   -2.3810   -0.9220 O   0  0  0  0  0  0  0  0  0  0  0  0
    3.4530    0.5340   -2.1980 P   0  0  0  0  0  0  0  0  0  0  0  0
    4.5660   -0.0740   -3.3830 O   0  0  0  0  0  0  0  0  0  0  0  0
    3.9690    2.1210   -1.7390 O   0  0  0  0  0  0  0  0  0  0  0  0
    1.7720   -0.0030    1.8270 C   0  0  0  0  0  0  0  0  0  0  0  0
    1.2190    1.1830    2.4090 O   0  0  0  0  0  0  0  0  0  0  0  0
    0.3590    1.9260    1.6230 C   0  0  0  0  0  0  0  0  0  0  0  0
    0.4660    3.1540    1.4160 O   0  0  0  0  0  0  0  0  0  0  0  0
   -1.5200    0.6550    2.1130 N   0  0  0  0  0  0  0  0  0  0  0  0
  1  2  2  0
  2  3  1  0
  2 31  1  0
  3  4  1  0
  4  5  1  0
  4  6  1  0
  6  7  1  0
  7  8  1  0
  8  9  1  0
  9 10  1  0
 10 11  1  0
 11 12  2  0
 11 13  1  0
 13 14  1  0
 14 15  1  6
 14 29  1  0
 14 31  1  0
 15 16  1  0
 16 17  1  6
 16 27  1  0
 18 17  1  6
 18 19  1  0
 18 24  1  0
 19 20  2  0
 19 21  1  0
 21 22  1  0
 22 23  1  0
 24 25  1  0
 24 26  1  0
 27 28  1  0
 28 29  1  0
 29 30  2  0
M  END
