
     RDKit          3D

 31 32  0  0  0  0  0  0  0  0999 V2000
    1.7860    5.3880    0.2140 N   0  0  0  0  0  0  0  0  0  0  0  0
    1.7990    4.0450    0.1200 O   0  0  0  0  0  0  0  0  0  0  0  0
    0.4740    3.5830    0.2760 C   0  0  0  0  0  0  0  0  0  0  0  0
    0.4950    2.0590    0.1690 C   0  0  2  0  0  0  0  0  0  0  0  0
    1.3520    1.5670   -0.9600 C   0  0  0  0  0  0  0  0  0  0  0  0
    2.6150    0.9180   -0.5180 C   0  0  0  0  0  0  0  0  0  0  0  0
    3.6660    1.6480   -0.6540 O   0  0  0  0  0  0  0  0  0  0  0  0
    2.6970   -0.3960    0.0150 N   0  0  0  0  0  0  0  0  0  0  0  0
    3.9730   -1.0070    0.0180 C   0  0  0  0  0  0  0  0  0  0  0  0
    4.9860   -0.3630   -0.4520 O   0  0  0  0  0  0  0  0  0  0  0  0
    4.2670   -2.3020    0.5010 N   0  0  0  0  0  0  0  0  0  0  0  0
    5.5280   -2.7720    0.4560 O   0  0  0  0  0  0  0  0  0  0  0  0
    5.9200   -3.2750    1.6010 O   0  0  0  0  0  0  0  0  0  0  0  0
    6.3660   -4.5010    1.4060 O   0  0  0  0  0  0  0  0  0  0  0  0
    6.1010   -4.9480    0.2110 O   0  0  0  0  0  0  0  0  0  0  0  0
    1.6010   -1.1300    0.5500 C   0  0  0  0  0  0  0  0  0  0  0  0
    1.7450   -1.6890    1.7160 O   0  0  0  0  0  0  0  0  0  0  0  0
    0.3790   -1.3230   -0.0280 O   0  0  0  0  0  0  0  0  0  0  0  0
   -0.0070   -1.8570   -1.2300 C   0  0  0  0  0  0  0  0  0  0  0  0
   -1.5340   -1.7040   -1.3440 C   0  0  0  0  0  0  0  0  0  0  0  0
   -1.8960   -0.5090   -0.6750 N   0  0  0  0  0  0  0  0  0  0  0  0
   -1.9550    0.6760   -1.5410 C   0  0  0  0  0  0  0  0  0  0  0  0
   -1.7040    1.8510   -0.6130 C   0  0  1  0  0  0  0  0  0  0  0  0
   -2.9580    2.1240    0.1870 C   0  0  0  0  0  0  0  0  0  0  0  0
   -4.0240    1.1960    0.0400 N   0  0  0  0  0  0  0  0  0  0  0  0
   -3.5410   -0.5250    0.0440 P   0  0  0  0  0  0  0  0  0  0  0  0
   -3.6720   -1.3140    1.6070 N   0  0  0  0  0  0  0  0  0  0  0  0
   -5.4130   -1.7640    1.8300 P   0  0  0  0  0  0  0  0  0  0  0  0
   -5.6370   -2.9160    3.0740 O   0  0  0  0  0  0  0  0  0  0  0  0
   -6.0150   -2.2760    0.2950 O   0  0  0  0  0  0  0  0  0  0  0  0
   -0.7380    1.4730    0.2830 O   0  0  0  0  0  0  0  0  0  0  0  0
  1  2  1  0
  2  3  1  0
  4  3  1  6
  4  5  1  0
  4 31  1  0
  5  6  1  0
  6  7  2  0
  6  8  1  0
  8  9  1  0
  8 16  1  0
  9 10  2  0
  9 11  1  0
 11 12  1  0
 12 13  1  0
 13 14  1  0
 14 15  1  0
 16 17  2  0
 16 18  1  0
 18 19  1  0
 19 20  1  0
 20 21  1  0
 21 22  1  0
 21 26  1  0
 22 23  1  0
 23 24  1  1
 23 31  1  0
 24 25  1  0
 25 26  1  0
 26 27  1  0
 27 28  1  0
 28 29  1  0
 28 30  1  0
M  END
