
     RDKit          3D

 31 33  0  0  0  0  0  0  0  0999 V2000
   -8.0190   -0.8910   -2.2080 N   0  0  0  0  0  0  0  0  0  0  0  0
   -6.7290   -0.3200   -2.0720 C   0  0  0  0  0  0  0  0  0  0  0  0
   -6.1730    0.3170   -3.1280 N   0  0  0  0  0  0  0  0  0  0  0  0
   -4.9480    0.8770   -3.0470 C   0  0  0  0  0  0  0  0  0  0  0  0
   -4.2760    0.7940   -1.8910 N   0  0  0  0  0  0  0  0  0  0  0  0
   -4.7530    0.1810   -0.7950 C   0  0  0  0  0  0  0  0  0  0  0  0
   -6.0120   -0.3890   -0.8910 C   0  0  0  0  0  0  0  0  0  0  0  0
   -6.2880   -0.9430    0.3120 N   0  0  0  0  0  0  0  0  0  0  0  0
   -5.2230   -0.7160    1.1210 C   0  0  0  0  0  0  0  0  0  0  0  0
   -4.2880   -0.0300    0.4440 N   0  0  0  0  0  0  0  0  0  0  0  0
   -3.0340    0.3900    0.9630 C   0  0  2  0  0  0  0  0  0  0  0  0
   -2.1090    0.7100   -0.0480 O   0  0  0  0  0  0  0  0  0  0  0  0
   -0.9160    0.8950    0.6360 C   0  0  2  0  0  0  0  0  0  0  0  0
    0.2920    0.6130   -0.2140 C   0  0  0  0  0  0  0  0  0  0  0  0
    1.4220    0.8310    0.5700 O   0  0  0  0  0  0  0  0  0  0  0  0
    2.8500    0.5420   -0.2900 P   0  0  2  0  0  0  0  0  0  0  0  0
    2.9540    1.6290   -1.3420 O   0  0  0  0  0  0  0  0  0  0  0  0
    2.8680   -0.9800   -1.0020 O   0  0  0  0  0  0  0  0  0  0  0  0
    4.1360    0.6310    0.8120 O   0  0  0  0  0  0  0  0  0  0  0  0
    5.6220    0.7210    0.0240 P   0  0  2  0  0  0  0  0  0  0  0  0
    6.0220    2.1660   -0.1750 O   0  0  0  0  0  0  0  0  0  0  0  0
    5.5910   -0.0720   -1.4610 O   0  0  0  0  0  0  0  0  0  0  0  0
    6.8160   -0.0560    1.0700 N   0  0  0  0  0  0  0  0  0  0  0  0
    8.0870   -0.7640    0.1240 P   0  0  2  0  0  0  0  0  0  0  0  0
    7.7590   -2.2120   -0.1110 O   0  0  0  0  0  0  0  0  0  0  0  0
    9.5370   -0.5800    0.9890 O   0  0  0  0  0  0  0  0  0  0  0  0
    8.1560    0.0210   -1.3720 O   0  0  0  0  0  0  0  0  0  0  0  0
   -0.9170   -0.0590    1.8000 C   0  0  1  0  0  0  0  0  0  0  0  0
   -0.8700    0.7120    2.9720 O   0  0  0  0  0  0  0  0  0  0  0  0
   -2.2770   -0.7160    1.6780 C   0  0  1  0  0  0  0  0  0  0  0  0
   -2.8300   -1.0060    2.9180 O   0  0  0  0  0  0  0  0  0  0  0  0
  1  2  1  0
  2  3  2  0
  2  7  1  0
  3  4  1  0
  4  5  2  0
  5  6  1  0
  6  7  2  0
  6 10  1  0
  7  8  1  0
  8  9  2  0
  9 10  1  0
 11 10  1  6
 11 12  1  0
 11 30  1  0
 12 13  1  0
 13 14  1  6
 13 28  1  0
 14 15  1  0
 15 16  1  0
 16 17  2  0
 16 18  1  6
 16 19  1  0
 19 20  1  0
 20 21  2  0
 20 22  1  6
 20 23  1  0
 23 24  1  0
 24 25  2  0
 24 26  1  1
 24 27  1  0
 28 29  1  1
 28 30  1  0
 30 31  1  1
M  END
