
     RDKit          3D

 31 32  0  0  0  0  0  0  0  0999 V2000
    5.4850    0.3500   -0.9690 N   0  0  0  0  0  0  0  0  0  0  0  0
    5.4020   -0.2920    0.1020 C   0  0  0  0  0  0  0  0  0  0  0  0
    4.5170   -1.3720    0.2310 N   0  0  0  0  0  0  0  0  0  0  0  0
    4.0200   -2.2900   -0.7410 C   0  0  0  0  0  0  0  0  0  0  0  0
    2.4760   -2.4760   -0.4010 C   0  0  0  0  0  0  0  0  0  0  0  0
    2.0460   -1.3070   -0.8520 O   0  0  0  0  0  0  0  0  0  0  0  0
    1.2750   -0.1020   -0.2490 P   0  0  0  0  0  0  0  0  0  0  0  0
    1.6730    1.4280   -1.1300 O   0  0  0  0  0  0  0  0  0  0  0  0
   -0.1870   -0.0130    0.5390 O   0  0  0  0  0  0  0  0  0  0  0  0
   -1.4600    0.5150   -0.5640 P   0  0  0  0  0  0  0  0  0  0  0  0
   -1.6190   -0.8860   -1.6350 O   0  0  0  0  0  0  0  0  0  0  0  0
   -3.0100    0.6680    0.4510 C   0  0  2  0  0  0  0  0  0  0  0  0
   -2.8580    1.7570    1.5080 C   0  0  0  0  0  0  0  0  0  0  0  0
   -3.3930    2.9650    1.1410 O   0  0  0  0  0  0  0  0  0  0  0  0
   -3.1840    4.0450    0.3600 C   0  0  0  0  0  0  0  0  0  0  0  0
   -2.1020    4.0470   -0.2600 O   0  0  0  0  0  0  0  0  0  0  0  0
   -4.0990    5.1160    0.2500 O   0  0  0  0  0  0  0  0  0  0  0  0
   -3.0300   -0.6400    1.1730 N   0  0  0  0  0  0  0  0  0  0  0  0
   -4.2020   -1.3090    0.6610 C   0  0  1  0  0  0  0  0  0  0  0  0
   -3.9210   -2.0720   -0.4940 N   0  0  0  0  0  0  0  0  0  0  0  0
   -4.9900   -2.0770    1.6900 C   0  0  0  0  0  0  0  0  0  0  0  0
   -6.3710   -1.7340    1.4150 O   0  0  0  0  0  0  0  0  0  0  0  0
   -6.3990   -0.5740    0.6810 C   0  0  0  0  0  0  0  0  0  0  0  0
   -7.4280    0.1240    0.3570 O   0  0  0  0  0  0  0  0  0  0  0  0
   -5.0920   -0.2250    0.3060 N   0  0  0  0  0  0  0  0  0  0  0  0
   -4.2240    0.7460   -0.3100 C   0  0  0  0  0  0  0  0  0  0  0  0
   -4.5210    1.4630   -1.2550 O   0  0  0  0  0  0  0  0  0  0  0  0
    6.2490    0.1440    1.2050 N   0  0  0  0  0  0  0  0  0  0  0  0
    7.7360    1.0180    0.7630 P   0  0  0  0  0  0  0  0  0  0  0  0
    7.4690    2.2250   -0.4440 O   0  0  0  0  0  0  0  0  0  0  0  0
    8.8370   -0.1410    0.1040 O   0  0  0  0  0  0  0  0  0  0  0  0
  1  2  2  0
  2  3  1  0
  2 28  1  0
  3  4  1  0
  4  5  1  0
  5  6  1  0
  6  7  1  0
  7  8  1  0
  7  9  1  0
  9 10  1  0
 10 11  1  0
 10 12  1  0
 12 13  1  1
 12 18  1  0
 12 26  1  0
 13 14  1  0
 14 15  1  0
 15 16  2  0
 15 17  1  0
 18 19  1  0
 19 20  1  6
 19 21  1  0
 19 25  1  0
 21 22  1  0
 22 23  1  0
 23 24  2  0
 23 25  1  0
 25 26  1  0
 26 27  2  0
 28 29  1  0
 29 30  1  0
 29 31  1  0
M  END
