
     RDKit          3D

 30 31  0  0  0  0  0  0  0  0999 V2000
    7.2950   -0.4080   -4.9380 O   0  0  0  0  0  0  0  0  0  0  0  0
    7.7630   -1.1600   -3.6600 P   0  0  0  0  0  0  0  0  0  0  0  0
    7.6080   -0.4470   -1.9610 C   0  0  0  0  0  0  0  0  0  0  0  0
    6.1630   -0.5580   -1.4970 C   0  0  0  0  0  0  0  0  0  0  0  0
    6.0390   -0.0060   -0.1720 N   0  0  0  0  0  0  0  0  0  0  0  0
    4.7230   -0.0580    0.3680 C   0  0  1  0  0  0  0  0  0  0  0  0
    4.7800    0.5150    1.6530 O   0  0  0  0  0  0  0  0  0  0  0  0
    3.7070    0.7430   -0.4110 C   0  0  0  0  0  0  0  0  0  0  0  0
    2.4150    0.6730    0.2400 N   0  0  0  0  0  0  0  0  0  0  0  0
    1.2990    1.3490   -0.3030 C   0  0  0  0  0  0  0  0  0  0  0  0
    1.3950    2.0230   -1.3550 O   0  0  0  0  0  0  0  0  0  0  0  0
    0.0170    1.2640    0.3670 C   0  0  0  0  0  0  0  0  0  0  0  0
   -1.1680    1.8220    0.0390 N   0  0  0  0  0  0  0  0  0  0  0  0
   -2.0700    1.4910    0.9140 O   0  0  0  0  0  0  0  0  0  0  0  0
   -1.5500    0.7220    1.8390 C   0  0  0  0  0  0  0  0  0  0  0  0
   -2.2240    0.1130    3.0320 C   0  0  0  0  0  0  0  0  0  0  0  0
   -3.5710    0.5620    3.0040 O   0  0  0  0  0  0  0  0  0  0  0  0
   -4.4140    0.2840    1.9320 C   0  0  0  0  0  0  0  0  0  0  0  0
   -4.1030   -0.6380    1.0880 N   0  0  0  0  0  0  0  0  0  0  0  0
   -4.9250   -0.9890   -0.0550 C   0  0  2  0  0  0  0  0  0  0  0  0
   -4.3850   -2.0710   -0.7090 O   0  0  0  0  0  0  0  0  0  0  0  0
   -3.1840   -1.8870   -1.1630 O   0  0  0  0  0  0  0  0  0  0  0  0
   -5.1540    0.4850   -1.1850 P   0  0  0  0  0  0  0  0  0  0  0  0
   -6.6360    0.3480   -2.0450 O   0  0  0  0  0  0  0  0  0  0  0  0
   -3.7950    0.6890   -2.2390 O   0  0  0  0  0  0  0  0  0  0  0  0
   -6.2300   -1.3640    0.3410 O   0  0  0  0  0  0  0  0  0  0  0  0
   -6.9610    0.1410    0.8890 P   0  0  0  0  0  0  0  0  0  0  0  0
   -8.2060   -0.2230    2.0360 O   0  0  0  0  0  0  0  0  0  0  0  0
   -5.6380    1.0080    1.7410 N   0  0  0  0  0  0  0  0  0  0  0  0
   -0.2410    0.5810    1.4940 N   0  0  0  0  0  0  0  0  0  0  0  0
  1  2  2  0
  2  3  1  0
  3  4  1  0
  4  5  1  0
  5  6  1  0
  6  7  1  1
  6  8  1  0
  8  9  1  0
  9 10  1  0
 10 11  2  0
 10 12  1  0
 12 13  2  0
 12 30  1  0
 13 14  1  0
 14 15  1  0
 15 16  1  0
 15 30  2  0
 16 17  1  0
 17 18  1  0
 18 19  2  0
 18 29  1  0
 19 20  1  0
 20 21  1  6
 20 23  1  0
 20 26  1  0
 21 22  1  0
 23 24  1  0
 23 25  1  0
 26 27  1  0
 27 28  1  0
 27 29  1  0
M  END
