
     RDKit          3D

 30 31  0  0  0  0  0  0  0  0999 V2000
    5.0680    0.9900   -1.3230 N   0  0  0  0  0  0  0  0  0  0  0  0
    4.8480   -0.1020   -0.6820 C   0  0  0  0  0  0  0  0  0  0  0  0
    5.9530   -0.7610   -0.0870 N   0  0  0  0  0  0  0  0  0  0  0  0
    7.4070    0.1770    0.4630 P   0  0  0  0  0  0  0  0  0  0  0  0
    8.4610   -0.4410    1.3940 O   0  0  0  0  0  0  0  0  0  0  0  0
    3.5150   -0.5870   -0.6030 N   0  0  0  0  0  0  0  0  0  0  0  0
    2.4710   -0.0290   -0.0170 N   0  0  0  0  0  0  0  0  0  0  0  0
    1.3580   -0.7670   -0.1460 C   0  0  0  0  0  0  0  0  0  0  0  0
    0.0490   -0.3420    0.4310 C   0  0  2  0  0  0  0  0  0  0  0  0
    0.2210    0.4460    1.5490 O   0  0  0  0  0  0  0  0  0  0  0  0
    1.1340    1.8620    1.3610 P   0  0  0  0  0  0  0  0  0  0  0  0
    2.6530    1.8170    2.1940 O   0  0  0  0  0  0  0  0  0  0  0  0
    1.2390    2.4930   -0.2190 O   0  0  0  0  0  0  0  0  0  0  0  0
   -0.6680   -1.6050    0.9720 C   0  0  0  0  0  0  0  0  0  0  0  0
   -1.9290   -1.0330    1.1210 O   0  0  0  0  0  0  0  0  0  0  0  0
   -2.1630   -0.3740   -0.0850 C   0  0  1  0  0  0  0  0  0  0  0  0
   -2.6530   -1.3590   -1.0850 C   0  0  0  0  0  0  0  0  0  0  0  0
   -3.8620   -2.0730   -0.8030 N   0  0  0  0  0  0  0  0  0  0  0  0
   -5.1610   -1.5500   -0.7230 C   0  0  0  0  0  0  0  0  0  0  0  0
   -5.4390   -0.3420   -0.9240 O   0  0  0  0  0  0  0  0  0  0  0  0
   -6.2940   -2.3390   -0.4100 O   0  0  0  0  0  0  0  0  0  0  0  0
   -2.9760    0.8770    0.0980 C   0  0  0  0  0  0  0  0  0  0  0  0
   -2.2460    1.8030    0.8760 O   0  0  0  0  0  0  0  0  0  0  0  0
   -3.1430    3.2700    1.0800 P   0  0  0  0  0  0  0  0  0  0  0  0
   -2.4180    4.2900    2.2720 O   0  0  0  0  0  0  0  0  0  0  0  0
   -3.3330    4.1000   -0.4330 O   0  0  0  0  0  0  0  0  0  0  0  0
   -0.8670    0.0930   -0.4790 O   0  0  0  0  0  0  0  0  0  0  0  0
    1.7020   -1.8510   -0.8490 N   0  0  0  0  0  0  0  0  0  0  0  0
    3.0240   -1.7480   -1.1340 C   0  0  0  0  0  0  0  0  0  0  0  0
    3.7940   -2.6470   -1.8430 O   0  0  0  0  0  0  0  0  0  0  0  0
  1  2  2  0
  2  3  1  0
  2  6  1  0
  3  4  1  0
  4  5  2  0
  6  7  1  0
  6 29  1  0
  7  8  2  0
  8  9  1  0
  8 28  1  0
  9 10  1  1
  9 14  1  0
  9 27  1  0
 10 11  1  0
 11 12  1  0
 11 13  1  0
 14 15  1  0
 15 16  1  0
 16 17  1  6
 16 22  1  0
 16 27  1  0
 17 18  1  0
 18 19  1  0
 19 20  2  0
 19 21  1  0
 22 23  1  0
 23 24  1  0
 24 25  1  0
 24 26  1  0
 28 29  2  0
 29 30  1  0
M  END
