
     RDKit          3D

 30 32  0  0  0  0  0  0  0  0999 V2000
   -7.3160   -0.1580   -1.2030 O   0  0  0  0  0  0  0  0  0  0  0  0
   -5.7560   -0.1900   -1.3130 P   0  0  0  0  0  0  0  0  0  0  0  0
   -4.7560   -0.0610    0.2710 C   0  0  2  0  0  0  0  0  0  0  0  0
   -3.4950   -0.5710   -0.0270 O   0  0  0  0  0  0  0  0  0  0  0  0
   -2.5590    0.4040    0.2830 C   0  0  2  0  0  0  0  0  0  0  0  0
   -2.7580    1.5760   -0.4410 O   0  0  0  0  0  0  0  0  0  0  0  0
   -2.4700    1.2150   -1.6540 O   0  0  0  0  0  0  0  0  0  0  0  0
   -1.3330    0.4480   -1.6800 C   0  0  0  0  0  0  0  0  0  0  0  0
   -1.1850   -0.0090   -0.2320 C   0  0  1  0  0  0  0  0  0  0  0  0
   -0.0990    0.7220    0.3410 N   0  0  0  0  0  0  0  0  0  0  0  0
    1.2350    0.3300   -0.0960 C   0  0  0  0  0  0  0  0  0  0  0  0
    2.2680    0.9070    0.3290 O   0  0  0  0  0  0  0  0  0  0  0  0
    1.4290   -0.7170   -1.0180 N   0  0  0  0  0  0  0  0  0  0  0  0
    2.6620   -1.1950   -1.5220 C   0  0  0  0  0  0  0  0  0  0  0  0
    2.8570   -2.1990   -2.4060 N   0  0  0  0  0  0  0  0  0  0  0  0
    4.1490   -2.3330   -2.6170 N   0  0  0  0  0  0  0  0  0  0  0  0
    4.8310   -1.4370   -1.8900 C   0  0  0  0  0  0  0  0  0  0  0  0
    6.2210   -1.2150   -1.7990 N   0  0  0  0  0  0  0  0  0  0  0  0
    6.9650    0.0290   -0.7760 P   0  0  0  0  0  0  0  0  0  0  0  0
    6.0090    1.4450   -0.6100 O   0  0  0  0  0  0  0  0  0  0  0  0
    7.5640   -0.5750    0.7130 O   0  0  0  0  0  0  0  0  0  0  0  0
    3.8860   -0.7440   -1.2200 N   0  0  0  0  0  0  0  0  0  0  0  0
   -0.1750    1.7750    1.2610 C   0  0  0  0  0  0  0  0  0  0  0  0
    0.5610    2.8130    1.1150 O   0  0  0  0  0  0  0  0  0  0  0  0
   -1.0660    1.7820    2.4240 C   0  0  0  0  0  0  0  0  0  0  0  0
   -2.4670    0.6160    2.0940 P   0  0  0  0  0  0  0  0  0  0  0  0
   -3.9250    1.1030    2.8400 O   0  0  0  0  0  0  0  0  0  0  0  0
   -5.4400   -0.9110    1.2980 C   0  0  0  0  0  0  0  0  0  0  0  0
   -6.5980   -0.5380    1.6450 O   0  0  0  0  0  0  0  0  0  0  0  0
   -4.8100   -2.0250    1.8090 O   0  0  0  0  0  0  0  0  0  0  0  0
  1  2  2  0
  2  3  1  0
  3  4  1  6
  3 28  1  0
  5  4  1  1
  5  6  1  0
  5  9  1  0
  5 26  1  0
  6  7  1  0
  7  8  1  0
  9  8  1  6
  9 10  1  0
 10 11  1  0
 10 23  1  0
 11 12  2  0
 11 13  1  0
 13 14  1  0
 14 15  2  0
 14 22  1  0
 15 16  1  0
 16 17  2  0
 17 18  1  0
 17 22  1  0
 18 19  1  0
 19 20  1  0
 19 21  1  0
 23 24  2  0
 23 25  1  0
 25 26  1  0
 26 27  1  0
 28 29  2  0
 28 30  1  0
M  END
