
     RDKit          3D

 30 31  0  0  0  0  0  0  0  0999 V2000
   -4.5280   -0.4330   -1.0910 O   0  0  0  0  0  0  0  0  0  0  0  0
   -4.4570   -1.2880    0.2170 P   0  0  0  0  0  0  0  0  0  0  0  0
   -3.3990   -0.6860    1.6620 C   0  0  1  0  0  0  0  0  0  0  0  0
   -3.7220   -1.4790    2.7370 O   0  0  0  0  0  0  0  0  0  0  0  0
   -5.3910   -1.3820    3.1510 P   0  0  0  0  0  0  0  0  0  0  0  0
   -6.4200   -1.0040    1.8390 O   0  0  0  0  0  0  0  0  0  0  0  0
   -5.6000   -0.3210    4.4750 O   0  0  0  0  0  0  0  0  0  0  0  0
   -1.9870   -0.9700    1.3390 N   0  0  0  0  0  0  0  0  0  0  0  0
   -1.4180   -0.1100    0.5620 C   0  0  0  0  0  0  0  0  0  0  0  0
   -0.0810   -0.3540    0.2360 O   0  0  0  0  0  0  0  0  0  0  0  0
    0.5750   -0.1510   -1.0360 C   0  0  1  0  0  0  0  0  0  0  0  0
    1.6580   -1.1450   -1.2290 C   0  0  0  0  0  0  0  0  0  0  0  0
    2.7120   -1.0050   -0.2380 N   0  0  0  0  0  0  0  0  0  0  0  0
    3.4610    0.2190   -0.4190 C   0  0  0  0  0  0  0  0  0  0  0  0
    4.6910    0.2520    0.4530 C   0  0  0  0  0  0  0  0  0  0  0  0
    4.4210    0.1620    1.8090 O   0  0  0  0  0  0  0  0  0  0  0  0
    5.9600    0.1860    2.6410 P   0  0  0  0  0  0  0  0  0  0  0  0
    7.2370   -0.3240    1.5510 O   0  0  0  0  0  0  0  0  0  0  0  0
    5.9500   -0.9650    3.9590 O   0  0  0  0  0  0  0  0  0  0  0  0
   -0.4180   -0.1010   -2.1820 C   0  0  2  0  0  0  0  0  0  0  0  0
    0.0910   -0.4320   -3.4940 C   0  0  0  0  0  0  0  0  0  0  0  0
    0.1250    0.4690   -4.3930 O   0  0  0  0  0  0  0  0  0  0  0  0
    0.5630   -1.6980   -3.8800 N   0  0  0  0  0  0  0  0  0  0  0  0
    1.0410   -1.9350   -5.1490 O   0  0  0  0  0  0  0  0  0  0  0  0
   -1.0270    1.2640   -2.1990 N   0  0  0  0  0  0  0  0  0  0  0  0
   -1.9380    1.6820   -1.1570 C   0  0  0  0  0  0  0  0  0  0  0  0
   -2.5930    2.7370   -1.3560 O   0  0  0  0  0  0  0  0  0  0  0  0
   -2.1820    1.0230    0.0900 N   0  0  0  0  0  0  0  0  0  0  0  0
   -3.2730    1.5800    0.8650 C   0  0  0  0  0  0  0  0  0  0  0  0
   -3.6790    0.6770    1.9170 N   0  0  0  0  0  0  0  0  0  0  0  0
  1  2  2  0
  2  3  1  0
  3  4  1  1
  3  8  1  0
  3 30  1  0
  4  5  1  0
  5  6  1  0
  5  7  1  0
  8  9  2  0
  9 10  1  0
  9 28  1  0
 10 11  1  0
 11 12  1  6
 11 20  1  0
 12 13  1  0
 13 14  1  0
 14 15  1  0
 15 16  1  0
 16 17  1  0
 17 18  1  0
 17 19  1  0
 20 21  1  6
 20 25  1  0
 21 22  2  0
 21 23  1  0
 23 24  1  0
 25 26  1  0
 26 27  2  0
 26 28  1  0
 28 29  1  0
 29 30  1  0
M  END
