
     RDKit          3D

 31 32  0  0  0  0  0  0  0  0999 V2000
   -2.7930   -0.4780   -1.6870 N   0  0  0  0  0  0  0  0  0  0  0  0
   -2.5170   -0.2090   -0.4660 C   0  0  0  0  0  0  0  0  0  0  0  0
   -3.5740    0.5370    0.1990 N   0  0  0  0  0  0  0  0  0  0  0  0
   -5.2930    0.1060   -0.0520 P   0  0  0  0  0  0  0  0  0  0  0  0
   -5.5220   -1.4000   -0.8280 O   0  0  0  0  0  0  0  0  0  0  0  0
   -6.2210    0.2910    1.3940 O   0  0  0  0  0  0  0  0  0  0  0  0
   -7.3140    1.6370    1.1170 P   0  0  0  0  0  0  0  0  0  0  0  0
   -7.9140    1.4280   -0.5200 O   0  0  0  0  0  0  0  0  0  0  0  0
   -6.3140    3.0720    1.0770 O   0  0  0  0  0  0  0  0  0  0  0  0
   -1.3090   -0.5530    0.2020 N   0  0  0  0  0  0  0  0  0  0  0  0
   -1.1410   -0.2830    1.5780 C   0  0  0  0  0  0  0  0  0  0  0  0
   -2.1190    0.3140    2.4080 N   0  0  0  0  0  0  0  0  0  0  0  0
   -0.0610   -0.5830    2.1390 O   0  0  0  0  0  0  0  0  0  0  0  0
   -0.2220   -1.1800   -0.5410 C   0  0  1  0  0  0  0  0  0  0  0  0
    1.0090   -0.3660   -0.5900 C   0  0  0  0  0  0  0  0  0  0  0  0
    1.5690    0.1400   -1.6360 N   0  0  0  0  0  0  0  0  0  0  0  0
    2.7100    0.8440   -1.2890 O   0  0  0  0  0  0  0  0  0  0  0  0
    3.0670    0.2870   -0.0190 C   0  0  1  0  0  0  0  0  0  0  0  0
    3.6480    1.3750    0.8700 C   0  0  0  0  0  0  0  0  0  0  0  0
    4.8230    1.9660    0.2920 N   0  0  0  0  0  0  0  0  0  0  0  0
    6.1920    1.5130    0.4940 C   0  0  0  0  0  0  0  0  0  0  0  0
    7.0150    2.5300   -0.2570 C   0  0  0  0  0  0  0  0  0  0  0  0
    6.0890    3.3660   -0.9520 O   0  0  0  0  0  0  0  0  0  0  0  0
    4.8070    3.0910   -0.5660 C   0  0  0  0  0  0  0  0  0  0  0  0
    3.7860    3.7310   -0.9160 O   0  0  0  0  0  0  0  0  0  0  0  0
    1.7800   -0.0020    0.4900 O   0  0  0  0  0  0  0  0  0  0  0  0
    0.0430   -2.5780   -0.0130 C   0  0  2  0  0  0  0  0  0  0  0  0
    1.0920   -3.1380   -0.7700 O   0  0  0  0  0  0  0  0  0  0  0  0
   -1.4460   -3.6330   -0.2290 P   0  0  0  0  0  0  0  0  0  0  0  0
   -1.3910   -4.3100   -1.8400 O   0  0  0  0  0  0  0  0  0  0  0  0
   -1.3930   -4.9340    0.9330 O   0  0  0  0  0  0  0  0  0  0  0  0
  1  2  2  0
  2  3  1  0
  2 10  1  0
  3  4  1  0
  4  5  1  0
  4  6  1  0
  6  7  1  0
  7  8  1  0
  7  9  1  0
 10 11  1  0
 14 10  1  1
 11 12  1  0
 11 13  2  0
 14 15  1  0
 14 27  1  0
 15 16  2  0
 15 26  1  0
 16 17  1  0
 17 18  1  0
 18 19  1  1
 18 26  1  0
 19 20  1  0
 20 21  1  0
 20 24  1  0
 21 22  1  0
 22 23  1  0
 23 24  1  0
 24 25  2  0
 27 28  1  6
 27 29  1  0
 29 30  1  0
 29 31  1  0
M  END
