
     RDKit          3D

 31 34  0  0  0  0  0  0  0  0999 V2000
    7.6920    0.7510   -1.5190 C   0  0  0  0  0  0  0  0  0  0  0  0
    8.5430    0.4270   -0.3850 C   0  0  0  0  0  0  0  0  0  0  0  0
    8.2760   -0.1340    0.7260 C   0  0  0  0  0  0  0  0  0  0  0  0
    7.0310   -0.6430    1.2470 C   0  0  0  0  0  0  0  0  0  0  0  0
    5.8540   -0.6030    0.5780 C   0  0  0  0  0  0  0  0  0  0  0  0
    4.6550   -1.1030    1.1020 C   0  0  0  0  0  0  0  0  0  0  0  0
    3.3940   -1.0430    0.3470 C   0  0  2  0  0  0  0  0  0  0  0  0
    3.5070   -1.6560   -1.0210 C   0  0  0  0  0  0  0  0  0  0  0  0
    2.2630   -1.4190   -1.8100 C   0  0  0  0  0  0  0  0  0  0  0  0
    1.2790   -0.5960   -1.1550 N   0  0  0  0  0  0  0  0  0  0  0  0
   -0.1020   -0.9070   -1.3690 C   0  0  0  0  0  0  0  0  0  0  0  0
   -0.4660   -1.8590   -2.0980 O   0  0  0  0  0  0  0  0  0  0  0  0
   -1.1190   -0.1170   -0.7410 N   0  0  0  0  0  0  0  0  0  0  0  0
   -2.4770   -0.4630   -0.9830 C   0  0  0  0  0  0  0  0  0  0  0  0
   -3.4210    0.4350   -0.2740 C   0  0  0  0  0  0  0  0  0  0  0  0
   -4.7850    0.3440   -0.2830 N   0  0  0  0  0  0  0  0  0  0  0  0
   -5.3520    1.3030    0.4530 C   0  0  0  0  0  0  0  0  0  0  0  0
   -6.7570    1.6180    0.7220 C   0  0  0  0  0  0  0  0  0  0  0  0
   -7.1220    2.6100    1.6330 C   0  0  0  0  0  0  0  0  0  0  0  0
   -8.4940    2.6630    1.6630 C   0  0  0  0  0  0  0  0  0  0  0  0
   -8.9640    1.7230    0.7880 C   0  0  0  0  0  0  0  0  0  0  0  0
   -7.8830    1.1030    0.2290 N   0  0  0  0  0  0  0  0  0  0  0  0
   -7.9750    0.0670   -0.7850 C   0  0  0  0  0  0  0  0  0  0  0  0
   -7.9410   -1.3230   -0.2440 C   0  0  0  0  0  0  0  0  0  0  0  0
   -4.2730    2.0440    0.9580 C   0  0  0  0  0  0  0  0  0  0  0  0
   -3.1400    1.4870    0.4950 N   0  0  0  0  0  0  0  0  0  0  0  0
    1.6410    0.5030   -0.3110 C   0  0  0  0  0  0  0  0  0  0  0  0
    3.0870    0.4450    0.1250 C   0  0  0  0  0  0  0  0  0  0  0  0
    4.6720   -1.6630    2.3550 C   0  0  0  0  0  0  0  0  0  0  0  0
    5.8760   -1.6880    3.0030 C   0  0  0  0  0  0  0  0  0  0  0  0
    7.0120   -1.2130    2.5060 N   0  0  0  0  0  0  0  0  0  0  0  0
  1  2  1  0
  2  3  2  3
  3  4  1  0
  4  5  2  0
  4 31  1  0
  5  6  1  0
  7  6  1  6
  6 29  2  0
  7  8  1  0
  7 28  1  0
  8  9  1  0
  9 10  1  0
 10 11  1  0
 10 27  1  0
 11 12  2  0
 11 13  1  0
 13 14  1  0
 14 15  1  0
 15 16  1  0
 15 26  2  0
 16 17  1  0
 17 18  1  0
 17 25  2  0
 18 19  2  0
 18 22  1  0
 19 20  1  0
 20 21  2  0
 21 22  1  0
 22 23  1  0
 23 24  1  0
 25 26  1  0
 27 28  1  0
 29 30  1  0
 30 31  2  0
M  CHG  2  26   1  31   1
M  END
