
     RDKit          3D

 30 34  0  0  0  0  0  0  0  0999 V2000
    0.8870   -1.2120   -2.7780 C   0  0  0  0  0  0  0  0  0  0  0  0
    1.0100   -0.2500   -1.5890 C   0  0  0  0  0  0  0  0  0  0  0  0
    0.7850   -1.0210   -0.4060 N   0  0  1  0  0  0  0  0  0  0  0  0
    1.9320   -1.7580    0.0300 C   0  0  0  0  0  0  0  0  0  0  0  0
    3.2100   -1.0520   -0.0810 C   0  0  0  0  0  0  0  0  0  0  0  0
    3.9940   -1.1390   -1.2070 C   0  0  0  0  0  0  0  0  0  0  0  0
    5.1860   -0.4500   -1.2490 C   0  0  0  0  0  0  0  0  0  0  0  0
    5.6030    0.3210   -0.1840 C   0  0  0  0  0  0  0  0  0  0  0  0
    6.8270    1.0470   -0.1910 N   0  0  0  0  0  0  0  0  0  0  0  0
    7.0000    2.3400    0.1710 C   0  0  0  0  0  0  0  0  0  0  0  0
    8.3390    2.6870    0.0280 C   0  0  0  0  0  0  0  0  0  0  0  0
    8.9720    1.5710   -0.4300 C   0  0  0  0  0  0  0  0  0  0  0  0
    8.0260    0.5780   -0.5560 C   0  0  0  0  0  0  0  0  0  0  0  0
    4.8120    0.3870    0.9060 N   0  0  0  0  0  0  0  0  0  0  0  0
    3.6560   -0.2730    0.9630 C   0  0  0  0  0  0  0  0  0  0  0  0
    0.2880   -0.2470    0.7130 C   0  0  1  0  0  0  0  0  0  0  0  0
    0.7520    1.1700    0.7220 C   0  0  0  0  0  0  0  0  0  0  0  0
   -1.2200   -0.2480    0.6720 C   0  0  0  0  0  0  0  0  0  0  0  0
   -2.0370   -1.3350    0.4460 C   0  0  0  0  0  0  0  0  0  0  0  0
   -3.3450   -0.9060    0.4910 C   0  0  0  0  0  0  0  0  0  0  0  0
   -4.5840   -1.4980    0.3470 C   0  0  0  0  0  0  0  0  0  0  0  0
   -5.7570   -0.7550    0.4540 C   0  0  0  0  0  0  0  0  0  0  0  0
   -5.6950    0.5950    0.7090 C   0  0  0  0  0  0  0  0  0  0  0  0
   -4.4710    1.1780    0.8510 C   0  0  0  0  0  0  0  0  0  0  0  0
   -3.2790    0.4500    0.7470 C   0  0  0  0  0  0  0  0  0  0  0  0
   -2.0140    0.7780    0.8420 O   0  0  0  0  0  0  0  0  0  0  0  0
   -6.9750    1.3510    0.8160 C   0  0  0  0  0  0  0  0  0  0  0  0
   -7.9860    0.8540   -0.0610 N   0  0  0  0  0  0  0  0  0  0  0  0
   -8.1570   -0.5530   -0.0630 C   0  0  0  0  0  0  0  0  0  0  0  0
   -7.0380   -1.3410    0.3100 N   0  0  0  0  0  0  0  0  0  0  0  0
  1  2  1  0
  3  2  1  6
  3  4  1  0
  3 16  1  0
  4  5  1  0
  5  6  2  0
  5 15  1  0
  6  7  1  0
  7  8  2  0
  8  9  1  0
  8 14  1  0
  9 10  1  0
  9 13  1  0
 10 11  2  0
 11 12  1  0
 12 13  2  0
 14 15  2  0
 16 17  1  6
 16 18  1  0
 18 19  2  0
 18 26  1  0
 19 20  1  0
 20 21  2  0
 20 25  1  0
 21 22  1  0
 22 23  2  0
 22 30  1  0
 23 24  1  0
 23 27  1  0
 24 25  2  0
 25 26  1  0
 27 28  1  0
 28 29  1  0
 29 30  1  0
M  CHG  2   3   1  28   1
M  END
