
     RDKit          3D

 30 33  0  0  0  0  0  0  0  0999 V2000
   -6.6220   -2.5330   -2.4080 C   0  0  0  0  0  0  0  0  0  0  0  0
   -6.5590   -1.4160   -1.7620 C   0  0  0  0  0  0  0  0  0  0  0  0
   -5.3440   -0.7640   -1.2290 C   0  0  0  0  0  0  0  0  0  0  0  0
   -5.4470    0.3850   -0.5860 C   0  0  0  0  0  0  0  0  0  0  0  0
   -6.8500    0.9410   -0.4520 C   0  0  0  0  0  0  0  0  0  0  0  0
   -6.7140    2.1540    0.4580 C   0  0  0  0  0  0  0  0  0  0  0  0
   -5.9510    1.6590    1.6680 C   0  0  0  0  0  0  0  0  0  0  0  0
   -4.5540    1.5930    1.3160 N   0  0  0  0  0  0  0  0  0  0  0  0
   -4.3260    1.1050   -0.0380 C   0  0  1  0  0  0  0  0  0  0  0  0
   -3.0270    0.4710   -0.1970 C   0  0  0  0  0  0  0  0  0  0  0  0
   -1.8840    1.1070    0.3380 C   0  0  0  0  0  0  0  0  0  0  0  0
   -0.6770    0.4970    0.1690 C   0  0  0  0  0  0  0  0  0  0  0  0
   -0.4880   -0.6840   -0.4800 C   0  0  0  0  0  0  0  0  0  0  0  0
    0.7120   -1.3740   -0.6840 N   0  0  0  0  0  0  0  0  0  0  0  0
    1.9320   -1.0040   -0.0860 C   0  0  0  0  0  0  0  0  0  0  0  0
    2.0420   -0.0330    0.6760 O   0  0  0  0  0  0  0  0  0  0  0  0
    3.1890   -1.7930   -0.3540 C   0  0  0  0  0  0  0  0  0  0  0  0
    4.2620   -1.1920    0.3790 N   0  0  1  0  0  0  0  0  0  0  0  0
    4.2440   -1.7880    1.7240 C   0  0  0  0  0  0  0  0  0  0  0  0
    5.5570   -1.3620   -0.2360 C   0  0  0  0  0  0  0  0  0  0  0  0
    6.3000   -0.0980   -0.3910 C   0  0  0  0  0  0  0  0  0  0  0  0
    7.5000    0.1020    0.1870 C   0  0  0  0  0  0  0  0  0  0  0  0
    8.1000    1.4390   -0.0810 C   0  0  0  0  0  0  0  0  0  0  0  0
    7.0200    2.4540    0.2320 C   0  0  0  0  0  0  0  0  0  0  0  0
    5.9140    2.2720   -0.5520 O   0  0  0  0  0  0  0  0  0  0  0  0
    5.8050    1.0650   -1.1900 C   0  0  0  0  0  0  0  0  0  0  0  0
   -1.6330   -1.2960   -1.0020 C   0  0  0  0  0  0  0  0  0  0  0  0
   -2.8870   -0.7160   -0.8560 C   0  0  0  0  0  0  0  0  0  0  0  0
   -4.0640   -1.4100   -1.4190 C   0  0  0  0  0  0  0  0  0  0  0  0
   -3.8910   -2.4800   -2.0070 O   0  0  0  0  0  0  0  0  0  0  0  0
  1  2  2  0
  2  3  1  0
  3  4  2  0
  3 29  1  0
  4  5  1  0
  4  9  1  0
  5  6  1  0
  6  7  1  0
  7  8  1  0
  9  8  1  1
  9 10  1  0
 10 11  2  0
 10 28  1  0
 11 12  1  0
 12 13  2  0
 13 14  1  0
 13 27  1  0
 14 15  1  0
 15 16  2  0
 15 17  1  0
 17 18  1  0
 18 19  1  1
 18 20  1  0
 20 21  1  0
 21 22  2  0
 21 26  1  0
 22 23  1  0
 23 24  1  0
 24 25  1  0
 25 26  1  0
 27 28  2  0
 28 29  1  0
 29 30  2  0
M  CHG  2   8   1  18   1
M  END
