
     RDKit          3D

 30 33  0  0  0  0  0  0  0  0999 V2000
    5.6110    3.3280    0.7430 C   0  0  0  0  0  0  0  0  0  0  0  0
    5.3170    1.9000    0.5080 C   0  0  0  0  0  0  0  0  0  0  0  0
    4.0270    1.3800    0.5150 C   0  0  0  0  0  0  0  0  0  0  0  0
    3.7690    0.0470    0.2940 C   0  0  0  0  0  0  0  0  0  0  0  0
    2.4630   -0.4780    0.3010 O   0  0  0  0  0  0  0  0  0  0  0  0
    1.8720   -0.9540    1.4420 C   0  0  0  0  0  0  0  0  0  0  0  0
    2.5280   -0.9120    2.5110 O   0  0  0  0  0  0  0  0  0  0  0  0
    0.5020   -1.5210    1.5100 C   0  0  0  0  0  0  0  0  0  0  0  0
   -0.1840   -1.5410    0.2620 N   0  0  0  0  0  0  0  0  0  0  0  0
   -0.4950   -0.2260   -0.1730 C   0  0  0  0  0  0  0  0  0  0  0  0
   -1.9100    0.2070   -0.0610 C   0  0  0  0  0  0  0  0  0  0  0  0
   -2.8780   -0.8030   -0.3480 N   0  0  2  0  0  0  0  0  0  0  0  0
   -4.2240   -0.4360   -0.0430 C   0  0  2  0  0  0  0  0  0  0  0  0
   -5.2040   -1.3660   -0.6640 C   0  0  0  0  0  0  0  0  0  0  0  0
   -6.3590   -0.7570   -1.2010 O   0  0  0  0  0  0  0  0  0  0  0  0
   -6.8860    0.3520   -0.5630 C   0  0  0  0  0  0  0  0  0  0  0  0
   -8.2550    0.5250   -0.3470 C   0  0  0  0  0  0  0  0  0  0  0  0
   -8.7010    1.6590    0.2970 C   0  0  0  0  0  0  0  0  0  0  0  0
   -7.7700    2.5900    0.7070 C   0  0  0  0  0  0  0  0  0  0  0  0
   -6.4180    2.4240    0.4970 C   0  0  0  0  0  0  0  0  0  0  0  0
   -5.9750    1.3040   -0.1390 C   0  0  0  0  0  0  0  0  0  0  0  0
   -4.5440    0.9940   -0.4300 C   0  0  0  0  0  0  0  0  0  0  0  0
   -2.5970   -2.0620    0.3060 C   0  0  0  0  0  0  0  0  0  0  0  0
   -1.1920   -2.5300    0.1190 C   0  0  0  0  0  0  0  0  0  0  0  0
    4.8510   -0.7850    0.0590 C   0  0  0  0  0  0  0  0  0  0  0  0
    4.6010   -2.2400   -0.1850 C   0  0  0  0  0  0  0  0  0  0  0  0
    6.1460   -0.3120    0.0440 C   0  0  0  0  0  0  0  0  0  0  0  0
    7.3040   -1.2360   -0.2130 C   0  0  0  0  0  0  0  0  0  0  0  0
    6.3680    1.0390    0.2710 C   0  0  0  0  0  0  0  0  0  0  0  0
    7.6930    1.5560    0.2610 N   0  0  0  0  0  0  0  0  0  0  0  0
  1  2  1  0
  2  3  2  0
  2 29  1  0
  3  4  1  0
  4  5  1  0
  4 25  2  0
  5  6  1  0
  6  7  2  0
  6  8  1  0
  8  9  1  0
  9 10  1  0
  9 24  1  0
 10 11  1  0
 12 11  1  1
 12 13  1  0
 12 23  1  0
 13 14  1  6
 13 22  1  0
 14 15  1  0
 15 16  1  0
 16 17  2  0
 16 21  1  0
 17 18  1  0
 18 19  2  0
 19 20  1  0
 20 21  2  0
 21 22  1  0
 23 24  1  0
 25 26  1  0
 25 27  1  0
 27 28  1  0
 27 29  2  0
 29 30  1  0
M  CHG  2  12   1  30   1
M  END
