
     RDKit          3D

 30 34  0  0  0  0  0  0  0  0999 V2000
   -1.1670    3.4560    0.7060 C   0  0  0  0  0  0  0  0  0  0  0  0
   -2.4870    2.7190    0.5850 C   0  0  2  0  0  0  0  0  0  0  0  0
   -2.8180    1.9940    1.6990 O   0  0  0  0  0  0  0  0  0  0  0  0
   -4.2260    1.8930    1.6230 C   0  0  0  0  0  0  0  0  0  0  0  0
   -4.7550    2.1040    0.2580 C   0  0  0  0  0  0  0  0  0  0  0  0
   -3.9510    1.8400   -0.8950 N   0  0  0  0  0  0  0  0  0  0  0  0
   -2.4700    1.7200   -0.5610 C   0  0  2  0  0  0  0  0  0  0  0  0
   -2.2560    0.3300   -0.2520 C   0  0  0  0  0  0  0  0  0  0  0  0
   -3.2720   -0.5590   -0.0460 C   0  0  0  0  0  0  0  0  0  0  0  0
   -3.0420   -1.9280    0.1440 C   0  0  0  0  0  0  0  0  0  0  0  0
   -1.7460   -2.4190    0.1300 C   0  0  0  0  0  0  0  0  0  0  0  0
   -0.7200   -1.5600   -0.0760 C   0  0  0  0  0  0  0  0  0  0  0  0
   -0.9840   -0.2000   -0.2640 C   0  0  0  0  0  0  0  0  0  0  0  0
    0.0910    0.6230   -0.4600 O   0  0  0  0  0  0  0  0  0  0  0  0
    1.4170    0.1010   -0.4490 C   0  0  0  0  0  0  0  0  0  0  0  0
    2.4580    1.1270   -0.6580 C   0  0  0  0  0  0  0  0  0  0  0  0
    2.1950    2.4450   -0.9000 C   0  0  0  0  0  0  0  0  0  0  0  0
    3.2120    3.3250   -1.0770 N   0  0  0  0  0  0  0  0  0  0  0  0
    4.4870    2.8940   -1.0140 C   0  0  0  0  0  0  0  0  0  0  0  0
    4.8000    1.5760   -0.7720 C   0  0  0  0  0  0  0  0  0  0  0  0
    3.7860    0.6720   -0.5900 C   0  0  0  0  0  0  0  0  0  0  0  0
    4.3500   -0.6050   -0.3620 O   0  0  0  0  0  0  0  0  0  0  0  0
    5.6750   -0.4110    0.0970 C   0  0  2  0  0  0  0  0  0  0  0  0
    6.5750   -1.5810   -0.2700 C   0  0  0  0  0  0  0  0  0  0  0  0
    5.6500   -0.2070    1.6070 C   0  0  0  0  0  0  0  0  0  0  0  0
    6.1060    0.8430   -0.6190 C   0  0  0  0  0  0  0  0  0  0  0  0
   -1.6210   -3.8690    0.4020 C   0  0  0  0  0  0  0  0  0  0  0  0
   -2.5460   -4.5640   -0.5620 C   0  0  0  0  0  0  0  0  0  0  0  0
   -3.8920   -4.1040   -0.5390 N   0  0  0  0  0  0  0  0  0  0  0  0
   -4.1220   -2.9290    0.3180 C   0  0  0  0  0  0  0  0  0  0  0  0
  2  1  1  1
  2  3  1  0
  2  7  1  0
  3  4  1  0
  4  5  1  0
  5  6  1  0
  6  7  1  0
  7  8  1  1
  8  9  2  0
  8 13  1  0
  9 10  1  0
 10 11  2  0
 10 30  1  0
 11 12  1  0
 11 27  1  0
 12 13  2  0
 13 14  1  0
 14 15  1  0
 15 16  1  0
 16 17  2  0
 16 21  1  0
 17 18  1  0
 18 19  2  0
 19 20  1  0
 20 21  2  0
 20 26  1  0
 21 22  1  0
 22 23  1  0
 23 24  1  1
 23 25  1  0
 23 26  1  0
 27 28  1  0
 28 29  1  0
 29 30  1  0
M  CHG  2   6   1  29   1
M  END
