
     RDKit          3D

 30 33  0  0  0  0  0  0  0  0999 V2000
   -0.2540    6.0980   -0.0790 C   0  0  0  0  0  0  0  0  0  0  0  0
    0.5070    4.8470    0.2830 C   0  0  0  0  0  0  0  0  0  0  0  0
    1.8010    4.9660    0.7330 C   0  0  0  0  0  0  0  0  0  0  0  0
    2.5330    3.8600    1.0760 C   0  0  0  0  0  0  0  0  0  0  0  0
    1.8970    2.6250    0.9440 C   0  0  0  0  0  0  0  0  0  0  0  0
    0.6360    2.4090    0.5100 C   0  0  0  0  0  0  0  0  0  0  0  0
   -0.0650    1.1700    0.2340 C   0  0  0  0  0  0  0  0  0  0  0  0
   -1.3800    1.3500    0.2700 O   0  0  0  0  0  0  0  0  0  0  0  0
    0.3600   -0.1670   -0.0650 C   0  0  0  0  0  0  0  0  0  0  0  0
   -0.6390   -1.1010   -0.1070 C   0  0  0  0  0  0  0  0  0  0  0  0
   -2.0640   -0.7140    0.1780 C   0  0  0  0  0  0  0  0  0  0  0  0
   -2.9530   -1.9060    0.3490 C   0  0  0  0  0  0  0  0  0  0  0  0
   -4.2560   -1.7520    0.3050 C   0  0  0  0  0  0  0  0  0  0  0  0
   -4.8670   -0.4180    0.0900 C   0  0  1  0  0  0  0  0  0  0  0  0
   -6.3710   -0.5210   -0.1110 C   0  0  0  0  0  0  0  0  0  0  0  0
   -4.6660    0.4510    1.2350 N   0  0  0  0  0  0  0  0  0  0  0  0
   -2.3750   -3.2630    0.5670 C   0  0  0  0  0  0  0  0  0  0  0  0
   -1.4670   -3.4490   -0.6560 C   0  0  0  0  0  0  0  0  0  0  0  0
   -0.4630   -2.4200   -0.5940 N   0  0  0  0  0  0  0  0  0  0  0  0
    0.8180   -2.8070   -1.0910 C   0  0  0  0  0  0  0  0  0  0  0  0
    1.0100   -3.9990   -1.5290 O   0  0  0  0  0  0  0  0  0  0  0  0
    1.7730   -1.8870   -1.0740 O   0  0  0  0  0  0  0  0  0  0  0  0
    1.7220   -0.6530   -0.3060 C   0  0  2  0  0  0  0  0  0  0  0  0
    2.4650   -1.0980    0.9690 C   0  0  0  0  0  0  0  0  0  0  0  0
    3.5710   -2.0430    0.4730 C   0  0  0  0  0  0  0  0  0  0  0  0
    4.4140   -1.3610   -0.4590 N   0  0  1  0  0  0  0  0  0  0  0  0
    5.3690   -2.3550   -0.9680 C   0  0  0  0  0  0  0  0  0  0  0  0
    3.7540   -0.7950   -1.6060 C   0  0  0  0  0  0  0  0  0  0  0  0
    2.6590    0.2070   -1.0910 C   0  0  0  0  0  0  0  0  0  0  0  0
   -0.0620    3.6080    0.1740 C   0  0  0  0  0  0  0  0  0  0  0  0
  1  2  1  0
  2  3  2  0
  2 30  1  0
  3  4  1  0
  4  5  2  0
  5  6  1  0
  6  7  1  0
  6 30  2  0
  7  8  2  0
  7  9  1  0
  9 10  2  0
  9 23  1  0
 10 11  1  0
 10 19  1  0
 11 12  1  0
 12 13  2  3
 12 17  1  0
 13 14  1  0
 14 15  1  1
 14 16  1  0
 17 18  1  0
 18 19  1  0
 19 20  1  0
 20 21  2  0
 20 22  1  0
 22 23  1  0
 23 24  1  1
 23 29  1  0
 24 25  1  0
 25 26  1  0
 26 27  1  6
 26 28  1  0
 28 29  1  0
M  CHG  2  16   1  26   1
M  END
