
     RDKit          3D

 32 35  0  0  0  0  0  0  0  0999 V2000
    7.9310    1.5640   -0.6020 C   0  0  0  0  0  0  0  0  0  0  0  0
    7.1850    0.4760    0.1470 C   0  0  1  0  0  0  0  0  0  0  0  0
    7.8150    0.2560    1.5120 C   0  0  0  0  0  0  0  0  0  0  0  0
    5.8450    0.8130    0.3140 O   0  0  0  0  0  0  0  0  0  0  0  0
    4.7500    0.1230   -0.1310 C   0  0  0  0  0  0  0  0  0  0  0  0
    4.8340   -1.0580   -0.8410 C   0  0  0  0  0  0  0  0  0  0  0  0
    3.7410   -1.7470   -1.2860 C   0  0  0  0  0  0  0  0  0  0  0  0
    2.4570   -1.2550   -1.0250 C   0  0  0  0  0  0  0  0  0  0  0  0
    2.3380   -0.0880   -0.3250 C   0  0  0  0  0  0  0  0  0  0  0  0
    0.9920    0.4780   -0.0280 C   0  0  0  0  0  0  0  0  0  0  0  0
   -0.0710   -0.1420   -0.7760 N   0  0  1  0  0  0  0  0  0  0  0  0
   -0.5010   -1.3580   -0.1310 C   0  0  0  0  0  0  0  0  0  0  0  0
   -1.7200   -1.0510    0.6970 C   0  0  0  0  0  0  0  0  0  0  0  0
   -2.8860   -0.8340   -0.2240 C   0  0  1  0  0  0  0  0  0  0  0  0
   -2.4210    0.0810   -1.3280 C   0  0  0  0  0  0  0  0  0  0  0  0
   -1.1540    0.8190   -0.9330 C   0  0  2  0  0  0  0  0  0  0  0  0
   -0.7780    1.7120   -2.1080 C   0  0  0  0  0  0  0  0  0  0  0  0
   -3.4020   -2.1000   -0.8410 C   0  0  0  0  0  0  0  0  0  0  0  0
   -4.0570   -2.8930    0.1470 N   0  0  0  0  0  0  0  0  0  0  0  0
   -3.2830   -3.9090    0.7580 C   0  0  0  0  0  0  0  0  0  0  0  0
   -4.6660   -1.7100    1.2500 S   0  0  2  0  0  0  0  0  0  0  0  0
   -4.1740   -1.9140    2.6390 O   0  0  0  0  0  0  0  0  0  0  0  0
   -6.1640   -1.6920    1.2600 O   0  0  0  0  0  0  0  0  0  0  0  0
   -4.0060   -0.2980    0.5120 N   0  0  0  0  0  0  0  0  0  0  0  0
   -4.5020    1.0140    0.6480 C   0  0  0  0  0  0  0  0  0  0  0  0
   -5.4580    1.5450   -0.2160 C   0  0  0  0  0  0  0  0  0  0  0  0
   -5.9490    2.8260   -0.0930 C   0  0  0  0  0  0  0  0  0  0  0  0
   -5.4960    3.6400    0.9170 C   0  0  0  0  0  0  0  0  0  0  0  0
   -4.5520    3.1550    1.7930 C   0  0  0  0  0  0  0  0  0  0  0  0
   -4.1110    3.9820    2.7950 F   0  0  0  0  0  0  0  0  0  0  0  0
   -4.0720    1.8750    1.6560 C   0  0  0  0  0  0  0  0  0  0  0  0
    3.4760    0.5900    0.1150 C   0  0  0  0  0  0  0  0  0  0  0  0
  2  1  1  1
  2  3  1  0
  2  4  1  0
  4  5  1  0
  5  6  2  0
  5 32  1  0
  6  7  1  0
  7  8  2  0
  8  9  1  0
  9 10  1  0
  9 32  2  0
 11 10  1  1
 11 12  1  0
 11 16  1  0
 12 13  1  0
 14 13  1  1
 14 15  1  0
 14 18  1  0
 14 24  1  0
 15 16  1  0
 16 17  1  6
 18 19  1  0
 19 20  1  0
 21 19  1  6
 21 22  2  0
 21 23  2  0
 21 24  1  0
 24 25  1  0
 25 26  2  0
 25 31  1  0
 26 27  1  0
 27 28  2  0
 28 29  1  0
 29 30  1  0
 29 31  2  0
M  CHG  1  11   1
M  END
