
     RDKit          3D

 33 36  0  0  0  0  0  0  0  0999 V2000
   -3.6660    0.6700    2.9510 C   0  0  0  0  0  0  0  0  0  0  0  0
   -3.8880    0.2410    1.5110 C   0  0  1  0  0  0  0  0  0  0  0  0
   -5.1040   -0.6460    1.4870 C   0  0  0  0  0  0  0  0  0  0  0  0
   -4.1020    1.5060    0.7070 C   0  0  0  0  0  0  0  0  0  0  0  0
   -4.3900    1.0200   -0.6870 C   0  0  0  0  0  0  0  0  0  0  0  0
   -5.2870    1.3400   -1.6010 N   0  0  0  0  0  0  0  0  0  0  0  0
   -5.0910    0.5820   -2.6750 C   0  0  0  0  0  0  0  0  0  0  0  0
   -4.0320   -0.2560   -2.4450 C   0  0  0  0  0  0  0  0  0  0  0  0
   -3.5250   -1.2290   -3.3940 C   0  0  0  0  0  0  0  0  0  0  0  0
   -2.5490   -1.9750   -3.1340 O   0  0  0  0  0  0  0  0  0  0  0  0
   -3.5890    0.0280   -1.1760 C   0  0  0  0  0  0  0  0  0  0  0  0
   -2.4630   -0.5770   -0.4190 C   0  0  1  0  0  0  0  0  0  0  0  0
   -1.2590    0.1520   -0.7370 N   0  0  0  0  0  0  0  0  0  0  0  0
    0.0240   -0.2330   -0.2810 C   0  0  0  0  0  0  0  0  0  0  0  0
    0.2030   -1.3670    0.4770 C   0  0  0  0  0  0  0  0  0  0  0  0
    1.4330   -1.7610    0.9420 C   0  0  0  0  0  0  0  0  0  0  0  0
    2.5420   -0.9990    0.6440 C   0  0  0  0  0  0  0  0  0  0  0  0
    3.8100   -1.3920    1.1510 N   0  0  0  0  0  0  0  0  0  0  0  0
    4.1340   -2.9660    1.7450 S   0  0  1  0  0  0  0  0  0  0  0  0
    3.9200   -4.2020    0.4980 C   0  0  0  0  0  0  0  0  0  0  0  0
    5.5780   -3.0580    2.1930 O   0  0  0  0  0  0  0  0  0  0  0  0
    3.2940   -3.2590    2.9300 O   0  0  0  0  0  0  0  0  0  0  0  0
    2.3630    0.1340   -0.1140 C   0  0  0  0  0  0  0  0  0  0  0  0
    3.4970    0.9910   -0.4680 C   0  0  0  0  0  0  0  0  0  0  0  0
    3.4200    2.3500   -0.2750 C   0  0  0  0  0  0  0  0  0  0  0  0
    4.4930    3.1210   -0.6360 C   0  0  0  0  0  0  0  0  0  0  0  0
    5.6080    2.5360   -1.1760 C   0  0  0  0  0  0  0  0  0  0  0  0
    6.7060    3.3620   -1.5410 N   0  0  0  0  0  0  0  0  0  0  0  0
    6.6520    5.1070   -1.3120 S   0  0  0  0  0  0  0  0  0  0  0  0
    5.6720    1.2140   -1.3600 N   0  0  0  0  0  0  0  0  0  0  0  0
    4.6130    0.4380   -1.0050 C   0  0  0  0  0  0  0  0  0  0  0  0
    1.1250    0.4940   -0.5580 N   0  0  0  0  0  0  0  0  0  0  0  0
   -2.6970   -0.5300    1.0690 C   0  0  0  0  0  0  0  0  0  0  0  0
  2  1  1  1
  2  3  1  0
  2  4  1  0
  2 33  1  0
  4  5  1  0
  5  6  1  0
  5 11  2  0
  6  7  1  0
  7  8  2  0
  8  9  1  0
  8 11  1  0
  9 10  2  0
 11 12  1  0
 12 13  1  1
 12 33  1  0
 13 14  1  0
 14 15  2  0
 14 32  1  0
 15 16  1  0
 16 17  2  0
 17 18  1  0
 17 23  1  0
 18 19  1  0
 19 20  1  6
 19 21  2  0
 19 22  2  0
 23 24  1  0
 23 32  2  0
 24 25  2  0
 24 31  1  0
 25 26  1  0
 26 27  2  0
 27 28  1  0
 27 30  1  0
 28 29  1  0
 30 31  2  0
M  END
