
     RDKit          3D

 33 36  0  0  0  0  0  0  0  0999 V2000
    4.3210    1.0490    0.1800 O   0  0  0  0  0  0  0  0  0  0  0  0
    4.9710    0.1760    0.7710 C   0  0  0  0  0  0  0  0  0  0  0  0
    4.2990   -0.8690    1.5690 C   0  0  0  0  0  0  0  0  0  0  0  0
    2.8190   -0.7680    1.4480 C   0  0  0  0  0  0  0  0  0  0  0  0
    2.3420   -0.9710    0.0550 C   0  0  0  0  0  0  0  0  0  0  0  0
    0.8670   -0.8660   -0.0220 C   0  0  0  0  0  0  0  0  0  0  0  0
    0.0440    0.1640   -0.2380 C   0  0  0  0  0  0  0  0  0  0  0  0
   -1.2910   -0.0090   -0.2600 C   0  0  0  0  0  0  0  0  0  0  0  0
   -2.2720    1.0930   -0.4960 C   0  0  0  0  0  0  0  0  0  0  0  0
   -3.4850    0.8110   -0.4940 O   0  0  0  0  0  0  0  0  0  0  0  0
   -1.7950    2.3980   -0.7100 N   0  0  0  0  0  0  0  0  0  0  0  0
   -2.6990    3.4280   -0.9290 N   0  0  0  0  0  0  0  0  0  0  0  0
   -2.3200    4.6140   -1.2780 C   0  0  0  0  0  0  0  0  0  0  0  0
   -3.3020    5.6310   -1.4890 C   0  0  0  0  0  0  0  0  0  0  0  0
   -3.3010    6.9320   -1.8440 C   0  0  0  0  0  0  0  0  0  0  0  0
   -4.4340    7.6140   -1.9530 C   0  0  0  0  0  0  0  0  0  0  0  0
   -5.6410    6.9980   -1.7030 C   0  0  0  0  0  0  0  0  0  0  0  0
   -5.0970    5.3080   -1.2790 S   0  0  0  0  0  0  0  0  0  0  0  0
   -1.7560   -1.2780   -0.0530 C   0  0  0  0  0  0  0  0  0  0  0  0
   -3.0630   -1.8650    0.0000 N   0  0  0  0  0  0  0  0  0  0  0  0
   -3.1280   -3.2780    0.2500 C   0  0  0  0  0  0  0  0  0  0  0  0
   -2.1050   -3.9450    0.4090 O   0  0  0  0  0  0  0  0  0  0  0  0
   -4.4100   -3.8710    0.3050 N   0  0  0  0  0  0  0  0  0  0  0  0
   -4.6350   -5.2750    0.5460 C   0  0  0  0  0  0  0  0  0  0  0  0
   -3.7320   -6.2020    0.7470 C   0  0  0  0  0  0  0  0  0  0  0  0
   -4.4330   -7.4870    0.9490 C   0  0  0  0  0  0  0  0  0  0  0  0
   -5.8220   -7.1620    0.8360 N   0  0  0  0  0  0  0  0  0  0  0  0
   -5.9530   -5.9170    0.6080 C   0  0  0  0  0  0  0  0  0  0  0  0
   -0.2120   -2.2210    0.1770 S   0  0  0  0  0  0  0  0  0  0  0  0
    6.3960    0.2290    0.6430 N   0  0  0  0  0  0  0  0  0  0  0  0
    7.0340    1.2620   -0.1440 C   0  0  2  0  0  0  0  0  0  0  0  0
    8.3540    1.0330   -0.7680 C   0  0  0  0  0  0  0  0  0  0  0  0
    8.2640    1.8560    0.4540 C   0  0  0  0  0  0  0  0  0  0  0  0
  1  2  2  0
  2  3  1  0
  2 30  1  0
  3  4  1  0
  4  5  1  0
  5  6  1  0
  6  7  2  0
  6 29  1  0
  7  8  1  0
  8  9  1  0
  8 19  2  0
  9 10  2  0
  9 11  1  0
 11 12  1  0
 12 13  2  3
 13 14  1  0
 14 15  2  0
 14 18  1  0
 15 16  1  0
 16 17  2  0
 17 18  1  0
 19 20  1  0
 19 29  1  0
 20 21  1  0
 21 22  2  0
 21 23  1  0
 23 24  1  0
 24 25  2  0
 24 28  1  0
 25 26  1  0
 26 27  1  0
 27 28  2  0
 31 30  1  1
 31 32  1  0
 31 33  1  0
 32 33  1  0
M  END
