
     RDKit          3D

 33 36  0  0  0  0  0  0  0  0999 V2000
    6.1360   -2.2490   -1.5450 C   0  0  0  0  0  0  0  0  0  0  0  0
    6.1190   -0.7410   -1.6410 C   0  0  0  0  0  0  0  0  0  0  0  0
    5.4090   -0.1470   -0.4220 C   0  0  0  0  0  0  0  0  0  0  0  0
    4.1680    0.3380   -0.4830 C   0  0  0  0  0  0  0  0  0  0  0  0
    3.6220    0.8530    0.6740 C   0  0  0  0  0  0  0  0  0  0  0  0
    2.3200    1.4490    0.9040 C   0  0  0  0  0  0  0  0  0  0  0  0
    2.0290    1.8280    2.0510 O   0  0  0  0  0  0  0  0  0  0  0  0
    1.3930    1.5760   -0.2500 C   0  0  2  0  0  0  0  0  0  0  0  0
    2.0480    2.4900   -1.2270 C   0  0  0  0  0  0  0  0  0  0  0  0
    1.2880    3.7940   -1.0420 C   0  0  0  0  0  0  0  0  0  0  0  0
   -0.0690    3.3190   -0.6550 C   0  0  0  0  0  0  0  0  0  0  0  0
    0.1130    2.0810    0.0970 N   0  0  1  0  0  0  0  0  0  0  0  0
   -0.8930    1.1450   -0.2860 C   0  0  0  0  0  0  0  0  0  0  0  0
   -1.6020    0.4160    0.7820 C   0  0  0  0  0  0  0  0  0  0  0  0
   -1.3440    0.6020    2.1160 C   0  0  0  0  0  0  0  0  0  0  0  0
   -2.0330   -0.1000    3.1140 C   0  0  0  0  0  0  0  0  0  0  0  0
   -2.9980   -1.0030    2.7600 C   0  0  0  0  0  0  0  0  0  0  0  0
   -3.2550   -1.1870    1.4140 C   0  0  0  0  0  0  0  0  0  0  0  0
   -2.5970   -0.5160    0.4210 C   0  0  0  0  0  0  0  0  0  0  0  0
   -2.8340   -0.6860   -1.0100 C   0  0  0  0  0  0  0  0  0  0  0  0
   -3.9450   -1.5970   -1.3920 C   0  0  2  0  0  0  0  0  0  0  0  0
   -5.2800   -1.1050   -0.8380 C   0  0  0  0  0  0  0  0  0  0  0  0
   -3.7200   -2.9100   -0.9690 O   0  0  0  0  0  0  0  0  0  0  0  0
   -4.0620   -1.6050   -2.8600 C   0  0  0  0  0  0  0  0  0  0  0  0
   -3.9620   -2.6960   -3.4770 O   0  0  0  0  0  0  0  0  0  0  0  0
   -4.2810   -0.4580   -3.6140 O   0  0  0  0  0  0  0  0  0  0  0  0
   -4.3820   -0.5660   -5.0400 C   0  0  0  0  0  0  0  0  0  0  0  0
   -3.6170   -1.6440    3.9480 C   0  0  0  0  0  0  0  0  0  0  0  0
   -3.1420   -0.7790    5.0820 C   0  0  0  0  0  0  0  0  0  0  0  0
   -1.9140   -0.0540    4.5830 C   0  0  0  0  0  0  0  0  0  0  0  0
    4.8960    0.6510    1.9030 S   0  0  0  0  0  0  0  0  0  0  0  0
    6.0880   -0.1210    0.7570 C   0  0  0  0  0  0  0  0  0  0  0  0
    7.4430   -0.5580    1.1900 C   0  0  0  0  0  0  0  0  0  0  0  0
  1  2  1  0
  2  3  1  0
  3  4  1  0
  3 32  2  0
  4  5  2  0
  5  6  1  0
  5 31  1  0
  6  7  2  0
  8  6  1  1
  8  9  1  0
  8 12  1  0
  9 10  1  0
 10 11  1  0
 11 12  1  0
 12 13  1  6
 13 14  1  0
 14 15  2  0
 14 19  1  0
 15 16  1  0
 16 17  2  0
 16 30  1  0
 17 18  1  0
 17 28  1  0
 18 19  2  0
 19 20  1  0
 20 21  1  0
 21 22  1  1
 21 23  1  0
 21 24  1  0
 24 25  2  0
 24 26  1  0
 26 27  1  0
 28 29  1  0
 29 30  1  0
 31 32  1  0
 32 33  1  0
M  CHG  1  12   1
M  END
