
     RDKit          3D

 33 36  0  0  0  0  0  0  0  0999 V2000
   -1.1880    8.0750   -0.3260 C   0  0  0  0  0  0  0  0  0  0  0  0
   -1.4650    6.6190   -0.6670 C   0  0  0  0  0  0  0  0  0  0  0  0
   -1.6250    5.8840    0.6260 C   0  0  0  0  0  0  0  0  0  0  0  0
   -1.8870    4.5240    0.4440 O   0  0  0  0  0  0  0  0  0  0  0  0
   -1.0350    3.6440   -0.2000 C   0  0  0  0  0  0  0  0  0  0  0  0
    0.0460    4.0710   -0.6560 O   0  0  0  0  0  0  0  0  0  0  0  0
   -1.3620    2.2090   -0.3670 C   0  0  0  0  0  0  0  0  0  0  0  0
   -0.2510    1.5320   -1.0980 C   0  0  0  0  0  0  0  0  0  0  0  0
   -0.5160    0.0570   -1.3080 C   0  0  1  0  0  0  0  0  0  0  0  0
    0.6270   -0.5820   -2.0460 C   0  0  0  0  0  0  0  0  0  0  0  0
    1.9200   -0.4870   -1.3620 C   0  0  0  0  0  0  0  0  0  0  0  0
    2.5580   -1.2560   -0.4890 C   0  0  0  0  0  0  0  0  0  0  0  0
    3.7650   -0.9320   -0.0030 C   0  0  0  0  0  0  0  0  0  0  0  0
    4.3200    0.2650   -0.4670 C   0  0  0  0  0  0  0  0  0  0  0  0
    3.0910    0.8710   -1.5760 S   0  0  0  0  0  0  0  0  0  0  0  0
    5.6340    0.7990   -0.0460 C   0  0  0  0  0  0  0  0  0  0  0  0
    6.5610   -0.3020    0.3390 C   0  0  1  0  0  0  0  0  0  0  0  0
    7.8880    0.2020    0.8550 C   0  0  0  0  0  0  0  0  0  0  0  0
    5.8890   -1.0890    1.3030 O   0  0  0  0  0  0  0  0  0  0  0  0
    4.6680   -1.6300    0.9630 C   0  0  0  0  0  0  0  0  0  0  0  0
    4.3140   -2.7230    1.4760 O   0  0  0  0  0  0  0  0  0  0  0  0
   -0.8360   -0.6300   -0.0700 N   0  0  0  0  0  0  0  0  0  0  0  0
   -2.1840   -1.1420   -0.1600 C   0  0  2  0  0  0  0  0  0  0  0  0
   -3.0960   -0.6410    0.8990 C   0  0  0  0  0  0  0  0  0  0  0  0
   -4.2340   -1.6760    0.8400 C   0  0  0  0  0  0  0  0  0  0  0  0
   -3.4580   -2.9330    0.5320 C   0  0  0  0  0  0  0  0  0  0  0  0
   -3.8490   -4.2300    0.7800 C   0  0  0  0  0  0  0  0  0  0  0  0
   -5.1590   -4.5320    1.4070 C   0  0  0  0  0  0  0  0  0  0  0  0
   -2.9770   -5.2360    0.4230 C   0  0  0  0  0  0  0  0  0  0  0  0
   -1.7530   -4.9630   -0.1620 C   0  0  0  0  0  0  0  0  0  0  0  0
   -0.8220   -6.0810   -0.5410 C   0  0  0  0  0  0  0  0  0  0  0  0
   -1.4050   -3.6550   -0.3900 C   0  0  0  0  0  0  0  0  0  0  0  0
   -2.2520   -2.6130   -0.0470 C   0  0  0  0  0  0  0  0  0  0  0  0
  1  2  1  0
  2  3  1  0
  3  4  1  0
  4  5  1  0
  5  6  2  0
  5  7  1  0
  7  8  1  0
  9  8  1  1
  9 10  1  0
  9 22  1  0
 10 11  1  0
 11 12  2  0
 11 15  1  0
 12 13  1  0
 13 14  2  0
 13 20  1  0
 14 15  1  0
 14 16  1  0
 16 17  1  0
 17 18  1  1
 17 19  1  0
 19 20  1  0
 20 21  2  0
 23 22  1  1
 23 24  1  0
 23 33  1  0
 24 25  1  0
 25 26  1  0
 26 27  2  0
 26 33  1  0
 27 28  1  0
 27 29  1  0
 29 30  2  0
 30 31  1  0
 30 32  1  0
 32 33  2  0
M  CHG  1  22   1
M  END
