
     RDKit          3D

 33 36  0  0  0  0  0  0  0  0999 V2000
    6.3760   -1.2760   -2.4420 C   0  0  0  0  0  0  0  0  0  0  0  0
    5.9420   -0.0430   -2.4280 C   0  0  0  0  0  0  0  0  0  0  0  0
    4.7130    0.3020   -1.7520 C   0  0  0  0  0  0  0  0  0  0  0  0
    4.3920    1.5680   -1.8180 C   0  0  0  0  0  0  0  0  0  0  0  0
    3.2900    2.3580   -1.3120 C   0  0  0  0  0  0  0  0  0  0  0  0
    2.5500    1.8910   -0.1320 C   0  0  0  0  0  0  0  0  0  0  0  0
    3.0380    0.7230    0.5390 N   0  0  2  0  0  0  0  0  0  0  0  0
    4.3490    0.8680    1.0810 C   0  0  0  0  0  0  0  0  0  0  0  0
    4.3210    1.0500    2.6060 C   0  0  0  0  0  0  0  0  0  0  0  0
    2.8260   -0.4320   -0.2890 C   0  0  2  0  0  0  0  0  0  0  0  0
    2.5120   -1.6290    0.5750 C   0  0  0  0  0  0  0  0  0  0  0  0
    1.3680   -1.4600    1.3660 O   0  0  0  0  0  0  0  0  0  0  0  0
    0.0940   -1.2260    0.9010 C   0  0  0  0  0  0  0  0  0  0  0  0
   -0.0790   -1.1530   -0.3300 O   0  0  0  0  0  0  0  0  0  0  0  0
   -1.0340   -1.0650    1.7870 C   0  0  0  0  0  0  0  0  0  0  0  0
   -0.9510   -1.1610    3.5390 S   0  0  0  0  0  0  0  0  0  0  0  0
   -2.6900   -0.8720    3.8820 C   0  0  0  0  0  0  0  0  0  0  0  0
   -3.2180   -0.7190    2.5870 C   0  0  0  0  0  0  0  0  0  0  0  0
   -4.7190   -0.3990    2.4470 C   0  0  0  0  0  0  0  0  0  0  0  0
   -5.0080    1.0350    2.5080 C   0  0  0  0  0  0  0  0  0  0  0  0
   -4.3400    1.8680    1.4680 C   0  0  0  0  0  0  0  0  0  0  0  0
   -4.6850    3.2250    1.6000 O   0  0  0  0  0  0  0  0  0  0  0  0
   -2.3820   -0.8190    1.5610 C   0  0  0  0  0  0  0  0  0  0  0  0
   -2.8130   -0.7610    0.1290 C   0  0  0  0  0  0  0  0  0  0  0  0
   -2.3720    0.2700   -0.6620 C   0  0  0  0  0  0  0  0  0  0  0  0
   -2.7350    0.3810   -1.9910 C   0  0  0  0  0  0  0  0  0  0  0  0
   -3.5620   -0.5890   -2.4930 C   0  0  0  0  0  0  0  0  0  0  0  0
   -4.0100   -1.6220   -1.7180 C   0  0  0  0  0  0  0  0  0  0  0  0
   -3.6520   -1.7380   -0.3930 C   0  0  0  0  0  0  0  0  0  0  0  0
   -4.8700   -2.4730   -2.5620 C   0  0  0  0  0  0  0  0  0  0  0  0
   -4.9100   -1.9210   -3.8100 O   0  0  0  0  0  0  0  0  0  0  0  0
   -4.1450   -0.7900   -3.8430 C   0  0  0  0  0  0  0  0  0  0  0  0
    4.0330   -0.8070   -1.1040 C   0  0  0  0  0  0  0  0  0  0  0  0
  1  2  2  0
  2  3  1  0
  3  4  2  0
  3 33  1  0
  4  5  1  0
  5  6  1  0
  6  7  1  0
  7  8  1  6
  7 10  1  0
  8  9  1  0
 10 11  1  1
 10 33  1  0
 11 12  1  0
 12 13  1  0
 13 14  2  0
 13 15  1  0
 15 16  1  0
 15 23  2  0
 16 17  1  0
 17 18  2  0
 18 19  1  0
 18 23  1  0
 19 20  1  0
 20 21  1  0
 21 22  1  0
 23 24  1  0
 24 25  2  0
 24 29  1  0
 25 26  1  0
 26 27  2  0
 27 28  1  0
 27 32  1  0
 28 29  2  0
 28 30  1  0
 30 31  1  0
 31 32  1  0
M  CHG  1   7   1
M  END
