
     RDKit          3D

 30 33  0  0  0  0  0  0  0  0999 V2000
   -1.7610    3.0250   -3.4050 N   0  0  0  0  0  0  0  0  0  0  0  0
   -1.0200    2.0600   -2.7230 C   0  0  0  0  0  0  0  0  0  0  0  0
    0.1820    1.9510   -3.0750 O   0  0  0  0  0  0  0  0  0  0  0  0
   -1.5940    1.2390   -1.6930 C   0  0  0  0  0  0  0  0  0  0  0  0
   -2.8310    1.4170   -1.3350 C   0  0  0  0  0  0  0  0  0  0  0  0
   -3.5970    0.6840   -0.3240 C   0  0  0  0  0  0  0  0  0  0  0  0
   -3.3220   -0.5600    0.1160 C   0  0  0  0  0  0  0  0  0  0  0  0
   -2.2240   -1.4040   -0.3210 N   0  0  0  0  0  0  0  0  0  0  0  0
   -1.0420   -0.8990   -0.7400 N   0  0  0  0  0  0  0  0  0  0  0  0
   -0.6090    0.1040   -1.2770 C   0  0  0  0  0  0  0  0  0  0  0  0
    0.5750   -0.0090   -2.0090 N   0  0  0  0  0  0  0  0  0  0  0  0
    1.6600    0.6660   -1.3630 C   0  0  0  0  0  0  0  0  0  0  0  0
    1.2680    1.1300   -0.1980 O   0  0  0  0  0  0  0  0  0  0  0  0
    2.9800    0.8490   -1.8100 C   0  0  0  0  0  0  0  0  0  0  0  0
    3.8430    1.4950   -0.7350 C   0  0  0  0  0  0  0  0  0  0  0  0
    3.8470    0.6290    0.5010 C   0  0  0  0  0  0  0  0  0  0  0  0
    3.1740    0.8050    1.6500 N   0  0  0  0  0  0  0  0  0  0  0  0
    3.4450   -0.1900    2.4970 N   0  0  0  0  0  0  0  0  0  0  0  0
    4.3010   -1.0530    1.9390 C   0  0  0  0  0  0  0  0  0  0  0  0
    4.8890   -2.2220    2.3790 C   0  0  0  0  0  0  0  0  0  0  0  0
    5.7470   -2.8660    1.5130 C   0  0  0  0  0  0  0  0  0  0  0  0
    6.3910   -4.0290    1.8290 F   0  0  0  0  0  0  0  0  0  0  0  0
    6.0190   -2.3660    0.2400 C   0  0  0  0  0  0  0  0  0  0  0  0
    5.4220   -1.2050   -0.1680 C   0  0  0  0  0  0  0  0  0  0  0  0
    4.5620   -0.5400    0.6700 C   0  0  0  0  0  0  0  0  0  0  0  0
   -4.1680   -1.1820    1.1410 C   0  0  1  0  0  0  0  0  0  0  0  0
   -3.4940   -2.2990    1.7860 N   0  0  0  0  0  0  0  0  0  0  0  0
   -4.3980   -0.1220    2.2050 C   0  0  0  0  0  0  0  0  0  0  0  0
   -4.9070    1.1660    1.6670 C   0  0  0  0  0  0  0  0  0  0  0  0
   -4.7540    1.4030    0.2110 C   0  0  0  0  0  0  0  0  0  0  0  0
  1  2  1  0
  2  3  2  0
  2  4  1  0
  4  5  2  0
  4 10  1  0
  5  6  1  0
  6  7  2  0
  6 30  1  0
  7  8  1  0
  7 26  1  0
  8  9  1  0
  9 10  2  0
 10 11  1  0
 11 12  1  0
 12 13  2  0
 12 14  1  0
 14 15  1  0
 15 16  1  0
 16 17  2  0
 16 25  1  0
 17 18  1  0
 18 19  1  0
 19 20  2  0
 19 25  1  0
 20 21  1  0
 21 22  1  0
 21 23  2  0
 23 24  1  0
 24 25  2  0
 26 27  1  1
 26 28  1  0
 28 29  1  0
 29 30  1  0
M  CHG  1  27   1
M  END
