
     RDKit          3D

 30 33  0  0  0  0  0  0  0  0999 V2000
    0.3260   -2.3260   -1.3390 N   0  0  0  0  0  0  0  0  0  0  0  0
    0.9860   -1.0830   -1.1600 C   0  0  0  0  0  0  0  0  0  0  0  0
    2.3180   -1.0530   -0.7660 C   0  0  0  0  0  0  0  0  0  0  0  0
    2.9680    0.1450   -0.5890 C   0  0  0  0  0  0  0  0  0  0  0  0
    4.3760    0.1660   -0.1720 C   0  0  0  0  0  0  0  0  0  0  0  0
    5.1510   -0.9050    0.0720 N   0  0  0  0  0  0  0  0  0  0  0  0
    6.3800   -0.5060    0.4310 C   0  0  0  0  0  0  0  0  0  0  0  0
    7.5510   -1.1620    0.7870 C   0  0  0  0  0  0  0  0  0  0  0  0
    8.7070   -0.4630    1.1200 C   0  0  0  0  0  0  0  0  0  0  0  0
    8.7140    0.9210    1.1030 C   0  0  0  0  0  0  0  0  0  0  0  0
    7.5510    1.5650    0.7500 C   0  0  0  0  0  0  0  0  0  0  0  0
    6.3960    0.8730    0.4170 C   0  0  0  0  0  0  0  0  0  0  0  0
    5.1550    1.2360    0.0440 N   0  0  0  0  0  0  0  0  0  0  0  0
    2.2730    1.3090   -0.8110 C   0  0  0  0  0  0  0  0  0  0  0  0
    0.9510    1.2580   -1.2020 C   0  0  0  0  0  0  0  0  0  0  0  0
    0.2920    2.4370   -1.4140 F   0  0  0  0  0  0  0  0  0  0  0  0
    0.2810    0.0720   -1.3850 C   0  0  0  0  0  0  0  0  0  0  0  0
   -1.0620    0.0100   -1.7820 N   0  0  0  0  0  0  0  0  0  0  0  0
   -2.1690   -0.0100   -0.8880 C   0  0  0  0  0  0  0  0  0  0  0  0
   -1.9210    0.0300    0.3390 O   0  0  0  0  0  0  0  0  0  0  0  0
   -3.5180   -0.0770   -1.4580 C   0  0  0  0  0  0  0  0  0  0  0  0
   -4.5620   -0.0930   -0.4830 N   0  0  0  0  0  0  0  0  0  0  0  0
   -5.0710    1.1740   -0.0870 C   0  0  0  0  0  0  0  0  0  0  0  0
   -4.4540    2.1440   -0.5860 O   0  0  0  0  0  0  0  0  0  0  0  0
   -6.2060    1.5330    0.8160 C   0  0  0  0  0  0  0  0  0  0  0  0
   -7.2410    0.4040    0.8380 C   0  0  0  0  0  0  0  0  0  0  0  0
   -6.8300   -0.6930    1.6700 N   0  0  0  0  0  0  0  0  0  0  0  0
   -6.0260   -1.6220    1.0010 N   0  0  0  0  0  0  0  0  0  0  0  0
   -5.0110   -1.3480    0.0120 C   0  0  0  0  0  0  0  0  0  0  0  0
   -4.4300   -2.3390   -0.4970 O   0  0  0  0  0  0  0  0  0  0  0  0
  1  2  1  0
  2  3  2  0
  2 17  1  0
  3  4  1  0
  4  5  1  0
  4 14  2  0
  5  6  2  0
  5 13  1  0
  6  7  1  0
  7  8  2  0
  7 12  1  0
  8  9  1  0
  9 10  2  0
 10 11  1  0
 11 12  2  0
 12 13  1  0
 14 15  1  0
 15 16  1  0
 15 17  2  0
 17 18  1  0
 18 19  1  0
 19 20  2  0
 19 21  1  0
 21 22  1  0
 22 23  1  0
 22 29  1  0
 23 24  2  0
 23 25  1  0
 25 26  1  0
 26 27  1  0
 27 28  1  0
 28 29  1  0
 29 30  2  0
M  CHG  1  27   1
M  END
