
     RDKit          3D

 30 32  0  0  0  0  0  0  0  0999 V2000
    4.6620   -1.8020   -3.3790 C   0  0  0  0  0  0  0  0  0  0  0  0
    3.3990   -1.4910   -4.0810 C   0  0  0  0  0  0  0  0  0  0  0  0
    3.2750   -1.8010   -5.3760 F   0  0  0  0  0  0  0  0  0  0  0  0
    2.4280   -0.9190   -3.4250 C   0  0  0  0  0  0  0  0  0  0  0  0
    2.5510   -0.5680   -1.9860 C   0  0  0  0  0  0  0  0  0  0  0  0
    1.5690    0.0100   -1.3280 C   0  0  0  0  0  0  0  0  0  0  0  0
    1.7170    0.3520    0.1130 C   0  0  0  0  0  0  0  0  0  0  0  0
    0.8650    0.8550    0.7460 N   0  0  0  0  0  0  0  0  0  0  0  0
   -0.2540    1.3900    1.1280 N   0  0  0  0  0  0  0  0  0  0  0  0
   -1.4790    0.6000    1.0960 C   0  0  0  0  0  0  0  0  0  0  0  0
   -1.3890   -0.5810    0.6910 O   0  0  0  0  0  0  0  0  0  0  0  0
   -2.7170    1.1580    1.5090 N   0  0  0  0  0  0  0  0  0  0  0  0
   -3.9290    0.4270    1.4890 C   0  0  0  0  0  0  0  0  0  0  0  0
   -4.3010   -0.3140    2.5830 C   0  0  0  0  0  0  0  0  0  0  0  0
   -3.4880   -0.3550    3.7390 N   0  0  0  0  0  0  0  0  0  0  0  0
   -5.4990   -1.0490    2.5820 C   0  0  0  0  0  0  0  0  0  0  0  0
   -6.2680   -0.9960    1.4600 N   0  0  0  0  0  0  0  0  0  0  0  0
   -5.8930   -0.2650    0.3930 C   0  0  0  0  0  0  0  0  0  0  0  0
   -4.7250    0.4630    0.3700 C   0  0  0  0  0  0  0  0  0  0  0  0
   -4.2630    1.2840   -0.7730 C   0  0  0  0  0  0  0  0  0  0  0  0
   -5.2680    1.1700   -1.8380 N   0  0  0  0  0  0  0  0  0  0  0  0
    2.9870    0.0400    0.7290 N   0  0  0  0  0  0  0  0  0  0  0  0
    3.1190   -1.1810    1.4500 C   0  0  0  0  0  0  0  0  0  0  0  0
    4.0110   -0.9750    2.6720 C   0  0  0  0  0  0  0  0  0  0  0  0
    5.1690   -0.3160    2.3140 O   0  0  0  0  0  0  0  0  0  0  0  0
    4.8610    0.9760    1.8970 C   0  0  0  0  0  0  0  0  0  0  0  0
    4.0570    0.9650    0.5970 C   0  0  0  0  0  0  0  0  0  0  0  0
    0.3510    0.3040   -2.0340 C   0  0  0  0  0  0  0  0  0  0  0  0
    0.1880    0.0080   -3.3380 C   0  0  0  0  0  0  0  0  0  0  0  0
    1.2200   -0.5970   -4.0200 O   0  0  0  0  0  0  0  0  0  0  0  0
  1  2  1  0
  2  3  1  0
  2  4  2  3
  4  5  1  0
  4 30  1  0
  5  6  2  0
  6  7  1  0
  6 28  1  0
  7  8  2  3
  7 22  1  0
  8  9  1  0
  9 10  1  0
 10 11  2  0
 10 12  1  0
 12 13  1  0
 13 14  2  0
 13 19  1  0
 14 15  1  0
 14 16  1  0
 16 17  2  0
 17 18  1  0
 18 19  2  0
 19 20  1  0
 20 21  1  0
 22 23  1  0
 22 27  1  0
 23 24  1  0
 24 25  1  0
 25 26  1  0
 26 27  1  0
 28 29  2  0
 29 30  1  0
M  CHG  1  21   1
M  END
