
     RDKit          3D

 30 33  0  0  0  0  0  0  0  0999 V2000
    7.0210    0.8770   -2.1300 C   0  0  0  0  0  0  0  0  0  0  0  0
    5.7180    0.7040   -1.4170 C   0  0  0  0  0  0  0  0  0  0  0  0
    4.5170    0.8940   -2.0700 C   0  0  0  0  0  0  0  0  0  0  0  0
    3.2890    0.7350   -1.4230 C   0  0  0  0  0  0  0  0  0  0  0  0
    3.2480    0.3780   -0.0930 C   0  0  0  0  0  0  0  0  0  0  0  0
    1.9470    0.1970    0.5890 C   0  0  0  0  0  0  0  0  0  0  0  0
    1.9630   -0.1570    1.8880 N   0  0  0  0  0  0  0  0  0  0  0  0
    0.7910   -0.3430    2.5180 C   0  0  0  0  0  0  0  0  0  0  0  0
   -0.3750   -0.1820    1.8780 N   0  0  0  0  0  0  0  0  0  0  0  0
   -0.3860    0.1710    0.5830 C   0  0  0  0  0  0  0  0  0  0  0  0
   -1.6610    0.3340   -0.1480 C   0  0  0  0  0  0  0  0  0  0  0  0
   -2.6160   -0.5280    0.0330 C   0  0  0  0  0  0  0  0  0  0  0  0
   -2.4350   -1.6990    0.9920 C   0  0  0  0  0  0  0  0  0  0  0  0
   -3.6300   -2.6000    0.7890 C   0  0  0  0  0  0  0  0  0  0  0  0
   -4.9010   -1.9580    0.9900 N   0  0  0  0  0  0  0  0  0  0  0  0
   -4.9700   -0.6050    0.4640 C   0  0  0  0  0  0  0  0  0  0  0  0
   -3.9110   -0.5050   -0.6400 C   0  0  1  0  0  0  0  0  0  0  0  0
   -4.1620    0.6770   -1.4840 C   0  0  0  0  0  0  0  0  0  0  0  0
   -5.3670    0.8180   -2.0610 C   0  0  0  0  0  0  0  0  0  0  0  0
   -5.7720    1.8940   -2.8990 C   0  0  0  0  0  0  0  0  0  0  0  0
   -6.9790    1.8470   -3.3640 O   0  0  0  0  0  0  0  0  0  0  0  0
   -5.0670    2.9700   -3.2830 F   0  0  0  0  0  0  0  0  0  0  0  0
   -3.1260    1.6180   -1.6860 N   0  0  0  0  0  0  0  0  0  0  0  0
   -1.8550    1.4690   -1.0250 C   0  0  0  0  0  0  0  0  0  0  0  0
   -0.9330    2.2930   -1.1950 O   0  0  0  0  0  0  0  0  0  0  0  0
    0.7930    0.3530   -0.0330 N   0  0  0  0  0  0  0  0  0  0  0  0
    4.4420    0.1890    0.5610 C   0  0  0  0  0  0  0  0  0  0  0  0
    4.4140   -0.1730    1.9230 N   0  0  0  0  0  0  0  0  0  0  0  0
    5.6680    0.3490   -0.0890 C   0  0  0  0  0  0  0  0  0  0  0  0
    6.9050    0.1520    0.5860 N   0  0  0  0  0  0  0  0  0  0  0  0
  1  2  1  0
  2  3  2  0
  2 29  1  0
  3  4  1  0
  4  5  2  0
  5  6  1  0
  5 27  1  0
  6  7  2  0
  6 26  1  0
  7  8  1  0
  8  9  2  0
  9 10  1  0
 10 11  1  0
 10 26  2  0
 11 12  2  0
 11 24  1  0
 12 13  1  0
 12 17  1  0
 13 14  1  0
 14 15  1  0
 15 16  1  0
 17 16  1  1
 17 18  1  0
 18 19  2  3
 18 23  1  0
 19 20  1  0
 20 21  2  0
 20 22  1  0
 23 24  1  0
 24 25  2  0
 27 28  1  0
 27 29  2  0
 29 30  1  0
M  CHG  1  15   1
M  END
