
     RDKit          3D

 30 33  0  0  0  0  0  0  0  0999 V2000
   -4.2980   -3.2860   -0.2420 N   0  0  0  0  0  0  0  0  0  0  0  0
   -4.3670   -1.8650   -0.2200 C   0  0  0  0  0  0  0  0  0  0  0  0
   -3.3070   -1.0450   -0.3440 C   0  0  0  0  0  0  0  0  0  0  0  0
   -2.0440   -1.5640   -0.5060 O   0  0  0  0  0  0  0  0  0  0  0  0
   -0.8640   -0.9290   -0.5770 C   0  0  0  0  0  0  0  0  0  0  0  0
   -0.8350    0.3130   -0.4820 O   0  0  0  0  0  0  0  0  0  0  0  0
    0.4070   -1.5640   -0.7590 N   0  0  0  0  0  0  0  0  0  0  0  0
    1.5850   -0.8020   -0.8180 N   0  0  0  0  0  0  0  0  0  0  0  0
    2.6890   -0.9440    0.0290 C   0  0  0  0  0  0  0  0  0  0  0  0
    2.6610   -1.8220    0.9280 O   0  0  0  0  0  0  0  0  0  0  0  0
    3.8760   -0.1020   -0.0950 C   0  0  0  0  0  0  0  0  0  0  0  0
    3.9050    1.0600   -0.8350 C   0  0  0  0  0  0  0  0  0  0  0  0
    5.0280    1.8610   -0.9570 C   0  0  0  0  0  0  0  0  0  0  0  0
    6.1760    1.4800   -0.3070 C   0  0  0  0  0  0  0  0  0  0  0  0
    6.2080    0.3230    0.4500 C   0  0  0  0  0  0  0  0  0  0  0  0
    7.3960   -0.0740    1.1270 N   0  0  0  0  0  0  0  0  0  0  0  0
    8.5400    0.6280    1.2390 C   0  0  0  0  0  0  0  0  0  0  0  0
    9.4760   -0.1080    1.9810 C   0  0  0  0  0  0  0  0  0  0  0  0
    8.8200   -1.2350    2.2780 N   0  0  0  0  0  0  0  0  0  0  0  0
    7.6020   -1.2090    1.7740 N   0  0  0  0  0  0  0  0  0  0  0  0
    5.0720   -0.4500    0.5500 C   0  0  0  0  0  0  0  0  0  0  0  0
   -3.8370    0.3070   -0.2680 C   0  0  0  0  0  0  0  0  0  0  0  0
   -5.1510    0.3100   -0.1030 C   0  0  0  0  0  0  0  0  0  0  0  0
   -5.6930    1.6590   -0.0240 C   0  0  0  0  0  0  0  0  0  0  0  0
   -6.9260    2.0050    0.3000 C   0  0  0  0  0  0  0  0  0  0  0  0
   -7.2860    3.3090    0.3310 F   0  0  0  0  0  0  0  0  0  0  0  0
   -4.6060    2.5720   -0.3710 C   0  0  0  0  0  0  0  0  0  0  0  0
   -3.3570    1.7200   -0.3280 C   0  0  0  0  0  0  0  0  0  0  0  0
   -5.6040   -1.0850   -0.0530 C   0  0  2  0  0  0  0  0  0  0  0  0
   -6.2370   -1.4140    1.2130 N   0  0  0  0  0  0  0  0  0  0  0  0
  1  2  1  0
  2  3  2  0
  2 29  1  0
  3  4  1  0
  3 22  1  0
  4  5  1  0
  5  6  2  0
  5  7  1  0
  7  8  1  0
  8  9  1  0
  9 10  2  0
  9 11  1  0
 11 12  2  0
 11 21  1  0
 12 13  1  0
 13 14  2  0
 14 15  1  0
 15 16  1  0
 15 21  2  0
 16 17  1  0
 16 20  1  0
 17 18  2  0
 18 19  1  0
 19 20  2  0
 22 23  2  0
 22 28  1  0
 23 24  1  0
 23 29  1  0
 24 25  2  3
 24 27  1  0
 25 26  1  0
 27 28  1  0
 29 30  1  1
M  CHG  1  30   1
M  END
