
     RDKit          3D

 20 20  0  0  0  0  0  0  0  0999 V2000
   -0.6990    4.6740    0.2560 C   0  0  0  0  0  0  0  0  0  0  0  0
   -1.0140    3.4170   -0.0680 C   0  0  0  0  0  0  0  0  0  0  0  0
   -0.2710    2.6910   -1.1310 C   0  0  0  0  0  0  0  0  0  0  0  0
    0.3670    1.4580   -0.6120 C   0  0  0  0  0  0  0  0  0  0  0  0
    1.7420    1.4730   -0.3240 C   0  0  0  0  0  0  0  0  0  0  0  0
    2.4150    0.3910    0.1800 C   0  0  0  0  0  0  0  0  0  0  0  0
    3.8480    0.4640    0.4600 C   0  0  0  0  0  0  0  0  0  0  0  0
    4.4890    1.5400    0.2390 O   0  0  0  0  0  0  0  0  0  0  0  0
    4.6090   -0.6550    0.9910 C   0  0  0  0  0  0  0  0  0  0  0  0
    5.9020   -0.5680    1.2360 C   0  0  0  0  0  0  0  0  0  0  0  0
    1.6770   -0.7340    0.3990 C   0  0  0  0  0  0  0  0  0  0  0  0
    0.3310   -0.7840    0.1290 C   0  0  0  0  0  0  0  0  0  0  0  0
   -0.4010   -1.9460    0.3610 O   0  0  0  0  0  0  0  0  0  0  0  0
    0.2730   -3.0580    0.8760 C   0  0  0  0  0  0  0  0  0  0  0  0
   -0.6200   -4.2470    1.0830 C   0  0  0  0  0  0  0  0  0  0  0  0
   -0.3740    0.3280   -0.3930 C   0  0  0  0  0  0  0  0  0  0  0  0
   -1.7690    0.1260   -0.6570 C   0  0  0  0  0  0  0  0  0  0  0  0
   -2.7040    0.8400   -1.1880 C   0  0  0  0  0  0  0  0  0  0  0  0
   -4.1190    0.2980   -1.3140 C   0  0  0  0  0  0  0  0  0  0  0  0
   -4.2580   -1.0810   -0.7660 C   0  0  0  0  0  0  0  0  0  0  0  0
  1  2  2  0
  2  3  1  0
  3  4  1  0
  4  5  2  0
  4 16  1  0
  5  6  1  0
  6  7  1  0
  6 11  2  0
  7  8  2  0
  7  9  1  0
  9 10  2  0
 11 12  1  0
 12 13  1  0
 12 16  2  0
 13 14  1  0
 14 15  1  0
 16 17  1  0
 17 18  2  3
 18 19  1  0
 19 20  1  0
M  END
