
     RDKit          3D

 20 20  0  0  0  0  0  0  0  0999 V2000
    5.6680    0.8430    1.3420 C   0  0  0  0  0  0  0  0  0  0  0  0
    4.9130    0.3400    0.1480 C   0  0  0  0  0  0  0  0  0  0  0  0
    3.6130    1.0590    0.0090 C   0  0  0  0  0  0  0  0  0  0  0  0
    3.5820    2.5360   -0.1770 C   0  0  0  0  0  0  0  0  0  0  0  0
    2.5060    0.3520    0.0560 C   0  0  0  0  0  0  0  0  0  0  0  0
    1.2000    1.0390   -0.0800 C   0  0  0  0  0  0  0  0  0  0  0  0
    0.5110    0.4570   -1.3030 C   0  0  0  0  0  0  0  0  0  0  0  0
    0.3400   -0.9810   -1.0700 C   0  0  0  0  0  0  0  0  0  0  0  0
    1.2420   -1.8470   -1.6920 C   0  0  0  0  0  0  0  0  0  0  0  0
    1.1320   -3.1940   -1.4790 C   0  0  0  0  0  0  0  0  0  0  0  0
    0.1590   -3.7270   -0.6690 C   0  0  0  0  0  0  0  0  0  0  0  0
   -0.7200   -2.8390   -0.0660 C   0  0  0  0  0  0  0  0  0  0  0  0
   -1.7770   -3.4200    0.8170 C   0  0  0  0  0  0  0  0  0  0  0  0
   -0.6430   -1.4710   -0.2560 C   0  0  0  0  0  0  0  0  0  0  0  0
   -1.5360   -0.5970    0.3540 O   0  0  0  0  0  0  0  0  0  0  0  0
   -2.7620   -0.2560   -0.2710 C   0  0  0  0  0  0  0  0  0  0  0  0
   -3.5310    0.7130    0.5960 C   0  0  0  0  0  0  0  0  0  0  0  0
   -4.8330    1.0680   -0.0800 C   0  0  0  0  0  0  0  0  0  0  0  0
   -5.6410    2.0480    0.7510 C   0  0  0  0  0  0  0  0  0  0  0  0
   -4.8500    3.1870    0.8930 O   0  0  0  0  0  0  0  0  0  0  0  0
  1  2  1  0
  2  3  1  0
  3  4  1  0
  3  5  2  3
  5  6  1  0
  6  7  1  0
  7  8  1  0
  8  9  2  0
  8 14  1  0
  9 10  1  0
 10 11  2  0
 11 12  1  0
 12 13  1  0
 12 14  2  0
 14 15  1  0
 15 16  1  0
 16 17  1  0
 17 18  1  0
 18 19  1  0
 19 20  1  0
M  END
