
     RDKit          3D

 20 20  0  0  0  0  0  0  0  0999 V2000
   -5.6430    0.5780    1.5810 C   0  0  0  0  0  0  0  0  0  0  0  0
   -5.1850   -0.5960    1.2830 C   0  0  0  0  0  0  0  0  0  0  0  0
   -3.9740   -0.7850    0.4530 C   0  0  0  0  0  0  0  0  0  0  0  0
   -3.6590   -2.0370    0.1980 C   0  0  0  0  0  0  0  0  0  0  0  0
   -2.5230   -2.4940   -0.5930 C   0  0  0  0  0  0  0  0  0  0  0  0
   -3.1710    0.3350   -0.0730 C   0  0  0  0  0  0  0  0  0  0  0  0
   -2.4960    1.1650    0.9750 C   0  0  2  0  0  0  0  0  0  0  0  0
   -1.8170    2.2330    0.3050 O   0  0  0  0  0  0  0  0  0  0  0  0
   -1.3170    0.4380    1.6490 C   0  0  0  0  0  0  0  0  0  0  0  0
   -0.2540    0.1510    0.6320 C   0  0  0  0  0  0  0  0  0  0  0  0
    0.8600   -0.5790    1.3690 C   0  0  0  0  0  0  0  0  0  0  0  0
    1.9270   -0.9270    0.5960 O   0  0  0  0  0  0  0  0  0  0  0  0
    2.8490   -0.2470   -0.1170 C   0  0  0  0  0  0  0  0  0  0  0  0
    2.9790    1.1150   -0.2550 C   0  0  0  0  0  0  0  0  0  0  0  0
    3.9600    1.7230   -1.0090 C   0  0  0  0  0  0  0  0  0  0  0  0
    4.0670    3.1970   -1.1340 C   0  0  0  0  0  0  0  0  0  0  0  0
    4.8640    0.9430   -1.6610 C   0  0  0  0  0  0  0  0  0  0  0  0
    4.7960   -0.4210   -1.5690 C   0  0  0  0  0  0  0  0  0  0  0  0
    3.8080   -1.0080   -0.8120 C   0  0  0  0  0  0  0  0  0  0  0  0
    3.7930   -2.4860   -0.7550 C   0  0  0  0  0  0  0  0  0  0  0  0
  1  2  2  0
  2  3  1  0
  3  4  2  3
  3  6  1  0
  4  5  1  0
  6  7  1  0
  7  8  1  6
  7  9  1  0
  9 10  1  0
 10 11  1  0
 11 12  1  0
 12 13  1  0
 13 14  2  0
 13 19  1  0
 14 15  1  0
 15 16  1  0
 15 17  2  0
 17 18  1  0
 18 19  2  0
 19 20  1  0
M  END
