
     RDKit          3D

 20 19  0  0  0  0  0  0  0  0999 V2000
   -7.7990    0.2450    1.4720 C   0  0  0  0  0  0  0  0  0  0  0  0
   -7.1910   -1.0000    2.0260 C   0  0  0  0  0  0  0  0  0  0  0  0
   -5.7200   -1.0670    2.0570 C   0  0  0  0  0  0  0  0  0  0  0  0
   -4.9520   -1.0410    0.8010 C   0  0  0  0  0  0  0  0  0  0  0  0
   -5.1010    0.1790   -0.0570 C   0  0  0  0  0  0  0  0  0  0  0  0
   -4.2240    0.0600   -1.2900 C   0  0  0  0  0  0  0  0  0  0  0  0
   -2.7680   -0.0720   -1.0050 C   0  0  0  0  0  0  0  0  0  0  0  0
   -2.1710    1.0670   -0.2590 C   0  0  0  0  0  0  0  0  0  0  0  0
   -0.7150    0.8360   -0.0180 C   0  0  0  0  0  0  0  0  0  0  0  0
    0.1220    0.6700   -1.2420 C   0  0  0  0  0  0  0  0  0  0  0  0
    1.5570    0.4440   -0.8160 C   0  0  0  0  0  0  0  0  0  0  0  0
    2.4140    0.2700   -2.0290 C   0  0  0  0  0  0  0  0  0  0  0  0
    3.8690    0.0350   -1.6800 C   0  0  0  0  0  0  0  0  0  0  0  0
    4.4700    1.1560   -0.9130 C   0  0  0  0  0  0  0  0  0  0  0  0
    5.9040    0.8560   -0.5950 C   0  0  0  0  0  0  0  0  0  0  0  0
    6.1090   -0.3890    0.2280 C   0  0  0  0  0  0  0  0  0  0  0  0
    7.6160   -0.4940    0.4710 C   0  0  0  0  0  0  0  0  0  0  0  0
    7.9960   -1.6640    1.2670 C   0  0  0  0  0  0  0  0  0  0  0  0
    7.6540   -2.8150    0.8710 O   0  0  0  0  0  0  0  0  0  0  0  0
    8.7220   -1.5790    2.4530 O   0  0  0  0  0  0  0  0  0  0  0  0
  1  2  1  0
  2  3  1  0
  3  4  1  0
  4  5  1  0
  5  6  1  0
  6  7  1  0
  7  8  1  0
  8  9  1  0
  9 10  1  0
 10 11  1  0
 11 12  1  0
 12 13  1  0
 13 14  1  0
 14 15  1  0
 15 16  1  0
 16 17  1  0
 17 18  1  0
 18 19  2  0
 18 20  1  0
M  END
