
     RDKit          3D

 20 20  0  0  0  0  0  0  0  0999 V2000
   -6.0870   -0.7110    0.2960 C   0  0  0  0  0  0  0  0  0  0  0  0
   -4.6590   -0.0880    0.0570 C   0  0  0  0  0  0  0  0  0  0  0  0
   -3.6890   -1.1850    0.1440 C   0  0  0  0  0  0  0  0  0  0  0  0
   -2.2790   -0.8630   -0.0080 C   0  0  0  0  0  0  0  0  0  0  0  0
   -1.4150   -2.1110    0.0340 C   0  0  0  0  0  0  0  0  0  0  0  0
   -1.9630   -3.2020    0.2040 O   0  0  0  0  0  0  0  0  0  0  0  0
   -1.6110    0.2210   -0.1840 C   0  0  0  0  0  0  0  0  0  0  0  0
   -2.1150    1.5870   -0.2970 C   0  0  0  0  0  0  0  0  0  0  0  0
   -1.7290    2.4630    0.8970 C   0  0  0  0  0  0  0  0  0  0  0  0
   -0.2070    0.1220   -0.2860 O   0  0  0  0  0  0  0  0  0  0  0  0
    0.6980    0.2200    0.7550 C   0  0  0  0  0  0  0  0  0  0  0  0
    2.0750    0.0580    0.2450 C   0  0  0  0  0  0  0  0  0  0  0  0
    3.1100    0.1150    1.1990 C   0  0  0  0  0  0  0  0  0  0  0  0
    2.7160    0.3240    2.6090 C   0  0  0  0  0  0  0  0  0  0  0  0
    4.4230   -0.0200    0.8160 C   0  0  0  0  0  0  0  0  0  0  0  0
    4.7330   -0.2130   -0.5110 C   0  0  0  0  0  0  0  0  0  0  0  0
    6.1410   -0.3650   -0.9820 C   0  0  0  0  0  0  0  0  0  0  0  0
    3.7030   -0.2640   -1.4150 C   0  0  0  0  0  0  0  0  0  0  0  0
    2.3520   -0.1310   -1.0720 C   0  0  0  0  0  0  0  0  0  0  0  0
    1.2960   -0.1850   -2.0990 C   0  0  0  0  0  0  0  0  0  0  0  0
  1  2  1  0
  2  3  1  0
  3  4  1  0
  4  5  1  0
  4  7  2  3
  5  6  2  0
  7  8  1  0
  7 10  1  0
  8  9  1  0
 10 11  1  0
 11 12  1  0
 12 13  2  0
 12 19  1  0
 13 14  1  0
 13 15  1  0
 15 16  2  0
 16 17  1  0
 16 18  1  0
 18 19  2  0
 19 20  1  0
M  END
