
     RDKit          3D

 20 20  0  0  0  0  0  0  0  0999 V2000
    6.1670    0.6480   -1.7630 C   0  0  0  0  0  0  0  0  0  0  0  0
    5.4750    0.6870   -0.4170 C   0  0  0  0  0  0  0  0  0  0  0  0
    4.1090    1.3260   -0.5530 C   0  0  0  0  0  0  0  0  0  0  0  0
    3.3750    1.3980    0.7430 C   0  0  0  0  0  0  0  0  0  0  0  0
    3.1330    0.0770    1.3880 C   0  0  0  0  0  0  0  0  0  0  0  0
    2.3380   -0.8910    0.5860 C   0  0  0  0  0  0  0  0  0  0  0  0
    0.9590   -0.3500    0.2630 C   0  0  0  0  0  0  0  0  0  0  0  0
    0.9290    0.4350   -0.6460 O   0  0  0  0  0  0  0  0  0  0  0  0
   -0.2110   -0.7950    1.0430 C   0  0  0  0  0  0  0  0  0  0  0  0
   -0.8230   -2.0680    0.5660 C   0  0  1  0  0  0  0  0  0  0  0  0
   -1.8970   -2.3250    1.4920 O   0  0  0  0  0  0  0  0  0  0  0  0
   -1.4800   -1.8810   -0.8060 C   0  0  0  0  0  0  0  0  0  0  0  0
   -2.5600   -0.9030   -0.6810 C   0  0  0  0  0  0  0  0  0  0  0  0
   -2.4830    0.4270   -0.9400 C   0  0  0  0  0  0  0  0  0  0  0  0
   -3.5650    1.2900   -0.7810 C   0  0  0  0  0  0  0  0  0  0  0  0
   -3.4690    2.7430   -1.0690 C   0  0  0  0  0  0  0  0  0  0  0  0
   -4.7680    0.7770   -0.3430 C   0  0  0  0  0  0  0  0  0  0  0  0
   -4.8890   -0.5700   -0.0690 C   0  0  0  0  0  0  0  0  0  0  0  0
   -6.1900   -1.1060    0.4020 C   0  0  0  0  0  0  0  0  0  0  0  0
   -3.7960   -1.3840   -0.2400 C   0  0  0  0  0  0  0  0  0  0  0  0
  1  2  1  0
  2  3  1  0
  3  4  1  0
  4  5  1  0
  5  6  1  0
  6  7  1  0
  7  8  2  0
  7  9  1  0
  9 10  1  0
 10 11  1  1
 10 12  1  0
 12 13  1  0
 13 14  2  0
 13 20  1  0
 14 15  1  0
 15 16  1  0
 15 17  2  0
 17 18  1  0
 18 19  1  0
 18 20  2  0
M  END
