
     RDKit          3D

 20 20  0  0  0  0  0  0  0  0999 V2000
   -0.8200    0.5090    2.7710 C   0  0  0  0  0  0  0  0  0  0  0  0
   -0.8300   -0.0660    1.4640 O   0  0  0  0  0  0  0  0  0  0  0  0
   -2.0070    0.0160    0.7380 C   0  0  0  0  0  0  0  0  0  0  0  0
   -3.1510    0.6250    1.2270 C   0  0  0  0  0  0  0  0  0  0  0  0
   -4.3200    0.6930    0.4750 C   0  0  0  0  0  0  0  0  0  0  0  0
   -5.5240    1.3580    1.0430 C   0  0  0  0  0  0  0  0  0  0  0  0
   -4.3590    0.1460   -0.7900 C   0  0  0  0  0  0  0  0  0  0  0  0
   -5.6170    0.2160   -1.6090 C   0  0  0  0  0  0  0  0  0  0  0  0
   -3.2180   -0.4530   -1.2610 C   0  0  0  0  0  0  0  0  0  0  0  0
   -2.0450   -0.5320   -0.5300 C   0  0  0  0  0  0  0  0  0  0  0  0
   -0.8920   -1.2020   -1.1720 C   0  0  0  0  0  0  0  0  0  0  0  0
    0.1400   -0.2770   -1.6870 C   0  0  0  0  0  0  0  0  0  0  0  0
    1.2490   -1.0640   -2.3320 C   0  0  0  0  0  0  0  0  0  0  0  0
    1.9480   -2.0060   -1.4050 C   0  0  0  0  0  0  0  0  0  0  0  0
    2.5920   -1.3220   -0.2110 C   0  0  0  0  0  0  0  0  0  0  0  0
    3.5980   -0.3340   -0.7160 C   0  0  0  0  0  0  0  0  0  0  0  0
    4.3240    0.4060    0.3810 C   0  0  1  0  0  0  0  0  0  0  0  0
    5.2950    1.3640   -0.2830 C   0  0  0  0  0  0  0  0  0  0  0  0
    3.4440    1.1840    1.2950 C   0  0  0  0  0  0  0  0  0  0  0  0
    5.1370   -0.5120    1.0860 O   0  0  0  0  0  0  0  0  0  0  0  0
  1  2  1  0
  2  3  1  0
  3  4  2  0
  3 10  1  0
  4  5  1  0
  5  6  1  0
  5  7  2  0
  7  8  1  0
  7  9  1  0
  9 10  2  0
 10 11  1  0
 11 12  1  0
 12 13  1  0
 13 14  1  0
 14 15  1  0
 15 16  1  0
 16 17  1  0
 17 18  1  6
 17 19  1  0
 17 20  1  0
M  END
