
     RDKit          3D

 26 29  0  0  0  0  0  0  0  0999 V2000
    5.2560   -0.0870    1.6070 C   0  0  0  0  0  0  0  0  0  0  0  0
    5.4050   -0.2910    0.1320 C   0  0  1  0  0  0  0  0  0  0  0  0
    5.3440    1.0810   -0.5560 C   0  0  0  0  0  0  0  0  0  0  0  0
    6.8480   -0.7750   -0.1110 C   0  0  0  0  0  0  0  0  0  0  0  0
    4.5050   -1.2520   -0.4550 C   0  0  0  0  0  0  0  0  0  0  0  0
    4.8440   -2.3720   -1.1100 N   0  0  0  0  0  0  0  0  0  0  0  0
    3.7940   -3.0000   -1.5050 N   0  0  0  0  0  0  0  0  0  0  0  0
    2.6570   -2.3180   -1.1260 C   0  0  0  0  0  0  0  0  0  0  0  0
    1.3920   -2.7500   -1.4100 O   0  0  0  0  0  0  0  0  0  0  0  0
    3.0890   -1.2150   -0.4640 C   0  0  0  0  0  0  0  0  0  0  0  0
    2.3830   -0.1360    0.1620 C   0  0  0  0  0  0  0  0  0  0  0  0
    1.1760    0.2440    0.3600 C   0  0  0  0  0  0  0  0  0  0  0  0
   -0.1510   -0.1750    0.0820 C   0  0  0  0  0  0  0  0  0  0  0  0
   -0.6400   -1.2150   -0.5480 N   0  0  0  0  0  0  0  0  0  0  0  0
   -1.9460   -1.2570   -0.5980 N   0  0  0  0  0  0  0  0  0  0  0  0
   -2.3610   -0.1690    0.0430 C   0  0  0  0  0  0  0  0  0  0  0  0
   -1.2940    0.5140    0.4700 N   0  0  0  0  0  0  0  0  0  0  0  0
   -1.5250    1.7410    1.1930 C   0  0  0  0  0  0  0  0  0  0  0  0
   -2.7590    1.7110    2.0560 C   0  0  0  0  0  0  0  0  0  0  0  0
   -3.7730    0.8030    1.6630 N   0  0  0  0  0  0  0  0  0  0  0  0
   -3.7330    0.3220    0.3190 C   0  0  2  0  0  0  0  0  0  0  0  0
   -4.7300   -0.8480    0.2640 C   0  0  0  0  0  0  0  0  0  0  0  0
   -5.4630   -0.8800   -1.0620 C   0  0  0  0  0  0  0  0  0  0  0  0
   -6.4280    0.2970   -1.1470 C   0  0  0  0  0  0  0  0  0  0  0  0
   -5.7160    1.4730   -0.5130 C   0  0  0  0  0  0  0  0  0  0  0  0
   -4.2160    1.3210   -0.6960 C   0  0  0  0  0  0  0  0  0  0  0  0
  2  1  1  1
  2  3  1  0
  2  4  1  0
  2  5  1  0
  5  6  1  0
  5 10  2  0
  6  7  1  0
  7  8  2  0
  8  9  1  0
  8 10  1  0
 10 11  1  0
 11 12  2  3
 12 13  1  0
 13 14  2  0
 13 17  1  0
 14 15  1  0
 15 16  2  0
 16 17  1  0
 16 21  1  0
 17 18  1  0
 18 19  1  0
 19 20  1  0
 20 21  1  0
 21 22  1  1
 21 26  1  0
 22 23  1  0
 23 24  1  0
 24 25  1  0
 25 26  1  0
M  END
