
     RDKit          3D

 20 20  0  0  0  0  0  0  0  0999 V2000
   -3.7870   -3.8980    1.2900 C   0  0  0  0  0  0  0  0  0  0  0  0
   -3.2800   -2.5000    1.0240 C   0  0  0  0  0  0  0  0  0  0  0  0
   -3.1970   -2.2790   -0.4720 C   0  0  0  0  0  0  0  0  0  0  0  0
   -2.7010   -0.9100   -0.7560 C   0  0  0  0  0  0  0  0  0  0  0  0
   -3.5640    0.1680   -0.8990 C   0  0  0  0  0  0  0  0  0  0  0  0
   -3.0720    1.4330   -1.1640 C   0  0  0  0  0  0  0  0  0  0  0  0
   -3.9470    2.6140   -1.3250 C   0  0  0  0  0  0  0  0  0  0  0  0
   -4.1790    3.3020   -0.0020 C   0  0  0  0  0  0  0  0  0  0  0  0
   -1.7070    1.6210   -1.2860 C   0  0  0  0  0  0  0  0  0  0  0  0
   -0.8370    0.5600   -1.1460 C   0  0  0  0  0  0  0  0  0  0  0  0
    0.6320    0.7370   -1.2730 C   0  0  0  0  0  0  0  0  0  0  0  0
    1.1360    1.0270   -0.0150 O   0  0  0  0  0  0  0  0  0  0  0  0
    2.5150    1.2110   -0.0300 C   0  0  1  0  0  0  0  0  0  0  0  0
    2.8260    2.6200    0.3640 C   0  0  0  0  0  0  0  0  0  0  0  0
    3.1590    0.1810    0.8340 C   0  0  1  0  0  0  0  0  0  0  0  0
    2.8210   -1.0800    0.3040 O   0  0  0  0  0  0  0  0  0  0  0  0
    4.6650    0.3510    0.8480 C   0  0  0  0  0  0  0  0  0  0  0  0
    5.3350   -0.6830    1.7160 C   0  0  0  0  0  0  0  0  0  0  0  0
    5.0650   -2.0910    1.2550 C   0  0  0  0  0  0  0  0  0  0  0  0
   -1.3510   -0.6960   -0.8820 C   0  0  0  0  0  0  0  0  0  0  0  0
  1  2  1  0
  2  3  1  0
  3  4  1  0
  4  5  2  0
  4 20  1  0
  5  6  1  0
  6  7  1  0
  6  9  2  0
  7  8  1  0
  9 10  1  0
 10 11  1  0
 10 20  2  0
 11 12  1  0
 12 13  1  0
 13 14  1  1
 13 15  1  0
 15 16  1  6
 15 17  1  0
 17 18  1  0
 18 19  1  0
M  END
