
     RDKit          3D

 20 20  0  0  0  0  0  0  0  0999 V2000
    5.4060   -0.7780    0.8750 C   0  0  0  0  0  0  0  0  0  0  0  0
    5.2920    0.5220    0.1420 C   0  0  0  0  0  0  0  0  0  0  0  0
    4.4730    0.4880   -1.1090 C   0  0  0  0  0  0  0  0  0  0  0  0
    3.0560    0.0650   -0.8640 C   0  0  0  0  0  0  0  0  0  0  0  0
    2.1940    0.0850   -2.1200 C   0  0  0  0  0  0  0  0  0  0  0  0
    0.8570   -0.3170   -1.7350 O   0  0  0  0  0  0  0  0  0  0  0  0
    0.1380    0.4990   -0.9140 C   0  0  0  0  0  0  0  0  0  0  0  0
    0.6230    1.7020   -0.5410 C   0  0  0  0  0  0  0  0  0  0  0  0
   -0.1390    2.5080    0.3130 C   0  0  0  0  0  0  0  0  0  0  0  0
   -1.3530    2.0600    0.7480 C   0  0  0  0  0  0  0  0  0  0  0  0
   -2.1260    2.8860    1.6850 C   0  0  1  0  0  0  0  0  0  0  0  0
   -3.4190    2.2680    2.1270 C   0  0  0  0  0  0  0  0  0  0  0  0
   -1.3640    3.2140    2.8260 O   0  0  0  0  0  0  0  0  0  0  0  0
   -1.8230    0.7960    0.3260 C   0  0  0  0  0  0  0  0  0  0  0  0
   -1.1200   -0.0100   -0.4950 C   0  0  0  0  0  0  0  0  0  0  0  0
   -1.5460   -1.2620   -1.0840 C   0  0  1  0  0  0  0  0  0  0  0  0
   -0.8740   -2.4130   -0.2660 C   0  0  0  0  0  0  0  0  0  0  0  0
   -3.0110   -1.5900   -1.1170 C   0  0  0  0  0  0  0  0  0  0  0  0
   -3.7820   -1.8610    0.0900 C   0  0  0  0  0  0  0  0  0  0  0  0
   -3.4250   -3.1010    0.9090 C   0  0  0  0  0  0  0  0  0  0  0  0
  1  2  1  0
  2  3  1  0
  3  4  1  0
  4  5  1  0
  5  6  1  0
  6  7  1  0
  7  8  2  0
  7 15  1  0
  8  9  1  0
  9 10  2  0
 10 11  1  0
 10 14  1  0
 11 12  1  1
 11 13  1  0
 14 15  2  0
 15 16  1  0
 16 17  1  1
 16 18  1  0
 18 19  1  0
 19 20  1  0
M  END
