
     RDKit          3D

 14 13  0  0  0  0  0  0  0  0999 V2000
    3.8510   -2.0380    2.5810 C   0  0  0  0  0  0  0  0  0  0  0  0
    2.9540   -1.3960    1.8500 C   0  0  0  0  0  0  0  0  0  0  0  0
    3.3360   -0.4750    0.7940 C   0  0  0  0  0  0  0  0  0  0  0  0
    4.8040   -0.2770    0.5610 C   0  0  0  0  0  0  0  0  0  0  0  0
    2.4760    0.1770    0.0490 C   0  0  0  0  0  0  0  0  0  0  0  0
    1.0330    0.0670    0.1810 C   0  0  0  0  0  0  0  0  0  0  0  0
    0.2190    0.7370   -0.5840 C   0  0  0  0  0  0  0  0  0  0  0  0
   -1.2350    0.7030   -0.5420 C   0  0  0  0  0  0  0  0  0  0  0  0
   -1.9670    1.4270   -1.3560 C   0  0  0  0  0  0  0  0  0  0  0  0
   -3.3940    1.4800   -1.4070 C   0  0  0  0  0  0  0  0  0  0  0  0
   -3.9670    2.2860   -2.3240 C   0  0  0  0  0  0  0  0  0  0  0  0
   -4.3200    0.7430   -0.5380 C   0  0  0  0  0  0  0  0  0  0  0  0
   -1.8460   -0.1180    0.3800 O   0  0  0  0  0  0  0  0  0  0  0  0
   -2.0380   -1.5110    0.2190 C   0  0  0  0  0  0  0  0  0  0  0  0
  1  2  2  0
  2  3  1  0
  3  4  1  0
  3  5  2  3
  5  6  1  0
  6  7  2  3
  7  8  1  0
  8  9  2  3
  8 13  1  0
  9 10  1  0
 10 11  2  0
 10 12  1  0
 13 14  1  0
M  END
