
     RDKit          3D

 10 11  0  0  0  0  0  0  0  0999 V2000
    2.8970    0.3760    0.1040 C   0  0  0  0  0  0  0  0  0  0  0  0
    1.4360    0.2170    0.0540 N   0  0  0  0  0  0  0  0  0  0  0  0
    0.7380   -0.9090   -0.1650 C   0  0  0  0  0  0  0  0  0  0  0  0
   -0.6160   -0.6490   -0.1350 C   0  0  0  0  0  0  0  0  0  0  0  0
   -1.8830   -1.0880   -0.2340 N   0  0  0  0  0  0  0  0  0  0  0  0
   -2.7340   -0.0610   -0.0540 C   0  0  0  0  0  0  0  0  0  0  0  0
   -4.0090   -0.1180   -0.0810 O   0  0  0  0  0  0  0  0  0  0  0  0
   -2.0170    1.0520    0.1640 N   0  0  0  0  0  0  0  0  0  0  0  0
   -0.7080    0.7110    0.1180 C   0  0  0  0  0  0  0  0  0  0  0  0
    0.5560    1.1830    0.2230 N   0  0  0  0  0  0  0  0  0  0  0  0
  1  2  1  0
  2  3  1  0
  2 10  1  0
  3  4  2  0
  4  5  1  0
  4  9  1  0
  5  6  1  0
  6  7  2  0
  6  8  1  0
  8  9  1  0
  9 10  2  0
M  END
