
     RDKit          3D

 10 11  0  0  0  0  0  0  0  0999 V2000
    1.8060   -2.1070   -0.3400 O   0  0  0  0  0  0  0  0  0  0  0  0
    1.3810   -0.9560   -0.1390 C   0  0  0  0  0  0  0  0  0  0  0  0
    2.2770    0.0270    0.0650 N   0  0  0  0  0  0  0  0  0  0  0  0
    1.8020    1.2440    0.2760 N   0  0  0  0  0  0  0  0  0  0  0  0
    0.4790    1.5040    0.2890 C   0  0  0  0  0  0  0  0  0  0  0  0
   -0.4710    0.5240    0.0840 C   0  0  0  0  0  0  0  0  0  0  0  0
   -1.7910    0.4400    0.0340 N   0  0  0  0  0  0  0  0  0  0  0  0
   -2.1990   -0.8190   -0.2080 C   0  0  0  0  0  0  0  0  0  0  0  0
   -1.0690   -1.5430   -0.3110 N   0  0  0  0  0  0  0  0  0  0  0  0
    0.0160   -0.7530   -0.1380 C   0  0  0  0  0  0  0  0  0  0  0  0
  1  2  2  0
  2  3  1  0
  2 10  1  0
  3  4  1  0
  4  5  2  0
  5  6  1  0
  6  7  1  0
  6 10  2  0
  7  8  1  0
  8  9  2  0
  9 10  1  0
M  END
