
     RDKit          3D

 10 11  0  0  0  0  0  0  0  0999 V2000
    1.9030    2.2400    0.2340 O   0  0  0  0  0  0  0  0  0  0  0  0
    1.4960    1.0530    0.1240 C   0  0  0  0  0  0  0  0  0  0  0  0
    2.2440   -0.0630    0.0480 N   0  0  0  0  0  0  0  0  0  0  0  0
    1.4420   -1.1100   -0.0590 N   0  0  0  0  0  0  0  0  0  0  0  0
    0.1500   -0.7230   -0.0570 C   0  0  0  0  0  0  0  0  0  0  0  0
   -1.0270   -1.4070   -0.1430 N   0  0  0  0  0  0  0  0  0  0  0  0
   -2.1470   -0.6620   -0.1070 C   0  0  0  0  0  0  0  0  0  0  0  0
   -2.1340    0.7110    0.0090 C   0  0  0  0  0  0  0  0  0  0  0  0
   -0.9600    1.3660    0.0920 N   0  0  0  0  0  0  0  0  0  0  0  0
    0.1630    0.6600    0.0590 C   0  0  0  0  0  0  0  0  0  0  0  0
  1  2  2  0
  2  3  1  0
  2 10  1  0
  3  4  1  0
  4  5  1  0
  5  6  2  0
  5 10  1  0
  6  7  1  0
  7  8  2  0
  8  9  1  0
  9 10  2  0
M  END
