
     RDKit          3D

 13 12  0  0  0  0  0  0  0  0999 V2000
    1.2300   -0.2560   -1.7870 O   0  0  0  0  0  0  0  0  0  0  0  0
    1.1690   -0.2870   -0.5350 C   0  0  0  0  0  0  0  0  0  0  0  0
    2.3120   -0.6190    0.1660 O   0  0  0  0  0  0  0  0  0  0  0  0
   -0.0620    0.0160    0.1980 C   0  0  2  0  0  0  0  0  0  0  0  0
    0.1730   -0.0980    1.5660 O   0  0  0  0  0  0  0  0  0  0  0  0
   -1.2040   -0.9060   -0.1550 C   0  0  1  0  0  0  0  0  0  0  0  0
   -1.5290   -0.8410   -1.4950 F   0  0  0  0  0  0  0  0  0  0  0  0
   -0.9490   -2.1760    0.2830 F   0  0  0  0  0  0  0  0  0  0  0  0
   -2.3230   -0.4400    0.5430 F   0  0  0  0  0  0  0  0  0  0  0  0
   -0.5510    1.4290   -0.0380 C   0  0  2  0  0  0  0  0  0  0  0  0
    0.4190    2.3220    0.3730 F   0  0  0  0  0  0  0  0  0  0  0  0
   -1.6440    1.6210    0.7760 F   0  0  0  0  0  0  0  0  0  0  0  0
   -0.9450    1.6430   -1.3280 F   0  0  0  0  0  0  0  0  0  0  0  0
  1  2  2  0
  2  3  1  0
  2  4  1  0
  4  5  1  1
  4  6  1  0
  4 10  1  0
  6  7  1  6
  6  8  1  0
  6  9  1  0
 10 11  1  1
 10 12  1  0
 10 13  1  0
M  END
