
     RDKit          3D

 10 11  0  0  0  0  0  0  0  0999 V2000
    2.6160    0.1100   -0.2290 C   0  0  0  0  0  0  0  0  0  0  0  0
    1.2400    0.3600    0.1970 N   0  0  0  0  0  0  0  0  0  0  0  0
    0.8390    1.2820    1.0490 N   0  0  0  0  0  0  0  0  0  0  0  0
   -0.5050    1.2300    1.2100 C   0  0  0  0  0  0  0  0  0  0  0  0
   -0.9850    0.2070    0.4060 C   0  0  0  0  0  0  0  0  0  0  0  0
   -2.1000   -0.4880   -0.0190 C   0  0  0  0  0  0  0  0  0  0  0  0
   -3.4170   -0.2830    0.3590 O   0  0  0  0  0  0  0  0  0  0  0  0
   -1.6400   -1.4090   -0.8800 N   0  0  0  0  0  0  0  0  0  0  0  0
   -0.3140   -1.3050   -0.9930 N   0  0  0  0  0  0  0  0  0  0  0  0
    0.1360   -0.3100   -0.2090 C   0  0  0  0  0  0  0  0  0  0  0  0
  1  2  1  0
  2  3  1  0
  2 10  1  0
  3  4  2  0
  4  5  1  0
  5  6  1  0
  5 10  2  0
  6  7  1  0
  6  8  2  0
  8  9  1  0
  9 10  1  0
M  END
