
     RDKit          3D

 10 11  0  0  0  0  0  0  0  0999 V2000
    1.6190   -1.8220    0.8190 O   0  0  0  0  0  0  0  0  0  0  0  0
    0.5490   -0.9980    0.4360 C   0  0  0  0  0  0  0  0  0  0  0  0
   -0.6780   -1.4630    0.4250 C   0  0  0  0  0  0  0  0  0  0  0  0
   -1.7580   -0.6540    0.0460 N   0  0  0  0  0  0  0  0  0  0  0  0
   -1.6060    0.7080   -0.3490 C   0  0  0  0  0  0  0  0  0  0  0  0
   -0.2150    1.1570   -0.3130 C   0  0  0  0  0  0  0  0  0  0  0  0
    0.3750    2.3610   -0.6050 N   0  0  0  0  0  0  0  0  0  0  0  0
    1.6650    2.2900   -0.4240 N   0  0  0  0  0  0  0  0  0  0  0  0
    2.0000    1.0960   -0.0200 N   0  0  0  0  0  0  0  0  0  0  0  0
    0.8520    0.3760    0.0570 C   0  0  0  0  0  0  0  0  0  0  0  0
  1  2  1  0
  2  3  2  0
  2 10  1  0
  3  4  1  0
  4  5  1  0
  5  6  1  0
  6  7  1  0
  6 10  2  0
  7  8  2  0
  8  9  1  0
  9 10  1  0
M  END
