
     RDKit          3D

 14 13  0  0  0  0  0  0  0  0999 V2000
   -1.2270    0.6160    2.2970 C   0  0  0  0  0  0  0  0  0  0  0  0
   -1.6290    0.9600    1.1060 C   0  0  0  0  0  0  0  0  0  0  0  0
   -1.1890    0.6520   -0.2150 C   0  0  0  0  0  0  0  0  0  0  0  0
   -1.9920    1.1590   -1.1830 C   0  0  0  0  0  0  0  0  0  0  0  0
   -3.1930    1.9390   -0.8900 C   0  0  0  0  0  0  0  0  0  0  0  0
   -0.1820   -0.2840   -0.5980 C   0  0  0  0  0  0  0  0  0  0  0  0
   -0.5650   -0.8990   -2.0000 C   0  0  0  0  0  0  0  0  0  0  0  0
    0.8480   -0.8420   -0.0850 C   0  0  0  0  0  0  0  0  0  0  0  0
    1.5650   -1.8660   -1.0350 C   0  0  0  0  0  0  0  0  0  0  0  0
    1.4210   -3.2470   -0.5120 C   0  0  0  0  0  0  0  0  0  0  0  0
    1.7670   -0.5160    0.9580 C   0  0  0  0  0  0  0  0  0  0  0  0
    2.5890   -1.4780    1.3030 O   0  0  0  0  0  0  0  0  0  0  0  0
    1.9660    0.7130    1.6880 C   0  0  0  0  0  0  0  0  0  0  0  0
    1.5780    1.9800    0.9530 C   0  0  0  0  0  0  0  0  0  0  0  0
  1  2  2  0
  2  3  1  0
  3  4  2  3
  3  6  1  0
  4  5  1  0
  6  7  1  0
  6  8  2  3
  8  9  1  0
  8 11  1  0
  9 10  1  0
 11 12  2  0
 11 13  1  0
 13 14  1  0
M  END
