
     RDKit          3D

 10 11  0  0  0  0  0  0  0  0999 V2000
    3.1820    0.6050    0.0090 O   0  0  0  0  0  0  0  0  0  0  0  0
    1.9320    0.3780    0.0050 C   0  0  0  0  0  0  0  0  0  0  0  0
    0.9440    1.2870   -0.0770 N   0  0  0  0  0  0  0  0  0  0  0  0
   -0.2580    0.6540   -0.0510 C   0  0  0  0  0  0  0  0  0  0  0  0
   -1.5510    1.0860   -0.1030 C   0  0  0  0  0  0  0  0  0  0  0  0
   -2.5300    0.1670   -0.0530 N   0  0  0  0  0  0  0  0  0  0  0  0
   -2.3050   -1.1230    0.0430 N   0  0  0  0  0  0  0  0  0  0  0  0
   -1.0540   -1.6180    0.0980 C   0  0  0  0  0  0  0  0  0  0  0  0
   -0.0070   -0.6950    0.0500 C   0  0  0  0  0  0  0  0  0  0  0  0
    1.3340   -0.8160    0.0800 N   0  0  0  0  0  0  0  0  0  0  0  0
  1  2  2  0
  2  3  1  0
  2 10  1  0
  3  4  1  0
  4  5  2  0
  4  9  1  0
  5  6  1  0
  6  7  2  0
  7  8  1  0
  8  9  2  0
  9 10  1  0
M  END
