
     RDKit          3D

 20 19  0  0  0  0  0  0  0  0999 V2000
    5.1970   -3.4580   -0.7820 C   0  0  0  0  0  0  0  0  0  0  0  0
    3.9630   -2.8330   -1.1670 O   0  0  0  0  0  0  0  0  0  0  0  0
    3.3770   -1.8610   -0.3710 C   0  0  0  0  0  0  0  0  0  0  0  0
    3.9860   -1.5730    0.6880 O   0  0  0  0  0  0  0  0  0  0  0  0
    2.0950   -1.2320   -0.8050 C   0  0  0  0  0  0  0  0  0  0  0  0
    1.7240   -0.0990    0.0460 N   0  0  0  0  0  0  0  0  0  0  0  0
    0.4240    0.4070   -0.3690 C   0  0  0  0  0  0  0  0  0  0  0  0
   -0.7110   -0.5250   -0.0390 C   0  0  0  0  0  0  0  0  0  0  0  0
   -2.0150   -0.0230   -0.4390 N   0  0  2  0  0  0  0  0  0  0  0  0
   -2.4590    0.9140    0.5340 C   0  0  1  0  0  0  0  0  0  0  0  0
   -3.4540    1.9240   -0.0640 C   0  0  0  0  0  0  0  0  0  0  0  0
   -2.9400    0.3670    1.8420 C   0  0  0  0  0  0  0  0  0  0  0  0
   -2.9120   -1.0770   -0.7940 C   0  0  2  0  0  0  0  0  0  0  0  0
   -4.3640   -0.8120   -0.6420 C   0  0  0  0  0  0  0  0  0  0  0  0
   -2.5370   -2.4180   -0.1860 C   0  0  0  0  0  0  0  0  0  0  0  0
    2.7050    0.9370   -0.2400 C   0  0  0  0  0  0  0  0  0  0  0  0
    2.5560    2.1430    0.5980 C   0  0  0  0  0  0  0  0  0  0  0  0
    1.6820    2.1630    1.4970 O   0  0  0  0  0  0  0  0  0  0  0  0
    3.3450    3.2690    0.4400 O   0  0  0  0  0  0  0  0  0  0  0  0
    3.2040    4.4220    1.2450 C   0  0  0  0  0  0  0  0  0  0  0  0
  1  2  1  0
  2  3  1  0
  3  4  2  0
  3  5  1  0
  5  6  1  0
  6  7  1  0
  6 16  1  0
  7  8  1  0
  9  8  1  1
  9 10  1  0
  9 13  1  0
 10 11  1  6
 10 12  1  0
 13 14  1  1
 13 15  1  0
 16 17  1  0
 17 18  2  0
 17 19  1  0
 19 20  1  0
M  CHG  1   9   1
M  END
