
     RDKit          3D

 20 22  0  0  0  0  0  0  0  0999 V2000
   -3.6270   -2.8620    0.7990 O   0  0  0  0  0  0  0  0  0  0  0  0
   -2.4530   -3.4110    0.2590 C   0  0  0  0  0  0  0  0  0  0  0  0
   -1.6900   -2.2650   -0.3730 C   0  0  0  0  0  0  0  0  0  0  0  0
   -1.4080   -1.3310    0.6310 O   0  0  0  0  0  0  0  0  0  0  0  0
   -0.7150   -0.1550    0.4100 C   0  0  0  0  0  0  0  0  0  0  0  0
   -1.4600    0.9660    0.0360 C   0  0  0  0  0  0  0  0  0  0  0  0
   -0.8490    2.1740   -0.2030 C   0  0  0  0  0  0  0  0  0  0  0  0
    0.5290    2.2510   -0.0640 C   0  0  0  0  0  0  0  0  0  0  0  0
    1.2390    1.1350    0.3050 C   0  0  0  0  0  0  0  0  0  0  0  0
    0.6440   -0.0830    0.5500 C   0  0  0  0  0  0  0  0  0  0  0  0
    1.2700   -1.3320    0.9600 C   0  0  2  0  0  0  0  0  0  0  0  0
    1.8100   -1.2380    2.2710 O   0  0  0  0  0  0  0  0  0  0  0  0
    2.3370   -1.8230    0.0270 C   0  0  0  0  0  0  0  0  0  0  0  0
    2.9380   -0.7240   -0.7990 C   0  0  0  0  0  0  0  0  0  0  0  0
    3.5640    0.2820    0.1270 C   0  0  0  0  0  0  0  0  0  0  0  0
    2.6780    1.4730    0.3760 C   0  0  0  0  0  0  0  0  0  0  0  0
   -1.8970    3.1630   -0.5790 C   0  0  2  0  0  0  0  0  0  0  0  0
   -2.1960    3.9370    0.5320 O   0  0  0  0  0  0  0  0  0  0  0  0
   -3.0390    2.2780   -0.9900 C   0  0  0  0  0  0  0  0  0  0  0  0
   -2.8280    1.1280   -0.1640 O   0  0  0  0  0  0  0  0  0  0  0  0
  1  2  1  0
  2  3  1  0
  3  4  1  0
  4  5  1  0
  5  6  2  0
  5 10  1  0
  6  7  1  0
  6 20  1  0
  7  8  2  0
  7 17  1  0
  8  9  1  0
  9 10  2  0
  9 16  1  0
 10 11  1  0
 11 12  1  1
 11 13  1  0
 13 14  1  0
 14 15  1  0
 15 16  1  0
 17 18  1  1
 17 19  1  0
 19 20  1  0
M  END
