
     RDKit          3D

 20 19  0  0  0  0  0  0  0  0999 V2000
    0.8940    5.8220    0.0280 C   0  0  0  0  0  0  0  0  0  0  0  0
    1.1070    4.4500   -0.5390 C   0  0  0  0  0  0  0  0  0  0  0  0
    0.7290    3.5140    0.4820 O   0  0  0  0  0  0  0  0  0  0  0  0
    0.8480    2.1710    0.1630 C   0  0  0  0  0  0  0  0  0  0  0  0
    1.2660    1.8290   -0.9640 O   0  0  0  0  0  0  0  0  0  0  0  0
    0.4780    1.1550    1.1550 C   0  0  0  0  0  0  0  0  0  0  0  0
    0.6770   -0.2080    0.6900 N   0  0  0  0  0  0  0  0  0  0  0  0
    2.0410   -0.5410    0.5420 C   0  0  0  0  0  0  0  0  0  0  0  0
    2.2250   -1.9480    0.0460 C   0  0  0  0  0  0  0  0  0  0  0  0
    3.6520   -2.2810   -0.0550 N   0  0  2  0  0  0  0  0  0  0  0  0
    4.4320   -1.1000   -0.3560 C   0  0  0  0  0  0  0  0  0  0  0  0
    3.8040   -3.2620   -1.1120 C   0  0  0  0  0  0  0  0  0  0  0  0
   -0.2510   -0.6000   -0.2990 C   0  0  0  0  0  0  0  0  0  0  0  0
   -1.6100   -0.7190    0.3000 C   0  0  0  0  0  0  0  0  0  0  0  0
   -1.7620   -0.6360    1.5270 O   0  0  0  0  0  0  0  0  0  0  0  0
   -2.7420   -0.9240   -0.4810 O   0  0  0  0  0  0  0  0  0  0  0  0
   -4.0160   -1.0310    0.1180 C   0  0  1  0  0  0  0  0  0  0  0  0
   -5.0160   -1.2450   -0.9990 C   0  0  0  0  0  0  0  0  0  0  0  0
   -4.1420   -2.1990    1.0500 C   0  0  0  0  0  0  0  0  0  0  0  0
   -4.3780    0.2750    0.8190 C   0  0  0  0  0  0  0  0  0  0  0  0
  1  2  1  0
  2  3  1  0
  3  4  1  0
  4  5  2  0
  4  6  1  0
  6  7  1  0
  7  8  1  0
  7 13  1  0
  8  9  1  0
  9 10  1  0
 10 11  1  6
 10 12  1  0
 13 14  1  0
 14 15  2  0
 14 16  1  0
 16 17  1  0
 17 18  1  6
 17 19  1  0
 17 20  1  0
M  CHG  1  10   1
M  END
