
     RDKit          3D

 24 26  0  0  0  0  0  0  0  0999 V2000
   -4.4490    2.5760    1.5420 C   0  0  0  0  0  0  0  0  0  0  0  0
   -5.1490    1.3700    1.5260 O   0  0  0  0  0  0  0  0  0  0  0  0
   -4.6400    0.2190    0.9470 C   0  0  0  0  0  0  0  0  0  0  0  0
   -5.4420   -0.9070    0.9940 C   0  0  0  0  0  0  0  0  0  0  0  0
   -5.0350   -2.0990    0.4480 C   0  0  0  0  0  0  0  0  0  0  0  0
   -3.8120   -2.1800   -0.1560 C   0  0  0  0  0  0  0  0  0  0  0  0
   -3.0020   -1.0470   -0.2040 C   0  0  0  0  0  0  0  0  0  0  0  0
   -1.7260   -1.1990   -0.8760 C   0  0  0  0  0  0  0  0  0  0  0  0
   -1.6550   -2.0650   -1.9500 C   0  0  0  0  0  0  0  0  0  0  0  0
   -0.4600   -2.2470   -2.5980 C   0  0  0  0  0  0  0  0  0  0  0  0
    0.6440   -1.5420   -2.1380 C   0  0  0  0  0  0  0  0  0  0  0  0
    0.6000   -0.6730   -1.0690 C   0  0  0  0  0  0  0  0  0  0  0  0
    1.8540    0.0040   -0.6880 C   0  0  2  0  0  0  0  0  0  0  0  0
    2.1870    1.1130   -1.6730 C   0  0  0  0  0  0  0  0  0  0  0  0
    2.9730   -1.0360   -0.6110 C   0  0  0  0  0  0  0  0  0  0  0  0
    4.2370   -0.2570   -0.3950 C   0  0  0  0  0  0  0  0  0  0  0  0
    5.2150   -0.4180   -1.1370 O   0  0  0  0  0  0  0  0  0  0  0  0
    4.2090    0.6470    0.7030 N   0  0  0  0  0  0  0  0  0  0  0  0
    5.4720    1.0960    1.2630 C   0  0  0  0  0  0  0  0  0  0  0  0
    3.0700    1.0450    1.1720 C   0  0  0  0  0  0  0  0  0  0  0  0
    3.0980    1.9510    2.2730 N   0  0  0  0  0  0  0  0  0  0  0  0
    1.8280    0.6070    0.6230 N   0  0  0  0  0  0  0  0  0  0  0  0
   -0.6170   -0.5100   -0.4380 C   0  0  0  0  0  0  0  0  0  0  0  0
   -3.4080    0.1470    0.3430 C   0  0  0  0  0  0  0  0  0  0  0  0
  1  2  1  0
  2  3  1  0
  3  4  2  0
  3 24  1  0
  4  5  1  0
  5  6  2  0
  6  7  1  0
  7  8  1  0
  7 24  2  0
  8  9  2  0
  8 23  1  0
  9 10  1  0
 10 11  2  0
 11 12  1  0
 12 13  1  0
 12 23  2  0
 13 14  1  6
 13 15  1  0
 13 22  1  0
 15 16  1  0
 16 17  2  0
 16 18  1  0
 18 19  1  0
 18 20  2  0
 20 21  1  0
 20 22  1  0
M  CHG  1  18   1
M  END
