
     RDKit          3D

 20 20  0  0  0  0  0  0  0  0999 V2000
    5.3800   -1.2320   -0.7300 C   0  0  0  0  0  0  0  0  0  0  0  0
    6.4080   -0.3820   -0.0460 C   0  0  0  0  0  0  0  0  0  0  0  0
    6.2820    1.0870   -0.1700 C   0  0  0  0  0  0  0  0  0  0  0  0
    5.1640    1.7230    0.3190 O   0  0  0  0  0  0  0  0  0  0  0  0
    3.8560    1.6670   -0.0660 C   0  0  0  0  0  0  0  0  0  0  0  0
    3.4970    0.9580   -1.0230 O   0  0  0  0  0  0  0  0  0  0  0  0
    2.7940    2.4510    0.6390 C   0  0  0  0  0  0  0  0  0  0  0  0
    1.5300    2.2410    0.0770 O   0  0  0  0  0  0  0  0  0  0  0  0
    0.9020    1.0120   -0.0030 C   0  0  0  0  0  0  0  0  0  0  0  0
    1.5340    0.0240    0.4720 O   0  0  0  0  0  0  0  0  0  0  0  0
   -0.4260    0.9290   -0.6190 C   0  0  0  0  0  0  0  0  0  0  0  0
   -0.9920   -0.3670   -0.6680 N   0  0  0  0  0  0  0  0  0  0  0  0
   -0.3590   -1.3040   -1.5320 C   0  0  0  0  0  0  0  0  0  0  0  0
   -1.5420   -0.8860    0.5360 C   0  0  0  0  0  0  0  0  0  0  0  0
   -2.7770   -0.1430    0.9580 C   0  0  0  0  0  0  0  0  0  0  0  0
   -3.7920   -0.2210   -0.0480 N   0  0  2  0  0  0  0  0  0  0  0  0
   -4.8380    0.7500    0.2210 C   0  0  0  0  0  0  0  0  0  0  0  0
   -5.5670    0.1360    1.3990 C   0  0  0  0  0  0  0  0  0  0  0  0
   -5.5310   -1.3340    1.0310 C   0  0  0  0  0  0  0  0  0  0  0  0
   -4.4790   -1.4760   -0.0460 C   0  0  0  0  0  0  0  0  0  0  0  0
  1  2  1  0
  2  3  1  0
  3  4  1  0
  4  5  1  0
  5  6  2  0
  5  7  1  0
  7  8  1  0
  8  9  1  0
  9 10  2  0
  9 11  1  0
 11 12  1  0
 12 13  1  0
 12 14  1  0
 14 15  1  0
 16 15  1  1
 16 17  1  0
 16 20  1  0
 17 18  1  0
 18 19  1  0
 19 20  1  0
M  CHG  1  16   1
M  END
