
     RDKit          3D

 20 22  0  0  0  0  0  0  0  0999 V2000
   -3.1150    2.2160    2.4190 O   0  0  0  0  0  0  0  0  0  0  0  0
   -3.1340    1.2460    1.5800 C   0  0  0  0  0  0  0  0  0  0  0  0
   -4.2130    0.5590    1.3880 O   0  0  0  0  0  0  0  0  0  0  0  0
   -4.2890   -0.4330    0.5540 C   0  0  0  0  0  0  0  0  0  0  0  0
   -5.2830   -1.3280    0.1510 C   0  0  0  0  0  0  0  0  0  0  0  0
   -4.7560   -2.1350   -0.7510 O   0  0  0  0  0  0  0  0  0  0  0  0
   -3.4800   -1.8130   -0.9520 C   0  0  0  0  0  0  0  0  0  0  0  0
   -3.1540   -0.7450   -0.1460 C   0  0  0  0  0  0  0  0  0  0  0  0
   -1.9570   -0.0350    0.0200 C   0  0  0  0  0  0  0  0  0  0  0  0
   -1.9100    1.0070    0.9110 C   0  0  0  0  0  0  0  0  0  0  0  0
   -0.7910    1.8750    1.1350 C   0  0  0  0  0  0  0  0  0  0  0  0
    0.4660    1.8590    0.9910 C   0  0  0  0  0  0  0  0  0  0  0  0
    1.3780    0.8780    0.5130 C   0  0  0  0  0  0  0  0  0  0  0  0
    1.0770   -0.3750    0.0920 O   0  0  0  0  0  0  0  0  0  0  0  0
    2.7090    1.1680    0.4540 C   0  0  0  0  0  0  0  0  0  0  0  0
    3.7010    0.2310   -0.0180 C   0  0  0  0  0  0  0  0  0  0  0  0
    3.5140   -0.6660   -1.0610 C   0  0  0  0  0  0  0  0  0  0  0  0
    4.6790   -1.3890   -1.2160 C   0  0  0  0  0  0  0  0  0  0  0  0
    5.5330   -0.8810   -0.2370 C   0  0  0  0  0  0  0  0  0  0  0  0
    4.9270    0.0610    0.4410 O   0  0  0  0  0  0  0  0  0  0  0  0
  1  2  2  0
  2  3  1  0
  2 10  1  0
  3  4  1  0
  4  5  2  0
  4  8  1  0
  5  6  1  0
  6  7  1  0
  7  8  2  0
  8  9  1  0
  9 10  2  0
 10 11  1  0
 11 12  2  3
 12 13  1  0
 13 14  1  0
 13 15  2  3
 15 16  1  0
 16 17  2  0
 16 20  1  0
 17 18  1  0
 18 19  2  0
 19 20  1  0
M  END
