
     RDKit          3D

 20 21  0  0  0  0  0  0  0  0999 V2000
    4.9610    0.9390   -1.7270 C   0  0  0  0  0  0  0  0  0  0  0  0
    4.4580    0.4900   -0.6270 C   0  0  0  0  0  0  0  0  0  0  0  0
    3.0810    0.1300   -0.3530 C   0  0  0  0  0  0  0  0  0  0  0  0
    2.0570    0.0800   -1.2550 C   0  0  0  0  0  0  0  0  0  0  0  0
    2.3370    0.3940   -2.5820 O   0  0  0  0  0  0  0  0  0  0  0  0
    0.8090   -0.2570   -0.9100 O   0  0  0  0  0  0  0  0  0  0  0  0
    0.5130   -0.5580    0.3260 C   0  0  0  0  0  0  0  0  0  0  0  0
   -0.7980   -0.9010    0.6210 C   0  0  0  0  0  0  0  0  0  0  0  0
   -1.8450   -0.9260   -0.4030 C   0  0  0  0  0  0  0  0  0  0  0  0
   -2.3450    0.4500   -0.7670 C   0  0  1  0  0  0  0  0  0  0  0  0
   -3.4290    0.3650   -1.8340 C   0  0  0  0  0  0  0  0  0  0  0  0
   -3.0260    1.1240    0.4190 C   0  0  0  0  0  0  0  0  0  0  0  0
   -1.3600    1.2960   -1.2270 O   0  0  0  0  0  0  0  0  0  0  0  0
   -1.1060   -1.2210    1.9310 C   0  0  0  0  0  0  0  0  0  0  0  0
   -2.4060   -1.5630    2.2330 O   0  0  0  0  0  0  0  0  0  0  0  0
   -0.1740   -1.2130    2.9430 C   0  0  0  0  0  0  0  0  0  0  0  0
    1.1240   -0.8700    2.6320 C   0  0  0  0  0  0  0  0  0  0  0  0
    1.4640   -0.5460    1.3380 C   0  0  0  0  0  0  0  0  0  0  0  0
    2.7420   -0.1960    0.9620 C   0  0  0  0  0  0  0  0  0  0  0  0
    3.6400   -0.1720    1.8550 O   0  0  0  0  0  0  0  0  0  0  0  0
  1  2  2  0
  2  3  1  0
  3  4  2  0
  3 19  1  0
  4  5  1  0
  4  6  1  0
  6  7  1  0
  7  8  2  0
  7 18  1  0
  8  9  1  0
  8 14  1  0
  9 10  1  0
 10 11  1  6
 10 12  1  0
 10 13  1  0
 14 15  1  0
 14 16  2  0
 16 17  1  0
 17 18  2  0
 18 19  1  0
 19 20  2  0
M  END
