
     RDKit          3D

 20 22  0  0  0  0  0  0  0  0999 V2000
   -4.7000    2.1660   -0.1780 O   0  0  0  0  0  0  0  0  0  0  0  0
   -3.9200    1.0270   -0.1100 C   0  0  0  0  0  0  0  0  0  0  0  0
   -4.4750   -0.2210    0.0960 C   0  0  0  0  0  0  0  0  0  0  0  0
   -3.6920   -1.3560    0.1630 C   0  0  0  0  0  0  0  0  0  0  0  0
   -2.3080   -1.2970    0.0270 C   0  0  0  0  0  0  0  0  0  0  0  0
   -1.5910   -2.4810    0.1090 O   0  0  0  0  0  0  0  0  0  0  0  0
   -1.7430   -0.0560   -0.1790 C   0  0  0  0  0  0  0  0  0  0  0  0
   -0.2820    0.0260   -0.3340 C   0  0  1  0  0  0  0  0  0  0  0  0
    0.3640   -0.4660    0.8060 O   0  0  0  0  0  0  0  0  0  0  0  0
    0.1520   -0.6980   -1.5670 C   0  0  0  0  0  0  0  0  0  0  0  0
    1.4130   -1.2910   -1.2900 O   0  0  0  0  0  0  0  0  0  0  0  0
    2.4590   -0.6090   -0.6360 C   0  0  0  0  0  0  0  0  0  0  0  0
    3.5340   -1.4430   -0.4240 C   0  0  0  0  0  0  0  0  0  0  0  0
    4.6460   -0.9310    0.2060 C   0  0  0  0  0  0  0  0  0  0  0  0
    4.7230    0.3810    0.6320 C   0  0  0  0  0  0  0  0  0  0  0  0
    3.6550    1.2140    0.4230 C   0  0  0  0  0  0  0  0  0  0  0  0
    2.5430    0.7000   -0.2080 C   0  0  0  0  0  0  0  0  0  0  0  0
    1.5200    1.6470   -0.3650 O   0  0  0  0  0  0  0  0  0  0  0  0
    0.1130    1.5060   -0.3930 C   0  0  0  0  0  0  0  0  0  0  0  0
   -2.5510    1.0860   -0.2450 C   0  0  0  0  0  0  0  0  0  0  0  0
  1  2  1  0
  2  3  2  0
  2 20  1  0
  3  4  1  0
  4  5  2  0
  5  6  1  0
  5  7  1  0
  7  8  1  0
  7 20  2  0
  8  9  1  1
  8 10  1  0
  8 19  1  0
 10 11  1  0
 11 12  1  0
 12 13  2  0
 12 17  1  0
 13 14  1  0
 14 15  2  0
 15 16  1  0
 16 17  2  0
 17 18  1  0
 18 19  1  0
M  END
