
     RDKit          3D

 33 35  0  0  0  0  0  0  0  0999 V2000
   -6.1180   -3.2950   -0.4320 C   0  0  0  0  0  0  0  0  0  0  0  0
   -4.9410   -3.9020    0.3010 C   0  0  0  0  0  0  0  0  0  0  0  0
   -3.9930   -2.8580    0.7290 C   0  0  0  0  0  0  0  0  0  0  0  0
   -3.6930   -2.8100    2.0060 N   0  0  0  0  0  0  0  0  0  0  0  0
   -3.3650   -1.9230   -0.1670 C   0  0  0  0  0  0  0  0  0  0  0  0
   -2.4740   -1.0300    0.2260 C   0  0  0  0  0  0  0  0  0  0  0  0
   -2.0960   -0.9850    1.6290 C   0  0  0  0  0  0  0  0  0  0  0  0
   -0.9080   -1.3480    2.1590 C   0  0  0  0  0  0  0  0  0  0  0  0
    0.2650   -1.8690    1.5300 C   0  0  0  0  0  0  0  0  0  0  0  0
    1.2070   -1.4550    0.7250 C   0  0  0  0  0  0  0  0  0  0  0  0
    2.1950   -2.4600    0.3810 O   0  0  0  0  0  0  0  0  0  0  0  0
    2.4960   -2.6430   -1.0190 C   0  0  0  0  0  0  0  0  0  0  0  0
    2.6750   -1.2710   -1.7150 C   0  0  0  0  0  0  0  0  0  0  0  0
    2.9150   -0.3330   -0.6180 C   0  0  1  0  0  0  0  0  0  0  0  0
    3.6240    0.8520   -0.7570 N   0  0  0  0  0  0  0  0  0  0  0  0
    5.0160    0.8680   -0.3760 C   0  0  2  0  0  0  0  0  0  0  0  0
    5.8500    0.3080   -1.5240 C   0  0  0  0  0  0  0  0  0  0  0  0
    5.3580    0.2020    0.9090 C   0  0  0  0  0  0  0  0  0  0  0  0
    4.6320    0.7660    2.1100 C   0  0  0  0  0  0  0  0  0  0  0  0
    1.5150   -0.1840    0.0660 C   0  0  0  0  0  0  0  0  0  0  0  0
    1.0310    0.9600    0.0810 C   0  0  0  0  0  0  0  0  0  0  0  0
    0.1140    1.9780    0.5060 C   0  0  0  0  0  0  0  0  0  0  0  0
   -0.2140    2.9930   -0.2250 O   0  0  0  0  0  0  0  0  0  0  0  0
   -0.5730    2.0610    1.7530 N   0  0  0  0  0  0  0  0  0  0  0  0
   -1.9510    2.2580    1.4850 C   0  0  0  0  0  0  0  0  0  0  0  0
   -2.3170    2.2570    0.0470 C   0  0  0  0  0  0  0  0  0  0  0  0
   -2.8830    3.4580   -0.1940 C   0  0  0  0  0  0  0  0  0  0  0  0
   -3.4250    4.0350   -1.3940 N   0  0  0  0  0  0  0  0  0  0  0  0
   -2.8340    3.8050   -2.7060 C   0  0  0  0  0  0  0  0  0  0  0  0
   -2.2580    2.6660   -3.0810 C   0  0  0  0  0  0  0  0  0  0  0  0
   -2.1010    1.4610   -2.3100 C   0  0  0  0  0  0  0  0  0  0  0  0
   -2.1210    1.2220   -0.9390 C   0  0  0  0  0  0  0  0  0  0  0  0
   -1.9270   -0.1480   -0.7310 O   0  0  0  0  0  0  0  0  0  0  0  0
  1  2  1  0
  2  3  1  0
  3  4  2  0
  3  5  1  0
  5  6  2  3
  6  7  1  0
  6 33  1  0
  7  8  2  0
  8  9  1  0
  9 10  2  0
 10 11  1  0
 10 20  1  0
 11 12  1  0
 12 13  1  0
 13 14  1  0
 14 15  1  6
 14 20  1  0
 15 16  1  0
 16 17  1  6
 16 18  1  0
 18 19  1  0
 20 21  2  0
 21 22  1  0
 22 23  2  0
 22 24  1  0
 24 25  1  0
 25 26  1  0
 26 27  2  0
 26 32  1  0
 27 28  1  0
 28 29  1  0
 29 30  2  0
 30 31  1  0
 31 32  2  0
 32 33  1  0
M  CHG  2  15   1  24   1
M  END
