
     RDKit          3D

 32 36  0  0  0  0  0  0  0  0999 V2000
   -6.3020   -2.2130    0.2090 C   0  0  0  0  0  0  0  0  0  0  0  0
   -5.0230   -1.4660    0.3780 C   0  0  0  0  0  0  0  0  0  0  0  0
   -4.9370   -0.1550   -0.0220 C   0  0  0  0  0  0  0  0  0  0  0  0
   -3.7500    0.4870    0.1520 C   0  0  0  0  0  0  0  0  0  0  0  0
   -2.6080   -0.1310    0.7220 C   0  0  0  0  0  0  0  0  0  0  0  0
   -1.4180    0.6970    0.8530 C   0  0  0  0  0  0  0  0  0  0  0  0
   -0.2320    0.2280    1.4240 N   0  0  0  0  0  0  0  0  0  0  0  0
    0.7770   -0.2130    0.4850 C   0  0  1  0  0  0  0  0  0  0  0  0
    0.2690   -0.4420   -0.9020 C   0  0  0  0  0  0  0  0  0  0  0  0
    1.2960   -1.3450   -1.5700 C   0  0  0  0  0  0  0  0  0  0  0  0
    2.5970   -0.6480   -1.6260 C   0  0  0  0  0  0  0  0  0  0  0  0
    2.7780    0.5730   -0.8210 C   0  0  2  0  0  0  0  0  0  0  0  0
    4.2760    0.6600   -0.4810 C   0  0  2  0  0  0  0  0  0  0  0  0
    4.5610    1.8830    0.3630 C   0  0  0  0  0  0  0  0  0  0  0  0
    5.9950    2.0530    0.3720 N   0  0  0  0  0  0  0  0  0  0  0  0
    7.0330    1.1160    0.1530 C   0  0  0  0  0  0  0  0  0  0  0  0
    8.1910    1.4750    0.4750 O   0  0  0  0  0  0  0  0  0  0  0  0
    6.9070   -0.2620   -0.4220 C   0  0  0  0  0  0  0  0  0  0  0  0
    6.1490   -0.2590   -1.7120 C   0  0  0  0  0  0  0  0  0  0  0  0
    5.1040    0.7420   -1.6440 N   0  0  0  0  0  0  0  0  0  0  0  0
    1.9430    0.7340    0.3840 C   0  0  0  0  0  0  0  0  0  0  0  0
   -2.7340   -1.4330    1.1030 C   0  0  0  0  0  0  0  0  0  0  0  0
   -3.9470   -2.1240    0.9390 C   0  0  0  0  0  0  0  0  0  0  0  0
   -3.8040   -3.4250    1.4120 O   0  0  0  0  0  0  0  0  0  0  0  0
   -2.4490   -3.7570    1.4730 C   0  0  0  0  0  0  0  0  0  0  0  0
   -1.7880   -2.3890    1.6880 C   0  0  0  0  0  0  0  0  0  0  0  0
   -3.6570    1.8190   -0.2500 O   0  0  0  0  0  0  0  0  0  0  0  0
   -4.8140    2.6570   -0.1550 C   0  0  1  0  0  0  0  0  0  0  0  0
   -4.6320    3.8080   -1.0690 C   0  0  0  0  0  0  0  0  0  0  0  0
   -4.4800    4.6930   -1.7930 N   0  0  0  0  0  0  0  0  0  0  0  0
   -6.0930    2.0020   -0.5060 C   0  0  0  0  0  0  0  0  0  0  0  0
   -6.1000    0.5210   -0.6240 C   0  0  0  0  0  0  0  0  0  0  0  0
  1  2  1  0
  2  3  2  0
  2 23  1  0
  3  4  1  0
  3 32  1  0
  4  5  2  0
  4 27  1  0
  5  6  1  0
  5 22  1  0
  6  7  1  0
  8  7  1  1
  8  9  1  0
  8 21  1  0
  9 10  1  0
 10 11  1  0
 12 11  1  1
 12 13  1  0
 12 21  1  0
 13 14  1  1
 13 20  1  0
 14 15  1  0
 15 16  1  0
 16 17  2  0
 16 18  1  0
 18 19  1  0
 19 20  1  0
 22 23  2  0
 22 26  1  0
 23 24  1  0
 24 25  1  0
 25 26  1  0
 27 28  1  0
 28 29  1  6
 28 31  1  0
 29 30  3  0
 31 32  1  0
M  CHG  2   7   1  20   1
M  END
