
     RDKit          3D

 33 37  0  0  0  0  0  0  0  0999 V2000
    5.0800    0.4500   -3.7640 C   0  0  0  0  0  0  0  0  0  0  0  0
    3.7060    0.8750   -3.8440 N   0  0  0  0  0  0  0  0  0  0  0  0
    3.0260    0.5860   -2.6090 C   0  0  0  0  0  0  0  0  0  0  0  0
    3.5440    1.4550   -1.5230 C   0  0  2  0  0  0  0  0  0  0  0  0
    4.8920    1.2350   -1.3310 O   0  0  0  0  0  0  0  0  0  0  0  0
    5.2290    0.4660   -0.2490 C   0  0  0  0  0  0  0  0  0  0  0  0
    4.5680    0.8070    1.0400 C   0  0  0  0  0  0  0  0  0  0  0  0
    3.5660    1.7310    0.8280 O   0  0  0  0  0  0  0  0  0  0  0  0
    2.7360    1.3840   -0.2510 C   0  0  2  0  0  0  0  0  0  0  0  0
    2.1950    0.0830    0.0340 N   0  0  0  0  0  0  0  0  0  0  0  0
    0.8110   -0.0770    0.2340 C   0  0  0  0  0  0  0  0  0  0  0  0
    0.1050    0.9390    0.1530 O   0  0  0  0  0  0  0  0  0  0  0  0
    0.1470   -1.3700    0.5320 C   0  0  0  0  0  0  0  0  0  0  0  0
    0.8590   -2.4640    0.6180 C   0  0  0  0  0  0  0  0  0  0  0  0
    0.3640   -3.7630    0.8900 N   0  0  0  0  0  0  0  0  0  0  0  0
   -1.0650   -3.8130    1.0740 C   0  0  0  0  0  0  0  0  0  0  0  0
   -1.6370   -5.0690    1.3280 C   0  0  0  0  0  0  0  0  0  0  0  0
   -2.9820   -5.2630    1.5040 C   0  0  0  0  0  0  0  0  0  0  0  0
   -3.7620   -4.1350    1.4170 C   0  0  0  0  0  0  0  0  0  0  0  0
   -3.2360   -2.8910    1.1710 C   0  0  0  0  0  0  0  0  0  0  0  0
   -1.8460   -2.7140    0.9930 C   0  0  0  0  0  0  0  0  0  0  0  0
   -1.3080   -1.3690    0.7550 C   0  0  1  0  0  0  0  0  0  0  0  0
   -1.6780   -0.4450    1.7820 N   0  0  0  0  0  0  0  0  0  0  0  0
   -2.7110    0.4840    1.6360 C   0  0  1  0  0  0  0  0  0  0  0  0
   -2.4830    1.5290    2.7740 C   0  0  0  0  0  0  0  0  0  0  0  0
   -2.9410    2.8940    2.4230 C   0  0  0  0  0  0  0  0  0  0  0  0
   -2.1000    3.3120    1.1900 C   0  0  0  0  0  0  0  0  0  0  0  0
   -2.7130    2.4660    0.1060 C   0  0  0  0  0  0  0  0  0  0  0  0
   -2.9930    3.0830   -1.0830 C   0  0  0  0  0  0  0  0  0  0  0  0
   -3.6130    2.3890   -2.1100 C   0  0  0  0  0  0  0  0  0  0  0  0
   -3.9310    1.0870   -1.8920 C   0  0  0  0  0  0  0  0  0  0  0  0
   -3.6380    0.4660   -0.6680 C   0  0  0  0  0  0  0  0  0  0  0  0
   -3.0210    1.1230    0.3720 C   0  0  0  0  0  0  0  0  0  0  0  0
  1  2  1  0
  2  3  1  0
  4  3  1  6
  4  5  1  0
  4  9  1  0
  5  6  1  0
  6  7  1  0
  7  8  1  0
  8  9  1  0
  9 10  1  1
 10 11  1  0
 11 12  2  0
 11 13  1  0
 13 14  2  0
 13 22  1  0
 14 15  1  0
 15 16  1  0
 16 17  2  0
 16 21  1  0
 17 18  1  0
 18 19  2  0
 19 20  1  0
 20 21  2  0
 21 22  1  0
 22 23  1  1
 24 23  1  6
 24 25  1  0
 24 33  1  0
 25 26  1  0
 26 27  1  0
 27 28  1  0
 28 29  2  0
 28 33  1  0
 29 30  1  0
 30 31  2  0
 31 32  1  0
 32 33  2  0
M  CHG  1  23   1
M  END
