
     RDKit          3D

 33 37  0  0  0  0  0  0  0  0999 V2000
    3.0350    0.0310   -1.4440 O   0  0  0  0  0  0  0  0  0  0  0  0
    3.8520    0.3570   -0.5210 C   0  0  0  0  0  0  0  0  0  0  0  0
    5.1680    0.7810   -1.0160 C   0  0  0  0  0  0  0  0  0  0  0  0
    6.2690    0.4950   -0.1430 N   0  0  1  0  0  0  0  0  0  0  0  0
    7.4900    0.9760   -0.7480 C   0  0  1  0  0  0  0  0  0  0  0  0
    8.6270    1.0010    0.2520 C   0  0  0  0  0  0  0  0  0  0  0  0
    9.7860    0.5510   -0.5720 C   0  0  0  0  0  0  0  0  0  0  0  0
    9.3340   -0.1050   -1.6830 O   0  0  0  0  0  0  0  0  0  0  0  0
    7.9790    0.0100   -1.7760 C   0  0  0  0  0  0  0  0  0  0  0  0
    6.0220    1.2230    1.1060 C   0  0  0  0  0  0  0  0  0  0  0  0
    5.4080    0.2130    2.0460 C   0  0  0  0  0  0  0  0  0  0  0  0
    3.9180    0.3340    2.0500 C   0  0  0  0  0  0  0  0  0  0  0  0
    3.2990    0.2350    0.7650 N   0  0  0  0  0  0  0  0  0  0  0  0
    1.8840   -0.0330    0.8640 C   0  0  0  0  0  0  0  0  0  0  0  0
    0.9370    0.8970    0.5260 C   0  0  0  0  0  0  0  0  0  0  0  0
   -0.4290    0.6000    0.6290 C   0  0  0  0  0  0  0  0  0  0  0  0
   -0.8600   -0.6180    1.0680 C   0  0  0  0  0  0  0  0  0  0  0  0
   -2.2690   -1.0300    1.1980 C   0  0  0  0  0  0  0  0  0  0  0  0
   -3.2060   -0.2850    0.4300 N   0  0  0  0  0  0  0  0  0  0  0  0
   -4.3070   -0.9830   -0.1370 C   0  0  2  0  0  0  0  0  0  0  0  0
   -5.6000   -0.3520    0.2310 C   0  0  0  0  0  0  0  0  0  0  0  0
   -5.8440    1.0490   -0.1720 C   0  0  1  0  0  0  0  0  0  0  0  0
   -7.2520    1.4260    0.3350 C   0  0  0  0  0  0  0  0  0  0  0  0
   -7.2180    2.9260    0.1530 C   0  0  0  0  0  0  0  0  0  0  0  0
   -5.7470    3.2320    0.2080 C   0  0  0  0  0  0  0  0  0  0  0  0
   -5.0970    2.0230    0.4270 O   0  0  0  0  0  0  0  0  0  0  0  0
   -4.3720   -2.4370    0.3550 C   0  0  0  0  0  0  0  0  0  0  0  0
   -5.6410   -3.0810   -0.1500 C   0  0  0  0  0  0  0  0  0  0  0  0
   -5.9020   -2.8830   -1.5900 C   0  0  0  0  0  0  0  0  0  0  0  0
   -5.3360   -1.7270   -2.2020 N   0  0  0  0  0  0  0  0  0  0  0  0
   -4.1600   -1.1820   -1.6370 C   0  0  0  0  0  0  0  0  0  0  0  0
    0.1190   -1.5570    1.4100 C   0  0  0  0  0  0  0  0  0  0  0  0
    1.4540   -1.2690    1.3110 C   0  0  0  0  0  0  0  0  0  0  0  0
  1  2  2  0
  2  3  1  0
  2 13  1  0
  4  3  1  6
  4  5  1  0
  4 10  1  0
  5  6  1  1
  5  9  1  0
  6  7  1  0
  7  8  1  0
  8  9  1  0
 10 11  1  0
 11 12  1  0
 12 13  1  0
 13 14  1  0
 14 15  2  0
 14 33  1  0
 15 16  1  0
 16 17  2  0
 17 18  1  0
 17 32  1  0
 18 19  1  0
 19 20  1  0
 20 21  1  6
 20 27  1  0
 20 31  1  0
 22 21  1  1
 22 23  1  0
 22 26  1  0
 23 24  1  0
 24 25  1  0
 25 26  1  0
 27 28  1  0
 28 29  1  0
 29 30  1  0
 30 31  1  0
 32 33  2  0
M  CHG  3   4   1  19   1  30   1
M  END
