
     RDKit          3D

 33 37  0  0  0  0  0  0  0  0999 V2000
   -1.0600    0.5730    1.0100 O   0  0  0  0  0  0  0  0  0  0  0  0
   -0.5300    0.9640   -0.0470 C   0  0  0  0  0  0  0  0  0  0  0  0
    0.9720    1.0340   -0.0730 C   0  0  0  0  0  0  0  0  0  0  0  0
    1.5590    0.6020    1.2390 C   0  0  0  0  0  0  0  0  0  0  0  0
    3.0340    0.6960    1.1450 C   0  0  0  0  0  0  0  0  0  0  0  0
    3.6530    1.7480    1.4870 O   0  0  0  0  0  0  0  0  0  0  0  0
    3.7750   -0.4630    0.6430 C   0  0  0  0  0  0  0  0  0  0  0  0
    3.1640   -1.6200    0.2260 C   0  0  0  0  0  0  0  0  0  0  0  0
    3.9630   -2.6690   -0.2260 C   0  0  0  0  0  0  0  0  0  0  0  0
    5.3250   -2.5540   -0.2550 C   0  0  0  0  0  0  0  0  0  0  0  0
    5.9520   -1.3730    0.1690 C   0  0  0  0  0  0  0  0  0  0  0  0
    7.3340   -1.3400    0.1070 O   0  0  0  0  0  0  0  0  0  0  0  0
    8.1400   -0.2800    0.4710 C   0  0  1  0  0  0  0  0  0  0  0  0
    9.1860   -0.6570    1.5070 C   0  0  0  0  0  0  0  0  0  0  0  0
   10.4950   -0.2590    0.9140 C   0  0  0  0  0  0  0  0  0  0  0  0
   10.1650    0.6980   -0.1260 N   0  0  0  0  0  0  0  0  0  0  0  0
    9.0060    0.0990   -0.7230 C   0  0  0  0  0  0  0  0  0  0  0  0
    5.1640   -0.3410    0.6140 C   0  0  0  0  0  0  0  0  0  0  0  0
   -1.3240    1.3130   -1.1390 N   0  0  0  0  0  0  0  0  0  0  0  0
   -2.7300    1.2880   -1.2350 C   0  0  0  0  0  0  0  0  0  0  0  0
   -3.3210    1.7060   -2.4330 C   0  0  0  0  0  0  0  0  0  0  0  0
   -4.6860    1.7180   -2.6260 C   0  0  0  0  0  0  0  0  0  0  0  0
   -5.5240    1.3130   -1.6330 C   0  0  0  0  0  0  0  0  0  0  0  0
   -4.9970    0.9010   -0.4600 C   0  0  0  0  0  0  0  0  0  0  0  0
   -3.6160    0.8910   -0.2700 C   0  0  0  0  0  0  0  0  0  0  0  0
   -5.6600    0.4140    0.7760 C   0  0  0  0  0  0  0  0  0  0  0  0
   -6.7590   -0.4520    0.3170 N   0  0  1  0  0  0  0  0  0  0  0  0
   -7.0820   -1.3010    1.4600 C   0  0  0  0  0  0  0  0  0  0  0  0
   -8.5150   -1.7170    1.2390 C   0  0  0  0  0  0  0  0  0  0  0  0
   -9.0540   -0.7060    0.2800 C   0  0  0  0  0  0  0  0  0  0  0  0
   -7.9340    0.2970    0.0100 C   0  0  2  0  0  0  0  0  0  0  0  0
   -8.0580    0.7390   -1.4050 C   0  0  0  0  0  0  0  0  0  0  0  0
   -6.9110    1.3720   -1.9600 N   0  0  0  0  0  0  0  0  0  0  0  0
  1  2  2  0
  2  3  1  0
  2 19  1  0
  3  4  1  0
  4  5  1  0
  5  6  2  0
  5  7  1  0
  7  8  2  0
  7 18  1  0
  8  9  1  0
  9 10  2  0
 10 11  1  0
 11 12  1  0
 11 18  2  0
 13 12  1  6
 13 14  1  0
 13 17  1  0
 14 15  1  0
 15 16  1  0
 16 17  1  0
 19 20  1  0
 20 21  2  0
 20 25  1  0
 21 22  1  0
 22 23  2  0
 23 24  1  0
 23 33  1  0
 24 25  2  0
 24 26  1  0
 27 26  1  1
 27 28  1  0
 27 31  1  0
 28 29  1  0
 29 30  1  0
 31 30  1  6
 31 32  1  0
 32 33  1  0
M  CHG  2  16   1  27   1
M  END
