
     RDKit          3D

 32 34  0  0  0  0  0  0  0  0999 V2000
    0.7470    4.8180    0.0940 C   0  0  0  0  0  0  0  0  0  0  0  0
    0.7020    3.5530    0.5980 O   0  0  0  0  0  0  0  0  0  0  0  0
    0.6900    2.5150   -0.3160 C   0  0  0  0  0  0  0  0  0  0  0  0
   -0.5100    2.6290   -1.1890 C   0  0  2  0  0  0  0  0  0  0  0  0
   -1.8180    2.7870   -0.4440 C   0  0  0  0  0  0  0  0  0  0  0  0
   -1.6110    2.6080    0.9310 O   0  0  0  0  0  0  0  0  0  0  0  0
   -2.8010    2.6060    1.6070 C   0  0  0  0  0  0  0  0  0  0  0  0
   -3.6710    1.5420    1.0570 C   0  0  0  0  0  0  0  0  0  0  0  0
   -3.3580    0.3500    0.6820 C   0  0  0  0  0  0  0  0  0  0  0  0
   -2.0090   -0.3140    0.6920 C   0  0  1  0  0  0  0  0  0  0  0  0
   -2.0690   -1.2010    1.9370 C   0  0  0  0  0  0  0  0  0  0  0  0
   -2.1850   -0.3450    3.0980 N   0  0  0  0  0  0  0  0  0  0  0  0
   -1.8870   -0.9580   -0.5090 O   0  0  0  0  0  0  0  0  0  0  0  0
   -1.0410   -1.8990   -1.0550 C   0  0  0  0  0  0  0  0  0  0  0  0
   -1.2500   -3.2030   -0.9580 N   0  0  0  0  0  0  0  0  0  0  0  0
   -0.2270   -3.9440   -1.6060 C   0  0  2  0  0  0  0  0  0  0  0  0
    0.4710   -4.8970   -0.7630 N   0  0  0  0  0  0  0  0  0  0  0  0
    0.6490   -2.9000   -2.1240 C   0  0  0  0  0  0  0  0  0  0  0  0
    0.1460   -1.6880   -1.7860 C   0  0  0  0  0  0  0  0  0  0  0  0
    0.8170   -0.5080   -2.2100 N   0  0  0  0  0  0  0  0  0  0  0  0
    0.2720    0.6950   -2.7190 C   0  0  0  0  0  0  0  0  0  0  0  0
    0.7100    1.0530   -3.9340 O   0  0  0  0  0  0  0  0  0  0  0  0
   -0.6610    1.6010   -2.1800 N   0  0  0  0  0  0  0  0  0  0  0  0
    2.2870   -0.5970   -2.1680 C   0  0  1  0  0  0  0  0  0  0  0  0
    2.8490   -0.7830   -0.8260 C   0  0  0  0  0  0  0  0  0  0  0  0
    4.1160   -0.8960   -0.7600 O   0  0  0  0  0  0  0  0  0  0  0  0
    2.1520   -0.8520    0.3960 N   0  0  0  0  0  0  0  0  0  0  0  0
    2.8190   -1.0390    1.6780 C   0  0  0  0  0  0  0  0  0  0  0  0
    1.8380   -1.0900    2.8080 C   0  0  0  0  0  0  0  0  0  0  0  0
    2.5690   -1.2650    3.9880 O   0  0  0  0  0  0  0  0  0  0  0  0
    2.7460   -1.8030   -2.9890 C   0  0  0  0  0  0  0  0  0  0  0  0
    1.8460   -2.9010   -2.8700 N   0  0  0  0  0  0  0  0  0  0  0  0
  1  2  1  0
  2  3  1  0
  4  3  1  1
  4  5  1  0
  4 23  1  0
  5  6  1  0
  6  7  1  0
  7  8  1  0
  8  9  2  0
  9 10  1  0
 10 11  1  1
 10 13  1  0
 11 12  1  0
 13 14  1  0
 14 15  2  0
 14 19  1  0
 15 16  1  0
 16 17  1  1
 16 18  1  0
 18 19  2  0
 18 32  1  0
 19 20  1  0
 20 21  1  0
 20 24  1  0
 21 22  2  0
 21 23  1  0
 24 25  1  1
 24 31  1  0
 25 26  2  0
 25 27  1  0
 27 28  1  0
 28 29  1  0
 29 30  1  0
 31 32  1  0
M  CHG  1  12   1
M  END
