
     RDKit          3D

 32 33  0  0  0  0  0  0  0  0999 V2000
    8.0370   -0.9260    0.6240 C   0  0  0  0  0  0  0  0  0  0  0  0
    6.9760   -1.0310    1.7110 C   0  0  0  0  0  0  0  0  0  0  0  0
    5.8820   -0.1050    1.3830 N   0  0  0  0  0  0  0  0  0  0  0  0
    5.7780    1.2610    1.7860 C   0  0  0  0  0  0  0  0  0  0  0  0
    6.6280    1.8700    2.4950 O   0  0  0  0  0  0  0  0  0  0  0  0
    4.5350    1.7880    1.2330 C   0  0  0  0  0  0  0  0  0  0  0  0
    3.9080    0.8490    0.5440 C   0  0  0  0  0  0  0  0  0  0  0  0
    2.6140    1.0090   -0.1640 C   0  0  0  0  0  0  0  0  0  0  0  0
    1.5840    0.1110    0.3230 N   0  0  0  0  0  0  0  0  0  0  0  0
    0.3190    0.7320   -0.0990 C   0  0  2  0  0  0  0  0  0  0  0  0
    0.1300    2.0430    0.5930 C   0  0  0  0  0  0  0  0  0  0  0  0
   -0.8330   -0.1640    0.1210 C   0  0  0  0  0  0  0  0  0  0  0  0
   -0.6990   -1.3000    0.6130 O   0  0  0  0  0  0  0  0  0  0  0  0
   -2.1180    0.2910   -0.2420 N   0  0  0  0  0  0  0  0  0  0  0  0
   -3.2870   -0.4830   -0.0760 N   0  0  0  0  0  0  0  0  0  0  0  0
   -3.7840   -0.8430    1.2010 C   0  0  0  0  0  0  0  0  0  0  0  0
   -3.1810   -0.4830    2.2390 O   0  0  0  0  0  0  0  0  0  0  0  0
   -5.0140   -1.6450    1.3160 C   0  0  1  0  0  0  0  0  0  0  0  0
   -4.9970   -2.2360    2.6800 N   0  0  0  0  0  0  0  0  0  0  0  0
   -6.2890   -0.8270    1.2720 C   0  0  2  0  0  0  0  0  0  0  0  0
   -7.3530   -1.7010    1.4780 O   0  0  0  0  0  0  0  0  0  0  0  0
   -6.4500   -0.1820   -0.0690 C   0  0  0  0  0  0  0  0  0  0  0  0
   -7.7390    0.6060   -0.0710 C   0  0  0  0  0  0  0  0  0  0  0  0
   -8.4040    0.6050    0.9390 O   0  0  0  0  0  0  0  0  0  0  0  0
    0.4470    0.8850   -1.5920 C   0  0  0  0  0  0  0  0  0  0  0  0
    0.6500    1.9950   -2.3480 C   0  0  0  0  0  0  0  0  0  0  0  0
    0.6880    1.5790   -3.6550 C   0  0  0  0  0  0  0  0  0  0  0  0
    0.8820    2.4200   -4.7840 N   0  0  0  0  0  0  0  0  0  0  0  0
    0.5060    0.2110   -3.6670 C   0  0  0  0  0  0  0  0  0  0  0  0
    0.3600   -0.2030   -2.4010 N   0  0  0  0  0  0  0  0  0  0  0  0
    4.7150   -0.3620    0.6080 C   0  0  0  0  0  0  0  0  0  0  0  0
    4.4360   -1.4490    0.0740 O   0  0  0  0  0  0  0  0  0  0  0  0
  1  2  1  0
  2  3  1  0
  3  4  1  0
  3 31  1  0
  4  5  2  0
  4  6  1  0
  6  7  2  0
  7  8  1  0
  7 31  1  0
  8  9  1  0
  9 10  1  0
 10 11  1  1
 10 12  1  0
 10 25  1  0
 12 13  2  0
 12 14  1  0
 14 15  1  0
 15 16  1  0
 16 17  2  0
 16 18  1  0
 18 19  1  1
 18 20  1  0
 20 21  1  6
 20 22  1  0
 22 23  1  0
 23 24  2  0
 25 26  2  0
 25 30  1  0
 26 27  1  0
 27 28  1  0
 27 29  2  0
 29 30  1  0
 31 32  2  0
M  CHG  1   9   1
M  END
