
     RDKit          3D

 27 28  0  0  0  0  0  0  0  0999 V2000
   -4.3500    1.8690   -0.4420 C   0  0  0  0  0  0  0  0  0  0  0  0
   -4.5440    0.4920    0.1380 C   0  0  2  0  0  0  0  0  0  0  0  0
   -3.7160    0.1510    1.1390 O   0  0  0  0  0  0  0  0  0  0  0  0
   -2.4220    0.1040    1.0240 N   0  0  0  0  0  0  0  0  0  0  0  0
   -1.5830    0.1730   -0.0970 C   0  0  0  0  0  0  0  0  0  0  0  0
   -2.0890    0.3030   -1.2310 O   0  0  0  0  0  0  0  0  0  0  0  0
   -0.1090    0.1030    0.0060 C   0  0  0  0  0  0  0  0  0  0  0  0
    0.6330   -0.0480    1.1170 N   0  0  0  0  0  0  0  0  0  0  0  0
    1.9150   -0.0630    0.7970 N   0  0  0  0  0  0  0  0  0  0  0  0
    2.0390    0.0800   -0.5300 C   0  0  0  0  0  0  0  0  0  0  0  0
    3.2520    0.1250   -1.3440 C   0  0  0  0  0  0  0  0  0  0  0  0
    3.2020    0.2820   -2.5890 O   0  0  0  0  0  0  0  0  0  0  0  0
    4.5480   -0.0070   -0.7600 N   0  0  0  0  0  0  0  0  0  0  0  0
    5.7620    0.0300   -1.5230 C   0  0  0  0  0  0  0  0  0  0  0  0
    6.9250   -0.1580   -0.5720 C   0  0  0  0  0  0  0  0  0  0  0  0
    6.8630    0.9060    0.3500 O   0  0  0  0  0  0  0  0  0  0  0  0
    8.2000    0.6860    1.4360 P   0  0  0  0  0  0  0  0  0  0  0  0
    9.6430    1.4200    0.8070 O   0  0  0  0  0  0  0  0  0  0  0  0
    8.4590   -0.9820    1.8270 O   0  0  0  0  0  0  0  0  0  0  0  0
    0.7750    0.1810   -1.0040 N   0  0  0  0  0  0  0  0  0  0  0  0
   -4.7370   -0.5430   -0.9460 C   0  0  0  0  0  0  0  0  0  0  0  0
   -6.0430   -1.0190   -0.7060 O   0  0  0  0  0  0  0  0  0  0  0  0
   -6.1480   -0.8100    0.6670 C   0  0  2  0  0  0  0  0  0  0  0  0
   -7.7630   -1.2720    1.3860 P   0  0  0  0  0  0  0  0  0  0  0  0
   -7.9270   -3.0110    1.2410 O   0  0  0  0  0  0  0  0  0  0  0  0
   -9.0820   -0.4900    0.6100 O   0  0  0  0  0  0  0  0  0  0  0  0
   -5.8510    0.5480    0.7350 O   0  0  0  0  0  0  0  0  0  0  0  0
  2  1  1  6
  2  3  1  0
  2 21  1  0
  2 27  1  0
  3  4  1  0
  4  5  1  0
  5  6  2  0
  5  7  1  0
  7  8  2  0
  7 20  1  0
  8  9  1  0
  9 10  2  0
 10 11  1  0
 10 20  1  0
 11 12  2  0
 11 13  1  0
 13 14  1  0
 14 15  1  0
 15 16  1  0
 16 17  1  0
 17 18  1  0
 17 19  1  0
 21 22  1  0
 22 23  1  0
 23 24  1  6
 23 27  1  0
 24 25  1  0
 24 26  1  0
M  END
