
     RDKit          3D

 28 29  0  0  0  0  0  0  0  0999 V2000
    2.0010   -1.1490   -1.0240 O   0  0  0  0  0  0  0  0  0  0  0  0
    2.2500   -0.5090    0.0040 C   0  0  0  0  0  0  0  0  0  0  0  0
    3.4860   -0.4170    0.6580 N   0  0  0  0  0  0  0  0  0  0  0  0
    4.6360   -1.0960    0.1660 C   0  0  0  0  0  0  0  0  0  0  0  0
    5.8020   -0.7880    1.1020 C   0  0  0  0  0  0  0  0  0  0  0  0
    6.8810   -1.4610    0.5880 O   0  0  0  0  0  0  0  0  0  0  0  0
    8.2990   -1.2040    1.5560 P   0  0  0  0  0  0  0  0  0  0  0  0
    9.6030   -0.7860    0.4890 O   0  0  0  0  0  0  0  0  0  0  0  0
    8.0860    0.0940    2.6830 O   0  0  0  0  0  0  0  0  0  0  0  0
    1.1460    0.1550    0.4940 N   0  0  0  0  0  0  0  0  0  0  0  0
   -0.1500    0.1470   -0.0640 C   0  0  0  0  0  0  0  0  0  0  0  0
   -0.8870    0.9020    0.7120 N   0  0  0  0  0  0  0  0  0  0  0  0
   -2.1320    0.9830    0.3090 O   0  0  0  0  0  0  0  0  0  0  0  0
   -2.2550    0.5710   -0.9940 C   0  0  1  0  0  0  0  0  0  0  0  0
   -3.4770   -0.1580   -1.3070 C   0  0  0  0  0  0  0  0  0  0  0  0
   -3.8160   -0.6570   -2.3620 O   0  0  0  0  0  0  0  0  0  0  0  0
   -4.4450   -0.3510   -0.3110 N   0  0  0  0  0  0  0  0  0  0  0  0
   -5.6320   -1.0180   -0.3960 C   0  0  0  0  0  0  0  0  0  0  0  0
   -6.2670   -1.8890   -1.3140 O   0  0  0  0  0  0  0  0  0  0  0  0
   -6.3670   -0.8580    0.5520 N   0  0  0  0  0  0  0  0  0  0  0  0
   -6.6120   -0.3390    1.6760 O   0  0  0  0  0  0  0  0  0  0  0  0
   -5.8040    1.1120    2.3290 P   0  0  0  0  0  0  0  0  0  0  0  0
   -5.3510    0.8230    3.9690 O   0  0  0  0  0  0  0  0  0  0  0  0
   -6.9300    2.4180    2.1820 O   0  0  0  0  0  0  0  0  0  0  0  0
   -1.9680    1.6560   -1.9680 C   0  0  0  0  0  0  0  0  0  0  0  0
   -1.0980    0.9380   -2.9640 C   0  0  0  0  0  0  0  0  0  0  0  0
   -0.5930   -0.1880   -2.3820 O   0  0  0  0  0  0  0  0  0  0  0  0
   -1.0430   -0.3320   -1.1010 C   0  0  1  0  0  0  0  0  0  0  0  0
  1  2  2  0
  2  3  1  0
  2 10  1  0
  3  4  1  0
  4  5  1  0
  5  6  1  0
  6  7  1  0
  7  8  1  0
  7  9  1  0
 10 11  1  0
 11 12  2  0
 11 28  1  0
 12 13  1  0
 13 14  1  0
 14 15  1  1
 14 25  1  0
 14 28  1  0
 15 16  2  0
 15 17  1  0
 17 18  1  0
 18 19  1  0
 18 20  2  3
 20 21  1  0
 21 22  1  0
 22 23  1  0
 22 24  1  0
 25 26  1  0
 26 27  1  0
 28 27  1  6
M  END
