
     RDKit          3D

 27 29  0  0  0  0  0  0  0  0999 V2000
   -5.8410    0.7160   -0.7560 O   0  0  0  0  0  0  0  0  0  0  0  0
   -5.6190    0.7120    0.4770 C   0  0  0  0  0  0  0  0  0  0  0  0
   -4.4040    0.3180    0.9930 O   0  0  0  0  0  0  0  0  0  0  0  0
   -3.3770   -0.0950    0.1080 C   0  0  0  0  0  0  0  0  0  0  0  0
   -2.1230   -0.4890    0.8740 C   0  0  2  0  0  0  0  0  0  0  0  0
   -1.5690    0.6410    1.4680 O   0  0  0  0  0  0  0  0  0  0  0  0
   -0.3660    0.9000    0.9100 N   0  0  0  0  0  0  0  0  0  0  0  0
   -0.0700    0.0200   -0.0230 C   0  0  0  0  0  0  0  0  0  0  0  0
    1.1150   -0.0900   -0.8820 C   0  0  1  0  0  0  0  0  0  0  0  0
    2.3380   -0.1370   -0.0670 N   0  0  0  0  0  0  0  0  0  0  0  0
    3.4100    0.8360   -0.0440 C   0  0  0  0  0  0  0  0  0  0  0  0
    4.6070   -0.0060    0.2320 C   0  0  1  0  0  0  0  0  0  0  0  0
    5.7340    0.6880    0.5940 O   0  0  0  0  0  0  0  0  0  0  0  0
    7.0870    0.4760   -0.3940 P   0  0  0  0  0  0  0  0  0  0  0  0
    7.0740    1.4160   -1.8390 O   0  0  0  0  0  0  0  0  0  0  0  0
    8.5950    0.5760    0.4420 O   0  0  0  0  0  0  0  0  0  0  0  0
    4.1150   -0.9630    1.2840 C   0  0  0  0  0  0  0  0  0  0  0  0
    2.7000   -1.1630    0.8640 C   0  0  0  0  0  0  0  0  0  0  0  0
    1.9180   -2.0830    1.2510 O   0  0  0  0  0  0  0  0  0  0  0  0
    1.0470   -1.1910   -1.7660 N   0  0  0  0  0  0  0  0  0  0  0  0
    0.0900   -2.0130   -1.8410 C   0  0  0  0  0  0  0  0  0  0  0  0
   -1.0800   -1.9370   -1.0210 N   0  0  0  0  0  0  0  0  0  0  0  0
   -1.1410   -0.8910   -0.1000 N   0  0  0  0  0  0  0  0  0  0  0  0
   -6.6780    1.1320    1.2960 O   0  0  0  0  0  0  0  0  0  0  0  0
   -8.2240    1.6340    0.6320 P   0  0  0  0  0  0  0  0  0  0  0  0
   -8.0200    2.7710   -0.6600 O   0  0  0  0  0  0  0  0  0  0  0  0
   -9.0900    0.2400    0.0710 O   0  0  0  0  0  0  0  0  0  0  0  0
  1  2  2  0
  2  3  1  0
  2 24  1  0
  3  4  1  0
  5  4  1  6
  5  6  1  0
  5 23  1  0
  6  7  1  0
  7  8  2  0
  8  9  1  0
  8 23  1  0
  9 10  1  1
  9 20  1  0
 10 11  1  0
 10 18  1  0
 11 12  1  0
 12 13  1  1
 12 17  1  0
 13 14  1  0
 14 15  1  0
 14 16  1  0
 17 18  1  0
 18 19  2  0
 20 21  2  0
 21 22  1  0
 22 23  1  0
 24 25  1  0
 25 26  1  0
 25 27  1  0
M  END
