
     RDKit          3D

 10  9  0  0  0  0  0  0  0  0999 V2000
    1.6540   -1.5300    1.4010 O   0  0  0  0  0  0  0  0  0  0  0  0
    1.5590   -0.6300    0.5340 C   0  0  0  0  0  0  0  0  0  0  0  0
    0.2920   -0.0720    0.0500 C   0  0  0  0  0  0  0  0  0  0  0  0
   -0.8240   -0.6210    0.6310 O   0  0  0  0  0  0  0  0  0  0  0  0
   -2.2050    0.1050   -0.0100 P   0  0  2  0  0  0  0  0  0  0  0  0
   -1.8170    1.0680   -1.1100 O   0  0  0  0  0  0  0  0  0  0  0  0
   -3.0740    0.9140    1.2180 O   0  0  0  0  0  0  0  0  0  0  0  0
   -3.2140   -1.0670   -0.7440 O   0  0  0  0  0  0  0  0  0  0  0  0
    2.7690   -0.1220   -0.0120 N   0  0  0  0  0  0  0  0  0  0  0  0
    3.9940   -0.5710    0.3680 O   0  0  0  0  0  0  0  0  0  0  0  0
  1  2  2  0
  2  3  1  0
  2  9  1  0
  3  4  1  0
  4  5  1  0
  5  6  2  0
  5  7  1  1
  5  8  1  0
  9 10  1  0
M  END
