
     RDKit          3D

 26 27  0  0  0  0  0  0  0  0999 V2000
   -3.5020    0.8800    1.6570 C   0  0  0  0  0  0  0  0  0  0  0  0
   -2.9900   -0.2380    1.2460 C   0  0  0  0  0  0  0  0  0  0  0  0
   -3.7270   -1.4220    1.7050 O   0  0  0  0  0  0  0  0  0  0  0  0
   -3.7490   -1.6200    3.0280 O   0  0  0  0  0  0  0  0  0  0  0  0
   -1.8650   -0.5030    0.4470 C   0  0  0  0  0  0  0  0  0  0  0  0
   -1.6430   -1.8230    0.2290 N   0  0  0  0  0  0  0  0  0  0  0  0
   -2.4280   -2.7850    0.7320 O   0  0  0  0  0  0  0  0  0  0  0  0
   -2.8860   -3.9100   -0.0100 C   0  0  0  0  0  0  0  0  0  0  0  0
   -0.9090    0.3740   -0.1800 C   0  0  0  0  0  0  0  0  0  0  0  0
    0.0460   -0.1750   -0.8740 N   0  0  0  0  0  0  0  0  0  0  0  0
    1.0710    0.4910   -1.5590 C   0  0  2  0  0  0  0  0  0  0  0  0
    0.8870    0.1180   -3.3980 P   0  0  0  0  0  0  0  0  0  0  0  0
    1.8630    0.9080   -4.3350 O   0  0  0  0  0  0  0  0  0  0  0  0
    2.4460   -0.0270   -1.0890 C   0  0  0  0  0  0  0  0  0  0  0  0
    3.2110   -0.5770   -1.9080 N   0  0  0  0  0  0  0  0  0  0  0  0
    4.7880   -1.1490   -1.2850 P   0  0  0  0  0  0  0  0  0  0  0  0
    4.4890    0.1000    0.5640 P   0  0  0  0  0  0  0  0  0  0  0  0
    4.8700   -0.9690    1.9800 C   0  0  0  0  0  0  0  0  0  0  0  0
    4.0730   -1.1800    2.9270 O   0  0  0  0  0  0  0  0  0  0  0  0
    6.1080   -1.5930    2.0310 O   0  0  0  0  0  0  0  0  0  0  0  0
    2.7620    0.1440    0.2220 O   0  0  0  0  0  0  0  0  0  0  0  0
    1.0210    1.8640   -1.4590 O   0  0  0  0  0  0  0  0  0  0  0  0
    0.0440    2.4970   -0.7460 C   0  0  0  0  0  0  0  0  0  0  0  0
   -0.0340    3.8900   -0.6250 O   0  0  0  0  0  0  0  0  0  0  0  0
   -0.5680    4.5810   -1.7550 C   0  0  0  0  0  0  0  0  0  0  0  0
   -0.9260    1.8160   -0.1000 C   0  0  0  0  0  0  0  0  0  0  0  0
  1  2  2  0
  2  3  1  0
  2  5  1  0
  3  4  1  0
  5  6  2  3
  5  9  1  0
  6  7  1  0
  7  8  1  0
  9 10  2  0
  9 26  1  0
 10 11  1  0
 11 12  1  6
 11 14  1  0
 11 22  1  0
 12 13  2  0
 14 15  2  0
 14 21  1  0
 15 16  1  0
 16 17  1  0
 17 18  1  0
 17 21  1  0
 18 19  2  0
 18 20  1  0
 22 23  1  0
 23 24  1  0
 23 26  2  0
 24 25  1  0
M  END
