
     RDKit          3D

 26 28  0  0  0  0  0  0  0  0999 V2000
    2.8700    1.2940    0.4950 C   0  0  0  0  0  0  0  0  0  0  0  0
    2.3590   -0.0400    0.2060 C   0  0  1  0  0  0  0  0  0  0  0  0
    3.5550   -0.9040    0.0360 N   0  0  0  0  0  0  0  0  0  0  0  0
    1.7110   -0.7030    1.8700 P   0  0  0  0  0  0  0  0  0  0  0  0
    2.7320   -0.6310    3.1210 N   0  0  0  0  0  0  0  0  0  0  0  0
    1.3760   -0.3390   -0.8160 C   0  0  1  0  0  0  0  0  0  0  0  0
    0.7070   -1.6870   -0.6530 C   0  0  0  0  0  0  0  0  0  0  0  0
   -0.7750   -1.6520   -0.7920 C   0  0  2  0  0  0  0  0  0  0  0  0
   -1.4700   -3.3550   -0.6310 P   0  0  0  0  0  0  0  0  0  0  0  0
   -1.0250   -1.2300   -2.1080 O   0  0  0  0  0  0  0  0  0  0  0  0
   -0.5180    0.0140   -2.2920 C   0  0  0  0  0  0  0  0  0  0  0  0
    0.2110    0.5950   -1.0610 C   0  0  2  0  0  0  0  0  0  0  0  0
    0.9120    1.7650   -1.5710 C   0  0  0  0  0  0  0  0  0  0  0  0
    2.0560    1.1730   -2.1260 O   0  0  0  0  0  0  0  0  0  0  0  0
    1.9410   -0.1290   -2.0730 O   0  0  0  0  0  0  0  0  0  0  0  0
   -0.7510    0.6280   -0.0040 C   0  0  0  0  0  0  0  0  0  0  0  0
   -1.0210    1.5990    0.8330 C   0  0  0  0  0  0  0  0  0  0  0  0
   -0.3890    2.8280    0.8410 O   0  0  0  0  0  0  0  0  0  0  0  0
   -1.0380    3.9940    0.9560 O   0  0  0  0  0  0  0  0  0  0  0  0
   -2.0030    1.3960    1.7810 O   0  0  0  0  0  0  0  0  0  0  0  0
   -2.4310    2.3100    2.6360 O   0  0  0  0  0  0  0  0  0  0  0  0
   -1.5130   -0.6820    0.0910 C   0  0  1  0  0  0  0  0  0  0  0  0
   -2.7640   -0.5520   -0.5320 O   0  0  0  0  0  0  0  0  0  0  0  0
   -3.6220    0.2570    0.0560 N   0  0  0  0  0  0  0  0  0  0  0  0
   -1.7240   -1.0400    1.3750 O   0  0  0  0  0  0  0  0  0  0  0  0
   -2.6630   -2.4280    1.6480 P   0  0  0  0  0  0  0  0  0  0  0  0
  2  1  1  1
  2  3  1  0
  2  4  1  0
  2  6  1  0
  4  5  2  0
  6  7  1  0
  6 12  1  0
  6 15  1  6
  7  8  1  0
  8  9  1  6
  8 10  1  0
  8 22  1  0
 10 11  1  0
 12 11  1  6
 12 13  1  0
 12 16  1  0
 13 14  1  0
 14 15  1  0
 16 17  2  3
 16 22  1  0
 17 18  1  0
 17 20  1  0
 18 19  1  0
 20 21  1  0
 22 23  1  6
 22 25  1  0
 23 24  1  0
 25 26  1  0
M  END
