
     RDKit          3D

 19 19  0  0  0  0  0  0  0  0999 V2000
   -1.3030    3.3350   -0.4980 O   0  0  0  0  0  0  0  0  0  0  0  0
   -1.2740    3.2220    0.7630 C   0  0  0  0  0  0  0  0  0  0  0  0
   -1.8380    2.0660    1.2910 O   0  0  0  0  0  0  0  0  0  0  0  0
   -2.4170    1.0570    0.5070 C   0  0  2  0  0  0  0  0  0  0  0  0
   -3.7070    0.7440    0.8380 O   0  0  0  0  0  0  0  0  0  0  0  0
   -3.7530   -0.4260    1.3740 O   0  0  0  0  0  0  0  0  0  0  0  0
   -2.7840   -1.2240    0.7220 C   0  0  1  0  0  0  0  0  0  0  0  0
   -3.2750   -1.5390   -0.6220 C   0  0  0  0  0  0  0  0  0  0  0  0
   -2.5660   -2.2440   -1.3820 O   0  0  0  0  0  0  0  0  0  0  0  0
   -4.4870   -1.0900   -1.0840 O   0  0  0  0  0  0  0  0  0  0  0  0
   -1.6340   -0.2240    0.7080 C   0  0  1  0  0  0  0  0  0  0  0  0
   -0.7040   -0.4740   -0.2940 O   0  0  0  0  0  0  0  0  0  0  0  0
    0.6540   -0.6850   -0.0650 C   0  0  0  0  0  0  0  0  0  0  0  0
    1.0440   -0.6420    1.1290 O   0  0  0  0  0  0  0  0  0  0  0  0
    1.5970   -0.9390   -1.0740 N   0  0  0  0  0  0  0  0  0  0  0  0
    3.0100   -1.1570   -0.8340 C   0  0  0  0  0  0  0  0  0  0  0  0
    3.6200    0.0760   -0.1550 C   0  0  0  0  0  0  0  0  0  0  0  0
    4.9860   -0.1930    0.0520 O   0  0  0  0  0  0  0  0  0  0  0  0
    5.5530    0.8380    0.6330 O   0  0  0  0  0  0  0  0  0  0  0  0
  1  2  2  0
  2  3  1  0
  4  3  1  1
  4  5  1  0
  4 11  1  0
  5  6  1  0
  6  7  1  0
  7  8  1  6
  7 11  1  0
  8  9  2  0
  8 10  1  0
 11 12  1  6
 12 13  1  0
 13 14  2  0
 13 15  1  0
 15 16  1  0
 16 17  1  0
 17 18  1  0
 18 19  1  0
M  END
