
     RDKit          3D

 26 28  0  0  0  0  0  0  0  0999 V2000
   -4.6630    1.2280    1.7130 C   0  0  0  0  0  0  0  0  0  0  0  0
   -3.7540    0.2500    1.3170 O   0  0  0  0  0  0  0  0  0  0  0  0
   -2.8360    0.8370    0.4630 C   0  0  2  0  0  0  0  0  0  0  0  0
   -2.8740    0.1180   -0.7340 O   0  0  0  0  0  0  0  0  0  0  0  0
   -2.0140   -0.9110   -0.5750 C   0  0  2  0  0  0  0  0  0  0  0  0
   -1.6060   -1.4140   -1.9090 C   0  0  0  0  0  0  0  0  0  0  0  0
   -2.4740   -2.0990   -2.5540 N   0  0  0  0  0  0  0  0  0  0  0  0
   -2.7630   -2.3950    0.3060 P   0  0  0  0  0  0  0  0  0  0  0  0
   -1.1910   -3.8990    0.0430 S   0  0  0  0  0  0  0  0  0  0  0  0
    0.5860   -2.6740    0.1590 P   0  0  0  0  0  0  0  0  0  0  0  0
    0.3720   -1.0230    0.2350 C   0  0  0  0  0  0  0  0  0  0  0  0
    1.5150   -0.0900    0.3190 C   0  0  0  0  0  0  0  0  0  0  0  0
    1.4070    1.1950    0.3770 C   0  0  0  0  0  0  0  0  0  0  0  0
    2.1660    1.8520    1.1860 N   0  0  0  0  0  0  0  0  0  0  0  0
    3.5100    1.4040    1.3090 C   0  0  0  0  0  0  0  0  0  0  0  0
    4.3510    1.8910    2.1050 O   0  0  0  0  0  0  0  0  0  0  0  0
    3.9300    0.2840    0.4280 C   0  0  2  0  0  0  0  0  0  0  0  0
    5.0610   -0.3490    0.9300 O   0  0  0  0  0  0  0  0  0  0  0  0
    4.2590    0.8630   -0.9170 C   0  0  0  0  0  0  0  0  0  0  0  0
    3.4030    1.4600   -1.5290 O   0  0  0  0  0  0  0  0  0  0  0  0
    5.9220    0.6930   -1.6630 P   0  0  0  0  0  0  0  0  0  0  0  0
    7.0600    1.6570   -1.2450 O   0  0  0  0  0  0  0  0  0  0  0  0
    2.8280   -0.6020    0.3380 O   0  0  0  0  0  0  0  0  0  0  0  0
   -0.9270   -0.4420    0.2220 N   0  0  0  0  0  0  0  0  0  0  0  0
   -1.4360    0.6690    0.9480 C   0  0  0  0  0  0  0  0  0  0  0  0
   -0.8840    1.3880    1.8140 O   0  0  0  0  0  0  0  0  0  0  0  0
  1  2  1  0
  3  2  1  1
  3  4  1  0
  3 25  1  0
  4  5  1  0
  5  6  1  6
  5  8  1  0
  5 24  1  0
  6  7  2  0
  8  9  1  0
  9 10  1  0
 10 11  2  0
 11 12  1  0
 11 24  1  0
 12 13  2  0
 12 23  1  0
 13 14  2  0
 14 15  1  0
 15 16  2  0
 15 17  1  0
 17 18  1  1
 17 19  1  0
 17 23  1  0
 19 20  2  0
 19 21  1  0
 21 22  2  0
 24 25  1  0
 25 26  2  0
M  END
