
     RDKit          3D

 26 27  0  0  0  0  0  0  0  0999 V2000
    2.2620   -2.8800   -1.1900 C   0  0  0  0  0  0  0  0  0  0  0  0
    1.2090   -2.8240   -0.0010 S   0  0  2  0  0  0  0  0  0  0  0  0
   -0.1100   -2.3840   -0.7540 C   0  0  0  0  0  0  0  0  0  0  0  0
   -0.9030   -1.1960   -0.8120 C   0  0  0  0  0  0  0  0  0  0  0  0
   -2.0880   -1.2910   -1.1950 O   0  0  0  0  0  0  0  0  0  0  0  0
   -0.4980    0.1890   -0.4660 C   0  0  1  0  0  0  0  0  0  0  0  0
   -0.4050    0.8880   -1.6630 O   0  0  0  0  0  0  0  0  0  0  0  0
   -1.5440    0.9110   -2.3090 O   0  0  0  0  0  0  0  0  0  0  0  0
   -1.7220    2.3430   -3.2760 P   0  0  0  0  0  0  0  0  0  0  0  0
   -1.6050    0.7780    0.3200 C   0  0  0  0  0  0  0  0  0  0  0  0
   -1.9410    0.3590    1.4560 O   0  0  0  0  0  0  0  0  0  0  0  0
   -2.3160    1.8330   -0.1930 O   0  0  0  0  0  0  0  0  0  0  0  0
   -3.3280    2.4340    0.4300 O   0  0  0  0  0  0  0  0  0  0  0  0
   -4.7600    1.4580    0.4090 P   0  0  0  0  0  0  0  0  0  0  0  0
    0.8060    0.1920    0.3230 C   0  0  2  0  0  0  0  0  0  0  0  0
    0.6120   -0.7220    1.4780 C   0  0  1  0  0  0  0  0  0  0  0  0
    1.6840   -1.8210    1.3420 C   0  0  0  0  0  0  0  0  0  0  0  0
    0.5150   -0.2020    2.8160 C   0  0  0  0  0  0  0  0  0  0  0  0
   -0.2960   -0.8840    3.7640 O   0  0  0  0  0  0  0  0  0  0  0  0
    1.0730    0.8460    3.3430 C   0  0  0  0  0  0  0  0  0  0  0  0
    1.0440    2.1190    2.2550 P   0  0  0  0  0  0  0  0  0  0  0  0
    1.2390    1.4990    0.5870 N   0  0  0  0  0  0  0  0  0  0  0  0
    1.8170    2.3490   -0.3610 C   0  0  0  0  0  0  0  0  0  0  0  0
    2.1940    3.5320   -0.1180 O   0  0  0  0  0  0  0  0  0  0  0  0
    2.0120    1.8970   -1.6900 N   0  0  0  0  0  0  0  0  0  0  0  0
    3.0170    1.1870   -2.0040 N   0  0  0  0  0  0  0  0  0  0  0  0
  1  2  2  0
  2  3  2  0
  2 17  1  1
  3  4  1  0
  4  5  2  0
  4  6  1  0
  6  7  1  6
  6 10  1  0
  6 15  1  0
  7  8  1  0
  8  9  1  0
 10 11  2  0
 10 12  1  0
 12 13  1  0
 13 14  1  0
 15 16  1  0
 15 22  1  1
 16 17  1  1
 16 18  1  0
 18 19  1  0
 18 20  2  0
 20 21  2  0
 21 22  1  0
 22 23  1  0
 23 24  2  0
 23 25  1  0
 25 26  2  0
M  END
