
     RDKit          3D

 26 28  0  0  0  0  0  0  0  0999 V2000
   -4.0310    0.9900    1.5630 C   0  0  0  0  0  0  0  0  0  0  0  0
   -2.7270    0.7040    1.5660 C   0  0  0  0  0  0  0  0  0  0  0  0
   -2.0860    0.5970    2.7940 O   0  0  0  0  0  0  0  0  0  0  0  0
   -0.8190    0.1000    2.8890 O   0  0  0  0  0  0  0  0  0  0  0  0
   -0.1950   -0.2810    1.7340 C   0  0  0  0  0  0  0  0  0  0  0  0
   -0.7410   -0.1800    0.5060 C   0  0  0  0  0  0  0  0  0  0  0  0
    0.1680   -0.6970   -0.5560 C   0  0  2  0  0  0  0  0  0  0  0  0
   -0.3250   -0.6160   -1.8170 O   0  0  0  0  0  0  0  0  0  0  0  0
    0.4810   -1.0760   -2.7770 N   0  0  0  0  0  0  0  0  0  0  0  0
    0.6060   -2.0130   -0.2750 O   0  0  0  0  0  0  0  0  0  0  0  0
   -0.6930   -3.1330   -0.1530 P   0  0  0  0  0  0  0  0  0  0  0  0
   -1.4860   -3.5590   -1.4010 O   0  0  0  0  0  0  0  0  0  0  0  0
    1.4580    0.1490   -0.3920 C   0  0  0  0  0  0  0  0  0  0  0  0
    2.0120   -0.1150    0.9180 N   0  0  0  0  0  0  0  0  0  0  0  0
    3.3530   -0.5280    0.9720 C   0  0  0  0  0  0  0  0  0  0  0  0
    4.2690    0.5800    0.5760 C   0  0  0  0  0  0  0  0  0  0  0  0
    3.8050    1.6610    0.2260 O   0  0  0  0  0  0  0  0  0  0  0  0
    6.0960    0.4460    0.5740 P   0  0  0  0  0  0  0  0  0  0  0  0
    1.1180   -0.8280    1.7020 O   0  0  0  0  0  0  0  0  0  0  0  0
   -2.0100    0.5090    0.3000 C   0  0  2  0  0  0  0  0  0  0  0  0
   -1.5980    1.8580   -0.0480 O   0  0  0  0  0  0  0  0  0  0  0  0
   -3.0010    2.7490   -0.5350 P   0  0  0  0  0  0  0  0  0  0  0  0
   -3.8230    1.9790   -1.7300 N   0  0  0  0  0  0  0  0  0  0  0  0
   -3.1310    0.7320   -2.0610 C   0  0  0  0  0  0  0  0  0  0  0  0
   -2.8650   -0.0070   -0.7800 C   0  0  0  0  0  0  0  0  0  0  0  0
   -3.4030   -1.0900   -0.6540 O   0  0  0  0  0  0  0  0  0  0  0  0
  1  2  2  0
  2  3  1  0
  2 20  1  0
  3  4  1  0
  4  5  1  0
  5  6  2  0
  5 19  1  0
  6  7  1  0
  6 20  1  0
  7  8  1  6
  7 10  1  0
  7 13  1  0
  8  9  1  0
 10 11  1  0
 11 12  2  0
 13 14  1  0
 14 15  1  0
 14 19  1  0
 15 16  1  0
 16 17  2  0
 16 18  1  0
 20 21  1  6
 20 25  1  0
 21 22  1  0
 22 23  2  0
 23 24  1  0
 24 25  1  0
 25 26  2  0
M  END
