
     RDKit          3D

 26 27  0  0  0  0  0  0  0  0999 V2000
   -3.5550    3.3770   -0.3740 C   0  0  0  0  0  0  0  0  0  0  0  0
   -2.7490    2.6290   -1.2580 O   0  0  0  0  0  0  0  0  0  0  0  0
   -2.2910    1.3710   -0.7910 C   0  0  0  0  0  0  0  0  0  0  0  0
   -3.0000   -0.0020   -1.4370 P   0  0  0  0  0  0  0  0  0  0  0  0
   -2.2030   -1.5670   -0.6360 S   0  0  0  0  0  0  0  0  0  0  0  0
   -1.3160   -1.4480   -1.7750 O   0  0  0  0  0  0  0  0  0  0  0  0
   -2.5770   -2.9750   -0.8820 N   0  0  0  0  0  0  0  0  0  0  0  0
   -4.3230   -3.3950   -0.5620 P   0  0  0  0  0  0  0  0  0  0  0  0
   -3.0460   -1.3470    0.6790 N   0  0  0  0  0  0  0  0  0  0  0  0
   -4.0250   -0.4260    1.1050 N   0  0  0  0  0  0  0  0  0  0  0  0
   -5.0010   -0.1170    0.3940 O   0  0  0  0  0  0  0  0  0  0  0  0
   -0.7290   -1.0490    0.3250 C   0  0  0  0  0  0  0  0  0  0  0  0
   -0.5230    0.2020    0.5580 C   0  0  0  0  0  0  0  0  0  0  0  0
    0.6620    0.4410    1.3150 O   0  0  0  0  0  0  0  0  0  0  0  0
    1.8810   -0.1460    1.0120 C   0  0  2  0  0  0  0  0  0  0  0  0
    2.9390    0.2680    1.9690 C   0  0  0  0  0  0  0  0  0  0  0  0
    2.8220    0.7420    3.0740 O   0  0  0  0  0  0  0  0  0  0  0  0
    4.2180   -0.0220    1.2800 C   0  0  0  0  0  0  0  0  0  0  0  0
    3.9530    0.3660   -0.1430 C   0  0  1  0  0  0  0  0  0  0  0  0
    4.7260   -0.5370   -1.0810 C   0  0  0  0  0  0  0  0  0  0  0  0
    2.4750    0.2510   -0.3210 C   0  0  2  0  0  0  0  0  0  0  0  0
    2.0140    1.4930   -0.7630 O   0  0  0  0  0  0  0  0  0  0  0  0
    2.3110    2.4700    0.0500 O   0  0  0  0  0  0  0  0  0  0  0  0
    2.1450   -1.0080   -1.6350 P   0  0  0  0  0  0  0  0  0  0  0  0
    2.8850   -2.3880   -1.6080 O   0  0  0  0  0  0  0  0  0  0  0  0
   -1.2440    1.4050    0.2100 C   0  0  0  0  0  0  0  0  0  0  0  0
  1  2  1  0
  2  3  1  0
  3  4  2  0
  3 26  1  0
  4  5  1  0
  5  6  2  0
  5  7  1  0
  5  9  1  0
  5 12  1  0
  7  8  1  0
  9 10  1  0
 10 11  2  0
 12 13  2  0
 13 14  1  0
 13 26  1  0
 15 14  1  1
 15 16  1  0
 15 21  1  0
 16 17  2  0
 16 18  1  0
 18 19  1  0
 19 20  1  6
 19 21  1  0
 21 22  1  6
 21 24  1  0
 22 23  1  0
 24 25  2  0
M  END
