
     RDKit          3D

 27 29  0  0  0  0  0  0  0  0999 V2000
   -7.2870   -1.0540    0.7250 N   0  0  0  0  0  0  0  0  0  0  0  0
   -5.9390   -1.3920    0.3630 C   0  0  0  0  0  0  0  0  0  0  0  0
   -5.5020   -2.6110    0.1880 N   0  0  0  0  0  0  0  0  0  0  0  0
   -4.2080   -2.9050   -0.1790 C   0  0  0  0  0  0  0  0  0  0  0  0
   -3.3990   -1.8220   -0.3910 N   0  0  0  0  0  0  0  0  0  0  0  0
   -3.7520   -0.5740   -0.2410 C   0  0  0  0  0  0  0  0  0  0  0  0
   -5.0680   -0.3100    0.1560 C   0  0  0  0  0  0  0  0  0  0  0  0
   -5.2110    0.9760    0.1980 N   0  0  0  0  0  0  0  0  0  0  0  0
   -4.0540    1.5900   -0.1160 C   0  0  0  0  0  0  0  0  0  0  0  0
   -3.1470    0.5920   -0.4020 N   0  0  0  0  0  0  0  0  0  0  0  0
   -1.8080    0.9370   -0.7330 C   0  0  2  0  0  0  0  0  0  0  0  0
   -1.0770   -0.0850   -1.3370 O   0  0  0  0  0  0  0  0  0  0  0  0
    0.1130   -0.0040   -0.7620 C   0  0  2  0  0  0  0  0  0  0  0  0
    1.2560   -0.9080   -1.1720 C   0  0  0  0  0  0  0  0  0  0  0  0
    2.2340   -0.6580   -0.2210 O   0  0  0  0  0  0  0  0  0  0  0  0
    3.6160   -0.0120   -0.4710 P   0  0  0  0  0  0  0  0  0  0  0  0
    3.5960    1.7590   -0.2400 O   0  0  0  0  0  0  0  0  0  0  0  0
    4.1640   -0.0730    0.9540 O   0  0  0  0  0  0  0  0  0  0  0  0
    5.0210   -0.5710   -1.0470 O   0  0  0  0  0  0  0  0  0  0  0  0
    6.2740   -0.3640   -0.7030 S   0  0  2  0  0  0  0  0  0  0  0  0
    7.6300   -0.0360   -0.7150 O   0  0  0  0  0  0  0  0  0  0  0  0
    6.2680   -1.5010    1.0520 O   0  0  0  0  0  0  0  0  0  0  0  0
    5.9190    1.1150    0.8700 O   0  0  0  0  0  0  0  0  0  0  0  0
   -0.1670    0.0710    0.7030 C   0  0  1  0  0  0  0  0  0  0  0  0
    0.9140    0.4320    1.5010 O   0  0  0  0  0  0  0  0  0  0  0  0
   -1.1630    1.2480    0.6230 C   0  0  1  0  0  0  0  0  0  0  0  0
   -0.5140    2.4390    0.4750 O   0  0  0  0  0  0  0  0  0  0  0  0
  1  2  1  0
  2  3  2  0
  2  7  1  0
  3  4  1  0
  4  5  2  0
  5  6  1  0
  6  7  2  0
  6 10  1  0
  7  8  1  0
  8  9  2  0
  9 10  1  0
 11 10  1  1
 11 12  1  0
 11 26  1  0
 12 13  1  0
 13 14  1  1
 13 24  1  0
 14 15  1  0
 15 16  1  0
 16 17  1  0
 16 18  1  0
 16 19  1  0
 19 20  1  0
 20 21  1  0
 20 22  1  0
 20 23  1  0
 24 25  1  1
 24 26  1  0
 26 27  1  6
M  END
