
     RDKit          3D

 27 29  0  0  0  0  0  0  0  0999 V2000
    6.2620   -2.7400    0.4110 C   0  0  0  0  0  0  0  0  0  0  0  0
    5.7860   -1.5320   -0.3300 C   0  0  0  0  0  0  0  0  0  0  0  0
    4.4030   -1.1350    0.0560 C   0  0  0  0  0  0  0  0  0  0  0  0
    4.1980   -0.2550    1.0750 C   0  0  0  0  0  0  0  0  0  0  0  0
    2.9140    0.1160    1.4400 C   0  0  0  0  0  0  0  0  0  0  0  0
    1.7890   -0.3690    0.8090 C   0  0  0  0  0  0  0  0  0  0  0  0
    0.4000    0.0230    1.1880 C   0  0  0  0  0  0  0  0  0  0  0  0
   -0.2650    0.5850   -0.0100 N   0  0  0  0  0  0  0  0  0  0  0  0
    0.3760    1.7260   -0.5190 C   0  0  0  0  0  0  0  0  0  0  0  0
    0.2490    2.9280    0.4360 C   0  0  2  0  0  0  0  0  0  0  0  0
   -1.1390    3.1800    0.8940 C   0  0  0  0  0  0  0  0  0  0  0  0
   -1.8930    4.0340    0.1340 O   0  0  0  0  0  0  0  0  0  0  0  0
   -1.1890    5.2080   -0.0740 C   0  0  0  0  0  0  0  0  0  0  0  0
    0.0610    4.8170   -0.8740 C   0  0  0  0  0  0  0  0  0  0  0  0
    0.8880    4.0140   -0.1170 O   0  0  0  0  0  0  0  0  0  0  0  0
   -1.4260   -0.0930   -0.4600 C   0  0  0  0  0  0  0  0  0  0  0  0
   -1.7960   -1.1680    0.1920 N   0  0  0  0  0  0  0  0  0  0  0  0
   -2.9250   -1.9590   -0.1240 C   0  0  0  0  0  0  0  0  0  0  0  0
   -3.2410   -3.0340    0.5790 C   0  0  0  0  0  0  0  0  0  0  0  0
   -4.3680   -3.9130    0.3450 C   0  0  0  0  0  0  0  0  0  0  0  0
   -5.2900   -3.9890    1.4660 N   0  0  0  0  0  0  0  0  0  0  0  0
   -3.6930   -1.5260   -1.2380 N   0  0  0  0  0  0  0  0  0  0  0  0
   -3.2920   -0.3650   -1.9410 C   0  0  0  0  0  0  0  0  0  0  0  0
   -2.2130    0.3260   -1.5790 C   0  0  0  0  0  0  0  0  0  0  0  0
   -1.8480    1.4890   -2.3230 N   0  0  0  0  0  0  0  0  0  0  0  0
    2.0230   -1.2670   -0.2310 C   0  0  0  0  0  0  0  0  0  0  0  0
    3.2930   -1.6480   -0.6070 C   0  0  0  0  0  0  0  0  0  0  0  0
  1  2  1  0
  2  3  1  0
  3  4  2  0
  3 27  1  0
  4  5  1  0
  5  6  2  0
  6  7  1  0
  6 26  1  0
  7  8  1  0
  8  9  1  0
  8 16  1  0
 10  9  1  6
 10 11  1  0
 10 15  1  0
 11 12  1  0
 12 13  1  0
 13 14  1  0
 14 15  1  0
 16 17  2  0
 16 24  1  0
 17 18  1  0
 18 19  2  3
 18 22  1  0
 19 20  1  0
 20 21  1  0
 22 23  1  0
 23 24  2  0
 24 25  1  0
 26 27  2  0
M  CHG  1  21   1
M  END
