
     RDKit          3D

 26 29  0  0  0  0  0  0  0  0999 V2000
    3.7410   -2.4200    0.5540 C   0  0  0  0  0  0  0  0  0  0  0  0
    2.4810   -2.6220   -0.1990 C   0  0  0  0  0  0  0  0  0  0  0  0
    1.3980   -1.5600    0.0880 C   0  0  0  0  0  0  0  0  0  0  0  0
    1.9060   -0.2520   -0.2940 C   0  0  1  0  0  0  0  0  0  0  0  0
    2.3370   -0.1100   -1.7580 C   0  0  0  0  0  0  0  0  0  0  0  0
    3.5680    0.8190   -1.6960 C   0  0  0  0  0  0  0  0  0  0  0  0
    3.3320    1.8830   -0.6870 C   0  0  0  0  0  0  0  0  0  0  0  0
    4.2630    2.5700   -0.2630 O   0  0  0  0  0  0  0  0  0  0  0  0
    1.9510    2.1130   -0.1940 C   0  0  0  0  0  0  0  0  0  0  0  0
    1.4970    3.3930   -0.0070 C   0  0  0  0  0  0  0  0  0  0  0  0
    0.1890    3.5880    0.3660 C   0  0  0  0  0  0  0  0  0  0  0  0
   -0.3730    4.9310    0.5980 C   0  0  0  0  0  0  0  0  0  0  0  0
   -0.6040    2.4930    0.5330 C   0  0  0  0  0  0  0  0  0  0  0  0
   -0.1320    1.1670    0.3410 C   0  0  0  0  0  0  0  0  0  0  0  0
   -1.0690    0.1010    0.5880 C   0  0  0  0  0  0  0  0  0  0  0  0
   -1.0350   -0.6260    1.7240 C   0  0  0  0  0  0  0  0  0  0  0  0
   -2.0030   -1.5580    1.9880 C   0  0  0  0  0  0  0  0  0  0  0  0
   -2.0100   -2.3710    3.2310 C   0  0  0  0  0  0  0  0  0  0  0  0
   -3.0290   -1.7700    1.1010 C   0  0  0  0  0  0  0  0  0  0  0  0
   -4.0160   -2.7180    1.3700 O   0  0  0  0  0  0  0  0  0  0  0  0
   -3.0960   -1.0450   -0.0720 C   0  0  0  0  0  0  0  0  0  0  0  0
   -2.1020   -0.1120   -0.3060 C   0  0  0  0  0  0  0  0  0  0  0  0
   -2.3610    0.5560   -1.6250 C   0  0  0  0  0  0  0  0  0  0  0  0
   -3.3830   -0.3200   -2.2730 C   0  0  0  0  0  0  0  0  0  0  0  0
   -4.0810   -1.0790   -1.1880 C   0  0  0  0  0  0  0  0  0  0  0  0
    1.1460    0.9730   -0.0200 C   0  0  0  0  0  0  0  0  0  0  0  0
  1  2  1  0
  2  3  1  0
  4  3  1  6
  4  5  1  0
  4 26  1  0
  5  6  1  0
  6  7  1  0
  7  8  2  0
  7  9  1  0
  9 10  2  0
  9 26  1  0
 10 11  1  0
 11 12  1  0
 11 13  2  0
 13 14  1  0
 14 15  1  0
 14 26  2  0
 15 16  2  0
 15 22  1  0
 16 17  1  0
 17 18  1  0
 17 19  2  0
 19 20  1  0
 19 21  1  0
 21 22  2  0
 21 25  1  0
 22 23  1  0
 23 24  1  0
 24 25  1  0
M  END
