
     RDKit          3D

 26 28  0  0  0  0  0  0  0  0999 V2000
   -5.3280    2.1620   -1.2750 C   0  0  0  0  0  0  0  0  0  0  0  0
   -4.2720    1.4510   -0.9280 C   0  0  0  0  0  0  0  0  0  0  0  0
   -4.0990    0.1550   -1.6700 C   0  0  0  0  0  0  0  0  0  0  0  0
   -4.0880   -0.9340   -0.6170 C   0  0  0  0  0  0  0  0  0  0  0  0
   -2.7500   -1.0070    0.0250 C   0  0  0  0  0  0  0  0  0  0  0  0
   -2.0790   -2.1910   -0.2050 C   0  0  0  0  0  0  0  0  0  0  0  0
   -2.7380   -3.2360   -1.0420 C   0  0  0  0  0  0  0  0  0  0  0  0
   -0.8260   -2.4390    0.3110 C   0  0  0  0  0  0  0  0  0  0  0  0
   -0.2320   -1.4440    1.0920 C   0  0  0  0  0  0  0  0  0  0  0  0
   -0.8940   -0.2580    1.3260 C   0  0  0  0  0  0  0  0  0  0  0  0
   -0.3340    0.7430    2.0930 O   0  0  0  0  0  0  0  0  0  0  0  0
    0.9460    0.5900    2.6560 C   0  0  0  0  0  0  0  0  0  0  0  0
    2.0130    0.4170    1.6160 C   0  0  0  0  0  0  0  0  0  0  0  0
    1.7510    0.7350    0.2940 C   0  0  0  0  0  0  0  0  0  0  0  0
    2.7290    0.5790   -0.6850 C   0  0  0  0  0  0  0  0  0  0  0  0
    3.9760    0.1040   -0.3420 C   0  0  0  0  0  0  0  0  0  0  0  0
    5.0490   -0.0770   -1.3510 C   0  0  1  0  0  0  0  0  0  0  0  0
    6.2500    0.7460   -0.8870 C   0  0  0  0  0  0  0  0  0  0  0  0
    5.4950   -1.5180   -1.3740 C   0  0  0  0  0  0  0  0  0  0  0  0
    4.2180   -0.2070    0.9790 C   0  0  0  0  0  0  0  0  0  0  0  0
    3.2590   -0.0580    1.9590 C   0  0  0  0  0  0  0  0  0  0  0  0
   -2.1590   -0.0330    0.7930 C   0  0  0  0  0  0  0  0  0  0  0  0
   -2.6380    1.2890    1.1850 C   0  0  2  0  0  0  0  0  0  0  0  0
   -3.4610    1.2570    2.3100 O   0  0  0  0  0  0  0  0  0  0  0  0
   -3.4050    1.9770    0.1160 C   0  0  0  0  0  0  0  0  0  0  0  0
   -3.2730    3.2810    0.1160 C   0  0  0  0  0  0  0  0  0  0  0  0
  1  2  2  0
  2  3  1  0
  2 25  1  0
  3  4  1  0
  4  5  1  0
  5  6  2  0
  5 22  1  0
  6  7  1  0
  6  8  1  0
  8  9  2  0
  9 10  1  0
 10 11  1  0
 10 22  2  0
 11 12  1  0
 12 13  1  0
 13 14  2  0
 13 21  1  0
 14 15  1  0
 15 16  2  0
 16 17  1  0
 16 20  1  0
 17 18  1  1
 17 19  1  0
 20 21  2  0
 22 23  1  0
 23 24  1  1
 23 25  1  0
 25 26  2  0
M  END
