
     RDKit          3D

 26 28  0  0  0  0  0  0  0  0999 V2000
    4.5230    1.5420   -3.1020 C   0  0  0  0  0  0  0  0  0  0  0  0
    5.2080    1.1060   -1.8670 C   0  0  0  0  0  0  0  0  0  0  0  0
    4.6600    0.6790   -0.7700 C   0  0  0  0  0  0  0  0  0  0  0  0
    5.3810    0.2450    0.4690 C   0  0  0  0  0  0  0  0  0  0  0  0
    4.3480    0.2980    1.5760 C   0  0  0  0  0  0  0  0  0  0  0  0
    3.1060    0.9160    0.9860 C   0  0  0  0  0  0  0  0  0  0  0  0
    3.2200    0.5160   -0.4670 C   0  0  0  0  0  0  0  0  0  0  0  0
    2.3100    0.1480   -1.3150 C   0  0  0  0  0  0  0  0  0  0  0  0
    0.8930   -0.0190   -1.0240 C   0  0  0  0  0  0  0  0  0  0  0  0
   -0.0340    0.8270   -1.6720 C   0  0  0  0  0  0  0  0  0  0  0  0
   -1.3700    0.6420   -1.4500 C   0  0  0  0  0  0  0  0  0  0  0  0
   -1.8880   -0.3350   -0.6170 C   0  0  0  0  0  0  0  0  0  0  0  0
   -3.3160   -0.3840   -0.3720 C   0  0  0  0  0  0  0  0  0  0  0  0
   -4.0230    0.6660   -0.0520 C   0  0  0  0  0  0  0  0  0  0  0  0
   -3.6340    2.0320    0.1450 C   0  0  0  0  0  0  0  0  0  0  0  0
   -2.4890    2.5340    0.0890 O   0  0  0  0  0  0  0  0  0  0  0  0
   -4.7200    3.0220    0.4650 C   0  0  0  0  0  0  0  0  0  0  0  0
   -4.2230    4.2880    0.6410 O   0  0  0  0  0  0  0  0  0  0  0  0
   -4.0960   -1.6540   -0.6070 C   0  0  0  0  0  0  0  0  0  0  0  0
   -5.5980   -1.4180   -0.4810 C   0  0  0  0  0  0  0  0  0  0  0  0
   -0.9460   -1.1580    0.0120 C   0  0  0  0  0  0  0  0  0  0  0  0
    0.4030   -0.9850   -0.2030 C   0  0  0  0  0  0  0  0  0  0  0  0
    1.3210   -1.9200    0.4710 C   0  0  0  0  0  0  0  0  0  0  0  0
    0.8730   -1.9070    1.9390 C   0  0  0  0  0  0  0  0  0  0  0  0
   -0.4180   -2.6700    1.9760 C   0  0  0  0  0  0  0  0  0  0  0  0
   -1.3860   -2.2150    0.9400 C   0  0  0  0  0  0  0  0  0  0  0  0
  1  2  1  0
  2  3  2  3
  3  4  1  0
  3  7  1  0
  4  5  1  0
  5  6  1  0
  6  7  1  0
  7  8  2  3
  8  9  1  0
  9 10  2  0
  9 22  1  0
 10 11  1  0
 11 12  2  0
 12 13  1  0
 12 21  1  0
 13 14  2  3
 13 19  1  0
 14 15  1  0
 15 16  2  0
 15 17  1  0
 17 18  1  0
 19 20  1  0
 21 22  2  0
 21 26  1  0
 22 23  1  0
 23 24  1  0
 24 25  1  0
 25 26  1  0
M  END
