
     RDKit          3D

 26 28  0  0  0  0  0  0  0  0999 V2000
    3.7210    4.4000    1.7430 C   0  0  0  0  0  0  0  0  0  0  0  0
    3.2820    3.0550    1.2320 C   0  0  0  0  0  0  0  0  0  0  0  0
    3.5400    1.9040    1.9480 C   0  0  0  0  0  0  0  0  0  0  0  0
    3.1280    0.6790    1.4510 C   0  0  0  0  0  0  0  0  0  0  0  0
    2.4570    0.5510    0.2490 C   0  0  0  0  0  0  0  0  0  0  0  0
    2.1390   -0.7410   -0.2820 C   0  0  0  0  0  0  0  0  0  0  0  0
    1.0340   -1.3630   -0.5520 C   0  0  0  0  0  0  0  0  0  0  0  0
   -0.3280   -0.9090   -0.3680 C   0  0  0  0  0  0  0  0  0  0  0  0
   -1.2510   -1.6710   -0.8240 O   0  0  0  0  0  0  0  0  0  0  0  0
   -0.7320    0.3080    0.2810 C   0  0  0  0  0  0  0  0  0  0  0  0
   -1.9220    0.8140    0.4710 C   0  0  0  0  0  0  0  0  0  0  0  0
   -2.0160    2.1710    1.2160 C   0  0  0  0  0  0  0  0  0  0  0  0
   -3.2210    1.9900    2.0820 C   0  0  0  0  0  0  0  0  0  0  0  0
   -3.9390    0.7700    1.6220 C   0  0  0  0  0  0  0  0  0  0  0  0
   -3.3080    0.5590    0.2180 C   0  0  2  0  0  0  0  0  0  0  0  0
   -3.8060   -0.7450   -0.2450 C   0  0  0  0  0  0  0  0  0  0  0  0
   -3.9470    1.6600   -0.6300 C   0  0  0  0  0  0  0  0  0  0  0  0
    1.2150   -2.6880   -1.2140 C   0  0  0  0  0  0  0  0  0  0  0  0
    0.2630   -3.6740   -1.1970 C   0  0  0  0  0  0  0  0  0  0  0  0
    0.4330   -4.8710   -1.9110 C   0  0  0  0  0  0  0  0  0  0  0  0
    1.5620   -5.0980   -2.6520 C   0  0  0  0  0  0  0  0  0  0  0  0
    1.7020   -6.3070   -3.3550 O   0  0  0  0  0  0  0  0  0  0  0  0
    2.5220   -4.1300   -2.6800 C   0  0  0  0  0  0  0  0  0  0  0  0
    2.3420   -2.9370   -1.9650 C   0  0  0  0  0  0  0  0  0  0  0  0
    2.2180    1.7220   -0.4370 C   0  0  0  0  0  0  0  0  0  0  0  0
    2.6180    2.9540    0.0370 C   0  0  0  0  0  0  0  0  0  0  0  0
  1  2  1  0
  2  3  2  0
  2 26  1  0
  3  4  1  0
  4  5  2  0
  5  6  1  0
  5 25  1  0
  6  7  2  3
  7  8  1  0
  7 18  1  0
  8  9  2  0
  8 10  1  0
 10 11  2  3
 11 12  1  0
 11 15  1  0
 12 13  1  0
 13 14  1  0
 14 15  1  0
 15 16  1  6
 15 17  1  0
 18 19  2  0
 18 24  1  0
 19 20  1  0
 20 21  2  0
 21 22  1  0
 21 23  1  0
 23 24  2  0
 25 26  2  0
M  END
