
     RDKit          3D

 27 29  0  0  0  0  0  0  0  0999 V2000
   -4.8550   -1.8560   -2.8410 N   0  0  0  0  0  0  0  0  0  0  0  0
   -4.9170   -0.6970   -2.0020 C   0  0  0  0  0  0  0  0  0  0  0  0
   -4.1110   -0.8610   -0.7200 C   0  0  0  0  0  0  0  0  0  0  0  0
   -4.2420    0.3330    0.0270 N   0  0  0  0  0  0  0  0  0  0  0  0
   -3.5650    0.4220    1.2700 C   0  0  1  0  0  0  0  0  0  0  0  0
   -3.9810   -0.5960    2.2790 C   0  0  0  0  0  0  0  0  0  0  0  0
   -3.3580   -0.2040    3.6030 C   0  0  0  0  0  0  0  0  0  0  0  0
   -1.8550   -0.3350    3.5020 C   0  0  0  0  0  0  0  0  0  0  0  0
   -1.2760    0.4000    2.3520 C   0  0  0  0  0  0  0  0  0  0  0  0
   -2.0920    0.4240    1.0950 C   0  0  2  0  0  0  0  0  0  0  0  0
   -1.7490    1.7310    0.3570 C   0  0  0  0  0  0  0  0  0  0  0  0
   -0.3590    1.8960    0.1260 N   0  0  0  0  0  0  0  0  0  0  0  0
    0.4210    1.0980   -0.7380 C   0  0  0  0  0  0  0  0  0  0  0  0
   -0.0840    0.2120   -1.6630 C   0  0  0  0  0  0  0  0  0  0  0  0
    0.7500   -0.5480   -2.4630 C   0  0  0  0  0  0  0  0  0  0  0  0
    2.0910   -0.4440   -2.3620 N   0  0  0  0  0  0  0  0  0  0  0  0
    2.6400    0.4050   -1.4770 C   0  0  0  0  0  0  0  0  0  0  0  0
    4.1110    0.5000   -1.3840 C   0  0  0  0  0  0  0  0  0  0  0  0
    4.5910    1.3210   -0.5420 O   0  0  0  0  0  0  0  0  0  0  0  0
    4.9260   -0.3080   -2.2170 N   0  0  0  0  0  0  0  0  0  0  0  0
    6.3580   -0.1680   -2.0760 C   0  0  0  0  0  0  0  0  0  0  0  0
    6.7730   -0.5150   -0.6880 C   0  0  0  0  0  0  0  0  0  0  0  0
    6.0060   -1.0290    0.3310 C   0  0  0  0  0  0  0  0  0  0  0  0
    6.8510   -1.1730    1.4150 C   0  0  0  0  0  0  0  0  0  0  0  0
    8.0980   -0.7420    1.0180 C   0  0  0  0  0  0  0  0  0  0  0  0
    7.9780   -0.3700   -0.2290 O   0  0  0  0  0  0  0  0  0  0  0  0
    1.8200    1.1590   -0.6830 C   0  0  0  0  0  0  0  0  0  0  0  0
  1  2  1  0
  2  3  1  0
  3  4  1  0
  5  4  1  6
  5  6  1  0
  5 10  1  0
  6  7  1  0
  7  8  1  0
  8  9  1  0
  9 10  1  0
 10 11  1  1
 11 12  1  0
 12 13  1  0
 13 14  2  0
 13 27  1  0
 14 15  1  0
 15 16  2  0
 16 17  1  0
 17 18  1  0
 17 27  2  0
 18 19  2  0
 18 20  1  0
 20 21  1  0
 21 22  1  0
 22 23  2  0
 22 26  1  0
 23 24  1  0
 24 25  2  0
 25 26  1  0
M  CHG  1   1   1
M  END
