
     RDKit          3D

 26 28  0  0  0  0  0  0  0  0999 V2000
   -2.6790    4.9910    0.2070 C   0  0  0  0  0  0  0  0  0  0  0  0
   -2.4630    3.5270   -0.0230 C   0  0  0  0  0  0  0  0  0  0  0  0
   -1.2030    2.9970   -0.1630 C   0  0  0  0  0  0  0  0  0  0  0  0
   -0.9990    1.6380   -0.3770 C   0  0  0  0  0  0  0  0  0  0  0  0
   -2.0470    0.7500   -0.4610 C   0  0  0  0  0  0  0  0  0  0  0  0
   -3.3130    1.3060   -0.3170 C   0  0  0  0  0  0  0  0  0  0  0  0
   -3.5180    2.6450   -0.1050 C   0  0  0  0  0  0  0  0  0  0  0  0
   -4.8990    3.1990    0.0440 C   0  0  0  0  0  0  0  0  0  0  0  0
   -1.8590   -0.6810   -0.7060 C   0  0  2  0  0  0  0  0  0  0  0  0
   -2.6590   -1.5340    0.2280 C   0  0  0  0  0  0  0  0  0  0  0  0
   -2.3920   -2.9940    0.1330 C   0  0  2  0  0  0  0  0  0  0  0  0
   -3.4470   -3.6450   -0.7830 C   0  0  0  0  0  0  0  0  0  0  0  0
   -2.6460   -3.6340    1.5030 C   0  0  0  0  0  0  0  0  0  0  0  0
   -1.0770   -3.4500   -0.3440 C   0  0  0  0  0  0  0  0  0  0  0  0
   -0.1990   -2.4980   -1.0020 C   0  0  0  0  0  0  0  0  0  0  0  0
    0.7530   -2.8580   -1.7090 O   0  0  0  0  0  0  0  0  0  0  0  0
   -0.4670   -1.0600   -0.8080 C   0  0  0  0  0  0  0  0  0  0  0  0
    0.5300   -0.2100   -0.7220 C   0  0  0  0  0  0  0  0  0  0  0  0
    1.9290   -0.6510   -0.8370 C   0  0  0  0  0  0  0  0  0  0  0  0
    2.8880    0.2540   -0.7530 C   0  0  0  0  0  0  0  0  0  0  0  0
    4.3380   -0.0990   -0.8580 C   0  0  0  0  0  0  0  0  0  0  0  0
    5.0110    0.3150    0.4190 C   0  0  1  0  0  0  0  0  0  0  0  0
    4.8590    1.8060    0.6300 C   0  0  0  0  0  0  0  0  0  0  0  0
    4.4590   -0.4280    1.6000 C   0  0  0  0  0  0  0  0  0  0  0  0
    6.4840   -0.0180    0.3100 C   0  0  0  0  0  0  0  0  0  0  0  0
    0.2820    1.1530   -0.5070 O   0  0  0  0  0  0  0  0  0  0  0  0
  1  2  1  0
  2  3  2  0
  2  7  1  0
  3  4  1  0
  4  5  2  0
  4 26  1  0
  5  6  1  0
  5  9  1  0
  6  7  2  0
  7  8  1  0
  9 10  1  1
  9 17  1  0
 10 11  1  0
 11 12  1  6
 11 13  1  0
 11 14  1  0
 14 15  1  0
 15 16  2  0
 15 17  1  0
 17 18  2  0
 18 19  1  0
 18 26  1  0
 19 20  2  3
 20 21  1  0
 21 22  1  0
 22 23  1  1
 22 24  1  0
 22 25  1  0
M  END
