
     RDKit          3D

 13 13  0  0  0  0  0  0  0  0999 V2000
    4.7950   -0.4590    0.9280 C   0  0  0  0  0  0  0  0  0  0  0  0
    3.4290   -0.5230    1.3370 O   0  0  0  0  0  0  0  0  0  0  0  0
    2.4060   -0.1270    0.4740 C   0  0  0  0  0  0  0  0  0  0  0  0
    2.7590    0.2710   -0.6350 O   0  0  0  0  0  0  0  0  0  0  0  0
    1.0510   -0.2020    0.9060 C   0  0  0  0  0  0  0  0  0  0  0  0
   -0.0540    0.1270    0.2710 C   0  0  0  0  0  0  0  0  0  0  0  0
   -1.3530   -0.0060    0.8260 N   0  0  0  0  0  0  0  0  0  0  0  0
   -2.3980   -0.2660   -0.1110 C   0  0  2  0  0  0  0  0  0  0  0  0
   -3.4160    0.8480   -0.0150 C   0  0  0  0  0  0  0  0  0  0  0  0
   -3.0240   -1.6250    0.0340 C   0  0  0  0  0  0  0  0  0  0  0  0
   -1.5740   -0.0990   -1.7210 S   0  0  0  0  0  0  0  0  0  0  0  0
   -0.1000    0.6760   -1.0180 N   0  0  0  0  0  0  0  0  0  0  0  0
    0.6540    1.6120   -1.7670 C   0  0  0  0  0  0  0  0  0  0  0  0
  1  2  1  0
  2  3  1  0
  3  4  2  0
  3  5  1  0
  5  6  2  3
  6  7  1  0
  6 12  1  0
  7  8  1  0
  8  9  1  6
  8 10  1  0
  8 11  1  0
 11 12  1  0
 12 13  1  0
M  END
