
     RDKit          3D

 13 13  0  0  0  0  0  0  0  0999 V2000
   -2.7500   -1.7770   -0.8380 C   0  0  0  0  0  0  0  0  0  0  0  0
   -1.6400   -1.1100   -0.5390 C   0  0  0  0  0  0  0  0  0  0  0  0
   -0.4450   -1.6220   -1.1070 N   0  0  0  0  0  0  0  0  0  0  0  0
    0.7790   -1.0620   -0.9040 N   0  0  0  0  0  0  0  0  0  0  0  0
    1.0960   -0.0360   -0.2140 C   0  0  0  0  0  0  0  0  0  0  0  0
    2.4660    0.3970   -0.1270 C   0  0  0  0  0  0  0  0  0  0  0  0
    2.7510    1.4060    0.5560 O   0  0  0  0  0  0  0  0  0  0  0  0
    3.5250   -0.2470   -0.7690 O   0  0  0  0  0  0  0  0  0  0  0  0
    4.8610    0.2250   -0.6480 C   0  0  0  0  0  0  0  0  0  0  0  0
   -0.1520    0.8780    0.6540 S   0  0  0  0  0  0  0  0  0  0  0  0
   -1.6980    0.0580    0.3160 C   0  0  0  0  0  0  0  0  0  0  0  0
   -2.7840    0.5330    0.8400 C   0  0  0  0  0  0  0  0  0  0  0  0
   -2.7910    1.7530    1.7240 C   0  0  0  0  0  0  0  0  0  0  0  0
  1  2  2  0
  2  3  1  0
  2 11  1  0
  3  4  1  0
  4  5  2  0
  5  6  1  0
  5 10  1  0
  6  7  2  0
  6  8  1  0
  8  9  1  0
 10 11  1  0
 11 12  2  3
 12 13  1  0
M  END
