
     RDKit          3D

 13 14  0  0  0  0  0  0  0  0999 V2000
   -3.4140   -2.1590   -0.3250 O   0  0  0  0  0  0  0  0  0  0  0  0
   -3.4560   -0.9170   -0.1310 C   0  0  0  0  0  0  0  0  0  0  0  0
   -2.2000   -0.1450   -0.0150 C   0  0  0  0  0  0  0  0  0  0  0  0
   -0.9340   -0.6790   -0.1030 C   0  0  0  0  0  0  0  0  0  0  0  0
    0.0010    0.3180    0.0500 C   0  0  0  0  0  0  0  0  0  0  0  0
    1.4910    0.1850    0.0240 C   0  0  0  0  0  0  0  0  0  0  0  0
    2.3080    1.3740    0.2070 C   0  0  0  0  0  0  0  0  0  0  0  0
    3.9160    0.6930    0.0940 S   0  0  0  0  0  0  0  0  0  0  0  0
    3.4350   -1.0140   -0.1710 C   0  0  0  0  0  0  0  0  0  0  0  0
    4.2080   -1.9730   -0.3240 O   0  0  0  0  0  0  0  0  0  0  0  0
    2.1180   -0.9210   -0.1520 N   0  0  0  0  0  0  0  0  0  0  0  0
   -0.7250    1.4690    0.2330 C   0  0  0  0  0  0  0  0  0  0  0  0
   -2.0550    1.1600    0.1890 N   0  0  0  0  0  0  0  0  0  0  0  0
  1  2  2  0
  2  3  1  0
  3  4  2  0
  3 13  1  0
  4  5  1  0
  5  6  1  0
  5 12  2  0
  6  7  2  0
  6 11  1  0
  7  8  1  0
  8  9  1  0
  9 10  2  0
  9 11  1  0
 12 13  1  0
M  END
