
     RDKit          3D

 13 14  0  0  0  0  0  0  0  0999 V2000
    2.8430   -1.7260   -1.0030 O   0  0  0  0  0  0  0  0  0  0  0  0
    1.9780   -0.7890   -0.4580 C   0  0  0  0  0  0  0  0  0  0  0  0
    2.4770    0.3480    0.1380 C   0  0  0  0  0  0  0  0  0  0  0  0
    1.5720    1.2330    0.6570 C   0  0  0  0  0  0  0  0  0  0  0  0
    0.1830    0.9890    0.5830 C   0  0  0  0  0  0  0  0  0  0  0  0
   -0.6670    1.9270    1.1280 O   0  0  0  0  0  0  0  0  0  0  0  0
   -0.3060   -0.1380   -0.0070 C   0  0  0  0  0  0  0  0  0  0  0  0
   -1.7580   -0.4300   -0.1040 C   0  0  0  0  0  0  0  0  0  0  0  0
   -2.7760    0.3570    0.3660 C   0  0  0  0  0  0  0  0  0  0  0  0
   -4.2880   -0.5260   -0.0480 S   0  0  0  0  0  0  0  0  0  0  0  0
   -3.2740   -1.8970   -0.8350 N   0  0  0  0  0  0  0  0  0  0  0  0
   -2.2480   -1.5390   -0.6850 N   0  0  0  0  0  0  0  0  0  0  0  0
    0.6240   -1.0310   -0.5320 C   0  0  0  0  0  0  0  0  0  0  0  0
  1  2  1  0
  2  3  2  0
  2 13  1  0
  3  4  1  0
  4  5  2  0
  5  6  1  0
  5  7  1  0
  7  8  1  0
  7 13  2  0
  8  9  2  0
  8 12  1  0
  9 10  1  0
 10 11  1  0
 11 12  2  0
M  END
