
     RDKit          3D

 13 14  0  0  0  0  0  0  0  0999 V2000
    4.4210   -0.2960    0.6740 O   0  0  0  0  0  0  0  0  0  0  0  0
    3.1790   -0.2230    0.5110 C   0  0  0  0  0  0  0  0  0  0  0  0
    2.6630   -0.1970   -0.7560 C   0  0  0  0  0  0  0  0  0  0  0  0
    1.3000   -0.1170   -0.8810 C   0  0  0  0  0  0  0  0  0  0  0  0
    0.4900   -0.0660    0.2240 N   0  0  0  0  0  0  0  0  0  0  0  0
   -0.9270    0.0440    0.0460 C   0  0  0  0  0  0  0  0  0  0  0  0
   -1.5170    0.2310   -1.1310 C   0  0  0  0  0  0  0  0  0  0  0  0
   -2.9800    0.2930   -0.8760 C   0  0  0  0  0  0  0  0  0  0  0  0
   -3.0940   -0.5310    0.2200 O   0  0  0  0  0  0  0  0  0  0  0  0
   -2.0190   -0.0600    1.0300 C   0  0  0  0  0  0  0  0  0  0  0  0
    1.0330   -0.0930    1.4430 C   0  0  0  0  0  0  0  0  0  0  0  0
    0.1420   -0.0020    2.8050 S   0  0  0  0  0  0  0  0  0  0  0  0
    2.3910   -0.1730    1.5910 N   0  0  0  0  0  0  0  0  0  0  0  0
  1  2  2  0
  2  3  1  0
  2 13  1  0
  3  4  2  0
  4  5  1  0
  5  6  1  0
  5 11  1  0
  6  7  2  0
  6 10  1  0
  7  8  1  0
  8  9  1  0
  9 10  1  0
 11 12  2  0
 11 13  1  0
M  END
