
     RDKit          3D

 13 14  0  0  0  0  0  0  0  0999 V2000
   -4.6240   -0.1760    0.9960 O   0  0  0  0  0  0  0  0  0  0  0  0
   -4.1500   -0.5970   -0.2620 C   0  0  0  0  0  0  0  0  0  0  0  0
   -2.8300    0.0240   -0.4700 C   0  0  0  0  0  0  0  0  0  0  0  0
   -2.2260    0.9630   -0.8940 N   0  0  0  0  0  0  0  0  0  0  0  0
   -0.9420    1.1090   -0.8670 N   0  0  0  0  0  0  0  0  0  0  0  0
   -0.1870    0.2980   -0.4010 C   0  0  0  0  0  0  0  0  0  0  0  0
    1.2730    0.1790   -0.2270 C   0  0  0  0  0  0  0  0  0  0  0  0
    1.8340   -0.8510    0.3330 C   0  0  0  0  0  0  0  0  0  0  0  0
    3.2730   -0.9730    0.5070 C   0  0  0  0  0  0  0  0  0  0  0  0
    3.9590    0.1300    0.0070 O   0  0  0  0  0  0  0  0  0  0  0  0
    3.3650    1.2100   -0.5810 C   0  0  0  0  0  0  0  0  0  0  0  0
    2.0490    1.2820   -0.7200 C   0  0  0  0  0  0  0  0  0  0  0  0
   -1.3430   -0.9890    0.1540 S   0  0  0  0  0  0  0  0  0  0  0  0
  1  2  1  0
  2  3  1  0
  3  4  2  0
  3 13  1  0
  4  5  1  0
  5  6  2  0
  6  7  1  0
  6 13  1  0
  7  8  2  0
  7 12  1  0
  8  9  1  0
  9 10  1  0
 10 11  1  0
 11 12  2  0
M  END
