
     RDKit          3D

 13 12  0  0  0  0  0  0  0  0999 V2000
   -1.9910    1.7340    0.6320 C   0  0  0  0  0  0  0  0  0  0  0  0
   -2.3050    0.4210   -0.2150 C   0  0  1  0  0  0  0  0  0  0  0  0
   -3.5700    0.5130   -0.9100 C   0  0  0  0  0  0  0  0  0  0  0  0
   -4.5470    0.8630    0.0460 O   0  0  0  0  0  0  0  0  0  0  0  0
   -4.8030    0.0460    0.9480 O   0  0  0  0  0  0  0  0  0  0  0  0
   -1.1710    0.3800   -1.0960 O   0  0  0  0  0  0  0  0  0  0  0  0
   -0.2350   -0.1810   -0.2280 O   0  0  0  0  0  0  0  0  0  0  0  0
    0.3040   -1.2470   -0.8320 C   0  0  0  0  0  0  0  0  0  0  0  0
    1.5270   -1.6240   -0.0460 C   0  0  0  0  0  0  0  0  0  0  0  0
    2.3740   -0.4650    0.1350 C   0  0  0  0  0  0  0  0  0  0  0  0
    3.9070   -0.7450    0.0090 C   0  0  0  0  0  0  0  0  0  0  0  0
    4.3000    0.4450    0.6100 O   0  0  0  0  0  0  0  0  0  0  0  0
    4.6850    1.2830   -0.3780 O   0  0  0  0  0  0  0  0  0  0  0  0
  2  1  1  1
  2  3  1  0
  2  6  1  0
  3  4  1  0
  4  5  1  0
  6  7  1  0
  7  8  1  0
  8  9  1  0
  9 10  1  0
 10 11  1  0
 11 12  1  0
 12 13  1  0
M  END
