
     RDKit          3D

 14 13  0  0  0  0  0  0  0  0999 V2000
    2.7300    0.7820   -0.4540 C   0  0  0  0  0  0  0  0  0  0  0  0
    2.4480   -0.4210    0.0320 C   0  0  0  0  0  0  0  0  0  0  0  0
    3.4630   -1.5000   -0.0910 C   0  0  0  0  0  0  0  0  0  0  0  0
    4.6030   -1.0220   -0.7340 O   0  0  0  0  0  0  0  0  0  0  0  0
    1.1690   -0.6830    0.6710 C   0  0  0  0  0  0  0  0  0  0  0  0
    0.9140   -1.8230    1.1260 O   0  0  0  0  0  0  0  0  0  0  0  0
    0.2450    0.3400    0.7700 O   0  0  0  0  0  0  0  0  0  0  0  0
   -0.9540    0.1850    1.3430 O   0  0  0  0  0  0  0  0  0  0  0  0
   -1.9870    0.7230    0.6170 C   0  0  1  0  0  0  0  0  0  0  0  0
   -2.9010   -0.3950    0.1360 C   0  0  0  0  0  0  0  0  0  0  0  0
   -2.1900   -1.2740   -0.6600 O   0  0  0  0  0  0  0  0  0  0  0  0
   -2.7730    1.7220    1.3690 C   0  0  0  0  0  0  0  0  0  0  0  0
   -2.4820    2.0150    2.5540 O   0  0  0  0  0  0  0  0  0  0  0  0
   -3.8530    2.3650    0.7880 O   0  0  0  0  0  0  0  0  0  0  0  0
  1  2  2  0
  2  3  1  0
  2  5  1  0
  3  4  1  0
  5  6  2  0
  5  7  1  0
  7  8  1  0
  8  9  1  0
  9 10  1  1
  9 12  1  0
 10 11  1  0
 12 13  2  0
 12 14  1  0
M  END
