
     RDKit          3D

 13 13  0  0  0  0  0  0  0  0999 V2000
   -4.4790    0.7600    0.2020 O   0  0  0  0  0  0  0  0  0  0  0  0
   -3.6240    0.1890   -0.5950 O   0  0  0  0  0  0  0  0  0  0  0  0
   -3.0240   -0.9190    0.0030 C   0  0  0  0  0  0  0  0  0  0  0  0
   -2.0320   -1.5830   -0.9190 C   0  0  0  0  0  0  0  0  0  0  0  0
   -0.9320   -0.6420   -1.3150 C   0  0  0  0  0  0  0  0  0  0  0  0
   -0.1950   -0.1720   -0.1060 C   0  0  2  0  0  0  0  0  0  0  0  0
    0.9380    0.7900   -0.4650 C   0  0  0  0  0  0  0  0  0  0  0  0
    1.7400    0.6220    0.8080 C   0  0  2  0  0  0  0  0  0  0  0  0
    3.1820    1.0090    0.6310 C   0  0  0  0  0  0  0  0  0  0  0  0
    3.7580    0.2870   -0.3840 O   0  0  0  0  0  0  0  0  0  0  0  0
    5.0100    0.5970   -0.5650 O   0  0  0  0  0  0  0  0  0  0  0  0
    1.5410   -0.6880    1.1150 O   0  0  0  0  0  0  0  0  0  0  0  0
    0.4750   -1.1430    0.5780 O   0  0  0  0  0  0  0  0  0  0  0  0
  1  2  1  0
  2  3  1  0
  3  4  1  0
  4  5  1  0
  6  5  1  6
  6  7  1  0
  6 13  1  0
  7  8  1  0
  8  9  1  6
  8 12  1  0
  9 10  1  0
 10 11  1  0
 12 13  1  0
M  END
