
     RDKit          3D

 22 22  0  0  0  0  0  0  0  0999 V2000
   -0.2240   -3.6320    0.8140 C   0  0  0  0  0  0  0  0  0  0  0  0
   -0.1340   -2.2700    0.1670 C   0  0  2  0  0  0  0  0  0  0  0  0
   -0.9490   -2.1480   -0.9270 O   0  0  0  0  0  0  0  0  0  0  0  0
   -1.9350   -1.2870   -0.8310 O   0  0  0  0  0  0  0  0  0  0  0  0
   -1.7730    0.0450   -0.4870 C   0  0  0  0  0  0  0  0  0  0  0  0
   -0.5930    0.4520   -0.2520 O   0  0  0  0  0  0  0  0  0  0  0  0
   -2.8960    0.8770   -0.4140 N   0  0  0  0  0  0  0  0  0  0  0  0
   -4.2050    0.3400   -0.6960 C   0  0  0  0  0  0  0  0  0  0  0  0
   -5.1310    0.7610    0.4210 C   0  0  0  0  0  0  0  0  0  0  0  0
   -5.0660    2.0970    0.7290 O   0  0  0  0  0  0  0  0  0  0  0  0
   -4.2460    2.8210   -0.1220 C   0  0  0  0  0  0  0  0  0  0  0  0
   -2.8290    2.2900   -0.0620 C   0  0  0  0  0  0  0  0  0  0  0  0
    1.2600   -1.8970   -0.1570 C   0  0  0  0  0  0  0  0  0  0  0  0
    1.5120   -1.5400   -1.3330 O   0  0  0  0  0  0  0  0  0  0  0  0
    2.3150   -1.9220    0.7820 N   0  0  0  0  0  0  0  0  0  0  0  0
    3.6890   -1.5650    0.5140 C   0  0  0  0  0  0  0  0  0  0  0  0
    3.7460   -0.1440    0.0760 C   0  0  0  0  0  0  0  0  0  0  0  0
    5.0670    0.2950   -0.2090 O   0  0  0  0  0  0  0  0  0  0  0  0
    5.2680    1.5910   -0.6260 C   0  0  0  0  0  0  0  0  0  0  0  0
    4.2720    2.3420   -0.7410 O   0  0  0  0  0  0  0  0  0  0  0  0
    6.5060    2.1320   -0.9320 O   0  0  0  0  0  0  0  0  0  0  0  0
    6.6590    3.4040   -1.3360 O   0  0  0  0  0  0  0  0  0  0  0  0
  2  1  1  6
  2  3  1  0
  2 13  1  0
  3  4  1  0
  4  5  1  0
  5  6  2  0
  5  7  1  0
  7  8  1  0
  7 12  1  0
  8  9  1  0
  9 10  1  0
 10 11  1  0
 11 12  1  0
 13 14  2  0
 13 15  1  0
 15 16  1  0
 16 17  1  0
 17 18  1  0
 18 19  1  0
 19 20  2  0
 19 21  1  0
 21 22  1  0
M  END
