
     RDKit          3D

 13 13  0  0  0  0  0  0  0  0999 V2000
   -1.8830    0.8550   -1.4530 C   0  0  0  0  0  0  0  0  0  0  0  0
   -1.2580    0.1030   -0.3230 C   0  0  1  0  0  0  0  0  0  0  0  0
   -0.0870    0.9150    0.2680 C   0  0  0  0  0  0  0  0  0  0  0  0
    0.9470    0.4250   -0.4290 O   0  0  0  0  0  0  0  0  0  0  0  0
    2.1670    0.8210   -0.4790 C   0  0  0  0  0  0  0  0  0  0  0  0
    3.1350    0.6430    0.7240 C   0  0  0  0  0  0  0  0  0  0  0  0
    2.9960   -0.8030    0.7350 O   0  0  0  0  0  0  0  0  0  0  0  0
    4.2640   -1.2800    0.6230 O   0  0  0  0  0  0  0  0  0  0  0  0
   -2.2210   -0.2870    0.7800 C   0  0  0  0  0  0  0  0  0  0  0  0
   -2.5420   -1.7660    0.5650 C   0  0  0  0  0  0  0  0  0  0  0  0
   -2.7640   -2.0850   -0.7550 O   0  0  0  0  0  0  0  0  0  0  0  0
   -1.8690   -1.5390   -1.5780 O   0  0  0  0  0  0  0  0  0  0  0  0
   -0.8250   -1.1380   -0.8200 O   0  0  0  0  0  0  0  0  0  0  0  0
  2  1  1  6
  2  3  1  0
  2  9  1  0
  2 13  1  0
  3  4  1  0
  4  5  1  0
  5  6  1  0
  6  7  1  0
  7  8  1  0
  9 10  1  0
 10 11  1  0
 11 12  1  0
 12 13  1  0
M  END
