
     RDKit          3D

 13 12  0  0  0  0  0  0  0  0999 V2000
    4.3630    0.5810    0.4260 C   0  0  0  0  0  0  0  0  0  0  0  0
    3.0900    0.9190    0.0230 O   0  0  0  0  0  0  0  0  0  0  0  0
    2.2690   -0.1940   -0.1180 C   0  0  0  0  0  0  0  0  0  0  0  0
    0.8960    0.2560   -0.5620 C   0  0  0  0  0  0  0  0  0  0  0  0
    0.0310   -0.8040   -0.7200 O   0  0  0  0  0  0  0  0  0  0  0  0
   -1.1300   -0.3530   -1.1010 O   0  0  0  0  0  0  0  0  0  0  0  0
   -2.0640   -0.2700   -0.0850 C   0  0  2  0  0  0  0  0  0  0  0  0
   -3.1680   -1.0840   -0.4720 O   0  0  0  0  0  0  0  0  0  0  0  0
   -3.5780   -2.1090    0.3650 C   0  0  0  0  0  0  0  0  0  0  0  0
   -3.0210   -2.3620    1.4610 O   0  0  0  0  0  0  0  0  0  0  0  0
   -2.5250    1.1420    0.0430 C   0  0  0  0  0  0  0  0  0  0  0  0
   -2.0890    2.0690   -0.6970 O   0  0  0  0  0  0  0  0  0  0  0  0
   -3.4690    1.5060    0.9950 O   0  0  0  0  0  0  0  0  0  0  0  0
  1  2  1  0
  2  3  1  0
  3  4  1  0
  4  5  1  0
  5  6  1  0
  7  6  1  6
  7  8  1  0
  7 11  1  0
  8  9  1  0
  9 10  2  0
 11 12  2  0
 11 13  1  0
M  END
