
     RDKit          3D

 13 13  0  0  0  0  0  0  0  0999 V2000
    5.1220    0.8160   -0.5780 O   0  0  0  0  0  0  0  0  0  0  0  0
    3.8330    0.6080   -0.8650 O   0  0  0  0  0  0  0  0  0  0  0  0
    3.3820   -0.5070   -0.1460 C   0  0  0  0  0  0  0  0  0  0  0  0
    2.0990    0.0240    0.5180 C   0  0  0  0  0  0  0  0  0  0  0  0
    1.3540   -0.9430    1.1920 N   0  0  0  0  0  0  0  0  0  0  0  0
    0.4210   -1.4900    0.2550 C   0  0  0  0  0  0  0  0  0  0  0  0
   -0.8640   -0.9960    0.5930 O   0  0  0  0  0  0  0  0  0  0  0  0
   -1.2310    0.0640   -0.2120 C   0  0  0  0  0  0  0  0  0  0  0  0
   -2.7620   -0.0600   -0.2360 C   0  0  1  0  0  0  0  0  0  0  0  0
   -3.2910    0.2860    0.9600 O   0  0  0  0  0  0  0  0  0  0  0  0
   -4.3830    1.0930    0.5440 C   0  0  0  0  0  0  0  0  0  0  0  0
   -3.8460    1.7160   -0.5960 O   0  0  0  0  0  0  0  0  0  0  0  0
   -3.3060    0.6820   -1.2540 O   0  0  0  0  0  0  0  0  0  0  0  0
  1  2  1  0
  2  3  1  0
  3  4  1  0
  4  5  1  0
  5  6  1  0
  6  7  1  0
  7  8  1  0
  9  8  1  1
  9 10  1  0
  9 13  1  0
 10 11  1  0
 11 12  1  0
 12 13  1  0
M  END
