
     RDKit          3D

 11 10  0  0  0  0  0  0  0  0999 V2000
   -1.8570    1.3360   -0.1410 C   0  0  0  0  0  0  0  0  0  0  0  0
   -1.5250    0.0090   -0.7510 C   0  0  2  0  0  0  0  0  0  0  0  0
   -1.9880   -1.1540    0.1290 C   0  0  0  0  0  0  0  0  0  0  0  0
   -0.0710   -0.1310   -1.0620 C   0  0  0  0  0  0  0  0  0  0  0  0
    0.2970   -0.3340   -2.2480 O   0  0  0  0  0  0  0  0  0  0  0  0
    0.9470   -0.0440   -0.0430 C   0  0  0  0  0  0  0  0  0  0  0  0
    2.2220   -0.1740   -0.3570 C   0  0  0  0  0  0  0  0  0  0  0  0
    3.2390   -0.0980    0.5830 O   0  0  0  0  0  0  0  0  0  0  0  0
    3.9030   -1.1620    1.0440 O   0  0  0  0  0  0  0  0  0  0  0  0
    0.5600    0.1790    1.2690 O   0  0  0  0  0  0  0  0  0  0  0  0
    0.8960    1.2880    1.9500 O   0  0  0  0  0  0  0  0  0  0  0  0
  2  1  1  1
  2  3  1  0
  2  4  1  0
  4  5  2  0
  4  6  1  0
  6  7  2  3
  6 10  1  0
  7  8  1  0
  8  9  1  0
 10 11  1  0
M  END
