
     RDKit          3D

  9  8  0  0  0  0  0  0  0  0999 V2000
   -1.0700   -1.4610    0.3020 C   0  0  0  0  0  0  0  0  0  0  0  0
   -0.7230   -0.2080    0.4650 C   0  0  0  0  0  0  0  0  0  0  0  0
    0.5150    0.0770    0.9940 O   0  0  0  0  0  0  0  0  0  0  0  0
    1.6150   -0.3730    0.4270 O   0  0  0  0  0  0  0  0  0  0  0  0
    2.2580    0.6020   -0.1850 O   0  0  0  0  0  0  0  0  0  0  0  0
    3.5950    0.2340   -0.2350 C   0  0  0  0  0  0  0  0  0  0  0  0
   -1.6120    0.8550    0.1010 C   0  0  0  0  0  0  0  0  0  0  0  0
   -2.9390    0.5260   -0.4660 C   0  0  0  0  0  0  0  0  0  0  0  0
   -1.2640    2.0420    0.2640 O   0  0  0  0  0  0  0  0  0  0  0  0
  1  2  2  0
  2  3  1  0
  2  7  1  0
  3  4  1  0
  4  5  1  0
  5  6  1  0
  7  8  1  0
  7  9  2  0
M  END
