
     RDKit          3D

 10  9  0  0  0  0  0  0  0  0999 V2000
   -0.7440    1.8380   -0.6700 C   0  0  0  0  0  0  0  0  0  0  0  0
   -0.5960    0.7370    0.0410 C   0  0  0  0  0  0  0  0  0  0  0  0
    0.6680    0.4060    0.5090 O   0  0  0  0  0  0  0  0  0  0  0  0
    0.9910   -0.9010    0.4710 O   0  0  0  0  0  0  0  0  0  0  0  0
    1.6490   -1.2770    1.5310 O   0  0  0  0  0  0  0  0  0  0  0  0
    2.9070   -1.3860    1.2360 O   0  0  0  0  0  0  0  0  0  0  0  0
    3.2430   -0.8900   -0.0030 C   0  0  0  0  0  0  0  0  0  0  0  0
   -1.7020   -0.1530    0.3610 C   0  0  0  0  0  0  0  0  0  0  0  0
   -3.0910    0.0900   -0.0770 C   0  0  0  0  0  0  0  0  0  0  0  0
   -1.5120   -1.2120    1.0530 O   0  0  0  0  0  0  0  0  0  0  0  0
  1  2  2  0
  2  3  1  0
  2  8  1  0
  3  4  1  0
  4  5  1  0
  5  6  1  0
  6  7  1  0
  8  9  1  0
  8 10  2  0
M  END
