
     RDKit          3D

 11 10  0  0  0  0  0  0  0  0999 V2000
    2.8020    0.9010    0.0200 C   0  0  0  0  0  0  0  0  0  0  0  0
    1.3680    0.8040   -0.5330 C   0  0  0  0  0  0  0  0  0  0  0  0
    0.4990    0.0530    0.3700 C   0  0  0  0  0  0  0  0  0  0  0  0
   -0.1430   -1.0280    0.1220 C   0  0  0  0  0  0  0  0  0  0  0  0
   -0.1580   -1.7600   -1.1150 C   0  0  0  0  0  0  0  0  0  0  0  0
    0.4810   -1.4110   -2.1310 O   0  0  0  0  0  0  0  0  0  0  0  0
   -0.9270   -1.5840    1.1480 O   0  0  0  0  0  0  0  0  0  0  0  0
   -1.9690   -0.9700    1.7090 O   0  0  0  0  0  0  0  0  0  0  0  0
   -2.7090    0.0490    1.1750 C   0  0  0  0  0  0  0  0  0  0  0  0
   -2.3900    0.4690    0.0280 O   0  0  0  0  0  0  0  0  0  0  0  0
   -3.7910    0.6270    1.8540 O   0  0  0  0  0  0  0  0  0  0  0  0
  1  2  1  0
  2  3  1  0
  3  4  2  3
  4  5  1  0
  4  7  1  0
  5  6  2  0
  7  8  1  0
  8  9  1  0
  9 10  2  0
  9 11  1  0
M  END
