
     RDKit          3D

 10  9  0  0  0  0  0  0  0  0999 V2000
    3.8800   -0.2610    0.2300 C   0  0  0  0  0  0  0  0  0  0  0  0
    3.1030   -0.9750    1.1380 O   0  0  0  0  0  0  0  0  0  0  0  0
    1.8710   -1.0730    0.6920 O   0  0  0  0  0  0  0  0  0  0  0  0
    1.5440    0.1220    0.2020 O   0  0  0  0  0  0  0  0  0  0  0  0
    0.7250   -0.0710   -0.8390 O   0  0  0  0  0  0  0  0  0  0  0  0
   -0.6090   -0.3280   -0.5940 C   0  0  0  0  0  0  0  0  0  0  0  0
   -1.0570   -1.7360   -0.6500 C   0  0  0  0  0  0  0  0  0  0  0  0
   -1.4800    0.6140   -0.3180 C   0  0  0  0  0  0  0  0  0  0  0  0
   -2.9000    0.2970   -0.0620 C   0  0  0  0  0  0  0  0  0  0  0  0
   -1.0440    2.0360   -0.2570 C   0  0  0  0  0  0  0  0  0  0  0  0
  1  2  1  0
  2  3  1  0
  3  4  1  0
  4  5  1  0
  5  6  1  0
  6  7  1  0
  6  8  2  3
  8  9  1  0
  8 10  1  0
M  END
