
     RDKit          3D

 10  9  0  0  0  0  0  0  0  0999 V2000
    3.4230    0.4930    0.3330 C   0  0  0  0  0  0  0  0  0  0  0  0
    2.1830    0.0700   -0.3560 C   0  0  0  0  0  0  0  0  0  0  0  0
    2.2300   -0.9500   -1.0730 O   0  0  0  0  0  0  0  0  0  0  0  0
    0.9740    0.7330   -0.2560 O   0  0  0  0  0  0  0  0  0  0  0  0
   -0.0650    0.2570   -0.9210 O   0  0  0  0  0  0  0  0  0  0  0  0
   -1.1720    0.0100   -0.1610 C   0  0  2  0  0  0  0  0  0  0  0  0
   -0.9340   -1.0030    0.9390 C   0  0  0  0  0  0  0  0  0  0  0  0
   -2.2570   -0.5060   -1.1190 C   0  0  0  0  0  0  0  0  0  0  0  0
   -1.6910    1.2850    0.3830 C   0  0  0  0  0  0  0  0  0  0  0  0
   -2.6700    1.2980    1.0870 O   0  0  0  0  0  0  0  0  0  0  0  0
  1  2  1  0
  2  3  2  0
  2  4  1  0
  4  5  1  0
  5  6  1  0
  6  7  1  1
  6  8  1  0
  6  9  1  0
  9 10  2  0
M  END
