
     RDKit          3D

 10  9  0  0  0  0  0  0  0  0999 V2000
   -1.7470   -0.9430   -0.4290 C   0  0  0  0  0  0  0  0  0  0  0  0
   -0.4140   -1.2540    0.1800 C   0  0  0  0  0  0  0  0  0  0  0  0
   -0.1400   -2.6520    0.4760 C   0  0  0  0  0  0  0  0  0  0  0  0
    0.9630   -2.9500    0.9850 O   0  0  0  0  0  0  0  0  0  0  0  0
    0.4960   -0.3570    0.4530 C   0  0  0  0  0  0  0  0  0  0  0  0
    0.2640    1.0470    0.1740 C   0  0  0  0  0  0  0  0  0  0  0  0
   -0.8110    1.4250   -0.3330 O   0  0  0  0  0  0  0  0  0  0  0  0
    1.2140    2.0170    0.4550 O   0  0  0  0  0  0  0  0  0  0  0  0
    1.0140    3.3250    0.2020 O   0  0  0  0  0  0  0  0  0  0  0  0
    2.1700    3.8490   -0.1720 O   0  0  0  0  0  0  0  0  0  0  0  0
  1  2  1  0
  2  3  1  0
  2  5  2  3
  3  4  2  0
  5  6  1  0
  6  7  2  0
  6  8  1  0
  8  9  1  0
  9 10  1  0
M  END
