
     RDKit          3D

 16 16  0  0  0  0  0  0  0  0999 V2000
    4.6020    1.4210   -0.2540 C   0  0  0  0  0  0  0  0  0  0  0  0
    3.3600    1.4550    0.3830 O   0  0  0  0  0  0  0  0  0  0  0  0
    2.7850    0.2720    0.3940 O   0  0  0  0  0  0  0  0  0  0  0  0
    1.4750    0.4100    0.4660 O   0  0  0  0  0  0  0  0  0  0  0  0
    0.9200   -0.7880    0.0460 C   0  0  0  0  0  0  0  0  0  0  0  0
   -0.5710   -0.7510    0.0840 C   0  0  0  0  0  0  0  0  0  0  0  0
   -1.1870    0.3410    0.4860 C   0  0  0  0  0  0  0  0  0  0  0  0
   -0.4020    1.4230    0.8610 O   0  0  0  0  0  0  0  0  0  0  0  0
   -0.5240    2.8780   -0.1520 P   0  0  0  0  0  0  0  0  0  0  0  0
   -1.3950    4.0850    0.3230 O   0  0  0  0  0  0  0  0  0  0  0  0
   -2.6570    0.3840    0.5270 C   0  0  0  0  0  0  0  0  0  0  0  0
   -3.2320    1.4750    0.5950 O   0  0  0  0  0  0  0  0  0  0  0  0
   -3.4330   -0.9060    0.4840 C   0  0  0  0  0  0  0  0  0  0  0  0
   -2.7400   -1.7570   -0.5310 C   0  0  0  0  0  0  0  0  0  0  0  0
   -3.3000   -2.2540   -1.4680 O   0  0  0  0  0  0  0  0  0  0  0  0
   -1.2800   -1.9820   -0.3450 C   0  0  0  0  0  0  0  0  0  0  0  0
  1  2  1  0
  2  3  1  0
  3  4  1  0
  4  5  1  0
  5  6  1  0
  6  7  2  0
  6 16  1  0
  7  8  1  0
  7 11  1  0
  8  9  1  0
  9 10  2  0
 11 12  2  0
 11 13  1  0
 13 14  1  0
 14 15  2  0
 14 16  1  0
M  END
