
     RDKit          3D

 16 15  0  0  0  0  0  0  0  0999 V2000
   -3.2140    0.0030    1.7870 C   0  0  0  0  0  0  0  0  0  0  0  0
   -2.0620    0.2500    0.8520 C   0  0  0  0  0  0  0  0  0  0  0  0
   -1.6200   -0.9580    0.3070 O   0  0  0  0  0  0  0  0  0  0  0  0
   -0.5510   -0.7610   -0.5650 C   0  0  1  0  0  0  0  0  0  0  0  0
   -0.2310   -2.1340   -1.1590 C   0  0  0  0  0  0  0  0  0  0  0  0
   -0.9760    0.0740   -1.5890 O   0  0  0  0  0  0  0  0  0  0  0  0
   -2.0350   -0.4600   -2.3020 C   0  0  0  0  0  0  0  0  0  0  0  0
    0.8730   -0.0420    0.2750 P   0  0  0  0  0  0  0  0  0  0  0  0
    1.1000    1.6450    0.1620 O   0  0  0  0  0  0  0  0  0  0  0  0
    2.2590    2.2370   -0.2830 C   0  0  0  0  0  0  0  0  0  0  0  0
    2.4710    3.6940   -0.3860 C   0  0  0  0  0  0  0  0  0  0  0  0
    3.2200    1.4900   -0.6320 O   0  0  0  0  0  0  0  0  0  0  0  0
    1.5570   -0.8730    1.5710 O   0  0  0  0  0  0  0  0  0  0  0  0
    2.7110   -1.6410    1.5570 C   0  0  0  0  0  0  0  0  0  0  0  0
    3.3230   -1.7390    0.4730 O   0  0  0  0  0  0  0  0  0  0  0  0
    3.2130   -2.2940    2.6610 O   0  0  0  0  0  0  0  0  0  0  0  0
  1  2  1  0
  2  3  1  0
  3  4  1  0
  4  5  1  6
  4  6  1  0
  4  8  1  0
  6  7  1  0
  8  9  1  0
  8 13  1  0
  9 10  1  0
 10 11  1  0
 10 12  2  0
 13 14  1  0
 14 15  2  0
 14 16  1  0
M  END
