
     RDKit          3D

 16 15  0  0  0  0  0  0  0  0999 V2000
    3.5720    0.5610    0.1140 C   0  0  0  0  0  0  0  0  0  0  0  0
    2.4440   -0.5410    0.3410 C   0  0  0  0  0  0  0  0  0  0  0  0
    1.3900    0.2710    0.5980 O   0  0  0  0  0  0  0  0  0  0  0  0
    0.4530    0.5750    0.0200 O   0  0  0  0  0  0  0  0  0  0  0  0
   -0.8190    0.3280   -0.1700 C   0  0  1  0  0  0  0  0  0  0  0  0
   -1.4870    1.3650   -1.0810 C   0  0  0  0  0  0  0  0  0  0  0  0
   -1.3180    3.0900   -0.3800 P   0  0  0  0  0  0  0  0  0  0  0  0
   -2.4020    4.1250   -0.7360 O   0  0  0  0  0  0  0  0  0  0  0  0
   -1.0420   -0.9430   -0.9750 C   0  0  0  0  0  0  0  0  0  0  0  0
   -0.3470   -1.3110   -2.1680 C   0  0  0  0  0  0  0  0  0  0  0  0
   -1.8810   -1.6940   -0.4820 O   0  0  0  0  0  0  0  0  0  0  0  0
   -1.5890    0.0600    1.0690 C   0  0  0  0  0  0  0  0  0  0  0  0
   -2.6470    0.5740    1.3940 O   0  0  0  0  0  0  0  0  0  0  0  0
   -0.9980   -0.8970    1.9740 O   0  0  0  0  0  0  0  0  0  0  0  0
   -1.6370   -1.2080    3.1330 C   0  0  0  0  0  0  0  0  0  0  0  0
   -2.7380   -0.5750    3.3400 O   0  0  0  0  0  0  0  0  0  0  0  0
  1  2  1  0
  2  3  1  0
  3  4  1  0
  4  5  1  0
  5  6  1  6
  5  9  1  0
  5 12  1  0
  6  7  1  0
  7  8  2  0
  9 10  1  0
  9 11  2  0
 12 13  2  0
 12 14  1  0
 14 15  1  0
 15 16  2  0
M  END
