
     RDKit          3D

 16 15  0  0  0  0  0  0  0  0999 V2000
    4.5720    0.5080    0.2410 C   0  0  0  0  0  0  0  0  0  0  0  0
    3.8080    0.5240   -1.0120 C   0  0  0  0  0  0  0  0  0  0  0  0
    2.4490    1.2300   -0.9470 C   0  0  0  0  0  0  0  0  0  0  0  0
    1.7300    0.5330    0.0790 O   0  0  0  0  0  0  0  0  0  0  0  0
    0.4300   -0.2140   -0.8000 P   0  0  0  0  0  0  0  0  0  0  0  0
    1.1080   -1.7710   -1.4190 O   0  0  0  0  0  0  0  0  0  0  0  0
   -1.0550   -0.6560    0.1280 C   0  0  1  0  0  0  0  0  0  0  0  0
   -0.8430   -1.9440    0.6820 O   0  0  0  0  0  0  0  0  0  0  0  0
   -1.5150    0.2480    1.1470 C   0  0  0  0  0  0  0  0  0  0  0  0
   -2.2000   -0.2540    2.3580 C   0  0  0  0  0  0  0  0  0  0  0  0
   -1.4070    1.4850    1.0810 O   0  0  0  0  0  0  0  0  0  0  0  0
   -2.1100   -0.9530   -0.9220 C   0  0  0  0  0  0  0  0  0  0  0  0
   -1.8560   -1.8040   -1.7280 O   0  0  0  0  0  0  0  0  0  0  0  0
   -3.4090   -0.2390   -0.9510 C   0  0  0  0  0  0  0  0  0  0  0  0
   -3.4950    0.7720   -0.0670 O   0  0  0  0  0  0  0  0  0  0  0  0
   -4.5160    1.5040   -0.0320 O   0  0  0  0  0  0  0  0  0  0  0  0
  1  2  1  0
  2  3  1  0
  3  4  1  0
  4  5  1  0
  5  6  1  0
  5  7  1  0
  7  8  1  1
  7  9  1  0
  7 12  1  0
  9 10  1  0
  9 11  2  0
 12 13  2  0
 12 14  1  0
 14 15  1  0
 15 16  1  0
M  END
