
     RDKit          3D

 15 14  0  0  0  0  0  0  0  0999 V2000
    4.6200   -0.2790    0.0440 C   0  0  0  0  0  0  0  0  0  0  0  0
    3.3650   -0.7560    0.7820 C   0  0  0  0  0  0  0  0  0  0  0  0
    2.2070    0.0540    0.3450 C   0  0  0  0  0  0  0  0  0  0  0  0
    2.3200    0.9310   -0.4690 O   0  0  0  0  0  0  0  0  0  0  0  0
    0.5600   -0.2910    1.0620 P   0  0  0  0  0  0  0  0  0  0  0  0
   -0.7260   -0.0070   -0.2210 C   0  0  1  0  0  0  0  0  0  0  0  0
   -0.4230   -0.8850   -1.4190 C   0  0  0  0  0  0  0  0  0  0  0  0
   -2.1100   -0.3630    0.2740 C   0  0  0  0  0  0  0  0  0  0  0  0
   -2.2040   -1.7060    0.6500 O   0  0  0  0  0  0  0  0  0  0  0  0
   -3.5300   -1.8890    1.0830 C   0  0  0  0  0  0  0  0  0  0  0  0
   -0.7430    1.4210   -0.5950 C   0  0  0  0  0  0  0  0  0  0  0  0
    0.0560    2.2080   -0.0390 O   0  0  0  0  0  0  0  0  0  0  0  0
   -1.6340    1.8600   -1.5450 O   0  0  0  0  0  0  0  0  0  0  0  0
   -1.7010    3.1350   -1.9270 O   0  0  0  0  0  0  0  0  0  0  0  0
   -1.4820    3.8910   -0.8690 O   0  0  0  0  0  0  0  0  0  0  0  0
  1  2  1  0
  2  3  1  0
  3  4  2  0
  3  5  1  0
  5  6  1  0
  6  7  1  6
  6  8  1  0
  6 11  1  0
  8  9  1  0
  9 10  1  0
 11 12  2  0
 11 13  1  0
 13 14  1  0
 14 15  1  0
M  END
