
     RDKit          3D

 16 15  0  0  0  0  0  0  0  0999 V2000
    4.3730   -0.8630    0.7600 C   0  0  0  0  0  0  0  0  0  0  0  0
    4.3730    0.4770    0.0400 C   0  0  0  0  0  0  0  0  0  0  0  0
    3.0010    0.8290   -0.4110 C   0  0  0  0  0  0  0  0  0  0  0  0
    2.8510    1.9120   -1.0200 O   0  0  0  0  0  0  0  0  0  0  0  0
    1.9040    0.0320   -0.1920 O   0  0  0  0  0  0  0  0  0  0  0  0
    0.5980    0.3660   -0.6210 C   0  0  0  0  0  0  0  0  0  0  0  0
   -0.3240   -0.6190   -0.2680 O   0  0  0  0  0  0  0  0  0  0  0  0
   -1.5310   -0.2930   -0.6740 O   0  0  0  0  0  0  0  0  0  0  0  0
   -2.4690   -0.3830    0.3430 C   0  0  1  0  0  0  0  0  0  0  0  0
   -2.5540   -1.7980    0.8990 C   0  0  0  0  0  0  0  0  0  0  0  0
   -2.1250    0.5380    1.4890 C   0  0  0  0  0  0  0  0  0  0  0  0
   -2.0760    1.8650    1.0940 O   0  0  0  0  0  0  0  0  0  0  0  0
   -3.8030   -0.0740   -0.2360 C   0  0  0  0  0  0  0  0  0  0  0  0
   -4.7620   -0.1050    0.5170 O   0  0  0  0  0  0  0  0  0  0  0  0
   -4.0880    0.3420   -1.9820 P   0  0  0  0  0  0  0  0  0  0  0  0
   -3.5060    1.6330   -2.6430 O   0  0  0  0  0  0  0  0  0  0  0  0
  1  2  1  0
  2  3  1  0
  3  4  2  0
  3  5  1  0
  5  6  1  0
  6  7  1  0
  7  8  1  0
  8  9  1  0
  9 10  1  1
  9 11  1  0
  9 13  1  0
 11 12  1  0
 13 14  2  0
 13 15  1  0
 15 16  2  0
M  END
