
     RDKit          3D

 20 20  0  0  0  0  0  0  0  0999 V2000
   -6.8910    0.5870   -0.1440 C   0  0  0  0  0  0  0  0  0  0  0  0
   -5.7090   -0.2630   -0.5890 C   0  0  0  0  0  0  0  0  0  0  0  0
   -4.5710    0.2180    0.1410 O   0  0  0  0  0  0  0  0  0  0  0  0
   -3.3190   -0.3200   -0.0080 C   0  0  0  0  0  0  0  0  0  0  0  0
   -3.1690   -1.2710   -0.8150 O   0  0  0  0  0  0  0  0  0  0  0  0
   -2.1880    0.1710    0.7290 N   0  0  0  0  0  0  0  0  0  0  0  0
   -2.1550    1.1330    1.5940 O   0  0  0  0  0  0  0  0  0  0  0  0
   -0.9640    1.3350    2.0890 C   0  0  0  0  0  0  0  0  0  0  0  0
   -0.1230    0.4200    1.4960 C   0  0  0  0  0  0  0  0  0  0  0  0
   -0.9360   -0.2990    0.6410 C   0  0  0  0  0  0  0  0  0  0  0  0
   -0.6030   -1.2760   -0.1410 N   0  0  0  0  0  0  0  0  0  0  0  0
    0.7500   -1.7470   -0.2030 C   0  0  0  0  0  0  0  0  0  0  0  0
    0.9760   -2.9490    0.0420 O   0  0  0  0  0  0  0  0  0  0  0  0
    1.8340   -0.9060   -0.5300 N   0  0  0  0  0  0  0  0  0  0  0  0
    3.1710   -1.4640   -0.5700 C   0  0  0  0  0  0  0  0  0  0  0  0
    4.1950   -0.4050   -0.9390 C   0  0  0  0  0  0  0  0  0  0  0  0
    4.1300    0.6070    0.0450 O   0  0  0  0  0  0  0  0  0  0  0  0
    5.2580    1.8680   -0.2790 P   0  0  0  0  0  0  0  0  0  0  0  0
    6.1380    1.5740   -1.7560 O   0  0  0  0  0  0  0  0  0  0  0  0
    6.3730    2.0810    1.0520 O   0  0  0  0  0  0  0  0  0  0  0  0
  1  2  1  0
  2  3  1  0
  3  4  1  0
  4  5  2  0
  4  6  1  0
  6  7  1  0
  6 10  1  0
  7  8  1  0
  8  9  2  0
  9 10  1  0
 10 11  2  3
 11 12  1  0
 12 13  2  0
 12 14  1  0
 14 15  1  0
 15 16  1  0
 16 17  1  0
 17 18  1  0
 18 19  1  0
 18 20  1  0
M  END
