
     RDKit          3D

 10 10  0  0  0  0  0  0  0  0999 V2000
   -0.7760   -1.6650   -0.0160 C   0  0  0  0  0  0  0  0  0  0  0  0
   -0.5670   -0.2000   -0.2340 C   0  0  1  0  0  0  0  0  0  0  0  0
   -1.3560    0.5590    0.6320 O   0  0  0  0  0  0  0  0  0  0  0  0
   -2.2180    1.2970    0.0040 O   0  0  0  0  0  0  0  0  0  0  0  0
   -1.7980    2.5540    0.0920 O   0  0  0  0  0  0  0  0  0  0  0  0
    0.8680    0.1640   -0.1300 C   0  0  0  0  0  0  0  0  0  0  0  0
    1.8980   -0.6170    0.1160 C   0  0  0  0  0  0  0  0  0  0  0  0
    3.0610    0.1750    0.1180 O   0  0  0  0  0  0  0  0  0  0  0  0
    2.7210    1.3660   -0.3770 O   0  0  0  0  0  0  0  0  0  0  0  0
    1.3850    1.4450   -0.2830 O   0  0  0  0  0  0  0  0  0  0  0  0
  2  1  1  1
  2  3  1  0
  2  6  1  0
  3  4  1  0
  4  5  1  0
  6  7  2  0
  6 10  1  0
  7  8  1  0
  8  9  1  0
  9 10  1  0
M  END
