
     RDKit          3D

 10  9  0  0  0  0  0  0  0  0999 V2000
   -1.6400   -1.2860    0.5310 C   0  0  0  0  0  0  0  0  0  0  0  0
   -0.5650   -0.2710    0.1620 C   0  0  1  0  0  0  0  0  0  0  0  0
   -0.6140    0.7920    1.0440 O   0  0  0  0  0  0  0  0  0  0  0  0
    0.7620   -1.0120    0.2730 C   0  0  0  0  0  0  0  0  0  0  0  0
    1.9300   -0.0950   -0.0760 C   0  0  0  0  0  0  0  0  0  0  0  0
    1.9790    0.9960    0.7800 O   0  0  0  0  0  0  0  0  0  0  0  0
    2.9920    1.7560    0.4490 O   0  0  0  0  0  0  0  0  0  0  0  0
   -0.7030    0.1990   -1.1220 O   0  0  0  0  0  0  0  0  0  0  0  0
   -1.8600    0.7920   -1.2950 O   0  0  0  0  0  0  0  0  0  0  0  0
   -2.3450    1.3010   -0.1820 O   0  0  0  0  0  0  0  0  0  0  0  0
  2  1  1  1
  2  3  1  0
  2  4  1  0
  2  8  1  0
  4  5  1  0
  5  6  1  0
  6  7  1  0
  8  9  1  0
  9 10  1  0
M  END
