
     RDKit          3D

 10  9  0  0  0  0  0  0  0  0999 V2000
    3.4000    0.6640   -0.1650 C   0  0  0  0  0  0  0  0  0  0  0  0
    2.5090   -0.4550    0.3910 C   0  0  0  0  0  0  0  0  0  0  0  0
    1.2420    0.0520    0.4780 O   0  0  0  0  0  0  0  0  0  0  0  0
    0.3430   -0.7580    0.9320 O   0  0  0  0  0  0  0  0  0  0  0  0
   -0.8230   -0.1040    0.8760 O   0  0  0  0  0  0  0  0  0  0  0  0
   -1.2500   -0.2000   -0.4430 C   0  0  0  0  0  0  0  0  0  0  0  0
   -2.4580    0.4240   -0.7060 O   0  0  0  0  0  0  0  0  0  0  0  0
   -3.6120    0.0580   -0.0600 C   0  0  0  0  0  0  0  0  0  0  0  0
   -3.5610   -0.8610    0.7810 O   0  0  0  0  0  0  0  0  0  0  0  0
   -4.8510    0.6750   -0.3070 O   0  0  0  0  0  0  0  0  0  0  0  0
  1  2  1  0
  2  3  1  0
  3  4  1  0
  4  5  1  0
  5  6  1  0
  6  7  1  0
  7  8  1  0
  8  9  2  0
  8 10  1  0
M  END
