
     RDKit          3D

 10  9  0  0  0  0  0  0  0  0999 V2000
   -1.7570   -0.5360   -1.0670 C   0  0  0  0  0  0  0  0  0  0  0  0
   -1.0280    0.1600    0.0870 C   0  0  1  0  0  0  0  0  0  0  0  0
   -1.6800   -0.1260    1.2770 O   0  0  0  0  0  0  0  0  0  0  0  0
   -2.1220    0.9820    1.8240 O   0  0  0  0  0  0  0  0  0  0  0  0
    0.3850   -0.2710    0.1070 C   0  0  0  0  0  0  0  0  0  0  0  0
    0.8890   -0.8280    1.1100 O   0  0  0  0  0  0  0  0  0  0  0  0
    1.1760   -0.0590   -1.0010 O   0  0  0  0  0  0  0  0  0  0  0  0
    2.4800   -0.4110   -1.0970 O   0  0  0  0  0  0  0  0  0  0  0  0
    3.4270   -0.0350   -0.1820 C   0  0  0  0  0  0  0  0  0  0  0  0
    3.0970    0.6640    0.7950 O   0  0  0  0  0  0  0  0  0  0  0  0
  2  1  1  6
  2  3  1  0
  2  5  1  0
  3  4  1  0
  5  6  2  0
  5  7  1  0
  7  8  1  0
  8  9  1  0
  9 10  2  0
M  END
