
     RDKit          3D

 21 23  0  0  0  0  0  0  0  0999 V2000
   -2.0950    3.8430   -0.8870 O   0  0  0  0  0  0  0  0  0  0  0  0
   -1.6100    2.9010   -0.3530 C   0  0  0  0  0  0  0  0  0  0  0  0
   -0.2490    2.4210   -0.4270 C   0  0  0  0  0  0  0  0  0  0  0  0
    0.7290    2.8740   -1.2920 O   0  0  0  0  0  0  0  0  0  0  0  0
    1.8920    2.3020   -0.8570 O   0  0  0  0  0  0  0  0  0  0  0  0
    1.7810    1.0290   -0.7540 O   0  0  0  0  0  0  0  0  0  0  0  0
    2.8160    0.3960   -0.0350 C   0  0  0  0  0  0  0  0  0  0  0  0
    2.4060   -0.9940    0.4320 C   0  0  0  0  0  0  0  0  0  0  0  0
    1.3030   -1.4490   -0.0500 N   0  0  0  0  0  0  0  0  0  0  0  0
    1.0350   -2.7710    0.4900 C   0  0  0  0  0  0  0  0  0  0  0  0
    2.0540   -2.9180    1.2370 N   0  0  0  0  0  0  0  0  0  0  0  0
    2.8930   -1.8700    1.2230 O   0  0  0  0  0  0  0  0  0  0  0  0
   -0.2920   -3.1310   -0.2270 C   0  0  0  0  0  0  0  0  0  0  0  0
   -1.1420   -2.1050   -0.2770 C   0  0  0  0  0  0  0  0  0  0  0  0
   -2.3500   -1.6020   -0.7170 N   0  0  0  0  0  0  0  0  0  0  0  0
   -2.8040   -0.2180   -0.4000 C   0  0  0  0  0  0  0  0  0  0  0  0
   -2.0750    0.6180    0.3150 C   0  0  0  0  0  0  0  0  0  0  0  0
   -2.4230    2.0280    0.5350 O   0  0  0  0  0  0  0  0  0  0  0  0
   -0.8230    0.1360    0.8680 C   0  0  0  0  0  0  0  0  0  0  0  0
    0.0760    0.6330    1.6770 O   0  0  0  0  0  0  0  0  0  0  0  0
   -0.4990   -1.0840    0.5320 O   0  0  0  0  0  0  0  0  0  0  0  0
  1  2  2  0
  2  3  1  0
  2 18  1  0
  3  4  1  0
  4  5  1  0
  5  6  1  0
  6  7  1  0
  7  8  1  0
  8  9  2  0
  8 12  1  0
  9 10  1  0
 10 11  2  0
 10 13  1  0
 11 12  1  0
 13 14  2  0
 14 15  1  0
 14 21  1  0
 15 16  1  0
 16 17  2  0
 17 18  1  0
 17 19  1  0
 19 20  2  0
 19 21  1  0
M  END
