
     RDKit          3D

 24 28  0  0  0  0  0  0  0  0999 V2000
   -0.1940   -1.9110   -2.3460 O   0  0  0  0  0  0  0  0  0  0  0  0
   -0.5270   -1.1910   -1.3540 C   0  0  0  0  0  0  0  0  0  0  0  0
   -1.8530   -0.9580   -1.1740 N   0  0  0  0  0  0  0  0  0  0  0  0
   -2.3030   -0.2070   -0.1530 C   0  0  0  0  0  0  0  0  0  0  0  0
   -3.7230    0.0290    0.0270 C   0  0  0  0  0  0  0  0  0  0  0  0
   -4.2980    0.7700    1.0190 C   0  0  0  0  0  0  0  0  0  0  0  0
   -5.6520    0.9430    1.1160 N   0  0  0  0  0  0  0  0  0  0  0  0
   -6.4810    0.3820    0.2240 C   0  0  0  0  0  0  0  0  0  0  0  0
   -5.9130   -0.3680   -0.7820 C   0  0  0  0  0  0  0  0  0  0  0  0
   -4.5860   -0.5350   -0.8740 N   0  0  0  0  0  0  0  0  0  0  0  0
   -1.4200    0.3200    0.6970 N   0  0  0  0  0  0  0  0  0  0  0  0
   -0.0840    0.1400    0.5890 C   0  0  0  0  0  0  0  0  0  0  0  0
    0.3630   -0.6520   -0.4830 C   0  0  0  0  0  0  0  0  0  0  0  0
    1.7750   -0.9390   -0.4980 C   0  0  1  0  0  0  0  0  0  0  0  0
    2.4360   -1.6280   -1.5940 C   0  0  0  0  0  0  0  0  0  0  0  0
    3.7390   -1.4240   -1.8710 C   0  0  0  0  0  0  0  0  0  0  0  0
    4.5930   -0.5120   -1.1320 C   0  0  0  0  0  0  0  0  0  0  0  0
    4.0680    0.1700   -0.1290 C   0  0  0  0  0  0  0  0  0  0  0  0
    4.8420    1.0540    0.5960 O   0  0  0  0  0  0  0  0  0  0  0  0
    4.3330    1.8160    1.6530 C   0  0  0  0  0  0  0  0  0  0  0  0
    3.0520    1.6860    1.9720 C   0  0  0  0  0  0  0  0  0  0  0  0
    2.2060    0.7500    1.2170 C   0  0  0  0  0  0  0  0  0  0  0  0
    2.6600    0.0120    0.2200 C   0  0  0  0  0  0  0  0  0  0  0  0
    0.7970    0.8420    1.4510 N   0  0  0  0  0  0  0  0  0  0  0  0
  1  2  2  0
  2  3  1  0
  2 13  1  0
  3  4  2  0
  4  5  1  0
  4 11  1  0
  5  6  2  0
  5 10  1  0
  6  7  1  0
  7  8  2  0
  8  9  1  0
  9 10  2  0
 11 12  1  0
 12 13  2  0
 12 24  1  0
 13 14  1  0
 14 15  1  6
 14 23  1  0
 15 16  2  0
 16 17  1  0
 17 18  2  0
 18 19  1  0
 18 23  1  0
 19 20  1  0
 20 21  2  0
 21 22  1  0
 22 23  2  0
 22 24  1  0
M  END
