
     RDKit          3D

 24 27  0  0  0  0  0  0  0  0999 V2000
    5.6860    2.2380   -0.3850 C   0  0  0  0  0  0  0  0  0  0  0  0
    5.3000    0.8710   -0.8610 C   0  0  0  0  0  0  0  0  0  0  0  0
    5.9230    0.4440   -1.8640 O   0  0  0  0  0  0  0  0  0  0  0  0
    4.2910    0.1270   -0.2040 N   0  0  0  0  0  0  0  0  0  0  0  0
    3.6280    0.7140    0.9510 C   0  0  0  0  0  0  0  0  0  0  0  0
    2.3220   -0.0690    1.1790 C   0  0  0  0  0  0  0  0  0  0  0  0
    1.7540   -0.2370   -0.2430 C   0  0  2  0  0  0  0  0  0  0  0  0
    0.2980   -0.2930   -0.2310 C   0  0  0  0  0  0  0  0  0  0  0  0
   -0.2450   -1.3880   -0.7240 C   0  0  0  0  0  0  0  0  0  0  0  0
   -1.6860   -1.7180   -0.8400 C   0  0  0  0  0  0  0  0  0  0  0  0
   -2.7080   -0.9650   -0.4650 C   0  0  0  0  0  0  0  0  0  0  0  0
   -3.9520   -1.6410   -0.7460 C   0  0  0  0  0  0  0  0  0  0  0  0
   -5.0570   -1.0550   -0.4460 N   0  0  0  0  0  0  0  0  0  0  0  0
   -5.0900    0.2220    0.1470 N   0  0  0  0  0  0  0  0  0  0  0  0
   -6.3320    0.8860    0.4870 C   0  0  0  0  0  0  0  0  0  0  0  0
   -3.8850    0.9130    0.4370 C   0  0  0  0  0  0  0  0  0  0  0  0
   -3.8540    2.2030    1.0340 N   0  0  0  0  0  0  0  0  0  0  0  0
   -2.7210    0.3550    0.1480 C   0  0  0  0  0  0  0  0  0  0  0  0
   -1.5580    1.1710    0.4960 C   0  0  0  0  0  0  0  0  0  0  0  0
   -0.3290    0.8700    0.3250 N   0  0  0  0  0  0  0  0  0  0  0  0
   -3.5680   -2.9480   -1.3620 C   0  0  0  0  0  0  0  0  0  0  0  0
   -2.1600   -2.8990   -1.3760 O   0  0  0  0  0  0  0  0  0  0  0  0
    2.4590   -1.4170   -0.8210 C   0  0  0  0  0  0  0  0  0  0  0  0
    3.9520   -1.1870   -0.6980 C   0  0  0  0  0  0  0  0  0  0  0  0
  1  2  1  0
  2  3  2  0
  2  4  1  0
  4  5  1  0
  4 24  1  0
  5  6  1  0
  6  7  1  0
  7  8  1  1
  7 23  1  0
  8  9  2  0
  8 20  1  0
  9 10  1  0
 10 11  2  0
 10 22  1  0
 11 12  1  0
 11 18  1  0
 12 13  2  0
 12 21  1  0
 13 14  1  0
 14 15  1  0
 14 16  1  0
 16 17  1  0
 16 18  2  0
 18 19  1  0
 19 20  2  0
 21 22  1  0
 23 24  1  0
M  END
