
     RDKit          3D

 24 27  0  0  0  0  0  0  0  0999 V2000
    5.1910   -1.5610   -0.6720 O   0  0  0  0  0  0  0  0  0  0  0  0
    4.0030   -1.2710   -0.3790 C   0  0  0  0  0  0  0  0  0  0  0  0
    2.9830   -2.1120   -0.1390 N   0  0  0  0  0  0  0  0  0  0  0  0
    1.8720   -1.4080    0.1390 C   0  0  0  0  0  0  0  0  0  0  0  0
    0.6580   -1.9090    0.4300 C   0  0  0  0  0  0  0  0  0  0  0  0
   -0.4690   -1.0390    0.7150 C   0  0  0  0  0  0  0  0  0  0  0  0
   -0.3380   -0.1280    1.7430 C   0  0  0  0  0  0  0  0  0  0  0  0
   -1.3920    0.7120    2.0370 C   0  0  0  0  0  0  0  0  0  0  0  0
   -2.5320    0.6180    1.3030 N   0  0  0  0  0  0  0  0  0  0  0  0
   -2.6620   -0.2690    0.3000 C   0  0  0  0  0  0  0  0  0  0  0  0
   -3.9450   -0.3000   -0.4480 C   0  0  1  0  0  0  0  0  0  0  0  0
   -5.0950   -0.5380    0.5050 C   0  0  0  0  0  0  0  0  0  0  0  0
   -5.6370    0.8380    0.8530 C   0  0  0  0  0  0  0  0  0  0  0  0
   -5.4280    1.6200   -0.4100 C   0  0  0  0  0  0  0  0  0  0  0  0
   -4.2150    1.0410   -1.0940 C   0  0  0  0  0  0  0  0  0  0  0  0
   -1.6230   -1.0790    0.0290 N   0  0  0  0  0  0  0  0  0  0  0  0
    2.2190   -0.1140    0.0690 N   0  0  0  0  0  0  0  0  0  0  0  0
    3.5230    0.0370   -0.2480 C   0  0  0  0  0  0  0  0  0  0  0  0
    4.2110    1.1480   -0.4040 C   0  0  0  0  0  0  0  0  0  0  0  0
    5.6150    1.0710   -0.7470 C   0  0  0  0  0  0  0  0  0  0  0  0
    6.2460    1.3950   -1.9310 C   0  0  0  0  0  0  0  0  0  0  0  0
    7.5550    1.1400   -1.7250 N   0  0  0  0  0  0  0  0  0  0  0  0
    7.7150    0.6800   -0.4670 C   0  0  0  0  0  0  0  0  0  0  0  0
    6.5360    0.6440    0.1110 O   0  0  0  0  0  0  0  0  0  0  0  0
  1  2  2  0
  2  3  1  0
  2 18  1  0
  3  4  1  0
  4  5  2  3
  4 17  1  0
  5  6  1  0
  6  7  2  0
  6 16  1  0
  7  8  1  0
  8  9  2  0
  9 10  1  0
 11 10  1  1
 10 16  2  0
 11 12  1  0
 11 15  1  0
 12 13  1  0
 13 14  1  0
 14 15  1  0
 17 18  1  0
 18 19  2  3
 19 20  1  0
 20 21  2  0
 20 24  1  0
 21 22  1  0
 22 23  2  0
 23 24  1  0
M  CHG  1  16   1
M  END
