
     RDKit          3D

 13 14  0  0  0  0  0  0  0  0999 V2000
   -3.1740   -0.9260   -1.4280 O   0  0  0  0  0  0  0  0  0  0  0  0
   -2.9810   -0.3660   -0.3260 C   0  0  0  0  0  0  0  0  0  0  0  0
   -4.0770    0.0020    0.4290 O   0  0  0  0  0  0  0  0  0  0  0  0
   -1.6300   -0.1040    0.1570 C   0  0  2  0  0  0  0  0  0  0  0  0
   -1.3460    1.3570    0.4040 C   0  0  0  0  0  0  0  0  0  0  0  0
   -0.0060    1.4540    0.8520 O   0  0  0  0  0  0  0  0  0  0  0  0
    0.9970    0.6270    0.3770 C   0  0  0  0  0  0  0  0  0  0  0  0
    2.3330    0.8190    0.7260 C   0  0  0  0  0  0  0  0  0  0  0  0
    3.2890   -0.0360    0.2230 C   0  0  0  0  0  0  0  0  0  0  0  0
    2.9670   -1.0940   -0.6290 C   0  0  0  0  0  0  0  0  0  0  0  0
    1.6390   -1.2650   -0.9610 C   0  0  0  0  0  0  0  0  0  0  0  0
    0.6620   -0.4200   -0.4680 C   0  0  0  0  0  0  0  0  0  0  0  0
   -0.6820   -0.5690   -0.7860 O   0  0  0  0  0  0  0  0  0  0  0  0
  1  2  2  0
  2  3  1  0
  4  2  1  6
  4  5  1  0
  4 13  1  0
  5  6  1  0
  6  7  1  0
  7  8  2  0
  7 12  1  0
  8  9  1  0
  9 10  2  0
 10 11  1  0
 11 12  2  0
 12 13  1  0
M  END
