
     RDKit          3D

 23 25  0  0  0  0  0  0  0  0999 V2000
    4.4360    3.2710    0.9930 C   0  0  0  0  0  0  0  0  0  0  0  0
    3.3790    2.2370    0.8780 C   0  0  0  0  0  0  0  0  0  0  0  0
    2.2370    2.4920    1.3190 O   0  0  0  0  0  0  0  0  0  0  0  0
    3.7030    0.9870    0.2660 N   0  0  0  0  0  0  0  0  0  0  0  0
    4.9760    0.5810   -0.2770 C   0  0  0  0  0  0  0  0  0  0  0  0
    4.6440   -0.4400   -1.3540 C   0  0  0  0  0  0  0  0  0  0  0  0
    3.3650   -1.1060   -0.8800 C   0  0  0  0  0  0  0  0  0  0  0  0
    2.7960   -0.1220    0.0760 C   0  0  0  0  0  0  0  0  0  0  0  0
    1.6710   -0.1510    0.7010 N   0  0  0  0  0  0  0  0  0  0  0  0
    0.6810   -1.1400    0.6350 C   0  0  0  0  0  0  0  0  0  0  0  0
   -0.5720   -0.7700    0.7370 C   0  0  0  0  0  0  0  0  0  0  0  0
   -1.6970   -1.7260    0.6810 C   0  0  1  0  0  0  0  0  0  0  0  0
   -2.7860   -1.1250   -0.1280 C   0  0  0  0  0  0  0  0  0  0  0  0
   -3.1940   -1.6910   -1.1760 O   0  0  0  0  0  0  0  0  0  0  0  0
   -3.4180    0.0970    0.2260 N   0  0  0  0  0  0  0  0  0  0  0  0
   -4.4750    0.6700   -0.5680 C   0  0  0  0  0  0  0  0  0  0  0  0
   -4.4260    1.8600   -1.1410 C   0  0  0  0  0  0  0  0  0  0  0  0
   -5.6810    2.1370   -1.8820 C   0  0  0  0  0  0  0  0  0  0  0  0
   -6.4700    0.9090   -1.6450 C   0  0  0  0  0  0  0  0  0  0  0  0
   -5.7590    0.0880   -0.8930 C   0  0  0  0  0  0  0  0  0  0  0  0
   -1.2230   -3.0300    0.1520 C   0  0  0  0  0  0  0  0  0  0  0  0
   -0.0520   -3.3890    0.8370 O   0  0  0  0  0  0  0  0  0  0  0  0
    1.0070   -2.5520    0.4610 C   0  0  0  0  0  0  0  0  0  0  0  0
  1  2  1  0
  2  3  2  0
  2  4  1  0
  4  5  1  0
  4  8  1  0
  5  6  1  0
  6  7  1  0
  7  8  1  0
  8  9  2  3
  9 10  1  0
 10 11  2  0
 10 23  1  0
 11 12  1  0
 12 13  1  6
 12 21  1  0
 13 14  2  0
 13 15  1  0
 15 16  1  0
 16 17  2  0
 16 20  1  0
 17 18  1  0
 18 19  1  0
 19 20  2  0
 21 22  1  0
 22 23  1  0
M  END
