
     RDKit          3D

 24 28  0  0  0  0  0  0  0  0999 V2000
    3.4540   -3.4970   -0.2300 O   0  0  0  0  0  0  0  0  0  0  0  0
    3.4500   -2.2340   -0.2480 C   0  0  0  0  0  0  0  0  0  0  0  0
    4.6850   -1.5810   -0.3720 O   0  0  0  0  0  0  0  0  0  0  0  0
    4.9630   -0.2220   -0.1960 C   0  0  0  0  0  0  0  0  0  0  0  0
    6.3410   -0.0050   -0.2230 C   0  0  0  0  0  0  0  0  0  0  0  0
    6.8310    1.2750   -0.0660 C   0  0  0  0  0  0  0  0  0  0  0  0
    5.9690    2.2910    0.1100 N   0  0  0  0  0  0  0  0  0  0  0  0
    4.6420    2.1060    0.1390 C   0  0  0  0  0  0  0  0  0  0  0  0
    4.0920    0.8380   -0.0130 C   0  0  0  0  0  0  0  0  0  0  0  0
    2.6680    0.8590    0.0490 N   0  0  0  0  0  0  0  0  0  0  0  0
    1.8690   -0.1670   -0.0050 C   0  0  0  0  0  0  0  0  0  0  0  0
    0.5060    0.2150    0.0850 N   0  0  0  0  0  0  0  0  0  0  0  0
   -0.5600   -0.7240    0.0490 C   0  0  0  0  0  0  0  0  0  0  0  0
   -1.9570   -0.2930    0.1450 C   0  0  0  0  0  0  0  0  0  0  0  0
   -2.3510    1.0230    0.2740 C   0  0  0  0  0  0  0  0  0  0  0  0
   -3.7450    1.0270    0.3330 C   0  0  0  0  0  0  0  0  0  0  0  0
   -4.1540   -0.2860    0.2380 C   0  0  0  0  0  0  0  0  0  0  0  0
   -3.0570   -1.0660    0.1260 N   0  0  0  0  0  0  0  0  0  0  0  0
   -5.6610   -0.3130    0.2980 C   0  0  0  0  0  0  0  0  0  0  0  0
   -5.9550    1.0170   -0.2060 N   0  0  0  0  0  0  0  0  0  0  0  0
   -4.9740    1.8490    0.4560 C   0  0  0  0  0  0  0  0  0  0  0  0
   -0.2530   -2.0060   -0.0730 C   0  0  0  0  0  0  0  0  0  0  0  0
    1.1520   -2.4540   -0.1700 C   0  0  0  0  0  0  0  0  0  0  0  0
    2.1510   -1.5890   -0.1390 C   0  0  0  0  0  0  0  0  0  0  0  0
  1  2  2  0
  2  3  1  0
  2 24  1  0
  3  4  1  0
  4  5  2  0
  4  9  1  0
  5  6  1  0
  6  7  2  0
  7  8  1  0
  8  9  2  0
  9 10  1  0
 10 11  2  0
 11 12  1  0
 11 24  1  0
 12 13  1  0
 13 14  1  0
 13 22  2  0
 14 15  2  0
 14 18  1  0
 15 16  1  0
 16 17  2  0
 16 21  1  0
 17 18  1  0
 17 19  1  0
 19 20  1  0
 20 21  1  0
 22 23  1  0
 23 24  2  0
M  CHG  1  20   1
M  END
