
     RDKit          3D

 23 26  0  0  0  0  0  0  0  0999 V2000
    5.7540   -1.9710    0.9550 C   0  0  0  0  0  0  0  0  0  0  0  0
    4.5260   -1.1910    0.5690 C   0  0  0  0  0  0  0  0  0  0  0  0
    3.4940   -1.8440   -0.0660 C   0  0  0  0  0  0  0  0  0  0  0  0
    2.3480   -1.1470   -0.4340 C   0  0  0  0  0  0  0  0  0  0  0  0
    1.2060   -1.5090   -1.0510 N   0  0  0  0  0  0  0  0  0  0  0  0
    0.4100   -0.4320   -1.1660 C   0  0  0  0  0  0  0  0  0  0  0  0
    1.0590    0.6010   -0.6190 N   0  0  0  0  0  0  0  0  0  0  0  0
    2.2540    0.1960   -0.1590 C   0  0  0  0  0  0  0  0  0  0  0  0
    3.3020    0.8610    0.4860 C   0  0  0  0  0  0  0  0  0  0  0  0
    4.4220    0.1530    0.8390 C   0  0  0  0  0  0  0  0  0  0  0  0
    5.5580    0.8330    1.5290 C   0  0  0  0  0  0  0  0  0  0  0  0
    0.2390    1.8090   -0.7130 C   0  0  0  0  0  0  0  0  0  0  0  0
   -0.6210    1.4990   -1.9190 C   0  0  0  0  0  0  0  0  0  0  0  0
   -0.9290    0.0330   -1.6790 C   0  0  2  0  0  0  0  0  0  0  0  0
   -1.9080   -0.1570   -0.6430 N   0  0  0  0  0  0  0  0  0  0  0  0
   -3.0970   -0.8860   -0.8660 C   0  0  0  0  0  0  0  0  0  0  0  0
   -3.3040   -1.3790   -1.9940 O   0  0  0  0  0  0  0  0  0  0  0  0
   -4.1080   -1.0860    0.1960 C   0  0  2  0  0  0  0  0  0  0  0  0
   -5.4310   -0.6730   -0.3180 C   0  0  0  0  0  0  0  0  0  0  0  0
   -5.8500    0.5870   -0.0340 O   0  0  0  0  0  0  0  0  0  0  0  0
   -4.9420    1.3560    0.6480 C   0  0  0  0  0  0  0  0  0  0  0  0
   -4.4960    0.5000    1.8420 C   0  0  0  0  0  0  0  0  0  0  0  0
   -3.6690   -0.4610    1.3320 O   0  0  0  0  0  0  0  0  0  0  0  0
  1  2  1  0
  2  3  2  0
  2 10  1  0
  3  4  1  0
  4  5  1  0
  4  8  2  0
  5  6  2  0
  6  7  1  0
  6 14  1  0
  7  8  1  0
  7 12  1  0
  8  9  1  0
  9 10  2  0
 10 11  1  0
 12 13  1  0
 13 14  1  0
 14 15  1  1
 15 16  1  0
 16 17  2  0
 18 16  1  6
 18 19  1  0
 18 23  1  0
 19 20  1  0
 20 21  1  0
 21 22  1  0
 22 23  1  0
M  END
