
     RDKit          3D

 23 26  0  0  0  0  0  0  0  0999 V2000
    0.9650   -2.0180   -0.6010 C   0  0  0  0  0  0  0  0  0  0  0  0
    1.6020   -0.8400   -0.0440 N   0  0  0  0  0  0  0  0  0  0  0  0
    2.9120   -0.9960    0.5450 C   0  0  0  0  0  0  0  0  0  0  0  0
    3.9280   -0.7620   -0.5810 C   0  0  2  0  0  0  0  0  0  0  0  0
    5.2910   -0.8380    0.0440 C   0  0  0  0  0  0  0  0  0  0  0  0
    5.7100    0.5940    0.1940 C   0  0  0  0  0  0  0  0  0  0  0  0
    4.7320    1.3340   -0.6430 C   0  0  0  0  0  0  0  0  0  0  0  0
    3.7290    0.5040   -1.0510 O   0  0  0  0  0  0  0  0  0  0  0  0
    0.9800    0.4150   -0.0680 C   0  0  0  0  0  0  0  0  0  0  0  0
    1.5340    1.4250    0.4140 O   0  0  0  0  0  0  0  0  0  0  0  0
   -0.3370    0.5490   -0.6650 C   0  0  0  0  0  0  0  0  0  0  0  0
   -0.6540    0.8380   -1.9860 C   0  0  0  0  0  0  0  0  0  0  0  0
   -1.9920    0.8690   -2.1110 N   0  0  0  0  0  0  0  0  0  0  0  0
   -2.5570    0.6140   -0.9290 N   0  0  0  0  0  0  0  0  0  0  0  0
   -1.5850    0.4160   -0.0360 C   0  0  0  0  0  0  0  0  0  0  0  0
   -1.8110    0.1090    1.3820 C   0  0  0  0  0  0  0  0  0  0  0  0
   -3.2080    0.0100    1.8340 C   0  0  0  0  0  0  0  0  0  0  0  0
   -4.2660    0.2310    0.8490 C   0  0  0  0  0  0  0  0  0  0  0  0
   -5.5500    0.1500    1.2440 C   0  0  0  0  0  0  0  0  0  0  0  0
   -6.5230    0.3570    0.3180 O   0  0  0  0  0  0  0  0  0  0  0  0
   -6.3220    0.6480   -1.0280 C   0  0  0  0  0  0  0  0  0  0  0  0
   -4.9020    0.7250   -1.3990 C   0  0  0  0  0  0  0  0  0  0  0  0
   -3.9230    0.5310   -0.5290 C   0  0  0  0  0  0  0  0  0  0  0  0
  1  2  1  0
  2  3  1  0
  2  9  1  0
  4  3  1  1
  4  5  1  0
  4  8  1  0
  5  6  1  0
  6  7  1  0
  7  8  1  0
  9 10  2  0
  9 11  1  0
 11 12  1  0
 11 15  2  0
 12 13  2  0
 13 14  1  0
 14 15  1  0
 14 23  1  0
 15 16  1  0
 16 17  1  0
 17 18  1  0
 18 19  2  0
 18 23  1  0
 19 20  1  0
 20 21  1  0
 21 22  1  0
 22 23  2  0
M  END
