
     RDKit          3D

 24 28  0  0  0  0  0  0  0  0999 V2000
    0.7430   -0.1480   -1.9720 C   0  0  0  0  0  0  0  0  0  0  0  0
    1.0110   -0.8840   -0.7440 N   0  0  0  0  0  0  0  0  0  0  0  0
    0.0140   -1.7850   -0.2880 C   0  0  0  0  0  0  0  0  0  0  0  0
   -1.2580   -1.0290   -0.0400 C   0  0  0  0  0  0  0  0  0  0  0  0
   -1.2680   -0.0930    1.0000 C   0  0  0  0  0  0  0  0  0  0  0  0
   -2.4490    0.6050    1.2340 C   0  0  0  0  0  0  0  0  0  0  0  0
   -2.9800    1.5690    2.0630 C   0  0  0  0  0  0  0  0  0  0  0  0
   -4.2930    1.7970    1.7110 N   0  0  0  0  0  0  0  0  0  0  0  0
   -4.6170    0.9880    0.6590 C   0  0  0  0  0  0  0  0  0  0  0  0
   -3.4830    0.2980    0.4140 C   0  0  0  0  0  0  0  0  0  0  0  0
   -3.5160   -0.5950   -0.5980 C   0  0  0  0  0  0  0  0  0  0  0  0
   -2.3390   -1.2730   -0.8120 N   0  0  0  0  0  0  0  0  0  0  0  0
   -4.8210   -0.5090   -1.1040 N   0  0  0  0  0  0  0  0  0  0  0  0
   -5.6180    0.4970   -0.3500 C   0  0  0  0  0  0  0  0  0  0  0  0
    2.2470   -0.6370   -0.0980 C   0  0  0  0  0  0  0  0  0  0  0  0
    2.6390   -1.2840    1.0530 C   0  0  0  0  0  0  0  0  0  0  0  0
    3.8660   -1.0140    1.6720 C   0  0  0  0  0  0  0  0  0  0  0  0
    4.7240   -0.0820    1.1370 C   0  0  0  0  0  0  0  0  0  0  0  0
    5.9060    0.3740    1.4760 O   0  0  0  0  0  0  0  0  0  0  0  0
    6.3010    1.2930    0.5930 C   0  0  0  0  0  0  0  0  0  0  0  0
    7.3900    1.9260    0.6310 O   0  0  0  0  0  0  0  0  0  0  0  0
    5.3650    1.4450   -0.3440 N   0  0  0  0  0  0  0  0  0  0  0  0
    4.3610    0.5940   -0.0290 C   0  0  0  0  0  0  0  0  0  0  0  0
    3.1470    0.2930   -0.5950 C   0  0  0  0  0  0  0  0  0  0  0  0
  1  2  1  0
  2  3  1  0
  2 15  1  0
  3  4  1  0
  4  5  2  0
  4 12  1  0
  5  6  1  0
  6  7  2  0
  6 10  1  0
  7  8  1  0
  8  9  1  0
  9 10  2  0
  9 14  1  0
 10 11  1  0
 11 12  2  0
 11 13  1  0
 13 14  1  0
 15 16  2  0
 15 24  1  0
 16 17  1  0
 17 18  2  0
 18 19  1  0
 18 23  1  0
 19 20  1  0
 20 21  2  0
 20 22  1  0
 22 23  1  0
 23 24  2  0
M  CHG  1  12   1
M  END
