
     RDKit          3D

 24 27  0  0  0  0  0  0  0  0999 V2000
    6.1810    0.2670    0.1690 C   0  0  0  0  0  0  0  0  0  0  0  0
    4.9330   -0.2600   -0.4930 C   0  0  0  0  0  0  0  0  0  0  0  0
    4.8600   -1.5910   -0.8750 C   0  0  0  0  0  0  0  0  0  0  0  0
    3.7080   -2.0420   -1.4840 C   0  0  0  0  0  0  0  0  0  0  0  0
    2.6290   -1.2010   -1.7210 C   0  0  0  0  0  0  0  0  0  0  0  0
    2.7320    0.1110   -1.3310 C   0  0  0  0  0  0  0  0  0  0  0  0
    1.6400    1.0820   -1.5390 C   0  0  0  0  0  0  0  0  0  0  0  0
    0.6720    1.1320   -0.3940 C   0  0  0  0  0  0  0  0  0  0  0  0
   -0.0370   -0.1730   -0.1300 C   0  0  0  0  0  0  0  0  0  0  0  0
   -0.9160    0.0410    0.9960 N   0  0  0  0  0  0  0  0  0  0  0  0
   -0.4960    0.2510    2.3670 C   0  0  0  0  0  0  0  0  0  0  0  0
   -1.6420    0.9680    3.0080 C   0  0  0  0  0  0  0  0  0  0  0  0
   -2.8150    0.6480    2.1520 C   0  0  0  0  0  0  0  0  0  0  0  0
   -4.1520    0.6770    2.0600 N   0  0  0  0  0  0  0  0  0  0  0  0
   -4.5690    0.1810    0.8920 C   0  0  0  0  0  0  0  0  0  0  0  0
   -5.8170   -0.0080    0.3070 C   0  0  0  0  0  0  0  0  0  0  0  0
   -6.8250    0.3460    0.9840 O   0  0  0  0  0  0  0  0  0  0  0  0
   -5.9570   -0.5400   -0.9150 N   0  0  0  0  0  0  0  0  0  0  0  0
   -4.8540   -0.9010   -1.5950 C   0  0  0  0  0  0  0  0  0  0  0  0
   -4.9950   -1.3990   -2.7400 O   0  0  0  0  0  0  0  0  0  0  0  0
   -3.6370   -0.7180   -1.0290 N   0  0  0  0  0  0  0  0  0  0  0  0
   -3.4510   -0.1900    0.1910 C   0  0  0  0  0  0  0  0  0  0  0  0
   -2.3330    0.1050    0.9860 C   0  0  0  0  0  0  0  0  0  0  0  0
    3.8840    0.5210   -0.7320 N   0  0  0  0  0  0  0  0  0  0  0  0
  1  2  1  0
  2  3  2  0
  2 24  1  0
  3  4  1  0
  4  5  2  0
  5  6  1  0
  6  7  1  0
  6 24  2  0
  7  8  1  0
  8  9  1  0
  9 10  1  0
 10 11  1  0
 10 23  1  0
 11 12  1  0
 12 13  1  0
 13 14  1  0
 13 23  2  0
 14 15  1  0
 15 16  1  0
 15 22  2  0
 16 17  2  0
 16 18  1  0
 18 19  1  0
 19 20  2  0
 19 21  1  0
 21 22  1  0
 22 23  1  0
M  CHG  1  24   1
M  END
