
     RDKit          3D

 16 17  0  0  0  0  0  0  0  0999 V2000
   -1.7080    2.3700   -0.4610 C   0  0  0  0  0  0  0  0  0  0  0  0
   -2.1730    1.0200   -0.1090 C   0  0  0  0  0  0  0  0  0  0  0  0
   -3.3430    0.7970    0.6240 C   0  0  0  0  0  0  0  0  0  0  0  0
   -3.7600   -0.4370    0.9420 N   0  0  0  0  0  0  0  0  0  0  0  0
   -3.0400   -1.4980    0.5480 C   0  0  0  0  0  0  0  0  0  0  0  0
   -1.8860   -1.3060   -0.1740 C   0  0  0  0  0  0  0  0  0  0  0  0
   -1.1010   -2.4890   -0.6010 C   0  0  0  0  0  0  0  0  0  0  0  0
   -1.4190   -0.0580   -0.5220 C   0  0  0  0  0  0  0  0  0  0  0  0
   -0.2270    0.0440   -1.2640 N   0  0  0  0  0  0  0  0  0  0  0  0
    1.0630    0.1490   -0.6680 C   0  0  0  0  0  0  0  0  0  0  0  0
    1.2330    0.1590    0.6880 C   0  0  0  0  0  0  0  0  0  0  0  0
    2.4970    0.2630    1.2060 C   0  0  0  0  0  0  0  0  0  0  0  0
    3.6050    0.3580    0.3830 C   0  0  0  0  0  0  0  0  0  0  0  0
    4.9000    0.4640    0.8770 O   0  0  0  0  0  0  0  0  0  0  0  0
    3.4570    0.3500   -0.9880 C   0  0  0  0  0  0  0  0  0  0  0  0
    2.1710    0.2440   -1.4670 C   0  0  0  0  0  0  0  0  0  0  0  0
  1  2  1  0
  2  3  2  0
  2  8  1  0
  3  4  1  0
  4  5  2  0
  5  6  1  0
  6  7  1  0
  6  8  2  0
  8  9  1  0
  9 10  1  0
 10 11  2  0
 10 16  1  0
 11 12  1  0
 12 13  2  0
 13 14  1  0
 13 15  1  0
 15 16  2  0
M  END
