
     RDKit          3D

 16 17  0  0  0  0  0  0  0  0999 V2000
   -2.6670   -0.4500   -1.1030 C   0  0  0  0  0  0  0  0  0  0  0  0
   -2.2810    0.3930    0.1040 C   0  0  2  0  0  0  0  0  0  0  0  0
   -3.3880    0.2860    1.1290 C   0  0  0  0  0  0  0  0  0  0  0  0
   -2.1210    1.8460   -0.2760 C   0  0  0  0  0  0  0  0  0  0  0  0
   -0.8310    2.0900   -0.9810 C   0  0  0  0  0  0  0  0  0  0  0  0
   -0.5660    3.2640   -1.3440 O   0  0  0  0  0  0  0  0  0  0  0  0
    0.0370    0.9480   -1.2030 C   0  0  0  0  0  0  0  0  0  0  0  0
   -0.0020   -0.1560   -0.4590 C   0  0  0  0  0  0  0  0  0  0  0  0
    0.8800   -1.2090   -0.7510 N   0  0  0  0  0  0  0  0  0  0  0  0
    2.2470   -1.1250   -0.4150 C   0  0  0  0  0  0  0  0  0  0  0  0
    2.7380   -0.0010    0.2100 C   0  0  0  0  0  0  0  0  0  0  0  0
    4.0900    0.1100    0.5550 C   0  0  0  0  0  0  0  0  0  0  0  0
    4.9430   -0.9240    0.2650 C   0  0  0  0  0  0  0  0  0  0  0  0
    4.4500   -2.0270   -0.3510 N   0  0  0  0  0  0  0  0  0  0  0  0
    3.1510   -2.1320   -0.6820 C   0  0  0  0  0  0  0  0  0  0  0  0
   -0.9950   -0.1910    0.6480 C   0  0  0  0  0  0  0  0  0  0  0  0
  2  1  1  6
  2  3  1  0
  2  4  1  0
  2 16  1  0
  4  5  1  0
  5  6  2  0
  5  7  1  0
  7  8  2  0
  8  9  1  0
  8 16  1  0
  9 10  1  0
 10 11  2  0
 10 15  1  0
 11 12  1  0
 12 13  2  0
 13 14  1  0
 14 15  2  0
M  END
