
     RDKit          3D

 16 17  0  0  0  0  0  0  0  0999 V2000
   -5.2130   -0.3900   -0.5650 C   0  0  0  0  0  0  0  0  0  0  0  0
   -3.7410   -0.2380   -0.9720 C   0  0  0  0  0  0  0  0  0  0  0  0
   -3.1850    0.9860   -0.3030 C   0  0  0  0  0  0  0  0  0  0  0  0
   -1.8090    1.2330   -0.5950 N   0  0  0  0  0  0  0  0  0  0  0  0
   -0.7560    0.5000   -0.0430 C   0  0  0  0  0  0  0  0  0  0  0  0
   -0.9560   -0.5270    0.8380 C   0  0  0  0  0  0  0  0  0  0  0  0
    0.1650   -1.2220    1.3220 C   0  0  0  0  0  0  0  0  0  0  0  0
   -0.0010   -2.1650    2.1280 O   0  0  0  0  0  0  0  0  0  0  0  0
    1.4410   -0.9010    0.9400 C   0  0  0  0  0  0  0  0  0  0  0  0
    2.5590   -1.5710    1.4040 C   0  0  0  0  0  0  0  0  0  0  0  0
    3.8360   -1.2350    1.0090 C   0  0  0  0  0  0  0  0  0  0  0  0
    3.9900   -0.1900    0.1180 C   0  0  0  0  0  0  0  0  0  0  0  0
    5.3090    0.2660   -0.3810 C   0  0  0  0  0  0  0  0  0  0  0  0
    2.8770    0.4880   -0.3530 C   0  0  0  0  0  0  0  0  0  0  0  0
    1.5890    0.1390    0.0540 C   0  0  0  0  0  0  0  0  0  0  0  0
    0.5220    0.8050   -0.4120 N   0  0  0  0  0  0  0  0  0  0  0  0
  1  2  1  0
  2  3  1  0
  3  4  1  0
  4  5  1  0
  5  6  2  0
  5 16  1  0
  6  7  1  0
  7  8  2  0
  7  9  1  0
  9 10  2  0
  9 15  1  0
 10 11  1  0
 11 12  2  0
 12 13  1  0
 12 14  1  0
 14 15  2  0
 15 16  1  0
M  END
