
     RDKit          3D

 16 18  0  0  0  0  0  0  0  0999 V2000
    4.4080   -1.2870    0.9210 O   0  0  0  0  0  0  0  0  0  0  0  0
    3.4320   -0.5580    0.2860 C   0  0  0  0  0  0  0  0  0  0  0  0
    3.7430    0.6270   -0.3590 C   0  0  0  0  0  0  0  0  0  0  0  0
    2.7580    1.3450   -0.9880 C   0  0  0  0  0  0  0  0  0  0  0  0
    1.4650    0.8630   -0.9650 C   0  0  0  0  0  0  0  0  0  0  0  0
    1.1130   -0.3040   -0.3390 C   0  0  0  0  0  0  0  0  0  0  0  0
   -0.2450   -0.7890   -0.3220 C   0  0  0  0  0  0  0  0  0  0  0  0
   -0.6950   -2.0540   -0.5680 N   0  0  0  0  0  0  0  0  0  0  0  0
   -1.9970   -2.1230   -0.4570 N   0  0  0  0  0  0  0  0  0  0  0  0
   -2.4290   -0.8930   -0.1330 C   0  0  0  0  0  0  0  0  0  0  0  0
   -3.7080   -0.4180    0.1010 C   0  0  0  0  0  0  0  0  0  0  0  0
   -3.9030    0.8930    0.4210 C   0  0  0  0  0  0  0  0  0  0  0  0
   -2.8390    1.7650    0.5180 C   0  0  0  0  0  0  0  0  0  0  0  0
   -1.5480    1.3170    0.2890 C   0  0  0  0  0  0  0  0  0  0  0  0
   -1.3640   -0.0150   -0.0360 C   0  0  0  0  0  0  0  0  0  0  0  0
    2.1070   -1.0190    0.2910 C   0  0  0  0  0  0  0  0  0  0  0  0
  1  2  1  0
  2  3  2  0
  2 16  1  0
  3  4  1  0
  4  5  2  0
  5  6  1  0
  6  7  1  0
  6 16  2  0
  7  8  2  0
  7 15  1  0
  8  9  1  0
  9 10  1  0
 10 11  2  0
 10 15  1  0
 11 12  1  0
 12 13  2  0
 13 14  1  0
 14 15  2  0
M  END
