
     RDKit          3D

 24 25  0  0  0  0  0  0  0  0999 V2000
    6.0440    1.8980   -1.5420 C   0  0  0  0  0  0  0  0  0  0  0  0
    5.9620    0.7080   -0.9940 C   0  0  0  0  0  0  0  0  0  0  0  0
    7.1340   -0.2500   -1.1820 C   0  0  0  0  0  0  0  0  0  0  0  0
    4.8170    0.2920   -0.2360 C   0  0  0  0  0  0  0  0  0  0  0  0
    4.8770   -0.9580    0.2660 C   0  0  0  0  0  0  0  0  0  0  0  0
    3.6430    1.0820    0.0240 C   0  0  0  0  0  0  0  0  0  0  0  0
    3.4400    2.2460   -0.3680 O   0  0  0  0  0  0  0  0  0  0  0  0
    2.5750    0.5570    0.7900 O   0  0  0  0  0  0  0  0  0  0  0  0
    1.4090    1.2920    1.0700 C   0  0  2  0  0  0  0  0  0  0  0  0
    1.1800    1.5080    2.5390 C   0  0  0  0  0  0  0  0  0  0  0  0
    0.2020    0.5880    0.5010 C   0  0  0  0  0  0  0  0  0  0  0  0
    0.3340   -0.4830   -0.1090 O   0  0  0  0  0  0  0  0  0  0  0  0
   -1.0310    1.1990    0.6990 N   0  0  0  0  0  0  0  0  0  0  0  0
   -2.3200    0.7370    0.3240 C   0  0  0  0  0  0  0  0  0  0  0  0
   -3.6040    1.9610   -0.0880 S   0  0  0  0  0  0  0  0  0  0  0  0
   -4.8690    0.8010   -0.4260 C   0  0  0  0  0  0  0  0  0  0  0  0
   -4.2850   -0.4120   -0.2160 C   0  0  0  0  0  0  0  0  0  0  0  0
   -2.9680   -0.4220    0.1780 C   0  0  0  0  0  0  0  0  0  0  0  0
   -2.3530   -1.6870    0.7200 C   0  0  0  0  0  0  0  0  0  0  0  0
   -2.9010   -3.0360    0.4480 C   0  0  0  0  0  0  0  0  0  0  0  0
   -1.3290   -1.6620    1.4390 O   0  0  0  0  0  0  0  0  0  0  0  0
   -5.3670   -1.4470   -0.5240 C   0  0  0  0  0  0  0  0  0  0  0  0
   -6.2250   -0.6880   -1.5150 C   0  0  0  0  0  0  0  0  0  0  0  0
   -6.3110    0.6620   -0.8480 C   0  0  0  0  0  0  0  0  0  0  0  0
  1  2  2  0
  2  3  1  0
  2  4  1  0
  4  5  2  0
  4  6  1  0
  6  7  2  0
  6  8  1  0
  8  9  1  0
  9 10  1  1
  9 11  1  0
 11 12  2  0
 11 13  1  0
 13 14  1  0
 14 15  1  0
 14 18  2  0
 15 16  1  0
 16 17  2  0
 16 24  1  0
 17 18  1  0
 17 22  1  0
 18 19  1  0
 19 20  1  0
 19 21  2  0
 22 23  1  0
 23 24  1  0
M  END
