
     RDKit          3D

 15 15  0  0  0  0  0  0  0  0999 V2000
    6.6800    0.0240    0.1840 C   0  0  0  0  0  0  0  0  0  0  0  0
    5.3670   -0.7100    0.3590 C   0  0  0  0  0  0  0  0  0  0  0  0
    4.2600    0.2520    0.0970 C   0  0  0  0  0  0  0  0  0  0  0  0
    2.9410   -0.3800    0.2450 N   0  0  0  0  0  0  0  0  0  0  0  0
    1.7450    0.3560    0.0400 C   0  0  0  0  0  0  0  0  0  0  0  0
    1.8640    1.5660   -0.2720 O   0  0  0  0  0  0  0  0  0  0  0  0
    0.4500   -0.2120    0.1720 N   0  0  0  0  0  0  0  0  0  0  0  0
   -0.7510    0.5720   -0.0450 C   0  0  2  0  0  0  0  0  0  0  0  0
   -1.5180    0.6110    1.2310 C   0  0  0  0  0  0  0  0  0  0  0  0
   -2.9790    0.7690    1.1120 C   0  0  0  0  0  0  0  0  0  0  0  0
   -3.6140   -0.0730    0.0410 C   0  0  1  0  0  0  0  0  0  0  0  0
   -3.4780   -1.5510    0.3260 C   0  0  0  0  0  0  0  0  0  0  0  0
   -5.0620    0.3570   -0.0730 C   0  0  0  0  0  0  0  0  0  0  0  0
   -2.9300    0.2910   -1.2610 C   0  0  0  0  0  0  0  0  0  0  0  0
   -1.4760   -0.0000   -1.2120 C   0  0  0  0  0  0  0  0  0  0  0  0
  1  2  1  0
  2  3  1  0
  3  4  1  0
  4  5  1  0
  5  6  2  0
  5  7  1  0
  8  7  1  1
  8  9  1  0
  8 15  1  0
  9 10  1  0
 10 11  1  0
 11 12  1  1
 11 13  1  0
 11 14  1  0
 14 15  1  0
M  END
