
     RDKit          3D

 25 26  0  0  0  0  0  0  0  0999 V2000
   -3.5590    0.7210    3.7380 C   0  0  0  0  0  0  0  0  0  0  0  0
   -3.4100    0.9810    2.2450 C   0  0  0  0  0  0  0  0  0  0  0  0
   -3.9580   -0.2080    1.4960 C   0  0  0  0  0  0  0  0  0  0  0  0
   -3.8940   -0.0660    0.1050 N   0  0  0  0  0  0  0  0  0  0  0  0
   -4.3470   -1.1410   -0.7000 C   0  0  0  0  0  0  0  0  0  0  0  0
   -3.2150   -1.7810   -1.4710 C   0  0  0  0  0  0  0  0  0  0  0  0
   -1.8850   -1.1250   -1.1980 C   0  0  0  0  0  0  0  0  0  0  0  0
   -1.9510    0.3890   -1.3170 C   0  0  1  0  0  0  0  0  0  0  0  0
   -0.7610    0.9140   -0.7510 N   0  0  0  0  0  0  0  0  0  0  0  0
    0.4740    0.5570   -1.3390 C   0  0  0  0  0  0  0  0  0  0  0  0
    1.6060    1.2410   -0.5790 C   0  0  2  0  0  0  0  0  0  0  0  0
    1.3580    2.7560   -0.6390 C   0  0  0  0  0  0  0  0  0  0  0  0
    2.8410    0.9080   -1.1290 O   0  0  0  0  0  0  0  0  0  0  0  0
    3.8940    0.3590   -0.4850 C   0  0  0  0  0  0  0  0  0  0  0  0
    5.0530    0.0980   -1.2310 C   0  0  0  0  0  0  0  0  0  0  0  0
    6.1560   -0.4520   -0.6600 C   0  0  0  0  0  0  0  0  0  0  0  0
    6.1730   -0.7700    0.6670 C   0  0  0  0  0  0  0  0  0  0  0  0
    7.3150   -1.3450    1.2850 N   0  0  0  0  0  0  0  0  0  0  0  0
    5.0410   -0.5180    1.4050 C   0  0  0  0  0  0  0  0  0  0  0  0
    5.0060   -0.8300    2.7780 N   0  0  0  0  0  0  0  0  0  0  0  0
    3.9020    0.0460    0.8340 C   0  0  0  0  0  0  0  0  0  0  0  0
   -2.1530    0.8430   -2.7140 C   0  0  0  0  0  0  0  0  0  0  0  0
   -3.2760    0.4360   -3.4910 N   0  0  0  0  0  0  0  0  0  0  0  0
   -1.3370    1.6140   -3.2780 O   0  0  0  0  0  0  0  0  0  0  0  0
   -3.1180    0.9330   -0.4990 C   0  0  0  0  0  0  0  0  0  0  0  0
  1  2  1  0
  2  3  1  0
  3  4  1  0
  4  5  1  0
  4 25  1  0
  5  6  1  0
  6  7  1  0
  7  8  1  0
  8  9  1  1
  8 22  1  0
  8 25  1  0
  9 10  1  0
 10 11  1  0
 11 12  1  6
 11 13  1  0
 13 14  1  0
 14 15  2  0
 14 21  1  0
 15 16  1  0
 16 17  2  0
 17 18  1  0
 17 19  1  0
 19 20  1  0
 19 21  2  0
 22 23  1  0
 22 24  2  0
M  END
