
     RDKit          3D

 25 25  0  0  0  0  0  0  0  0999 V2000
    7.7890   -0.7990   -0.2700 C   0  0  0  0  0  0  0  0  0  0  0  0
    6.7280   -0.1660    0.2120 C   0  0  0  0  0  0  0  0  0  0  0  0
    6.7290    0.2420    1.6370 C   0  0  0  0  0  0  0  0  0  0  0  0
    5.5450    0.1430   -0.6310 C   0  0  0  0  0  0  0  0  0  0  0  0
    4.3310   -0.5310   -0.0290 C   0  0  2  0  0  0  0  0  0  0  0  0
    4.4920   -2.0230    0.0430 C   0  0  0  0  0  0  0  0  0  0  0  0
    3.1300   -0.2570   -0.7890 N   0  0  0  0  0  0  0  0  0  0  0  0
    1.9980    0.3860   -0.2260 C   0  0  0  0  0  0  0  0  0  0  0  0
    2.0800    0.7180    0.9980 O   0  0  0  0  0  0  0  0  0  0  0  0
    0.8330    0.6430   -0.9960 N   0  0  0  0  0  0  0  0  0  0  0  0
   -0.2870    1.2830   -0.4210 N   0  0  0  0  0  0  0  0  0  0  0  0
   -1.5480    0.6580   -0.5610 C   0  0  0  0  0  0  0  0  0  0  0  0
   -2.3960    1.0460   -1.4720 C   0  0  0  0  0  0  0  0  0  0  0  0
   -2.0390    2.1590   -2.3970 C   0  0  0  0  0  0  0  0  0  0  0  0
   -0.7310    2.6950   -2.1560 N   0  0  0  0  0  0  0  0  0  0  0  0
   -3.7090    0.4360   -1.4680 C   0  0  0  0  0  0  0  0  0  0  0  0
   -4.0940   -0.4620   -0.5930 C   0  0  0  0  0  0  0  0  0  0  0  0
   -5.4620   -0.9830   -0.7660 C   0  0  0  0  0  0  0  0  0  0  0  0
   -6.2630   -0.4920   -1.8070 N   0  0  0  0  0  0  0  0  0  0  0  0
   -5.9010   -1.8400   -0.0090 O   0  0  0  0  0  0  0  0  0  0  0  0
   -3.2540   -0.8030    0.5570 C   0  0  2  0  0  0  0  0  0  0  0  0
   -3.5720   -0.0370    1.8180 C   0  0  0  0  0  0  0  0  0  0  0  0
   -4.8790   -0.1790    2.4420 C   0  0  0  0  0  0  0  0  0  0  0  0
   -5.2050   -1.5570    2.9650 C   0  0  0  0  0  0  0  0  0  0  0  0
   -1.8060   -0.5330    0.2890 C   0  0  0  0  0  0  0  0  0  0  0  0
  1  2  2  0
  2  3  1  0
  2  4  1  0
  4  5  1  0
  5  6  1  6
  5  7  1  0
  7  8  1  0
  8  9  2  0
  8 10  1  0
 10 11  1  0
 11 12  1  0
 12 13  2  0
 12 25  1  0
 13 14  1  0
 13 16  1  0
 14 15  1  0
 16 17  2  0
 17 18  1  0
 17 21  1  0
 18 19  1  0
 18 20  2  0
 21 22  1  1
 21 25  1  0
 22 23  1  0
 23 24  1  0
M  END
