
     RDKit          3D

  9  9  0  0  0  0  0  0  0  0999 V2000
    2.7080   -0.2280    0.1400 C   0  0  0  0  0  0  0  0  0  0  0  0
    1.4100   -0.7530   -0.0950 O   0  0  0  0  0  0  0  0  0  0  0  0
    0.2730    0.0640   -0.0760 C   0  0  0  0  0  0  0  0  0  0  0  0
    0.4610    1.3090   -0.0770 N   0  0  0  0  0  0  0  0  0  0  0  0
   -0.4450    2.3950   -0.0620 C   0  0  0  0  0  0  0  0  0  0  0  0
   -2.1570    1.8530   -0.0360 S   0  0  0  0  0  0  0  0  0  0  0  0
   -2.1610    0.0830   -0.0380 C   0  0  0  0  0  0  0  0  0  0  0  0
   -1.0350   -0.5700   -0.0570 C   0  0  0  0  0  0  0  0  0  0  0  0
   -1.0980   -2.0580   -0.0580 C   0  0  0  0  0  0  0  0  0  0  0  0
  1  2  1  0
  2  3  1  0
  3  4  2  0
  3  8  1  0
  4  5  1  0
  5  6  1  0
  6  7  1  0
  7  8  2  0
  8  9  1  0
M  END
