
     RDKit          3D

 25 26  0  0  0  0  0  0  0  0999 V2000
   -5.3370    1.3640   -1.1500 C   0  0  0  0  0  0  0  0  0  0  0  0
   -4.4300    1.4610    0.0410 C   0  0  0  0  0  0  0  0  0  0  0  0
   -3.4310    0.2950    0.0260 C   0  0  2  0  0  0  0  0  0  0  0  0
   -4.1620   -0.9960    0.0730 C   0  0  0  0  0  0  0  0  0  0  0  0
   -2.7180    0.4040    1.3450 C   0  0  0  0  0  0  0  0  0  0  0  0
   -2.1570    0.5010    2.3480 N   0  0  0  0  0  0  0  0  0  0  0  0
   -2.4850    0.5560   -1.0690 C   0  0  1  0  0  0  0  0  0  0  0  0
   -1.8230    1.8410   -0.7680 N   0  0  0  0  0  0  0  0  0  0  0  0
   -1.4170   -0.5010   -1.1720 C   0  0  0  0  0  0  0  0  0  0  0  0
   -0.2850   -0.2230   -0.5560 C   0  0  0  0  0  0  0  0  0  0  0  0
    0.9160   -0.9870   -0.4530 C   0  0  0  0  0  0  0  0  0  0  0  0
    2.0360   -0.7040    0.1650 C   0  0  0  0  0  0  0  0  0  0  0  0
    3.1200   -1.6420    0.1270 N   0  0  0  0  0  0  0  0  0  0  0  0
    4.3350   -1.3590    0.7840 C   0  0  0  0  0  0  0  0  0  0  0  0
    5.3860   -2.3210    0.7210 N   0  0  0  0  0  0  0  0  0  0  0  0
    4.5580   -0.2500    1.4590 C   0  0  0  0  0  0  0  0  0  0  0  0
    5.7660    0.2140    2.2070 C   0  0  0  0  0  0  0  0  0  0  0  0
    5.4790    1.6800    2.4570 C   0  0  0  0  0  0  0  0  0  0  0  0
    4.0000    1.8550    2.3280 C   0  0  0  0  0  0  0  0  0  0  0  0
    3.5460    0.7150    1.5400 N   0  0  0  0  0  0  0  0  0  0  0  0
    2.2810    0.5140    0.9050 C   0  0  0  0  0  0  0  0  0  0  0  0
    1.4490    1.4240    1.0330 O   0  0  0  0  0  0  0  0  0  0  0  0
   -1.7050   -1.7300   -1.8420 C   0  0  0  0  0  0  0  0  0  0  0  0
   -2.9910   -2.0020   -2.5930 C   0  0  0  0  0  0  0  0  0  0  0  0
   -0.8450   -2.6760   -1.8330 O   0  0  0  0  0  0  0  0  0  0  0  0
  1  2  1  0
  2  3  1  0
  3  4  1  6
  3  5  1  0
  3  7  1  0
  5  6  3  0
  7  8  1  1
  7  9  1  0
  9 10  2  3
  9 23  1  0
 10 11  1  0
 11 12  2  3
 12 13  1  0
 12 21  1  0
 13 14  1  0
 14 15  1  0
 14 16  2  0
 16 17  1  0
 16 20  1  0
 17 18  1  0
 18 19  1  0
 19 20  1  0
 20 21  1  0
 21 22  2  0
 23 24  1  0
 23 25  2  0
M  END
