
     RDKit          3D

 25 26  0  0  0  0  0  0  0  0999 V2000
   -3.6880    2.3770    1.5560 C   0  0  0  0  0  0  0  0  0  0  0  0
   -3.3950    1.8710    0.1890 C   0  0  0  0  0  0  0  0  0  0  0  0
   -2.2160    0.9540    0.1610 N   0  0  0  0  0  0  0  0  0  0  0  0
   -1.1020    1.8400    0.4390 C   0  0  0  0  0  0  0  0  0  0  0  0
   -1.2670    2.5360    1.7140 N   0  0  0  0  0  0  0  0  0  0  0  0
   -2.1780    0.4870   -1.1740 C   0  0  0  0  0  0  0  0  0  0  0  0
   -1.2200   -0.5620   -1.5710 C   0  0  1  0  0  0  0  0  0  0  0  0
    0.1740   -0.1780   -1.3800 C   0  0  0  0  0  0  0  0  0  0  0  0
    0.5410    0.8460   -2.0530 O   0  0  0  0  0  0  0  0  0  0  0  0
    1.1380   -0.7900   -0.5620 N   0  0  0  0  0  0  0  0  0  0  0  0
    2.4790   -0.4180   -0.3790 C   0  0  0  0  0  0  0  0  0  0  0  0
    3.3500   -1.2840    0.2940 C   0  0  0  0  0  0  0  0  0  0  0  0
    4.6730   -0.9870    0.5250 C   0  0  0  0  0  0  0  0  0  0  0  0
    5.1820    0.2130    0.0800 C   0  0  0  0  0  0  0  0  0  0  0  0
    6.4400    0.7460    0.1760 C   0  0  0  0  0  0  0  0  0  0  0  0
    6.3940    1.9860   -0.4470 C   0  0  0  0  0  0  0  0  0  0  0  0
    5.1440    2.1690   -0.8930 N   0  0  0  0  0  0  0  0  0  0  0  0
    4.3830    1.0880   -0.5780 C   0  0  0  0  0  0  0  0  0  0  0  0
    3.0500    0.7570   -0.7940 C   0  0  0  0  0  0  0  0  0  0  0  0
   -1.6080   -1.9430   -1.1100 C   0  0  1  0  0  0  0  0  0  0  0  0
   -0.6080   -2.9880   -1.5370 C   0  0  0  0  0  0  0  0  0  0  0  0
   -1.8750   -2.0730    0.2790 N   0  0  0  0  0  0  0  0  0  0  0  0
   -3.1770   -2.5440    0.6880 C   0  0  0  0  0  0  0  0  0  0  0  0
   -3.4980   -2.6950    2.1330 C   0  0  0  0  0  0  0  0  0  0  0  0
   -4.0730   -2.8370   -0.1610 O   0  0  0  0  0  0  0  0  0  0  0  0
  1  2  1  0
  2  3  1  0
  3  4  1  0
  3  6  1  0
  4  5  1  0
  7  6  1  1
  7  8  1  0
  7 20  1  0
  8  9  2  0
  8 10  1  0
 10 11  1  0
 11 12  2  0
 11 19  1  0
 12 13  1  0
 13 14  2  0
 14 15  1  0
 14 18  1  0
 15 16  2  0
 16 17  1  0
 17 18  1  0
 18 19  2  0
 20 21  1  1
 20 22  1  0
 22 23  1  0
 23 24  1  0
 23 25  2  0
M  END
