
     RDKit          3D

 25 25  0  0  0  0  0  0  0  0999 V2000
   -0.6020   -1.4000    4.1680 C   0  0  0  0  0  0  0  0  0  0  0  0
   -0.8430   -1.4340    2.9010 N   0  0  0  0  0  0  0  0  0  0  0  0
   -2.0140   -1.9440    2.3460 C   0  0  0  0  0  0  0  0  0  0  0  0
   -2.7570   -1.2700    1.4290 C   0  0  0  0  0  0  0  0  0  0  0  0
   -3.8980   -2.0590    1.0680 N   0  0  0  0  0  0  0  0  0  0  0  0
   -2.3010   -0.0560    0.8990 C   0  0  0  0  0  0  0  0  0  0  0  0
   -2.7070    0.8650    0.1180 C   0  0  0  0  0  0  0  0  0  0  0  0
   -3.7530    1.3690   -0.7150 C   0  0  0  0  0  0  0  0  0  0  0  0
   -3.6110    2.5170   -1.4260 C   0  0  0  0  0  0  0  0  0  0  0  0
   -4.8460    2.7760   -2.1770 C   0  0  0  0  0  0  0  0  0  0  0  0
   -5.6810    1.7110   -1.8150 N   0  0  0  0  0  0  0  0  0  0  0  0
   -5.0720    0.8910   -0.9780 C   0  0  0  0  0  0  0  0  0  0  0  0
   -5.8160   -0.2950   -0.4420 C   0  0  0  0  0  0  0  0  0  0  0  0
   -0.8570    0.2260    1.3170 N   0  0  0  0  0  0  0  0  0  0  0  0
    0.1450   -0.5720    0.7220 C   0  0  0  0  0  0  0  0  0  0  0  0
   -0.1810   -1.4700   -0.1230 O   0  0  0  0  0  0  0  0  0  0  0  0
    1.5130   -0.4340    1.0130 N   0  0  0  0  0  0  0  0  0  0  0  0
    2.6250   -1.1360    0.4920 C   0  0  0  0  0  0  0  0  0  0  0  0
    2.8980   -1.0030   -0.9820 C   0  0  1  0  0  0  0  0  0  0  0  0
    4.0480   -1.8960   -1.3520 C   0  0  0  0  0  0  0  0  0  0  0  0
    1.7780   -1.5100   -1.6480 O   0  0  0  0  0  0  0  0  0  0  0  0
    3.0250    0.3970   -1.4630 C   0  0  0  0  0  0  0  0  0  0  0  0
    4.0580    1.2850   -0.9260 C   0  0  2  0  0  0  0  0  0  0  0  0
    5.4920    0.8090   -1.1280 C   0  0  0  0  0  0  0  0  0  0  0  0
    3.8590    1.8380    0.4450 C   0  0  0  0  0  0  0  0  0  0  0  0
  1  2  2  0
  2  3  1  0
  3  4  2  3
  4  5  1  0
  4  6  1  0
  6  7  2  3
  6 14  1  0
  7  8  1  0
  8  9  2  0
  8 12  1  0
  9 10  1  0
 10 11  1  0
 11 12  2  0
 12 13  1  0
 14 15  1  0
 15 16  2  0
 15 17  1  0
 17 18  1  0
 18 19  1  0
 19 20  1  6
 19 21  1  0
 19 22  1  0
 22 23  1  0
 23 24  1  1
 23 25  1  0
M  END
