
     RDKit          3D

  9  9  0  0  0  0  0  0  0  0999 V2000
    2.7410    1.8930    1.3830 N   0  0  0  0  0  0  0  0  0  0  0  0
    1.8950    1.2210    0.9690 C   0  0  0  0  0  0  0  0  0  0  0  0
    0.8130    0.3890    0.4290 C   0  0  0  0  0  0  0  0  0  0  0  0
    0.6950   -0.8460    0.8090 C   0  0  0  0  0  0  0  0  0  0  0  0
   -0.2690   -1.8810    0.4410 C   0  0  0  0  0  0  0  0  0  0  0  0
   -1.4660   -1.2740   -0.7420 S   0  0  0  0  0  0  0  0  0  0  0  0
   -1.0850    0.4220   -1.0920 C   0  0  0  0  0  0  0  0  0  0  0  0
   -1.9160    1.0910   -2.0090 O   0  0  0  0  0  0  0  0  0  0  0  0
   -0.0760    1.0220   -0.5200 C   0  0  0  0  0  0  0  0  0  0  0  0
  1  2  3  0
  2  3  1  0
  3  4  2  0
  3  9  1  0
  4  5  1  0
  5  6  1  0
  6  7  1  0
  7  8  1  0
  7  9  2  0
M  END
