
     RDKit          3D

 12 12  0  0  0  0  0  0  0  0999 V2000
   -1.9120   -1.4130   -0.2010 N   0  0  0  0  0  0  0  0  0  0  0  0
   -1.0230   -0.3190    0.2780 C   0  0  2  0  0  0  0  0  0  0  0  0
   -1.8450    0.9040    0.1700 C   0  0  0  0  0  0  0  0  0  0  0  0
   -2.9640    0.8360   -0.4500 O   0  0  0  0  0  0  0  0  0  0  0  0
   -1.5180    2.1380    0.6850 O   0  0  0  0  0  0  0  0  0  0  0  0
    0.1620   -0.2470   -0.6570 C   0  0  2  0  0  0  0  0  0  0  0  0
    0.9120   -1.6210   -0.6660 C   0  0  0  0  0  0  0  0  0  0  0  0
    1.6920   -1.0340    0.5110 C   0  0  0  0  0  0  0  0  0  0  0  0
    1.4410    0.3220   -0.1750 C   0  0  2  0  0  0  0  0  0  0  0  0
    1.5250    1.4990    0.6420 C   0  0  0  0  0  0  0  0  0  0  0  0
    1.7620    1.4280    1.8690 O   0  0  0  0  0  0  0  0  0  0  0  0
    1.3460    2.7590    0.1070 O   0  0  0  0  0  0  0  0  0  0  0  0
  2  1  1  6
  2  3  1  0
  2  6  1  0
  3  4  2  0
  3  5  1  0
  6  7  1  1
  6  9  1  0
  7  8  1  0
  8  9  1  0
  9 10  1  1
 10 11  2  0
 10 12  1  0
M  CHG  1   1   1
M  END
