
     RDKit          3D

 25 26  0  0  0  0  0  0  0  0999 V2000
   -4.5950    2.9650    0.3470 C   0  0  0  0  0  0  0  0  0  0  0  0
   -3.1790    2.7290   -0.1670 C   0  0  0  0  0  0  0  0  0  0  0  0
   -2.3460    2.0970    0.8070 N   0  0  0  0  0  0  0  0  0  0  0  0
   -2.0490    2.9200    1.9390 C   0  0  0  0  0  0  0  0  0  0  0  0
   -1.3610    4.1460    1.6140 N   0  0  0  0  0  0  0  0  0  0  0  0
   -1.1440    1.6010    0.2260 C   0  0  0  0  0  0  0  0  0  0  0  0
   -1.3070    0.4400   -0.7140 C   0  0  1  0  0  0  0  0  0  0  0  0
    0.0660    0.1030   -1.1920 C   0  0  0  0  0  0  0  0  0  0  0  0
    0.3010    0.1650   -2.4070 O   0  0  0  0  0  0  0  0  0  0  0  0
    1.0430   -0.2700   -0.2540 N   0  0  0  0  0  0  0  0  0  0  0  0
    2.3850   -0.6240   -0.5270 C   0  0  0  0  0  0  0  0  0  0  0  0
    2.8380   -0.8460   -1.7940 C   0  0  0  0  0  0  0  0  0  0  0  0
    4.1880   -1.1800   -2.0280 C   0  0  0  0  0  0  0  0  0  0  0  0
    5.0610   -1.2860   -0.9690 C   0  0  0  0  0  0  0  0  0  0  0  0
    6.4140   -1.5930   -0.8950 C   0  0  0  0  0  0  0  0  0  0  0  0
    6.7810   -1.5550    0.4470 C   0  0  0  0  0  0  0  0  0  0  0  0
    5.6850   -1.2360    1.1480 N   0  0  0  0  0  0  0  0  0  0  0  0
    4.6340   -1.0680    0.3230 C   0  0  0  0  0  0  0  0  0  0  0  0
    3.3130   -0.7460    0.4930 C   0  0  0  0  0  0  0  0  0  0  0  0
   -1.8090   -0.8070   -0.0110 C   0  0  1  0  0  0  0  0  0  0  0  0
   -3.1420   -0.6320    0.6480 C   0  0  0  0  0  0  0  0  0  0  0  0
   -1.9220   -1.9180   -0.9330 N   0  0  0  0  0  0  0  0  0  0  0  0
   -1.1780   -3.1070   -0.7280 C   0  0  0  0  0  0  0  0  0  0  0  0
   -1.2970   -4.2390   -1.6730 C   0  0  0  0  0  0  0  0  0  0  0  0
   -0.4080   -3.2220    0.2530 O   0  0  0  0  0  0  0  0  0  0  0  0
  1  2  1  0
  2  3  1  0
  3  4  1  0
  3  6  1  0
  4  5  1  0
  7  6  1  1
  7  8  1  0
  7 20  1  0
  8  9  2  0
  8 10  1  0
 10 11  1  0
 11 12  2  0
 11 19  1  0
 12 13  1  0
 13 14  2  0
 14 15  1  0
 14 18  1  0
 15 16  2  0
 16 17  1  0
 17 18  1  0
 18 19  2  0
 20 21  1  6
 20 22  1  0
 22 23  1  0
 23 24  1  0
 23 25  2  0
M  END
