
     RDKit          3D

 25 25  0  0  0  0  0  0  0  0999 V2000
    5.8020    1.8560   -1.3740 C   0  0  0  0  0  0  0  0  0  0  0  0
    5.5470    0.9450   -0.4490 C   0  0  0  0  0  0  0  0  0  0  0  0
    5.1740    1.4030    0.9310 C   0  0  0  0  0  0  0  0  0  0  0  0
    5.6400   -0.4860   -0.7740 C   0  0  0  0  0  0  0  0  0  0  0  0
    4.3120   -1.1710   -0.5920 C   0  0  2  0  0  0  0  0  0  0  0  0
    4.4660   -2.6420   -0.9400 C   0  0  0  0  0  0  0  0  0  0  0  0
    3.2970   -0.5620   -1.4280 N   0  0  0  0  0  0  0  0  0  0  0  0
    2.1020   -0.0690   -0.8200 C   0  0  0  0  0  0  0  0  0  0  0  0
    1.9600   -0.1790    0.4240 O   0  0  0  0  0  0  0  0  0  0  0  0
    1.0970    0.5320   -1.6100 N   0  0  0  0  0  0  0  0  0  0  0  0
   -0.0940    1.0360   -1.1210 N   0  0  0  0  0  0  0  0  0  0  0  0
   -1.0020    0.3450   -0.2830 C   0  0  0  0  0  0  0  0  0  0  0  0
   -1.6040   -0.7280   -0.7230 C   0  0  0  0  0  0  0  0  0  0  0  0
   -1.3660   -1.2900   -2.1100 C   0  0  0  0  0  0  0  0  0  0  0  0
   -2.6710   -1.2920   -2.8020 N   0  0  0  0  0  0  0  0  0  0  0  0
   -2.6350   -1.3340    0.1090 C   0  0  0  0  0  0  0  0  0  0  0  0
   -2.9750   -0.8060    1.2710 C   0  0  0  0  0  0  0  0  0  0  0  0
   -4.0000   -1.4980    2.0380 C   0  0  0  0  0  0  0  0  0  0  0  0
   -4.6340   -2.6950    1.5290 N   0  0  0  0  0  0  0  0  0  0  0  0
   -4.4160   -1.1440    3.1630 O   0  0  0  0  0  0  0  0  0  0  0  0
   -2.4740    0.4940    1.7430 C   0  0  2  0  0  0  0  0  0  0  0  0
   -3.3770    1.6640    1.3670 C   0  0  0  0  0  0  0  0  0  0  0  0
   -4.7700    1.5910    1.8920 C   0  0  0  0  0  0  0  0  0  0  0  0
   -5.5390    2.8470    1.4400 C   0  0  0  0  0  0  0  0  0  0  0  0
   -1.1420    0.8490    1.1080 C   0  0  0  0  0  0  0  0  0  0  0  0
  1  2  2  0
  2  3  1  0
  2  4  1  0
  4  5  1  0
  5  6  1  6
  5  7  1  0
  7  8  1  0
  8  9  2  0
  8 10  1  0
 10 11  1  0
 11 12  1  0
 12 13  2  0
 12 25  1  0
 13 14  1  0
 13 16  1  0
 14 15  1  0
 16 17  2  0
 17 18  1  0
 17 21  1  0
 18 19  1  0
 18 20  2  0
 21 22  1  6
 21 25  1  0
 22 23  1  0
 23 24  1  0
M  END
