
     RDKit          3D

  9  9  0  0  0  0  0  0  0  0999 V2000
    2.7110    0.1100    0.2160 C   0  0  0  0  0  0  0  0  0  0  0  0
    1.5610   -0.2120   -0.6160 C   0  0  0  0  0  0  0  0  0  0  0  0
    0.2900   -0.0030   -0.3600 C   0  0  0  0  0  0  0  0  0  0  0  0
   -0.7150   -0.3820   -1.2840 O   0  0  0  0  0  0  0  0  0  0  0  0
   -2.0500   -0.1770   -0.8720 C   0  0  0  0  0  0  0  0  0  0  0  0
   -2.4170   -0.9700    0.3860 C   0  0  0  0  0  0  0  0  0  0  0  0
   -1.5480   -0.0810    1.7520 S   0  0  0  0  0  0  0  0  0  0  0  0
   -0.1100    0.6270    0.8890 C   0  0  0  0  0  0  0  0  0  0  0  0
    0.5240    1.6360    1.3190 N   0  0  0  0  0  0  0  0  0  0  0  0
  1  2  1  0
  2  3  2  3
  3  4  1  0
  3  8  1  0
  4  5  1  0
  5  6  1  0
  6  7  1  0
  7  8  1  0
  8  9  2  0
M  END
