
     RDKit          3D

 22 23  0  0  0  0  0  0  0  0999 V2000
   -1.6480    1.3690    2.3020 C   0  0  0  0  0  0  0  0  0  0  0  0
   -1.3020    0.2390    1.4000 N   0  0  0  0  0  0  0  0  0  0  0  0
   -2.1750   -0.8980    1.3670 C   0  0  0  0  0  0  0  0  0  0  0  0
   -3.2780   -0.7150    0.4450 N   0  0  0  0  0  0  0  0  0  0  0  0
   -4.5200   -0.1100    0.8460 C   0  0  0  0  0  0  0  0  0  0  0  0
   -4.7630    0.3240    1.9920 O   0  0  0  0  0  0  0  0  0  0  0  0
   -5.3780   -0.1040   -0.2710 N   0  0  0  0  0  0  0  0  0  0  0  0
   -4.7250   -0.6860   -1.3750 C   0  0  0  0  0  0  0  0  0  0  0  0
   -5.1330   -0.8720   -2.5480 O   0  0  0  0  0  0  0  0  0  0  0  0
   -3.3760   -1.0790   -0.9140 C   0  0  0  0  0  0  0  0  0  0  0  0
   -2.5160   -1.6330   -1.6440 O   0  0  0  0  0  0  0  0  0  0  0  0
   -0.1740    0.3900    0.6220 C   0  0  0  0  0  0  0  0  0  0  0  0
    0.4790    1.4830    0.6580 O   0  0  0  0  0  0  0  0  0  0  0  0
    0.4280   -0.6210   -0.3130 C   0  0  1  0  0  0  0  0  0  0  0  0
    0.4360   -0.0480   -1.6740 C   0  0  0  0  0  0  0  0  0  0  0  0
    1.8090    0.3130   -2.1290 C   0  0  0  0  0  0  0  0  0  0  0  0
    2.4920    0.9170   -1.0040 N   0  0  0  0  0  0  0  0  0  0  0  0
    2.9010   -0.1760   -0.1440 C   0  0  1  0  0  0  0  0  0  0  0  0
    3.6450    0.3880    1.0380 C   0  0  2  0  0  0  0  0  0  0  0  0
    4.8070    1.1100    0.5530 N   0  0  0  0  0  0  0  0  0  0  0  0
    4.0540   -0.6560    1.8910 O   0  0  0  0  0  0  0  0  0  0  0  0
    1.7570   -1.0590    0.2400 C   0  0  0  0  0  0  0  0  0  0  0  0
  1  2  1  0
  2  3  1  0
  2 12  1  0
  3  4  1  0
  4  5  1  0
  4 10  1  0
  5  6  2  0
  5  7  1  0
  7  8  1  0
  8  9  2  0
  8 10  1  0
 10 11  2  0
 12 13  2  0
 14 12  1  1
 14 15  1  0
 14 22  1  0
 15 16  1  0
 16 17  1  0
 17 18  1  0
 18 19  1  0
 18 22  1  1
 19 20  1  6
 19 21  1  0
M  END
