
     RDKit          3D

 22 23  0  0  0  0  0  0  0  0999 V2000
    4.6430    2.9270   -0.5790 C   0  0  0  0  0  0  0  0  0  0  0  0
    4.2810    1.6300   -0.0960 O   0  0  0  0  0  0  0  0  0  0  0  0
    3.1350    0.9860   -0.5430 C   0  0  0  0  0  0  0  0  0  0  0  0
    2.4340    1.5970   -1.3900 O   0  0  0  0  0  0  0  0  0  0  0  0
    2.6840   -0.3350   -0.1100 C   0  0  1  0  0  0  0  0  0  0  0  0
    2.5340   -1.2950   -1.1680 N   0  0  0  0  0  0  0  0  0  0  0  0
    3.5720   -0.9210    0.8540 O   0  0  0  0  0  0  0  0  0  0  0  0
    2.8080   -1.9170    1.4380 N   0  0  0  0  0  0  0  0  0  0  0  0
    1.5540   -1.5930    1.4260 C   0  0  0  0  0  0  0  0  0  0  0  0
    0.5210   -2.3970    1.9460 N   0  0  0  0  0  0  0  0  0  0  0  0
    1.4370   -0.2680    0.7830 C   0  0  1  0  0  0  0  0  0  0  0  0
    1.6410    0.7010    1.7280 O   0  0  0  0  0  0  0  0  0  0  0  0
    0.1930   -0.0830   -0.0260 C   0  0  0  0  0  0  0  0  0  0  0  0
   -0.9810   -0.0200    0.9150 C   0  0  0  0  0  0  0  0  0  0  0  0
   -0.8110   -0.1030    2.1570 O   0  0  0  0  0  0  0  0  0  0  0  0
   -2.2960    0.1350    0.4190 N   0  0  0  0  0  0  0  0  0  0  0  0
   -3.4680    0.2060    1.2100 C   0  0  0  0  0  0  0  0  0  0  0  0
   -3.5510    0.2510    2.4740 O   0  0  0  0  0  0  0  0  0  0  0  0
   -4.6370    0.2220    0.2930 C   0  0  0  0  0  0  0  0  0  0  0  0
   -4.0510    0.8420   -0.9570 C   0  0  0  0  0  0  0  0  0  0  0  0
   -2.6480    0.2440   -0.9750 C   0  0  2  0  0  0  0  0  0  0  0  0
   -2.6470   -1.0600   -1.7040 C   0  0  0  0  0  0  0  0  0  0  0  0
  1  2  1  0
  2  3  1  0
  3  4  2  0
  3  5  1  0
  5  6  1  6
  5  7  1  0
  5 11  1  0
  7  8  1  0
  8  9  2  0
  9 10  1  0
  9 11  1  0
 11 12  1  1
 11 13  1  0
 13 14  1  0
 14 15  2  0
 14 16  1  0
 16 17  1  0
 16 21  1  0
 17 18  2  0
 17 19  1  0
 19 20  1  0
 20 21  1  0
 21 22  1  1
M  END
