
     RDKit          3D

 23 24  0  0  0  0  0  0  0  0999 V2000
    2.4220   -1.2290   -1.3340 C   0  0  0  0  0  0  0  0  0  0  0  0
    2.3350    0.2280   -0.9330 C   0  0  2  0  0  0  0  0  0  0  0  0
    3.3820    0.7590   -0.2320 N   0  0  0  0  0  0  0  0  0  0  0  0
    4.6200   -0.1090    0.0550 C   0  0  0  0  0  0  0  0  0  0  0  0
    4.6080   -1.2360   -0.2810 O   0  0  0  0  0  0  0  0  0  0  0  0
    5.5650    0.7360    0.7070 N   0  0  0  0  0  0  0  0  0  0  0  0
    6.7610   -0.5360    0.9050 C   0  0  0  0  0  0  0  0  0  0  0  0
    6.4040   -1.5550    0.7250 O   0  0  0  0  0  0  0  0  0  0  0  0
    7.9770    0.0160    1.2600 O   0  0  0  0  0  0  0  0  0  0  0  0
    1.0080    0.3960   -0.2240 C   0  0  0  0  0  0  0  0  0  0  0  0
    1.0010    0.7280    0.9600 O   0  0  0  0  0  0  0  0  0  0  0  0
   -0.1590    0.1760   -0.9520 N   0  0  0  0  0  0  0  0  0  0  0  0
   -1.4420    0.3010   -0.4110 C   0  0  0  0  0  0  0  0  0  0  0  0
   -2.3780    1.0940   -0.8950 C   0  0  0  0  0  0  0  0  0  0  0  0
   -3.6710    1.1420   -0.2470 C   0  0  1  0  0  0  0  0  0  0  0  0
   -4.8560    1.4860   -1.1770 C   0  0  0  0  0  0  0  0  0  0  0  0
   -5.9130    0.9280   -0.5190 O   0  0  0  0  0  0  0  0  0  0  0  0
   -5.4480   -0.0660    0.3080 N   0  0  0  0  0  0  0  0  0  0  0  0
   -4.0920   -0.2510    0.0180 C   0  0  2  0  0  0  0  0  0  0  0  0
   -3.2040   -0.6770    1.0700 N   0  0  0  0  0  0  0  0  0  0  0  0
   -3.6070   -1.0850    2.3540 C   0  0  0  0  0  0  0  0  0  0  0  0
   -1.8600   -0.6680    0.6710 C   0  0  0  0  0  0  0  0  0  0  0  0
   -0.9970   -1.4320    1.1720 O   0  0  0  0  0  0  0  0  0  0  0  0
  2  1  1  1
  2  3  1  0
  2 10  1  0
  3  4  1  0
  4  5  2  0
  4  6  1  0
  6  7  1  0
  7  8  2  0
  7  9  1  0
 10 11  2  0
 10 12  1  0
 12 13  1  0
 13 14  2  0
 13 22  1  0
 14 15  1  0
 15 16  1  6
 15 19  1  0
 16 17  1  0
 17 18  1  0
 19 18  1  1
 19 20  1  0
 20 21  1  0
 20 22  1  0
 22 23  2  0
M  END
