
     RDKit          3D

 23 24  0  0  0  0  0  0  0  0999 V2000
   -6.0820   -0.7880    1.4750 C   0  0  0  0  0  0  0  0  0  0  0  0
   -5.1040   -0.5030    0.4560 N   0  0  0  0  0  0  0  0  0  0  0  0
   -3.7830   -1.0210    0.6400 C   0  0  0  0  0  0  0  0  0  0  0  0
   -2.8710   -0.7830   -0.2620 C   0  0  0  0  0  0  0  0  0  0  0  0
   -1.5540   -1.2800   -0.1120 N   0  0  0  0  0  0  0  0  0  0  0  0
   -0.4650   -0.3530   -0.0580 C   0  0  0  0  0  0  0  0  0  0  0  0
   -0.6440    0.8870   -0.1390 O   0  0  0  0  0  0  0  0  0  0  0  0
    0.7970   -0.8610    0.0870 O   0  0  0  0  0  0  0  0  0  0  0  0
    1.9290   -0.0190    0.1490 C   0  0  0  0  0  0  0  0  0  0  0  0
    3.1600   -0.8180    0.3060 C   0  0  0  0  0  0  0  0  0  0  0  0
    3.0850   -2.0630    0.3640 O   0  0  0  0  0  0  0  0  0  0  0  0
    4.4000   -0.1750    0.3890 N   0  0  0  0  0  0  0  0  0  0  0  0
    4.6210    1.2530    0.3360 C   0  0  0  0  0  0  0  0  0  0  0  0
    5.9860    1.3920   -0.3030 C   0  0  0  0  0  0  0  0  0  0  0  0
    6.7240    0.1230    0.1000 C   0  0  2  0  0  0  0  0  0  0  0  0
    7.4160   -0.4050   -0.9790 O   0  0  0  0  0  0  0  0  0  0  0  0
    5.6750   -0.8410    0.5430 C   0  0  0  0  0  0  0  0  0  0  0  0
   -3.2070    0.0010   -1.4340 C   0  0  0  0  0  0  0  0  0  0  0  0
   -4.3850    0.4690   -1.6080 N   0  0  0  0  0  0  0  0  0  0  0  0
   -5.4880    0.2830   -0.6930 C   0  0  1  0  0  0  0  0  0  0  0  0
   -6.5740   -0.3050   -1.3430 O   0  0  0  0  0  0  0  0  0  0  0  0
   -5.8970    1.5920   -0.1880 N   0  0  0  0  0  0  0  0  0  0  0  0
   -4.8530    2.1340    0.4500 O   0  0  0  0  0  0  0  0  0  0  0  0
  1  2  1  0
  2  3  1  0
  2 20  1  0
  3  4  2  0
  4  5  1  0
  4 18  1  0
  5  6  1  0
  6  7  2  0
  6  8  1  0
  8  9  1  0
  9 10  1  0
 10 11  2  0
 10 12  1  0
 12 13  1  0
 12 17  1  0
 13 14  1  0
 14 15  1  0
 15 16  1  6
 15 17  1  0
 18 19  2  0
 19 20  1  0
 20 21  1  6
 20 22  1  0
 22 23  1  0
M  END
