
     RDKit          3D

 23 24  0  0  0  0  0  0  0  0999 V2000
    0.9890   -3.4540    2.0590 N   0  0  0  0  0  0  0  0  0  0  0  0
    0.5680   -2.1170    1.7720 C   0  0  0  0  0  0  0  0  0  0  0  0
   -0.1920   -1.4880    2.5480 O   0  0  0  0  0  0  0  0  0  0  0  0
    0.9840   -1.4500    0.6170 O   0  0  0  0  0  0  0  0  0  0  0  0
    0.5710   -0.1210    0.3260 C   0  0  1  0  0  0  0  0  0  0  0  0
    1.7590    0.7570    0.4100 C   0  0  0  0  0  0  0  0  0  0  0  0
    2.1300    1.5960   -0.5280 C   0  0  0  0  0  0  0  0  0  0  0  0
    3.3310    2.4190   -0.3340 C   0  0  1  0  0  0  0  0  0  0  0  0
    3.0570    3.7870   -0.5040 O   0  0  0  0  0  0  0  0  0  0  0  0
    3.9960    2.2390    0.8760 O   0  0  0  0  0  0  0  0  0  0  0  0
    3.5980    1.3720    1.8250 N   0  0  0  0  0  0  0  0  0  0  0  0
    2.5510    0.6500    1.6550 C   0  0  0  0  0  0  0  0  0  0  0  0
   -0.2070   -0.0020   -0.9350 C   0  0  1  0  0  0  0  0  0  0  0  0
    0.4790   -0.5150   -2.1600 C   0  0  0  0  0  0  0  0  0  0  0  0
   -0.3680   -1.6690   -2.6930 C   0  0  0  0  0  0  0  0  0  0  0  0
   -1.1150   -2.1000   -1.4570 C   0  0  0  0  0  0  0  0  0  0  0  0
   -1.3890   -0.8320   -0.8070 N   0  0  0  0  0  0  0  0  0  0  0  0
   -2.6260   -0.5230   -0.1740 C   0  0  0  0  0  0  0  0  0  0  0  0
   -3.5820   -1.3360   -0.1310 O   0  0  0  0  0  0  0  0  0  0  0  0
   -2.8050    0.7430    0.4370 N   0  0  0  0  0  0  0  0  0  0  0  0
   -4.0300    1.0440    1.0620 N   0  0  0  0  0  0  0  0  0  0  0  0
   -4.1130    2.2750    1.7750 C   0  0  0  0  0  0  0  0  0  0  0  0
   -3.1030    3.0330    1.8180 O   0  0  0  0  0  0  0  0  0  0  0  0
  1  2  1  0
  2  3  2  0
  2  4  1  0
  5  4  1  6
  5  6  1  0
  5 13  1  0
  6  7  2  0
  6 12  1  0
  7  8  1  0
  8  9  1  1
  8 10  1  0
 10 11  1  0
 11 12  2  0
 13 14  1  6
 13 17  1  0
 14 15  1  0
 15 16  1  0
 16 17  1  0
 17 18  1  0
 18 19  2  0
 18 20  1  0
 20 21  1  0
 21 22  1  0
 22 23  2  0
M  END
