
     RDKit          3D

 23 25  0  0  0  0  0  0  0  0999 V2000
    3.1350   -0.9910    2.3920 O   0  0  0  0  0  0  0  0  0  0  0  0
    3.5410   -0.5360    1.2780 C   0  0  0  0  0  0  0  0  0  0  0  0
    4.3190    0.6450    1.1970 N   0  0  0  0  0  0  0  0  0  0  0  0
    4.7090    1.0460   -0.1010 C   0  0  0  0  0  0  0  0  0  0  0  0
    5.4830    2.2160   -0.2120 O   0  0  0  0  0  0  0  0  0  0  0  0
    4.3600    0.3500   -1.1620 C   0  0  0  0  0  0  0  0  0  0  0  0
    3.5590   -0.8820   -1.1770 C   0  0  0  0  0  0  0  0  0  0  0  0
    3.1680   -1.2820    0.1400 N   0  0  0  0  0  0  0  0  0  0  0  0
    2.3490   -2.5150    0.2980 C   0  0  0  0  0  0  0  0  0  0  0  0
    0.9390   -2.1350    0.2290 C   0  0  0  0  0  0  0  0  0  0  0  0
    0.3640   -0.8970    0.0530 C   0  0  0  0  0  0  0  0  0  0  0  0
   -0.9630   -1.0780    0.0610 N   0  0  0  0  0  0  0  0  0  0  0  0
   -1.9340   -0.0360   -0.0930 C   0  0  2  0  0  0  0  0  0  0  0  0
   -2.5500    0.2580    1.1220 O   0  0  0  0  0  0  0  0  0  0  0  0
   -3.6540    1.0470    0.7980 C   0  0  1  0  0  0  0  0  0  0  0  0
   -3.2000    2.4940    0.8080 C   0  0  0  0  0  0  0  0  0  0  0  0
   -4.2180    3.3730    0.4980 O   0  0  0  0  0  0  0  0  0  0  0  0
   -4.1430    0.6120   -0.5450 C   0  0  2  0  0  0  0  0  0  0  0  0
   -5.4200    0.0770   -0.5160 O   0  0  0  0  0  0  0  0  0  0  0  0
   -3.1290   -0.4650   -0.9320 C   0  0  1  0  0  0  0  0  0  0  0  0
   -2.8620   -0.4650   -2.2810 O   0  0  0  0  0  0  0  0  0  0  0  0
   -1.2360   -2.3530    0.2310 N   0  0  0  0  0  0  0  0  0  0  0  0
   -0.0950   -3.0070    0.3340 N   0  0  0  0  0  0  0  0  0  0  0  0
  1  2  2  0
  2  3  1  0
  2  8  1  0
  3  4  1  0
  4  5  1  0
  4  6  2  0
  6  7  1  0
  7  8  1  0
  8  9  1  0
  9 10  1  0
 10 11  2  0
 10 23  1  0
 11 12  1  0
 13 12  1  1
 12 22  1  0
 13 14  1  0
 13 20  1  0
 14 15  1  0
 15 16  1  6
 15 18  1  0
 16 17  1  0
 18 19  1  1
 18 20  1  0
 20 21  1  6
 22 23  2  0
M  END
