
     RDKit          3D

 22 23  0  0  0  0  0  0  0  0999 V2000
    2.9760   -0.3360    2.0660 C   0  0  0  0  0  0  0  0  0  0  0  0
    3.1400   -0.4480    0.5610 C   0  0  1  0  0  0  0  0  0  0  0  0
    4.1430   -1.4020    0.3400 O   0  0  0  0  0  0  0  0  0  0  0  0
    4.3750   -1.5510   -0.9530 O   0  0  0  0  0  0  0  0  0  0  0  0
    3.3540   -2.3530   -1.4580 C   0  0  0  0  0  0  0  0  0  0  0  0
    2.0650   -1.5590   -1.3960 C   0  0  0  0  0  0  0  0  0  0  0  0
    1.8620   -1.0130    0.0070 C   0  0  2  0  0  0  0  0  0  0  0  0
    0.7390   -0.1250    0.0350 N   0  0  0  0  0  0  0  0  0  0  0  0
    0.6240    1.1080   -0.6670 C   0  0  0  0  0  0  0  0  0  0  0  0
    1.8260    1.8330   -0.8590 N   0  0  0  0  0  0  0  0  0  0  0  0
   -0.5490    1.5510   -1.1170 C   0  0  0  0  0  0  0  0  0  0  0  0
   -0.6710    2.8140   -1.8360 C   0  0  0  0  0  0  0  0  0  0  0  0
    0.1980    3.7050   -2.0620 O   0  0  0  0  0  0  0  0  0  0  0  0
   -1.9860    2.9560   -2.3000 O   0  0  0  0  0  0  0  0  0  0  0  0
   -2.7860    2.1810   -1.4620 C   0  0  0  0  0  0  0  0  0  0  0  0
   -1.8960    0.9940   -1.0460 C   0  0  2  0  0  0  0  0  0  0  0  0
   -2.3690    0.6230    0.2490 N   0  0  0  0  0  0  0  0  0  0  0  0
   -2.2850    1.5180    1.3910 C   0  0  0  0  0  0  0  0  0  0  0  0
   -2.9400   -0.6590    0.4350 C   0  0  0  0  0  0  0  0  0  0  0  0
   -3.0310   -1.4600   -0.5270 O   0  0  0  0  0  0  0  0  0  0  0  0
   -3.4200   -1.0630    1.7080 N   0  0  0  0  0  0  0  0  0  0  0  0
   -3.9970   -2.3250    1.9480 N   0  0  0  0  0  0  0  0  0  0  0  0
  2  1  1  1
  2  3  1  0
  2  7  1  0
  3  4  1  0
  4  5  1  0
  5  6  1  0
  6  7  1  0
  7  8  1  6
  8  9  1  0
  9 10  1  0
  9 11  2  3
 11 12  1  0
 11 16  1  0
 12 13  2  0
 12 14  1  0
 14 15  1  0
 15 16  1  0
 16 17  1  1
 17 18  1  0
 17 19  1  0
 19 20  2  0
 19 21  1  0
 21 22  1  0
M  END
