
     RDKit          3D

 22 23  0  0  0  0  0  0  0  0999 V2000
   -2.9920    1.9990   -2.4820 N   0  0  0  0  0  0  0  0  0  0  0  0
   -3.1550    0.7250   -1.8950 N   0  0  0  0  0  0  0  0  0  0  0  0
   -2.4790    0.4660   -0.6670 C   0  0  0  0  0  0  0  0  0  0  0  0
   -1.7750    1.3670   -0.1640 O   0  0  0  0  0  0  0  0  0  0  0  0
   -2.6520   -0.8760   -0.0500 C   0  0  2  0  0  0  0  0  0  0  0  0
   -4.1230   -0.9860    0.3040 C   0  0  0  0  0  0  0  0  0  0  0  0
   -4.4680   -2.1160    1.0930 N   0  0  0  0  0  0  0  0  0  0  0  0
   -3.4330   -2.5510    1.9680 C   0  0  0  0  0  0  0  0  0  0  0  0
   -2.5890   -1.3570    2.3630 C   0  0  0  0  0  0  0  0  0  0  0  0
   -1.8950   -0.9660    1.1660 N   0  0  0  0  0  0  0  0  0  0  0  0
   -0.5230   -0.6870    1.2090 C   0  0  0  0  0  0  0  0  0  0  0  0
    0.1240   -0.7750    2.3040 O   0  0  0  0  0  0  0  0  0  0  0  0
    0.2340   -0.3050    0.1090 O   0  0  0  0  0  0  0  0  0  0  0  0
    1.5990   -0.0250    0.1380 C   0  0  2  0  0  0  0  0  0  0  0  0
    1.9230    1.4030   -0.2480 C   0  0  0  0  0  0  0  0  0  0  0  0
    3.4130    1.5830    0.0180 C   0  0  0  0  0  0  0  0  0  0  0  0
    4.1340    0.5920   -0.9000 C   0  0  1  0  0  0  0  0  0  0  0  0
    5.5910    0.7550   -0.8010 C   0  0  0  0  0  0  0  0  0  0  0  0
    6.2430    1.9700   -1.1510 N   0  0  0  0  0  0  0  0  0  0  0  0
    6.3080   -0.1950   -0.3950 O   0  0  0  0  0  0  0  0  0  0  0  0
    3.7650   -0.6760   -0.5010 O   0  0  0  0  0  0  0  0  0  0  0  0
    2.4270   -0.9350   -0.7370 C   0  0  0  0  0  0  0  0  0  0  0  0
  1  2  1  0
  2  3  1  0
  3  4  2  0
  5  3  1  1
  5  6  1  0
  5 10  1  0
  6  7  1  0
  7  8  1  0
  8  9  1  0
  9 10  1  0
 10 11  1  0
 11 12  2  0
 11 13  1  0
 14 13  1  6
 14 15  1  0
 14 22  1  0
 15 16  1  0
 16 17  1  0
 17 18  1  1
 17 21  1  0
 18 19  1  0
 18 20  2  0
 21 22  1  0
M  END
