
     RDKit          3D

 24 26  0  0  0  0  0  0  0  0999 V2000
    0.2400   -0.5340    2.3430 O   0  0  0  0  0  0  0  0  0  0  0  0
    0.4040    0.0280    1.2300 C   0  0  0  0  0  0  0  0  0  0  0  0
    1.8040    0.2830    0.7890 C   0  0  0  0  0  0  0  0  0  0  0  0
    2.7890   -0.1880    1.8050 C   0  0  0  0  0  0  0  0  0  0  0  0
    4.1500    0.0310    1.4550 N   0  0  0  0  0  0  0  0  0  0  0  0
    4.7110   -0.5370    0.3040 C   0  0  0  0  0  0  0  0  0  0  0  0
    4.0330   -1.2500   -0.4430 O   0  0  0  0  0  0  0  0  0  0  0  0
    6.1200   -0.2800   -0.0180 C   0  0  0  0  0  0  0  0  0  0  0  0
    6.7950   -0.7700   -1.1260 C   0  0  0  0  0  0  0  0  0  0  0  0
    8.0770   -0.2810   -1.0220 C   0  0  0  0  0  0  0  0  0  0  0  0
    8.1310    0.4720    0.1220 C   0  0  0  0  0  0  0  0  0  0  0  0
    6.9550    0.4470    0.6860 O   0  0  0  0  0  0  0  0  0  0  0  0
   -0.7140    0.4000    0.4330 N   0  0  0  0  0  0  0  0  0  0  0  0
   -2.0090    0.1580    0.8550 N   0  0  0  0  0  0  0  0  0  0  0  0
   -2.9370   -0.5510    0.0440 C   0  0  0  0  0  0  0  0  0  0  0  0
   -2.5770   -0.9680   -1.0800 O   0  0  0  0  0  0  0  0  0  0  0  0
   -4.3290   -0.8200    0.4760 C   0  0  2  0  0  0  0  0  0  0  0  0
   -5.0300   -1.5100   -0.4780 O   0  0  0  0  0  0  0  0  0  0  0  0
   -5.3640   -0.8160   -1.6090 C   0  0  0  0  0  0  0  0  0  0  0  0
   -5.8270    0.5890   -1.3670 C   0  0  2  0  0  0  0  0  0  0  0  0
   -4.7920    1.2600   -0.5840 N   0  0  0  0  0  0  0  0  0  0  0  0
   -4.9720    0.5510    0.6940 C   0  0  1  0  0  0  0  0  0  0  0  0
   -6.3950    0.4490    0.7590 N   0  0  0  0  0  0  0  0  0  0  0  0
   -6.8940    0.5440   -0.4740 O   0  0  0  0  0  0  0  0  0  0  0  0
  1  2  2  0
  2  3  1  0
  2 13  1  0
  3  4  1  0
  4  5  1  0
  5  6  1  0
  6  7  2  0
  6  8  1  0
  8  9  2  0
  8 12  1  0
  9 10  1  0
 10 11  2  0
 11 12  1  0
 13 14  1  0
 14 15  1  0
 15 16  2  0
 17 15  1  6
 17 18  1  0
 17 22  1  0
 18 19  1  0
 20 19  1  1
 20 21  1  0
 20 24  1  0
 21 22  1  0
 22 23  1  6
 23 24  1  0
M  END
