
     RDKit          3D

 24 26  0  0  0  0  0  0  0  0999 V2000
    6.1180   -2.9180   -0.9050 O   0  0  0  0  0  0  0  0  0  0  0  0
    5.8490   -1.7340   -0.5730 C   0  0  0  0  0  0  0  0  0  0  0  0
    4.8990   -0.7920   -1.2220 C   0  0  0  0  0  0  0  0  0  0  0  0
    4.8840    0.3490   -0.3600 N   0  0  0  0  0  0  0  0  0  0  0  0
    4.0830    1.5350   -0.4700 C   0  0  0  0  0  0  0  0  0  0  0  0
    2.8320    1.5650    0.3480 C   0  0  0  0  0  0  0  0  0  0  0  0
    1.9210    0.4470   -0.0030 C   0  0  1  0  0  0  0  0  0  0  0  0
    0.6910    0.5000    0.8110 N   0  0  0  0  0  0  0  0  0  0  0  0
   -0.1240   -0.4520    0.0440 C   0  0  1  0  0  0  0  0  0  0  0  0
    0.2290   -1.7810    0.3620 O   0  0  0  0  0  0  0  0  0  0  0  0
   -1.5260   -0.2220    0.2330 N   0  0  0  0  0  0  0  0  0  0  0  0
   -2.5230   -0.2650   -0.7730 C   0  0  0  0  0  0  0  0  0  0  0  0
   -2.1050   -0.5360   -1.9350 O   0  0  0  0  0  0  0  0  0  0  0  0
   -3.9460   -0.0280   -0.5620 C   0  0  1  0  0  0  0  0  0  0  0  0
   -4.5760   -0.9470    0.4650 C   0  0  0  0  0  0  0  0  0  0  0  0
   -6.0790   -0.9400    0.1980 C   0  0  0  0  0  0  0  0  0  0  0  0
   -6.4640    0.2910   -0.2790 O   0  0  0  0  0  0  0  0  0  0  0  0
   -5.7560    1.3490    0.2780 C   0  0  0  0  0  0  0  0  0  0  0  0
   -4.3200    1.3920   -0.2290 C   0  0  0  0  0  0  0  0  0  0  0  0
    0.2840   -0.1590   -1.3000 N   0  0  0  0  0  0  0  0  0  0  0  0
    1.4270    0.5040   -1.2790 O   0  0  0  0  0  0  0  0  0  0  0  0
    5.8690    0.2040    0.6820 C   0  0  0  0  0  0  0  0  0  0  0  0
    6.1530    1.0560    1.5520 O   0  0  0  0  0  0  0  0  0  0  0  0
    6.4470   -1.0750    0.5370 N   0  0  0  0  0  0  0  0  0  0  0  0
  1  2  2  0
  2  3  1  0
  2 24  1  0
  3  4  1  0
  4  5  1  0
  4 22  1  0
  5  6  1  0
  7  6  1  1
  7  8  1  0
  7 21  1  0
  8  9  1  0
  9 10  1  1
  9 11  1  0
  9 20  1  0
 11 12  1  0
 12 13  2  0
 14 12  1  1
 14 15  1  0
 14 19  1  0
 15 16  1  0
 16 17  1  0
 17 18  1  0
 18 19  1  0
 20 21  1  0
 22 23  2  0
 22 24  1  0
M  END
