
     RDKit          3D

 24 26  0  0  0  0  0  0  0  0999 V2000
    5.9410   -1.1730    0.5300 C   0  0  0  0  0  0  0  0  0  0  0  0
    4.7170   -0.3380    0.2480 C   0  0  1  0  0  0  0  0  0  0  0  0
    4.6550    0.7840    1.2720 C   0  0  0  0  0  0  0  0  0  0  0  0
    4.7690    0.3160   -1.0440 N   0  0  0  0  0  0  0  0  0  0  0  0
    3.4590    0.3570   -1.5740 C   0  0  0  0  0  0  0  0  0  0  0  0
    3.0310    1.0600   -2.5520 O   0  0  0  0  0  0  0  0  0  0  0  0
    2.6400   -0.5490   -0.8180 N   0  0  0  0  0  0  0  0  0  0  0  0
    1.2350   -0.7820   -1.0590 C   0  0  0  0  0  0  0  0  0  0  0  0
    0.3600    0.1050   -0.2820 C   0  0  0  0  0  0  0  0  0  0  0  0
    0.8070    0.9720    0.5230 O   0  0  0  0  0  0  0  0  0  0  0  0
   -1.0510   -0.0200   -0.4460 N   0  0  0  0  0  0  0  0  0  0  0  0
   -1.9140    0.8470    0.3150 C   0  0  0  0  0  0  0  0  0  0  0  0
   -1.5260    1.7610    1.1860 O   0  0  0  0  0  0  0  0  0  0  0  0
   -2.5670    2.3490    1.6750 N   0  0  0  0  0  0  0  0  0  0  0  0
   -3.7010    1.8300    1.1330 C   0  0  0  0  0  0  0  0  0  0  0  0
   -4.8850    2.1540    1.3700 O   0  0  0  0  0  0  0  0  0  0  0  0
   -3.2900    0.8640    0.2580 C   0  0  0  0  0  0  0  0  0  0  0  0
   -4.0850   -0.0260   -0.6030 C   0  0  2  0  0  0  0  0  0  0  0  0
   -5.5550    0.2590   -0.7280 C   0  0  0  0  0  0  0  0  0  0  0  0
   -5.7400   -1.1980   -0.8850 N   0  0  0  0  0  0  0  0  0  0  0  0
   -4.5910   -1.3060    0.0330 C   0  0  2  0  0  0  0  0  0  0  0  0
   -5.0490   -1.1930    1.3410 O   0  0  0  0  0  0  0  0  0  0  0  0
    3.4770   -1.1270    0.1660 C   0  0  0  0  0  0  0  0  0  0  0  0
    3.2080   -2.1360    0.8470 O   0  0  0  0  0  0  0  0  0  0  0  0
  2  1  1  1
  2  3  1  0
  2  4  1  0
  2 23  1  0
  4  5  1  0
  5  6  2  0
  5  7  1  0
  7  8  1  0
  7 23  1  0
  8  9  1  0
  9 10  2  0
  9 11  1  0
 11 12  1  0
 12 13  1  0
 12 17  2  0
 13 14  1  0
 14 15  1  0
 15 16  2  0
 15 17  1  0
 18 17  1  1
 18 19  1  0
 18 21  1  0
 19 20  1  0
 20 21  1  0
 21 22  1  1
 23 24  2  0
M  END
