
     RDKit          3D

 24 25  0  0  0  0  0  0  0  0999 V2000
   -1.5330   -1.2440   -0.3500 O   0  0  0  0  0  0  0  0  0  0  0  0
   -2.0360   -0.1040   -0.3720 C   0  0  0  0  0  0  0  0  0  0  0  0
   -1.2160    1.0460   -0.5210 N   0  0  0  0  0  0  0  0  0  0  0  0
    0.1600    0.9860   -0.6710 N   0  0  0  0  0  0  0  0  0  0  0  0
    1.0560    1.2520    0.4250 C   0  0  0  0  0  0  0  0  0  0  0  0
    0.5430    1.5350    1.5190 O   0  0  0  0  0  0  0  0  0  0  0  0
    2.5050    1.1750    0.2030 C   0  0  0  0  0  0  0  0  0  0  0  0
    2.9340    0.8940   -0.9280 O   0  0  0  0  0  0  0  0  0  0  0  0
    3.4110    1.4130    1.2430 N   0  0  0  0  0  0  0  0  0  0  0  0
    4.8240    1.3790    1.2650 C   0  0  0  0  0  0  0  0  0  0  0  0
    5.4220    0.0440    1.0580 C   0  0  2  0  0  0  0  0  0  0  0  0
    6.9760    0.1510    1.1300 C   0  0  0  0  0  0  0  0  0  0  0  0
    7.3550   -1.1460    0.4900 C   0  0  0  0  0  0  0  0  0  0  0  0
    6.4110   -1.4630   -0.4390 O   0  0  0  0  0  0  0  0  0  0  0  0
    5.3140   -0.5890   -0.2870 C   0  0  0  0  0  0  0  0  0  0  0  0
   -3.4620   -0.0140   -0.2450 N   0  0  0  0  0  0  0  0  0  0  0  0
   -4.2530   -1.2160   -0.0970 C   0  0  1  0  0  0  0  0  0  0  0  0
   -5.1330   -1.0960    1.1030 C   0  0  0  0  0  0  0  0  0  0  0  0
   -6.0380    0.0940    0.9560 C   0  0  0  0  0  0  0  0  0  0  0  0
   -7.1680   -0.3130    0.2540 O   0  0  0  0  0  0  0  0  0  0  0  0
   -7.0940   -0.0150   -1.0890 C   0  0  0  0  0  0  0  0  0  0  0  0
   -6.1270   -0.7510   -1.8110 N   0  0  0  0  0  0  0  0  0  0  0  0
   -5.0440   -1.5210   -1.3060 C   0  0  0  0  0  0  0  0  0  0  0  0
   -4.7240   -2.5640   -1.9460 O   0  0  0  0  0  0  0  0  0  0  0  0
  1  2  2  0
  2  3  1  0
  2 16  1  0
  3  4  1  0
  4  5  1  0
  5  6  2  0
  5  7  1  0
  7  8  2  0
  7  9  1  0
  9 10  1  0
 11 10  1  6
 11 12  1  0
 11 15  1  0
 12 13  1  0
 13 14  1  0
 14 15  1  0
 17 16  1  6
 17 18  1  0
 17 23  1  0
 18 19  1  0
 19 20  1  0
 20 21  1  0
 21 22  1  0
 22 23  1  0
 23 24  2  0
M  END
