
     RDKit          3D

 24 26  0  0  0  0  0  0  0  0999 V2000
   -4.3450   -1.0750   -0.7470 C   0  0  0  0  0  0  0  0  0  0  0  0
   -2.8920   -1.4000   -0.4820 C   0  0  0  0  0  0  0  0  0  0  0  0
   -2.3450   -0.6600    0.7200 C   0  0  2  0  0  0  0  0  0  0  0  0
   -3.0900   -0.9920    1.9790 C   0  0  0  0  0  0  0  0  0  0  0  0
   -2.4650    0.7580    0.4790 N   0  0  0  0  0  0  0  0  0  0  0  0
   -1.4780    1.4980   -0.2440 C   0  0  0  0  0  0  0  0  0  0  0  0
   -0.2800    0.9630   -0.4000 C   0  0  0  0  0  0  0  0  0  0  0  0
    0.5310    1.9290   -1.1750 C   0  0  0  0  0  0  0  0  0  0  0  0
    1.5450    1.6090   -1.8010 O   0  0  0  0  0  0  0  0  0  0  0  0
   -0.1520    3.2590   -1.0050 C   0  0  0  0  0  0  0  0  0  0  0  0
   -1.5320    2.7820   -0.8700 N   0  0  0  0  0  0  0  0  0  0  0  0
    0.0470   -0.3160    0.1310 N   0  0  0  0  0  0  0  0  0  0  0  0
    1.3130   -0.8880   -0.0320 N   0  0  0  0  0  0  0  0  0  0  0  0
    2.4740   -0.2380    0.4950 C   0  0  0  0  0  0  0  0  0  0  0  0
    2.3260    0.8540    1.1030 O   0  0  0  0  0  0  0  0  0  0  0  0
    3.8300   -0.7800    0.3620 C   0  0  2  0  0  0  0  0  0  0  0  0
    4.7790    0.0470    0.9600 O   0  0  0  0  0  0  0  0  0  0  0  0
    5.9130    0.0680    0.1380 C   0  0  0  0  0  0  0  0  0  0  0  0
    7.0440    0.5550    0.4370 O   0  0  0  0  0  0  0  0  0  0  0  0
    5.6020   -0.5440   -1.0990 N   0  0  0  0  0  0  0  0  0  0  0  0
    4.2420   -0.9560   -1.0420 C   0  0  0  0  0  0  0  0  0  0  0  0
    3.5080   -1.3830   -1.9540 O   0  0  0  0  0  0  0  0  0  0  0  0
   -0.9220   -1.0620    0.8550 C   0  0  0  0  0  0  0  0  0  0  0  0
   -0.6300   -2.0340    1.5940 O   0  0  0  0  0  0  0  0  0  0  0  0
  1  2  1  0
  2  3  1  0
  3  4  1  1
  3  5  1  0
  3 23  1  0
  5  6  1  0
  6  7  2  0
  6 11  1  0
  7  8  1  0
  7 12  1  0
  8  9  2  0
  8 10  1  0
 10 11  1  0
 12 13  1  0
 12 23  1  0
 13 14  1  0
 14 15  2  0
 16 14  1  6
 16 17  1  0
 16 21  1  0
 17 18  1  0
 18 19  2  0
 18 20  1  0
 20 21  1  0
 21 22  2  0
 23 24  2  0
M  END
