
     RDKit          3D

 24 25  0  0  0  0  0  0  0  0999 V2000
   -1.3380   -0.1020    2.0230 C   0  0  0  0  0  0  0  0  0  0  0  0
   -1.3140   -0.9660    0.6010 C   0  0  1  0  0  0  0  0  0  0  0  0
   -2.3510   -0.2330   -0.0330 O   0  0  0  0  0  0  0  0  0  0  0  0
   -3.6920   -0.4400    0.1610 C   0  0  0  0  0  0  0  0  0  0  0  0
   -3.7740   -1.4230    1.1280 O   0  0  0  0  0  0  0  0  0  0  0  0
   -4.9310    0.0090   -0.2660 C   0  0  1  0  0  0  0  0  0  0  0  0
   -5.3750   -0.4660   -1.6660 C   0  0  0  0  0  0  0  0  0  0  0  0
   -6.8400   -0.0130   -1.5950 C   0  0  0  0  0  0  0  0  0  0  0  0
   -7.1890   -0.0030   -0.1780 N   0  0  0  0  0  0  0  0  0  0  0  0
   -6.0760   -0.5650    0.4840 N   0  0  0  0  0  0  0  0  0  0  0  0
   -0.0120   -0.9230    0.1850 C   0  0  0  0  0  0  0  0  0  0  0  0
    0.8000   -1.8560    0.2320 O   0  0  0  0  0  0  0  0  0  0  0  0
    0.7160    0.4920   -0.4200 N   0  0  0  0  0  0  0  0  0  0  0  0
    2.0070   -0.0040   -0.6260 C   0  0  0  0  0  0  0  0  0  0  0  0
    2.4630   -1.0660   -0.9450 O   0  0  0  0  0  0  0  0  0  0  0  0
    2.9750    1.1330   -0.3650 N   0  0  0  0  0  0  0  0  0  0  0  0
    4.3680    0.9480   -0.4440 C   0  0  1  0  0  0  0  0  0  0  0  0
    4.9380    0.5180    0.9220 C   0  0  0  0  0  0  0  0  0  0  0  0
    6.4340    0.8010    0.8530 C   0  0  0  0  0  0  0  0  0  0  0  0
    6.9970   -0.0290   -0.2660 C   0  0  0  0  0  0  0  0  0  0  0  0
    8.2380   -0.1670   -0.2510 O   0  0  0  0  0  0  0  0  0  0  0  0
    6.1270   -0.5890   -1.2450 N   0  0  0  0  0  0  0  0  0  0  0  0
    4.8840    0.0430   -1.4640 C   0  0  0  0  0  0  0  0  0  0  0  0
    4.2360   -0.1860   -2.5530 O   0  0  0  0  0  0  0  0  0  0  0  0
  2  1  1  1
  2  3  1  0
  2 11  1  0
  3  4  1  0
  4  5  2  0
  6  4  1  1
  6  7  1  0
  6 10  1  0
  7  8  1  0
  8  9  1  0
  9 10  1  0
 11 12  2  0
 11 13  1  0
 13 14  1  0
 14 15  2  0
 14 16  1  0
 17 16  1  1
 17 18  1  0
 17 23  1  0
 18 19  1  0
 19 20  1  0
 20 21  2  0
 20 22  1  0
 22 23  1  0
 23 24  2  0
M  END
