
     RDKit          3D

 24 26  0  0  0  0  0  0  0  0999 V2000
   -0.7550    1.0500    0.6300 O   0  0  0  0  0  0  0  0  0  0  0  0
   -0.9470   -0.1920    0.6100 C   0  0  0  0  0  0  0  0  0  0  0  0
   -2.3060   -0.6930    0.8470 C   0  0  0  0  0  0  0  0  0  0  0  0
   -3.3250    0.3700    1.0710 C   0  0  2  0  0  0  0  0  0  0  0  0
   -3.0510    1.1770    2.1650 O   0  0  0  0  0  0  0  0  0  0  0  0
   -4.6860   -0.2520    1.3280 C   0  0  0  0  0  0  0  0  0  0  0  0
   -5.3610   -0.5950    0.1020 N   0  0  0  0  0  0  0  0  0  0  0  0
   -5.0340   -0.1770   -1.1890 C   0  0  0  0  0  0  0  0  0  0  0  0
   -5.6190   -0.6130   -2.2290 O   0  0  0  0  0  0  0  0  0  0  0  0
   -3.9860    0.7940   -1.3430 N   0  0  0  0  0  0  0  0  0  0  0  0
   -3.3690    1.2440   -0.1380 C   0  0  0  0  0  0  0  0  0  0  0  0
   -2.8720    2.3850   -0.1290 O   0  0  0  0  0  0  0  0  0  0  0  0
    0.1730   -1.0160    0.3580 N   0  0  0  0  0  0  0  0  0  0  0  0
    1.4750   -0.4820    0.1340 C   0  0  0  0  0  0  0  0  0  0  0  0
    1.7030    0.8530    0.1510 N   0  0  0  0  0  0  0  0  0  0  0  0
    2.9080    1.4050   -0.0530 C   0  0  0  0  0  0  0  0  0  0  0  0
    3.1170    2.7740   -0.0300 O   0  0  0  0  0  0  0  0  0  0  0  0
    3.9750    0.5680   -0.2950 C   0  0  0  0  0  0  0  0  0  0  0  0
    3.7960   -0.8130   -0.3240 C   0  0  0  0  0  0  0  0  0  0  0  0
    2.5270   -1.2710   -0.1030 N   0  0  0  0  0  0  0  0  0  0  0  0
    4.7850   -1.6510   -0.5510 C   0  0  0  0  0  0  0  0  0  0  0  0
    6.1440   -1.1480   -0.7870 C   0  0  0  0  0  0  0  0  0  0  0  0
    6.2330    0.2440   -0.7410 O   0  0  0  0  0  0  0  0  0  0  0  0
    5.1790    1.0650   -0.5020 C   0  0  0  0  0  0  0  0  0  0  0  0
  1  2  2  0
  2  3  1  0
  2 13  1  0
  3  4  1  0
  4  5  1  1
  4  6  1  0
  4 11  1  0
  6  7  1  0
  7  8  1  0
  8  9  2  0
  8 10  1  0
 10 11  1  0
 11 12  2  0
 13 14  1  0
 14 15  1  0
 14 20  2  0
 15 16  2  0
 16 17  1  0
 16 18  1  0
 18 19  1  0
 18 24  2  0
 19 20  1  0
 19 21  2  0
 21 22  1  0
 22 23  1  0
 23 24  1  0
M  END
