
     RDKit          3D

 23 24  0  0  0  0  0  0  0  0999 V2000
    4.7250    1.7600    0.2000 C   0  0  0  0  0  0  0  0  0  0  0  0
    3.8380    0.9290   -0.6920 C   0  0  1  0  0  0  0  0  0  0  0  0
    4.1680   -0.4200   -0.3900 O   0  0  0  0  0  0  0  0  0  0  0  0
    2.3810    1.1300   -0.3540 C   0  0  0  0  0  0  0  0  0  0  0  0
    1.8370    2.2230   -0.6000 O   0  0  0  0  0  0  0  0  0  0  0  0
    1.6380    0.0930    0.2340 N   0  0  0  0  0  0  0  0  0  0  0  0
    0.3460    0.0950    0.5940 O   0  0  0  0  0  0  0  0  0  0  0  0
   -0.3790   -0.7610   -0.2460 C   0  0  2  0  0  0  0  0  0  0  0  0
   -1.7430   -0.4540   -0.2470 N   0  0  0  0  0  0  0  0  0  0  0  0
   -2.4570    0.7910   -0.1020 C   0  0  0  0  0  0  0  0  0  0  0  0
   -2.6050    1.4360    1.1060 C   0  0  0  0  0  0  0  0  0  0  0  0
   -3.3290    2.6130    1.2120 C   0  0  0  0  0  0  0  0  0  0  0  0
   -3.4820    3.2260    2.3060 O   0  0  0  0  0  0  0  0  0  0  0  0
   -3.9130    3.1570    0.1090 N   0  0  0  0  0  0  0  0  0  0  0  0
   -3.7550    2.5130   -1.0570 C   0  0  0  0  0  0  0  0  0  0  0  0
   -4.3010    3.0250   -2.0780 O   0  0  0  0  0  0  0  0  0  0  0  0
   -3.0420    1.3510   -1.1710 N   0  0  0  0  0  0  0  0  0  0  0  0
   -2.4340   -1.6890   -0.4370 N   0  0  0  0  0  0  0  0  0  0  0  0
   -1.6760   -2.7450    0.0970 C   0  0  0  0  0  0  0  0  0  0  0  0
   -2.0100   -3.9500    0.3050 O   0  0  0  0  0  0  0  0  0  0  0  0
   -0.3460   -2.1750    0.3910 C   0  0  2  0  0  0  0  0  0  0  0  0
   -0.0890   -2.0570    1.8530 C   0  0  0  0  0  0  0  0  0  0  0  0
    0.6880   -3.0180   -0.3170 C   0  0  0  0  0  0  0  0  0  0  0  0
  2  1  1  1
  2  3  1  0
  2  4  1  0
  4  5  2  0
  4  6  1  0
  6  7  1  0
  8  7  1  1
  8  9  1  0
  8 21  1  0
  9 10  1  0
  9 18  1  0
 10 11  2  0
 10 17  1  0
 11 12  1  0
 12 13  2  0
 12 14  1  0
 14 15  1  0
 15 16  2  0
 15 17  1  0
 18 19  1  0
 19 20  2  0
 19 21  1  0
 21 22  1  1
 21 23  1  0
M  END
