
     RDKit          3D

 24 25  0  0  0  0  0  0  0  0999 V2000
    5.6210    2.6190   -0.6590 C   0  0  0  0  0  0  0  0  0  0  0  0
    5.0350    1.2610   -0.6970 N   0  0  0  0  0  0  0  0  0  0  0  0
    5.9030    0.1210   -0.9740 C   0  0  0  0  0  0  0  0  0  0  0  0
    5.3170   -1.1340   -0.5480 N   0  0  0  0  0  0  0  0  0  0  0  0
    4.2700   -1.1400    0.4380 C   0  0  0  0  0  0  0  0  0  0  0  0
    4.3040   -2.0200    1.3150 O   0  0  0  0  0  0  0  0  0  0  0  0
    3.2420   -0.1410    0.3630 C   0  0  2  0  0  0  0  0  0  0  0  0
    2.0480   -0.7400   -0.1810 O   0  0  0  0  0  0  0  0  0  0  0  0
    0.8590   -0.4130    0.3330 C   0  0  0  0  0  0  0  0  0  0  0  0
    0.5740    0.3370    1.1730 O   0  0  0  0  0  0  0  0  0  0  0  0
   -0.4450   -1.2590   -0.3920 N   0  0  0  0  0  0  0  0  0  0  0  0
   -1.4700   -0.4840    0.1900 C   0  0  0  0  0  0  0  0  0  0  0  0
   -1.5290    0.4890    0.8420 O   0  0  0  0  0  0  0  0  0  0  0  0
   -2.7520   -1.1420   -0.1540 N   0  0  0  0  0  0  0  0  0  0  0  0
   -4.0160   -0.7510    0.1750 C   0  0  0  0  0  0  0  0  0  0  0  0
   -4.3620    0.3720    0.7430 C   0  0  0  0  0  0  0  0  0  0  0  0
   -5.7450    0.7600    1.0770 C   0  0  2  0  0  0  0  0  0  0  0  0
   -5.8570    1.3670    2.3480 O   0  0  0  0  0  0  0  0  0  0  0  0
   -6.6540   -0.3360    1.0040 N   0  0  0  0  0  0  0  0  0  0  0  0
   -6.3350   -1.5660    0.3770 C   0  0  0  0  0  0  0  0  0  0  0  0
   -5.1070   -1.7520   -0.0020 C   0  0  0  0  0  0  0  0  0  0  0  0
   -4.7800   -2.9250   -0.5930 F   0  0  0  0  0  0  0  0  0  0  0  0
    3.6670    1.0410   -0.4760 C   0  0  0  0  0  0  0  0  0  0  0  0
    2.8340    1.8240   -0.9710 O   0  0  0  0  0  0  0  0  0  0  0  0
  1  2  1  0
  2  3  1  0
  2 23  1  0
  3  4  1  0
  4  5  1  0
  5  6  2  0
  5  7  1  0
  7  8  1  6
  7 23  1  0
  8  9  1  0
  9 10  2  0
  9 11  1  0
 11 12  1  0
 12 13  2  0
 12 14  1  0
 14 15  1  0
 15 16  2  0
 15 21  1  0
 16 17  1  0
 17 18  1  1
 17 19  1  0
 19 20  1  0
 20 21  2  0
 21 22  1  0
 23 24  2  0
M  END
