
     RDKit          3D

 24 25  0  0  0  0  0  0  0  0999 V2000
   -7.3930    2.0780    0.9120 C   0  0  0  0  0  0  0  0  0  0  0  0
   -6.6420    1.2780   -0.0610 O   0  0  0  0  0  0  0  0  0  0  0  0
   -5.4620    0.7560    0.2480 C   0  0  0  0  0  0  0  0  0  0  0  0
   -4.8420    0.7990    1.2310 O   0  0  0  0  0  0  0  0  0  0  0  0
   -4.7290   -0.1430   -1.0530 N   0  0  0  0  0  0  0  0  0  0  0  0
   -3.5380   -0.4520   -0.3720 C   0  0  0  0  0  0  0  0  0  0  0  0
   -3.1160   -0.2930    0.7350 O   0  0  0  0  0  0  0  0  0  0  0  0
   -2.6150   -1.1230   -1.3280 N   0  0  0  0  0  0  0  0  0  0  0  0
   -1.3180   -1.5760   -1.0230 C   0  0  1  0  0  0  0  0  0  0  0  0
   -0.3670   -0.7620   -1.8640 C   0  0  0  0  0  0  0  0  0  0  0  0
    1.0450   -1.1350   -1.6340 C   0  0  0  0  0  0  0  0  0  0  0  0
    1.3560   -1.0870   -0.1300 C   0  0  2  0  0  0  0  0  0  0  0  0
    2.7310   -1.2750    0.0880 N   0  0  0  0  0  0  0  0  0  0  0  0
    3.5250   -0.1250    0.2230 C   0  0  0  0  0  0  0  0  0  0  0  0
    3.0050    1.0470    0.1060 O   0  0  0  0  0  0  0  0  0  0  0  0
    4.8890   -0.0910    0.4840 N   0  0  0  0  0  0  0  0  0  0  0  0
    5.5160    1.2090    0.5820 C   0  0  0  0  0  0  0  0  0  0  0  0
    6.7130    1.1660    0.8000 N   0  0  0  0  0  0  0  0  0  0  0  0
    7.2260    2.5410    0.8620 C   0  0  0  0  0  0  0  0  0  0  0  0
    6.2350    3.2830    0.1670 O   0  0  0  0  0  0  0  0  0  0  0  0
    5.2190    2.5540    0.5060 O   0  0  0  0  0  0  0  0  0  0  0  0
    0.4460   -1.9680    0.6300 C   0  0  2  0  0  0  0  0  0  0  0  0
    0.4000   -3.2700    0.2510 F   0  0  0  0  0  0  0  0  0  0  0  0
   -0.9800   -1.3880    0.4490 C   0  0  0  0  0  0  0  0  0  0  0  0
  1  2  1  0
  2  3  1  0
  3  4  2  0
  3  5  1  0
  5  6  1  0
  6  7  2  0
  6  8  1  0
  9  8  1  1
  9 10  1  0
  9 24  1  0
 10 11  1  0
 11 12  1  0
 12 13  1  6
 12 22  1  0
 13 14  1  0
 14 15  2  0
 14 16  1  0
 16 17  1  0
 17 18  2  0
 17 21  1  0
 18 19  1  0
 19 20  1  0
 20 21  1  0
 22 23  1  6
 22 24  1  0
M  END
