
     RDKit          3D

 24 26  0  0  0  0  0  0  0  0999 V2000
    4.2510   -2.1100    0.7450 O   0  0  0  0  0  0  0  0  0  0  0  0
    4.3520   -0.9090    0.3560 C   0  0  0  0  0  0  0  0  0  0  0  0
    5.3830   -0.4940   -0.5360 N   0  0  0  0  0  0  0  0  0  0  0  0
    5.4490    0.8650   -0.9380 C   0  0  0  0  0  0  0  0  0  0  0  0
    6.4880    1.2010   -1.8160 O   0  0  0  0  0  0  0  0  0  0  0  0
    4.5710    1.7400   -0.4980 C   0  0  0  0  0  0  0  0  0  0  0  0
    4.7110    3.0200   -0.9370 F   0  0  0  0  0  0  0  0  0  0  0  0
    3.4630    1.4580    0.4170 C   0  0  0  0  0  0  0  0  0  0  0  0
    3.4130    0.0620    0.8170 N   0  0  0  0  0  0  0  0  0  0  0  0
    2.3800   -0.3930    1.7200 C   0  0  0  0  0  0  0  0  0  0  0  0
    1.1650   -0.8490    1.0280 C   0  0  0  0  0  0  0  0  0  0  0  0
    0.0540   -0.1240    0.6660 C   0  0  0  0  0  0  0  0  0  0  0  0
   -0.8110   -0.9530    0.0540 N   0  0  0  0  0  0  0  0  0  0  0  0
   -2.1100   -0.6780   -0.5050 C   0  0  2  0  0  0  0  0  0  0  0  0
   -2.5170    0.6160   -0.3520 O   0  0  0  0  0  0  0  0  0  0  0  0
   -3.8620    0.6640   -0.1280 C   0  0  1  0  0  0  0  0  0  0  0  0
   -4.5940    1.5910   -1.0730 C   0  0  0  0  0  0  0  0  0  0  0  0
   -4.1380    2.8850   -0.9680 O   0  0  0  0  0  0  0  0  0  0  0  0
   -4.4190   -0.7330   -0.2550 C   0  0  2  0  0  0  0  0  0  0  0  0
   -5.4520   -0.9470    0.6450 O   0  0  0  0  0  0  0  0  0  0  0  0
   -3.1900   -1.5640    0.1050 C   0  0  1  0  0  0  0  0  0  0  0  0
   -3.2300   -2.8170   -0.4570 O   0  0  0  0  0  0  0  0  0  0  0  0
   -0.2460   -2.1390    0.0440 N   0  0  0  0  0  0  0  0  0  0  0  0
    0.9330   -2.1020    0.6190 N   0  0  0  0  0  0  0  0  0  0  0  0
  1  2  2  0
  2  3  1  0
  2  9  1  0
  3  4  1  0
  4  5  1  0
  4  6  2  0
  6  7  1  0
  6  8  1  0
  8  9  1  0
  9 10  1  0
 10 11  1  0
 11 12  2  0
 11 24  1  0
 12 13  1  0
 14 13  1  1
 13 23  1  0
 14 15  1  0
 14 21  1  0
 15 16  1  0
 16 17  1  6
 16 19  1  0
 17 18  1  0
 19 20  1  1
 19 21  1  0
 21 22  1  6
 23 24  2  0
M  END
