
     RDKit          3D

 23 25  0  0  0  0  0  0  0  0999 V2000
    4.6060   -0.3350   -1.2420 C   0  0  0  0  0  0  0  0  0  0  0  0
    3.7900    0.2770   -0.0650 C   0  0  2  0  0  0  0  0  0  0  0  0
    2.3730    0.1790   -0.4850 C   0  0  0  0  0  0  0  0  0  0  0  0
    2.0680   -0.1400   -1.6920 O   0  0  0  0  0  0  0  0  0  0  0  0
    1.2850    0.4220    0.3640 N   0  0  0  0  0  0  0  0  0  0  0  0
   -0.0510    0.0930   -0.0430 C   0  0  0  0  0  0  0  0  0  0  0  0
   -1.1330    0.4360    0.6550 N   0  0  0  0  0  0  0  0  0  0  0  0
   -2.3670   -0.0020    0.3770 C   0  0  0  0  0  0  0  0  0  0  0  0
   -3.4910    0.4950    1.1410 C   0  0  0  0  0  0  0  0  0  0  0  0
   -3.0580    1.5290    2.1890 C   0  0  0  0  0  0  0  0  0  0  0  0
   -2.4230    2.5570    1.4950 O   0  0  0  0  0  0  0  0  0  0  0  0
   -2.5130   -0.8610   -0.6790 C   0  0  0  0  0  0  0  0  0  0  0  0
   -1.4300   -1.2480   -1.4330 C   0  0  0  0  0  0  0  0  0  0  0  0
   -0.2230   -0.7650   -1.1030 N   0  0  0  0  0  0  0  0  0  0  0  0
   -1.8530   -2.1230   -2.4530 O   0  0  0  0  0  0  0  0  0  0  0  0
   -3.2540   -2.0480   -2.5650 C   0  0  0  0  0  0  0  0  0  0  0  0
   -3.6820   -1.5790   -1.2000 C   0  0  2  0  0  0  0  0  0  0  0  0
   -4.8670   -0.8820   -1.2250 O   0  0  0  0  0  0  0  0  0  0  0  0
    4.2980    1.5590    0.2400 N   0  0  0  0  0  0  0  0  0  0  0  0
    5.1450    1.3690    1.3310 N   0  0  0  0  0  0  0  0  0  0  0  0
    5.1120    0.0040    1.7170 C   0  0  0  0  0  0  0  0  0  0  0  0
    5.9370   -0.5460    2.4940 O   0  0  0  0  0  0  0  0  0  0  0  0
    4.0120   -0.5710    1.0750 O   0  0  0  0  0  0  0  0  0  0  0  0
  2  1  1  6
  2  3  1  0
  2 19  1  0
  2 23  1  0
  3  4  2  0
  3  5  1  0
  5  6  1  0
  6  7  2  0
  6 14  1  0
  7  8  1  0
  8  9  1  0
  8 12  2  0
  9 10  1  0
 10 11  1  0
 12 13  1  0
 12 17  1  0
 13 14  2  0
 13 15  1  0
 15 16  1  0
 16 17  1  0
 17 18  1  6
 19 20  1  0
 20 21  1  0
 21 22  2  0
 21 23  1  0
M  END
