
     RDKit          3D

 22 23  0  0  0  0  0  0  0  0999 V2000
   -5.5900    0.1510    0.6740 C   0  0  0  0  0  0  0  0  0  0  0  0
   -4.1660    0.0760    1.1840 C   0  0  0  0  0  0  0  0  0  0  0  0
   -3.2580    0.8540    0.3060 C   0  0  0  0  0  0  0  0  0  0  0  0
   -2.2090    0.4700   -0.4020 C   0  0  0  0  0  0  0  0  0  0  0  0
   -1.6990   -0.8840   -0.4660 N   0  0  0  0  0  0  0  0  0  0  0  0
   -2.4030   -2.0640   -0.9040 C   0  0  0  0  0  0  0  0  0  0  0  0
   -2.2340   -3.1520    0.1270 C   0  0  0  0  0  0  0  0  0  0  0  0
   -0.4610   -2.8850    0.5420 S   0  0  0  0  0  0  0  0  0  0  0  0
   -0.3670   -1.2130   -0.0980 C   0  0  0  0  0  0  0  0  0  0  0  0
    0.6870   -0.4650   -0.2030 N   0  0  0  0  0  0  0  0  0  0  0  0
    1.9640   -0.9390    0.2120 C   0  0  0  0  0  0  0  0  0  0  0  0
    2.1660   -2.0740    0.6610 O   0  0  0  0  0  0  0  0  0  0  0  0
    3.1030    0.0200    0.0830 C   0  0  0  0  0  0  0  0  0  0  0  0
    4.3730   -0.6420    0.5640 C   0  0  0  0  0  0  0  0  0  0  0  0
    5.5280    0.3140    0.4410 C   0  0  0  0  0  0  0  0  0  0  0  0
    5.7450    0.7560   -0.9880 C   0  0  0  0  0  0  0  0  0  0  0  0
    6.8760    1.6810   -1.0530 C   0  0  0  0  0  0  0  0  0  0  0  0
    7.7650    2.3990   -1.0850 N   0  0  0  0  0  0  0  0  0  0  0  0
   -1.6430    1.6120   -1.1070 C   0  0  0  0  0  0  0  0  0  0  0  0
   -0.6580    1.5940   -1.8740 O   0  0  0  0  0  0  0  0  0  0  0  0
   -2.4310    2.7990   -0.7620 C   0  0  0  0  0  0  0  0  0  0  0  0
   -3.4650    2.2710    0.1230 N   0  0  0  0  0  0  0  0  0  0  0  0
  1  2  1  0
  2  3  1  0
  3  4  2  0
  3 22  1  0
  4  5  1  0
  4 19  1  0
  5  6  1  0
  5  9  1  0
  6  7  1  0
  7  8  1  0
  8  9  1  0
  9 10  2  3
 10 11  1  0
 11 12  2  0
 11 13  1  0
 13 14  1  0
 14 15  1  0
 15 16  1  0
 16 17  1  0
 17 18  3  0
 19 20  2  0
 19 21  1  0
 21 22  1  0
M  END
