
     RDKit          3D

 23 24  0  0  0  0  0  0  0  0999 V2000
   -3.0100    2.7230    1.5070 O   0  0  0  0  0  0  0  0  0  0  0  0
   -2.9830    2.7400    0.2500 C   0  0  0  0  0  0  0  0  0  0  0  0
   -3.2770    1.6050   -0.5540 N   0  0  0  0  0  0  0  0  0  0  0  0
   -3.6230    0.3710    0.0780 C   0  0  1  0  0  0  0  0  0  0  0  0
   -5.0470    0.0640   -0.2780 C   0  0  0  0  0  0  0  0  0  0  0  0
   -5.7510    0.8750   -0.9610 O   0  0  0  0  0  0  0  0  0  0  0  0
   -5.5700   -1.1740    0.1810 N   0  0  0  0  0  0  0  0  0  0  0  0
   -4.7170   -2.2650    0.3520 N   0  0  0  0  0  0  0  0  0  0  0  0
   -3.3410   -2.0790    0.0520 C   0  0  0  0  0  0  0  0  0  0  0  0
   -2.5160   -3.0490    0.1420 O   0  0  0  0  0  0  0  0  0  0  0  0
   -2.7550   -0.7830   -0.3780 C   0  0  2  0  0  0  0  0  0  0  0  0
   -1.4240   -0.6550    0.1830 N   0  0  0  0  0  0  0  0  0  0  0  0
   -0.2880   -0.4810   -0.6510 C   0  0  0  0  0  0  0  0  0  0  0  0
   -0.3970   -0.4330   -1.9200 O   0  0  0  0  0  0  0  0  0  0  0  0
    1.0330   -0.3520   -0.1430 N   0  0  0  0  0  0  0  0  0  0  0  0
    2.1610   -0.1770   -1.0290 C   0  0  0  0  0  0  0  0  0  0  0  0
    3.4630   -0.0610   -0.2790 C   0  0  1  0  0  0  0  0  0  0  0  0
    3.4940    1.0960    0.6650 C   0  0  0  0  0  0  0  0  0  0  0  0
    4.9700    1.4370    0.9040 C   0  0  0  0  0  0  0  0  0  0  0  0
    5.7300    0.1460    0.9210 C   0  0  0  0  0  0  0  0  0  0  0  0
    6.9790    0.2460    0.7810 O   0  0  0  0  0  0  0  0  0  0  0  0
    5.0870   -1.0830    1.0820 O   0  0  0  0  0  0  0  0  0  0  0  0
    3.8110   -1.3090    0.4790 C   0  0  0  0  0  0  0  0  0  0  0  0
  1  2  2  0
  2  3  1  0
  4  3  1  6
  4  5  1  0
  4 11  1  0
  5  6  2  0
  5  7  1  0
  7  8  1  0
  8  9  1  0
  9 10  2  0
  9 11  1  0
 11 12  1  1
 12 13  1  0
 13 14  2  0
 13 15  1  0
 15 16  1  0
 17 16  1  1
 17 18  1  0
 17 23  1  0
 18 19  1  0
 19 20  1  0
 20 21  2  0
 20 22  1  0
 22 23  1  0
M  END
