
     RDKit          3D

 24 25  0  0  0  0  0  0  0  0999 V2000
   -4.0690   -0.7130    0.1430 C   0  0  0  0  0  0  0  0  0  0  0  0
   -3.0250    0.2760   -0.3720 C   0  0  1  0  0  0  0  0  0  0  0  0
   -3.4390    1.6280    0.1470 C   0  0  0  0  0  0  0  0  0  0  0  0
   -3.7190    2.5990   -0.5610 O   0  0  0  0  0  0  0  0  0  0  0  0
   -3.4840    1.7060    1.5710 N   0  0  0  0  0  0  0  0  0  0  0  0
   -2.6550    0.9170    2.3720 C   0  0  0  0  0  0  0  0  0  0  0  0
   -1.7950    0.0730    1.7640 C   0  0  0  0  0  0  0  0  0  0  0  0
   -0.9940   -0.7000    2.5210 F   0  0  0  0  0  0  0  0  0  0  0  0
   -1.7230    0.0220    0.2980 C   0  0  0  0  0  0  0  0  0  0  0  0
   -0.5830   -0.2480   -0.3270 C   0  0  0  0  0  0  0  0  0  0  0  0
    0.5710   -0.4570    0.4500 N   0  0  0  0  0  0  0  0  0  0  0  0
    1.8740   -0.7660    0.0220 C   0  0  0  0  0  0  0  0  0  0  0  0
    2.1540   -0.8960   -1.1610 O   0  0  0  0  0  0  0  0  0  0  0  0
    2.9570   -0.9500    0.9480 N   0  0  0  0  0  0  0  0  0  0  0  0
    4.3070   -1.2590    0.5520 C   0  0  0  0  0  0  0  0  0  0  0  0
    4.9580   -0.2490   -0.2900 C   0  0  0  0  0  0  0  0  0  0  0  0
    6.0190    0.3380    0.1800 N   0  0  0  0  0  0  0  0  0  0  0  0
    4.4990    0.0960   -1.5340 O   0  0  0  0  0  0  0  0  0  0  0  0
    4.7830    1.3280   -2.0220 O   0  0  0  0  0  0  0  0  0  0  0  0
   -0.6090   -0.2970   -1.7820 C   0  0  0  0  0  0  0  0  0  0  0  0
    0.4090   -0.5440   -2.4760 O   0  0  0  0  0  0  0  0  0  0  0  0
   -1.8290   -0.0610   -2.5060 N   0  0  0  0  0  0  0  0  0  0  0  0
   -3.0090    0.2210   -1.8150 C   0  0  0  0  0  0  0  0  0  0  0  0
   -4.0660    0.4270   -2.4480 O   0  0  0  0  0  0  0  0  0  0  0  0
  2  1  1  1
  2  3  1  0
  2  9  1  0
  2 23  1  0
  3  4  2  0
  3  5  1  0
  5  6  1  0
  6  7  2  0
  7  8  1  0
  7  9  1  0
  9 10  2  0
 10 11  1  0
 10 20  1  0
 11 12  1  0
 12 13  2  0
 12 14  1  0
 14 15  1  0
 15 16  1  0
 16 17  2  0
 16 18  1  0
 18 19  1  0
 20 21  2  0
 20 22  1  0
 22 23  1  0
 23 24  2  0
M  END
