
     RDKit          3D

 23 24  0  0  0  0  0  0  0  0999 V2000
    1.7960    1.8640   -3.2700 C   0  0  0  0  0  0  0  0  0  0  0  0
    1.5020    1.1980   -2.0770 O   0  0  0  0  0  0  0  0  0  0  0  0
    0.2270    1.0390   -1.5710 C   0  0  0  0  0  0  0  0  0  0  0  0
   -0.7310    1.5310   -2.2260 O   0  0  0  0  0  0  0  0  0  0  0  0
    0.0650    0.3100   -0.3060 C   0  0  0  0  0  0  0  0  0  0  0  0
   -1.1180    0.1330    0.1860 C   0  0  0  0  0  0  0  0  0  0  0  0
   -1.3800   -0.5480    1.4170 N   0  0  0  0  0  0  0  0  0  0  0  0
   -2.7770   -0.7760    1.8390 C   0  0  1  0  0  0  0  0  0  0  0  0
   -3.5110    0.4860    2.0970 C   0  0  0  0  0  0  0  0  0  0  0  0
   -4.9210    0.1530    1.6980 C   0  0  0  0  0  0  0  0  0  0  0  0
   -4.7670   -0.8070    0.5860 N   0  0  0  0  0  0  0  0  0  0  0  0
   -3.4860   -1.3880    0.6670 C   0  0  0  0  0  0  0  0  0  0  0  0
   -2.9540   -2.2390   -0.0540 O   0  0  0  0  0  0  0  0  0  0  0  0
   -0.2850   -1.0130    2.1340 N   0  0  0  0  0  0  0  0  0  0  0  0
    1.0330   -0.8020    1.6540 C   0  0  0  0  0  0  0  0  0  0  0  0
    2.0030   -1.0360    2.4610 O   0  0  0  0  0  0  0  0  0  0  0  0
    1.2570   -0.3440    0.2930 C   0  0  2  0  0  0  0  0  0  0  0  0
    2.4260    0.3540    0.0350 N   0  0  0  0  0  0  0  0  0  0  0  0
    3.5450   -0.4560   -0.6300 C   0  0  0  0  0  0  0  0  0  0  0  0
    3.3340   -1.6180   -0.7970 O   0  0  0  0  0  0  0  0  0  0  0  0
    4.5680    0.4200   -0.8920 N   0  0  0  0  0  0  0  0  0  0  0  0
    5.6240   -0.7410   -1.6710 C   0  0  0  0  0  0  0  0  0  0  0  0
    5.1680   -1.8070   -1.7320 O   0  0  0  0  0  0  0  0  0  0  0  0
  1  2  1  0
  2  3  1  0
  3  4  2  0
  3  5  1  0
  5  6  2  0
  5 17  1  0
  6  7  1  0
  8  7  1  6
  7 14  1  0
  8  9  1  0
  8 12  1  0
  9 10  1  0
 10 11  1  0
 11 12  1  0
 12 13  2  0
 14 15  1  0
 15 16  2  0
 15 17  1  0
 17 18  1  1
 18 19  1  0
 19 20  2  0
 19 21  1  0
 21 22  1  0
 22 23  2  0
M  END
