
     RDKit          3D

  9  9  0  0  0  0  0  0  0  0999 V2000
    2.5800    0.1740    0.5730 N   0  0  0  0  0  0  0  0  0  0  0  0
    1.3550    0.0710    0.1800 C   0  0  0  0  0  0  0  0  0  0  0  0
    0.6220   -1.2010    0.4730 C   0  0  0  0  0  0  0  0  0  0  0  0
   -0.7050   -0.9850    0.7510 O   0  0  0  0  0  0  0  0  0  0  0  0
   -1.4410   -0.5150   -0.3130 C   0  0  0  0  0  0  0  0  0  0  0  0
   -1.6740    0.9780   -0.1490 C   0  0  0  0  0  0  0  0  0  0  0  0
   -0.5330    1.6110   -0.7400 O   0  0  0  0  0  0  0  0  0  0  0  0
    0.7820    1.2220   -0.5280 C   0  0  0  0  0  0  0  0  0  0  0  0
    1.6850    1.9700   -1.0190 O   0  0  0  0  0  0  0  0  0  0  0  0
  1  2  2  0
  2  3  1  0
  2  8  1  0
  3  4  1  0
  4  5  1  0
  5  6  1  0
  6  7  1  0
  7  8  1  0
  8  9  2  0
M  END
