
     RDKit          3D

  9  9  0  0  0  0  0  0  0  0999 V2000
   -1.8310    0.7140   -0.4560 C   0  0  0  0  0  0  0  0  0  0  0  0
   -0.5800    0.0240   -0.0140 C   0  0  2  0  0  0  0  0  0  0  0  0
   -0.8610   -0.7990    1.1460 N   0  0  0  0  0  0  0  0  0  0  0  0
    0.4720    1.0850    0.3090 C   0  0  0  0  0  0  0  0  0  0  0  0
    1.6370    0.5400    0.7920 O   0  0  0  0  0  0  0  0  0  0  0  0
    2.1990   -0.4270   -0.0010 C   0  0  0  0  0  0  0  0  0  0  0  0
    1.4330   -0.7740   -1.1270 O   0  0  0  0  0  0  0  0  0  0  0  0
    0.0260   -0.8150   -1.0840 C   0  0  0  0  0  0  0  0  0  0  0  0
   -0.6230   -1.5050   -1.8880 O   0  0  0  0  0  0  0  0  0  0  0  0
  2  1  1  6
  2  3  1  0
  2  4  1  0
  2  8  1  0
  4  5  1  0
  5  6  1  0
  6  7  1  0
  7  8  1  0
  8  9  2  0
M  END
