
     RDKit          3D

  9  9  0  0  0  0  0  0  0  0999 V2000
   -3.4920    0.4570    0.3310 O   0  0  0  0  0  0  0  0  0  0  0  0
   -2.6490   -0.6150    0.0390 C   0  0  0  0  0  0  0  0  0  0  0  0
   -1.2310   -0.1100    0.0360 C   0  0  0  0  0  0  0  0  0  0  0  0
   -0.8440    1.0920    0.2610 N   0  0  0  0  0  0  0  0  0  0  0  0
    0.5920    1.1400    0.1590 C   0  0  0  0  0  0  0  0  0  0  0  0
    0.9600   -0.2880    0.4610 C   0  0  2  0  0  0  0  0  0  0  0  0
    2.2850   -0.6870   -0.1290 C   0  0  0  0  0  0  0  0  0  0  0  0
    2.3110   -0.3210   -1.4660 O   0  0  0  0  0  0  0  0  0  0  0  0
   -0.1250   -0.9410   -0.2250 O   0  0  0  0  0  0  0  0  0  0  0  0
  1  2  1  0
  2  3  1  0
  3  4  2  0
  3  9  1  0
  4  5  1  0
  5  6  1  0
  6  7  1  6
  6  9  1  0
  7  8  1  0
M  END
