
     RDKit          3D

  9  9  0  0  0  0  0  0  0  0999 V2000
    2.6820   -0.4850    0.0610 N   0  0  0  0  0  0  0  0  0  0  0  0
    1.7820    0.5560   -0.3820 C   0  0  0  0  0  0  0  0  0  0  0  0
    0.3960    0.2410    0.1400 C   0  0  2  0  0  0  0  0  0  0  0  0
   -0.0530   -0.9690   -0.3270 O   0  0  0  0  0  0  0  0  0  0  0  0
   -1.4110   -1.0510   -0.5180 C   0  0  0  0  0  0  0  0  0  0  0  0
   -2.1430   -0.2620    0.5700 C   0  0  0  0  0  0  0  0  0  0  0  0
   -1.8750    1.1180    0.2670 O   0  0  0  0  0  0  0  0  0  0  0  0
   -0.5590    1.3410   -0.1610 C   0  0  0  0  0  0  0  0  0  0  0  0
   -0.2520    2.3920   -0.7460 O   0  0  0  0  0  0  0  0  0  0  0  0
  1  2  1  0
  3  2  1  6
  3  4  1  0
  3  8  1  0
  4  5  1  0
  5  6  1  0
  6  7  1  0
  7  8  1  0
  8  9  2  0
M  END
