
     RDKit          3D

  8  8  0  0  0  0  0  0  0  0999 V2000
   -1.7120    0.9740   -0.1510 N   0  0  0  0  0  0  0  0  0  0  0  0
   -1.7160   -0.4320    0.1600 C   0  0  0  0  0  0  0  0  0  0  0  0
   -0.2920   -0.9430    0.4010 C   0  0  1  0  0  0  0  0  0  0  0  0
    0.4580   -0.9370   -0.8790 C   0  0  0  0  0  0  0  0  0  0  0  0
    1.2880    0.1360   -1.0750 O   0  0  0  0  0  0  0  0  0  0  0  0
    2.0130    0.4950    0.0510 C   0  0  0  0  0  0  0  0  0  0  0  0
    0.9930    0.8440    1.1240 C   0  0  0  0  0  0  0  0  0  0  0  0
    0.2930   -0.2830    1.4420 O   0  0  0  0  0  0  0  0  0  0  0  0
  1  2  1  0
  3  2  1  6
  3  4  1  0
  3  8  1  0
  4  5  1  0
  5  6  1  0
  6  7  1  0
  7  8  1  0
M  END
