
     RDKit          3D

  9  9  0  0  0  0  0  0  0  0999 V2000
    3.4450    0.0450   -0.2860 O   0  0  0  0  0  0  0  0  0  0  0  0
    2.2090   -0.5990   -0.3380 C   0  0  0  0  0  0  0  0  0  0  0  0
    1.2040    0.3620    0.1020 N   0  0  0  0  0  0  0  0  0  0  0  0
   -0.1830    0.0260    0.1700 C   0  0  0  0  0  0  0  0  0  0  0  0
   -1.1870    0.8230   -0.1590 C   0  0  0  0  0  0  0  0  0  0  0  0
   -1.1100    2.1280   -0.6320 O   0  0  0  0  0  0  0  0  0  0  0  0
   -2.4390    0.0360    0.0780 C   0  0  0  0  0  0  0  0  0  0  0  0
   -1.9720   -1.2830   -0.1310 O   0  0  0  0  0  0  0  0  0  0  0  0
   -0.7950   -1.2470    0.6100 C   0  0  0  0  0  0  0  0  0  0  0  0
  1  2  1  0
  2  3  1  0
  3  4  1  0
  4  5  2  0
  4  9  1  0
  5  6  1  0
  5  7  1  0
  7  8  1  0
  8  9  1  0
M  END
