
     RDKit          3D

  9  9  0  0  0  0  0  0  0  0999 V2000
    3.1570    1.3280   -0.1160 O   0  0  0  0  0  0  0  0  0  0  0  0
    2.2290    0.3700    0.3120 C   0  0  0  0  0  0  0  0  0  0  0  0
    1.4860   -0.0430   -0.8260 N   0  0  0  0  0  0  0  0  0  0  0  0
    0.4700   -1.0280   -0.6040 C   0  0  0  0  0  0  0  0  0  0  0  0
   -0.6390   -0.4180    0.1790 C   0  0  1  0  0  0  0  0  0  0  0  0
   -1.4070    0.6290   -0.6030 C   0  0  0  0  0  0  0  0  0  0  0  0
   -2.7120    0.4940   -0.1290 O   0  0  0  0  0  0  0  0  0  0  0  0
   -2.6200   -0.3900    0.9670 C   0  0  0  0  0  0  0  0  0  0  0  0
   -1.6930   -1.3180    0.4410 O   0  0  0  0  0  0  0  0  0  0  0  0
  1  2  1  0
  2  3  1  0
  3  4  1  0
  5  4  1  6
  5  6  1  0
  5  9  1  0
  6  7  1  0
  7  8  1  0
  8  9  1  0
M  END
