
     RDKit          3D

 11 10  0  0  0  0  0  0  0  0999 V2000
   -1.1570    1.4250   -1.0790 C   0  0  0  0  0  0  0  0  0  0  0  0
   -1.0340    0.2120   -0.2240 C   0  0  0  0  0  0  0  0  0  0  0  0
   -2.1890   -0.3600    0.0910 C   0  0  0  0  0  0  0  0  0  0  0  0
   -2.3850   -1.5090    0.8780 N   0  0  0  0  0  0  0  0  0  0  0  0
    0.2430   -0.2850    0.2230 C   0  0  0  0  0  0  0  0  0  0  0  0
    1.4430    0.1950   -0.0260 C   0  0  0  0  0  0  0  0  0  0  0  0
    1.8170    1.3550   -0.8190 C   0  0  0  0  0  0  0  0  0  0  0  0
    2.5810   -0.5140    0.5710 N   0  0  0  0  0  0  0  0  0  0  0  0
    0.2000   -1.4620    1.0510 N   0  0  0  0  0  0  0  0  0  0  0  0
   -0.0880   -1.3430    2.2280 O   0  0  0  0  0  0  0  0  0  0  0  0
    0.4970   -2.6580    0.5020 O   0  0  0  0  0  0  0  0  0  0  0  0
  1  2  1  0
  2  3  2  3
  2  5  1  0
  3  4  1  0
  5  6  2  3
  5  9  1  0
  6  7  1  0
  6  8  1  0
  9 10  2  0
  9 11  1  0
M  CHG  2   9   1  11  -1
M  END
