
     RDKit          3D

 11 11  0  0  0  0  0  0  0  0999 V2000
   -2.6280    0.3560    0.8790 C   0  0  0  0  0  0  0  0  0  0  0  0
   -1.3120   -0.0460    0.2610 C   0  0  0  0  0  0  0  0  0  0  0  0
   -0.2640    0.6790    0.5250 C   0  0  0  0  0  0  0  0  0  0  0  0
    1.0630    0.4170    0.0050 C   0  0  0  0  0  0  0  0  0  0  0  0
    1.9610    1.3870   -0.4940 C   0  0  0  0  0  0  0  0  0  0  0  0
    3.0740    0.7600   -0.8610 N   0  0  0  0  0  0  0  0  0  0  0  0
    2.9810   -0.5330   -0.6460 N   0  0  0  0  0  0  0  0  0  0  0  0
    1.7660   -0.7600   -0.1200 C   0  0  0  0  0  0  0  0  0  0  0  0
   -1.3830   -1.1860   -0.5600 N   0  0  0  0  0  0  0  0  0  0  0  0
   -1.2490   -2.3550   -0.1350 O   0  0  0  0  0  0  0  0  0  0  0  0
   -1.6220   -1.0450   -1.9280 O   0  0  0  0  0  0  0  0  0  0  0  0
  1  2  1  0
  2  3  2  3
  2  9  1  0
  3  4  1  0
  4  5  1  0
  4  8  2  0
  5  6  2  0
  6  7  1  0
  7  8  1  0
  9 10  2  0
  9 11  1  0
M  CHG  2   9   1  11  -1
M  END
