
     RDKit          3D

 11 11  0  0  0  0  0  0  0  0999 V2000
   -2.5070   -0.7430   -0.6550 C   0  0  0  0  0  0  0  0  0  0  0  0
   -2.0350    0.3710    0.2410 C   0  0  0  0  0  0  0  0  0  0  0  0
   -0.6240    0.1140    0.6310 C   0  0  0  0  0  0  0  0  0  0  0  0
   -0.1720   -0.3800    1.8190 N   0  0  0  0  0  0  0  0  0  0  0  0
    1.1370   -0.4800    1.8020 N   0  0  0  0  0  0  0  0  0  0  0  0
    1.6370   -0.0690    0.6300 C   0  0  0  0  0  0  0  0  0  0  0  0
    3.0630   -0.0170    0.2020 C   0  0  0  0  0  0  0  0  0  0  0  0
    0.5160    0.3100   -0.1200 C   0  0  0  0  0  0  0  0  0  0  0  0
    0.6300    0.8140   -1.4440 N   0  0  0  0  0  0  0  0  0  0  0  0
    1.0570    2.0010   -1.5770 O   0  0  0  0  0  0  0  0  0  0  0  0
    0.2980    0.0650   -2.5260 O   0  0  0  0  0  0  0  0  0  0  0  0
  1  2  1  0
  2  3  1  0
  3  4  1  0
  3  8  2  0
  4  5  1  0
  5  6  2  0
  6  7  1  0
  6  8  1  0
  8  9  1  0
  9 10  2  0
  9 11  1  0
M  CHG  2   9   1  11  -1
M  END
