
     RDKit          3D

 21 23  0  0  0  0  0  0  0  0999 V2000
   -4.1880   -2.6530    0.3670 C   0  0  0  0  0  0  0  0  0  0  0  0
   -3.0320   -1.3690   -0.1790 S   0  0  0  0  0  0  0  0  0  0  0  0
   -3.2490    0.0890    0.8960 C   0  0  0  0  0  0  0  0  0  0  0  0
   -2.3020    1.1950    0.4790 C   0  0  1  0  0  0  0  0  0  0  0  0
   -1.0010    0.7740    0.5750 O   0  0  0  0  0  0  0  0  0  0  0  0
   -0.2320    1.4890   -0.3160 C   0  0  1  0  0  0  0  0  0  0  0  0
    0.8580    0.7300   -0.8650 N   0  0  0  0  0  0  0  0  0  0  0  0
    1.3290    0.6440   -2.1210 C   0  0  0  0  0  0  0  0  0  0  0  0
    2.3770   -0.2030   -2.1600 N   0  0  0  0  0  0  0  0  0  0  0  0
    2.5970   -0.6790   -0.9160 C   0  0  0  0  0  0  0  0  0  0  0  0
    1.6430   -0.0900   -0.1140 C   0  0  0  0  0  0  0  0  0  0  0  0
    1.4840   -0.2960    1.3020 N   0  0  0  0  0  0  0  0  0  0  0  0
    2.3910   -0.6560    2.1460 C   0  0  0  0  0  0  0  0  0  0  0  0
    3.7730   -0.9310    1.8370 N   0  0  0  0  0  0  0  0  0  0  0  0
    4.4620   -1.0140    0.5870 C   0  0  0  0  0  0  0  0  0  0  0  0
    3.6430   -1.6330   -0.5050 C   0  0  1  0  0  0  0  0  0  0  0  0
    3.0330   -2.7820    0.0500 O   0  0  0  0  0  0  0  0  0  0  0  0
   -1.1600    1.8620   -1.4670 C   0  0  2  0  0  0  0  0  0  0  0  0
   -0.9790    3.1820   -1.8680 O   0  0  0  0  0  0  0  0  0  0  0  0
   -2.5600    1.6720   -0.9110 C   0  0  2  0  0  0  0  0  0  0  0  0
   -3.2200    2.9040   -0.9260 O   0  0  0  0  0  0  0  0  0  0  0  0
  1  2  1  0
  2  3  1  0
  4  3  1  6
  4  5  1  0
  4 20  1  0
  5  6  1  0
  6  7  1  6
  6 18  1  0
  7  8  1  0
  7 11  1  0
  8  9  2  0
  9 10  1  0
 10 11  2  0
 10 16  1  0
 11 12  1  0
 12 13  2  0
 13 14  1  0
 14 15  1  0
 15 16  1  0
 16 17  1  1
 18 19  1  1
 18 20  1  0
 20 21  1  1
M  END
