
     RDKit          3D

 10 10  0  0  0  0  0  0  0  0999 V2000
   -1.4830    0.8320   -0.9560 C   0  0  0  0  0  0  0  0  0  0  0  0
   -0.5780    0.4420    0.2200 C   0  0  1  0  0  0  0  0  0  0  0  0
   -1.4650   -0.1740    1.2800 C   0  0  0  0  0  0  0  0  0  0  0  0
    0.5080   -0.4420   -0.2070 C   0  0  0  0  0  0  0  0  0  0  0  0
    1.8040   -0.1940   -0.1180 C   0  0  0  0  0  0  0  0  0  0  0  0
    2.3990    0.9810    0.4110 N   0  0  0  0  0  0  0  0  0  0  0  0
    2.5450   -1.2970   -0.6400 N   0  0  0  0  0  0  0  0  0  0  0  0
    1.7440   -2.1920   -1.0370 N   0  0  0  0  0  0  0  0  0  0  0  0
    0.4080   -1.7610   -0.8120 C   0  0  0  0  0  0  0  0  0  0  0  0
   -0.6520   -2.4090   -1.0900 O   0  0  0  0  0  0  0  0  0  0  0  0
  2  1  1  6
  2  3  1  0
  2  4  1  0
  4  5  2  0
  4  9  1  0
  5  6  1  0
  5  7  1  0
  7  8  2  0
  8  9  1  0
  9 10  2  0
M  END
