
     RDKit          3D

 11 11  0  0  0  0  0  0  0  0999 V2000
   -1.2530    1.5030   -0.4000 C   0  0  0  0  0  0  0  0  0  0  0  0
   -0.8970    0.0830   -0.1150 C   0  0  2  0  0  0  0  0  0  0  0  0
   -1.4710   -0.3030    1.2590 C   0  0  0  0  0  0  0  0  0  0  0  0
    0.5900   -0.0250    0.0420 C   0  0  0  0  0  0  0  0  0  0  0  0
    1.3630    0.5830    0.9580 N   0  0  0  0  0  0  0  0  0  0  0  0
    2.6500    0.2570    0.7980 C   0  0  0  0  0  0  0  0  0  0  0  0
    2.6900   -0.6000   -0.2750 C   0  0  0  0  0  0  0  0  0  0  0  0
    1.4210   -0.7570   -0.7200 N   0  0  0  0  0  0  0  0  0  0  0  0
   -1.3940   -0.8630   -1.0570 N   0  0  0  0  0  0  0  0  0  0  0  0
   -2.1160   -0.5080   -1.9880 O   0  0  0  0  0  0  0  0  0  0  0  0
   -1.0770   -2.1750   -0.9290 O   0  0  0  0  0  0  0  0  0  0  0  0
  2  1  1  6
  2  3  1  0
  2  4  1  0
  2  9  1  0
  4  5  2  0
  4  8  1  0
  5  6  1  0
  6  7  2  0
  7  8  1  0
  9 10  2  0
  9 11  1  0
M  CHG  2   9   1  11  -1
M  END
