
     RDKit          3D

 11 11  0  0  0  0  0  0  0  0999 V2000
    2.4080    1.7720   -0.4520 N   0  0  0  0  0  0  0  0  0  0  0  0
    1.3450    0.8430   -0.2590 C   0  0  0  0  0  0  0  0  0  0  0  0
    0.1820    1.3660   -0.2080 N   0  0  0  0  0  0  0  0  0  0  0  0
   -1.0640    0.7320   -0.0290 C   0  0  0  0  0  0  0  0  0  0  0  0
   -2.0860    1.2900   -0.5770 N   0  0  0  0  0  0  0  0  0  0  0  0
   -1.9180    2.4530   -1.2950 O   0  0  0  0  0  0  0  0  0  0  0  0
   -3.3190    0.7460   -0.4530 O   0  0  0  0  0  0  0  0  0  0  0  0
   -1.3860   -0.5110    0.7150 C   0  0  0  0  0  0  0  0  0  0  0  0
   -0.5110   -1.5890    0.1200 C   0  0  0  0  0  0  0  0  0  0  0  0
    0.8790   -1.4220    0.6810 C   0  0  0  0  0  0  0  0  0  0  0  0
    1.7580   -0.5470   -0.1540 C   0  0  0  0  0  0  0  0  0  0  0  0
  1  2  1  0
  2  3  2  0
  2 11  1  0
  3  4  1  0
  4  5  2  3
  4  8  1  0
  5  6  1  0
  5  7  1  0
  8  9  1  0
  9 10  1  0
 10 11  1  0
M  CHG  2   5   1   6  -1
M  END
