
     RDKit          3D

 11 11  0  0  0  0  0  0  0  0999 V2000
   -2.9060   -0.5230    0.7720 C   0  0  0  0  0  0  0  0  0  0  0  0
   -2.1360    0.7540    0.7060 C   0  0  0  0  0  0  0  0  0  0  0  0
   -1.7220    1.1190   -0.5510 O   0  0  0  0  0  0  0  0  0  0  0  0
   -0.8940    0.2210   -1.1780 C   0  0  0  0  0  0  0  0  0  0  0  0
    0.3700   -0.0370   -0.4400 C   0  0  0  0  0  0  0  0  0  0  0  0
    0.5570   -1.0240    0.5050 C   0  0  0  0  0  0  0  0  0  0  0  0
    1.8420   -0.9000    0.9150 N   0  0  0  0  0  0  0  0  0  0  0  0
    2.4330   -1.6910    1.8510 O   0  0  0  0  0  0  0  0  0  0  0  0
    2.4540    0.1010    0.2800 C   0  0  0  0  0  0  0  0  0  0  0  0
    3.7940    0.5530    0.4220 N   0  0  0  0  0  0  0  0  0  0  0  0
    1.5220    0.6290   -0.5620 N   0  0  0  0  0  0  0  0  0  0  0  0
  1  2  1  0
  2  3  1  0
  3  4  1  0
  4  5  1  0
  5  6  2  0
  5 11  1  0
  6  7  1  0
  7  8  1  0
  7  9  2  0
  9 10  1  0
  9 11  1  0
M  CHG  2   7   1   8  -1
M  END
