
     RDKit          3D

 23 25  0  0  0  0  0  0  0  0999 V2000
   -1.7290    2.8860    2.2610 C   0  0  0  0  0  0  0  0  0  0  0  0
   -1.1720    1.7990    1.7620 C   0  0  0  0  0  0  0  0  0  0  0  0
   -2.0320    0.8160    1.1230 C   0  0  0  0  0  0  0  0  0  0  0  0
   -1.4520   -0.2660    0.6290 C   0  0  0  0  0  0  0  0  0  0  0  0
   -0.0960   -0.4040    0.7400 O   0  0  0  0  0  0  0  0  0  0  0  0
    0.8240    0.0620   -0.1840 C   0  0  0  0  0  0  0  0  0  0  0  0
    0.4140    0.6460   -1.1850 O   0  0  0  0  0  0  0  0  0  0  0  0
    2.2580   -0.1610    0.0730 C   0  0  0  0  0  0  0  0  0  0  0  0
    2.7980   -0.8030    1.1650 C   0  0  0  0  0  0  0  0  0  0  0  0
    4.1540   -0.8120    1.0460 C   0  0  0  0  0  0  0  0  0  0  0  0
    4.4320   -0.1550   -0.1560 C   0  0  0  0  0  0  0  0  0  0  0  0
    5.6170    0.1420   -0.8050 C   0  0  0  0  0  0  0  0  0  0  0  0
    5.6660    0.8110   -2.0050 C   0  0  0  0  0  0  0  0  0  0  0  0
    4.4580    1.1850   -2.5530 C   0  0  0  0  0  0  0  0  0  0  0  0
    3.2760    0.8930   -1.9130 C   0  0  0  0  0  0  0  0  0  0  0  0
    3.2810    0.2290   -0.7270 N   0  0  0  0  0  0  0  0  0  0  0  0
   -2.2820   -1.2540   -0.0080 C   0  0  0  0  0  0  0  0  0  0  0  0
   -1.8930   -2.4990   -0.1190 C   0  0  0  0  0  0  0  0  0  0  0  0
   -0.5890   -2.9970    0.3910 C   0  0  0  0  0  0  0  0  0  0  0  0
   -3.6140   -0.7520   -0.5120 C   0  0  2  0  0  0  0  0  0  0  0  0
   -3.3320    0.2610   -1.5930 C   0  0  0  0  0  0  0  0  0  0  0  0
   -4.2350   -0.1020    0.6530 N   0  0  0  0  0  0  0  0  0  0  0  0
   -3.4950    1.0510    1.0420 C   0  0  0  0  0  0  0  0  0  0  0  0
  1  2  2  0
  2  3  1  0
  3  4  2  0
  3 23  1  0
  4  5  1  0
  4 17  1  0
  5  6  1  0
  6  7  2  0
  6  8  1  0
  8  9  2  0
  8 16  1  0
  9 10  1  0
 10 11  2  0
 11 12  1  0
 11 16  1  0
 12 13  2  0
 13 14  1  0
 14 15  2  0
 15 16  1  0
 17 18  2  3
 17 20  1  0
 18 19  1  0
 20 21  1  6
 20 22  1  0
 22 23  1  0
M  CHG  1  22   1
M  END
