
     RDKit          3D

 24 26  0  0  0  0  0  0  0  0999 V2000
   -0.1380    0.4430    3.3110 O   0  0  0  0  0  0  0  0  0  0  0  0
   -0.6740    0.1600    2.1860 C   0  0  0  0  0  0  0  0  0  0  0  0
   -2.1490    0.1920    2.0840 C   0  0  0  0  0  0  0  0  0  0  0  0
   -2.8210   -0.0760    0.9930 C   0  0  0  0  0  0  0  0  0  0  0  0
   -4.2810   -0.0200    0.9810 C   0  0  0  0  0  0  0  0  0  0  0  0
   -5.0030   -0.2760   -0.0740 C   0  0  0  0  0  0  0  0  0  0  0  0
   -4.4960   -0.6580   -1.4060 C   0  0  0  0  0  0  0  0  0  0  0  0
   -5.0500    0.6340   -2.5830 S   0  0  0  0  0  0  0  0  0  0  0  0
   -6.7900    0.9680   -2.1850 C   0  0  0  0  0  0  0  0  0  0  0  0
   -7.2390    0.0350   -1.1230 C   0  0  0  0  0  0  0  0  0  0  0  0
   -8.3480   -0.5940   -1.2170 O   0  0  0  0  0  0  0  0  0  0  0  0
   -6.4410   -0.1860    0.0370 N   0  0  0  0  0  0  0  0  0  0  0  0
    0.1650   -0.1640    1.1180 N   0  0  0  0  0  0  0  0  0  0  0  0
    1.5760   -0.2250    1.1360 C   0  0  0  0  0  0  0  0  0  0  0  0
    2.2930   -0.3070    2.2880 C   0  0  0  0  0  0  0  0  0  0  0  0
    3.6920   -0.3460    2.2670 C   0  0  0  0  0  0  0  0  0  0  0  0
    4.3850   -0.3050    1.1010 C   0  0  0  0  0  0  0  0  0  0  0  0
    3.6410   -0.2230   -0.0620 C   0  0  0  0  0  0  0  0  0  0  0  0
    2.2790   -0.1830   -0.0790 C   0  0  0  0  0  0  0  0  0  0  0  0
    4.2240   -0.1740   -1.3390 O   0  0  0  0  0  0  0  0  0  0  0  0
    5.3930    0.4380   -1.7580 C   0  0  0  0  0  0  0  0  0  0  0  0
    6.4380    0.6730   -0.7350 C   0  0  0  0  0  0  0  0  0  0  0  0
    6.6900   -0.4840    0.1900 C   0  0  0  0  0  0  0  0  0  0  0  0
    5.7850   -0.3540    1.2730 O   0  0  0  0  0  0  0  0  0  0  0  0
  1  2  2  0
  2  3  1  0
  2 13  1  0
  3  4  2  3
  4  5  1  0
  5  6  2  3
  6  7  1  0
  6 12  1  0
  7  8  1  0
  8  9  1  0
  9 10  1  0
 10 11  2  0
 10 12  1  0
 13 14  1  0
 14 15  2  0
 14 19  1  0
 15 16  1  0
 16 17  2  0
 17 18  1  0
 17 24  1  0
 18 19  2  0
 18 20  1  0
 20 21  1  0
 21 22  1  0
 22 23  1  0
 23 24  1  0
M  END
