
     RDKit          3D

 24 26  0  0  0  0  0  0  0  0999 V2000
    5.4350   -1.4600   -0.2060 C   0  0  0  0  0  0  0  0  0  0  0  0
    4.3910   -1.6310    0.7210 O   0  0  0  0  0  0  0  0  0  0  0  0
    3.2040   -0.9250    0.5700 C   0  0  0  0  0  0  0  0  0  0  0  0
    3.0060   -0.0510   -0.4700 C   0  0  0  0  0  0  0  0  0  0  0  0
    1.8120    0.6210   -0.5710 C   0  0  0  0  0  0  0  0  0  0  0  0
    0.7730    0.4550    0.3510 C   0  0  0  0  0  0  0  0  0  0  0  0
   -0.4500    1.2190    0.1450 C   0  0  0  0  0  0  0  0  0  0  0  0
   -0.4860    2.9430    0.0730 S   0  0  0  0  0  0  0  0  0  0  0  0
   -2.0480    3.5710   -0.1760 C   0  0  0  0  0  0  0  0  0  0  0  0
   -2.3540    5.0280   -0.2730 C   0  0  0  0  0  0  0  0  0  0  0  0
   -3.0340    2.6130   -0.2810 C   0  0  0  0  0  0  0  0  0  0  0  0
   -2.8680    1.2700   -0.2050 C   0  0  0  0  0  0  0  0  0  0  0  0
   -3.9010    0.5450   -0.3270 O   0  0  0  0  0  0  0  0  0  0  0  0
   -1.6690    0.5950   -0.0060 C   0  0  0  0  0  0  0  0  0  0  0  0
   -1.6930   -0.8720    0.0540 C   0  0  0  0  0  0  0  0  0  0  0  0
   -2.3010   -1.5220    1.1070 C   0  0  0  0  0  0  0  0  0  0  0  0
   -2.3370   -2.8770    1.1800 N   0  0  0  0  0  0  0  0  0  0  0  0
   -1.7700   -3.6050    0.2060 C   0  0  0  0  0  0  0  0  0  0  0  0
   -1.7940   -4.8610    0.2550 O   0  0  0  0  0  0  0  0  0  0  0  0
   -1.1740   -2.9800   -0.8290 N   0  0  0  0  0  0  0  0  0  0  0  0
   -1.1200   -1.6220   -0.9330 C   0  0  0  0  0  0  0  0  0  0  0  0
   -0.5660   -1.0870   -1.8950 O   0  0  0  0  0  0  0  0  0  0  0  0
    1.0100   -0.4200    1.3680 C   0  0  0  0  0  0  0  0  0  0  0  0
    2.1820   -1.1100    1.5060 C   0  0  0  0  0  0  0  0  0  0  0  0
  1  2  1  0
  2  3  1  0
  3  4  2  0
  3 24  1  0
  4  5  1  0
  5  6  2  0
  6  7  1  0
  6 23  1  0
  7  8  1  0
  7 14  2  0
  8  9  1  0
  9 10  1  0
  9 11  2  0
 11 12  1  0
 12 13  2  0
 12 14  1  0
 14 15  1  0
 15 16  2  0
 15 21  1  0
 16 17  1  0
 17 18  1  0
 18 19  2  0
 18 20  1  0
 20 21  1  0
 21 22  2  0
 23 24  2  0
M  END
