
     RDKit          3D

 24 26  0  0  0  0  0  0  0  0999 V2000
    5.7220   -0.8300   -2.0420 C   0  0  0  0  0  0  0  0  0  0  0  0
    5.0100   -0.2630   -0.8640 C   0  0  0  0  0  0  0  0  0  0  0  0
    5.5500    0.7900   -0.1290 C   0  0  0  0  0  0  0  0  0  0  0  0
    4.9090    1.3080    0.9400 N   0  0  0  0  0  0  0  0  0  0  0  0
    3.7200    0.8210    1.3320 C   0  0  0  0  0  0  0  0  0  0  0  0
    3.0360    1.3990    2.5010 C   0  0  0  0  0  0  0  0  0  0  0  0
    1.9270    0.9480    2.8710 O   0  0  0  0  0  0  0  0  0  0  0  0
    3.1280   -0.2160    0.6560 C   0  0  0  0  0  0  0  0  0  0  0  0
    1.8860   -0.7200    1.0720 O   0  0  0  0  0  0  0  0  0  0  0  0
    0.7700   -0.1250    0.5110 C   0  0  0  0  0  0  0  0  0  0  0  0
    0.8500    0.8100   -0.3210 O   0  0  0  0  0  0  0  0  0  0  0  0
   -0.5910   -0.5660    0.8680 C   0  0  0  0  0  0  0  0  0  0  0  0
   -0.6640   -1.4970    1.6960 O   0  0  0  0  0  0  0  0  0  0  0  0
   -1.7310    0.0200    0.3140 N   0  0  0  0  0  0  0  0  0  0  0  0
   -3.0810   -0.4050    0.6570 C   0  0  0  0  0  0  0  0  0  0  0  0
   -3.2570   -1.4210    1.5590 C   0  0  0  0  0  0  0  0  0  0  0  0
   -5.0870   -1.5730    1.6440 S   0  0  0  0  0  0  0  0  0  0  0  0
   -5.4010   -0.2800    0.4820 C   0  0  0  0  0  0  0  0  0  0  0  0
   -4.2240    0.1500    0.1300 C   0  0  0  0  0  0  0  0  0  0  0  0
   -4.4650    1.2730   -0.8960 C   0  0  0  0  0  0  0  0  0  0  0  0
   -5.8530    1.7200   -0.5210 C   0  0  0  0  0  0  0  0  0  0  0  0
   -6.5660    0.4230   -0.1690 C   0  0  0  0  0  0  0  0  0  0  0  0
    3.7880   -0.7380   -0.4320 C   0  0  0  0  0  0  0  0  0  0  0  0
    3.1390   -1.8570   -1.1530 C   0  0  0  0  0  0  0  0  0  0  0  0
  1  2  1  0
  2  3  2  0
  2 23  1  0
  3  4  1  0
  4  5  2  0
  5  6  1  0
  5  8  1  0
  6  7  2  0
  8  9  1  0
  8 23  2  0
  9 10  1  0
 10 11  2  0
 10 12  1  0
 12 13  2  0
 12 14  1  0
 14 15  1  0
 15 16  2  0
 15 19  1  0
 16 17  1  0
 17 18  1  0
 18 19  2  0
 18 22  1  0
 19 20  1  0
 20 21  1  0
 21 22  1  0
 23 24  1  0
M  END
