
     RDKit          3D

 24 26  0  0  0  0  0  0  0  0999 V2000
    2.2560   -1.5380    0.2210 O   0  0  0  0  0  0  0  0  0  0  0  0
    1.7670   -0.9380   -0.7610 C   0  0  0  0  0  0  0  0  0  0  0  0
    2.5710   -0.6540   -1.9690 C   0  0  0  0  0  0  0  0  0  0  0  0
    3.8750   -1.1650   -1.7660 O   0  0  0  0  0  0  0  0  0  0  0  0
    4.5920   -0.6510   -0.6870 C   0  0  0  0  0  0  0  0  0  0  0  0
    4.7490    0.6510   -0.6080 C   0  0  0  0  0  0  0  0  0  0  0  0
    5.4590    1.4130    0.4270 C   0  0  0  0  0  0  0  0  0  0  0  0
    6.1780    0.3970    1.7100 S   0  0  0  0  0  0  0  0  0  0  0  0
    5.7990   -1.2990    1.3280 C   0  0  0  0  0  0  0  0  0  0  0  0
    5.1110   -1.6100    0.2680 C   0  0  0  0  0  0  0  0  0  0  0  0
    0.3710   -0.5070   -0.7200 C   0  0  0  0  0  0  0  0  0  0  0  0
   -0.0530    0.0850   -1.7300 O   0  0  0  0  0  0  0  0  0  0  0  0
   -0.3940   -0.7820    0.4380 N   0  0  0  0  0  0  0  0  0  0  0  0
   -1.7370   -0.3990    0.5480 C   0  0  0  0  0  0  0  0  0  0  0  0
   -2.5040    0.2590   -0.3630 C   0  0  0  0  0  0  0  0  0  0  0  0
   -3.8440    0.5870   -0.1320 C   0  0  0  0  0  0  0  0  0  0  0  0
   -4.5940    1.2520   -1.0710 C   0  0  0  0  0  0  0  0  0  0  0  0
   -5.9170    1.5680   -0.8260 C   0  0  0  0  0  0  0  0  0  0  0  0
   -6.4490    1.1980    0.3750 C   0  0  0  0  0  0  0  0  0  0  0  0
   -5.7050    0.5310    1.3240 C   0  0  0  0  0  0  0  0  0  0  0  0
   -4.3800    0.2150    1.0770 C   0  0  0  0  0  0  0  0  0  0  0  0
   -3.6600   -0.4340    2.0040 N   0  0  0  0  0  0  0  0  0  0  0  0
   -2.3820   -0.7310    1.7470 C   0  0  0  0  0  0  0  0  0  0  0  0
   -1.7380   -1.3350    2.6270 O   0  0  0  0  0  0  0  0  0  0  0  0
  1  2  2  0
  2  3  1  0
  2 11  1  0
  3  4  1  0
  4  5  1  0
  5  6  2  0
  5 10  1  0
  6  7  1  0
  7  8  1  0
  8  9  1  0
  9 10  2  0
 11 12  2  0
 11 13  1  0
 13 14  1  0
 14 15  2  0
 14 23  1  0
 15 16  1  0
 16 17  2  0
 16 21  1  0
 17 18  1  0
 18 19  2  0
 19 20  1  0
 20 21  2  0
 21 22  1  0
 22 23  1  0
 23 24  2  0
M  END
