
     RDKit          3D

 24 26  0  0  0  0  0  0  0  0999 V2000
    6.9710   -1.9120    0.3820 C   0  0  0  0  0  0  0  0  0  0  0  0
    7.8120   -0.6760    0.0430 C   0  0  0  0  0  0  0  0  0  0  0  0
    6.9300    0.5040   -0.1540 C   0  0  0  0  0  0  0  0  0  0  0  0
    7.5000    1.5910   -0.4350 O   0  0  0  0  0  0  0  0  0  0  0  0
    5.5600    0.4390   -0.0430 O   0  0  0  0  0  0  0  0  0  0  0  0
    4.7740    1.5810   -0.2390 C   0  0  0  0  0  0  0  0  0  0  0  0
    3.3360    1.1930   -0.0530 C   0  0  0  0  0  0  0  0  0  0  0  0
    2.9990    0.0090    0.2330 O   0  0  0  0  0  0  0  0  0  0  0  0
    2.2860    2.1390   -0.1910 N   0  0  0  0  0  0  0  0  0  0  0  0
    0.9580    1.7470   -0.0120 N   0  0  0  0  0  0  0  0  0  0  0  0
    0.3280    0.7190   -0.7130 C   0  0  0  0  0  0  0  0  0  0  0  0
    0.9630    0.0690   -1.5760 O   0  0  0  0  0  0  0  0  0  0  0  0
   -1.0650    0.4130   -0.4290 C   0  0  0  0  0  0  0  0  0  0  0  0
   -1.9450    0.9400    0.4100 C   0  0  0  0  0  0  0  0  0  0  0  0
   -3.2070    0.4480    0.4640 C   0  0  0  0  0  0  0  0  0  0  0  0
   -3.5130   -0.5960   -0.3820 C   0  0  0  0  0  0  0  0  0  0  0  0
   -2.0030   -0.8830   -1.2470 S   0  0  0  0  0  0  0  0  0  0  0  0
   -4.8470   -1.1790   -0.5450 C   0  0  0  0  0  0  0  0  0  0  0  0
   -5.2450   -2.1870   -1.2880 C   0  0  0  0  0  0  0  0  0  0  0  0
   -6.7040   -2.3580   -1.0650 C   0  0  0  0  0  0  0  0  0  0  0  0
   -7.0480   -1.3090   -0.0780 C   0  0  0  0  0  0  0  0  0  0  0  0
   -5.9410   -0.6210    0.2110 C   0  0  0  0  0  0  0  0  0  0  0  0
   -5.6820    0.5760    1.0320 C   0  0  0  0  0  0  0  0  0  0  0  0
   -4.3070    0.8320    1.4260 C   0  0  0  0  0  0  0  0  0  0  0  0
  1  2  1  0
  2  3  1  0
  3  4  2  0
  3  5  1  0
  5  6  1  0
  6  7  1  0
  7  8  2  0
  7  9  1  0
  9 10  1  0
 10 11  1  0
 11 12  2  0
 11 13  1  0
 13 14  2  0
 13 17  1  0
 14 15  1  0
 15 16  2  0
 15 24  1  0
 16 17  1  0
 16 18  1  0
 18 19  2  0
 18 22  1  0
 19 20  1  0
 20 21  1  0
 21 22  2  0
 22 23  1  0
 23 24  1  0
M  END
