
     RDKit          3D

 23 26  0  0  0  0  0  0  0  0999 V2000
    3.1970    0.7460   -3.1240 O   0  0  0  0  0  0  0  0  0  0  0  0
    2.7380    0.2110   -2.1190 C   0  0  0  0  0  0  0  0  0  0  0  0
    2.8700   -1.1830   -1.9140 O   0  0  0  0  0  0  0  0  0  0  0  0
    2.3140   -2.0220   -0.9480 C   0  0  0  0  0  0  0  0  0  0  0  0
    2.9240   -3.2590   -0.8710 C   0  0  0  0  0  0  0  0  0  0  0  0
    2.4540   -4.1810    0.0560 C   0  0  0  0  0  0  0  0  0  0  0  0
    1.4120   -3.9340    0.9080 C   0  0  0  0  0  0  0  0  0  0  0  0
    0.8190   -2.6820    0.8090 C   0  0  0  0  0  0  0  0  0  0  0  0
    1.2520   -1.7650   -0.0830 C   0  0  0  0  0  0  0  0  0  0  0  0
    0.4690   -0.4790   -0.0660 C   0  0  0  0  0  0  0  0  0  0  0  0
   -0.7680   -0.5830    0.1680 C   0  0  0  0  0  0  0  0  0  0  0  0
   -1.9010    0.3600    0.2550 C   0  0  0  0  0  0  0  0  0  0  0  0
   -1.8230    1.5880    0.0010 N   0  0  0  0  0  0  0  0  0  0  0  0
   -2.9210    2.4530    0.0930 C   0  0  0  0  0  0  0  0  0  0  0  0
   -4.1090    2.0130    0.4580 C   0  0  0  0  0  0  0  0  0  0  0  0
   -4.2910    0.6530    0.7610 N   0  0  0  0  0  0  0  0  0  0  0  0
   -3.2160   -0.2190    0.6880 C   0  0  0  0  0  0  0  0  0  0  0  0
    1.1070    0.8150   -0.2190 C   0  0  0  0  0  0  0  0  0  0  0  0
    0.6450    1.7440    0.6850 C   0  0  0  0  0  0  0  0  0  0  0  0
    1.1100    3.0290    0.6740 C   0  0  0  0  0  0  0  0  0  0  0  0
    2.0650    3.3360   -0.2860 C   0  0  0  0  0  0  0  0  0  0  0  0
    2.5480    2.3970   -1.2080 C   0  0  0  0  0  0  0  0  0  0  0  0
    2.0590    1.1170   -1.1680 C   0  0  0  0  0  0  0  0  0  0  0  0
  1  2  2  0
  2  3  1  0
  2 23  1  0
  3  4  1  0
  4  5  2  0
  4  9  1  0
  5  6  1  0
  6  7  2  0
  7  8  1  0
  8  9  2  0
  9 10  1  0
 10 11  2  3
 10 18  1  0
 11 12  1  0
 12 13  2  0
 12 17  1  0
 13 14  1  0
 14 15  2  0
 15 16  1  0
 16 17  1  0
 18 19  2  0
 18 23  1  0
 19 20  1  0
 20 21  2  0
 21 22  1  0
 22 23  2  0
M  CHG  1  16   1
M  END
