
     RDKit          3D

 23 26  0  0  0  0  0  0  0  0999 V2000
   -6.2810    1.9750   -0.2640 C   0  0  0  0  0  0  0  0  0  0  0  0
   -5.6850    0.8960    0.4890 N   0  0  0  0  0  0  0  0  0  0  0  0
   -4.9280    0.0640   -0.5070 C   0  0  0  0  0  0  0  0  0  0  0  0
   -3.6830    0.7540   -0.7930 C   0  0  0  0  0  0  0  0  0  0  0  0
   -2.4440    0.5550   -0.7380 C   0  0  0  0  0  0  0  0  0  0  0  0
   -1.6560   -0.5700   -0.3240 C   0  0  0  0  0  0  0  0  0  0  0  0
   -2.1180   -1.8220   -0.0090 C   0  0  0  0  0  0  0  0  0  0  0  0
   -1.3220   -2.8730    0.4310 C   0  0  0  0  0  0  0  0  0  0  0  0
   -0.0050   -2.6800    0.5650 N   0  0  0  0  0  0  0  0  0  0  0  0
    0.5120   -1.4810    0.2720 C   0  0  0  0  0  0  0  0  0  0  0  0
   -0.2510   -0.4270   -0.1630 C   0  0  0  0  0  0  0  0  0  0  0  0
    0.3120    0.8880   -0.4980 C   0  0  0  0  0  0  0  0  0  0  0  0
    1.6900    0.9680   -0.2710 O   0  0  0  0  0  0  0  0  0  0  0  0
    2.4790   -0.0620    0.1600 C   0  0  0  0  0  0  0  0  0  0  0  0
    1.9700   -1.3260    0.4560 C   0  0  0  0  0  0  0  0  0  0  0  0
    2.7960   -2.3350    0.8850 C   0  0  0  0  0  0  0  0  0  0  0  0
    4.1610   -2.0510    1.0150 C   0  0  0  0  0  0  0  0  0  0  0  0
    4.6770   -0.8070    0.7260 C   0  0  0  0  0  0  0  0  0  0  0  0
    5.8870   -0.3140    0.7690 O   0  0  0  0  0  0  0  0  0  0  0  0
    5.9220    0.9420    0.4000 C   0  0  0  0  0  0  0  0  0  0  0  0
    7.1380    1.8240    0.3290 C   0  0  0  0  0  0  0  0  0  0  0  0
    4.6210    1.2850    0.0950 C   0  0  0  0  0  0  0  0  0  0  0  0
    3.8340    0.1900    0.2970 C   0  0  0  0  0  0  0  0  0  0  0  0
  1  2  1  0
  2  3  1  0
  3  4  1  0
  4  5  2  3
  5  6  1  0
  6  7  2  0
  6 11  1  0
  7  8  1  0
  8  9  2  0
  9 10  1  0
 10 11  2  0
 10 15  1  0
 11 12  1  0
 12 13  1  0
 13 14  1  0
 14 15  2  0
 14 23  1  0
 15 16  1  0
 16 17  2  0
 17 18  1  0
 18 19  1  0
 18 23  2  0
 19 20  1  0
 20 21  1  0
 20 22  2  0
 22 23  1  0
M  CHG  2   2   1   9   1
M  END
