
     RDKit          3D

 15 15  0  0  0  0  0  0  0  0999 V2000
    3.4100   -1.4580   -0.7750 C   0  0  0  0  0  0  0  0  0  0  0  0
    3.4140   -0.0340   -1.2500 C   0  0  0  0  0  0  0  0  0  0  0  0
    3.5960    0.8920   -0.2500 O   0  0  0  0  0  0  0  0  0  0  0  0
    2.6350    0.8650    0.7280 C   0  0  0  0  0  0  0  0  0  0  0  0
    1.2420    1.1310    0.1970 C   0  0  0  0  0  0  0  0  0  0  0  0
    0.2710    1.0750    1.3630 C   0  0  0  0  0  0  0  0  0  0  0  0
   -1.0620    1.3150    0.9580 O   0  0  0  0  0  0  0  0  0  0  0  0
   -1.7020    0.5100    0.0370 C   0  0  0  0  0  0  0  0  0  0  0  0
   -1.5590    0.6790   -1.2780 C   0  0  0  0  0  0  0  0  0  0  0  0
   -2.2340   -0.1700   -2.2750 C   0  0  0  0  0  0  0  0  0  0  0  0
   -3.0210   -1.1470   -1.6640 O   0  0  0  0  0  0  0  0  0  0  0  0
   -3.1650   -1.3170   -0.3220 C   0  0  0  0  0  0  0  0  0  0  0  0
   -2.5590   -0.5560    0.5480 C   0  0  0  0  0  0  0  0  0  0  0  0
   -2.7330   -0.7600    2.0050 C   0  0  0  0  0  0  0  0  0  0  0  0
   -3.5870   -1.8210    2.2050 O   0  0  0  0  0  0  0  0  0  0  0  0
  1  2  1  0
  2  3  1  0
  3  4  1  0
  4  5  1  0
  5  6  1  0
  6  7  1  0
  7  8  1  0
  8  9  2  0
  8 13  1  0
  9 10  1  0
 10 11  1  0
 11 12  1  0
 12 13  2  0
 13 14  1  0
 14 15  1  0
M  END
