
     RDKit          3D

 15 14  0  0  0  0  0  0  0  0999 V2000
   -1.6040   -3.2160   -1.1100 C   0  0  0  0  0  0  0  0  0  0  0  0
   -1.0000   -1.8740   -1.0320 C   0  0  0  0  0  0  0  0  0  0  0  0
   -1.3290   -1.0170   -0.0240 C   0  0  0  0  0  0  0  0  0  0  0  0
   -2.3060   -1.4930    0.9690 C   0  0  0  0  0  0  0  0  0  0  0  0
   -0.7010    0.2770   -0.0110 C   0  0  0  0  0  0  0  0  0  0  0  0
   -0.8860    1.2200    0.8610 C   0  0  0  0  0  0  0  0  0  0  0  0
   -1.7090    1.3010    2.0170 C   0  0  0  0  0  0  0  0  0  0  0  0
   -1.7020    2.4260    2.7520 C   0  0  0  0  0  0  0  0  0  0  0  0
   -2.4690    2.5880    3.8870 O   0  0  0  0  0  0  0  0  0  0  0  0
    0.2270    0.5540   -1.0720 O   0  0  0  0  0  0  0  0  0  0  0  0
    1.5790    0.4770   -0.6630 C   0  0  0  0  0  0  0  0  0  0  0  0
    2.5070    0.7680   -1.7810 C   0  0  0  0  0  0  0  0  0  0  0  0
    2.1330    1.0470   -2.9430 O   0  0  0  0  0  0  0  0  0  0  0  0
    3.8750    0.7360   -1.5490 O   0  0  0  0  0  0  0  0  0  0  0  0
    4.8400    0.9940   -2.5340 C   0  0  0  0  0  0  0  0  0  0  0  0
  1  2  1  0
  2  3  2  3
  3  4  1  0
  3  5  1  0
  5  6  2  3
  5 10  1  0
  6  7  1  0
  7  8  2  3
  8  9  1  0
 10 11  1  0
 11 12  1  0
 12 13  2  0
 12 14  1  0
 14 15  1  0
M  END
