
     RDKit          3D

 15 14  0  0  0  0  0  0  0  0999 V2000
   -4.3320    1.4910    0.3050 C   0  0  0  0  0  0  0  0  0  0  0  0
   -4.3010    0.0340    0.5670 C   0  0  0  0  0  0  0  0  0  0  0  0
   -3.3150   -0.7460    0.1350 C   0  0  0  0  0  0  0  0  0  0  0  0
   -3.2800   -2.1990    0.3940 C   0  0  0  0  0  0  0  0  0  0  0  0
   -4.4010   -2.6210    1.1370 O   0  0  0  0  0  0  0  0  0  0  0  0
   -2.2210   -0.1330   -0.6300 C   0  0  0  0  0  0  0  0  0  0  0  0
   -0.9540   -0.3180    0.0150 O   0  0  0  0  0  0  0  0  0  0  0  0
    0.1960    0.1910   -0.5560 C   0  0  0  0  0  0  0  0  0  0  0  0
    0.0500    0.8100   -1.6540 O   0  0  0  0  0  0  0  0  0  0  0  0
    1.5150    0.0510    0.0250 C   0  0  0  0  0  0  0  0  0  0  0  0
    2.5590    0.5660   -0.5850 C   0  0  0  0  0  0  0  0  0  0  0  0
    3.9430    0.4580   -0.0420 C   0  0  1  0  0  0  0  0  0  0  0  0
    4.3910    1.7000    0.6590 C   0  0  0  0  0  0  0  0  0  0  0  0
    3.9750   -0.7680    0.8460 C   0  0  0  0  0  0  0  0  0  0  0  0
    4.7780    0.2340   -1.1500 O   0  0  0  0  0  0  0  0  0  0  0  0
  1  2  1  0
  2  3  2  3
  3  4  1  0
  3  6  1  0
  4  5  1  0
  6  7  1  0
  7  8  1  0
  8  9  2  0
  8 10  1  0
 10 11  2  3
 11 12  1  0
 12 13  1  1
 12 14  1  0
 12 15  1  0
M  END
