
     RDKit          3D

 15 15  0  0  0  0  0  0  0  0999 V2000
    4.1500    1.0750   -0.2320 C   0  0  0  0  0  0  0  0  0  0  0  0
    4.5410   -0.3260   -0.0650 C   0  0  0  0  0  0  0  0  0  0  0  0
    3.6930   -1.3280   -0.0360 C   0  0  0  0  0  0  0  0  0  0  0  0
    4.1440   -2.6590    0.1300 O   0  0  0  0  0  0  0  0  0  0  0  0
    2.2190   -1.2080   -0.1660 C   0  0  0  0  0  0  0  0  0  0  0  0
    1.8480    0.0930   -0.3220 O   0  0  0  0  0  0  0  0  0  0  0  0
    0.5000    0.3010   -0.4550 C   0  0  0  0  0  0  0  0  0  0  0  0
   -0.2950   -0.1650    0.7170 C   0  0  0  0  0  0  0  0  0  0  0  0
   -1.7580    0.0610    0.5860 C   0  0  2  0  0  0  0  0  0  0  0  0
   -2.3800   -0.4140    1.7360 O   0  0  0  0  0  0  0  0  0  0  0  0
   -2.3260   -0.6930   -0.6140 C   0  0  0  0  0  0  0  0  0  0  0  0
   -3.8130   -0.4050   -0.7070 C   0  0  0  0  0  0  0  0  0  0  0  0
   -4.2790    0.3410    0.3450 O   0  0  0  0  0  0  0  0  0  0  0  0
   -3.6710    1.5510    0.5480 C   0  0  0  0  0  0  0  0  0  0  0  0
   -2.1640    1.4960    0.4100 C   0  0  0  0  0  0  0  0  0  0  0  0
  1  2  1  0
  2  3  2  3
  3  4  1  0
  3  5  1  0
  5  6  1  0
  6  7  1  0
  7  8  1  0
  8  9  1  0
  9 10  1  1
  9 11  1  0
  9 15  1  0
 11 12  1  0
 12 13  1  0
 13 14  1  0
 14 15  1  0
M  END
