
     RDKit          3D

 15 15  0  0  0  0  0  0  0  0999 V2000
    3.7510    1.7270   -1.7730 O   0  0  0  0  0  0  0  0  0  0  0  0
    4.1890    1.3510   -0.4950 C   0  0  0  0  0  0  0  0  0  0  0  0
    2.9610    0.8400    0.2640 C   0  0  0  0  0  0  0  0  0  0  0  0
    2.3520   -0.3410   -0.4470 C   0  0  0  0  0  0  0  0  0  0  0  0
    1.2500   -0.8000    0.2340 O   0  0  0  0  0  0  0  0  0  0  0  0
    0.6620   -1.8930   -0.3980 C   0  0  0  0  0  0  0  0  0  0  0  0
   -0.5410   -2.3430    0.4040 C   0  0  2  0  0  0  0  0  0  0  0  0
   -1.1660   -3.4230   -0.1710 O   0  0  0  0  0  0  0  0  0  0  0  0
   -1.4600   -1.1410    0.5660 C   0  0  2  0  0  0  0  0  0  0  0  0
   -2.0540   -0.8050   -0.7580 C   0  0  0  0  0  0  0  0  0  0  0  0
   -1.8990    0.6400   -1.1510 C   0  0  0  0  0  0  0  0  0  0  0  0
   -2.9170    1.4900   -0.4110 C   0  0  0  0  0  0  0  0  0  0  0  0
   -2.8080    1.0890    1.0640 C   0  0  0  0  0  0  0  0  0  0  0  0
   -1.3700    1.0180    1.4080 C   0  0  0  0  0  0  0  0  0  0  0  0
   -0.7260   -0.1380    1.1450 O   0  0  0  0  0  0  0  0  0  0  0  0
  1  2  1  0
  2  3  1  0
  3  4  1  0
  4  5  1  0
  5  6  1  0
  6  7  1  0
  7  8  1  6
  7  9  1  0
  9 10  1  6
  9 15  1  0
 10 11  1  0
 11 12  1  0
 12 13  1  0
 13 14  1  0
 14 15  1  0
M  END
