
     RDKit          3D

 15 15  0  0  0  0  0  0  0  0999 V2000
   -3.7250   -1.8070    1.5490 C   0  0  0  0  0  0  0  0  0  0  0  0
   -2.4360   -1.2380    1.0920 C   0  0  0  0  0  0  0  0  0  0  0  0
   -2.4150   -0.3230    0.1510 C   0  0  0  0  0  0  0  0  0  0  0  0
   -3.6070    0.2590   -0.5700 C   0  0  0  0  0  0  0  0  0  0  0  0
   -3.0480    1.4910   -0.9860 O   0  0  0  0  0  0  0  0  0  0  0  0
   -1.6640    1.3950   -1.0600 C   0  0  0  0  0  0  0  0  0  0  0  0
   -0.7260    2.3110   -1.7600 C   0  0  0  0  0  0  0  0  0  0  0  0
   -1.2340    0.3210   -0.3930 C   0  0  0  0  0  0  0  0  0  0  0  0
    0.1560   -0.1010   -0.2540 C   0  0  0  0  0  0  0  0  0  0  0  0
    0.4750   -1.1300    0.3940 O   0  0  0  0  0  0  0  0  0  0  0  0
    1.2050    0.6060   -0.8270 O   0  0  0  0  0  0  0  0  0  0  0  0
    2.5530    0.2590   -0.7330 C   0  0  0  0  0  0  0  0  0  0  0  0
    3.0910    0.2110    0.6670 C   0  0  0  0  0  0  0  0  0  0  0  0
    4.5550   -0.1780    0.5750 C   0  0  0  0  0  0  0  0  0  0  0  0
    4.7050   -1.4230   -0.0300 O   0  0  0  0  0  0  0  0  0  0  0  0
  1  2  1  0
  2  3  2  3
  3  4  1  0
  3  8  1  0
  4  5  1  0
  5  6  1  0
  6  7  1  0
  6  8  2  0
  8  9  1  0
  9 10  2  0
  9 11  1  0
 11 12  1  0
 12 13  1  0
 13 14  1  0
 14 15  1  0
M  END
