
     RDKit          3D

 15 15  0  0  0  0  0  0  0  0999 V2000
   -3.9160    1.9470   -0.6610 C   0  0  0  0  0  0  0  0  0  0  0  0
   -3.6420    0.6550   -0.4940 C   0  0  0  0  0  0  0  0  0  0  0  0
   -4.6660   -0.4450   -0.5060 C   0  0  0  0  0  0  0  0  0  0  0  0
   -3.9800   -1.5030    0.3400 C   0  0  0  0  0  0  0  0  0  0  0  0
   -2.5490   -1.1630    0.1990 C   0  0  0  0  0  0  0  0  0  0  0  0
   -2.3410    0.0480   -0.2690 C   0  0  0  0  0  0  0  0  0  0  0  0
   -1.0300    0.6910   -0.5270 C   0  0  0  0  0  0  0  0  0  0  0  0
   -0.9890    1.8500   -0.9730 O   0  0  0  0  0  0  0  0  0  0  0  0
    0.1520    0.0210   -0.2780 O   0  0  0  0  0  0  0  0  0  0  0  0
    1.3610    0.6680   -0.5360 C   0  0  0  0  0  0  0  0  0  0  0  0
    2.5540   -0.2160   -0.2040 C   0  0  2  0  0  0  0  0  0  0  0  0
    2.5810   -0.5890    1.1090 O   0  0  0  0  0  0  0  0  0  0  0  0
    3.7780    0.5480   -0.6010 C   0  0  0  0  0  0  0  0  0  0  0  0
    4.9340   -0.1430   -0.5200 O   0  0  0  0  0  0  0  0  0  0  0  0
    5.2510   -0.6020    0.7270 C   0  0  0  0  0  0  0  0  0  0  0  0
  1  2  2  0
  2  3  1  0
  2  6  1  0
  3  4  1  0
  4  5  1  0
  5  6  2  0
  6  7  1  0
  7  8  2  0
  7  9  1  0
  9 10  1  0
 10 11  1  0
 11 12  1  1
 11 13  1  0
 13 14  1  0
 14 15  1  0
M  END
