
     RDKit          3D

 15 15  0  0  0  0  0  0  0  0999 V2000
    4.4600    1.1270    0.5200 C   0  0  0  0  0  0  0  0  0  0  0  0
    4.2070    0.4230   -0.6340 O   0  0  0  0  0  0  0  0  0  0  0  0
    4.0050   -0.9110   -0.3490 C   0  0  0  0  0  0  0  0  0  0  0  0
    2.8650   -1.1520    0.5540 C   0  0  0  0  0  0  0  0  0  0  0  0
    1.8140   -1.8970    0.2030 C   0  0  0  0  0  0  0  0  0  0  0  0
    0.6700   -2.1460    1.0950 C   0  0  0  0  0  0  0  0  0  0  0  0
   -0.5290   -1.6880    0.5620 O   0  0  0  0  0  0  0  0  0  0  0  0
   -0.4690   -0.3260    0.3380 C   0  0  0  0  0  0  0  0  0  0  0  0
   -1.7780    0.1560   -0.2410 C   0  0  1  0  0  0  0  0  0  0  0  0
   -1.9790   -0.5240   -1.4410 O   0  0  0  0  0  0  0  0  0  0  0  0
   -2.9500   -0.2080    0.6750 C   0  0  0  0  0  0  0  0  0  0  0  0
   -4.1710    0.4490    0.0630 C   0  0  0  0  0  0  0  0  0  0  0  0
   -4.1200    1.8110    0.0480 O   0  0  0  0  0  0  0  0  0  0  0  0
   -2.8810    2.3700    0.1770 C   0  0  0  0  0  0  0  0  0  0  0  0
   -1.7810    1.6200   -0.5260 C   0  0  0  0  0  0  0  0  0  0  0  0
  1  2  1  0
  2  3  1  0
  3  4  1  0
  4  5  2  3
  5  6  1  0
  6  7  1  0
  7  8  1  0
  8  9  1  0
  9 10  1  6
  9 11  1  0
  9 15  1  0
 11 12  1  0
 12 13  1  0
 13 14  1  0
 14 15  1  0
M  END
