
     RDKit          3D

 15 15  0  0  0  0  0  0  0  0999 V2000
   -1.3550    1.5580    0.2900 C   0  0  0  0  0  0  0  0  0  0  0  0
   -1.8030    0.3480   -0.4460 C   0  0  2  0  0  0  0  0  0  0  0  0
   -2.2020    0.5870   -1.8630 C   0  0  0  0  0  0  0  0  0  0  0  0
   -3.0740   -0.1260    0.2980 C   0  0  0  0  0  0  0  0  0  0  0  0
   -2.4800   -0.7360    1.5600 C   0  0  0  0  0  0  0  0  0  0  0  0
   -0.9830   -0.9400    1.2720 C   0  0  0  0  0  0  0  0  0  0  0  0
   -0.9930   -0.8930   -0.2220 C   0  0  1  0  0  0  0  0  0  0  0  0
   -1.8570   -1.9550   -0.6140 O   0  0  0  0  0  0  0  0  0  0  0  0
    0.2540   -1.0700   -0.9370 C   0  0  0  0  0  0  0  0  0  0  0  0
    1.3400   -0.1290   -0.7880 C   0  0  0  0  0  0  0  0  0  0  0  0
    1.3370    0.9680   -1.3980 O   0  0  0  0  0  0  0  0  0  0  0  0
    2.4320   -0.3870    0.0270 O   0  0  0  0  0  0  0  0  0  0  0  0
    3.4970    0.5680    0.1550 C   0  0  0  0  0  0  0  0  0  0  0  0
    4.5480    0.0460    1.0820 C   0  0  0  0  0  0  0  0  0  0  0  0
    5.5650    1.0000    1.1820 O   0  0  0  0  0  0  0  0  0  0  0  0
  2  1  1  1
  2  3  1  0
  2  4  1  0
  2  7  1  0
  4  5  1  0
  5  6  1  0
  6  7  1  0
  7  8  1  6
  7  9  1  0
  9 10  1  0
 10 11  2  0
 10 12  1  0
 12 13  1  0
 13 14  1  0
 14 15  1  0
M  END
