
     RDKit          3D

 15 15  0  0  0  0  0  0  0  0999 V2000
   -2.6580    0.6060    1.0150 C   0  0  0  0  0  0  0  0  0  0  0  0
   -2.1660    0.5600   -0.3920 C   0  0  2  0  0  0  0  0  0  0  0  0
   -2.5970    1.8090   -1.0880 C   0  0  0  0  0  0  0  0  0  0  0  0
   -2.7930   -0.6880   -1.0400 C   0  0  0  0  0  0  0  0  0  0  0  0
   -1.9870   -1.7730   -0.3700 C   0  0  0  0  0  0  0  0  0  0  0  0
   -0.6780   -1.1750    0.0400 C   0  0  0  0  0  0  0  0  0  0  0  0
   -0.7270    0.2310   -0.5390 C   0  0  1  0  0  0  0  0  0  0  0  0
   -0.4020    0.1460   -1.8800 O   0  0  0  0  0  0  0  0  0  0  0  0
    0.2110    1.1580    0.1800 C   0  0  0  0  0  0  0  0  0  0  0  0
    1.5890    0.6750   -0.0840 C   0  0  0  0  0  0  0  0  0  0  0  0
    2.3780    1.3310   -0.8360 O   0  0  0  0  0  0  0  0  0  0  0  0
    2.0560   -0.4890    0.4660 O   0  0  0  0  0  0  0  0  0  0  0  0
    3.3470   -1.0370    0.2830 C   0  0  0  0  0  0  0  0  0  0  0  0
    4.4260   -0.1100    0.8040 C   0  0  0  0  0  0  0  0  0  0  0  0
    5.6540   -0.7070    0.5960 O   0  0  0  0  0  0  0  0  0  0  0  0
  2  1  1  1
  2  3  1  0
  2  4  1  0
  2  7  1  0
  4  5  1  0
  5  6  1  0
  6  7  1  0
  7  8  1  6
  7  9  1  0
  9 10  1  0
 10 11  2  0
 10 12  1  0
 12 13  1  0
 13 14  1  0
 14 15  1  0
M  END
