
     RDKit          3D

 15 15  0  0  0  0  0  0  0  0999 V2000
    4.9510    1.5010   -0.2060 C   0  0  0  0  0  0  0  0  0  0  0  0
    4.3890    0.1190   -0.3070 C   0  0  0  0  0  0  0  0  0  0  0  0
    3.1140    0.0160    0.2340 O   0  0  0  0  0  0  0  0  0  0  0  0
    2.6260   -1.2740    0.1230 C   0  0  0  0  0  0  0  0  0  0  0  0
    1.2340   -1.3580    0.7210 C   0  0  0  0  0  0  0  0  0  0  0  0
    0.3050   -0.4140   -0.0120 C   0  0  0  0  0  0  0  0  0  0  0  0
   -1.0070   -0.4620    0.5160 O   0  0  0  0  0  0  0  0  0  0  0  0
   -2.0070    0.3180   -0.0060 C   0  0  0  0  0  0  0  0  0  0  0  0
   -1.8480    1.6080   -0.1680 C   0  0  0  0  0  0  0  0  0  0  0  0
   -2.8830    2.5140   -0.7250 C   0  0  0  0  0  0  0  0  0  0  0  0
   -4.0400    1.8420   -1.0570 O   0  0  0  0  0  0  0  0  0  0  0  0
   -4.2150    0.5030   -0.8930 C   0  0  0  0  0  0  0  0  0  0  0  0
   -3.2740   -0.2850   -0.3920 C   0  0  0  0  0  0  0  0  0  0  0  0
   -3.5300   -1.7420   -0.2390 C   0  0  0  0  0  0  0  0  0  0  0  0
   -4.8030   -2.0100   -0.6860 O   0  0  0  0  0  0  0  0  0  0  0  0
  1  2  1  0
  2  3  1  0
  3  4  1  0
  4  5  1  0
  5  6  1  0
  6  7  1  0
  7  8  1  0
  8  9  2  0
  8 13  1  0
  9 10  1  0
 10 11  1  0
 11 12  1  0
 12 13  2  0
 13 14  1  0
 14 15  1  0
M  END
