
     RDKit          3D

 15 15  0  0  0  0  0  0  0  0999 V2000
    4.1930    1.2540   -0.7480 C   0  0  0  0  0  0  0  0  0  0  0  0
    4.6220   -0.0820   -0.2970 C   0  0  0  0  0  0  0  0  0  0  0  0
    3.7930   -0.9250    0.2460 C   0  0  0  0  0  0  0  0  0  0  0  0
    4.2910   -2.1760    0.6450 O   0  0  0  0  0  0  0  0  0  0  0  0
    2.3420   -0.7010    0.4950 C   0  0  0  0  0  0  0  0  0  0  0  0
    1.8820    0.5210    0.1000 O   0  0  0  0  0  0  0  0  0  0  0  0
    0.5460    0.6740    0.3980 C   0  0  0  0  0  0  0  0  0  0  0  0
   -0.3370   -0.3480   -0.2720 C   0  0  0  0  0  0  0  0  0  0  0  0
   -1.7640   -0.0310    0.1290 C   0  0  1  0  0  0  0  0  0  0  0  0
   -1.8960   -0.1060    1.5140 O   0  0  0  0  0  0  0  0  0  0  0  0
   -2.2120    1.3270   -0.3610 C   0  0  0  0  0  0  0  0  0  0  0  0
   -3.7260    1.3020   -0.3540 C   0  0  0  0  0  0  0  0  0  0  0  0
   -4.2420    0.4790    0.6430 O   0  0  0  0  0  0  0  0  0  0  0  0
   -4.0250   -0.8730    0.3620 C   0  0  0  0  0  0  0  0  0  0  0  0
   -2.7380   -1.0450   -0.4560 C   0  0  0  0  0  0  0  0  0  0  0  0
  1  2  1  0
  2  3  2  3
  3  4  1  0
  3  5  1  0
  5  6  1  0
  6  7  1  0
  7  8  1  0
  8  9  1  0
  9 10  1  1
  9 11  1  0
  9 15  1  0
 11 12  1  0
 12 13  1  0
 13 14  1  0
 14 15  1  0
M  END
