
     RDKit          3D

 18 19  0  0  0  0  0  0  0  0999 V2000
   -4.7140   -2.0450   -0.1130 O   0  0  0  0  0  0  0  0  0  0  0  0
   -4.0630   -0.9430   -0.1110 C   0  0  0  0  0  0  0  0  0  0  0  0
   -2.6050   -1.0030   -0.3610 C   0  0  0  0  0  0  0  0  0  0  0  0
   -1.9920    0.3380   -0.3310 C   0  0  0  0  0  0  0  0  0  0  0  0
   -0.5700    0.4780   -0.5680 N   0  0  0  0  0  0  0  0  0  0  0  0
    0.3350   -0.1410    0.2950 C   0  0  0  0  0  0  0  0  0  0  0  0
   -0.1440   -0.8230    1.2670 O   0  0  0  0  0  0  0  0  0  0  0  0
    1.7830   -0.0590    0.1500 C   0  0  0  0  0  0  0  0  0  0  0  0
    2.4700    0.8520   -0.5790 C   0  0  0  0  0  0  0  0  0  0  0  0
    1.6680    2.1620   -1.3860 Cl  0  0  0  0  0  0  0  0  0  0  0  0
    3.8590    0.7710   -0.6630 C   0  0  0  0  0  0  0  0  0  0  0  0
    4.5700   -0.2210   -0.0170 C   0  0  0  0  0  0  0  0  0  0  0  0
    3.8860   -1.1600    0.7340 C   0  0  0  0  0  0  0  0  0  0  0  0
    2.5220   -1.0630    0.8030 C   0  0  0  0  0  0  0  0  0  0  0  0
    1.6820   -2.2670    1.7590 Cl  0  0  0  0  0  0  0  0  0  0  0  0
   -2.6560    1.4530   -0.1090 C   0  0  0  0  0  0  0  0  0  0  0  0
   -4.0850    1.4000    0.1270 C   0  0  0  0  0  0  0  0  0  0  0  0
   -4.7210    0.2940    0.1240 N   0  0  0  0  0  0  0  0  0  0  0  0
  1  2  2  0
  2  3  1  0
  2 18  1  0
  3  4  1  0
  4  5  1  0
  4 16  2  0
  5  6  1  0
  6  7  2  0
  6  8  1  0
  8  9  2  0
  8 14  1  0
  9 10  1  0
  9 11  1  0
 11 12  2  0
 12 13  1  0
 13 14  2  0
 14 15  1  0
 16 17  1  0
 17 18  2  0
M  END
