
     RDKit          3D

 15 14  0  0  0  0  0  0  0  0999 V2000
    4.3530    2.1170   -0.2870 C   0  0  0  0  0  0  0  0  0  0  0  0
    3.5050    1.3200   -1.2180 C   0  0  0  0  0  0  0  0  0  0  0  0
    2.8740    0.2630   -0.7420 C   0  0  0  0  0  0  0  0  0  0  0  0
    3.0230   -0.0960    0.6830 C   0  0  0  0  0  0  0  0  0  0  0  0
    3.5640   -1.3670    0.8710 O   0  0  0  0  0  0  0  0  0  0  0  0
    2.0270   -0.5290   -1.6810 C   0  0  0  0  0  0  0  0  0  0  0  0
    0.7040   -0.4860   -1.1480 O   0  0  0  0  0  0  0  0  0  0  0  0
   -0.3620   -1.1220   -1.7660 C   0  0  0  0  0  0  0  0  0  0  0  0
   -0.1610   -1.7480   -2.8150 O   0  0  0  0  0  0  0  0  0  0  0  0
   -1.6910   -1.0550   -1.1940 C   0  0  0  0  0  0  0  0  0  0  0  0
   -1.9190   -0.3950   -0.0840 C   0  0  0  0  0  0  0  0  0  0  0  0
   -3.2750   -0.3120    0.5220 C   0  0  2  0  0  0  0  0  0  0  0  0
   -4.1940   -1.3710   -0.0430 C   0  0  0  0  0  0  0  0  0  0  0  0
   -3.8610    1.0330    0.1230 C   0  0  0  0  0  0  0  0  0  0  0  0
   -3.2240   -0.4040    1.9120 O   0  0  0  0  0  0  0  0  0  0  0  0
  1  2  1  0
  2  3  2  3
  3  4  1  0
  3  6  1  0
  4  5  1  0
  6  7  1  0
  7  8  1  0
  8  9  2  0
  8 10  1  0
 10 11  2  3
 11 12  1  0
 12 13  1  6
 12 14  1  0
 12 15  1  0
M  END
