
     RDKit          3D

 15 15  0  0  0  0  0  0  0  0999 V2000
   -2.4700    1.6730    1.0540 C   0  0  0  0  0  0  0  0  0  0  0  0
   -2.9820    0.5830    0.5380 C   0  0  0  0  0  0  0  0  0  0  0  0
   -4.4460    0.2920    0.3680 C   0  0  0  0  0  0  0  0  0  0  0  0
   -4.4330   -0.6830   -0.7630 C   0  0  0  0  0  0  0  0  0  0  0  0
   -3.0830   -1.2700   -0.7050 C   0  0  0  0  0  0  0  0  0  0  0  0
   -2.2640   -0.5550    0.0300 C   0  0  0  0  0  0  0  0  0  0  0  0
   -0.8380   -0.8950    0.2740 C   0  0  0  0  0  0  0  0  0  0  0  0
   -0.3380   -1.9260   -0.2370 O   0  0  0  0  0  0  0  0  0  0  0  0
   -0.0250   -0.1150    1.0480 O   0  0  0  0  0  0  0  0  0  0  0  0
    1.3000   -0.2580    1.3820 C   0  0  0  0  0  0  0  0  0  0  0  0
    2.2940   -0.2320    0.2370 C   0  0  2  0  0  0  0  0  0  0  0  0
    2.0960   -1.2390   -0.6880 O   0  0  0  0  0  0  0  0  0  0  0  0
    3.6800   -0.2930    0.8410 C   0  0  0  0  0  0  0  0  0  0  0  0
    4.7200   -0.2020   -0.0250 O   0  0  0  0  0  0  0  0  0  0  0  0
    4.7200    0.9850   -0.7250 C   0  0  0  0  0  0  0  0  0  0  0  0
  1  2  2  0
  2  3  1  0
  2  6  1  0
  3  4  1  0
  4  5  1  0
  5  6  2  0
  6  7  1  0
  7  8  2  0
  7  9  1  0
  9 10  1  0
 10 11  1  0
 11 12  1  6
 11 13  1  0
 13 14  1  0
 14 15  1  0
M  END
