
     RDKit          3D

 36 39  0  0  0  0  0  0  0  0999 V2000
    8.5660   -1.4040   -1.2800 C   0  0  0  0  0  0  0  0  0  0  0  0
    7.0730   -1.3320   -1.2560 C   0  0  0  0  0  0  0  0  0  0  0  0
    6.4770   -1.7320    0.0730 C   0  0  0  0  0  0  0  0  0  0  0  0
    4.9950   -1.6160   -0.0440 C   0  0  0  0  0  0  0  0  0  0  0  0
    4.2180   -2.6220   -0.4480 N   0  0  0  0  0  0  0  0  0  0  0  0
    2.9130   -2.1970   -0.4470 C   0  0  0  0  0  0  0  0  0  0  0  0
    1.7810   -3.0740   -0.8830 C   0  0  0  0  0  0  0  0  0  0  0  0
    2.9040   -0.9070   -0.0310 C   0  0  0  0  0  0  0  0  0  0  0  0
    1.7980    0.0440    0.2100 C   0  0  0  0  0  0  0  0  0  0  0  0
    2.0610    1.2660    0.2710 O   0  0  0  0  0  0  0  0  0  0  0  0
    0.4880   -0.3790    0.3720 N   0  0  0  0  0  0  0  0  0  0  0  0
   -0.7080    0.3250    0.5570 C   0  0  0  0  0  0  0  0  0  0  0  0
   -1.0410    1.6700    0.3870 C   0  0  0  0  0  0  0  0  0  0  0  0
   -2.2180    2.1260    0.6950 O   0  0  0  0  0  0  0  0  0  0  0  0
   -0.2350    2.7080   -0.1250 N   0  0  0  0  0  0  0  0  0  0  0  0
   -0.7630    4.0790   -0.2040 C   0  0  1  0  0  0  0  0  0  0  0  0
    0.0980    5.0340    0.5980 C   0  0  0  0  0  0  0  0  0  0  0  0
   -0.5730    6.3590    0.6290 C   0  0  0  0  0  0  0  0  0  0  0  0
   -1.0320    6.8840   -0.6760 C   0  0  0  0  0  0  0  0  0  0  0  0
   -1.4510    5.8820   -1.6820 C   0  0  0  0  0  0  0  0  0  0  0  0
   -0.6930    4.5870   -1.6410 C   0  0  0  0  0  0  0  0  0  0  0  0
   -1.7510   -0.5490    0.7350 C   0  0  0  0  0  0  0  0  0  0  0  0
   -1.6070   -1.9600    0.7260 O   0  0  0  0  0  0  0  0  0  0  0  0
   -2.8210   -2.5600    0.9310 C   0  0  0  0  0  0  0  0  0  0  0  0
   -3.1460   -3.8630    0.9970 N   0  0  0  0  0  0  0  0  0  0  0  0
   -4.4110   -4.2490    1.2080 C   0  0  0  0  0  0  0  0  0  0  0  0
   -4.7520   -6.0010    1.2810 S   0  0  0  0  0  0  0  0  0  0  0  0
   -5.1290   -6.5990   -0.3720 C   0  0  0  0  0  0  0  0  0  0  0  0
   -5.3770   -3.3140    1.3580 N   0  0  0  0  0  0  0  0  0  0  0  0
   -6.7280   -3.7920    1.5840 C   0  0  0  0  0  0  0  0  0  0  0  0
   -5.1010   -1.9980    1.2990 C   0  0  0  0  0  0  0  0  0  0  0  0
   -5.9650   -1.1240    1.4320 O   0  0  0  0  0  0  0  0  0  0  0  0
   -3.8010   -1.6350    1.0820 C   0  0  0  0  0  0  0  0  0  0  0  0
   -3.1260   -0.3100    0.9590 C   0  0  0  0  0  0  0  0  0  0  0  0
   -3.7830    0.7310    1.0570 O   0  0  0  0  0  0  0  0  0  0  0  0
    4.2150   -0.5670    0.2130 N   0  0  0  0  0  0  0  0  0  0  0  0
  1  2  1  0
  2  3  1  0
  3  4  1  0
  4  5  2  0
  4 36  1  0
  5  6  1  0
  6  7  1  0
  6  8  2  0
  8  9  1  0
  8 36  1  0
  9 10  2  0
  9 11  1  0
 11 12  1  0
 12 13  1  0
 12 22  2  3
 13 14  2  0
 13 15  1  0
 16 15  1  6
 16 17  1  0
 16 21  1  0
 17 18  1  0
 18 19  1  0
 19 20  1  0
 20 21  1  0
 22 23  1  0
 22 34  1  0
 23 24  1  0
 24 25  1  0
 24 33  2  0
 25 26  2  0
 26 27  1  0
 26 29  1  0
 27 28  1  0
 29 30  1  0
 29 31  1  0
 31 32  2  0
 31 33  1  0
 33 34  1  0
 34 35  2  0
M  END
