
     RDKit          3D

 37 41  0  0  0  0  0  0  0  0999 V2000
   -8.4120   -2.5010    0.4730 C   0  0  0  0  0  0  0  0  0  0  0  0
   -8.1020   -1.7900   -0.8230 C   0  0  0  0  0  0  0  0  0  0  0  0
   -7.5150   -0.4490   -0.5660 C   0  0  0  0  0  0  0  0  0  0  0  0
   -8.0930    0.7520   -0.6680 N   0  0  0  0  0  0  0  0  0  0  0  0
   -7.2490    1.7090   -0.3570 N   0  0  0  0  0  0  0  0  0  0  0  0
   -6.0360    1.1720   -0.0240 C   0  0  0  0  0  0  0  0  0  0  0  0
   -4.8180    1.9230    0.3860 C   0  0  0  0  0  0  0  0  0  0  0  0
   -6.2000   -0.1880   -0.1550 C   0  0  0  0  0  0  0  0  0  0  0  0
   -5.2080   -1.2420    0.0800 C   0  0  0  0  0  0  0  0  0  0  0  0
   -3.9220   -0.7890    0.4960 N   0  0  0  0  0  0  0  0  0  0  0  0
   -2.9880   -1.8870    0.7010 C   0  0  0  0  0  0  0  0  0  0  0  0
   -1.6440   -1.3300    1.1370 C   0  0  0  0  0  0  0  0  0  0  0  0
   -1.2050   -0.4810    0.1000 O   0  0  0  0  0  0  0  0  0  0  0  0
   -0.0040    0.1650    0.2270 C   0  0  0  0  0  0  0  0  0  0  0  0
    0.7660    0.0140    1.3090 N   0  0  0  0  0  0  0  0  0  0  0  0
    1.9380    0.6590    1.4080 C   0  0  0  0  0  0  0  0  0  0  0  0
    2.6540    0.4940    2.4590 O   0  0  0  0  0  0  0  0  0  0  0  0
    2.3760    1.4800    0.4170 N   0  0  0  0  0  0  0  0  0  0  0  0
    3.8870    2.2510    0.6860 S   0  0  1  0  0  0  0  0  0  0  0  0
    4.2430    3.2950   -0.2920 O   0  0  0  0  0  0  0  0  0  0  0  0
    3.7360    2.9530    2.0460 O   0  0  0  0  0  0  0  0  0  0  0  0
    5.1350    1.0480    0.8370 C   0  0  0  0  0  0  0  0  0  0  0  0
    5.6130    0.6270    2.0350 C   0  0  0  0  0  0  0  0  0  0  0  0
    6.6010   -0.3440    2.0990 C   0  0  0  0  0  0  0  0  0  0  0  0
    7.1060   -0.8900    0.9520 C   0  0  0  0  0  0  0  0  0  0  0  0
    6.6210   -0.4630   -0.2470 C   0  0  0  0  0  0  0  0  0  0  0  0
    5.6510    0.4900   -0.3300 C   0  0  0  0  0  0  0  0  0  0  0  0
    7.3130   -1.1930   -1.3560 C   0  0  0  0  0  0  0  0  0  0  0  0
    8.2010   -2.2090   -0.6820 C   0  0  0  0  0  0  0  0  0  0  0  0
    8.1520   -1.9290    0.7920 C   0  0  0  0  0  0  0  0  0  0  0  0
    1.6330    1.6690   -0.7050 C   0  0  0  0  0  0  0  0  0  0  0  0
    0.4360    0.9970   -0.7790 C   0  0  0  0  0  0  0  0  0  0  0  0
   -0.4160    1.1680   -1.9060 N   0  0  0  0  0  0  0  0  0  0  0  0
    0.0180    2.0470   -2.9270 C   0  0  0  0  0  0  0  0  0  0  0  0
   -0.8730    2.5900   -3.6450 O   0  0  0  0  0  0  0  0  0  0  0  0
    1.4610    2.2780   -3.0960 C   0  0  0  0  0  0  0  0  0  0  0  0
    2.1700    2.5410   -1.7610 C   0  0  0  0  0  0  0  0  0  0  0  0
  1  2  1  0
  2  3  1  0
  3  4  2  0
  3  8  1  0
  4  5  1  0
  5  6  1  0
  6  7  1  0
  6  8  2  0
  8  9  1  0
  9 10  1  0
 10 11  1  0
 11 12  1  0
 12 13  1  0
 13 14  1  0
 14 15  2  0
 14 32  1  0
 15 16  1  0
 16 17  2  0
 16 18  1  0
 19 18  1  6
 18 31  1  0
 19 20  2  0
 19 21  2  0
 19 22  1  0
 22 23  2  0
 22 27  1  0
 23 24  1  0
 24 25  2  0
 25 26  1  0
 25 30  1  0
 26 27  2  0
 26 28  1  0
 28 29  1  0
 29 30  1  0
 31 32  2  0
 31 37  1  0
 32 33  1  0
 33 34  1  0
 34 35  2  0
 34 36  1  0
 36 37  1  0
M  END
