
     RDKit          3D

 37 41  0  0  0  0  0  0  0  0999 V2000
   -0.8520   -0.5020   -0.8510 O   0  0  0  0  0  0  0  0  0  0  0  0
   -1.0980   -0.0360   -1.9900 C   0  0  0  0  0  0  0  0  0  0  0  0
   -2.4990   -0.1370   -2.3590 N   0  0  0  0  0  0  0  0  0  0  0  0
   -3.4330   -0.7210   -1.4590 C   0  0  0  0  0  0  0  0  0  0  0  0
   -4.7400   -0.8610   -1.7040 N   0  0  0  0  0  0  0  0  0  0  0  0
   -5.3170   -1.4520   -0.6380 C   0  0  0  0  0  0  0  0  0  0  0  0
   -6.7490   -1.8060   -0.4730 C   0  0  0  0  0  0  0  0  0  0  0  0
   -7.4270   -0.6980   -0.0020 O   0  0  0  0  0  0  0  0  0  0  0  0
   -6.9030   -0.3300    1.2230 C   0  0  1  0  0  0  0  0  0  0  0  0
   -6.4050    1.1120    1.1950 C   0  0  0  0  0  0  0  0  0  0  0  0
   -7.5650    2.0740    1.4390 C   0  0  0  0  0  0  0  0  0  0  0  0
   -8.7510    1.4750    0.8700 N   0  0  0  0  0  0  0  0  0  0  0  0
   -9.2150    0.3500    1.6290 C   0  0  0  0  0  0  0  0  0  0  0  0
   -8.0540   -0.4260    2.2230 C   0  0  0  0  0  0  0  0  0  0  0  0
   -4.3030   -1.6450    0.2190 N   0  0  0  0  0  0  0  0  0  0  0  0
   -3.1920   -1.2080   -0.2780 O   0  0  0  0  0  0  0  0  0  0  0  0
   -0.1550    0.5540   -2.9000 C   0  0  0  0  0  0  0  0  0  0  0  0
   -0.6230    0.9480   -4.0270 O   0  0  0  0  0  0  0  0  0  0  0  0
    1.1970    0.7280   -2.6690 N   0  0  0  0  0  0  0  0  0  0  0  0
    2.0210    1.3260   -3.7480 C   0  0  0  0  0  0  0  0  0  0  0  0
    3.1990    0.4770   -4.0920 C   0  0  0  0  0  0  0  0  0  0  0  0
    3.2840   -1.1040   -3.2620 S   0  0  0  0  0  0  0  0  0  0  0  0
    2.6430   -0.9090   -1.5760 C   0  0  1  0  0  0  0  0  0  0  0  0
    3.7560   -0.8800   -0.5580 C   0  0  0  0  0  0  0  0  0  0  0  0
    3.8090   -1.7310    0.3570 O   0  0  0  0  0  0  0  0  0  0  0  0
    4.7370    0.1200   -0.6480 N   0  0  0  0  0  0  0  0  0  0  0  0
    5.8510    0.3180    0.1970 C   0  0  0  0  0  0  0  0  0  0  0  0
    6.7010    1.4050   -0.0150 C   0  0  0  0  0  0  0  0  0  0  0  0
    7.7870    1.6140    0.7890 C   0  0  0  0  0  0  0  0  0  0  0  0
    8.0860    0.7650    1.8370 C   0  0  0  0  0  0  0  0  0  0  0  0
    9.1840    0.9640    2.6610 C   0  0  0  0  0  0  0  0  0  0  0  0
    9.4580    0.0950    3.7030 C   0  0  0  0  0  0  0  0  0  0  0  0
    8.6500   -0.9920    3.9530 C   0  0  0  0  0  0  0  0  0  0  0  0
    7.5650   -1.1690    3.1200 C   0  0  0  0  0  0  0  0  0  0  0  0
    7.2770   -0.3170    2.0820 C   0  0  0  0  0  0  0  0  0  0  0  0
    6.1720   -0.5040    1.2400 C   0  0  0  0  0  0  0  0  0  0  0  0
    1.8350    0.3630   -1.4540 C   0  0  0  0  0  0  0  0  0  0  0  0
  1  2  2  0
  2  3  1  0
  2 17  1  0
  3  4  1  0
  4  5  2  0
  4 16  1  0
  5  6  1  0
  6  7  1  0
  6 15  2  0
  7  8  1  0
  9  8  1  6
  9 10  1  0
  9 14  1  0
 10 11  1  0
 11 12  1  0
 12 13  1  0
 13 14  1  0
 15 16  1  0
 17 18  2  0
 17 19  1  0
 19 20  1  0
 19 37  1  0
 20 21  1  0
 21 22  1  0
 22 23  1  0
 23 24  1  1
 23 37  1  0
 24 25  2  0
 24 26  1  0
 26 27  1  0
 27 28  2  0
 27 36  1  0
 28 29  1  0
 29 30  2  0
 30 31  1  0
 30 35  1  0
 31 32  2  0
 32 33  1  0
 33 34  2  0
 34 35  1  0
 35 36  2  0
M  END
