
     RDKit          3D

 37 41  0  0  0  0  0  0  0  0999 V2000
    9.6870   -2.9250    2.7570 C   0  0  0  0  0  0  0  0  0  0  0  0
    8.9110   -2.1890    1.9900 C   0  0  0  0  0  0  0  0  0  0  0  0
    7.1010   -2.1370    2.2320 S   0  0  0  0  0  0  0  0  0  0  0  0
    6.8210   -0.9290    0.8070 C   0  0  0  0  0  0  0  0  0  0  0  0
    5.4920   -0.5540    0.5700 N   0  0  0  0  0  0  0  0  0  0  0  0
    4.8700    0.2820   -0.3270 C   0  0  0  0  0  0  0  0  0  0  0  0
    5.5360    0.8890   -1.1500 O   0  0  0  0  0  0  0  0  0  0  0  0
    3.3940    0.4960   -0.3560 C   0  0  0  0  0  0  0  0  0  0  0  0
    2.6710   -0.1040    0.4660 O   0  0  0  0  0  0  0  0  0  0  0  0
    2.7920    1.3560   -1.2850 N   0  0  0  0  0  0  0  0  0  0  0  0
    1.4180    1.6470   -1.4280 C   0  0  0  0  0  0  0  0  0  0  0  0
    0.3840    1.1580   -0.6990 C   0  0  0  0  0  0  0  0  0  0  0  0
   -0.9480    1.5350   -0.9570 C   0  0  0  0  0  0  0  0  0  0  0  0
   -2.0080    0.9400   -0.1220 C   0  0  0  0  0  0  0  0  0  0  0  0
   -3.2780    1.6390   -0.1980 N   0  0  0  0  0  0  0  0  0  0  0  0
   -3.1050    2.9840    0.3280 C   0  0  0  0  0  0  0  0  0  0  0  0
   -4.3380    3.8040    0.1580 C   0  0  0  0  0  0  0  0  0  0  0  0
   -5.5500    3.1200    0.7700 C   0  0  0  0  0  0  0  0  0  0  0  0
   -5.5920    1.6710    0.4550 C   0  0  0  0  0  0  0  0  0  0  0  0
   -4.2440    0.9490    0.6100 C   0  0  1  0  0  0  0  0  0  0  0  0
   -4.5230   -0.4450    0.1600 C   0  0  0  0  0  0  0  0  0  0  0  0
   -4.1360   -0.8650   -0.9490 O   0  0  0  0  0  0  0  0  0  0  0  0
   -5.2450   -1.3650    0.9730 N   0  0  0  0  0  0  0  0  0  0  0  0
   -5.4890   -2.6870    0.5060 C   0  0  0  0  0  0  0  0  0  0  0  0
   -5.1290   -3.8490    1.0250 C   0  0  0  0  0  0  0  0  0  0  0  0
   -5.6090   -4.9390    0.1890 C   0  0  0  0  0  0  0  0  0  0  0  0
   -6.2690   -4.4590   -0.8540 C   0  0  0  0  0  0  0  0  0  0  0  0
   -6.2440   -2.9920   -0.7320 C   0  0  0  0  0  0  0  0  0  0  0  0
   -1.1580    2.4040   -1.9580 N   0  0  0  0  0  0  0  0  0  0  0  0
   -0.1560    2.9080   -2.7000 C   0  0  0  0  0  0  0  0  0  0  0  0
    1.0760    2.5250   -2.4210 N   0  0  0  0  0  0  0  0  0  0  0  0
    8.0660   -0.7310    0.3570 C   0  0  0  0  0  0  0  0  0  0  0  0
    9.1030   -1.3480    0.9330 C   0  0  0  0  0  0  0  0  0  0  0  0
   10.2830   -1.0040    0.3150 C   0  0  0  0  0  0  0  0  0  0  0  0
   10.0450   -0.1270   -0.7130 O   0  0  0  0  0  0  0  0  0  0  0  0
    8.6740    0.0810   -0.7350 C   0  0  0  0  0  0  0  0  0  0  0  0
    8.1560    0.8400   -1.5720 O   0  0  0  0  0  0  0  0  0  0  0  0
  1  2  2  0
  2  3  1  0
  2 33  1  0
  3  4  1  0
  4  5  1  0
  4 32  2  0
  5  6  1  0
  6  7  2  0
  6  8  1  0
  8  9  2  0
  8 10  1  0
 10 11  1  0
 11 12  2  0
 11 31  1  0
 12 13  1  0
 13 14  1  0
 13 29  2  0
 14 15  1  0
 15 16  1  0
 15 20  1  0
 16 17  1  0
 17 18  1  0
 18 19  1  0
 19 20  1  0
 20 21  1  6
 21 22  2  0
 21 23  1  0
 23 24  1  0
 24 25  2  0
 24 28  1  0
 25 26  1  0
 26 27  2  0
 27 28  1  0
 29 30  1  0
 30 31  2  0
 32 33  1  0
 32 36  1  0
 33 34  2  0
 34 35  1  0
 35 36  1  0
 36 37  2  0
M  END
