
     RDKit          3D

 29 32  0  0  0  0  0  0  0  0999 V2000
    0.4770    4.1230   -0.2000 C   0  0  0  0  0  0  0  0  0  0  0  0
    0.1270    3.0050    0.3990 C   0  0  0  0  0  0  0  0  0  0  0  0
   -0.4860    1.9120   -0.4100 C   0  0  0  0  0  0  0  0  0  0  0  0
    0.3560    0.6540   -0.3640 C   0  0  2  0  0  0  0  0  0  0  0  0
   -0.3560   -0.4020   -1.2230 C   0  0  0  0  0  0  0  0  0  0  0  0
   -1.7180   -0.7070   -0.7800 C   0  0  0  0  0  0  0  0  0  0  0  0
   -1.8630   -1.6810    0.2150 C   0  0  0  0  0  0  0  0  0  0  0  0
   -3.0720   -2.0150    0.7690 C   0  0  0  0  0  0  0  0  0  0  0  0
   -3.1790   -3.0320    1.8040 C   0  0  0  0  0  0  0  0  0  0  0  0
   -2.1510   -3.6320    2.2110 O   0  0  0  0  0  0  0  0  0  0  0  0
   -4.3930   -3.3760    2.3730 O   0  0  0  0  0  0  0  0  0  0  0  0
   -4.2210   -1.3700    0.3390 C   0  0  0  0  0  0  0  0  0  0  0  0
   -4.1060   -0.4170   -0.6330 C   0  0  0  0  0  0  0  0  0  0  0  0
   -2.8610   -0.0830   -1.1950 C   0  0  0  0  0  0  0  0  0  0  0  0
   -2.8390    0.8920   -2.2940 C   0  0  0  0  0  0  0  0  0  0  0  0
    0.4190    0.0680    0.9930 C   0  0  0  0  0  0  0  0  0  0  0  0
   -0.5420    0.3020    1.9570 C   0  0  0  0  0  0  0  0  0  0  0  0
   -0.5490   -0.3740    3.1640 C   0  0  0  0  0  0  0  0  0  0  0  0
    0.4080   -1.3180    3.4650 C   0  0  0  0  0  0  0  0  0  0  0  0
    1.3650   -1.5450    2.5040 C   0  0  0  0  0  0  0  0  0  0  0  0
    1.3800   -0.8640    1.2820 C   0  0  0  0  0  0  0  0  0  0  0  0
    2.5690   -1.0620    0.4230 C   0  0  0  0  0  0  0  0  0  0  0  0
    3.5690   -1.9150    0.4940 C   0  0  0  0  0  0  0  0  0  0  0  0
    4.4600   -1.6450   -0.6610 C   0  0  0  0  0  0  0  0  0  0  0  0
    3.7930   -0.5400   -1.3820 C   0  0  0  0  0  0  0  0  0  0  0  0
    2.6710   -0.1880   -0.7300 C   0  0  0  0  0  0  0  0  0  0  0  0
    1.7120    0.9120   -0.9050 C   0  0  1  0  0  0  0  0  0  0  0  0
    1.7460    1.3920   -2.3390 C   0  0  0  0  0  0  0  0  0  0  0  0
    2.2240    2.0000   -0.1380 O   0  0  0  0  0  0  0  0  0  0  0  0
  1  2  2  0
  2  3  1  0
  4  3  1  1
  4  5  1  0
  4 16  1  0
  4 27  1  0
  5  6  1  0
  6  7  2  0
  6 14  1  0
  7  8  1  0
  8  9  1  0
  8 12  2  0
  9 10  2  0
  9 11  1  0
 12 13  1  0
 13 14  2  0
 14 15  1  0
 16 17  2  0
 16 21  1  0
 17 18  1  0
 18 19  2  0
 19 20  1  0
 20 21  2  0
 21 22  1  0
 22 23  2  0
 22 26  1  0
 23 24  1  0
 24 25  1  0
 25 26  2  0
 26 27  1  0
 27 28  1  6
 27 29  1  0
M  CHG  1  11  -1
M  END
