
     RDKit          3D

 29 31  0  0  0  0  0  0  0  0999 V2000
    4.2270    3.2520   -2.3150 C   0  0  0  0  0  0  0  0  0  0  0  0
    3.6890    2.1310   -1.8110 C   0  0  0  0  0  0  0  0  0  0  0  0
    4.5650    1.2000   -1.1430 C   0  0  0  0  0  0  0  0  0  0  0  0
    4.3000    0.0150   -0.5540 C   0  0  0  0  0  0  0  0  0  0  0  0
    3.0130   -0.6310   -0.4400 C   0  0  0  0  0  0  0  0  0  0  0  0
    2.9510   -1.7530    0.1870 O   0  0  0  0  0  0  0  0  0  0  0  0
    1.7230   -0.1520   -0.9660 C   0  0  0  0  0  0  0  0  0  0  0  0
    0.3840   -1.3470   -0.6100 S   0  0  0  0  0  0  0  0  0  0  0  0
    0.0310   -1.5180    1.1290 C   0  0  0  0  0  0  0  0  0  0  0  0
   -0.5420   -0.3160    1.7970 C   0  0  1  0  0  0  0  0  0  0  0  0
    0.3050    0.8850    1.7650 C   0  0  0  0  0  0  0  0  0  0  0  0
    1.5110    0.9700    2.1740 O   0  0  0  0  0  0  0  0  0  0  0  0
   -0.4650    1.9330    1.1950 N   0  0  0  0  0  0  0  0  0  0  0  0
   -1.7740    1.4230    0.8780 C   0  0  0  0  0  0  0  0  0  0  0  0
   -2.8640    2.0630    0.3140 C   0  0  0  0  0  0  0  0  0  0  0  0
   -4.0290    1.3630    0.1040 C   0  0  0  0  0  0  0  0  0  0  0  0
   -4.1330    0.0340    0.4450 C   0  0  0  0  0  0  0  0  0  0  0  0
   -5.2750   -0.6960    0.2520 O   0  0  0  0  0  0  0  0  0  0  0  0
   -6.4860   -0.2910   -0.2870 C   0  0  2  0  0  0  0  0  0  0  0  0
   -7.5900   -0.4960    0.7540 C   0  0  0  0  0  0  0  0  0  0  0  0
   -6.8940   -1.0930   -1.5060 C   0  0  0  0  0  0  0  0  0  0  0  0
   -3.0280   -0.5720    1.0040 C   0  0  0  0  0  0  0  0  0  0  0  0
   -1.8450    0.0970    1.2290 C   0  0  0  0  0  0  0  0  0  0  0  0
    5.5710   -0.5370   -0.0830 C   0  0  0  0  0  0  0  0  0  0  0  0
    5.9910   -1.7510    0.0210 C   0  0  0  0  0  0  0  0  0  0  0  0
    5.3500   -3.0200   -0.3020 C   0  0  0  0  0  0  0  0  0  0  0  0
    7.6600   -1.8910    0.6990 Cl  0  0  0  0  0  0  0  0  0  0  0  0
    6.3670    0.7430    0.1880 C   0  0  0  0  0  0  0  0  0  0  0  0
    5.9570    1.4490   -1.0060 O   0  0  0  0  0  0  0  0  0  0  0  0
  1  2  2  0
  2  3  1  0
  3  4  2  0
  3 29  1  0
  4  5  1  0
  4 24  1  0
  5  6  2  0
  5  7  1  0
  7  8  1  0
  8  9  1  0
 10  9  1  6
 10 11  1  0
 10 23  1  0
 11 12  2  0
 11 13  1  0
 13 14  1  0
 14 15  2  0
 14 23  1  0
 15 16  1  0
 16 17  2  0
 17 18  1  0
 17 22  1  0
 18 19  1  0
 19 20  1  1
 19 21  1  0
 22 23  2  0
 24 25  2  3
 24 28  1  0
 25 26  1  0
 25 27  1  0
 28 29  1  0
M  END
