
     RDKit          3D

 30 34  0  0  0  0  0  0  0  0999 V2000
   -5.0710   -3.1540    1.4810 C   0  0  0  0  0  0  0  0  0  0  0  0
   -3.8140   -3.8380    1.0940 C   0  0  0  0  0  0  0  0  0  0  0  0
   -2.7930   -2.9410    0.5020 C   0  0  0  0  0  0  0  0  0  0  0  0
   -1.5600   -3.3160    0.0450 N   0  0  0  0  0  0  0  0  0  0  0  0
   -0.9120   -2.2350   -0.4230 C   0  0  0  0  0  0  0  0  0  0  0  0
    0.3260   -2.0570   -0.9660 N   0  0  0  0  0  0  0  0  0  0  0  0
    0.7790   -0.8590   -1.3600 C   0  0  0  0  0  0  0  0  0  0  0  0
    2.4090   -0.6380   -2.0730 S   0  0  0  0  0  0  0  0  0  0  0  0
    3.6220   -0.3080   -0.8110 C   0  0  0  0  0  0  0  0  0  0  0  0
    3.3160   -0.2390    0.5130 C   0  0  0  0  0  0  0  0  0  0  0  0
    4.2810    0.0150    1.4130 N   0  0  0  0  0  0  0  0  0  0  0  0
    5.5710    0.2110    1.0850 C   0  0  0  0  0  0  0  0  0  0  0  0
    6.5260    0.4660    2.0180 N   0  0  0  0  0  0  0  0  0  0  0  0
    7.8110    0.6600    1.6700 C   0  0  0  0  0  0  0  0  0  0  0  0
    8.1600    0.5980    0.3380 C   0  0  0  0  0  0  0  0  0  0  0  0
    9.3690    0.7810    0.0080 O   0  0  0  0  0  0  0  0  0  0  0  0
    7.1980    0.3430   -0.5860 N   0  0  0  0  0  0  0  0  0  0  0  0
    5.9110    0.1470   -0.2560 C   0  0  0  0  0  0  0  0  0  0  0  0
    4.9310   -0.1130   -1.1990 C   0  0  0  0  0  0  0  0  0  0  0  0
   -0.0180    0.2060   -1.2140 N   0  0  0  0  0  0  0  0  0  0  0  0
   -1.2800    0.1270   -0.6790 C   0  0  0  0  0  0  0  0  0  0  0  0
   -2.0810    1.2890   -0.5950 N   0  0  0  0  0  0  0  0  0  0  0  0
   -3.1540    1.6290   -1.4790 C   0  0  0  0  0  0  0  0  0  0  0  0
   -3.9370    2.6860   -0.7590 C   0  0  0  0  0  0  0  0  0  0  0  0
   -2.8680    3.4300    0.0150 C   0  0  1  0  0  0  0  0  0  0  0  0
   -3.3990    4.1290    1.1590 N   0  0  0  0  0  0  0  0  0  0  0  0
   -1.9220    2.3120    0.4030 C   0  0  0  0  0  0  0  0  0  0  0  0
   -1.7100   -1.1130   -0.2850 C   0  0  0  0  0  0  0  0  0  0  0  0
   -2.8680   -1.5850    0.2920 C   0  0  0  0  0  0  0  0  0  0  0  0
   -4.2500   -0.6080    0.7340 Cl  0  0  0  0  0  0  0  0  0  0  0  0
  1  2  1  0
  2  3  1  0
  3  4  1  0
  3 29  2  0
  4  5  1  0
  5  6  2  0
  5 28  1  0
  6  7  1  0
  7  8  1  0
  7 20  2  0
  8  9  1  0
  9 10  2  0
  9 19  1  0
 10 11  1  0
 11 12  2  0
 12 13  1  0
 12 18  1  0
 13 14  2  0
 14 15  1  0
 15 16  2  0
 15 17  1  0
 17 18  1  0
 18 19  2  0
 20 21  1  0
 21 22  1  0
 21 28  2  0
 22 23  1  0
 22 27  1  0
 23 24  1  0
 24 25  1  0
 25 26  1  1
 25 27  1  0
 28 29  1  0
 29 30  1  0
M  END
