
     RDKit          3D

 29 32  0  0  0  0  0  0  0  0999 V2000
   -6.3990   -1.7590   -2.2240 C   0  0  0  0  0  0  0  0  0  0  0  0
   -6.2170   -0.9600   -0.9700 C   0  0  0  0  0  0  0  0  0  0  0  0
   -7.0980   -1.1050    0.0670 C   0  0  0  0  0  0  0  0  0  0  0  0
   -6.9740   -0.3890    1.2470 C   0  0  0  0  0  0  0  0  0  0  0  0
   -5.9200    0.4850    1.3430 C   0  0  0  0  0  0  0  0  0  0  0  0
   -5.0050    0.6620    0.3160 C   0  0  0  0  0  0  0  0  0  0  0  0
   -3.9750    1.6220    0.5110 C   0  0  0  0  0  0  0  0  0  0  0  0
   -2.6960    1.3740    0.3920 C   0  0  0  0  0  0  0  0  0  0  0  0
   -2.1970    0.0260    0.0350 C   0  0  0  0  0  0  0  0  0  0  0  0
   -0.8960   -0.1730    0.8830 C   0  0  0  0  0  0  0  0  0  0  0  0
    0.0640    0.7550    0.2120 C   0  0  0  0  0  0  0  0  0  0  0  0
    1.3550    0.3470   -0.2930 C   0  0  0  0  0  0  0  0  0  0  0  0
    1.7850   -0.9740   -0.1430 C   0  0  0  0  0  0  0  0  0  0  0  0
    3.0270   -1.3730   -0.6330 C   0  0  0  0  0  0  0  0  0  0  0  0
    3.8580   -0.4860   -1.2730 C   0  0  0  0  0  0  0  0  0  0  0  0
    5.0910   -0.9200   -1.7490 O   0  0  0  0  0  0  0  0  0  0  0  0
    6.2250   -0.8660   -0.9540 C   0  0  0  0  0  0  0  0  0  0  0  0
    7.4170   -1.3130   -1.4840 C   0  0  0  0  0  0  0  0  0  0  0  0
    8.6010   -1.3010   -0.7760 C   0  0  0  0  0  0  0  0  0  0  0  0
    8.5110   -0.8010    0.5250 C   0  0  0  0  0  0  0  0  0  0  0  0
    7.3290   -0.3500    1.0680 C   0  0  0  0  0  0  0  0  0  0  0  0
    6.1760   -0.3780    0.3370 C   0  0  0  0  0  0  0  0  0  0  0  0
    3.4390    0.8100   -1.4220 C   0  0  0  0  0  0  0  0  0  0  0  0
    2.2000    1.2030   -0.9310 C   0  0  0  0  0  0  0  0  0  0  0  0
   -0.3590    2.0050    0.1110 C   0  0  0  0  0  0  0  0  0  0  0  0
   -1.6720    2.4190    0.6280 C   0  0  2  0  0  0  0  0  0  0  0  0
   -1.5280    2.6650    2.0050 O   0  0  0  0  0  0  0  0  0  0  0  0
   -5.1640   -0.0600   -0.8250 C   0  0  0  0  0  0  0  0  0  0  0  0
   -4.3170    0.0430   -1.9060 O   0  0  0  0  0  0  0  0  0  0  0  0
  1  2  1  0
  2  3  2  0
  2 28  1  0
  3  4  1  0
  4  5  2  0
  5  6  1  0
  6  7  1  0
  6 28  2  0
  7  8  2  3
  8  9  1  0
  8 26  1  0
  9 10  1  0
 10 11  1  0
 11 12  1  0
 11 25  2  0
 12 13  2  0
 12 24  1  0
 13 14  1  0
 14 15  2  0
 15 16  1  0
 15 23  1  0
 16 17  1  0
 17 18  2  0
 17 22  1  0
 18 19  1  0
 19 20  2  0
 20 21  1  0
 21 22  2  0
 23 24  2  0
 25 26  1  0
 26 27  1  1
 28 29  1  0
M  CHG  1  29  -1
M  END
