
     RDKit          3D

 29 31  0  0  0  0  0  0  0  0999 V2000
    6.3750   -2.6610    1.2090 C   0  0  0  0  0  0  0  0  0  0  0  0
    6.2420   -3.5740    0.2750 C   0  0  0  0  0  0  0  0  0  0  0  0
    7.5750   -4.6540   -0.0550 Cl  0  0  0  0  0  0  0  0  0  0  0  0
    4.9880   -3.6600   -0.4620 C   0  0  0  0  0  0  0  0  0  0  0  0
    4.8820   -4.5900   -1.3950 C   0  0  0  0  0  0  0  0  0  0  0  0
    3.8430   -2.7680   -0.2160 C   0  0  0  0  0  0  0  0  0  0  0  0
    4.3770   -1.0620   -0.5310 S   0  0  0  0  0  0  0  0  0  0  0  0
    3.0150    0.0540   -0.2430 C   0  0  0  0  0  0  0  0  0  0  0  0
    1.7870   -0.4320    0.1560 C   0  0  0  0  0  0  0  0  0  0  0  0
    0.6870    0.3900    0.3950 C   0  0  0  0  0  0  0  0  0  0  0  0
   -0.5750   -0.2210    0.8170 C   0  0  0  0  0  0  0  0  0  0  0  0
   -0.6070   -1.4740    0.9360 O   0  0  0  0  0  0  0  0  0  0  0  0
   -1.7590    0.4690    1.1020 N   0  0  0  0  0  0  0  0  0  0  0  0
   -3.0340   -0.0200    1.4930 C   0  0  0  0  0  0  0  0  0  0  0  0
   -3.8450   -0.8240    0.5730 C   0  0  2  0  0  0  0  0  0  0  0  0
   -3.4510   -2.2170    0.3060 C   0  0  0  0  0  0  0  0  0  0  0  0
   -4.5750   -2.9190   -0.4970 C   0  0  0  0  0  0  0  0  0  0  0  0
   -4.9770   -2.0340   -1.6560 C   0  0  0  0  0  0  0  0  0  0  0  0
   -5.3390   -0.6820   -1.1010 C   0  0  0  0  0  0  0  0  0  0  0  0
   -4.1370   -0.1150   -0.6020 O   0  0  0  0  0  0  0  0  0  0  0  0
    0.8830    1.7320    0.2120 C   0  0  0  0  0  0  0  0  0  0  0  0
    0.0970    2.7440    0.3430 O   0  0  0  0  0  0  0  0  0  0  0  0
    0.6440    3.8920    0.0780 C   0  0  0  0  0  0  0  0  0  0  0  0
    0.0740    5.2500    0.1140 C   0  0  0  0  0  0  0  0  0  0  0  0
   -1.2580    5.2430    0.4970 O   0  0  0  0  0  0  0  0  0  0  0  0
   -1.6960    6.5780    0.4970 C   0  0  0  0  0  0  0  0  0  0  0  0
    1.9450    3.6060   -0.2700 C   0  0  0  0  0  0  0  0  0  0  0  0
    2.1260    2.2330   -0.1930 C   0  0  0  0  0  0  0  0  0  0  0  0
    3.2010    1.4060   -0.4250 C   0  0  0  0  0  0  0  0  0  0  0  0
  1  2  2  0
  2  3  1  0
  2  4  1  0
  4  5  2  0
  4  6  1  0
  6  7  1  0
  7  8  1  0
  8  9  2  0
  8 29  1  0
  9 10  1  0
 10 11  1  0
 10 21  2  0
 11 12  2  0
 11 13  1  0
 13 14  1  0
 15 14  1  6
 15 16  1  0
 15 20  1  0
 16 17  1  0
 17 18  1  0
 18 19  1  0
 19 20  1  0
 21 22  1  0
 21 28  1  0
 22 23  1  0
 23 24  1  0
 23 27  2  0
 24 25  1  0
 25 26  1  0
 27 28  1  0
 28 29  2  0
M  END
