
     RDKit          3D

 29 31  0  0  0  0  0  0  0  0999 V2000
   -3.0440    1.0120   -3.4220 C   0  0  0  0  0  0  0  0  0  0  0  0
   -1.7760    0.6570   -2.9020 O   0  0  0  0  0  0  0  0  0  0  0  0
   -1.6130   -0.2290   -1.8560 C   0  0  0  0  0  0  0  0  0  0  0  0
   -2.6890   -0.8410   -1.2350 C   0  0  0  0  0  0  0  0  0  0  0  0
   -2.5190   -1.7250   -0.1910 C   0  0  0  0  0  0  0  0  0  0  0  0
   -3.9410   -2.4880    0.5760 S   0  0  0  0  0  0  0  0  0  0  0  0
   -4.5730   -1.5260    1.9480 C   0  0  0  0  0  0  0  0  0  0  0  0
   -5.1190   -0.2320    1.4540 C   0  0  0  0  0  0  0  0  0  0  0  0
   -4.7190    0.9790    1.7910 C   0  0  0  0  0  0  0  0  0  0  0  0
   -3.4340    1.3400    2.9130 Cl  0  0  0  0  0  0  0  0  0  0  0  0
   -5.5340    1.9740    1.0650 C   0  0  0  0  0  0  0  0  0  0  0  0
   -6.4530    1.1330    0.2690 C   0  0  0  0  0  0  0  0  0  0  0  0
   -6.2130   -0.1410    0.4940 C   0  0  0  0  0  0  0  0  0  0  0  0
   -1.2330   -1.9890    0.2240 C   0  0  0  0  0  0  0  0  0  0  0  0
   -0.1420   -1.3720   -0.4020 C   0  0  0  0  0  0  0  0  0  0  0  0
   -0.3020   -0.4880   -1.4440 C   0  0  0  0  0  0  0  0  0  0  0  0
    0.7440    0.1450   -2.0890 O   0  0  0  0  0  0  0  0  0  0  0  0
    2.1050   -0.0080   -1.7580 C   0  0  0  0  0  0  0  0  0  0  0  0
    2.2900    0.4930   -0.3590 C   0  0  0  0  0  0  0  0  0  0  0  0
    1.3430    1.0030    0.2980 O   0  0  0  0  0  0  0  0  0  0  0  0
    3.5910    0.3940    0.2680 C   0  0  0  0  0  0  0  0  0  0  0  0
    4.7200   -0.1340   -0.3100 C   0  0  0  0  0  0  0  0  0  0  0  0
    5.7130   -0.0250    0.6370 C   0  0  0  0  0  0  0  0  0  0  0  0
    7.0890   -0.4810    0.4090 C   0  0  0  0  0  0  0  0  0  0  0  0
    7.5060   -1.0980   -0.8740 C   0  0  0  0  0  0  0  0  0  0  0  0
    7.9160   -0.3320    1.3430 O   0  0  0  0  0  0  0  0  0  0  0  0
    5.2110    0.5460    1.7490 N   0  0  0  0  0  0  0  0  0  0  0  0
    3.9130    0.8100    1.5420 C   0  0  0  0  0  0  0  0  0  0  0  0
    2.9440    1.4420    2.4900 C   0  0  0  0  0  0  0  0  0  0  0  0
  1  2  1  0
  2  3  1  0
  3  4  2  0
  3 16  1  0
  4  5  1  0
  5  6  1  0
  5 14  2  0
  6  7  1  0
  7  8  1  0
  8  9  2  0
  8 13  1  0
  9 10  1  0
  9 11  1  0
 11 12  1  0
 12 13  2  0
 14 15  1  0
 15 16  2  0
 16 17  1  0
 17 18  1  0
 18 19  1  0
 19 20  2  0
 19 21  1  0
 21 22  1  0
 21 28  2  0
 22 23  2  0
 23 24  1  0
 23 27  1  0
 24 25  1  0
 24 26  2  0
 27 28  1  0
 28 29  1  0
M  END
