
     RDKit          3D

 29 31  0  0  0  0  0  0  0  0999 V2000
    4.9410   -1.2560   -1.9740 C   0  0  0  0  0  0  0  0  0  0  0  0
    5.6700   -2.2280   -1.1130 C   0  0  0  0  0  0  0  0  0  0  0  0
    5.8800   -1.7650    0.2830 C   0  0  0  0  0  0  0  0  0  0  0  0
    4.3510   -1.4210    1.1100 S   0  0  0  0  0  0  0  0  0  0  0  0
    3.5630    0.1080    0.6700 C   0  0  0  0  0  0  0  0  0  0  0  0
    4.1770    1.1320   -0.0240 C   0  0  0  0  0  0  0  0  0  0  0  0
    3.4720    2.2750   -0.3510 C   0  0  0  0  0  0  0  0  0  0  0  0
    2.1420    2.4150    0.0100 C   0  0  0  0  0  0  0  0  0  0  0  0
    1.4500    3.5800   -0.3320 O   0  0  0  0  0  0  0  0  0  0  0  0
    2.0670    4.6320   -1.0400 C   0  0  0  0  0  0  0  0  0  0  0  0
    1.5030    1.4080    0.7050 C   0  0  0  0  0  0  0  0  0  0  0  0
    0.1820    1.5910    1.0420 O   0  0  0  0  0  0  0  0  0  0  0  0
   -0.6520    0.7240    1.7340 C   0  0  1  0  0  0  0  0  0  0  0  0
   -1.1370    1.4720    2.9790 C   0  0  0  0  0  0  0  0  0  0  0  0
   -1.8160    0.3650    0.8830 C   0  0  0  0  0  0  0  0  0  0  0  0
   -1.9210    0.8400   -0.2760 O   0  0  0  0  0  0  0  0  0  0  0  0
   -2.8460   -0.5070    1.3130 N   0  0  0  0  0  0  0  0  0  0  0  0
   -3.9680   -0.8690    0.5210 C   0  0  0  0  0  0  0  0  0  0  0  0
   -3.9750   -1.9570   -0.3190 C   0  0  0  0  0  0  0  0  0  0  0  0
   -2.7380   -2.7770   -0.3820 C   0  0  0  0  0  0  0  0  0  0  0  0
   -5.0640   -2.3300   -1.1020 C   0  0  0  0  0  0  0  0  0  0  0  0
   -6.2020   -1.5670   -1.0360 C   0  0  0  0  0  0  0  0  0  0  0  0
   -6.2240   -0.4640   -0.2000 C   0  0  0  0  0  0  0  0  0  0  0  0
   -7.7090    0.4930   -0.1440 Cl  0  0  0  0  0  0  0  0  0  0  0  0
   -5.1300   -0.1130    0.5700 C   0  0  0  0  0  0  0  0  0  0  0  0
   -5.2370    1.0630    1.4250 C   0  0  0  0  0  0  0  0  0  0  0  0
   -4.2740    1.4350    2.1520 O   0  0  0  0  0  0  0  0  0  0  0  0
   -6.2200   -2.7380   -1.9430 C   0  0  0  0  0  0  0  0  0  0  0  0
    2.2300    0.2870    1.0130 C   0  0  0  0  0  0  0  0  0  0  0  0
  1  2  1  0
  2  3  1  0
  3  4  1  0
  4  5  1  0
  5  6  2  0
  5 29  1  0
  6  7  1  0
  7  8  2  0
  8  9  1  0
  8 11  1  0
  9 10  1  0
 11 12  1  0
 11 29  2  0
 12 13  1  0
 13 14  1  1
 13 15  1  0
 15 16  2  0
 15 17  1  0
 17 18  1  0
 18 19  2  0
 18 25  1  0
 19 20  1  0
 19 21  1  0
 21 22  2  0
 21 28  1  0
 22 23  1  0
 22 28  1  0
 23 24  1  0
 23 25  2  0
 25 26  1  0
 26 27  2  0
M  END
