
     RDKit          3D

 29 32  0  0  0  0  0  0  0  0999 V2000
    4.5260    1.3400   -2.0840 C   0  0  0  0  0  0  0  0  0  0  0  0
    3.8830    1.2160   -0.9730 C   0  0  0  0  0  0  0  0  0  0  0  0
    4.5610    1.6790    0.2730 C   0  0  0  0  0  0  0  0  0  0  0  0
    4.0140    1.6490    1.4490 C   0  0  0  0  0  0  0  0  0  0  0  0
    4.6650    2.0860    2.6140 O   0  0  0  0  0  0  0  0  0  0  0  0
    2.5530    0.6680   -0.8110 C   0  0  0  0  0  0  0  0  0  0  0  0
    1.4650    1.4790   -1.1220 C   0  0  0  0  0  0  0  0  0  0  0  0
    0.1760    1.0800   -0.9100 C   0  0  0  0  0  0  0  0  0  0  0  0
   -0.0580   -0.1680   -0.3730 C   0  0  0  0  0  0  0  0  0  0  0  0
    0.9860   -1.0150   -0.0430 C   0  0  0  0  0  0  0  0  0  0  0  0
    2.3080   -0.5870   -0.2730 C   0  0  0  0  0  0  0  0  0  0  0  0
    3.4170   -1.5620   -0.1400 C   0  0  2  0  0  0  0  0  0  0  0  0
    3.7400   -2.0510    1.2310 C   0  0  0  0  0  0  0  0  0  0  0  0
    4.4060   -1.6270   -1.2160 C   0  0  0  0  0  0  0  0  0  0  0  0
    0.4410   -2.2770    0.5270 C   0  0  0  0  0  0  0  0  0  0  0  0
    0.9620   -3.3700    0.5170 O   0  0  0  0  0  0  0  0  0  0  0  0
   -0.9000   -1.7660    1.0890 C   0  0  0  0  0  0  0  0  0  0  0  0
   -1.2860   -0.9500   -0.0840 C   0  0  1  0  0  0  0  0  0  0  0  0
   -2.5570   -0.2600   -0.0990 C   0  0  0  0  0  0  0  0  0  0  0  0
   -3.4300   -0.1760    0.9140 C   0  0  0  0  0  0  0  0  0  0  0  0
   -3.3890   -0.7290    2.2930 C   0  0  0  0  0  0  0  0  0  0  0  0
   -4.5620    0.6270    0.4310 C   0  0  0  0  0  0  0  0  0  0  0  0
   -5.7450    1.0400    1.0740 C   0  0  0  0  0  0  0  0  0  0  0  0
   -6.6380    1.8070    0.3850 C   0  0  0  0  0  0  0  0  0  0  0  0
   -6.4180    2.1910   -0.9070 C   0  0  0  0  0  0  0  0  0  0  0  0
   -5.2570    1.8040   -1.5870 C   0  0  0  0  0  0  0  0  0  0  0  0
   -4.3600    1.0170   -0.8620 C   0  0  0  0  0  0  0  0  0  0  0  0
   -3.0540    0.4580   -1.2670 C   0  0  0  0  0  0  0  0  0  0  0  0
   -2.5710    0.6300   -2.4140 O   0  0  0  0  0  0  0  0  0  0  0  0
  1  2  2  0
  2  3  1  0
  2  6  1  0
  3  4  2  3
  4  5  1  0
  6  7  2  0
  6 11  1  0
  7  8  1  0
  8  9  2  0
  9 10  1  0
  9 18  1  0
 10 11  2  0
 10 15  1  0
 11 12  1  0
 12 13  1  1
 12 14  1  0
 15 16  2  0
 15 17  1  0
 17 18  1  0
 18 19  1  1
 19 20  2  0
 19 28  1  0
 20 21  1  0
 20 22  1  0
 22 23  2  0
 22 27  1  0
 23 24  1  0
 24 25  2  0
 25 26  1  0
 26 27  2  0
 27 28  1  0
 28 29  2  0
M  CHG  1   5  -1
M  END
