
     RDKit          3D

 29 32  0  0  0  0  0  0  0  0999 V2000
    6.1890   -1.7040   -0.4260 C   0  0  0  0  0  0  0  0  0  0  0  0
    5.0170   -0.8150   -0.0700 C   0  0  1  0  0  0  0  0  0  0  0  0
    5.0320    0.4270   -0.9080 C   0  0  0  0  0  0  0  0  0  0  0  0
    3.9490    1.3630   -0.5010 C   0  0  0  0  0  0  0  0  0  0  0  0
    2.6350    0.6340   -0.3790 C   0  0  0  0  0  0  0  0  0  0  0  0
    1.4820    1.3880   -0.3270 C   0  0  0  0  0  0  0  0  0  0  0  0
    0.2270    0.7560   -0.2030 C   0  0  0  0  0  0  0  0  0  0  0  0
   -0.9140    1.5220   -0.1450 O   0  0  0  0  0  0  0  0  0  0  0  0
   -0.9810    2.8330    0.2520 C   0  0  0  0  0  0  0  0  0  0  0  0
   -0.0350    3.4150    1.0930 C   0  0  0  0  0  0  0  0  0  0  0  0
   -0.1520    4.7410    1.4450 C   0  0  0  0  0  0  0  0  0  0  0  0
   -1.1860    5.5140    0.9870 C   0  0  0  0  0  0  0  0  0  0  0  0
   -2.1110    4.9270    0.1600 C   0  0  0  0  0  0  0  0  0  0  0  0
   -2.0440    3.5880   -0.2320 C   0  0  0  0  0  0  0  0  0  0  0  0
   -3.0380    3.0640   -1.1500 C   0  0  0  0  0  0  0  0  0  0  0  0
   -3.0270    1.9260   -1.6040 O   0  0  0  0  0  0  0  0  0  0  0  0
   -4.0750    3.9010   -1.5420 O   0  0  0  0  0  0  0  0  0  0  0  0
    0.1290   -0.6060   -0.1340 C   0  0  0  0  0  0  0  0  0  0  0  0
   -1.0870   -1.3600    0.1030 C   0  0  2  0  0  0  0  0  0  0  0  0
   -0.9750   -2.7800   -0.4300 C   0  0  0  0  0  0  0  0  0  0  0  0
   -2.2710   -3.1760   -1.1210 C   0  0  0  0  0  0  0  0  0  0  0  0
   -3.4860   -2.9580   -0.2910 C   0  0  0  0  0  0  0  0  0  0  0  0
   -3.4460   -1.7250    0.5390 C   0  0  1  0  0  0  0  0  0  0  0  0
   -4.7970   -1.0490    0.6220 C   0  0  0  0  0  0  0  0  0  0  0  0
   -3.0330   -2.0810    1.9460 C   0  0  0  0  0  0  0  0  0  0  0  0
   -2.4070   -0.7570   -0.0760 C   0  0  0  0  0  0  0  0  0  0  0  0
    1.3280   -1.3420   -0.1910 C   0  0  0  0  0  0  0  0  0  0  0  0
    2.5560   -0.7350   -0.3110 C   0  0  0  0  0  0  0  0  0  0  0  0
    3.7620   -1.6070   -0.3610 C   0  0  0  0  0  0  0  0  0  0  0  0
  2  1  1  6
  2  3  1  0
  2 29  1  0
  3  4  1  0
  4  5  1  0
  5  6  2  0
  5 28  1  0
  6  7  1  0
  7  8  1  0
  7 18  2  0
  8  9  1  0
  9 10  2  0
  9 14  1  0
 10 11  1  0
 11 12  2  0
 12 13  1  0
 13 14  2  0
 14 15  1  0
 15 16  2  0
 15 17  1  0
 19 18  1  6
 18 27  1  0
 19 20  1  0
 19 26  1  0
 20 21  1  0
 21 22  1  0
 22 23  1  0
 23 24  1  1
 23 25  1  0
 23 26  1  0
 27 28  2  0
 28 29  1  0
M  CHG  1  17  -1
M  END
