
     RDKit          3D

 27 29  0  0  0  0  0  0  0  0999 V2000
    6.5620    3.2850   -0.1800 C   0  0  0  0  0  0  0  0  0  0  0  0
    6.2610    1.9420    0.2140 O   0  0  0  0  0  0  0  0  0  0  0  0
    4.9310    1.5510    0.2350 C   0  0  0  0  0  0  0  0  0  0  0  0
    3.9590    2.4200    0.2530 C   0  0  0  0  0  0  0  0  0  0  0  0
    2.5540    1.9460    0.2740 C   0  0  0  0  0  0  0  0  0  0  0  0
    2.2470    0.6830    0.2740 C   0  0  0  0  0  0  0  0  0  0  0  0
    0.9570    0.1070    0.2920 C   0  0  0  0  0  0  0  0  0  0  0  0
    0.6180   -1.0150    0.2670 O   0  0  0  0  0  0  0  0  0  0  0  0
   -0.3400    1.2250    0.3620 N   0  0  0  0  0  0  0  0  0  0  0  0
   -1.3900    0.3000    0.2730 C   0  0  0  0  0  0  0  0  0  0  0  0
   -1.4660   -0.8690    0.1580 O   0  0  0  0  0  0  0  0  0  0  0  0
   -2.7010    1.0430    0.3590 N   0  0  0  0  0  0  0  0  0  0  0  0
   -3.9320    0.3650    0.3670 C   0  0  2  0  0  0  0  0  0  0  0  0
   -4.1110   -0.8800    1.1810 C   0  0  0  0  0  0  0  0  0  0  0  0
   -4.2640   -0.9090   -0.2800 C   0  0  1  0  0  0  0  0  0  0  0  0
   -5.5820   -1.0440   -0.9650 C   0  0  1  0  0  0  0  0  0  0  0  0
   -6.7960   -0.8660   -0.1010 C   0  0  0  0  0  0  0  0  0  0  0  0
   -7.2830    0.5240   -0.4290 C   0  0  0  0  0  0  0  0  0  0  0  0
   -6.4850    1.0450   -1.4040 O   0  0  0  0  0  0  0  0  0  0  0  0
   -5.8210    0.0270   -2.0340 C   0  0  0  0  0  0  0  0  0  0  0  0
    3.3260   -0.2510    0.2550 O   0  0  0  0  0  0  0  0  0  0  0  0
    4.6370    0.1190    0.2360 C   0  0  0  0  0  0  0  0  0  0  0  0
    5.6190   -0.7570    0.2220 C   0  0  0  0  0  0  0  0  0  0  0  0
    5.3380   -2.1560    0.2250 N   0  0  0  0  0  0  0  0  0  0  0  0
    6.3700   -3.1320    0.2110 C   0  0  0  0  0  0  0  0  0  0  0  0
    6.0560   -4.5120    0.2190 N   0  0  0  0  0  0  0  0  0  0  0  0
    7.5730   -2.7600    0.1920 O   0  0  0  0  0  0  0  0  0  0  0  0
  1  2  1  0
  2  3  1  0
  3  4  2  0
  3 22  1  0
  4  5  1  0
  5  6  2  0
  6  7  1  0
  6 21  1  0
  7  8  2  0
  7  9  1  0
  9 10  1  0
 10 11  2  0
 10 12  1  0
 13 12  1  6
 13 14  1  0
 13 15  1  0
 15 14  1  1
 15 16  1  0
 16 17  1  1
 16 20  1  0
 17 18  1  0
 18 19  1  0
 19 20  1  0
 21 22  1  0
 22 23  2  3
 23 24  1  0
 24 25  1  0
 25 26  1  0
 25 27  2  0
M  END
