
     RDKit          3D

 27 28  0  0  0  0  0  0  0  0999 V2000
   -6.0220    0.4590    1.8650 C   0  0  0  0  0  0  0  0  0  0  0  0
   -6.1500    0.3560    0.5600 C   0  0  0  0  0  0  0  0  0  0  0  0
   -7.4550    0.1350   -0.0150 C   0  0  0  0  0  0  0  0  0  0  0  0
   -7.6140    0.0280   -1.2830 N   0  0  0  0  0  0  0  0  0  0  0  0
   -4.9680    0.4710   -0.3210 C   0  0  1  0  0  0  0  0  0  0  0  0
   -5.2020    1.6140   -1.1180 O   0  0  0  0  0  0  0  0  0  0  0  0
   -3.6830    0.6790    0.4350 C   0  0  2  0  0  0  0  0  0  0  0  0
   -2.6110    1.0860   -0.5560 C   0  0  0  0  0  0  0  0  0  0  0  0
   -1.6030    0.0050   -0.4820 N   0  0  0  0  0  0  0  0  0  0  0  0
   -0.2670    0.3890   -0.2990 C   0  0  0  0  0  0  0  0  0  0  0  0
    0.0360    1.6260   -0.2120 O   0  0  0  0  0  0  0  0  0  0  0  0
    0.8290   -0.5480   -0.1960 C   0  0  0  0  0  0  0  0  0  0  0  0
    0.6970   -1.8110   -0.2550 O   0  0  0  0  0  0  0  0  0  0  0  0
    2.1790   -0.0680   -0.0150 N   0  0  0  0  0  0  0  0  0  0  0  0
    3.3070   -1.0030    0.0910 C   0  0  1  0  0  0  0  0  0  0  0  0
    4.3050   -0.7450   -0.9720 C   0  0  0  0  0  0  0  0  0  0  0  0
    5.5350   -0.3970   -0.7180 C   0  0  0  0  0  0  0  0  0  0  0  0
    6.4130   -0.1740   -1.8130 N   0  0  0  0  0  0  0  0  0  0  0  0
    6.0810   -0.2200    0.6180 C   0  0  0  0  0  0  0  0  0  0  0  0
    7.3610    0.1420    0.9010 O   0  0  0  0  0  0  0  0  0  0  0  0
    8.0530    1.2520    0.4290 C   0  0  0  0  0  0  0  0  0  0  0  0
    5.2500   -0.4320    1.6340 C   0  0  0  0  0  0  0  0  0  0  0  0
    3.8710   -0.8190    1.4420 C   0  0  0  0  0  0  0  0  0  0  0  0
    3.1340   -1.0060    2.4350 O   0  0  0  0  0  0  0  0  0  0  0  0
   -2.1400   -1.3170   -0.6110 C   0  0  0  0  0  0  0  0  0  0  0  0
   -3.0230   -1.5470    0.6070 C   0  0  0  0  0  0  0  0  0  0  0  0
   -3.3320   -0.3670    1.2490 O   0  0  0  0  0  0  0  0  0  0  0  0
  1  2  2  0
  2  3  1  0
  2  5  1  0
  3  4  2  0
  5  6  1  6
  5  7  1  0
  7  8  1  6
  7 27  1  0
  8  9  1  0
  9 10  1  0
  9 25  1  0
 10 11  2  0
 10 12  1  0
 12 13  2  0
 12 14  1  0
 15 14  1  6
 15 16  1  0
 15 23  1  0
 16 17  2  0
 17 18  1  0
 17 19  1  0
 19 20  1  0
 19 22  2  0
 20 21  1  0
 22 23  1  0
 23 24  2  0
 25 26  1  0
 26 27  1  0
M  END
