
     RDKit          3D

 27 29  0  0  0  0  0  0  0  0999 V2000
   -5.0790    2.5920    1.3100 C   0  0  0  0  0  0  0  0  0  0  0  0
   -5.0620    1.1950    0.8260 C   0  0  0  0  0  0  0  0  0  0  0  0
   -4.0850    0.7690    0.0510 C   0  0  0  0  0  0  0  0  0  0  0  0
   -3.0360    1.5960   -0.3460 O   0  0  0  0  0  0  0  0  0  0  0  0
   -1.7670    1.0060   -0.6970 C   0  0  1  0  0  0  0  0  0  0  0  0
   -1.1380    0.5770    0.6070 C   0  0  0  0  0  0  0  0  0  0  0  0
    0.1420   -0.0360    0.4550 N   0  0  0  0  0  0  0  0  0  0  0  0
    1.2160    0.7070   -0.1510 C   0  0  0  0  0  0  0  0  0  0  0  0
    1.0190    1.8780   -0.5370 O   0  0  0  0  0  0  0  0  0  0  0  0
    2.5270    0.0170   -0.2830 C   0  0  1  0  0  0  0  0  0  0  0  0
    2.2960   -1.1340   -1.2720 C   0  0  0  0  0  0  0  0  0  0  0  0
    3.4720    0.9040   -0.9070 N   0  0  0  0  0  0  0  0  0  0  0  0
    4.6550    1.3630   -0.2890 C   0  0  0  0  0  0  0  0  0  0  0  0
    5.3540    2.2130   -0.8650 O   0  0  0  0  0  0  0  0  0  0  0  0
    5.0550    0.8410    1.0170 C   0  0  2  0  0  0  0  0  0  0  0  0
    6.3350    0.0060    0.8960 C   0  0  0  0  0  0  0  0  0  0  0  0
    6.7420   -0.3490    2.1630 O   0  0  0  0  0  0  0  0  0  0  0  0
    4.0770    0.0210    1.6630 N   0  0  0  0  0  0  0  0  0  0  0  0
    3.0040   -0.5690    0.9610 C   0  0  0  0  0  0  0  0  0  0  0  0
    2.4780   -1.5980    1.4260 O   0  0  0  0  0  0  0  0  0  0  0  0
   -1.9830   -0.1360   -1.6350 C   0  0  0  0  0  0  0  0  0  0  0  0
   -3.0230   -1.0530   -1.2530 N   0  0  0  0  0  0  0  0  0  0  0  0
   -3.2450   -2.4380   -1.5660 C   0  0  0  0  0  0  0  0  0  0  0  0
   -2.4820   -3.1350   -2.2800 O   0  0  0  0  0  0  0  0  0  0  0  0
   -4.4990   -2.8220   -0.8920 C   0  0  0  0  0  0  0  0  0  0  0  0
   -4.9340   -1.6110   -0.1960 C   0  0  0  0  0  0  0  0  0  0  0  0
   -4.0780   -0.6160   -0.4220 C   0  0  0  0  0  0  0  0  0  0  0  0
  1  2  1  0
  2  3  2  3
  3  4  1  0
  3 27  1  0
  4  5  1  0
  5  6  1  1
  5 21  1  0
  6  7  1  0
  7  8  1  0
  8  9  2  0
  8 10  1  0
 10 11  1  6
 10 12  1  0
 10 19  1  0
 12 13  1  0
 13 14  2  0
 13 15  1  0
 15 16  1  6
 15 18  1  0
 16 17  1  0
 18 19  1  0
 19 20  2  0
 21 22  1  0
 22 23  1  0
 22 27  1  0
 23 24  2  0
 23 25  1  0
 25 26  1  0
 26 27  2  0
M  END
