
     RDKit          3D

 27 29  0  0  0  0  0  0  0  0999 V2000
    6.3430    2.5600    1.2020 C   0  0  0  0  0  0  0  0  0  0  0  0
    5.2890    1.8180    0.4570 C   0  0  0  0  0  0  0  0  0  0  0  0
    4.1520    2.3510    0.3910 O   0  0  0  0  0  0  0  0  0  0  0  0
    5.5970    0.5710   -0.1350 N   0  0  0  0  0  0  0  0  0  0  0  0
    4.6120   -0.1710   -0.8560 C   0  0  0  0  0  0  0  0  0  0  0  0
    3.4380   -0.5270    0.0030 C   0  0  0  0  0  0  0  0  0  0  0  0
    3.3670   -0.1900    1.2000 O   0  0  0  0  0  0  0  0  0  0  0  0
    2.4360   -1.2330   -0.5470 O   0  0  0  0  0  0  0  0  0  0  0  0
    1.2440   -1.6750   -0.0790 C   0  0  1  0  0  0  0  0  0  0  0  0
    0.7190   -2.6660   -1.1730 C   0  0  0  0  0  0  0  0  0  0  0  0
    1.3010   -2.4680    1.1980 C   0  0  0  0  0  0  0  0  0  0  0  0
    0.1660   -0.6510    0.0880 C   0  0  0  0  0  0  0  0  0  0  0  0
   -1.1320   -0.9630   -0.0440 C   0  0  0  0  0  0  0  0  0  0  0  0
   -1.8870   -2.1470   -0.3340 N   0  0  0  0  0  0  0  0  0  0  0  0
   -3.1250   -1.9240   -0.9990 C   0  0  0  0  0  0  0  0  0  0  0  0
   -4.0770   -2.7210   -0.8950 O   0  0  0  0  0  0  0  0  0  0  0  0
   -3.2300   -0.7020   -1.8210 C   0  0  0  0  0  0  0  0  0  0  0  0
   -2.8730    0.5130   -1.0010 C   0  0  1  0  0  0  0  0  0  0  0  0
   -4.1410    1.1800   -0.5840 C   0  0  0  0  0  0  0  0  0  0  0  0
   -4.5440    1.5420    0.6150 C   0  0  0  0  0  0  0  0  0  0  0  0
   -5.8940    2.1750    0.5240 C   0  0  0  0  0  0  0  0  0  0  0  0
   -6.2940    1.9160   -0.7800 O   0  0  0  0  0  0  0  0  0  0  0  0
   -5.2000    1.5620   -1.4640 N   0  0  0  0  0  0  0  0  0  0  0  0
   -1.9930    0.2480    0.1730 C   0  0  2  0  0  0  0  0  0  0  0  0
   -1.1160    1.2900    0.5650 N   0  0  0  0  0  0  0  0  0  0  0  0
    0.2260    0.7350    0.4630 C   0  0  0  0  0  0  0  0  0  0  0  0
    1.2030    1.4700    0.6940 O   0  0  0  0  0  0  0  0  0  0  0  0
  1  2  1  0
  2  3  2  0
  2  4  1  0
  4  5  1  0
  5  6  1  0
  6  7  2  0
  6  8  1  0
  8  9  1  0
  9 10  1  6
  9 11  1  0
  9 12  1  0
 12 13  2  0
 12 26  1  0
 13 14  1  0
 13 24  1  0
 14 15  1  0
 15 16  2  0
 15 17  1  0
 17 18  1  0
 18 19  1  1
 18 24  1  0
 19 20  2  0
 19 23  1  0
 20 21  1  0
 21 22  1  0
 22 23  1  0
 24 25  1  6
 25 26  1  0
 26 27  2  0
M  END
