
     RDKit          3D

 16 17  0  0  0  0  0  0  0  0999 V2000
    3.5860    0.7450    1.4940 O   0  0  0  0  0  0  0  0  0  0  0  0
    3.8440    0.7980    0.2860 C   0  0  0  0  0  0  0  0  0  0  0  0
    4.5360    1.9710   -0.1210 O   0  0  0  0  0  0  0  0  0  0  0  0
    3.5260   -0.1860   -0.7580 C   0  0  0  0  0  0  0  0  0  0  0  0
    2.5670   -1.2530   -0.4660 C   0  0  0  0  0  0  0  0  0  0  0  0
    1.1410   -0.9590   -0.2360 C   0  0  0  0  0  0  0  0  0  0  0  0
    0.7250   -0.0570    0.8420 C   0  0  0  0  0  0  0  0  0  0  0  0
   -0.7270    0.1260    1.0470 C   0  0  2  0  0  0  0  0  0  0  0  0
   -1.6610   -1.3750    1.4580 S   0  0  0  0  0  0  0  0  0  0  0  0
   -3.3160   -0.6830    1.0060 C   0  0  0  0  0  0  0  0  0  0  0  0
   -2.9550    0.7240    0.5740 C   0  0  2  0  0  0  0  0  0  0  0  0
   -3.7300    0.9970   -0.6240 N   0  0  0  0  0  0  0  0  0  0  0  0
   -3.1490    0.1350   -1.6140 C   0  0  0  0  0  0  0  0  0  0  0  0
   -3.6700   -0.0750   -2.7360 O   0  0  0  0  0  0  0  0  0  0  0  0
   -1.9180   -0.3970   -1.0670 N   0  0  0  0  0  0  0  0  0  0  0  0
   -1.5520    0.6100   -0.0840 C   0  0  2  0  0  0  0  0  0  0  0  0
  1  2  2  0
  2  3  1  0
  2  4  1  0
  4  5  1  0
  5  6  1  0
  6  7  1  0
  8  7  1  6
  8  9  1  0
  8 16  1  0
  9 10  1  0
 11 10  1  6
 11 12  1  0
 11 16  1  0
 12 13  1  0
 13 14  2  0
 13 15  1  0
 16 15  1  6
M  END
