
     RDKit          3D

 27 29  0  0  0  0  0  0  0  0999 V2000
    5.5190   -2.4030   -0.0800 C   0  0  0  0  0  0  0  0  0  0  0  0
    5.9090   -1.1480   -0.2470 C   0  0  0  0  0  0  0  0  0  0  0  0
    7.2560   -0.8390   -0.4730 N   0  0  0  0  0  0  0  0  0  0  0  0
    7.6040    0.5370   -0.6440 C   0  0  0  0  0  0  0  0  0  0  0  0
    6.6850    1.4860   -0.5920 C   0  0  0  0  0  0  0  0  0  0  0  0
    7.0600    2.8190   -0.7630 O   0  0  0  0  0  0  0  0  0  0  0  0
    5.2830    1.1850   -0.3580 C   0  0  0  0  0  0  0  0  0  0  0  0
    4.9190   -0.0890   -0.1930 C   0  0  0  0  0  0  0  0  0  0  0  0
    3.5870   -0.4100    0.0320 O   0  0  0  0  0  0  0  0  0  0  0  0
    2.5980    0.5730    0.2500 C   0  0  0  0  0  0  0  0  0  0  0  0
    1.2970   -0.0620    0.4570 C   0  0  0  0  0  0  0  0  0  0  0  0
    1.2250   -1.3260    0.4160 O   0  0  0  0  0  0  0  0  0  0  0  0
    0.0910    0.6190    0.7010 N   0  0  0  0  0  0  0  0  0  0  0  0
   -1.1770   -0.1040    0.8980 C   0  0  0  0  0  0  0  0  0  0  0  0
   -2.0930    0.1880    0.0410 C   0  0  0  0  0  0  0  0  0  0  0  0
   -3.4430   -0.2790   -0.1200 C   0  0  0  0  0  0  0  0  0  0  0  0
   -4.0800   -1.1260    0.5740 N   0  0  0  0  0  0  0  0  0  0  0  0
   -5.3880   -1.3390    0.1210 C   0  0  0  0  0  0  0  0  0  0  0  0
   -6.3610   -1.9470    0.6240 O   0  0  0  0  0  0  0  0  0  0  0  0
   -5.4540   -0.6520   -1.2040 C   0  0  1  0  0  0  0  0  0  0  0  0
   -6.7030    0.2150   -1.1730 C   0  0  1  0  0  0  0  0  0  0  0  0
   -6.7300    1.2660   -0.0920 C   0  0  0  0  0  0  0  0  0  0  0  0
   -6.5160    1.6310   -1.5210 C   0  0  0  0  0  0  0  0  0  0  0  0
   -4.3130    0.1610   -1.1370 O   0  0  0  0  0  0  0  0  0  0  0  0
   -1.1800   -1.0000    1.9940 C   0  0  0  0  0  0  0  0  0  0  0  0
   -2.2890   -1.7940    2.3650 N   0  0  0  0  0  0  0  0  0  0  0  0
   -0.1330   -1.1470    2.7450 O   0  0  0  0  0  0  0  0  0  0  0  0
  1  2  2  0
  2  3  1  0
  2  8  1  0
  3  4  1  0
  4  5  2  0
  5  6  1  0
  5  7  1  0
  7  8  2  0
  8  9  1  0
  9 10  1  0
 10 11  1  0
 11 12  2  0
 11 13  1  0
 13 14  1  0
 14 15  2  3
 14 25  1  0
 15 16  1  0
 16 17  2  0
 16 24  1  0
 17 18  1  0
 18 19  2  0
 18 20  1  0
 20 21  1  0
 20 24  1  1
 21 22  1  1
 21 23  1  0
 22 23  1  0
 25 26  1  0
 25 27  2  0
M  END
