
     RDKit          3D

 27 29  0  0  0  0  0  0  0  0999 V2000
    5.9470   -0.2550    0.3410 C   0  0  0  0  0  0  0  0  0  0  0  0
    4.7380   -0.7590   -0.3210 N   0  0  0  0  0  0  0  0  0  0  0  0
    4.1400   -0.1180   -1.4160 C   0  0  0  0  0  0  0  0  0  0  0  0
    4.6270    0.9280   -1.8760 O   0  0  0  0  0  0  0  0  0  0  0  0
    2.9230   -0.6910   -2.0250 C   0  0  2  0  0  0  0  0  0  0  0  0
    2.4150   -0.0450   -3.0790 O   0  0  0  0  0  0  0  0  0  0  0  0
    1.0830    0.2580   -2.8220 C   0  0  0  0  0  0  0  0  0  0  0  0
    0.3490    0.8690   -3.6590 O   0  0  0  0  0  0  0  0  0  0  0  0
    0.7030   -0.2180   -1.5130 C   0  0  0  0  0  0  0  0  0  0  0  0
   -0.5470   -0.1760   -0.7690 C   0  0  0  0  0  0  0  0  0  0  0  0
   -1.7130    0.3170   -1.0390 C   0  0  0  0  0  0  0  0  0  0  0  0
   -2.2750    1.0080   -2.1310 N   0  0  0  0  0  0  0  0  0  0  0  0
   -3.6650    1.3390   -1.9120 C   0  0  0  0  0  0  0  0  0  0  0  0
   -4.4060    1.9580   -2.7330 O   0  0  0  0  0  0  0  0  0  0  0  0
   -3.9630    0.8180   -0.6100 C   0  0  0  0  0  0  0  0  0  0  0  0
   -4.9550    0.6810    0.3360 C   0  0  0  0  0  0  0  0  0  0  0  0
   -6.3480    1.1780    0.2060 C   0  0  0  0  0  0  0  0  0  0  0  0
   -4.4780    0.0280    1.4040 N   0  0  0  0  0  0  0  0  0  0  0  0
   -3.1830   -0.2740    1.1870 C   0  0  0  0  0  0  0  0  0  0  0  0
   -2.3050   -1.0000    2.1440 C   0  0  0  0  0  0  0  0  0  0  0  0
   -2.8530    0.2190   -0.0770 C   0  0  0  0  0  0  0  0  0  0  0  0
    1.8150   -0.8020   -1.0040 C   0  0  0  0  0  0  0  0  0  0  0  0
    1.9800   -1.4000    0.2050 O   0  0  0  0  0  0  0  0  0  0  0  0
    1.6670   -1.2630    1.5000 C   0  0  0  0  0  0  0  0  0  0  0  0
    2.1060    0.0250    2.1280 C   0  0  0  0  0  0  0  0  0  0  0  0
    2.7850    1.0410    1.4310 N   0  0  0  0  0  0  0  0  0  0  0  0
    1.8600    0.2270    3.3520 O   0  0  0  0  0  0  0  0  0  0  0  0
  1  2  1  0
  2  3  1  0
  3  4  2  0
  5  3  1  1
  5  6  1  0
  5 22  1  0
  6  7  1  0
  7  8  2  0
  7  9  1  0
  9 10  1  0
  9 22  2  0
 10 11  2  3
 11 12  1  0
 11 21  1  0
 12 13  1  0
 13 14  2  0
 13 15  1  0
 15 16  2  0
 15 21  1  0
 16 17  1  0
 16 18  1  0
 18 19  1  0
 19 20  1  0
 19 21  2  0
 22 23  1  0
 23 24  1  0
 24 25  1  0
 25 26  1  0
 25 27  2  0
M  END
