
     RDKit          3D

 25 26  0  0  0  0  0  0  0  0999 V2000
   -4.8320   -3.9110   -2.1610 C   0  0  0  0  0  0  0  0  0  0  0  0
   -3.5400   -3.5730   -1.5950 N   0  0  0  0  0  0  0  0  0  0  0  0
   -3.1770   -2.3740   -1.0520 C   0  0  0  0  0  0  0  0  0  0  0  0
   -1.8770   -2.4440   -0.6240 C   0  0  0  0  0  0  0  0  0  0  0  0
   -0.9820   -1.5300    0.0050 C   0  0  0  0  0  0  0  0  0  0  0  0
    0.2310   -1.9840    0.2690 N   0  0  0  0  0  0  0  0  0  0  0  0
    1.2240   -1.2730    0.8600 N   0  0  0  0  0  0  0  0  0  0  0  0
    2.1210   -0.4980    0.0390 C   0  0  0  0  0  0  0  0  0  0  0  0
    1.9390   -0.5130   -1.2050 O   0  0  0  0  0  0  0  0  0  0  0  0
    3.1550    0.2430    0.6080 N   0  0  0  0  0  0  0  0  0  0  0  0
    4.0840    1.0420   -0.1010 C   0  0  0  0  0  0  0  0  0  0  0  0
    5.2340    1.5200    0.5500 C   0  0  0  0  0  0  0  0  0  0  0  0
    6.1590    2.3120   -0.0810 C   0  0  0  0  0  0  0  0  0  0  0  0
    5.9790    2.6680   -1.4070 C   0  0  0  0  0  0  0  0  0  0  0  0
    4.8840    2.2170   -2.0370 N   0  0  0  0  0  0  0  0  0  0  0  0
    3.9590    1.4240   -1.4050 C   0  0  0  0  0  0  0  0  0  0  0  0
   -1.2200   -0.1850    0.4040 C   0  0  0  0  0  0  0  0  0  0  0  0
   -0.2360    0.4640    0.9960 O   0  0  0  0  0  0  0  0  0  0  0  0
   -2.3640    0.6150    0.2770 N   0  0  0  0  0  0  0  0  0  0  0  0
   -2.3950    1.9920    0.7710 C   0  0  0  0  0  0  0  0  0  0  0  0
   -2.1810    2.1000    2.2520 C   0  0  0  0  0  0  0  0  0  0  0  0
   -2.2310    3.5420    2.6660 C   0  0  0  0  0  0  0  0  0  0  0  0
   -2.4160    4.4390    1.8690 O   0  0  0  0  0  0  0  0  0  0  0  0
   -1.5110   -3.7720   -0.9590 C   0  0  0  0  0  0  0  0  0  0  0  0
   -2.5390   -4.4060   -1.5360 N   0  0  0  0  0  0  0  0  0  0  0  0
  1  2  1  0
  2  3  1  0
  2 25  1  0
  3  4  2  0
  4  5  1  0
  4 24  1  0
  5  6  2  3
  5 17  1  0
  6  7  1  0
  7  8  1  0
  8  9  2  0
  8 10  1  0
 10 11  1  0
 11 12  2  0
 11 16  1  0
 12 13  1  0
 13 14  2  0
 14 15  1  0
 15 16  2  0
 17 18  2  0
 17 19  1  0
 19 20  1  0
 20 21  1  0
 21 22  1  0
 22 23  2  0
 24 25  2  0
M  END
