
     RDKit          3D

 25 26  0  0  0  0  0  0  0  0999 V2000
    7.0750    1.6290    0.3520 C   0  0  0  0  0  0  0  0  0  0  0  0
    6.3720    0.6840    1.1970 N   0  0  0  0  0  0  0  0  0  0  0  0
    5.6350   -0.4170    0.6570 C   0  0  0  0  0  0  0  0  0  0  0  0
    5.6160   -0.5390   -0.5750 O   0  0  0  0  0  0  0  0  0  0  0  0
    4.9470   -1.3450    1.4670 N   0  0  0  0  0  0  0  0  0  0  0  0
    4.1860   -2.4720    0.9660 C   0  0  0  0  0  0  0  0  0  0  0  0
    3.0680   -1.9550    0.0770 C   0  0  0  0  0  0  0  0  0  0  0  0
    2.1510   -1.0370    0.8660 C   0  0  0  0  0  0  0  0  0  0  0  0
    1.0790   -0.5230    0.0660 N   0  0  0  0  0  0  0  0  0  0  0  0
   -0.0980   -1.0510   -0.1120 N   0  0  0  0  0  0  0  0  0  0  0  0
   -0.8440   -0.2880   -0.9280 C   0  0  0  0  0  0  0  0  0  0  0  0
   -2.2210   -0.6230   -1.3170 C   0  0  0  0  0  0  0  0  0  0  0  0
   -3.2260   -0.0640   -0.3770 C   0  0  0  0  0  0  0  0  0  0  0  0
   -2.7940    0.5930    0.5870 O   0  0  0  0  0  0  0  0  0  0  0  0
   -4.6110   -0.2410   -0.5220 N   0  0  0  0  0  0  0  0  0  0  0  0
   -5.6470    0.2350    0.2900 C   0  0  0  0  0  0  0  0  0  0  0  0
   -6.9610   -0.1860    0.0870 C   0  0  0  0  0  0  0  0  0  0  0  0
   -8.0160    0.2600    0.8540 C   0  0  0  0  0  0  0  0  0  0  0  0
   -7.7810    1.1620    1.8690 C   0  0  0  0  0  0  0  0  0  0  0  0
   -6.5210    1.5710    2.0700 N   0  0  0  0  0  0  0  0  0  0  0  0
   -5.4660    1.1280    1.3060 C   0  0  0  0  0  0  0  0  0  0  0  0
   -0.0860    0.7670   -1.2710 N   0  0  0  0  0  0  0  0  0  0  0  0
   -0.5200    1.8230   -2.1390 C   0  0  0  0  0  0  0  0  0  0  0  0
    1.0990    0.6190   -0.6570 C   0  0  0  0  0  0  0  0  0  0  0  0
    2.0560    1.4200   -0.7510 O   0  0  0  0  0  0  0  0  0  0  0  0
  1  2  1  0
  2  3  1  0
  3  4  2  0
  3  5  1  0
  5  6  1  0
  6  7  1  0
  7  8  1  0
  8  9  1  0
  9 10  1  0
  9 24  1  0
 10 11  2  0
 11 12  1  0
 11 22  1  0
 12 13  1  0
 13 14  2  0
 13 15  1  0
 15 16  1  0
 16 17  2  0
 16 21  1  0
 17 18  1  0
 18 19  2  0
 19 20  1  0
 20 21  2  0
 22 23  1  0
 22 24  1  0
 24 25  2  0
M  END
