
     RDKit          3D

 25 26  0  0  0  0  0  0  0  0999 V2000
    3.5450   -0.7170   -1.2080 C   0  0  0  0  0  0  0  0  0  0  0  0
    3.3700   -0.8600    0.0750 C   0  0  0  0  0  0  0  0  0  0  0  0
    4.4880   -0.9130    1.0090 C   0  0  0  0  0  0  0  0  0  0  0  0
    5.6880   -0.8420    0.7910 N   0  0  0  0  0  0  0  0  0  0  0  0
    6.4420   -0.6910   -0.3500 C   0  0  0  0  0  0  0  0  0  0  0  0
    6.9920    0.4880   -0.6930 C   0  0  0  0  0  0  0  0  0  0  0  0
    6.7600    1.6430    0.2120 C   0  0  0  0  0  0  0  0  0  0  0  0
    2.0160   -0.9750    0.6420 C   0  0  0  0  0  0  0  0  0  0  0  0
    0.9390   -0.9190   -0.2980 N   0  0  0  0  0  0  0  0  0  0  0  0
   -0.4330   -1.0240    0.1690 C   0  0  0  0  0  0  0  0  0  0  0  0
   -0.6030   -1.1600    1.3900 O   0  0  0  0  0  0  0  0  0  0  0  0
   -1.5170   -0.9740   -0.7160 N   0  0  0  0  0  0  0  0  0  0  0  0
   -1.2500   -0.8130   -2.1330 C   0  0  0  0  0  0  0  0  0  0  0  0
   -2.8530   -1.0830   -0.1930 C   0  0  0  0  0  0  0  0  0  0  0  0
   -3.4490    0.2040    0.1610 C   0  0  0  0  0  0  0  0  0  0  0  0
   -2.8490    1.4360    0.0320 C   0  0  0  0  0  0  0  0  0  0  0  0
   -3.7250    2.3630    0.4650 N   0  0  0  0  0  0  0  0  0  0  0  0
   -4.8590    1.7870    0.8650 N   0  0  0  0  0  0  0  0  0  0  0  0
   -5.9900    2.3170    1.3640 C   0  0  0  0  0  0  0  0  0  0  0  0
   -6.1010    3.5670    1.5210 O   0  0  0  0  0  0  0  0  0  0  0  0
   -6.9980    1.4850    1.6920 N   0  0  0  0  0  0  0  0  0  0  0  0
   -6.8710    0.1590    1.5220 C   0  0  0  0  0  0  0  0  0  0  0  0
   -7.7900   -0.6430    1.8170 O   0  0  0  0  0  0  0  0  0  0  0  0
   -5.7350   -0.3290    1.0250 N   0  0  0  0  0  0  0  0  0  0  0  0
   -4.6960    0.4560    0.6810 C   0  0  0  0  0  0  0  0  0  0  0  0
  1  2  2  0
  2  3  1  0
  2  8  1  0
  3  4  2  3
  4  5  1  0
  5  6  2  3
  6  7  1  0
  8  9  1  0
  9 10  1  0
 10 11  2  0
 10 12  1  0
 12 13  1  0
 12 14  1  0
 14 15  1  0
 15 16  1  0
 15 25  2  0
 16 17  2  0
 17 18  1  0
 18 19  1  0
 18 25  1  0
 19 20  2  0
 19 21  1  0
 21 22  1  0
 22 23  2  0
 22 24  1  0
 24 25  1  0
M  END
