
     RDKit          3D

 21 21  0  0  0  0  0  0  0  0999 V2000
    0.5040   -1.1360   -2.2540 O   0  0  0  0  0  0  0  0  0  0  0  0
    1.2970   -0.9770   -1.2430 C   0  0  0  0  0  0  0  0  0  0  0  0
    2.5030   -1.7840   -1.2140 C   0  0  0  0  0  0  0  0  0  0  0  0
    3.3960   -1.6770   -0.2190 O   0  0  0  0  0  0  0  0  0  0  0  0
    4.0300   -0.5030    0.0280 C   0  0  2  0  0  0  0  0  0  0  0  0
    5.4010   -0.5980   -0.4200 O   0  0  0  0  0  0  0  0  0  0  0  0
    4.1650   -0.1050    1.4690 C   0  0  0  0  0  0  0  0  0  0  0  0
    4.8290    1.1330    1.4830 O   0  0  0  0  0  0  0  0  0  0  0  0
    0.8880   -0.0270   -0.2810 N   0  0  0  0  0  0  0  0  0  0  0  0
   -0.3820    0.6980   -0.4900 C   0  0  2  0  0  0  0  0  0  0  0  0
   -0.1560    1.4370   -1.6490 O   0  0  0  0  0  0  0  0  0  0  0  0
   -0.5520    1.6280    0.6570 C   0  0  0  0  0  0  0  0  0  0  0  0
   -1.6950    2.3570    0.7150 O   0  0  0  0  0  0  0  0  0  0  0  0
   -2.6670    2.1160   -0.2110 C   0  0  2  0  0  0  0  0  0  0  0  0
   -3.5570    3.2180   -0.1580 O   0  0  0  0  0  0  0  0  0  0  0  0
   -3.4960    0.9000    0.2260 C   0  0  0  0  0  0  0  0  0  0  0  0
   -2.5570   -0.2360    0.4030 C   0  0  1  0  0  0  0  0  0  0  0  0
   -3.3490   -1.5250    0.3160 C   0  0  0  0  0  0  0  0  0  0  0  0
   -2.5390   -2.6450    0.4720 O   0  0  0  0  0  0  0  0  0  0  0  0
   -1.4530   -0.3130   -0.6120 C   0  0  1  0  0  0  0  0  0  0  0  0
   -1.9680   -0.2850   -1.9280 O   0  0  0  0  0  0  0  0  0  0  0  0
  1  2  2  0
  2  3  1  0
  2  9  1  0
  3  4  1  0
  4  5  1  0
  5  6  1  1
  5  7  1  0
  7  8  1  0
  9 10  1  0
 10 11  1  6
 10 12  1  0
 10 20  1  0
 12 13  1  0
 13 14  1  0
 14 15  1  1
 14 16  1  0
 16 17  1  0
 17 18  1  6
 17 20  1  0
 18 19  1  0
 20 21  1  6
M  END
