
     RDKit          3D

 25 26  0  0  0  0  0  0  0  0999 V2000
   -3.1150    2.0160    2.8380 C   0  0  0  0  0  0  0  0  0  0  0  0
   -2.6140    0.8100    2.6620 C   0  0  0  0  0  0  0  0  0  0  0  0
   -3.0920    0.0520    1.5560 N   0  0  0  0  0  0  0  0  0  0  0  0
   -2.0810   -0.5250    0.6880 C   0  0  0  0  0  0  0  0  0  0  0  0
   -2.0960   -0.6980   -0.6160 C   0  0  0  0  0  0  0  0  0  0  0  0
   -0.9410   -1.3080   -1.2340 C   0  0  0  0  0  0  0  0  0  0  0  0
   -0.8580   -1.5260   -2.4790 O   0  0  0  0  0  0  0  0  0  0  0  0
    0.2350   -1.7380   -0.5460 N   0  0  0  0  0  0  0  0  0  0  0  0
    1.3520   -2.3390   -1.2190 C   0  0  0  0  0  0  0  0  0  0  0  0
    1.9880   -1.4740   -2.2580 C   0  0  0  0  0  0  0  0  0  0  0  0
    2.5030   -0.2320   -1.7270 N   0  0  0  0  0  0  0  0  0  0  0  0
    3.5040   -0.2120   -0.7200 C   0  0  0  0  0  0  0  0  0  0  0  0
    3.9800   -1.3030   -0.2540 O   0  0  0  0  0  0  0  0  0  0  0  0
    4.0160    1.0110   -0.1930 N   0  0  0  0  0  0  0  0  0  0  0  0
    5.0180    1.0370    0.8150 C   0  0  0  0  0  0  0  0  0  0  0  0
    5.5720    2.1610    1.3840 C   0  0  0  0  0  0  0  0  0  0  0  0
    6.5100    1.7610    2.3230 C   0  0  0  0  0  0  0  0  0  0  0  0
    6.5000    0.4170    2.2990 N   0  0  0  0  0  0  0  0  0  0  0  0
    5.6060   -0.0170    1.3950 N   0  0  0  0  0  0  0  0  0  0  0  0
   -3.1610   -0.3220   -1.5080 N   0  0  0  0  0  0  0  0  0  0  0  0
   -2.9070   -0.2640   -2.9130 C   0  0  0  0  0  0  0  0  0  0  0  0
   -4.5030    0.0240   -1.0980 C   0  0  0  0  0  0  0  0  0  0  0  0
   -5.3420   -0.1670   -2.0090 O   0  0  0  0  0  0  0  0  0  0  0  0
   -5.0620    0.5460    0.1580 C   0  0  0  0  0  0  0  0  0  0  0  0
   -4.5280   -0.0800    1.4040 C   0  0  0  0  0  0  0  0  0  0  0  0
  1  2  2  0
  2  3  1  0
  3  4  1  0
  3 25  1  0
  4  5  2  0
  5  6  1  0
  5 20  1  0
  6  7  2  0
  6  8  1  0
  8  9  1  0
  9 10  1  0
 10 11  1  0
 11 12  1  0
 12 13  2  0
 12 14  1  0
 14 15  1  0
 15 16  1  0
 15 19  2  0
 16 17  2  0
 17 18  1  0
 18 19  1  0
 20 21  1  0
 20 22  1  0
 22 23  2  0
 22 24  1  0
 24 25  1  0
M  END
