
     RDKit          3D

 25 26  0  0  0  0  0  0  0  0999 V2000
   -4.3760   -3.2490    2.0020 C   0  0  0  0  0  0  0  0  0  0  0  0
   -3.0010   -2.9480    2.5460 C   0  0  0  0  0  0  0  0  0  0  0  0
   -2.2610   -2.2220    1.4490 C   0  0  0  0  0  0  0  0  0  0  0  0
   -1.5010   -2.8000    0.4710 C   0  0  0  0  0  0  0  0  0  0  0  0
   -1.0010   -1.7880   -0.3270 N   0  0  0  0  0  0  0  0  0  0  0  0
   -0.0850   -2.0670   -1.3830 C   0  0  0  0  0  0  0  0  0  0  0  0
    1.2630   -2.5300   -1.0700 C   0  0  0  0  0  0  0  0  0  0  0  0
    2.2730   -1.8650   -0.2740 C   0  0  0  0  0  0  0  0  0  0  0  0
    2.7780   -0.5770   -0.6370 N   0  0  0  0  0  0  0  0  0  0  0  0
    3.8180   -0.5190   -1.6780 C   0  0  0  0  0  0  0  0  0  0  0  0
    2.3770    0.6560   -0.0940 C   0  0  0  0  0  0  0  0  0  0  0  0
    1.5460    0.6670    0.8430 O   0  0  0  0  0  0  0  0  0  0  0  0
    2.8940    1.9560   -0.5820 C   0  0  0  0  0  0  0  0  0  0  0  0
    2.3040    3.0680    0.1640 N   0  0  0  0  0  0  0  0  0  0  0  0
    2.7700    4.2510   -0.2730 O   0  0  0  0  0  0  0  0  0  0  0  0
   -1.4430   -0.6200    0.1410 C   0  0  0  0  0  0  0  0  0  0  0  0
   -1.2510    0.7300   -0.4050 C   0  0  0  0  0  0  0  0  0  0  0  0
   -1.8590    1.7730    0.1920 N   0  0  0  0  0  0  0  0  0  0  0  0
   -1.7300    3.0240   -0.2880 C   0  0  0  0  0  0  0  0  0  0  0  0
   -2.4110    4.1540    0.3910 C   0  0  0  0  0  0  0  0  0  0  0  0
   -0.9940    3.2960   -1.3790 N   0  0  0  0  0  0  0  0  0  0  0  0
   -0.3840    2.2560   -1.9800 C   0  0  0  0  0  0  0  0  0  0  0  0
    0.3090    2.4970   -3.0050 O   0  0  0  0  0  0  0  0  0  0  0  0
   -0.5250    1.0120   -1.4850 N   0  0  0  0  0  0  0  0  0  0  0  0
   -2.2080   -0.9180    1.2270 N   0  0  0  0  0  0  0  0  0  0  0  0
  1  2  1  0
  2  3  1  0
  3  4  2  0
  3 25  1  0
  4  5  1  0
  5  6  1  0
  5 16  1  0
  6  7  1  0
  7  8  1  0
  8  9  1  0
  9 10  1  0
  9 11  1  0
 11 12  2  0
 11 13  1  0
 13 14  1  0
 14 15  1  0
 16 17  1  0
 16 25  2  0
 17 18  1  0
 17 24  2  0
 18 19  2  0
 19 20  1  0
 19 21  1  0
 21 22  1  0
 22 23  2  0
 22 24  1  0
M  END
