
     RDKit          3D

 41 45  0  0  0  0  0  0  0  0999 V2000
    1.8970    3.3140    1.1900 C   0  0  0  0  0  0  0  0  0  0  0  0
    2.4960    2.0680    0.6310 C   0  0  0  0  0  0  0  0  0  0  0  0
    1.7410    1.2340   -0.0520 C   0  0  0  0  0  0  0  0  0  0  0  0
    0.3500    1.5400   -0.2460 C   0  0  0  0  0  0  0  0  0  0  0  0
   -0.4950    0.8050   -0.8950 C   0  0  0  0  0  0  0  0  0  0  0  0
   -1.8360    1.2900   -0.9720 O   0  0  0  0  0  0  0  0  0  0  0  0
   -0.1840   -0.4410   -1.5330 C   0  0  0  0  0  0  0  0  0  0  0  0
    0.9270   -0.9860   -1.5560 O   0  0  0  0  0  0  0  0  0  0  0  0
   -1.2930   -1.1740   -2.2470 C   0  0  2  0  0  0  0  0  0  0  0  0
   -1.8760   -0.3620   -3.3380 C   0  0  0  0  0  0  0  0  0  0  0  0
   -3.2490   -0.0510   -2.9230 C   0  0  0  0  0  0  0  0  0  0  0  0
   -4.0130    0.7850   -3.4450 O   0  0  0  0  0  0  0  0  0  0  0  0
   -3.5640   -0.8720   -1.8170 N   0  0  0  0  0  0  0  0  0  0  0  0
   -4.9020   -1.1430   -1.2810 C   0  0  0  0  0  0  0  0  0  0  0  0
   -5.2410   -0.1150   -0.2240 C   0  0  0  0  0  0  0  0  0  0  0  0
   -6.5970   -0.3340    0.3760 C   0  0  0  0  0  0  0  0  0  0  0  0
   -7.6100   -0.2530   -0.6310 N   0  0  0  0  0  0  0  0  0  0  0  0
   -8.9910   -0.4400   -0.2630 C   0  0  0  0  0  0  0  0  0  0  0  0
   -9.9380   -0.3420   -1.2360 C   0  0  0  0  0  0  0  0  0  0  0  0
  -11.2760   -0.5090   -0.9540 C   0  0  0  0  0  0  0  0  0  0  0  0
  -11.6390   -0.7830    0.3690 C   0  0  0  0  0  0  0  0  0  0  0  0
  -10.6670   -0.8730    1.3180 C   0  0  0  0  0  0  0  0  0  0  0  0
   -9.3230   -0.7090    1.0500 C   0  0  0  0  0  0  0  0  0  0  0  0
   -2.3680   -1.4280   -1.2480 C   0  0  0  0  0  0  0  0  0  0  0  0
    3.8990    1.7680    0.8360 C   0  0  0  0  0  0  0  0  0  0  0  0
    4.5350    0.6800    0.3850 N   0  0  0  0  0  0  0  0  0  0  0  0
    5.8280    0.7380    0.7650 C   0  0  0  0  0  0  0  0  0  0  0  0
    6.9340   -0.0850    0.5920 C   0  0  0  0  0  0  0  0  0  0  0  0
    8.1880    0.2010    1.0910 C   0  0  0  0  0  0  0  0  0  0  0  0
    9.3240   -0.6890    0.9000 C   0  0  0  0  0  0  0  0  0  0  0  0
   10.1380   -1.0540    1.9470 C   0  0  0  0  0  0  0  0  0  0  0  0
   11.2240   -1.9150    1.7500 C   0  0  0  0  0  0  0  0  0  0  0  0
   11.4990   -2.4160    0.5040 C   0  0  0  0  0  0  0  0  0  0  0  0
   10.6860   -2.0540   -0.5470 C   0  0  0  0  0  0  0  0  0  0  0  0
    9.6020   -1.1920   -0.3470 C   0  0  0  0  0  0  0  0  0  0  0  0
    8.6160   -0.7640   -1.7060 Cl  0  0  0  0  0  0  0  0  0  0  0  0
    8.3110    1.3920    1.8030 C   0  0  0  0  0  0  0  0  0  0  0  0
    9.8720    1.8070    2.4500 Cl  0  0  0  0  0  0  0  0  0  0  0  0
    7.2240    2.2160    1.9810 C   0  0  0  0  0  0  0  0  0  0  0  0
    5.9660    1.9060    1.4680 C   0  0  0  0  0  0  0  0  0  0  0  0
    4.8020    2.4880    1.4880 O   0  0  0  0  0  0  0  0  0  0  0  0
  1  2  1  0
  2  3  2  3
  2 25  1  0
  3  4  1  0
  4  5  2  3
  5  6  1  0
  5  7  1  0
  7  8  2  0
  9  7  1  1
  9 10  1  0
  9 24  1  0
 10 11  1  0
 11 12  2  0
 11 13  1  0
 13 14  1  0
 13 24  1  0
 14 15  1  0
 15 16  1  0
 16 17  1  0
 17 18  1  0
 18 19  2  0
 18 23  1  0
 19 20  1  0
 20 21  2  0
 21 22  1  0
 22 23  2  0
 25 26  2  0
 25 41  1  0
 26 27  1  0
 27 28  2  0
 27 40  1  0
 28 29  1  0
 29 30  1  0
 29 37  2  0
 30 31  2  0
 30 35  1  0
 31 32  1  0
 32 33  2  0
 33 34  1  0
 34 35  2  0
 35 36  1  0
 37 38  1  0
 37 39  1  0
 39 40  2  0
 40 41  1  0
M  END
