
     RDKit          3D

 41 45  0  0  0  0  0  0  0  0999 V2000
    2.9400    1.3430    2.6280 C   0  0  0  0  0  0  0  0  0  0  0  0
    2.2200    0.9050    1.4040 C   0  0  0  0  0  0  0  0  0  0  0  0
    0.8520    0.7750    1.4170 N   0  0  0  0  0  0  0  0  0  0  0  0
    0.1970    0.4060    0.3320 C   0  0  0  0  0  0  0  0  0  0  0  0
   -1.2510    0.4460    0.1690 N   0  0  0  0  0  0  0  0  0  0  0  0
   -2.0340   -0.7080    0.1340 C   0  0  0  0  0  0  0  0  0  0  0  0
   -1.4020   -1.8720    0.8520 C   0  0  0  0  0  0  0  0  0  0  0  0
   -2.2520   -3.0900    0.6770 C   0  0  0  0  0  0  0  0  0  0  0  0
   -1.9820   -4.0480   -0.2850 C   0  0  0  0  0  0  0  0  0  0  0  0
   -2.9660   -5.0220   -0.1720 C   0  0  0  0  0  0  0  0  0  0  0  0
   -3.2280   -6.1940   -0.8410 C   0  0  0  0  0  0  0  0  0  0  0  0
   -4.3100   -6.9500   -0.4850 C   0  0  0  0  0  0  0  0  0  0  0  0
   -5.1420   -6.5440    0.5450 C   0  0  0  0  0  0  0  0  0  0  0  0
   -4.8820   -5.3700    1.2160 C   0  0  0  0  0  0  0  0  0  0  0  0
   -3.7890   -4.5880    0.8690 C   0  0  0  0  0  0  0  0  0  0  0  0
   -3.3040   -3.4440    1.3200 O   0  0  0  0  0  0  0  0  0  0  0  0
   -1.7450    1.8000   -0.1010 C   0  0  1  0  0  0  0  0  0  0  0  0
   -1.9390    1.9260   -1.6400 C   0  0  0  0  0  0  0  0  0  0  0  0
   -3.0430    2.1460    0.5610 C   0  0  0  0  0  0  0  0  0  0  0  0
   -3.3220    3.5940    0.2470 C   0  0  0  0  0  0  0  0  0  0  0  0
   -4.1460    3.9650   -0.7670 C   0  0  0  0  0  0  0  0  0  0  0  0
   -4.3270    5.3240   -1.0500 C   0  0  0  0  0  0  0  0  0  0  0  0
   -3.6520    6.2420   -0.2740 C   0  0  0  0  0  0  0  0  0  0  0  0
   -3.7810    7.6060   -0.5030 O   0  0  0  0  0  0  0  0  0  0  0  0
   -2.8140    5.8490    0.7640 C   0  0  0  0  0  0  0  0  0  0  0  0
   -2.6340    4.5220    1.0400 C   0  0  0  0  0  0  0  0  0  0  0  0
   -1.6010    3.9430    2.3120 Cl  0  0  0  0  0  0  0  0  0  0  0  0
    0.9150    0.1440   -0.8030 N   0  0  0  0  0  0  0  0  0  0  0  0
    2.2460    0.2580   -0.8570 C   0  0  0  0  0  0  0  0  0  0  0  0
    3.0050   -0.0280   -2.0900 C   0  0  0  0  0  0  0  0  0  0  0  0
    2.9440    0.6550    0.2730 C   0  0  0  0  0  0  0  0  0  0  0  0
    4.3420    0.9030    0.1490 C   0  0  0  0  0  0  0  0  0  0  0  0
    4.7430    2.1480    0.1470 O   0  0  0  0  0  0  0  0  0  0  0  0
    5.4460   -0.0370    0.0140 C   0  0  0  0  0  0  0  0  0  0  0  0
    5.4360   -1.3000    0.5380 C   0  0  0  0  0  0  0  0  0  0  0  0
    6.5060   -2.1710    0.3380 C   0  0  0  0  0  0  0  0  0  0  0  0
    7.5990   -1.7450   -0.4080 C   0  0  0  0  0  0  0  0  0  0  0  0
    8.9980   -2.7430   -0.7300 Cl  0  0  0  0  0  0  0  0  0  0  0  0
    7.6190   -0.4530   -0.9490 C   0  0  0  0  0  0  0  0  0  0  0  0
    8.7340   -0.0220   -1.7100 O   0  0  0  0  0  0  0  0  0  0  0  0
    6.5550    0.3630   -0.7300 C   0  0  0  0  0  0  0  0  0  0  0  0
  1  2  1  0
  2  3  2  0
  2 31  1  0
  3  4  1  0
  4  5  1  0
  4 28  2  0
  5  6  1  0
  5 17  1  0
  6  7  1  0
  7  8  1  0
  8  9  2  0
  8 16  1  0
  9 10  1  0
 10 11  2  0
 10 15  1  0
 11 12  1  0
 12 13  2  0
 13 14  1  0
 14 15  2  0
 15 16  1  0
 17 18  1  6
 17 19  1  0
 19 20  1  0
 20 21  2  0
 20 26  1  0
 21 22  1  0
 22 23  2  0
 23 24  1  0
 23 25  1  0
 25 26  2  0
 26 27  1  0
 28 29  1  0
 29 30  1  0
 29 31  2  0
 31 32  1  0
 32 33  2  0
 32 34  1  0
 34 35  2  0
 34 41  1  0
 35 36  1  0
 36 37  2  0
 37 38  1  0
 37 39  1  0
 39 40  1  0
 39 41  2  0
M  END
