
     RDKit          3D

 41 45  0  0  0  0  0  0  0  0999 V2000
   -5.5460    1.3820    0.0330 C   0  0  0  0  0  0  0  0  0  0  0  0
   -4.8830    2.2960    1.0370 C   0  0  0  0  0  0  0  0  0  0  0  0
   -3.5260    2.5440    0.6470 N   0  0  0  0  0  0  0  0  0  0  0  0
   -2.6830    3.4690    1.3750 C   0  0  0  0  0  0  0  0  0  0  0  0
   -3.3220    4.0240    2.3370 O   0  0  0  0  0  0  0  0  0  0  0  0
   -1.3160    3.7270    1.0840 C   0  0  0  0  0  0  0  0  0  0  0  0
   -0.8710    5.0760    1.3410 C   0  0  0  0  0  0  0  0  0  0  0  0
    0.2510    5.5400    0.7850 C   0  0  0  0  0  0  0  0  0  0  0  0
    0.7420    7.2080    1.1010 Cl  0  0  0  0  0  0  0  0  0  0  0  0
    1.0620    4.8300   -0.0520 C   0  0  0  0  0  0  0  0  0  0  0  0
    0.6770    3.5230   -0.3210 C   0  0  0  0  0  0  0  0  0  0  0  0
   -0.4840    2.9870    0.2430 C   0  0  0  0  0  0  0  0  0  0  0  0
   -0.8200    1.7200    0.0190 O   0  0  0  0  0  0  0  0  0  0  0  0
   -0.7770    0.5140   -0.5000 C   0  0  2  0  0  0  0  0  0  0  0  0
   -1.8570   -0.3700    0.0590 C   0  0  0  0  0  0  0  0  0  0  0  0
   -1.9130   -1.7510   -0.3000 N   0  0  0  0  0  0  0  0  0  0  0  0
   -1.2540   -2.6950    0.4880 C   0  0  0  0  0  0  0  0  0  0  0  0
   -0.4830   -2.2930    1.7080 C   0  0  0  0  0  0  0  0  0  0  0  0
   -1.2490   -3.9130    0.2490 O   0  0  0  0  0  0  0  0  0  0  0  0
   -2.7430   -2.1720   -1.4260 C   0  0  1  0  0  0  0  0  0  0  0  0
   -2.2360   -3.1060   -2.3860 C   0  0  0  0  0  0  0  0  0  0  0  0
   -2.5490   -4.5620   -2.2760 C   0  0  0  0  0  0  0  0  0  0  0  0
   -3.6770   -4.9570   -1.4030 C   0  0  0  0  0  0  0  0  0  0  0  0
   -4.2720   -3.9160   -0.5390 C   0  0  0  0  0  0  0  0  0  0  0  0
   -4.1460   -2.5120   -0.9380 C   0  0  0  0  0  0  0  0  0  0  0  0
    0.5500   -0.2400   -0.4990 C   0  0  0  0  0  0  0  0  0  0  0  0
    0.5880   -1.3380   -1.0700 O   0  0  0  0  0  0  0  0  0  0  0  0
    1.6930    0.2880    0.1180 N   0  0  0  0  0  0  0  0  0  0  0  0
    2.9790   -0.2960    0.1700 C   0  0  0  0  0  0  0  0  0  0  0  0
    3.1520   -1.6610    0.0250 C   0  0  0  0  0  0  0  0  0  0  0  0
    4.3930   -2.2530    0.1070 C   0  0  0  0  0  0  0  0  0  0  0  0
    4.5800   -4.0020   -0.0710 Cl  0  0  0  0  0  0  0  0  0  0  0  0
    5.5460   -1.5320    0.3410 C   0  0  0  0  0  0  0  0  0  0  0  0
    5.3910   -0.1440    0.4890 C   0  0  0  0  0  0  0  0  0  0  0  0
    6.5570    0.5690    0.6530 C   0  0  0  0  0  0  0  0  0  0  0  0
    7.8990   -0.0990    0.7410 C   0  0  0  0  0  0  0  0  0  0  0  0
    6.5350    1.9430    0.7490 C   0  0  0  0  0  0  0  0  0  0  0  0
    5.2160    2.5140    0.6670 C   0  0  0  0  0  0  0  0  0  0  0  0
    4.0530    1.8060    0.4930 C   0  0  0  0  0  0  0  0  0  0  0  0
    4.1590    0.4060    0.4030 C   0  0  0  0  0  0  0  0  0  0  0  0
    6.3710    3.4100    0.8550 C   0  0  0  0  0  0  0  0  0  0  0  0
  1  2  1  0
  2  3  1  0
  3  4  1  0
  4  5  2  0
  4  6  1  0
  6  7  2  0
  6 12  1  0
  7  8  1  0
  8  9  1  0
  8 10  2  0
 10 11  1  0
 11 12  2  0
 12 13  1  0
 13 14  1  0
 14 15  1  1
 14 26  1  0
 15 16  1  0
 16 17  1  0
 20 16  1  1
 17 18  1  0
 17 19  2  0
 20 21  1  0
 20 25  1  0
 21 22  1  0
 22 23  1  0
 23 24  1  0
 24 25  1  0
 26 27  2  0
 26 28  1  0
 28 29  1  0
 29 30  2  0
 29 40  1  0
 30 31  1  0
 31 32  1  0
 31 33  2  0
 33 34  1  0
 34 35  2  0
 34 40  1  0
 35 36  1  0
 35 37  1  0
 37 38  2  0
 37 41  1  0
 38 39  1  0
 38 41  1  0
 39 40  2  0
M  END
