
     RDKit          3D

 41 42  0  0  0  0  0  0  0  0999 V2000
   -5.7630    5.8430   -1.2190 C   0  0  0  0  0  0  0  0  0  0  0  0
   -4.9560    7.0190   -0.7780 C   0  0  0  0  0  0  0  0  0  0  0  0
   -5.4680    8.0720   -0.1550 C   0  0  0  0  0  0  0  0  0  0  0  0
   -4.3980    9.0340    0.1300 C   0  0  0  0  0  0  0  0  0  0  0  0
   -3.1910    8.3800   -0.4230 C   0  0  0  0  0  0  0  0  0  0  0  0
   -3.5230    7.1980   -0.9540 C   0  0  0  0  0  0  0  0  0  0  0  0
   -2.6380    6.2850   -1.5780 N   0  0  0  0  0  0  0  0  0  0  0  0
   -2.4810    4.9470   -1.0430 C   0  0  0  0  0  0  0  0  0  0  0  0
   -3.1310    4.6130   -0.0340 O   0  0  0  0  0  0  0  0  0  0  0  0
   -1.6070    4.0320   -1.6470 N   0  0  0  0  0  0  0  0  0  0  0  0
   -1.3390    2.6970   -1.2700 C   0  0  0  0  0  0  0  0  0  0  0  0
   -2.1200    2.0270   -0.3750 C   0  0  0  0  0  0  0  0  0  0  0  0
   -1.8510    0.7170    0.0160 C   0  0  0  0  0  0  0  0  0  0  0  0
   -0.7750    0.0320   -0.4860 C   0  0  0  0  0  0  0  0  0  0  0  0
   -0.4880   -1.2410   -0.1210 O   0  0  0  0  0  0  0  0  0  0  0  0
   -1.1060   -2.0950    0.7890 C   0  0  1  0  0  0  0  0  0  0  0  0
   -1.1750   -1.3510    2.1370 C   0  0  0  0  0  0  0  0  0  0  0  0
   -2.4090   -2.5790    0.3410 C   0  0  0  0  0  0  0  0  0  0  0  0
   -2.8370   -2.1070   -0.7770 O   0  0  0  0  0  0  0  0  0  0  0  0
   -3.2030   -3.4840    1.0190 N   0  0  0  0  0  0  0  0  0  0  0  0
   -4.5490   -3.7900    0.4670 C   0  0  0  0  0  0  0  0  0  0  0  0
   -2.8310   -4.2230    2.1840 C   0  0  0  0  0  0  0  0  0  0  0  0
   -2.3310   -5.6050    1.9490 C   0  0  2  0  0  0  0  0  0  0  0  0
   -1.9820   -6.2260    3.1750 O   0  0  0  0  0  0  0  0  0  0  0  0
   -1.1990   -5.7280    0.9830 C   0  0  0  0  0  0  0  0  0  0  0  0
   -1.5310   -5.1280   -0.2190 O   0  0  0  0  0  0  0  0  0  0  0  0
    0.0480    0.6900   -1.4090 C   0  0  0  0  0  0  0  0  0  0  0  0
    1.1290    0.1640   -1.9920 O   0  0  0  0  0  0  0  0  0  0  0  0
    1.7600   -1.0400   -1.9140 C   0  0  1  0  0  0  0  0  0  0  0  0
    1.5150   -1.8930   -3.1900 C   0  0  0  0  0  0  0  0  0  0  0  0
    3.3030   -0.8730   -1.7830 C   0  0  0  0  0  0  0  0  0  0  0  0
    3.5850   -0.0990   -0.5420 C   0  0  0  0  0  0  0  0  0  0  0  0
    4.8630    0.2550   -0.1890 N   0  0  0  0  0  0  0  0  0  0  0  0
    5.9170   -0.5570    0.1880 C   0  0  2  0  0  0  0  0  0  0  0  0
    6.4860   -1.4740   -0.8360 C   0  0  0  0  0  0  0  0  0  0  0  0
    7.4870   -2.4400   -0.5430 N   0  0  0  0  0  0  0  0  0  0  0  0
    6.1110   -1.4490   -2.0380 O   0  0  0  0  0  0  0  0  0  0  0  0
    5.7450   -1.2640    1.5430 C   0  0  1  0  0  0  0  0  0  0  0  0
    4.5830   -2.1870    1.6040 C   0  0  0  0  0  0  0  0  0  0  0  0
    7.0430   -1.8210    2.0480 C   0  0  0  0  0  0  0  0  0  0  0  0
   -0.2600    2.0090   -1.7750 C   0  0  0  0  0  0  0  0  0  0  0  0
  1  2  1  0
  2  3  2  0
  2  6  1  0
  3  4  1  0
  4  5  1  0
  5  6  2  0
  6  7  1  0
  7  8  1  0
  8  9  2  0
  8 10  1  0
 10 11  1  0
 11 12  2  0
 11 41  1  0
 12 13  1  0
 13 14  2  0
 14 15  1  0
 14 27  1  0
 15 16  1  0
 16 17  1  1
 16 18  1  0
 18 19  2  0
 18 20  1  0
 20 21  1  0
 20 22  1  0
 22 23  1  0
 23 24  1  1
 23 25  1  0
 25 26  1  0
 27 28  1  0
 27 41  2  0
 28 29  1  0
 29 30  1  6
 29 31  1  0
 31 32  1  0
 32 33  1  0
 34 33  1  6
 34 35  1  0
 34 38  1  0
 35 36  1  0
 35 37  2  0
 38 39  1  6
 38 40  1  0
M  END
