
     RDKit          3D

 47 49  0  0  0  0  0  0  0  0999 V2000
    5.5910   -4.6980   -0.5030 C   0  0  0  0  0  0  0  0  0  0  0  0
    5.7090   -4.4050    0.9530 C   0  0  1  0  0  0  0  0  0  0  0  0
    6.8570   -5.3090    1.4670 C   0  0  0  0  0  0  0  0  0  0  0  0
    6.0580   -3.0310    1.3480 C   0  0  0  0  0  0  0  0  0  0  0  0
    5.2010   -1.9510    0.9940 N   0  0  0  0  0  0  0  0  0  0  0  0
    4.8530   -1.4290   -0.2380 C   0  0  0  0  0  0  0  0  0  0  0  0
    5.3720   -1.9590   -1.2580 O   0  0  0  0  0  0  0  0  0  0  0  0
    3.9450   -0.3170   -0.5570 C   0  0  1  0  0  0  0  0  0  0  0  0
    3.2180    0.2860    0.5080 N   0  0  0  0  0  0  0  0  0  0  0  0
    1.7870    0.2610    0.2910 C   0  0  0  0  0  0  0  0  0  0  0  0
    1.0860    1.5500    0.4250 C   0  0  2  0  0  0  0  0  0  0  0  0
    1.1120    2.2620    1.7240 C   0  0  0  0  0  0  0  0  0  0  0  0
    2.4050    2.6700    2.2750 C   0  0  0  0  0  0  0  0  0  0  0  0
    2.9420    3.8770    1.8080 C   0  0  0  0  0  0  0  0  0  0  0  0
    4.1290    4.3900    2.2800 C   0  0  0  0  0  0  0  0  0  0  0  0
    4.8460    3.7200    3.2490 C   0  0  0  0  0  0  0  0  0  0  0  0
    4.3260    2.5290    3.7170 C   0  0  0  0  0  0  0  0  0  0  0  0
    3.1370    2.0320    3.2330 C   0  0  0  0  0  0  0  0  0  0  0  0
   -0.3410    1.4280    0.0470 N   0  0  0  0  0  0  0  0  0  0  0  0
   -0.9290    2.1700   -0.9990 C   0  0  0  0  0  0  0  0  0  0  0  0
   -0.2130    2.9700   -1.6400 O   0  0  0  0  0  0  0  0  0  0  0  0
   -2.3350    2.0480   -1.3690 C   0  0  0  0  0  0  0  0  0  0  0  0
   -3.1380    1.0370   -0.8740 C   0  0  0  0  0  0  0  0  0  0  0  0
   -4.4670    0.9350   -1.2230 C   0  0  0  0  0  0  0  0  0  0  0  0
   -5.3680   -0.0990   -0.7300 C   0  0  0  0  0  0  0  0  0  0  0  0
   -6.4050   -0.3930   -1.3800 O   0  0  0  0  0  0  0  0  0  0  0  0
   -5.1670   -0.8310    0.4720 N   0  0  0  0  0  0  0  0  0  0  0  0
   -6.0800   -1.8550    0.9340 C   0  0  2  0  0  0  0  0  0  0  0  0
   -6.7970   -1.2420    2.1490 C   0  0  0  0  0  0  0  0  0  0  0  0
   -5.4250   -3.1110    1.3230 C   0  0  0  0  0  0  0  0  0  0  0  0
   -5.8140   -3.7210    2.4970 C   0  0  0  0  0  0  0  0  0  0  0  0
   -5.2520   -4.8980    2.9450 C   0  0  0  0  0  0  0  0  0  0  0  0
   -4.2610   -5.4770    2.1770 C   0  0  0  0  0  0  0  0  0  0  0  0
   -3.8530   -4.8810    0.9920 C   0  0  0  0  0  0  0  0  0  0  0  0
   -4.4350   -3.7050    0.5710 C   0  0  0  0  0  0  0  0  0  0  0  0
   -4.9570    1.8900   -2.0890 C   0  0  0  0  0  0  0  0  0  0  0  0
   -4.1960    2.9160   -2.6080 C   0  0  0  0  0  0  0  0  0  0  0  0
   -4.7680    3.8900   -3.4980 N   0  0  0  0  0  0  0  0  0  0  0  0
   -5.3440    5.0640   -2.8670 C   0  0  0  0  0  0  0  0  0  0  0  0
   -4.8060    3.7410   -5.1930 S   0  0  2  0  0  0  0  0  0  0  0  0
   -5.7600    2.2900   -5.5940 C   0  0  0  0  0  0  0  0  0  0  0  0
   -3.3880    3.5920   -5.6990 O   0  0  0  0  0  0  0  0  0  0  0  0
   -5.3900    4.9770   -5.7900 O   0  0  0  0  0  0  0  0  0  0  0  0
   -2.8730    2.9770   -2.2320 C   0  0  0  0  0  0  0  0  0  0  0  0
    4.8330    0.7160   -1.2710 C   0  0  1  0  0  0  0  0  0  0  0  0
    5.8760    1.2510   -0.2970 C   0  0  0  0  0  0  0  0  0  0  0  0
    5.5340    0.1150   -2.3100 O   0  0  0  0  0  0  0  0  0  0  0  0
  2  1  1  6
  2  3  1  0
  2  4  1  0
  4  5  1  0
  5  6  1  0
  6  7  2  0
  6  8  1  0
  8  9  1  1
  8 45  1  0
  9 10  1  0
 11 10  1  1
 11 12  1  0
 11 19  1  0
 12 13  1  0
 13 14  2  0
 13 18  1  0
 14 15  1  0
 15 16  2  0
 16 17  1  0
 17 18  2  0
 19 20  1  0
 20 21  2  0
 20 22  1  0
 22 23  2  0
 22 44  1  0
 23 24  1  0
 24 25  1  0
 24 36  2  0
 25 26  2  0
 25 27  1  0
 27 28  1  0
 28 29  1  1
 28 30  1  0
 30 31  2  0
 30 35  1  0
 31 32  1  0
 32 33  2  0
 33 34  1  0
 34 35  2  0
 36 37  1  0
 37 38  1  0
 37 44  2  0
 38 39  1  0
 38 40  1  0
 40 41  1  1
 40 42  2  0
 40 43  2  0
 45 46  1  1
 45 47  1  0
M  CHG  1   9   1
M  END
