
     RDKit          3D

 18 20  0  0  0  0  0  0  0  0999 V2000
    1.4960    2.9200   -0.5360 N   0  0  0  0  0  0  0  0  0  0  0  0
    0.7360    1.7450   -0.3830 C   0  0  0  0  0  0  0  0  0  0  0  0
   -0.6140    1.7380   -0.3700 N   0  0  0  0  0  0  0  0  0  0  0  0
   -1.0620    0.4800   -0.2090 C   0  0  0  0  0  0  0  0  0  0  0  0
   -2.4570    0.0740   -0.1470 C   0  0  0  0  0  0  0  0  0  0  0  0
   -2.7430   -1.2580    0.0220 C   0  0  0  0  0  0  0  0  0  0  0  0
   -4.0790   -1.6850    0.0870 C   0  0  0  0  0  0  0  0  0  0  0  0
   -5.0920   -0.7510   -0.0210 C   0  0  0  0  0  0  0  0  0  0  0  0
   -4.8210    0.5760   -0.1890 C   0  0  0  0  0  0  0  0  0  0  0  0
   -3.4760    0.9730   -0.2500 C   0  0  0  0  0  0  0  0  0  0  0  0
    0.0300   -0.2990   -0.1210 N   0  0  0  0  0  0  0  0  0  0  0  0
    1.1610    0.4600   -0.2260 C   0  0  0  0  0  0  0  0  0  0  0  0
    2.5320   -0.0300   -0.1760 C   0  0  0  0  0  0  0  0  0  0  0  0
    2.7540   -1.3910   -0.0070 C   0  0  0  0  0  0  0  0  0  0  0  0
    4.0350   -1.9140    0.0470 C   0  0  0  0  0  0  0  0  0  0  0  0
    5.0830   -1.0260   -0.0730 C   0  0  0  0  0  0  0  0  0  0  0  0
    4.8630    0.2880   -0.2350 N   0  0  0  0  0  0  0  0  0  0  0  0
    3.6000    0.8030   -0.2890 C   0  0  0  0  0  0  0  0  0  0  0  0
  1  2  1  0
  2  3  1  0
  2 12  2  0
  3  4  2  0
  4  5  1  0
  4 11  1  0
  5  6  2  0
  5 10  1  0
  6  7  1  0
  7  8  2  0
  8  9  1  0
  9 10  2  0
 11 12  1  0
 12 13  1  0
 13 14  2  0
 13 18  1  0
 14 15  1  0
 15 16  2  0
 16 17  1  0
 17 18  2  0
M  END
