
     RDKit          3D

 18 18  0  0  0  0  0  0  0  0999 V2000
   -2.7300    3.0720    0.7850 C   0  0  0  0  0  0  0  0  0  0  0  0
   -2.8910    2.0110    1.5190 C   0  0  0  0  0  0  0  0  0  0  0  0
   -2.4590    0.6690    1.1410 C   0  0  0  0  0  0  0  0  0  0  0  0
   -1.8120    0.5310   -0.1390 N   0  0  0  0  0  0  0  0  0  0  0  0
   -1.3500   -0.7190   -0.6080 C   0  0  0  0  0  0  0  0  0  0  0  0
   -2.4500   -1.6190   -0.9310 N   0  0  0  0  0  0  0  0  0  0  0  0
   -0.1340   -1.1420   -0.7780 C   0  0  0  0  0  0  0  0  0  0  0  0
    0.0470   -2.5220   -1.2930 C   0  0  0  0  0  0  0  0  0  0  0  0
   -0.9860   -3.2440   -1.5570 N   0  0  0  0  0  0  0  0  0  0  0  0
    1.4060   -2.9960   -1.4760 C   0  0  0  0  0  0  0  0  0  0  0  0
    2.4460   -2.2410   -1.2010 C   0  0  0  0  0  0  0  0  0  0  0  0
    2.3140   -0.8880   -0.6970 C   0  0  0  0  0  0  0  0  0  0  0  0
    1.0880   -0.4000   -0.5090 C   0  0  0  0  0  0  0  0  0  0  0  0
    0.9560    0.9740    0.0380 C   0  0  0  0  0  0  0  0  0  0  0  0
    2.2190    1.5750    0.4010 N   0  0  0  0  0  0  0  0  0  0  0  0
    3.0140    0.9930    1.4590 C   0  0  0  0  0  0  0  0  0  0  0  0
    2.6200   -0.0230    2.0740 O   0  0  0  0  0  0  0  0  0  0  0  0
    4.5540    1.8160    1.8090 S   0  0  0  0  0  0  0  0  0  0  0  0
  1  2  2  0
  2  3  1  0
  3  4  1  0
  4  5  1  0
  5  6  1  0
  5  7  2  3
  7  8  1  0
  7 13  1  0
  8  9  2  0
  8 10  1  0
 10 11  2  0
 11 12  1  0
 12 13  2  0
 13 14  1  0
 14 15  1  0
 15 16  1  0
 16 17  2  0
 16 18  1  0
M  END
