
     RDKit          3D

 18 20  0  0  0  0  0  0  0  0999 V2000
   -4.8350    0.3980   -0.3380 C   0  0  0  0  0  0  0  0  0  0  0  0
   -3.8490   -0.5770    0.2240 C   0  0  0  0  0  0  0  0  0  0  0  0
   -2.6940    0.1090    0.9770 C   0  0  1  0  0  0  0  0  0  0  0  0
   -1.8120   -0.9710    1.4550 C   0  0  0  0  0  0  0  0  0  0  0  0
   -0.3400   -0.7870    1.3000 C   0  0  0  0  0  0  0  0  0  0  0  0
   -0.0100    0.0650    0.0960 C   0  0  2  0  0  0  0  0  0  0  0  0
   -0.7250   -0.5140   -1.0560 N   0  0  0  0  0  0  0  0  0  0  0  0
    1.4200    0.0740   -0.1890 C   0  0  0  0  0  0  0  0  0  0  0  0
    1.9150    0.4660   -1.3970 N   0  0  0  0  0  0  0  0  0  0  0  0
    3.2530    0.3560   -1.4220 C   0  0  0  0  0  0  0  0  0  0  0  0
    4.2120    0.5900   -2.3390 N   0  0  0  0  0  0  0  0  0  0  0  0
    5.5070    0.3600   -2.0480 C   0  0  0  0  0  0  0  0  0  0  0  0
    5.8540   -0.1140   -0.8120 C   0  0  0  0  0  0  0  0  0  0  0  0
    4.9110   -0.3700    0.1620 C   0  0  0  0  0  0  0  0  0  0  0  0
    3.5930   -0.1260   -0.1690 C   0  0  0  0  0  0  0  0  0  0  0  0
    2.4730   -0.2850    0.5500 N   0  0  0  0  0  0  0  0  0  0  0  0
   -0.6340    1.4080    0.3910 C   0  0  0  0  0  0  0  0  0  0  0  0
   -2.1340    1.1710    0.1230 C   0  0  0  0  0  0  0  0  0  0  0  0
  1  2  1  0
  3  2  1  6
  3  4  1  0
  3 18  1  0
  4  5  1  0
  5  6  1  0
  6  7  1  6
  6  8  1  0
  6 17  1  0
  8  9  2  0
  8 16  1  0
  9 10  1  0
 10 11  2  0
 10 15  1  0
 11 12  1  0
 12 13  2  0
 13 14  1  0
 14 15  2  0
 15 16  1  0
 17 18  1  0
M  END
