
     RDKit          3D

 18 19  0  0  0  0  0  0  0  0999 V2000
   -4.2710   -2.2520   -0.4900 C   0  0  0  0  0  0  0  0  0  0  0  0
   -3.0390   -1.5020   -0.3550 N   0  0  0  0  0  0  0  0  0  0  0  0
   -1.8140   -2.1080   -0.7110 C   0  0  0  0  0  0  0  0  0  0  0  0
   -1.8650   -3.6740   -1.2330 S   0  0  0  0  0  0  0  0  0  0  0  0
   -0.5100   -1.4760   -0.6440 C   0  0  0  0  0  0  0  0  0  0  0  0
    0.6310   -2.2280   -1.0120 N   0  0  0  0  0  0  0  0  0  0  0  0
   -0.3440   -0.2640   -0.2790 N   0  0  0  0  0  0  0  0  0  0  0  0
    0.9500    0.3940   -0.2020 C   0  0  0  0  0  0  0  0  0  0  0  0
    2.0320   -0.5150   -0.0900 N   0  0  0  0  0  0  0  0  0  0  0  0
    1.0370    1.6890   -0.2410 C   0  0  0  0  0  0  0  0  0  0  0  0
    2.2300    2.4500   -0.1750 C   0  0  0  0  0  0  0  0  0  0  0  0
    2.1090    3.7430   -0.2380 O   0  0  0  0  0  0  0  0  0  0  0  0
    3.6150    1.9620   -0.0410 C   0  0  2  0  0  0  0  0  0  0  0  0
    4.5410    2.8090    0.8140 C   0  0  0  0  0  0  0  0  0  0  0  0
    4.7210    2.8070   -0.6420 C   0  0  0  0  0  0  0  0  0  0  0  0
   -3.1840   -0.1500    0.1470 C   0  0  1  0  0  0  0  0  0  0  0  0
   -4.0150   -0.0580    1.4470 C   0  0  0  0  0  0  0  0  0  0  0  0
   -2.5480    0.2460    1.4250 C   0  0  0  0  0  0  0  0  0  0  0  0
  1  2  1  0
  2  3  1  0
 16  2  1  1
  3  4  2  0
  3  5  1  0
  5  6  1  0
  5  7  2  3
  7  8  1  0
  8  9  1  0
  8 10  2  3
 10 11  1  0
 11 12  2  0
 13 11  1  6
 13 14  1  0
 13 15  1  0
 14 15  1  0
 16 17  1  0
 16 18  1  0
 17 18  1  0
M  END
