
     RDKit          3D

 18 19  0  0  0  0  0  0  0  0999 V2000
    2.8140   -1.6930    1.2480 C   0  0  0  0  0  0  0  0  0  0  0  0
    1.9120   -1.0290    0.2920 C   0  0  0  0  0  0  0  0  0  0  0  0
    1.9640    0.3310    0.1990 C   0  0  0  0  0  0  0  0  0  0  0  0
    2.8780    1.0350    1.0220 C   0  0  0  0  0  0  0  0  0  0  0  0
    3.2010    2.2670    1.2070 C   0  0  0  0  0  0  0  0  0  0  0  0
    2.5780    3.6710    0.4440 Cl  0  0  0  0  0  0  0  0  0  0  0  0
    1.0310    0.9020   -0.7640 C   0  0  2  0  0  0  0  0  0  0  0  0
    1.7070    1.7200   -1.8310 C   0  0  0  0  0  0  0  0  0  0  0  0
   -0.1690    1.5760   -0.1750 C   0  0  0  0  0  0  0  0  0  0  0  0
   -0.8980    0.6640    0.7180 N   0  0  0  0  0  0  0  0  0  0  0  0
   -1.6400   -0.2420   -0.1020 C   0  0  2  0  0  0  0  0  0  0  0  0
   -3.0580    0.2750   -0.2340 C   0  0  0  0  0  0  0  0  0  0  0  0
   -3.8860   -0.7190    0.5510 C   0  0  0  0  0  0  0  0  0  0  0  0
   -3.1610   -2.0200    0.1800 C   0  0  0  0  0  0  0  0  0  0  0  0
   -1.7340   -1.6300    0.4980 C   0  0  0  0  0  0  0  0  0  0  0  0
   -0.9750   -0.3830   -1.4090 C   0  0  0  0  0  0  0  0  0  0  0  0
   -1.6640   -0.6600   -2.4440 O   0  0  0  0  0  0  0  0  0  0  0  0
    0.4090   -0.2240   -1.5600 N   0  0  0  0  0  0  0  0  0  0  0  0
  1  2  1  0
  2  3  2  3
  3  4  1  0
  3  7  1  0
  4  5  2  3
  5  6  1  0
  7  8  1  6
  7  9  1  0
  7 18  1  0
  9 10  1  0
 10 11  1  0
 11 12  1  6
 11 15  1  0
 11 16  1  0
 12 13  1  0
 13 14  1  0
 14 15  1  0
 16 17  2  0
 16 18  1  0
M  END
