
     RDKit          3D

 18 19  0  0  0  0  0  0  0  0999 V2000
   -2.7450    2.4800   -0.2620 C   0  0  0  0  0  0  0  0  0  0  0  0
   -1.6470    1.6080   -0.9220 C   0  0  0  0  0  0  0  0  0  0  0  0
   -1.0230    0.7340    0.1220 C   0  0  2  0  0  0  0  0  0  0  0  0
   -0.3660    1.4430    1.2490 C   0  0  0  0  0  0  0  0  0  0  0  0
   -0.5160   -0.5180   -0.3010 N   0  0  0  0  0  0  0  0  0  0  0  0
   -1.4910   -1.3610   -1.0100 C   0  0  0  0  0  0  0  0  0  0  0  0
   -2.1220   -2.3100    0.0390 C   0  0  0  0  0  0  0  0  0  0  0  0
   -1.1990   -3.3670    0.3770 N   0  0  0  0  0  0  0  0  0  0  0  0
    0.1410   -3.2560    0.8640 C   0  0  0  0  0  0  0  0  0  0  0  0
    0.5740   -4.1470    1.6120 O   0  0  0  0  0  0  0  0  0  0  0  0
    1.0490   -2.1670    0.5450 C   0  0  0  0  0  0  0  0  0  0  0  0
    0.7870   -0.9520    0.0310 C   0  0  0  0  0  0  0  0  0  0  0  0
    1.8650   -0.0350   -0.1260 C   0  0  0  0  0  0  0  0  0  0  0  0
    1.8930    1.1590   -0.6320 C   0  0  0  0  0  0  0  0  0  0  0  0
    3.2820    1.7570   -0.5770 C   0  0  0  0  0  0  0  0  0  0  0  0
    4.0500    0.6910    0.0630 C   0  0  0  0  0  0  0  0  0  0  0  0
    5.7480    0.7440    0.4350 Cl  0  0  0  0  0  0  0  0  0  0  0  0
    3.2310   -0.3000    0.3030 C   0  0  0  0  0  0  0  0  0  0  0  0
  1  2  1  0
  2  3  1  0
  3  4  1  6
  3  5  1  0
  5  6  1  0
  5 12  1  0
  6  7  1  0
  7  8  1  0
  8  9  1  0
  9 10  2  0
  9 11  1  0
 11 12  2  0
 12 13  1  0
 13 14  2  0
 13 18  1  0
 14 15  1  0
 15 16  1  0
 16 17  1  0
 16 18  2  0
M  END
