
     RDKit          3D

 18 19  0  0  0  0  0  0  0  0999 V2000
   -2.1680    1.1200   -2.2730 C   0  0  0  0  0  0  0  0  0  0  0  0
   -0.9090    0.5250   -1.6350 C   0  0  0  0  0  0  0  0  0  0  0  0
   -1.1310    0.2070   -0.1800 C   0  0  1  0  0  0  0  0  0  0  0  0
   -1.4890    1.5180    0.4790 C   0  0  0  0  0  0  0  0  0  0  0  0
   -1.7580    1.4840    1.9280 C   0  0  0  0  0  0  0  0  0  0  0  0
   -2.3280   -0.7070   -0.1180 C   0  0  0  0  0  0  0  0  0  0  0  0
   -2.1730   -1.9080    0.7530 C   0  0  0  0  0  0  0  0  0  0  0  0
   -0.9570   -2.7260    0.4250 C   0  0  0  0  0  0  0  0  0  0  0  0
    0.1340   -1.8910   -0.1690 C   0  0  0  0  0  0  0  0  0  0  0  0
    0.0490   -0.4610    0.3980 C   0  0  2  0  0  0  0  0  0  0  0  0
   -0.1270   -0.7170    1.7920 O   0  0  0  0  0  0  0  0  0  0  0  0
    1.3170    0.1920    0.2720 N   0  0  0  0  0  0  0  0  0  0  0  0
    2.0200    0.3910   -0.9740 C   0  0  0  0  0  0  0  0  0  0  0  0
    3.4950   -0.0430   -0.7880 C   0  0  0  0  0  0  0  0  0  0  0  0
    4.0880    0.9530    0.1620 C   0  0  0  0  0  0  0  0  0  0  0  0
    3.2340    1.0510    1.3580 C   0  0  0  0  0  0  0  0  0  0  0  0
    3.9680    1.6800    2.8230 Cl  0  0  0  0  0  0  0  0  0  0  0  0
    2.0030    0.7130    1.4050 N   0  0  0  0  0  0  0  0  0  0  0  0
  1  2  1  0
  3  2  1  6
  3  4  1  0
  3  6  1  0
  3 10  1  0
  4  5  1  0
  6  7  1  0
  7  8  1  0
  8  9  1  0
  9 10  1  0
 10 11  1  1
 10 12  1  0
 12 13  1  0
 12 18  1  0
 13 14  1  0
 14 15  1  0
 15 16  1  0
 16 17  1  0
 16 18  2  0
M  END
