
     RDKit          3D

 18 19  0  0  0  0  0  0  0  0999 V2000
   -4.0180    1.2260    1.1080 C   0  0  0  0  0  0  0  0  0  0  0  0
   -2.8080    0.9250    0.6310 C   0  0  0  0  0  0  0  0  0  0  0  0
   -1.9780   -0.0120    1.2880 N   0  0  0  0  0  0  0  0  0  0  0  0
   -0.7250   -0.4800    0.8090 C   0  0  1  0  0  0  0  0  0  0  0  0
   -0.7380   -1.9830    0.6160 C   0  0  1  0  0  0  0  0  0  0  0  0
   -2.0600   -2.4610    0.0600 C   0  0  0  0  0  0  0  0  0  0  0  0
    0.3430   -2.4140   -0.3210 C   0  0  0  0  0  0  0  0  0  0  0  0
    1.5400   -1.4880   -0.3250 C   0  0  0  0  0  0  0  0  0  0  0  0
    1.1690   -0.0760   -0.7300 C   0  0  2  0  0  0  0  0  0  0  0  0
    2.0910    0.8550    0.0230 C   0  0  0  0  0  0  0  0  0  0  0  0
    3.5450    0.5950   -0.3110 C   0  0  0  0  0  0  0  0  0  0  0  0
    4.4270    1.5450    0.4610 C   0  0  0  0  0  0  0  0  0  0  0  0
   -0.1850    0.2110   -0.3210 N   0  0  0  0  0  0  0  0  0  0  0  0
   -0.9590    1.1570   -1.0290 C   0  0  0  0  0  0  0  0  0  0  0  0
   -0.5360    1.7050   -2.0760 O   0  0  0  0  0  0  0  0  0  0  0  0
   -2.3100    1.5540   -0.5790 C   0  0  0  0  0  0  0  0  0  0  0  0
   -2.9800    2.4330   -1.2720 C   0  0  0  0  0  0  0  0  0  0  0  0
   -2.3070    3.1510   -2.7310 Cl  0  0  0  0  0  0  0  0  0  0  0  0
  1  2  2  0
  2  3  1  0
  2 16  1  0
  4  3  1  6
  4  5  1  0
  4 13  1  0
  5  6  1  6
  5  7  1  0
  7  8  1  0
  8  9  1  0
  9 10  1  1
  9 13  1  0
 10 11  1  0
 11 12  1  0
 13 14  1  0
 14 15  2  0
 14 16  1  0
 16 17  2  3
 17 18  1  0
M  END
