
     RDKit          3D

 21 23  0  0  0  0  0  0  0  0999 V2000
    5.3530    3.2650   -0.1290 O   0  0  0  0  0  0  0  0  0  0  0  0
    5.2610    2.2360   -0.8170 N   0  0  0  0  0  0  0  0  0  0  0  0
    5.3090    0.9950   -0.1860 N   0  0  0  0  0  0  0  0  0  0  0  0
    4.1340    0.2020    0.0060 C   0  0  0  0  0  0  0  0  0  0  0  0
    2.9220    0.7390   -0.4130 C   0  0  0  0  0  0  0  0  0  0  0  0
    1.7490    0.0200   -0.2640 C   0  0  0  0  0  0  0  0  0  0  0  0
    1.7330   -1.2380    0.2970 C   0  0  0  0  0  0  0  0  0  0  0  0
    0.5510   -1.9070    0.4220 O   0  0  0  0  0  0  0  0  0  0  0  0
   -0.6820   -1.3340    0.0520 C   0  0  0  0  0  0  0  0  0  0  0  0
   -1.1750   -1.5160   -1.2110 C   0  0  0  0  0  0  0  0  0  0  0  0
   -2.3970   -0.9520   -1.5850 C   0  0  0  0  0  0  0  0  0  0  0  0
   -3.1330   -0.2030   -0.6990 C   0  0  0  0  0  0  0  0  0  0  0  0
   -4.3600    0.3540   -1.1140 C   0  0  0  0  0  0  0  0  0  0  0  0
   -5.0660    1.1050   -0.1990 C   0  0  0  0  0  0  0  0  0  0  0  0
   -4.5540    1.2800    1.0690 C   0  0  0  0  0  0  0  0  0  0  0  0
   -5.1930    1.9610    1.8970 O   0  0  0  0  0  0  0  0  0  0  0  0
   -3.3760    0.7270    1.4230 N   0  0  0  0  0  0  0  0  0  0  0  0
   -2.6430   -0.0170    0.5690 C   0  0  0  0  0  0  0  0  0  0  0  0
   -1.4150   -0.5850    0.9430 C   0  0  0  0  0  0  0  0  0  0  0  0
    2.9310   -1.7600    0.7090 C   0  0  0  0  0  0  0  0  0  0  0  0
    4.1240   -1.0430    0.5630 C   0  0  0  0  0  0  0  0  0  0  0  0
  1  2  2  0
  2  3  1  0
  3  4  1  0
  4  5  2  0
  4 21  1  0
  5  6  1  0
  6  7  2  0
  7  8  1  0
  7 20  1  0
  8  9  1  0
  9 10  2  0
  9 19  1  0
 10 11  1  0
 11 12  2  0
 12 13  1  0
 12 18  1  0
 13 14  2  0
 14 15  1  0
 15 16  2  0
 15 17  1  0
 17 18  1  0
 18 19  2  0
 20 21  2  0
M  END
