
     RDKit          3D

 27 29  0  0  0  0  0  0  0  0999 V2000
    7.6480    1.2180    0.0010 C   0  0  0  0  0  0  0  0  0  0  0  0
    6.1560    1.1130   -0.0040 C   0  0  0  0  0  0  0  0  0  0  0  0
    5.5670   -0.0100    0.6290 C   0  0  0  0  0  0  0  0  0  0  0  0
    4.2240   -0.2080    0.6780 C   0  0  0  0  0  0  0  0  0  0  0  0
    3.5230   -1.6200    1.5050 Cl  0  0  0  0  0  0  0  0  0  0  0  0
    3.3780    0.7060    0.0890 C   0  0  0  0  0  0  0  0  0  0  0  0
    1.8950    0.5750    0.2290 C   0  0  0  0  0  0  0  0  0  0  0  0
    1.4020   -0.6540   -0.2300 N   0  0  0  0  0  0  0  0  0  0  0  0
    0.2310   -0.8430   -0.9840 C   0  0  0  0  0  0  0  0  0  0  0  0
   -1.0320   -1.0960   -0.1900 C   0  0  2  0  0  0  0  0  0  0  0  0
   -1.3860    0.0590    0.5750 N   0  0  0  0  0  0  0  0  0  0  0  0
   -2.0440    1.0360   -0.3000 C   0  0  0  0  0  0  0  0  0  0  0  0
   -3.4810    1.2430    0.0010 C   0  0  1  0  0  0  0  0  0  0  0  0
   -3.7570    1.7870    1.3830 C   0  0  0  0  0  0  0  0  0  0  0  0
   -5.1290    1.9150    1.5130 O   0  0  0  0  0  0  0  0  0  0  0  0
   -5.8790    1.4960    0.4600 C   0  0  0  0  0  0  0  0  0  0  0  0
   -5.4250    2.0750   -0.8660 C   0  0  0  0  0  0  0  0  0  0  0  0
   -4.0170    2.1960   -0.9020 O   0  0  0  0  0  0  0  0  0  0  0  0
   -0.7160   -2.1770    0.8740 C   0  0  0  0  0  0  0  0  0  0  0  0
   -1.9660   -2.9540    1.1600 C   0  0  0  0  0  0  0  0  0  0  0  0
   -2.2230   -3.9050    0.0400 C   0  0  0  0  0  0  0  0  0  0  0  0
   -2.0210   -3.1370   -1.2650 C   0  0  0  0  0  0  0  0  0  0  0  0
   -2.1750   -1.6250   -0.9860 C   0  0  0  0  0  0  0  0  0  0  0  0
    3.8990    1.8030   -0.5400 C   0  0  0  0  0  0  0  0  0  0  0  0
    5.3050    2.0100   -0.5860 C   0  0  0  0  0  0  0  0  0  0  0  0
    5.8220    3.2120   -1.2130 C   0  0  0  0  0  0  0  0  0  0  0  0
    7.0500    3.4490   -1.2130 O   0  0  0  0  0  0  0  0  0  0  0  0
  1  2  1  0
  2  3  2  0
  2 25  1  0
  3  4  1  0
  4  5  1  0
  4  6  2  0
  6  7  1  0
  6 24  1  0
  7  8  1  0
  8  9  1  0
 10  9  1  6
 10 11  1  0
 10 19  1  0
 10 23  1  0
 11 12  1  0
 13 12  1  6
 13 14  1  0
 13 18  1  0
 14 15  1  0
 15 16  1  0
 16 17  1  0
 17 18  1  0
 19 20  1  0
 20 21  1  0
 21 22  1  0
 22 23  1  0
 24 25  2  0
 25 26  1  0
 26 27  2  0
M  CHG  2   8   1  11   1
M  END
