
     RDKit          3D

 27 28  0  0  0  0  0  0  0  0999 V2000
    7.2310    1.2710    1.6770 C   0  0  0  0  0  0  0  0  0  0  0  0
    6.4680   -0.0140    1.5040 C   0  0  0  0  0  0  0  0  0  0  0  0
    5.1200    0.2640    0.9290 N   0  0  1  0  0  0  0  0  0  0  0  0
    4.8010   -0.9400    0.1930 C   0  0  0  0  0  0  0  0  0  0  0  0
    4.2700    0.5460    2.0200 C   0  0  0  0  0  0  0  0  0  0  0  0
    3.0880    1.4230    1.8290 C   0  0  0  0  0  0  0  0  0  0  0  0
    2.1040    1.1300    0.9830 O   0  0  0  0  0  0  0  0  0  0  0  0
    1.7510    0.9270   -0.2900 C   0  0  0  0  0  0  0  0  0  0  0  0
    2.5940    1.0200   -1.3570 C   0  0  0  0  0  0  0  0  0  0  0  0
    2.1740    0.7960   -2.6390 C   0  0  0  0  0  0  0  0  0  0  0  0
    0.8570    0.4620   -2.9020 C   0  0  0  0  0  0  0  0  0  0  0  0
    0.0030    0.3690   -1.8150 C   0  0  0  0  0  0  0  0  0  0  0  0
    0.3820    0.5840   -0.5260 C   0  0  0  0  0  0  0  0  0  0  0  0
   -0.4350    0.5040    0.5660 O   0  0  0  0  0  0  0  0  0  0  0  0
   -1.7910    0.1980    0.6180 C   0  0  0  0  0  0  0  0  0  0  0  0
   -2.0590   -1.0930    0.7430 C   0  0  0  0  0  0  0  0  0  0  0  0
   -3.3110   -1.6790    0.8330 O   0  0  0  0  0  0  0  0  0  0  0  0
   -4.2240   -1.3610    1.8700 C   0  0  0  0  0  0  0  0  0  0  0  0
   -5.5350   -2.0430    1.5770 C   0  0  0  0  0  0  0  0  0  0  0  0
   -5.8140   -2.1490    0.1570 N   0  0  0  0  0  0  0  0  0  0  0  0
   -5.6280   -0.8370   -0.4890 C   0  0  0  0  0  0  0  0  0  0  0  0
   -4.8950   -1.0510   -1.7560 C   0  0  0  0  0  0  0  0  0  0  0  0
   -4.2070    0.1220   -2.3260 C   0  0  0  0  0  0  0  0  0  0  0  0
   -3.6760    1.1630   -1.7950 C   0  0  0  0  0  0  0  0  0  0  0  0
   -3.4900    1.6770   -0.4770 C   0  0  0  0  0  0  0  0  0  0  0  0
   -2.7240    1.3040    0.5290 C   0  0  0  0  0  0  0  0  0  0  0  0
   -2.7450    2.3830    1.9920 Cl  0  0  0  0  0  0  0  0  0  0  0  0
  1  2  1  0
  2  3  1  0
  3  4  1  1
  3  5  1  0
  5  6  1  0
  6  7  1  0
  7  8  1  0
  8  9  2  0
  8 13  1  0
  9 10  1  0
 10 11  2  0
 11 12  1  0
 12 13  2  0
 13 14  1  0
 14 15  1  0
 15 16  2  0
 15 26  1  0
 16 17  1  0
 17 18  1  0
 18 19  1  0
 19 20  1  0
 20 21  1  0
 21 22  1  0
 22 23  1  0
 23 24  2  0
 24 25  1  0
 25 26  2  0
 26 27  1  0
M  CHG  2   3   1  20   1
M  END
