
     RDKit          3D

 24 26  0  0  0  0  0  0  0  0999 V2000
   -3.0400   -0.1710    1.6650 O   0  0  0  0  0  0  0  0  0  0  0  0
   -3.0140   -0.0740    0.3710 C   0  0  0  0  0  0  0  0  0  0  0  0
   -1.7270   -0.1770   -0.1890 N   0  0  0  0  0  0  0  0  0  0  0  0
   -0.5200   -0.3630    0.5270 C   0  0  0  0  0  0  0  0  0  0  0  0
   -0.3470   -0.7780    1.8100 C   0  0  0  0  0  0  0  0  0  0  0  0
    0.9170   -0.8900    2.3870 C   0  0  0  0  0  0  0  0  0  0  0  0
    1.9990   -0.5810    1.6590 N   0  0  0  0  0  0  0  0  0  0  0  0
    1.9120   -0.1620    0.3790 C   0  0  0  0  0  0  0  0  0  0  0  0
    3.0760    0.1600   -0.3720 N   0  0  0  0  0  0  0  0  0  0  0  0
    4.3550    0.0390    0.2340 C   0  0  0  0  0  0  0  0  0  0  0  0
    4.4770   -0.3470    1.4210 O   0  0  0  0  0  0  0  0  0  0  0  0
    5.5640    0.3770   -0.5570 C   0  0  1  0  0  0  0  0  0  0  0  0
    6.7570    0.8920    0.1550 C   0  0  0  0  0  0  0  0  0  0  0  0
    6.8000   -0.5240   -0.3170 C   0  0  1  0  0  0  0  0  0  0  0  0
    6.5990   -1.5470    0.6120 F   0  0  0  0  0  0  0  0  0  0  0  0
    0.6630   -0.0590   -0.1660 C   0  0  0  0  0  0  0  0  0  0  0  0
   -4.2620    0.1170   -0.3240 C   0  0  0  0  0  0  0  0  0  0  0  0
   -5.4300   -0.2390    0.3680 C   0  0  0  0  0  0  0  0  0  0  0  0
   -5.2900   -0.9140    1.9740 Cl  0  0  0  0  0  0  0  0  0  0  0  0
   -6.6900   -0.0890   -0.1430 C   0  0  0  0  0  0  0  0  0  0  0  0
   -6.8380    0.4380   -1.4070 C   0  0  0  0  0  0  0  0  0  0  0  0
   -5.7310    0.7970   -2.1130 C   0  0  0  0  0  0  0  0  0  0  0  0
   -4.4480    0.6320   -1.5600 C   0  0  0  0  0  0  0  0  0  0  0  0
   -3.0640    1.1660   -2.5000 Cl  0  0  0  0  0  0  0  0  0  0  0  0
  1  2  2  0
  2  3  1  0
  2 17  1  0
  3  4  1  0
  4  5  2  0
  4 16  1  0
  5  6  1  0
  6  7  2  0
  7  8  1  0
  8  9  1  0
  8 16  2  0
  9 10  1  0
 10 11  2  0
 12 10  1  1
 12 13  1  0
 12 14  1  0
 13 14  1  0
 14 15  1  1
 17 18  2  0
 17 23  1  0
 18 19  1  0
 18 20  1  0
 20 21  2  0
 21 22  1  0
 22 23  2  0
 23 24  1  0
M  END
