
     RDKit          3D

 27 29  0  0  0  0  0  0  0  0999 V2000
    5.5950    2.8100   -3.0630 C   0  0  0  0  0  0  0  0  0  0  0  0
    4.5180    2.1230   -2.5330 O   0  0  0  0  0  0  0  0  0  0  0  0
    4.6650    0.7820   -2.7560 C   0  0  0  0  0  0  0  0  0  0  0  0
    3.4930   -0.0380   -2.1870 C   0  0  0  0  0  0  0  0  0  0  0  0
    2.5310    0.5220   -1.5900 C   0  0  0  0  0  0  0  0  0  0  0  0
    2.5890    2.3070   -1.4360 Cl  0  0  0  0  0  0  0  0  0  0  0  0
    1.3420   -0.1120   -0.9890 C   0  0  0  0  0  0  0  0  0  0  0  0
    0.5370    0.7320   -0.4530 C   0  0  0  0  0  0  0  0  0  0  0  0
   -0.7980    0.5820    0.2250 C   0  0  0  0  0  0  0  0  0  0  0  0
   -1.1610    1.7030    0.7720 C   0  0  0  0  0  0  0  0  0  0  0  0
   -2.1780    2.3550    1.5180 C   0  0  0  0  0  0  0  0  0  0  0  0
   -2.0330    3.6530    1.9090 C   0  0  0  0  0  0  0  0  0  0  0  0
   -3.0090    4.4340    2.6810 C   0  0  0  0  0  0  0  0  0  0  0  0
   -4.2120    3.7750    2.9160 O   0  0  0  0  0  0  0  0  0  0  0  0
   -4.4290    2.4710    2.5480 C   0  0  0  0  0  0  0  0  0  0  0  0
   -3.4820    1.8090    1.8960 C   0  0  0  0  0  0  0  0  0  0  0  0
   -1.5240   -0.5560   -0.1220 C   0  0  0  0  0  0  0  0  0  0  0  0
   -1.0190   -1.1380   -1.2470 O   0  0  0  0  0  0  0  0  0  0  0  0
   -2.5960   -1.3180    0.3040 N   0  0  0  0  0  0  0  0  0  0  0  0
   -3.3020   -2.5110   -0.3280 C   0  0  0  0  0  0  0  0  0  0  0  0
   -3.2840   -3.0770    1.0760 C   0  0  0  0  0  0  0  0  0  0  0  0
   -3.4850   -1.5930    1.4080 C   0  0  0  0  0  0  0  0  0  0  0  0
    1.4330   -1.5050   -0.6500 C   0  0  0  0  0  0  0  0  0  0  0  0
    2.0220   -2.5840   -1.0830 C   0  0  0  0  0  0  0  0  0  0  0  0
    1.7340   -3.7570   -0.3050 N   0  0  0  0  0  0  0  0  0  0  0  0
    0.5800   -3.3300    0.5140 C   0  0  0  0  0  0  0  0  0  0  0  0
    1.0250   -1.9290    0.7890 C   0  0  0  0  0  0  0  0  0  0  0  0
  1  2  1  0
  2  3  1  0
  3  4  1  0
  4  5  2  3
  5  6  1  0
  5  7  1  0
  7  8  2  3
  7 23  1  0
  8  9  1  0
  9 10  2  3
  9 17  1  0
 10 11  1  0
 11 12  2  0
 11 16  1  0
 12 13  1  0
 13 14  1  0
 14 15  1  0
 15 16  2  0
 17 18  2  0
 17 19  1  0
 19 20  1  0
 19 22  1  0
 20 21  1  0
 21 22  1  0
 23 24  2  0
 23 27  1  0
 24 25  1  0
 25 26  1  0
 26 27  1  0
M  CHG  1  25   1
M  END
