
     RDKit          3D

 27 29  0  0  0  0  0  0  0  0999 V2000
   -7.9500   -2.4610   -1.5310 C   0  0  0  0  0  0  0  0  0  0  0  0
   -6.8350   -1.7250   -1.1100 O   0  0  0  0  0  0  0  0  0  0  0  0
   -6.9040   -0.6010   -0.3260 C   0  0  0  0  0  0  0  0  0  0  0  0
   -8.0790   -0.0790    0.1300 C   0  0  0  0  0  0  0  0  0  0  0  0
   -8.0960    1.0670    0.9250 C   0  0  0  0  0  0  0  0  0  0  0  0
   -9.6130    1.7000    1.4840 Cl  0  0  0  0  0  0  0  0  0  0  0  0
   -6.9360    1.6910    1.2650 C   0  0  0  0  0  0  0  0  0  0  0  0
   -5.7260    1.1720    0.8100 C   0  0  0  0  0  0  0  0  0  0  0  0
   -5.7120    0.0460    0.0280 C   0  0  0  0  0  0  0  0  0  0  0  0
   -4.5460   -0.4950   -0.4400 O   0  0  0  0  0  0  0  0  0  0  0  0
   -3.2790   -0.0350   -0.2200 C   0  0  2  0  0  0  0  0  0  0  0  0
   -2.5430    0.3030   -1.5360 C   0  0  0  0  0  0  0  0  0  0  0  0
   -1.3090    1.0650   -1.1170 C   0  0  0  0  0  0  0  0  0  0  0  0
   -0.4280    0.1880   -0.3810 N   0  0  1  0  0  0  0  0  0  0  0  0
    0.6720    0.9830    0.1210 C   0  0  0  0  0  0  0  0  0  0  0  0
    1.9200    0.1810    0.0090 C   0  0  0  0  0  0  0  0  0  0  0  0
    1.8420   -0.9450   -0.4550 O   0  0  0  0  0  0  0  0  0  0  0  0
    3.2400    0.7210    0.4470 C   0  0  0  0  0  0  0  0  0  0  0  0
    4.2370   -0.2990    0.1990 N   0  0  0  0  0  0  0  0  0  0  0  0
    5.4560    0.3710   -0.1820 C   0  0  2  0  0  0  0  0  0  0  0  0
    6.1610   -0.2790   -1.3400 C   0  0  0  0  0  0  0  0  0  0  0  0
    7.5910    0.2110   -1.2110 C   0  0  0  0  0  0  0  0  0  0  0  0
    7.7240    0.8620    0.1290 C   0  0  0  0  0  0  0  0  0  0  0  0
    6.5220    0.3030    0.9000 C   0  0  2  0  0  0  0  0  0  0  0  0
    6.7380   -1.1420    1.2600 C   0  0  0  0  0  0  0  0  0  0  0  0
   -1.0700   -0.4180    0.7620 C   0  0  0  0  0  0  0  0  0  0  0  0
   -2.3630   -1.1050    0.4070 C   0  0  0  0  0  0  0  0  0  0  0  0
  1  2  1  0
  2  3  1  0
  3  4  2  0
  3  9  1  0
  4  5  1  0
  5  6  1  0
  5  7  2  0
  7  8  1  0
  8  9  2  0
  9 10  1  0
 11 10  1  6
 11 12  1  0
 11 27  1  0
 12 13  1  0
 13 14  1  0
 14 15  1  1
 14 26  1  0
 15 16  1  0
 16 17  2  0
 16 18  1  0
 18 19  1  0
 20 19  1  1
 20 21  1  0
 20 24  1  0
 21 22  1  0
 22 23  1  0
 23 24  1  0
 24 25  1  6
 26 27  1  0
M  CHG  2  14   1  19   1
M  END
