
     RDKit          3D

 27 28  0  0  0  0  0  0  0  0999 V2000
   -5.4740   -1.9970    1.2400 C   0  0  0  0  0  0  0  0  0  0  0  0
   -5.0930   -0.6080    1.3320 C   0  0  0  0  0  0  0  0  0  0  0  0
   -4.1030    0.0210    0.8130 C   0  0  0  0  0  0  0  0  0  0  0  0
   -4.0110    1.4350    1.1090 O   0  0  0  0  0  0  0  0  0  0  0  0
   -5.0980    2.2690    0.7400 C   0  0  0  0  0  0  0  0  0  0  0  0
   -5.3080    2.2020   -0.7510 C   0  0  0  0  0  0  0  0  0  0  0  0
   -6.4450    3.0740   -1.1340 C   0  0  0  0  0  0  0  0  0  0  0  0
   -7.0260    3.6910   -0.2760 O   0  0  0  0  0  0  0  0  0  0  0  0
   -3.0610   -0.4950   -0.0340 C   0  0  0  0  0  0  0  0  0  0  0  0
   -2.1300    0.3740   -0.4520 C   0  0  0  0  0  0  0  0  0  0  0  0
   -1.0200   -0.0570   -1.3250 C   0  0  1  0  0  0  0  0  0  0  0  0
   -0.1500   -0.8200   -0.5480 O   0  0  0  0  0  0  0  0  0  0  0  0
    1.1140   -0.2700   -0.6710 C   0  0  0  0  0  0  0  0  0  0  0  0
    2.1350   -1.0360    0.1440 C   0  0  1  0  0  0  0  0  0  0  0  0
    2.3120   -2.4470   -0.3740 C   0  0  0  0  0  0  0  0  0  0  0  0
    3.8090   -2.6370   -0.5030 C   0  0  0  0  0  0  0  0  0  0  0  0
    4.3070   -1.4990    0.4080 C   0  0  0  0  0  0  0  0  0  0  0  0
    3.4670   -0.4310   -0.0080 N   0  0  2  0  0  0  0  0  0  0  0  0
    3.5680    0.8030    0.6810 C   0  0  0  0  0  0  0  0  0  0  0  0
    4.8930    1.3680    0.8850 C   0  0  0  0  0  0  0  0  0  0  0  0
    5.8790    0.6810    1.6330 N   0  0  0  0  0  0  0  0  0  0  0  0
    5.1960    2.5510    0.3780 C   0  0  0  0  0  0  0  0  0  0  0  0
    6.5300    3.1430    0.5700 C   0  0  0  0  0  0  0  0  0  0  0  0
    4.0240    3.4880   -0.5570 Cl  0  0  0  0  0  0  0  0  0  0  0  0
   -1.6590   -1.0270   -2.3350 C   0  0  0  0  0  0  0  0  0  0  0  0
   -2.0280   -2.2380   -1.5330 C   0  0  0  0  0  0  0  0  0  0  0  0
   -3.0020   -1.9140   -0.4270 C   0  0  0  0  0  0  0  0  0  0  0  0
  1  2  1  0
  2  3  2  3
  3  4  1  0
  3  9  1  0
  4  5  1  0
  5  6  1  0
  6  7  1  0
  7  8  2  0
  9 10  2  0
  9 27  1  0
 10 11  1  0
 11 12  1  1
 11 25  1  0
 12 13  1  0
 14 13  1  6
 14 15  1  0
 14 18  1  0
 15 16  1  0
 16 17  1  0
 17 18  1  0
 18 19  1  1
 19 20  1  0
 20 21  1  0
 20 22  2  3
 22 23  1  0
 22 24  1  0
 25 26  1  0
 26 27  1  0
M  CHG  2  18   1  21   1
M  END
