
     RDKit          3D

 26 28  0  0  0  0  0  0  0  0999 V2000
   -7.8780   -3.2880    0.9560 C   0  0  0  0  0  0  0  0  0  0  0  0
   -8.2380   -2.1270    0.2540 O   0  0  0  0  0  0  0  0  0  0  0  0
   -7.2460   -1.2300   -0.1150 C   0  0  0  0  0  0  0  0  0  0  0  0
   -5.9740   -1.5470   -0.0030 C   0  0  0  0  0  0  0  0  0  0  0  0
   -4.9070   -0.6200   -0.3810 C   0  0  0  0  0  0  0  0  0  0  0  0
   -3.6580   -1.0160   -0.1630 C   0  0  0  0  0  0  0  0  0  0  0  0
   -2.4500   -0.2730   -0.4580 C   0  0  0  0  0  0  0  0  0  0  0  0
   -2.1090    0.2600   -1.6720 C   0  0  0  0  0  0  0  0  0  0  0  0
   -0.9280    0.9870   -1.8000 C   0  0  0  0  0  0  0  0  0  0  0  0
   -0.0650    1.2050   -0.7580 C   0  0  0  0  0  0  0  0  0  0  0  0
    1.1620    1.9730   -0.9640 C   0  0  0  0  0  0  0  0  0  0  0  0
    1.4520    2.4280   -2.0960 O   0  0  0  0  0  0  0  0  0  0  0  0
    2.0280    2.2150    0.0680 O   0  0  0  0  0  0  0  0  0  0  0  0
    3.2340    2.9300    0.0130 C   0  0  0  0  0  0  0  0  0  0  0  0
    4.2630    2.3880   -0.9100 C   0  0  0  0  0  0  0  0  0  0  0  0
    4.6780    1.0580   -0.6090 N   0  0  0  0  0  0  0  0  0  0  0  0
    4.4320    0.6010    0.7270 C   0  0  0  0  0  0  0  0  0  0  0  0
    5.0780   -0.7500    0.9170 C   0  0  0  0  0  0  0  0  0  0  0  0
    6.5650   -0.7640    0.7620 C   0  0  2  0  0  0  0  0  0  0  0  0
    7.1870   -2.1710    0.9690 C   0  0  0  0  0  0  0  0  0  0  0  0
    7.3860   -1.1080    1.9820 C   0  0  0  0  0  0  0  0  0  0  0  0
   -0.3980    0.6720    0.4650 C   0  0  0  0  0  0  0  0  0  0  0  0
   -1.5580   -0.0440    0.6030 C   0  0  0  0  0  0  0  0  0  0  0  0
   -5.2450    0.6930   -0.9240 C   0  0  0  0  0  0  0  0  0  0  0  0
   -6.6520    0.9250   -0.9920 N   0  0  0  0  0  0  0  0  0  0  0  0
   -7.5350    0.0930   -0.6430 C   0  0  0  0  0  0  0  0  0  0  0  0
  1  2  1  0
  2  3  1  0
  3  4  2  0
  3 26  1  0
  4  5  1  0
  5  6  2  3
  5 24  1  0
  6  7  1  0
  7  8  2  0
  7 23  1  0
  8  9  1  0
  9 10  2  0
 10 11  1  0
 10 22  1  0
 11 12  2  0
 11 13  1  0
 13 14  1  0
 14 15  1  0
 15 16  1  0
 16 17  1  0
 17 18  1  0
 19 18  1  1
 19 20  1  0
 19 21  1  0
 20 21  1  0
 22 23  2  0
 24 25  1  0
 25 26  2  0
M  CHG  2  16   1  25   1
M  END
