
     RDKit          3D

 27 29  0  0  0  0  0  0  0  0999 V2000
    6.9650    2.1610   -0.1660 C   0  0  0  0  0  0  0  0  0  0  0  0
    5.6290    1.7880    0.0280 O   0  0  0  0  0  0  0  0  0  0  0  0
    5.2870    0.5000    0.3790 C   0  0  0  0  0  0  0  0  0  0  0  0
    6.2760   -0.4430    0.5430 C   0  0  0  0  0  0  0  0  0  0  0  0
    5.8480   -1.7050    0.8940 C   0  0  0  0  0  0  0  0  0  0  0  0
    4.5270   -1.9820    1.0630 N   0  0  0  0  0  0  0  0  0  0  0  0
    3.5460   -1.0820    0.9090 C   0  0  0  0  0  0  0  0  0  0  0  0
    2.1330   -1.4310    1.1020 C   0  0  0  0  0  0  0  0  0  0  0  0
    1.7470   -2.6770    1.4370 C   0  0  0  0  0  0  0  0  0  0  0  0
    0.2510   -2.8480    1.5910 C   0  0  0  0  0  0  0  0  0  0  0  0
   -0.2860   -2.3260    0.2500 C   0  0  0  0  0  0  0  0  0  0  0  0
   -0.0360   -0.9330    0.0650 N   0  0  1  0  0  0  0  0  0  0  0  0
   -1.2060   -0.1150    0.1840 C   0  0  0  0  0  0  0  0  0  0  0  0
   -2.1410   -0.2390   -0.9560 C   0  0  0  0  0  0  0  0  0  0  0  0
   -1.8720   -1.0800   -2.0140 C   0  0  0  0  0  0  0  0  0  0  0  0
   -2.7540   -1.2020   -3.0950 C   0  0  0  0  0  0  0  0  0  0  0  0
   -2.3570   -2.2860   -4.4090 Cl  0  0  0  0  0  0  0  0  0  0  0  0
   -3.9050   -0.4680   -3.0920 C   0  0  0  0  0  0  0  0  0  0  0  0
   -4.1740    0.3830   -2.0190 C   0  0  0  0  0  0  0  0  0  0  0  0
   -3.3260    0.5140   -0.9570 C   0  0  0  0  0  0  0  0  0  0  0  0
   -3.5300    1.3280    0.1240 O   0  0  0  0  0  0  0  0  0  0  0  0
   -4.5920    2.1740    0.3930 C   0  0  2  0  0  0  0  0  0  0  0  0
   -4.1630    3.6150    0.6030 C   0  0  0  0  0  0  0  0  0  0  0  0
   -5.3000    1.6460    1.6360 C   0  0  0  0  0  0  0  0  0  0  0  0
   -6.3860    2.4650    1.9550 O   0  0  0  0  0  0  0  0  0  0  0  0
    1.0210   -0.4730    0.9610 C   0  0  0  0  0  0  0  0  0  0  0  0
    3.9320    0.1920    0.5590 C   0  0  0  0  0  0  0  0  0  0  0  0
  1  2  1  0
  2  3  1  0
  3  4  2  0
  3 27  1  0
  4  5  1  0
  5  6  2  0
  6  7  1  0
  7  8  1  0
  7 27  2  0
  8  9  2  0
  8 26  1  0
  9 10  1  0
 10 11  1  0
 11 12  1  0
 12 13  1  1
 12 26  1  0
 13 14  1  0
 14 15  2  0
 14 20  1  0
 15 16  1  0
 16 17  1  0
 16 18  2  0
 18 19  1  0
 19 20  2  0
 20 21  1  0
 21 22  1  0
 22 23  1  1
 22 24  1  0
 24 25  1  0
M  CHG  2   6   1  12   1
M  END
