
     RDKit          3D

 27 28  0  0  0  0  0  0  0  0999 V2000
    0.5730   -2.6590   -2.1600 C   0  0  0  0  0  0  0  0  0  0  0  0
    0.7880   -1.4680   -1.5310 C   0  0  0  0  0  0  0  0  0  0  0  0
    2.1540   -1.1030   -1.3930 C   0  0  0  0  0  0  0  0  0  0  0  0
    2.7440   -0.0150   -0.8890 C   0  0  0  0  0  0  0  0  0  0  0  0
    1.7810    1.2790   -0.2580 Cl  0  0  0  0  0  0  0  0  0  0  0  0
    4.1990    0.0540   -0.8670 C   0  0  0  0  0  0  0  0  0  0  0  0
    4.9330    1.0020   -0.4360 C   0  0  0  0  0  0  0  0  0  0  0  0
    4.5830    2.3060    0.1620 C   0  0  0  0  0  0  0  0  0  0  0  0
    4.9410    2.3450    1.5190 O   0  0  0  0  0  0  0  0  0  0  0  0
    6.1020    1.5980    1.7350 C   0  0  0  0  0  0  0  0  0  0  0  0
    7.0220    1.6280    0.5390 C   0  0  0  0  0  0  0  0  0  0  0  0
    6.3800    0.8690   -0.4990 O   0  0  0  0  0  0  0  0  0  0  0  0
   -0.3800   -0.6840   -1.0660 C   0  0  0  0  0  0  0  0  0  0  0  0
   -0.6250   -0.9020    0.3800 C   0  0  1  0  0  0  0  0  0  0  0  0
   -1.6920   -0.1770    1.0620 C   0  0  0  0  0  0  0  0  0  0  0  0
   -3.1060   -0.2440    0.7220 C   0  0  1  0  0  0  0  0  0  0  0  0
   -3.9140    0.6150    1.6340 N   0  0  0  0  0  0  0  0  0  0  0  0
   -3.4760    0.5250    2.9870 C   0  0  0  0  0  0  0  0  0  0  0  0
   -3.3830    0.3510   -0.6150 C   0  0  0  0  0  0  0  0  0  0  0  0
   -3.8600   -0.1990   -1.7700 C   0  0  0  0  0  0  0  0  0  0  0  0
   -3.9170    0.8200   -2.6970 C   0  0  0  0  0  0  0  0  0  0  0  0
   -3.4670    1.9690   -2.0670 C   0  0  0  0  0  0  0  0  0  0  0  0
   -3.3800    3.2920   -2.7480 C   0  0  0  0  0  0  0  0  0  0  0  0
   -3.1690    1.6400   -0.8550 O   0  0  0  0  0  0  0  0  0  0  0  0
   -0.7140   -2.3690    0.6720 N   0  0  2  0  0  0  0  0  0  0  0  0
   -1.8690   -2.9860    0.1380 C   0  0  0  0  0  0  0  0  0  0  0  0
   -0.7060   -2.5060    2.1110 C   0  0  0  0  0  0  0  0  0  0  0  0
  1  2  2  0
  2  3  1  0
  2 13  1  0
  3  4  2  3
  4  5  1  0
  4  6  1  0
  6  7  2  3
  7  8  1  0
  7 12  1  0
  8  9  1  0
  9 10  1  0
 10 11  1  0
 11 12  1  0
 14 13  1  6
 14 15  1  0
 14 25  1  0
 16 15  1  1
 16 17  1  0
 16 19  1  0
 17 18  1  0
 19 20  2  0
 19 24  1  0
 20 21  1  0
 21 22  2  0
 22 23  1  0
 22 24  1  0
 25 26  1  1
 25 27  1  0
M  CHG  2  17   1  25   1
M  END
