
     RDKit          3D

 26 28  0  0  0  0  0  0  0  0999 V2000
    4.5150   -2.9700    1.2340 C   0  0  0  0  0  0  0  0  0  0  0  0
    4.3970   -1.5960    1.8120 C   0  0  0  0  0  0  0  0  0  0  0  0
    3.9740   -0.5700    0.7840 C   0  0  2  0  0  0  0  0  0  0  0  0
    2.6160   -0.9120    0.1760 C   0  0  0  0  0  0  0  0  0  0  0  0
    2.2380    0.3320   -0.5490 N   0  0  0  0  0  0  0  0  0  0  0  0
    0.8700    0.6110   -0.5520 C   0  0  0  0  0  0  0  0  0  0  0  0
   -0.0340   -0.2350    0.0420 N   0  0  0  0  0  0  0  0  0  0  0  0
   -1.3490   -0.0330    0.0730 C   0  0  0  0  0  0  0  0  0  0  0  0
   -2.2780   -0.9900    0.7330 C   0  0  1  0  0  0  0  0  0  0  0  0
   -3.1260   -0.2570    1.7340 C   0  0  0  0  0  0  0  0  0  0  0  0
   -4.5210   -0.8560    1.6420 C   0  0  0  0  0  0  0  0  0  0  0  0
   -4.4250   -1.9200    0.5590 C   0  0  0  0  0  0  0  0  0  0  0  0
   -3.2960   -1.3970   -0.3190 C   0  0  1  0  0  0  0  0  0  0  0  0
   -3.7500   -0.2480   -0.9610 O   0  0  0  0  0  0  0  0  0  0  0  0
   -1.8500    1.0670   -0.5090 N   0  0  0  0  0  0  0  0  0  0  0  0
   -1.0320    1.9640   -1.1230 C   0  0  0  0  0  0  0  0  0  0  0  0
   -1.5570    3.1280   -1.7400 N   0  0  0  0  0  0  0  0  0  0  0  0
   -2.9610    3.3890   -1.7330 C   0  0  0  0  0  0  0  0  0  0  0  0
   -3.6860    2.9250   -2.7230 C   0  0  0  0  0  0  0  0  0  0  0  0
   -3.1400    2.2100   -3.7420 F   0  0  0  0  0  0  0  0  0  0  0  0
   -5.4110    3.2080   -2.7780 Cl  0  0  0  0  0  0  0  0  0  0  0  0
    0.3280    1.7250   -1.1380 C   0  0  0  0  0  0  0  0  0  0  0  0
    1.3090    2.9370   -1.9490 Cl  0  0  0  0  0  0  0  0  0  0  0  0
    3.2500    1.1090   -1.1620 C   0  0  0  0  0  0  0  0  0  0  0  0
    4.6590    0.5990   -1.0150 C   0  0  0  0  0  0  0  0  0  0  0  0
    4.8330   -0.5450   -0.3070 O   0  0  0  0  0  0  0  0  0  0  0  0
  1  2  1  0
  3  2  1  1
  3  4  1  0
  3 26  1  0
  4  5  1  0
  5  6  1  0
  5 24  1  0
  6  7  2  0
  6 22  1  0
  7  8  1  0
  9  8  1  6
  8 15  2  0
  9 10  1  0
  9 13  1  0
 10 11  1  0
 11 12  1  0
 12 13  1  0
 13 14  1  1
 15 16  1  0
 16 17  1  0
 16 22  2  0
 17 18  1  0
 18 19  2  3
 19 20  1  0
 19 21  1  0
 22 23  1  0
 24 25  1  0
 25 26  1  0
M  END
