
     RDKit          3D

 26 28  0  0  0  0  0  0  0  0999 V2000
    5.6320    1.9280   -0.2490 C   0  0  0  0  0  0  0  0  0  0  0  0
    4.3990    1.1300   -0.0230 C   0  0  0  0  0  0  0  0  0  0  0  0
    3.1750    1.7690    0.1010 C   0  0  0  0  0  0  0  0  0  0  0  0
    2.0250    1.0980    0.3090 N   0  0  0  0  0  0  0  0  0  0  0  0
    1.9740   -0.2360    0.4130 C   0  0  0  0  0  0  0  0  0  0  0  0
    0.7810   -0.9700    0.6320 N   0  0  0  0  0  0  0  0  0  0  0  0
   -0.4920   -0.3240    0.7630 C   0  0  0  0  0  0  0  0  0  0  0  0
   -0.4450    0.9270    0.6660 O   0  0  0  0  0  0  0  0  0  0  0  0
   -1.7310   -1.0680    0.9890 C   0  0  0  0  0  0  0  0  0  0  0  0
   -2.9880   -0.2620    1.0860 C   0  0  2  0  0  0  0  0  0  0  0  0
   -4.1100   -1.3090    1.3280 C   0  0  0  0  0  0  0  0  0  0  0  0
   -4.0230   -2.2170    0.1220 C   0  0  0  0  0  0  0  0  0  0  0  0
   -3.7600   -3.4200    0.1730 O   0  0  0  0  0  0  0  0  0  0  0  0
   -4.2780   -1.5540   -1.1190 N   0  0  0  0  0  0  0  0  0  0  0  0
   -3.9170   -0.1610   -1.2040 C   0  0  0  0  0  0  0  0  0  0  0  0
   -4.1960    0.5560   -2.3280 C   0  0  0  0  0  0  0  0  0  0  0  0
   -3.9400    1.8830   -2.4390 N   0  0  0  0  0  0  0  0  0  0  0  0
   -3.3910    2.5410   -1.4150 C   0  0  0  0  0  0  0  0  0  0  0  0
   -3.1010    1.8230   -0.2630 C   0  0  0  0  0  0  0  0  0  0  0  0
   -3.3460    0.4800   -0.1230 C   0  0  0  0  0  0  0  0  0  0  0  0
    3.1710   -0.9060    0.2950 C   0  0  0  0  0  0  0  0  0  0  0  0
    4.3730   -0.2460    0.0800 C   0  0  0  0  0  0  0  0  0  0  0  0
    5.6320   -0.9990   -0.0460 C   0  0  1  0  0  0  0  0  0  0  0  0
    6.2490   -0.8230   -1.2570 F   0  0  0  0  0  0  0  0  0  0  0  0
    6.8140   -0.4590    1.2000 Cl  0  0  0  0  0  0  0  0  0  0  0  0
    5.2870   -2.7200    0.2060 Cl  0  0  0  0  0  0  0  0  0  0  0  0
  1  2  1  0
  2  3  2  0
  2 22  1  0
  3  4  1  0
  4  5  2  0
  5  6  1  0
  5 21  1  0
  6  7  1  0
  7  8  2  0
  7  9  1  0
 10  9  1  6
 10 11  1  0
 10 20  1  0
 11 12  1  0
 12 13  2  0
 12 14  1  0
 14 15  1  0
 15 16  2  0
 15 20  1  0
 16 17  1  0
 17 18  2  0
 18 19  1  0
 19 20  2  0
 21 22  2  0
 22 23  1  0
 23 24  1  6
 23 25  1  0
 23 26  1  0
M  END
