
     RDKit          3D

  6  5  0  0  0  0  0  0  0  0999 V2000
   -0.9870    0.7770   -2.2210 C   0  0  0  0  0  0  0  0  0  0  0  0
   -0.7860    1.0780   -0.9470 C   0  0  0  0  0  0  0  0  0  0  0  0
   -0.1060    0.1860   -0.0330 C   0  0  0  0  0  0  0  0  0  0  0  0
    0.3690   -1.0570   -0.4980 N   0  0  0  0  0  0  0  0  0  0  0  0
    0.0670    0.5280    1.2110 C   0  0  0  0  0  0  0  0  0  0  0  0
    0.7370   -0.3660    2.0860 N   0  0  0  0  0  0  0  0  0  0  0  0
  1  2  2  0
  2  3  1  0
  3  4  1  0
  3  5  2  3
  5  6  1  0
M  CHG  2   4   1   6   1
M  END
