
     RDKit          3D

 26 28  0  0  0  0  0  0  0  0999 V2000
    5.7360    0.5150    1.9530 C   0  0  0  0  0  0  0  0  0  0  0  0
    6.2440    0.0210    0.6440 C   0  0  0  0  0  0  0  0  0  0  0  0
    5.5330    0.5150   -0.5470 C   0  0  0  0  0  0  0  0  0  0  0  0
    4.1260    0.1390   -0.6850 C   0  0  0  0  0  0  0  0  0  0  0  0
    3.1450    0.5530    0.3630 C   0  0  0  0  0  0  0  0  0  0  0  0
    1.7790    0.0950   -0.0250 N   0  0  0  0  0  0  0  0  0  0  0  0
    1.2050   -1.1150    0.2980 N   0  0  0  0  0  0  0  0  0  0  0  0
    0.0240   -1.2310   -0.1790 C   0  0  0  0  0  0  0  0  0  0  0  0
   -1.0330   -2.2470   -0.1600 C   0  0  0  0  0  0  0  0  0  0  0  0
   -0.7610   -3.4380    0.0030 O   0  0  0  0  0  0  0  0  0  0  0  0
   -2.3540   -1.8050   -0.3340 N   0  0  0  0  0  0  0  0  0  0  0  0
   -2.6290   -0.4720   -0.8010 C   0  0  1  0  0  0  0  0  0  0  0  0
   -2.7160   -0.6190   -2.3340 C   0  0  0  0  0  0  0  0  0  0  0  0
   -3.9450    0.0000   -0.2740 C   0  0  0  0  0  0  0  0  0  0  0  0
   -5.0000    0.2310   -1.0300 C   0  0  0  0  0  0  0  0  0  0  0  0
   -6.0690    0.6770   -0.1110 C   0  0  0  0  0  0  0  0  0  0  0  0
   -5.4900    0.6690    1.2260 C   0  0  0  0  0  0  0  0  0  0  0  0
   -4.2090    0.2600    1.1290 C   0  0  0  0  0  0  0  0  0  0  0  0
   -3.3410    0.1410    2.2970 C   0  0  1  0  0  0  0  0  0  0  0  0
   -4.0270    0.5860    3.4400 F   0  0  0  0  0  0  0  0  0  0  0  0
   -2.9210   -1.5640    2.6820 Cl  0  0  0  0  0  0  0  0  0  0  0  0
   -1.8490    1.0630    2.2420 Cl  0  0  0  0  0  0  0  0  0  0  0  0
   -1.5830    0.4560   -0.5420 N   0  0  0  0  0  0  0  0  0  0  0  0
   -0.3350   -0.0140   -1.0040 C   0  0  1  0  0  0  0  0  0  0  0  0
    0.8420    0.8290   -0.7930 C   0  0  0  0  0  0  0  0  0  0  0  0
    1.0790    2.0150   -1.1860 O   0  0  0  0  0  0  0  0  0  0  0  0
  1  2  1  0
  2  3  1  0
  3  4  1  0
  4  5  1  0
  5  6  1  0
  6  7  1  0
  6 25  1  0
  7  8  2  0
  8  9  1  0
  8 24  1  0
  9 10  2  0
  9 11  1  0
 11 12  1  0
 12 13  1  6
 12 14  1  0
 12 23  1  0
 14 15  2  0
 14 18  1  0
 15 16  1  0
 16 17  1  0
 17 18  2  0
 18 19  1  0
 19 20  1  1
 19 21  1  0
 19 22  1  0
 24 23  1  1
 24 25  1  0
 25 26  2  0
M  END
