
     RDKit          3D

 26 28  0  0  0  0  0  0  0  0999 V2000
   -1.5590   -0.0260    2.8360 C   0  0  0  0  0  0  0  0  0  0  0  0
   -2.6220    0.1010    1.7810 C   0  0  0  0  0  0  0  0  0  0  0  0
   -2.1680   -0.2970    0.4180 C   0  0  2  0  0  0  0  0  0  0  0  0
   -1.7370   -1.7120    0.4460 C   0  0  0  0  0  0  0  0  0  0  0  0
   -1.8020   -2.3450    1.5260 O   0  0  0  0  0  0  0  0  0  0  0  0
   -1.2480   -2.3990   -0.6950 N   0  0  0  0  0  0  0  0  0  0  0  0
   -0.8320   -3.7890   -0.6340 C   0  0  0  0  0  0  0  0  0  0  0  0
   -1.1130    0.5700   -0.0870 N   0  0  0  0  0  0  0  0  0  0  0  0
    0.2000    0.3280   -0.1940 C   0  0  0  0  0  0  0  0  0  0  0  0
    0.7630   -0.7770    0.1560 N   0  0  0  0  0  0  0  0  0  0  0  0
    2.1590   -0.9950    0.0270 C   0  0  0  0  0  0  0  0  0  0  0  0
    2.6210   -1.8810   -0.8360 C   0  0  0  0  0  0  0  0  0  0  0  0
    4.0540   -2.1650   -1.0300 C   0  0  0  0  0  0  0  0  0  0  0  0
    4.8240   -1.3690   -0.1780 O   0  0  0  0  0  0  0  0  0  0  0  0
    4.3510   -0.4450    0.7220 C   0  0  0  0  0  0  0  0  0  0  0  0
    3.0590   -0.2250    0.8610 C   0  0  0  0  0  0  0  0  0  0  0  0
    2.4840    0.9620    2.0200 Cl  0  0  0  0  0  0  0  0  0  0  0  0
    0.8520    1.3730   -0.7070 N   0  0  0  0  0  0  0  0  0  0  0  0
   -0.0550    2.3340   -0.9470 C   0  0  0  0  0  0  0  0  0  0  0  0
    0.0760    3.6030   -1.4690 C   0  0  0  0  0  0  0  0  0  0  0  0
    1.6490    4.2320   -1.9600 Cl  0  0  0  0  0  0  0  0  0  0  0  0
   -1.0290    4.4190   -1.6210 C   0  0  0  0  0  0  0  0  0  0  0  0
   -2.2470    3.8970   -1.2270 C   0  0  0  0  0  0  0  0  0  0  0  0
   -3.3270    4.7070   -1.3810 F   0  0  0  0  0  0  0  0  0  0  0  0
   -2.3740    2.6270   -0.7060 C   0  0  0  0  0  0  0  0  0  0  0  0
   -1.2760    1.8220   -0.5570 C   0  0  0  0  0  0  0  0  0  0  0  0
  1  2  1  0
  3  2  1  1
  3  4  1  0
  3  8  1  0
  4  5  2  0
  4  6  1  0
  6  7  1  0
  8  9  1  0
  8 26  1  0
  9 10  2  3
  9 18  1  0
 10 11  1  0
 11 12  2  0
 11 16  1  0
 12 13  1  0
 13 14  1  0
 14 15  1  0
 15 16  2  0
 16 17  1  0
 18 19  1  0
 19 20  2  0
 19 26  1  0
 20 21  1  0
 20 22  1  0
 22 23  2  0
 23 24  1  0
 23 25  1  0
 25 26  2  0
M  END
