
     RDKit          3D

 26 28  0  0  0  0  0  0  0  0999 V2000
    8.7580    1.5130   -1.2550 N   0  0  0  0  0  0  0  0  0  0  0  0
    7.7110    1.1780   -0.9610 C   0  0  0  0  0  0  0  0  0  0  0  0
    6.3710    0.7630   -0.6090 C   0  0  0  0  0  0  0  0  0  0  0  0
    5.3820    0.6850   -1.5650 C   0  0  0  0  0  0  0  0  0  0  0  0
    4.0990    0.2780   -1.1790 C   0  0  0  0  0  0  0  0  0  0  0  0
    2.8780    0.1280   -2.4050 Cl  0  0  0  0  0  0  0  0  0  0  0  0
    3.8340   -0.0340    0.1150 C   0  0  0  0  0  0  0  0  0  0  0  0
    2.5350   -0.4160    0.6690 C   0  0  0  0  0  0  0  0  0  0  0  0
    2.5180   -1.0670    1.7840 O   0  0  0  0  0  0  0  0  0  0  0  0
    1.2810   -0.1500    0.1270 N   0  0  0  0  0  0  0  0  0  0  0  0
    0.0120   -0.5180    0.6400 C   0  0  0  0  0  0  0  0  0  0  0  0
   -0.2690   -1.1730    1.7930 C   0  0  0  0  0  0  0  0  0  0  0  0
   -1.5660   -1.4880    2.1980 C   0  0  0  0  0  0  0  0  0  0  0  0
   -2.6190   -1.1460    1.4440 N   0  0  0  0  0  0  0  0  0  0  0  0
   -2.3870   -0.4950    0.2920 C   0  0  0  0  0  0  0  0  0  0  0  0
   -3.4950   -0.1100   -0.5480 N   0  0  0  0  0  0  0  0  0  0  0  0
   -4.8370   -0.4050   -0.1830 C   0  0  0  0  0  0  0  0  0  0  0  0
   -5.0040   -1.0130    0.8980 O   0  0  0  0  0  0  0  0  0  0  0  0
   -5.9990   -0.0280   -1.0170 C   0  0  1  0  0  0  0  0  0  0  0  0
   -5.8710    1.3220   -1.7240 C   0  0  0  0  0  0  0  0  0  0  0  0
   -5.8780    0.0570   -2.4920 C   0  0  1  0  0  0  0  0  0  0  0  0
   -4.7420   -0.3600   -3.1250 F   0  0  0  0  0  0  0  0  0  0  0  0
   -1.1140   -0.1750   -0.1250 C   0  0  0  0  0  0  0  0  0  0  0  0
    4.8650    0.0540    1.0640 C   0  0  0  0  0  0  0  0  0  0  0  0
    4.5810   -0.3340    2.7360 Cl  0  0  0  0  0  0  0  0  0  0  0  0
    6.1220    0.4490    0.7040 C   0  0  0  0  0  0  0  0  0  0  0  0
  1  2  3  0
  2  3  1  0
  3  4  2  0
  3 26  1  0
  4  5  1  0
  5  6  1  0
  5  7  2  0
  7  8  1  0
  7 24  1  0
  8  9  2  0
  8 10  1  0
 10 11  1  0
 11 12  2  0
 11 23  1  0
 12 13  1  0
 13 14  2  0
 14 15  1  0
 15 16  1  0
 15 23  2  0
 16 17  1  0
 17 18  2  0
 19 17  1  1
 19 20  1  0
 19 21  1  0
 20 21  1  0
 21 22  1  1
 24 25  1  0
 24 26  2  0
M  END
