
     RDKit          3D

 23 26  0  0  0  0  0  0  0  0999 V2000
    2.5760   -3.2380   -0.1750 C   0  0  0  0  0  0  0  0  0  0  0  0
    1.4680   -2.2870   -0.4130 C   0  0  0  0  0  0  0  0  0  0  0  0
    0.5340   -2.5170   -1.3430 C   0  0  0  0  0  0  0  0  0  0  0  0
   -0.5320   -1.6040   -1.5770 C   0  0  0  0  0  0  0  0  0  0  0  0
   -1.4860   -1.9500   -2.6230 C   0  0  0  0  0  0  0  0  0  0  0  0
   -0.5570   -0.4740   -0.7990 C   0  0  0  0  0  0  0  0  0  0  0  0
   -1.5650    0.4630   -0.9810 C   0  0  0  0  0  0  0  0  0  0  0  0
   -2.5390    0.2700   -1.9050 C   0  0  0  0  0  0  0  0  0  0  0  0
   -3.5280    1.2300   -2.0430 N   0  0  0  0  0  0  0  0  0  0  0  0
   -3.5450    2.3230   -1.3020 C   0  0  0  0  0  0  0  0  0  0  0  0
   -2.5790    2.5510   -0.3620 C   0  0  0  0  0  0  0  0  0  0  0  0
   -1.5720    1.6160   -0.1910 C   0  0  0  0  0  0  0  0  0  0  0  0
   -0.6100    1.8410    0.7580 C   0  0  0  0  0  0  0  0  0  0  0  0
   -0.6980    2.9510    1.4630 N   0  0  0  0  0  0  0  0  0  0  0  0
    0.1790    3.2350    2.3950 N   0  0  0  0  0  0  0  0  0  0  0  0
    1.1980    2.3640    2.6390 C   0  0  0  0  0  0  0  0  0  0  0  0
    2.1590    2.6500    3.6440 N   0  0  0  0  0  0  0  0  0  0  0  0
    1.3400    1.1720    1.9230 C   0  0  0  0  0  0  0  0  0  0  0  0
    2.4200    0.3580    2.2800 C   0  0  0  0  0  0  0  0  0  0  0  0
    3.3000   -0.3250    2.5610 N   0  0  0  0  0  0  0  0  0  0  0  0
    0.4130    0.9030    0.9560 C   0  0  0  0  0  0  0  0  0  0  0  0
    0.4440   -0.2300    0.1970 C   0  0  0  0  0  0  0  0  0  0  0  0
    1.4340   -1.1410    0.3700 C   0  0  0  0  0  0  0  0  0  0  0  0
  1  2  1  0
  2  3  2  0
  2 23  1  0
  3  4  1  0
  4  5  1  0
  4  6  2  0
  6  7  1  0
  6 22  1  0
  7  8  2  0
  7 12  1  0
  8  9  1  0
  9 10  2  0
 10 11  1  0
 11 12  2  0
 12 13  1  0
 13 14  2  0
 13 21  1  0
 14 15  1  0
 15 16  2  0
 16 17  1  0
 16 18  1  0
 18 19  1  0
 18 21  2  0
 19 20  3  0
 21 22  1  0
 22 23  2  0
M  END
