
     RDKit          3D

 24 27  0  0  0  0  0  0  0  0999 V2000
   -0.2810    2.8840    1.7570 C   0  0  0  0  0  0  0  0  0  0  0  0
   -1.2280    1.7060    1.6790 C   0  0  0  0  0  0  0  0  0  0  0  0
   -1.3500    1.3020    0.2170 C   0  0  1  0  0  0  0  0  0  0  0  0
   -0.0870    0.9380   -0.2940 N   0  0  0  0  0  0  0  0  0  0  0  0
    0.1960   -0.1220   -0.9120 C   0  0  0  0  0  0  0  0  0  0  0  0
    1.5120   -0.3400   -1.3620 N   0  0  0  0  0  0  0  0  0  0  0  0
    2.6830    0.0760   -0.6810 C   0  0  0  0  0  0  0  0  0  0  0  0
    2.7070    0.7280    0.5310 C   0  0  0  0  0  0  0  0  0  0  0  0
    3.8660    1.1320    1.1700 C   0  0  0  0  0  0  0  0  0  0  0  0
    5.0590    0.8570    0.5420 C   0  0  0  0  0  0  0  0  0  0  0  0
    6.3380    1.1350    0.9350 C   0  0  0  0  0  0  0  0  0  0  0  0
    7.1560    0.6440   -0.0590 C   0  0  0  0  0  0  0  0  0  0  0  0
    6.3280    0.0930   -1.0060 C   0  0  0  0  0  0  0  0  0  0  0  0
    5.0370    0.2160   -0.6500 N   0  0  0  0  0  0  0  0  0  0  0  0
    3.9050   -0.1510   -1.2230 N   0  0  0  0  0  0  0  0  0  0  0  0
   -0.8530   -1.0780   -1.1380 N   0  0  0  0  0  0  0  0  0  0  0  0
   -2.1720   -0.8390   -0.6790 C   0  0  0  0  0  0  0  0  0  0  0  0
   -2.4090    0.3330   -0.0130 C   0  0  0  0  0  0  0  0  0  0  0  0
   -3.7070    0.5880    0.4490 C   0  0  0  0  0  0  0  0  0  0  0  0
   -4.6640   -0.3540    0.2070 C   0  0  0  0  0  0  0  0  0  0  0  0
   -4.4050   -1.5310   -0.4660 C   0  0  0  0  0  0  0  0  0  0  0  0
   -5.4930   -2.5190   -0.6980 C   0  0  0  0  0  0  0  0  0  0  0  0
   -3.1260   -1.8130   -0.9380 C   0  0  0  0  0  0  0  0  0  0  0  0
   -2.8970   -3.0510   -1.6350 C   0  0  0  0  0  0  0  0  0  0  0  0
  1  2  1  0
  3  2  1  1
  3  4  1  0
  3 18  1  0
  4  5  2  0
  5  6  1  0
  5 16  1  0
  6  7  1  0
  7  8  1  0
  7 15  2  0
  8  9  2  0
  9 10  1  0
 10 11  2  0
 10 14  1  0
 11 12  1  0
 12 13  2  0
 13 14  1  0
 14 15  1  0
 16 17  1  0
 17 18  2  0
 17 23  1  0
 18 19  1  0
 19 20  2  0
 20 21  1  0
 21 22  1  0
 21 23  2  0
 23 24  1  0
M  END
