
     RDKit          3D

 24 27  0  0  0  0  0  0  0  0999 V2000
   -1.4840    2.3970   -1.2420 C   0  0  0  0  0  0  0  0  0  0  0  0
   -1.9330    1.2090   -0.4830 C   0  0  0  0  0  0  0  0  0  0  0  0
   -1.1530    0.6730    0.4930 C   0  0  0  0  0  0  0  0  0  0  0  0
    0.1380    1.2400    0.7650 N   0  0  0  0  0  0  0  0  0  0  0  0
    0.9450    0.7070    1.7980 N   0  0  0  0  0  0  0  0  0  0  0  0
    2.1400    0.3430    1.5150 C   0  0  0  0  0  0  0  0  0  0  0  0
    2.6180    0.4710    0.2350 C   0  0  0  0  0  0  0  0  0  0  0  0
    3.9080    0.0720   -0.0440 C   0  0  0  0  0  0  0  0  0  0  0  0
    4.4420    0.1790   -1.3190 C   0  0  0  0  0  0  0  0  0  0  0  0
    5.7260   -0.2140   -1.6140 C   0  0  0  0  0  0  0  0  0  0  0  0
    6.4900   -0.7300   -0.5890 C   0  0  0  0  0  0  0  0  0  0  0  0
    6.0010   -0.8540    0.6900 C   0  0  0  0  0  0  0  0  0  0  0  0
    4.6910   -0.4450    0.9570 C   0  0  0  0  0  0  0  0  0  0  0  0
    4.1850   -0.5540    2.1950 N   0  0  0  0  0  0  0  0  0  0  0  0
    2.9460   -0.1700    2.4630 N   0  0  0  0  0  0  0  0  0  0  0  0
   -1.5730   -0.4000    1.2000 N   0  0  0  0  0  0  0  0  0  0  0  0
   -2.7710   -0.9480    0.9410 C   0  0  0  0  0  0  0  0  0  0  0  0
   -3.1920   -2.0480    1.6770 C   0  0  0  0  0  0  0  0  0  0  0  0
   -4.4160   -2.6130    1.4220 C   0  0  0  0  0  0  0  0  0  0  0  0
   -5.2650   -2.1330    0.4520 C   0  0  0  0  0  0  0  0  0  0  0  0
   -4.8410   -1.0320   -0.2830 C   0  0  0  0  0  0  0  0  0  0  0  0
   -3.6140   -0.4590   -0.0340 C   0  0  0  0  0  0  0  0  0  0  0  0
   -3.1460    0.6580   -0.7510 C   0  0  0  0  0  0  0  0  0  0  0  0
   -4.0300    1.1640   -1.8000 C   0  0  0  0  0  0  0  0  0  0  0  0
  1  2  1  0
  2  3  2  0
  2 23  1  0
  3  4  1  0
  3 16  1  0
  4  5  1  0
  5  6  2  3
  6  7  1  0
  6 15  1  0
  7  8  2  0
  8  9  1  0
  8 13  1  0
  9 10  2  0
 10 11  1  0
 11 12  2  0
 12 13  1  0
 13 14  2  0
 14 15  1  0
 16 17  2  0
 17 18  1  0
 17 22  1  0
 18 19  2  0
 19 20  1  0
 20 21  2  0
 21 22  1  0
 22 23  2  0
 23 24  1  0
M  END
