
     RDKit          3D

 24 27  0  0  0  0  0  0  0  0999 V2000
   -5.7240    2.2610    0.9730 C   0  0  0  0  0  0  0  0  0  0  0  0
   -4.9290    1.1220    0.4360 C   0  0  0  0  0  0  0  0  0  0  0  0
   -5.5740    0.0370   -0.0620 C   0  0  0  0  0  0  0  0  0  0  0  0
   -4.8510   -1.0200   -0.5600 C   0  0  0  0  0  0  0  0  0  0  0  0
   -3.4690   -1.0220   -0.5750 C   0  0  0  0  0  0  0  0  0  0  0  0
   -2.5530   -1.8880   -0.9850 N   0  0  0  0  0  0  0  0  0  0  0  0
   -1.2820   -1.4410   -0.7880 C   0  0  0  0  0  0  0  0  0  0  0  0
   -1.4360   -0.1960   -0.2100 C   0  0  0  0  0  0  0  0  0  0  0  0
   -2.8050    0.0750   -0.0720 C   0  0  0  0  0  0  0  0  0  0  0  0
   -3.5540    1.1260    0.4240 C   0  0  0  0  0  0  0  0  0  0  0  0
   -0.3340    0.6790    0.1810 C   0  0  0  0  0  0  0  0  0  0  0  0
    0.7610    0.8620   -0.3280 N   0  0  0  0  0  0  0  0  0  0  0  0
    1.6940    0.6680   -1.2200 N   0  0  0  0  0  0  0  0  0  0  0  0
    3.0860    0.8230   -0.8500 C   0  0  0  0  0  0  0  0  0  0  0  0
    3.9690    1.4860   -1.7170 C   0  0  0  0  0  0  0  0  0  0  0  0
    5.2980    1.6790   -1.4530 C   0  0  0  0  0  0  0  0  0  0  0  0
    5.8200    1.2000   -0.2690 C   0  0  0  0  0  0  0  0  0  0  0  0
    4.9810    0.5550    0.5810 C   0  0  0  0  0  0  0  0  0  0  0  0
    3.6240    0.3510    0.3260 C   0  0  0  0  0  0  0  0  0  0  0  0
    2.8240   -0.4020    1.3600 C   0  0  0  0  0  0  0  0  0  0  0  0
    2.6630   -1.7520    0.9540 N   0  0  0  0  0  0  0  0  0  0  0  0
    1.3050   -2.2640    0.9500 C   0  0  0  0  0  0  0  0  0  0  0  0
    0.9520   -2.4180   -0.4890 C   0  0  0  0  0  0  0  0  0  0  0  0
   -0.0700   -2.0750   -1.0950 N   0  0  0  0  0  0  0  0  0  0  0  0
  1  2  1  0
  2  3  2  0
  2 10  1  0
  3  4  1  0
  4  5  2  0
  5  6  1  0
  5  9  1  0
  6  7  1  0
  7  8  2  0
  7 24  1  0
  8  9  1  0
  8 11  1  0
  9 10  2  0
 11 12  2  0
 12 13  1  0
 13 14  1  0
 14 15  2  0
 14 19  1  0
 15 16  1  0
 16 17  2  0
 17 18  1  0
 18 19  2  0
 19 20  1  0
 20 21  1  0
 21 22  1  0
 22 23  1  0
 23 24  2  0
M  END
