
     RDKit          3D

 24 27  0  0  0  0  0  0  0  0999 V2000
    6.7370    1.2010    0.4890 C   0  0  0  0  0  0  0  0  0  0  0  0
    5.6780    0.4870    0.7500 C   0  0  0  0  0  0  0  0  0  0  0  0
    5.8780   -0.6030    1.5640 N   0  0  0  0  0  0  0  0  0  0  0  0
    4.8350   -1.3730    1.8670 C   0  0  0  0  0  0  0  0  0  0  0  0
    3.5700   -1.1380    1.4110 C   0  0  0  0  0  0  0  0  0  0  0  0
    2.4940   -1.9310    1.7240 C   0  0  0  0  0  0  0  0  0  0  0  0
    1.2190   -1.6600    1.2400 C   0  0  0  0  0  0  0  0  0  0  0  0
    1.0060   -0.5720    0.4250 C   0  0  0  0  0  0  0  0  0  0  0  0
   -0.3180   -0.2480   -0.1080 C   0  0  0  0  0  0  0  0  0  0  0  0
   -0.6130    0.8330   -0.9370 C   0  0  0  0  0  0  0  0  0  0  0  0
   -1.9090    0.7730   -1.1920 N   0  0  0  0  0  0  0  0  0  0  0  0
   -2.4780   -0.2500   -0.6020 N   0  0  0  0  0  0  0  0  0  0  0  0
   -3.8890   -0.6520   -0.6430 C   0  0  2  0  0  0  0  0  0  0  0  0
   -4.5800   -0.1500   -1.8730 C   0  0  0  0  0  0  0  0  0  0  0  0
   -5.7440    0.7120   -1.3940 C   0  0  0  0  0  0  0  0  0  0  0  0
   -6.0010    0.2840    0.0310 C   0  0  0  0  0  0  0  0  0  0  0  0
   -4.5990    0.0110    0.5310 C   0  0  0  0  0  0  0  0  0  0  0  0
   -1.5020   -0.9040    0.0830 C   0  0  0  0  0  0  0  0  0  0  0  0
   -1.7470   -2.0730    0.8510 N   0  0  0  0  0  0  0  0  0  0  0  0
    2.0680    0.1760    0.1410 N   0  0  0  0  0  0  0  0  0  0  0  0
    3.3260   -0.0370    0.5790 C   0  0  0  0  0  0  0  0  0  0  0  0
    4.4090    0.7550    0.2700 C   0  0  0  0  0  0  0  0  0  0  0  0
    4.2300    1.8020   -0.5080 C   0  0  0  0  0  0  0  0  0  0  0  0
    2.9100    2.1630   -1.0660 C   0  0  0  0  0  0  0  0  0  0  0  0
  1  2  2  0
  2  3  1  0
  2 22  1  0
  3  4  2  0
  4  5  1  0
  5  6  2  0
  5 21  1  0
  6  7  1  0
  7  8  2  0
  8  9  1  0
  8 20  1  0
  9 10  1  0
  9 18  2  0
 10 11  2  0
 11 12  1  0
 13 12  1  6
 12 18  1  0
 13 14  1  0
 13 17  1  0
 14 15  1  0
 15 16  1  0
 16 17  1  0
 18 19  1  0
 20 21  2  0
 21 22  1  0
 22 23  2  3
 23 24  1  0
M  END
