
     RDKit          3D

 24 27  0  0  0  0  0  0  0  0999 V2000
   -3.7600    2.4100    0.0360 C   0  0  0  0  0  0  0  0  0  0  0  0
   -3.9490    0.9350   -0.2960 C   0  0  2  0  0  0  0  0  0  0  0  0
   -4.2430    0.7190   -1.7470 C   0  0  0  0  0  0  0  0  0  0  0  0
   -5.0510    0.4290    0.6080 C   0  0  0  0  0  0  0  0  0  0  0  0
   -4.3410    0.3230    1.8730 N   0  0  0  0  0  0  0  0  0  0  0  0
   -3.0340   -0.1520    1.4990 C   0  0  0  0  0  0  0  0  0  0  0  0
   -2.0710   -0.8610    2.2020 C   0  0  0  0  0  0  0  0  0  0  0  0
   -0.8580   -1.2280    1.6500 C   0  0  0  0  0  0  0  0  0  0  0  0
    0.0540   -1.9230    2.3810 N   0  0  0  0  0  0  0  0  0  0  0  0
    1.2280   -2.2690    1.8200 C   0  0  0  0  0  0  0  0  0  0  0  0
    1.5120   -1.9260    0.5180 C   0  0  0  0  0  0  0  0  0  0  0  0
    2.7480   -2.2780   -0.1060 N   0  0  0  0  0  0  0  0  0  0  0  0
    3.0690   -1.9670   -1.3710 N   0  0  0  0  0  0  0  0  0  0  0  0
    3.7810   -1.0890   -1.8760 C   0  0  0  0  0  0  0  0  0  0  0  0
    4.5280   -0.0660   -1.1460 C   0  0  0  0  0  0  0  0  0  0  0  0
    4.5530    0.0750    0.2080 C   0  0  0  0  0  0  0  0  0  0  0  0
    5.2990    1.0850    0.7850 C   0  0  0  0  0  0  0  0  0  0  0  0
    6.0200    1.9580    0.0860 N   0  0  0  0  0  0  0  0  0  0  0  0
    5.9880    1.8100   -1.2540 C   0  0  0  0  0  0  0  0  0  0  0  0
    5.2790    0.8420   -1.9060 C   0  0  0  0  0  0  0  0  0  0  0  0
    0.5890   -1.2200   -0.2290 C   0  0  0  0  0  0  0  0  0  0  0  0
   -0.6240   -0.8650    0.3550 C   0  0  0  0  0  0  0  0  0  0  0  0
   -1.5610   -0.1610   -0.3690 C   0  0  0  0  0  0  0  0  0  0  0  0
   -2.7740    0.2030    0.1940 C   0  0  0  0  0  0  0  0  0  0  0  0
  2  1  1  6
  2  3  1  0
  2  4  1  0
  2 24  1  0
  4  5  1  0
  5  6  1  0
  6  7  2  0
  6 24  1  0
  7  8  1  0
  8  9  2  0
  8 22  1  0
  9 10  1  0
 10 11  2  0
 11 12  1  0
 11 21  1  0
 12 13  1  0
 13 14  2  3
 14 15  1  0
 15 16  2  0
 15 20  1  0
 16 17  1  0
 17 18  2  0
 18 19  1  0
 19 20  2  0
 21 22  2  0
 22 23  1  0
 23 24  2  0
M  END
