
     RDKit          3D

 15 14  0  0  0  0  0  0  0  0999 V2000
   -1.7980   -1.1170    3.9820 C   0  0  0  0  0  0  0  0  0  0  0  0
   -1.7780   -1.5090    2.6900 C   0  0  0  0  0  0  0  0  0  0  0  0
   -1.2040   -0.6690    1.6930 C   0  0  0  0  0  0  0  0  0  0  0  0
   -1.1110   -0.9100    0.4040 C   0  0  0  0  0  0  0  0  0  0  0  0
   -0.4570    0.1710   -0.3630 C   0  0  0  0  0  0  0  0  0  0  0  0
   -0.0720    1.1890    0.3260 O   0  0  0  0  0  0  0  0  0  0  0  0
   -0.2050    0.2360   -1.7140 N   0  0  0  0  0  0  0  0  0  0  0  0
    0.4710    1.4280   -2.2620 C   0  0  0  0  0  0  0  0  0  0  0  0
    1.7910    1.5720   -1.6520 C   0  0  0  0  0  0  0  0  0  0  0  0
    2.2480    0.7690   -0.8030 O   0  0  0  0  0  0  0  0  0  0  0  0
    2.5770    2.6570   -2.0380 O   0  0  0  0  0  0  0  0  0  0  0  0
    3.8580    2.9140   -1.5360 C   0  0  0  0  0  0  0  0  0  0  0  0
   -1.5840   -2.0950   -0.2560 C   0  0  0  0  0  0  0  0  0  0  0  0
   -2.2340   -3.1810    0.4650 N   0  0  0  0  0  0  0  0  0  0  0  0
   -1.4770   -2.4130   -1.8540 S   0  0  0  0  0  0  0  0  0  0  0  0
  1  2  2  0
  2  3  1  0
  3  4  2  3
  4  5  1  0
  4 13  1  0
  5  6  2  0
  5  7  1  0
  7  8  1  0
  8  9  1  0
  9 10  2  0
  9 11  1  0
 11 12  1  0
 13 14  1  0
 13 15  2  0
M  END
