
     RDKit          3D

 12 12  0  0  0  0  0  0  0  0999 V2000
   -2.1640   -0.4720    0.9780 N   0  0  0  0  0  0  0  0  0  0  0  0
   -1.3050    0.0840   -0.0400 C   0  0  2  0  0  0  0  0  0  0  0  0
   -2.0090    1.1690   -0.7300 C   0  0  0  0  0  0  0  0  0  0  0  0
   -1.4160    1.7810   -1.6580 O   0  0  0  0  0  0  0  0  0  0  0  0
   -3.2840    1.5300   -0.3940 O   0  0  0  0  0  0  0  0  0  0  0  0
   -0.8990   -1.0470   -0.9560 C   0  0  0  0  0  0  0  0  0  0  0  0
    0.3750   -1.5380   -0.2790 C   0  0  0  0  0  0  0  0  0  0  0  0
    1.0730   -0.1940   -0.0530 C   0  0  2  0  0  0  0  0  0  0  0  0
    2.1850   -0.3180    0.7430 O   0  0  0  0  0  0  0  0  0  0  0  0
    3.3000    0.0790   -0.0110 C   0  0  0  0  0  0  0  0  0  0  0  0
    3.1910    1.3910   -0.4370 O   0  0  0  0  0  0  0  0  0  0  0  0
   -0.0180    0.6420    0.5430 C   0  0  0  0  0  0  0  0  0  0  0  0
  2  1  1  1
  2  3  1  0
  2  6  1  0
  2 12  1  0
  3  4  2  0
  3  5  1  0
  6  7  1  0
  7  8  1  0
  8  9  1  1
  8 12  1  0
  9 10  1  0
 10 11  1  0
M  CHG  1   1   1
M  END
