
     RDKit          3D

 15 15  0  0  0  0  0  0  0  0999 V2000
   -5.6900    0.3790    0.2150 C   0  0  0  0  0  0  0  0  0  0  0  0
   -4.5580   -0.0950    0.8790 O   0  0  0  0  0  0  0  0  0  0  0  0
   -3.4530    0.3170    0.1390 C   0  0  0  0  0  0  0  0  0  0  0  0
   -2.2100   -0.1880    0.8360 C   0  0  0  0  0  0  0  0  0  0  0  0
   -2.2840   -0.8510    1.8970 O   0  0  0  0  0  0  0  0  0  0  0  0
   -0.9360    0.0940    0.2770 N   0  0  0  0  0  0  0  0  0  0  0  0
    0.2170   -0.3640    0.8990 N   0  0  0  0  0  0  0  0  0  0  0  0
    1.4900   -0.0940    0.3200 C   0  0  0  0  0  0  0  0  0  0  0  0
    1.8180    1.1510   -0.1950 C   0  0  0  0  0  0  0  0  0  0  0  0
    3.0430    1.3820   -0.7780 C   0  0  0  0  0  0  0  0  0  0  0  0
    4.0070    0.3830   -0.8760 C   0  0  0  0  0  0  0  0  0  0  0  0
    5.5960    0.6840   -1.6400 S   0  0  0  0  0  0  0  0  0  0  0  0
    3.6970   -0.8780   -0.3610 C   0  0  0  0  0  0  0  0  0  0  0  0
    4.6700   -1.8580   -0.4710 O   0  0  0  0  0  0  0  0  0  0  0  0
    2.4770   -1.0650    0.2060 C   0  0  0  0  0  0  0  0  0  0  0  0
  1  2  1  0
  2  3  1  0
  3  4  1  0
  4  5  2  0
  4  6  1  0
  6  7  1  0
  7  8  1  0
  8  9  2  0
  8 15  1  0
  9 10  1  0
 10 11  2  0
 11 12  1  0
 11 13  1  0
 13 14  1  0
 13 15  2  0
M  END
