
     RDKit          3D

 12 12  0  0  0  0  0  0  0  0999 V2000
   -1.0740    2.4060    0.5860 N   0  0  0  0  0  0  0  0  0  0  0  0
   -0.9670    1.5640   -0.5680 C   0  0  0  0  0  0  0  0  0  0  0  0
   -0.5360    0.1860   -0.2020 C   0  0  2  0  0  0  0  0  0  0  0  0
    0.8230    0.1450    0.4600 C   0  0  0  0  0  0  0  0  0  0  0  0
    1.8120    0.6980   -0.3490 O   0  0  0  0  0  0  0  0  0  0  0  0
    3.0120    0.5970    0.3790 C   0  0  0  0  0  0  0  0  0  0  0  0
    3.2760   -0.7450    0.6520 O   0  0  0  0  0  0  0  0  0  0  0  0
   -0.4490   -0.6980   -1.4340 C   0  0  0  0  0  0  0  0  0  0  0  0
   -0.7820   -2.0380   -0.8000 C   0  0  0  0  0  0  0  0  0  0  0  0
   -1.8630   -1.5800    0.1660 C   0  0  1  0  0  0  0  0  0  0  0  0
   -2.1370   -2.5210    1.1380 O   0  0  0  0  0  0  0  0  0  0  0  0
   -1.4450   -0.3720    0.6520 O   0  0  0  0  0  0  0  0  0  0  0  0
  1  2  1  0
  3  2  1  6
  3  4  1  0
  3  8  1  0
  3 12  1  0
  4  5  1  0
  5  6  1  0
  6  7  1  0
  8  9  1  0
  9 10  1  0
 10 11  1  1
 10 12  1  0
M  CHG  1   1   1
M  END
