
     RDKit          3D

 12 12  0  0  0  0  0  0  0  0999 V2000
    3.6650   -0.9170    0.1590 O   0  0  0  0  0  0  0  0  0  0  0  0
    2.4040   -0.4470   -0.2610 C   0  0  0  0  0  0  0  0  0  0  0  0
    2.0400    0.7690    0.5750 C   0  0  1  0  0  0  0  0  0  0  0  0
    3.0650    1.7130    0.3290 O   0  0  0  0  0  0  0  0  0  0  0  0
    0.8630    1.3100    0.0650 O   0  0  0  0  0  0  0  0  0  0  0  0
   -0.3510    0.6690   -0.0300 C   0  0  0  0  0  0  0  0  0  0  0  0
   -1.1620    0.9600   -1.0210 C   0  0  0  0  0  0  0  0  0  0  0  0
   -2.4990    0.3570   -1.2600 C   0  0  0  0  0  0  0  0  0  0  0  0
   -2.8750   -0.6110   -0.2970 N   0  0  0  0  0  0  0  0  0  0  0  0
   -1.9660   -0.8720    0.7310 C   0  0  0  0  0  0  0  0  0  0  0  0
   -0.7910   -0.3330    0.9290 C   0  0  0  0  0  0  0  0  0  0  0  0
    0.0150   -0.6900    2.0010 O   0  0  0  0  0  0  0  0  0  0  0  0
  1  2  1  0
  2  3  1  0
  3  4  1  6
  3  5  1  0
  5  6  1  0
  6  7  2  0
  6 11  1  0
  7  8  1  0
  8  9  1  0
  9 10  1  0
 10 11  2  0
 11 12  1  0
M  CHG  1   9   1
M  END
