
     RDKit          3D

 15 15  0  0  0  0  0  0  0  0999 V2000
    4.9300    1.4420    0.4980 C   0  0  0  0  0  0  0  0  0  0  0  0
    4.1820    0.2670    0.1310 N   0  0  0  0  0  0  0  0  0  0  0  0
    2.7470    0.2660    0.2390 C   0  0  0  0  0  0  0  0  0  0  0  0
    2.2200    1.3220    0.6580 O   0  0  0  0  0  0  0  0  0  0  0  0
    1.8960   -1.1910   -0.2210 S   0  0  0  0  0  0  0  0  0  0  0  0
    0.1260   -1.1090   -0.0590 C   0  0  0  0  0  0  0  0  0  0  0  0
   -0.6650   -2.2170   -0.3980 C   0  0  0  0  0  0  0  0  0  0  0  0
   -2.0330   -2.1920   -0.2870 C   0  0  0  0  0  0  0  0  0  0  0  0
   -2.7140   -1.0800    0.1640 C   0  0  0  0  0  0  0  0  0  0  0  0
   -4.1290   -1.0690    0.2740 N   0  0  0  0  0  0  0  0  0  0  0  0
   -1.9520    0.0170    0.5010 C   0  0  0  0  0  0  0  0  0  0  0  0
   -2.6240    1.1380    0.9550 O   0  0  0  0  0  0  0  0  0  0  0  0
   -3.0560    2.1270    0.0510 C   0  0  0  0  0  0  0  0  0  0  0  0
   -2.8020    1.9330   -1.1530 O   0  0  0  0  0  0  0  0  0  0  0  0
   -0.5540   -0.0030    0.3900 C   0  0  0  0  0  0  0  0  0  0  0  0
  1  2  1  0
  2  3  1  0
  3  4  2  0
  3  5  1  0
  5  6  1  0
  6  7  2  0
  6 15  1  0
  7  8  1  0
  8  9  2  0
  9 10  1  0
  9 11  1  0
 11 12  1  0
 11 15  2  0
 12 13  1  0
 13 14  2  0
M  END
