
     RDKit          3D

 14 14  0  0  0  0  0  0  0  0999 V2000
    5.4520   -0.2630   -0.8550 C   0  0  0  0  0  0  0  0  0  0  0  0
    4.1130    0.1120   -1.0760 O   0  0  0  0  0  0  0  0  0  0  0  0
    3.0490   -0.3020   -0.3220 C   0  0  0  0  0  0  0  0  0  0  0  0
    3.2550   -1.0760    0.6480 O   0  0  0  0  0  0  0  0  0  0  0  0
    1.6590    0.1240   -0.5990 C   0  0  0  0  0  0  0  0  0  0  0  0
    0.7150   -0.4410    0.3290 N   0  0  0  0  0  0  0  0  0  0  0  0
   -0.6570   -0.1180    0.1830 C   0  0  0  0  0  0  0  0  0  0  0  0
   -1.0970    0.7180   -0.8190 C   0  0  0  0  0  0  0  0  0  0  0  0
   -2.4460    1.0420   -0.9700 C   0  0  0  0  0  0  0  0  0  0  0  0
   -3.3820    0.5220   -0.1040 C   0  0  0  0  0  0  0  0  0  0  0  0
   -5.1010    0.9530   -0.3200 S   0  0  0  0  0  0  0  0  0  0  0  0
   -2.9640   -0.3230    0.9150 C   0  0  0  0  0  0  0  0  0  0  0  0
   -3.9710   -0.8280    1.7760 N   0  0  0  0  0  0  0  0  0  0  0  0
   -1.6300   -0.6250    1.0410 C   0  0  0  0  0  0  0  0  0  0  0  0
  1  2  1  0
  2  3  1  0
  3  4  2  0
  3  5  1  0
  5  6  1  0
  6  7  1  0
  7  8  2  0
  7 14  1  0
  8  9  1  0
  9 10  2  0
 10 11  1  0
 10 12  1  0
 12 13  1  0
 12 14  2  0
M  END
