
     RDKit          3D

 15 15  0  0  0  0  0  0  0  0999 V2000
   -2.4600    2.4050    0.4470 C   0  0  0  0  0  0  0  0  0  0  0  0
   -1.4350    1.3380    0.3050 C   0  0  0  0  0  0  0  0  0  0  0  0
   -1.8250   -0.0020    0.2350 C   0  0  0  0  0  0  0  0  0  0  0  0
   -0.8800   -0.9820    0.1050 C   0  0  0  0  0  0  0  0  0  0  0  0
   -1.1590   -2.3540    0.0250 N   0  0  0  0  0  0  0  0  0  0  0  0
   -2.4540   -2.8920    0.0690 C   0  0  0  0  0  0  0  0  0  0  0  0
   -3.4980   -2.2190    0.1840 O   0  0  0  0  0  0  0  0  0  0  0  0
    0.4760   -0.5940    0.0450 C   0  0  0  0  0  0  0  0  0  0  0  0
    1.5220   -1.6370   -0.0950 C   0  0  0  0  0  0  0  0  0  0  0  0
    0.8770    0.7120    0.1130 C   0  0  0  0  0  0  0  0  0  0  0  0
    2.5330    1.1490    0.0370 S   0  0  1  0  0  0  0  0  0  0  0  0
    3.3230    0.6740   -1.4060 N   0  0  0  0  0  0  0  0  0  0  0  0
    2.6800    2.6510    0.1610 O   0  0  0  0  0  0  0  0  0  0  0  0
    3.2570    0.5460    1.2310 O   0  0  0  0  0  0  0  0  0  0  0  0
   -0.1000    1.6740    0.2430 C   0  0  0  0  0  0  0  0  0  0  0  0
  1  2  1  0
  2  3  2  0
  2 15  1  0
  3  4  1  0
  4  5  1  0
  4  8  2  0
  5  6  1  0
  6  7  2  0
  8  9  1  0
  8 10  1  0
 10 11  1  0
 10 15  2  0
 11 12  1  6
 11 13  2  0
 11 14  2  0
M  END
