
     RDKit          3D

 16 17  0  0  0  0  0  0  0  0999 V2000
   -2.6720    1.4450   -1.3650 C   0  0  0  0  0  0  0  0  0  0  0  0
   -3.0670    0.1670   -0.2010 S   0  0  1  0  0  0  0  0  0  0  0  0
   -3.0100    0.7650    1.1890 O   0  0  0  0  0  0  0  0  0  0  0  0
   -4.4480   -0.3200   -0.5060 O   0  0  0  0  0  0  0  0  0  0  0  0
   -1.9760   -1.1570   -0.3140 N   0  0  0  0  0  0  0  0  0  0  0  0
   -0.5840   -1.0040   -0.0650 C   0  0  0  0  0  0  0  0  0  0  0  0
   -0.0690    0.2280    0.2770 C   0  0  0  0  0  0  0  0  0  0  0  0
    1.2730    0.4350    0.5300 C   0  0  0  0  0  0  0  0  0  0  0  0
    2.0320    1.4860    0.8710 N   0  0  0  0  0  0  0  0  0  0  0  0
    3.3140    1.1190    0.9920 C   0  0  0  0  0  0  0  0  0  0  0  0
    4.5710    2.0750    1.3910 S   0  0  0  0  0  0  0  0  0  0  0  0
    3.4230   -0.2090    0.7260 N   0  0  0  0  0  0  0  0  0  0  0  0
    2.1630   -0.6290    0.4410 C   0  0  0  0  0  0  0  0  0  0  0  0
    1.6390   -1.8580    0.0980 C   0  0  0  0  0  0  0  0  0  0  0  0
    0.2960   -2.0590   -0.1530 C   0  0  0  0  0  0  0  0  0  0  0  0
   -0.3580   -3.6260   -0.5890 Cl  0  0  0  0  0  0  0  0  0  0  0  0
  2  1  1  6
  2  3  2  0
  2  4  2  0
  2  5  1  0
  5  6  1  0
  6  7  2  0
  6 15  1  0
  7  8  1  0
  8  9  1  0
  8 13  2  0
  9 10  1  0
 10 11  2  0
 10 12  1  0
 12 13  1  0
 13 14  1  0
 14 15  2  0
 15 16  1  0
M  END
