
     RDKit          3D

 15 16  0  0  0  0  0  0  0  0999 V2000
    3.9870   -0.1760   -0.0610 C   0  0  0  0  0  0  0  0  0  0  0  0
    3.1550    1.0250    0.3390 C   0  0  0  0  0  0  0  0  0  0  0  0
    1.9470    1.3290   -0.9920 S   0  0  0  0  0  0  0  0  0  0  0  0
    0.8010   -0.0410   -1.0590 C   0  0  0  0  0  0  0  0  0  0  0  0
    0.8810   -1.1770   -1.7590 N   0  0  0  0  0  0  0  0  0  0  0  0
   -0.1770   -1.9410   -1.5340 N   0  0  0  0  0  0  0  0  0  0  0  0
   -0.9710   -1.2770   -0.6580 C   0  0  0  0  0  0  0  0  0  0  0  0
   -0.3760   -0.0730   -0.3420 C   0  0  0  0  0  0  0  0  0  0  0  0
   -0.8600    0.9730    0.5580 C   0  0  0  0  0  0  0  0  0  0  0  0
    0.0460    1.8190    0.8460 O   0  0  0  0  0  0  0  0  0  0  0  0
   -2.1170    1.1980    1.1420 N   0  0  0  0  0  0  0  0  0  0  0  0
   -3.3530    0.6440    0.7330 C   0  0  0  0  0  0  0  0  0  0  0  0
   -4.3780    1.3560    1.0240 O   0  0  0  0  0  0  0  0  0  0  0  0
   -3.7250   -0.5810    0.0430 C   0  0  0  0  0  0  0  0  0  0  0  0
   -2.5230   -1.8730   -0.0290 S   0  0  0  0  0  0  0  0  0  0  0  0
  1  2  1  0
  2  3  1  0
  3  4  1  0
  4  5  2  0
  4  8  1  0
  5  6  1  0
  6  7  1  0
  7  8  2  0
  7 15  1  0
  8  9  1  0
  9 10  2  0
  9 11  1  0
 11 12  1  0
 12 13  2  0
 12 14  1  0
 14 15  1  0
M  END
