
     RDKit          3D

 15 16  0  0  0  0  0  0  0  0999 V2000
   -4.2010   -0.5760   -0.2120 O   0  0  0  0  0  0  0  0  0  0  0  0
   -2.9470   -0.2320    0.2620 C   0  0  0  0  0  0  0  0  0  0  0  0
   -2.3020   -1.1260    1.1300 C   0  0  0  0  0  0  0  0  0  0  0  0
   -1.0540   -0.8120    1.6170 C   0  0  0  0  0  0  0  0  0  0  0  0
   -0.4130    0.3600    1.2780 C   0  0  0  0  0  0  0  0  0  0  0  0
    1.1870    0.6840    1.9490 S   0  0  0  0  0  0  0  0  0  0  0  0
    2.4420    0.0190    0.8470 C   0  0  0  0  0  0  0  0  0  0  0  0
    2.9830   -1.2300    0.8770 N   0  0  0  0  0  0  0  0  0  0  0  0
    3.8760   -1.3450   -0.0950 N   0  0  0  0  0  0  0  0  0  0  0  0
    3.9390   -0.1940   -0.7740 C   0  0  0  0  0  0  0  0  0  0  0  0
    4.9090    0.1330   -2.0680 S   0  0  0  0  0  0  0  0  0  0  0  0
    3.0540    0.6310   -0.1840 N   0  0  0  0  0  0  0  0  0  0  0  0
   -1.0360    1.2420    0.4300 C   0  0  0  0  0  0  0  0  0  0  0  0
   -2.3070    0.9400   -0.0780 C   0  0  0  0  0  0  0  0  0  0  0  0
   -2.9300    1.8210   -0.9270 O   0  0  0  0  0  0  0  0  0  0  0  0
  1  2  1  0
  2  3  2  0
  2 14  1  0
  3  4  1  0
  4  5  2  0
  5  6  1  0
  5 13  1  0
  6  7  1  0
  7  8  2  0
  7 12  1  0
  8  9  1  0
  9 10  1  0
 10 11  2  0
 10 12  1  0
 13 14  2  0
 14 15  1  0
M  END
