
     RDKit          3D

 20 21  0  0  0  0  0  0  0  0999 V2000
   -4.8440    1.1390   -0.4280 C   0  0  0  0  0  0  0  0  0  0  0  0
   -3.4470    0.6520   -0.2780 C   0  0  0  0  0  0  0  0  0  0  0  0
   -2.4260    1.5360   -0.1350 C   0  0  0  0  0  0  0  0  0  0  0  0
   -1.1140    1.1120    0.0070 C   0  0  0  0  0  0  0  0  0  0  0  0
   -0.8020   -0.2300    0.0070 C   0  0  0  0  0  0  0  0  0  0  0  0
    0.5470   -0.6480    0.2540 N   0  0  0  0  0  0  0  0  0  0  0  0
    1.6950    0.1510   -0.0090 C   0  0  0  0  0  0  0  0  0  0  0  0
    1.6440    1.1210   -1.0190 C   0  0  0  0  0  0  0  0  0  0  0  0
    2.7410    1.8620   -1.3890 C   0  0  0  0  0  0  0  0  0  0  0  0
    3.9160    1.6080   -0.7180 C   0  0  0  0  0  0  0  0  0  0  0  0
    3.9840    0.6580    0.2770 C   0  0  0  0  0  0  0  0  0  0  0  0
    2.8700   -0.0990    0.6600 C   0  0  0  0  0  0  0  0  0  0  0  0
    3.0260   -1.0570    1.7460 C   0  0  0  0  0  0  0  0  0  0  0  0
    2.1520   -1.7780    2.2360 O   0  0  0  0  0  0  0  0  0  0  0  0
    4.3030   -1.2100    2.3300 O   0  0  0  0  0  0  0  0  0  0  0  0
   -1.8170   -1.1430   -0.1350 C   0  0  0  0  0  0  0  0  0  0  0  0
   -1.6180   -2.5760   -0.1810 C   0  0  0  0  0  0  0  0  0  0  0  0
   -2.6410   -3.3350   -0.3100 O   0  0  0  0  0  0  0  0  0  0  0  0
   -0.4280   -3.2600   -0.1030 O   0  0  0  0  0  0  0  0  0  0  0  0
   -3.1410   -0.6860   -0.2770 C   0  0  0  0  0  0  0  0  0  0  0  0
  1  2  1  0
  2  3  2  0
  2 20  1  0
  3  4  1  0
  4  5  2  0
  5  6  1  0
  5 16  1  0
  6  7  1  0
  7  8  2  0
  7 12  1  0
  8  9  1  0
  9 10  2  0
 10 11  1  0
 11 12  2  0
 12 13  1  0
 13 14  2  0
 13 15  1  0
 16 17  1  0
 16 20  2  0
 17 18  2  0
 17 19  1  0
M  END
