
     RDKit          3D

 16 16  0  0  0  0  0  0  0  0999 V2000
    5.3910   -0.4650   -1.2380 O   0  0  0  0  0  0  0  0  0  0  0  0
    5.3760    0.6790   -0.7330 C   0  0  0  0  0  0  0  0  0  0  0  0
    4.3040    1.0240    0.1680 N   0  0  0  0  0  0  0  0  0  0  0  0
    3.3340    0.1050    0.4560 O   0  0  0  0  0  0  0  0  0  0  0  0
    2.0480    0.1070   -0.0290 C   0  0  0  0  0  0  0  0  0  0  0  0
    1.7090    1.0260   -0.8100 O   0  0  0  0  0  0  0  0  0  0  0  0
    1.0880   -0.8810    0.3130 N   0  0  0  0  0  0  0  0  0  0  0  0
   -0.2410   -0.8760   -0.2170 C   0  0  0  0  0  0  0  0  0  0  0  0
   -0.6330    0.0130   -1.0090 O   0  0  0  0  0  0  0  0  0  0  0  0
   -1.1900   -1.9700    0.1910 C   0  0  0  0  0  0  0  0  0  0  0  0
   -2.1270   -1.2310    1.5950 S   0  0  0  0  0  0  0  0  0  0  0  0
   -3.1500    0.0510    0.8830 C   0  0  0  0  0  0  0  0  0  0  0  0
   -4.4860   -0.1580    0.5270 C   0  0  0  0  0  0  0  0  0  0  0  0
   -4.9500    0.9830   -0.0010 N   0  0  0  0  0  0  0  0  0  0  0  0
   -3.9450    1.8780    0.0230 N   0  0  0  0  0  0  0  0  0  0  0  0
   -2.8640    1.3110    0.5540 N   0  0  0  0  0  0  0  0  0  0  0  0
  1  2  2  0
  2  3  1  0
  3  4  1  0
  4  5  1  0
  5  6  2  0
  5  7  1  0
  7  8  1  0
  8  9  2  0
  8 10  1  0
 10 11  1  0
 11 12  1  0
 12 13  1  0
 12 16  2  0
 13 14  2  0
 14 15  1  0
 15 16  1  0
M  END
