
     RDKit          3D

 16 17  0  0  0  0  0  0  0  0999 V2000
    1.7020   -2.1380   -0.0200 C   0  0  0  0  0  0  0  0  0  0  0  0
    2.3340   -0.7420    0.1550 C   0  0  0  0  0  0  0  0  0  0  0  0
    1.5970    0.3700    0.2410 C   0  0  0  0  0  0  0  0  0  0  0  0
    0.1620    0.3750    0.1730 N   0  0  0  0  0  0  0  0  0  0  0  0
   -0.6660    1.4980    0.2650 C   0  0  0  0  0  0  0  0  0  0  0  0
   -0.1770    2.6310    0.4230 O   0  0  0  0  0  0  0  0  0  0  0  0
   -2.1400    1.3360    0.1750 C   0  0  0  0  0  0  0  0  0  0  0  0
   -2.9330    2.4810    0.2720 N   0  0  0  0  0  0  0  0  0  0  0  0
   -4.6330    1.7890    0.1080 S   0  0  0  0  0  0  0  0  0  0  0  0
   -3.9940    0.0880   -0.0630 C   0  0  0  0  0  0  0  0  0  0  0  0
   -4.8830   -0.9960   -0.2340 O   0  0  0  0  0  0  0  0  0  0  0  0
   -2.7940    0.2410    0.0140 N   0  0  0  0  0  0  0  0  0  0  0  0
    2.3060    1.5700    0.4030 C   0  0  0  0  0  0  0  0  0  0  0  0
    3.9940    1.1170    0.4300 S   0  0  0  0  0  0  0  0  0  0  0  0
    3.6910   -0.6790    0.2230 C   0  0  0  0  0  0  0  0  0  0  0  0
    4.9630   -1.8880    0.1510 Cl  0  0  0  0  0  0  0  0  0  0  0  0
  1  2  1  0
  2  3  1  0
  2 15  2  0
  3  4  1  0
  3 13  2  0
  4  5  1  0
  5  6  2  0
  5  7  1  0
  7  8  2  0
  7 12  1  0
  8  9  1  0
  9 10  1  0
 10 11  1  0
 10 12  2  0
 13 14  1  0
 14 15  1  0
 15 16  1  0
M  END
