
     RDKit          3D

 16 16  0  0  0  0  0  0  0  0999 V2000
   -1.2440   -0.1630    0.9100 O   0  0  0  0  0  0  0  0  0  0  0  0
   -1.4470    0.2770   -0.2270 C   0  0  0  0  0  0  0  0  0  0  0  0
   -2.7900    0.7090   -0.7240 C   0  0  0  0  0  0  0  0  0  0  0  0
   -3.8660    0.5570    0.3010 C   0  0  0  0  0  0  0  0  0  0  0  0
   -4.0270   -0.8130    0.7430 N   0  0  0  0  0  0  0  0  0  0  0  0
   -3.2830   -1.6840    0.2450 O   0  0  0  0  0  0  0  0  0  0  0  0
   -4.9840   -1.0890    1.6860 O   0  0  0  0  0  0  0  0  0  0  0  0
   -0.3820    0.3930   -1.1360 N   0  0  0  0  0  0  0  0  0  0  0  0
    0.9400    0.0430   -0.8650 N   0  0  0  0  0  0  0  0  0  0  0  0
    1.6840    0.5100    0.2450 C   0  0  0  0  0  0  0  0  0  0  0  0
    1.1000    1.2900    1.0280 O   0  0  0  0  0  0  0  0  0  0  0  0
    3.0980    0.0930    0.4690 C   0  0  0  0  0  0  0  0  0  0  0  0
    3.6910   -0.6890   -0.3090 N   0  0  0  0  0  0  0  0  0  0  0  0
    5.0390   -1.0590   -0.0580 C   0  0  0  0  0  0  0  0  0  0  0  0
    5.1840   -0.4860    1.6860 S   0  0  0  0  0  0  0  0  0  0  0  0
    3.7910    0.5700    1.5600 O   0  0  0  0  0  0  0  0  0  0  0  0
  1  2  2  0
  2  3  1  0
  2  8  1  0
  3  4  1  0
  4  5  1  0
  5  6  2  0
  5  7  1  0
  8  9  1  0
  9 10  1  0
 10 11  2  0
 10 12  1  0
 12 13  2  0
 12 16  1  0
 13 14  1  0
 14 15  1  0
 15 16  1  0
M  CHG  2   5   1   7  -1
M  END
