
     RDKit          3D

 12 12  0  0  0  0  0  0  0  0999 V2000
   -3.6870    1.5160    0.8700 N   0  0  0  0  0  0  0  0  0  0  0  0
   -2.8810    0.8260   -0.0570 C   0  0  0  0  0  0  0  0  0  0  0  0
   -3.3900    0.3910   -1.3200 N   0  0  0  0  0  0  0  0  0  0  0  0
   -1.5880    0.5680    0.2590 C   0  0  0  0  0  0  0  0  0  0  0  0
   -0.7410   -0.1320   -0.6620 C   0  0  0  0  0  0  0  0  0  0  0  0
    0.4530   -0.5180   -0.6830 C   0  0  0  0  0  0  0  0  0  0  0  0
    1.6090   -0.4610    0.2110 C   0  0  0  0  0  0  0  0  0  0  0  0
    2.7550   -1.0080   -0.1860 C   0  0  0  0  0  0  0  0  0  0  0  0
    4.0440   -1.1000    0.4810 C   0  0  0  0  0  0  0  0  0  0  0  0
    4.0660   -0.3390    2.1090 S   0  0  0  0  0  0  0  0  0  0  0  0
    2.4530    0.2790    2.3440 N   0  0  0  0  0  0  0  0  0  0  0  0
    1.4870    0.1820    1.4940 C   0  0  0  0  0  0  0  0  0  0  0  0
  1  2  1  0
  2  3  1  0
  2  4  2  3
  4  5  1  0
  5  6  2  3
  6  7  1  0
  7  8  2  0
  7 12  1  0
  8  9  1  0
  9 10  1  0
 10 11  1  0
 11 12  2  0
M  END
