
     RDKit          3D

 12 12  0  0  0  0  0  0  0  0999 V2000
   -3.3040    1.0620   -0.3530 N   0  0  0  0  0  0  0  0  0  0  0  0
   -3.7730   -0.2530   -0.1350 C   0  0  0  0  0  0  0  0  0  0  0  0
   -2.7620   -1.2790    0.1620 C   0  0  0  0  0  0  0  0  0  0  0  0
   -1.4820   -1.0940    0.2450 C   0  0  0  0  0  0  0  0  0  0  0  0
   -0.6990    0.0930    0.0820 C   0  0  0  0  0  0  0  0  0  0  0  0
    0.6380    0.0460    0.2150 C   0  0  0  0  0  0  0  0  0  0  0  0
    1.4360   -1.1430    0.5260 C   0  0  0  0  0  0  0  0  0  0  0  0
    2.6850   -0.7900    0.5720 N   0  0  0  0  0  0  0  0  0  0  0  0
    2.8030    0.6090    0.3050 C   0  0  0  0  0  0  0  0  0  0  0  0
    4.3130    1.5660    0.2560 S   0  0  0  0  0  0  0  0  0  0  0  0
    5.7120    0.5510    0.5870 N   0  0  0  0  0  0  0  0  0  0  0  0
    1.6020    1.1210    0.0920 C   0  0  0  0  0  0  0  0  0  0  0  0
  1  2  1  0
  2  3  1  0
  3  4  2  3
  4  5  1  0
  5  6  2  3
  6  7  1  0
  6 12  1  0
  7  8  2  0
  8  9  1  0
  9 10  1  0
  9 12  2  0
 10 11  1  0
M  END
