
     RDKit          3D

 12 12  0  0  0  0  0  0  0  0999 V2000
   -0.6470   -2.4770    0.6990 N   0  0  0  0  0  0  0  0  0  0  0  0
   -0.9400   -0.9070    0.5250 S   0  0  2  0  0  0  0  0  0  0  0  0
   -1.1850   -0.5530    2.0280 N   0  0  0  0  0  0  0  0  0  0  0  0
   -2.3610   -0.7910   -0.4630 C   0  0  0  0  0  0  0  0  0  0  0  0
   -2.8300    0.5800   -0.7860 C   0  0  0  0  0  0  0  0  0  0  0  0
   -3.1710    1.3860    0.3410 N   0  0  0  0  0  0  0  0  0  0  0  0
    0.4780   -0.1750   -0.1300 C   0  0  0  0  0  0  0  0  0  0  0  0
    0.7840    1.0960    0.1070 C   0  0  0  0  0  0  0  0  0  0  0  0
    2.0300    1.6350   -0.5030 C   0  0  0  0  0  0  0  0  0  0  0  0
    3.1520    0.6960   -0.1170 C   0  0  0  0  0  0  0  0  0  0  0  0
    2.8300   -0.7330   -0.4500 C   0  0  0  0  0  0  0  0  0  0  0  0
    1.4290   -0.9270   -0.9900 C   0  0  0  0  0  0  0  0  0  0  0  0
  1  2  2  0
  2  3  2  0
  2  4  1  6
  2  7  1  0
  4  5  1  0
  5  6  1  0
  7  8  2  0
  7 12  1  0
  8  9  1  0
  9 10  1  0
 10 11  1  0
 11 12  1  0
M  CHG  1   3   1
M  END
