
     RDKit          3D

 12 12  0  0  0  0  0  0  0  0999 V2000
    0.7760    2.0250    1.8440 C   0  0  0  0  0  0  0  0  0  0  0  0
    0.1580    1.1840    1.0670 C   0  0  0  0  0  0  0  0  0  0  0  0
   -1.2590    1.3680    0.8430 N   0  0  0  0  0  0  0  0  0  0  0  0
   -1.9230    0.4450   -0.0060 C   0  0  0  0  0  0  0  0  0  0  0  0
   -3.3190    0.5860   -0.2570 N   0  0  0  0  0  0  0  0  0  0  0  0
   -1.2900   -0.5630   -0.5880 C   0  0  0  0  0  0  0  0  0  0  0  0
   -2.0880   -1.4870   -1.4720 C   0  0  0  0  0  0  0  0  0  0  0  0
    0.0970   -0.8150   -0.4220 N   0  0  0  0  0  0  0  0  0  0  0  0
    0.8550    0.0740    0.4260 C   0  0  0  0  0  0  0  0  0  0  0  0
    2.1260   -0.1150    0.6080 C   0  0  0  0  0  0  0  0  0  0  0  0
    2.9630   -1.1880    0.0300 C   0  0  0  0  0  0  0  0  0  0  0  0
    4.2950   -0.4580   -0.9840 S   0  0  0  0  0  0  0  0  0  0  0  0
  1  2  2  0
  2  3  1  0
  2  9  1  0
  3  4  1  0
  4  5  1  0
  4  6  2  0
  6  7  1  0
  6  8  1  0
  8  9  1  0
  9 10  2  3
 10 11  1  0
 11 12  1  0
M  END
