
     RDKit          3D

 15 16  0  0  0  0  0  0  0  0999 V2000
    3.5670   -1.5580   -0.5070 C   0  0  0  0  0  0  0  0  0  0  0  0
    3.0470   -0.4530    0.2060 O   0  0  0  0  0  0  0  0  0  0  0  0
    1.6770   -0.1480    0.1900 C   0  0  0  0  0  0  0  0  0  0  0  0
    0.7910   -0.8900   -0.5030 N   0  0  0  0  0  0  0  0  0  0  0  0
   -0.5240   -0.6100   -0.5270 C   0  0  0  0  0  0  0  0  0  0  0  0
   -1.4220   -1.3400   -1.2130 N   0  0  0  0  0  0  0  0  0  0  0  0
   -2.7380   -1.0620   -1.2390 C   0  0  0  0  0  0  0  0  0  0  0  0
   -3.6630   -1.8640   -1.9810 N   0  0  0  0  0  0  0  0  0  0  0  0
   -3.1580    0.0060   -0.5360 N   0  0  0  0  0  0  0  0  0  0  0  0
   -2.2910    0.7640    0.1650 C   0  0  0  0  0  0  0  0  0  0  0  0
   -2.7150    1.9080    0.9220 N   0  0  0  0  0  0  0  0  0  0  0  0
   -0.9380    0.4890    0.2000 C   0  0  0  0  0  0  0  0  0  0  0  0
   -0.0520    1.2310    0.8920 N   0  0  0  0  0  0  0  0  0  0  0  0
    1.2650    0.9490    0.9160 C   0  0  0  0  0  0  0  0  0  0  0  0
    2.2390    1.7780    1.6860 C   0  0  0  0  0  0  0  0  0  0  0  0
  1  2  1  0
  2  3  1  0
  3  4  2  0
  3 14  1  0
  4  5  1  0
  5  6  2  0
  5 12  1  0
  6  7  1  0
  7  8  1  0
  7  9  2  0
  9 10  1  0
 10 11  1  0
 10 12  2  0
 12 13  1  0
 13 14  2  0
 14 15  1  0
M  END
