
     RDKit          3D

 12 13  0  0  0  0  0  0  0  0999 V2000
   -1.9770    1.6300   -0.4440 N   0  0  0  0  0  0  0  0  0  0  0  0
   -1.3970    0.5170   -0.2160 C   0  0  0  0  0  0  0  0  0  0  0  0
   -2.1220   -0.6370   -0.1100 N   0  0  0  0  0  0  0  0  0  0  0  0
   -1.5810   -1.8360    0.1270 C   0  0  0  0  0  0  0  0  0  0  0  0
   -2.5230   -3.1850    0.2410 S   0  0  0  0  0  0  0  0  0  0  0  0
   -0.2520   -1.9410    0.2730 N   0  0  0  0  0  0  0  0  0  0  0  0
    0.5120   -0.8170    0.1750 C   0  0  0  0  0  0  0  0  0  0  0  0
    1.8810   -0.9420    0.3290 C   0  0  0  0  0  0  0  0  0  0  0  0
    2.6880    0.1660    0.2380 C   0  0  0  0  0  0  0  0  0  0  0  0
    2.1660    1.4100   -0.0040 C   0  0  0  0  0  0  0  0  0  0  0  0
    0.7900    1.5280   -0.1570 C   0  0  0  0  0  0  0  0  0  0  0  0
   -0.0190    0.4370   -0.0690 C   0  0  0  0  0  0  0  0  0  0  0  0
  1  2  2  0
  2  3  1  0
  2 12  1  0
  3  4  1  0
  4  5  2  0
  4  6  1  0
  6  7  1  0
  7  8  2  0
  7 12  1  0
  8  9  1  0
  9 10  2  0
 10 11  1  0
 11 12  2  0
M  CHG  1   1   1
M  END
