
     RDKit          3D

 16 16  0  0  0  0  0  0  0  0999 V2000
   -4.9450    1.3940    0.1340 C   0  0  0  0  0  0  0  0  0  0  0  0
   -4.1770    0.6900    1.2230 C   0  0  0  0  0  0  0  0  0  0  0  0
   -2.7080    0.5470    0.8470 C   0  0  0  0  0  0  0  0  0  0  0  0
   -2.5620   -0.2480   -0.4190 C   0  0  0  0  0  0  0  0  0  0  0  0
   -1.1090   -0.3690   -0.7840 C   0  0  0  0  0  0  0  0  0  0  0  0
   -0.2640   -1.0570    0.2540 C   0  0  0  0  0  0  0  0  0  0  0  0
    1.1410   -1.1270   -0.2420 C   0  0  2  0  0  0  0  0  0  0  0  0
    2.0650   -1.8240    0.7710 C   0  0  0  0  0  0  0  0  0  0  0  0
    3.3480   -1.7170   -0.0300 C   0  0  0  0  0  0  0  0  0  0  0  0
    3.3170   -0.2820   -0.4910 C   0  0  2  0  0  0  0  0  0  0  0  0
    4.1940    0.5270    0.4040 C   0  0  0  0  0  0  0  0  0  0  0  0
    1.8490    0.1610   -0.4210 C   0  0  1  0  0  0  0  0  0  0  0  0
    1.5030    0.8330   -1.5840 F   0  0  0  0  0  0  0  0  0  0  0  0
    1.6270    1.2970    0.9620 S   0  0  0  0  0  0  0  0  0  0  0  0
    2.4610    2.7700    0.7120 O   0  0  0  0  0  0  0  0  0  0  0  0
    2.2530    3.2570   -0.4790 F   0  0  0  0  0  0  0  0  0  0  0  0
  1  2  1  0
  2  3  1  0
  3  4  1  0
  4  5  1  0
  5  6  1  0
  7  6  1  1
  7  8  1  0
  7 12  1  0
  8  9  1  0
  9 10  1  0
 10 11  1  1
 10 12  1  0
 12 13  1  6
 12 14  1  0
 14 15  1  0
 15 16  1  0
M  END
