
     RDKit          3D

 16 17  0  0  0  0  0  0  0  0999 V2000
    3.4600   -2.4580    0.6560 F   0  0  0  0  0  0  0  0  0  0  0  0
    4.0110   -1.3530    0.0560 C   0  0  2  0  0  0  0  0  0  0  0  0
    4.5380   -1.7230   -1.1780 F   0  0  0  0  0  0  0  0  0  0  0  0
    5.0470   -0.9120    0.8960 O   0  0  0  0  0  0  0  0  0  0  0  0
    5.6640    0.1790    0.2520 C   0  0  0  0  0  0  0  0  0  0  0  0
    4.1410    1.1760   -0.0840 S   0  0  0  0  0  0  0  0  0  0  0  0
    3.0570   -0.2410   -0.0900 C   0  0  0  0  0  0  0  0  0  0  0  0
    1.7660   -0.2300   -0.1980 C   0  0  0  0  0  0  0  0  0  0  0  0
    0.9530    1.0210   -0.3400 C   0  0  0  0  0  0  0  0  0  0  0  0
   -0.0270    1.1800    0.7890 C   0  0  0  0  0  0  0  0  0  0  0  0
   -1.0010    0.0550    0.8770 C   0  0  0  0  0  0  0  0  0  0  0  0
   -1.8420   -0.1250   -0.3530 C   0  0  1  0  0  0  0  0  0  0  0  0
   -2.7710   -1.3150   -0.0760 C   0  0  0  0  0  0  0  0  0  0  0  0
   -3.9990   -0.6260    0.4640 C   0  0  0  0  0  0  0  0  0  0  0  0
   -4.1720    0.5270   -0.5200 C   0  0  0  0  0  0  0  0  0  0  0  0
   -2.7490    1.0280   -0.6390 C   0  0  0  0  0  0  0  0  0  0  0  0
  2  1  1  1
  2  3  1  0
  2  4  1  0
  2  7  1  0
  4  5  1  0
  5  6  1  0
  6  7  1  0
  7  8  2  3
  8  9  1  0
  9 10  1  0
 10 11  1  0
 12 11  1  1
 12 13  1  0
 12 16  1  0
 13 14  1  0
 14 15  1  0
 15 16  1  0
M  END
