
     RDKit          3D

 14 14  0  0  0  0  0  0  0  0999 V2000
    3.8000   -1.3990   -0.2300 C   0  0  0  0  0  0  0  0  0  0  0  0
    2.8300   -0.2460   -0.5380 C   0  0  0  0  0  0  0  0  0  0  0  0
    1.4720   -0.7160   -0.0500 C   0  0  0  0  0  0  0  0  0  0  0  0
    0.3970    0.3190   -0.2890 C   0  0  2  0  0  0  0  0  0  0  0  0
    0.8210    1.5370    0.4660 C   0  0  0  0  0  0  0  0  0  0  0  0
   -0.1530    2.6280    0.6090 C   0  0  0  0  0  0  0  0  0  0  0  0
   -1.5850    2.2680    0.7160 C   0  0  0  0  0  0  0  0  0  0  0  0
   -1.8620    1.1330   -0.2420 C   0  0  0  0  0  0  0  0  0  0  0  0
   -0.9610   -0.0690    0.0890 C   0  0  2  0  0  0  0  0  0  0  0  0
   -1.0530   -0.2100    1.6130 C   0  0  0  0  0  0  0  0  0  0  0  0
   -1.5860   -1.2530   -0.5190 C   0  0  2  0  0  0  0  0  0  0  0  0
   -1.7060   -1.1600   -2.0400 C   0  0  0  0  0  0  0  0  0  0  0  0
   -2.9400   -1.3200   -0.0900 O   0  0  0  0  0  0  0  0  0  0  0  0
   -0.8640   -2.8360   -0.1580 S   0  0  0  0  0  0  0  0  0  0  0  0
  1  2  1  0
  2  3  1  0
  4  3  1  1
  4  5  1  0
  4  9  1  0
  5  6  1  0
  6  7  1  0
  7  8  1  0
  8  9  1  0
  9 10  1  1
  9 11  1  0
 11 12  1  6
 11 13  1  0
 11 14  1  0
M  END
