
     RDKit          3D

 15 15  0  0  0  0  0  0  0  0999 V2000
    5.1410   -0.7240    0.4030 C   0  0  0  0  0  0  0  0  0  0  0  0
    3.6860   -0.2740    0.5500 C   0  0  0  0  0  0  0  0  0  0  0  0
    2.9060   -0.6600   -0.6770 C   0  0  0  0  0  0  0  0  0  0  0  0
    1.4580   -0.3000   -0.6580 C   0  0  0  0  0  0  0  0  0  0  0  0
    1.1310    1.1390   -0.5380 C   0  0  1  0  0  0  0  0  0  0  0  0
   -0.3590    1.4130   -0.5450 C   0  0  0  0  0  0  0  0  0  0  0  0
   -1.0640    0.4880    0.4440 C   0  0  0  0  0  0  0  0  0  0  0  0
   -2.3020   -0.1770    0.0720 C   0  0  1  0  0  0  0  0  0  0  0  0
   -2.8460   -1.1200    1.0950 C   0  0  0  0  0  0  0  0  0  0  0  0
   -3.4200    0.7950   -0.2720 C   0  0  0  0  0  0  0  0  0  0  0  0
   -4.6310   -0.0390   -0.6350 C   0  0  0  0  0  0  0  0  0  0  0  0
   -0.5050    0.3240    1.6240 C   0  0  0  0  0  0  0  0  0  0  0  0
   -1.0260   -0.4650    2.5880 F   0  0  0  0  0  0  0  0  0  0  0  0
    1.0390    1.1870    1.9940 S   0  0  0  0  0  0  0  0  0  0  0  0
    1.7000    1.7640    0.5450 O   0  0  0  0  0  0  0  0  0  0  0  0
  1  2  1  0
  2  3  1  0
  3  4  1  0
  5  4  1  1
  5  6  1  0
  5 15  1  0
  6  7  1  0
  7  8  1  0
  7 12  2  0
  8  9  1  1
  8 10  1  0
 10 11  1  0
 12 13  1  0
 12 14  1  0
 14 15  1  0
M  END
