
     RDKit          3D

 15 15  0  0  0  0  0  0  0  0999 V2000
   -4.1590    1.2240   -1.3260 C   0  0  0  0  0  0  0  0  0  0  0  0
   -3.7090    0.2180   -0.2950 C   0  0  2  0  0  0  0  0  0  0  0  0
   -4.8700    0.0070    0.6720 C   0  0  0  0  0  0  0  0  0  0  0  0
   -2.6040    0.6140    0.4070 O   0  0  0  0  0  0  0  0  0  0  0  0
   -1.5960   -0.3370    0.2590 C   0  0  1  0  0  0  0  0  0  0  0  0
   -0.3920    0.3860   -0.2760 C   0  0  0  0  0  0  0  0  0  0  0  0
    0.8080   -0.4650   -0.5090 C   0  0  1  0  0  0  0  0  0  0  0  0
    1.9010    0.4670   -1.0530 C   0  0  0  0  0  0  0  0  0  0  0  0
    2.6170    1.0740    0.1100 C   0  0  0  0  0  0  0  0  0  0  0  0
    3.6010    0.0250    0.6430 C   0  0  2  0  0  0  0  0  0  0  0  0
    4.8350    0.1170   -0.1990 C   0  0  0  0  0  0  0  0  0  0  0  0
    2.9020   -1.3110    0.5480 C   0  0  0  0  0  0  0  0  0  0  0  0
    1.3850   -1.1130    0.7060 C   0  0  0  0  0  0  0  0  0  0  0  0
   -1.1830   -1.0720    1.8740 S   0  0  0  0  0  0  0  0  0  0  0  0
   -2.4870   -1.9790    2.4840 F   0  0  0  0  0  0  0  0  0  0  0  0
  2  1  1  6
  2  3  1  0
  2  4  1  0
  4  5  1  0
  5  6  1  1
  5 14  1  0
  7  6  1  1
  7  8  1  0
  7 13  1  0
  8  9  1  0
  9 10  1  0
 10 11  1  6
 10 12  1  0
 12 13  1  0
 14 15  1  0
M  END
