
     RDKit          3D

 13 14  0  0  0  0  0  0  0  0999 V2000
   -4.0840    0.2220   -0.2550 N   0  0  0  0  0  0  0  0  0  0  0  0
   -2.7600    0.8010   -0.0420 C   0  0  0  0  0  0  0  0  0  0  0  0
   -1.8340   -0.3490    0.2790 C   0  0  2  0  0  0  0  0  0  0  0  0
   -2.3170   -0.9700    1.4280 O   0  0  0  0  0  0  0  0  0  0  0  0
   -0.4040    0.1170    0.4730 C   0  0  1  0  0  0  0  0  0  0  0  0
    0.3960   -1.0780    0.9200 C   0  0  0  0  0  0  0  0  0  0  0  0
    1.7830   -0.7690    1.1770 N   0  0  0  0  0  0  0  0  0  0  0  0
    2.2120    0.2300    0.2730 C   0  0  1  0  0  0  0  0  0  0  0  0
    3.5070   -0.0880   -0.4440 C   0  0  0  0  0  0  0  0  0  0  0  0
    3.4580    0.5050   -1.6800 O   0  0  0  0  0  0  0  0  0  0  0  0
    2.1700    0.9970   -1.8800 C   0  0  0  0  0  0  0  0  0  0  0  0
    1.3030    0.2020   -0.9680 C   0  0  2  0  0  0  0  0  0  0  0  0
    0.1030    0.7360   -0.6470 O   0  0  0  0  0  0  0  0  0  0  0  0
  1  2  1  0
  2  3  1  0
  3  4  1  1
  3  5  1  0
  5  6  1  6
  5 13  1  0
  6  7  1  0
  7  8  1  0
  8  9  1  6
  8 12  1  0
  9 10  1  0
 10 11  1  0
 12 11  1  6
 12 13  1  0
M  CHG  2   1   1   7   1
M  END
