
     RDKit          3D

  6  5  0  0  0  0  0  0  0  0999 V2000
    2.0750   -0.0360    0.0690 C   0  0  0  0  0  0  0  0  0  0  0  0
    0.8550   -0.7420    0.0260 O   0  0  0  0  0  0  0  0  0  0  0  0
   -0.3340   -0.1520    0.3720 C   0  0  0  0  0  0  0  0  0  0  0  0
   -0.3360    0.7090    1.3280 N   0  0  0  0  0  0  0  0  0  0  0  0
   -1.6240   -0.4540   -0.3010 C   0  0  0  0  0  0  0  0  0  0  0  0
   -2.6460    0.2990    0.2700 O   0  0  0  0  0  0  0  0  0  0  0  0
  1  2  1  0
  2  3  1  0
  3  4  2  0
  3  5  1  0
  5  6  1  0
M  END
