
     RDKit          3D

  6  5  0  0  0  0  0  0  0  0999 V2000
    0.6030    1.1820   -0.2080 C   0  0  0  0  0  0  0  0  0  0  0  0
    0.1020   -0.1890    0.0600 C   0  0  0  0  0  0  0  0  0  0  0  0
   -1.1840   -0.4100    0.7850 C   0  0  0  0  0  0  0  0  0  0  0  0
   -2.2570    0.1620    0.1160 O   0  0  0  0  0  0  0  0  0  0  0  0
    0.7770   -1.1960   -0.3330 N   0  0  0  0  0  0  0  0  0  0  0  0
    1.9350   -1.2270   -0.9880 O   0  0  0  0  0  0  0  0  0  0  0  0
  1  2  1  0
  2  3  1  0
  2  5  2  3
  3  4  1  0
  5  6  1  0
M  END
