
     RDKit          3D

 14 14  0  0  0  0  0  0  0  0999 V2000
   -2.1810   -1.1160    1.6930 C   0  0  0  0  0  0  0  0  0  0  0  0
   -2.0170   -0.3720    0.3890 C   0  0  2  0  0  0  0  0  0  0  0  0
   -3.1370    0.3680    0.1420 O   0  0  0  0  0  0  0  0  0  0  0  0
   -1.7240   -1.3080   -0.5940 O   0  0  0  0  0  0  0  0  0  0  0  0
   -0.4810   -1.7870   -0.2300 C   0  0  0  0  0  0  0  0  0  0  0  0
    0.2900   -0.6450    0.3770 C   0  0  1  0  0  0  0  0  0  0  0  0
    1.4340   -0.2700   -0.4050 N   0  0  0  0  0  0  0  0  0  0  0  0
    2.7200   -0.1690    0.1770 C   0  0  0  0  0  0  0  0  0  0  0  0
    2.8490   -0.4180    1.4220 O   0  0  0  0  0  0  0  0  0  0  0  0
    3.8880    0.2170   -0.6380 C   0  0  0  0  0  0  0  0  0  0  0  0
    5.0210    0.2410    0.1740 O   0  0  0  0  0  0  0  0  0  0  0  0
   -0.7630    0.4660    0.3670 C   0  0  1  0  0  0  0  0  0  0  0  0
   -0.6620    1.1530   -0.9580 C   0  0  0  0  0  0  0  0  0  0  0  0
   -1.7800    2.0250   -1.2430 N   0  0  0  0  0  0  0  0  0  0  0  0
  2  1  1  1
  2  3  1  0
  2  4  1  0
  2 12  1  0
  4  5  1  0
  5  6  1  0
  6  7  1  6
  6 12  1  0
  7  8  1  0
  8  9  2  0
  8 10  1  0
 10 11  1  0
 12 13  1  6
 13 14  1  0
M  CHG  1  14   1
M  END
