
     RDKit          3D

  6  5  0  0  0  0  0  0  0  0999 V2000
    2.1860   -0.1040   -0.1410 C   0  0  0  0  0  0  0  0  0  0  0  0
    1.1060    0.3240    0.6950 O   0  0  0  0  0  0  0  0  0  0  0  0
   -0.0210   -0.4810    0.7800 C   0  0  0  0  0  0  0  0  0  0  0  0
   -1.2200   -0.0530    0.4110 C   0  0  0  0  0  0  0  0  0  0  0  0
   -1.4140    1.2550   -0.0920 N   0  0  0  0  0  0  0  0  0  0  0  0
   -2.3070   -0.8970    0.5170 O   0  0  0  0  0  0  0  0  0  0  0  0
  1  2  1  0
  2  3  1  0
  3  4  2  3
  4  5  1  0
  4  6  1  0
M  END
