
     RDKit          3D

  6  5  0  0  0  0  0  0  0  0999 V2000
   -2.3490   -0.0160    0.4560 C   0  0  0  0  0  0  0  0  0  0  0  0
   -1.0710    0.2130    0.9790 O   0  0  0  0  0  0  0  0  0  0  0  0
   -0.1680   -0.0730   -0.0430 C   0  0  0  0  0  0  0  0  0  0  0  0
    1.2280    0.1410    0.4160 C   0  0  0  0  0  0  0  0  0  0  0  0
    2.1520    0.0750   -0.4900 N   0  0  0  0  0  0  0  0  0  0  0  0
    3.4440    0.2770   -0.0440 O   0  0  0  0  0  0  0  0  0  0  0  0
  1  2  1  0
  2  3  1  0
  3  4  1  0
  4  5  2  3
  5  6  1  0
M  END
