
     RDKit          3D

 11 11  0  0  0  0  0  0  0  0999 V2000
    2.6090   -1.1450    0.7880 C   0  0  0  0  0  0  0  0  0  0  0  0
    1.3750   -0.7720    0.1280 N   0  0  0  0  0  0  0  0  0  0  0  0
    1.2650    0.6530   -0.0710 C   0  0  1  0  0  0  0  0  0  0  0  0
    2.5120    1.2690   -0.6150 C   0  0  0  0  0  0  0  0  0  0  0  0
    0.1600    0.8790   -1.1010 C   0  0  0  0  0  0  0  0  0  0  0  0
   -1.1400    0.3370   -0.6300 C   0  0  0  0  0  0  0  0  0  0  0  0
   -2.0170    1.1240    0.0980 C   0  0  0  0  0  0  0  0  0  0  0  0
   -3.2340    0.6640    0.5560 C   0  0  0  0  0  0  0  0  0  0  0  0
   -3.6170   -0.6350    0.2890 C   0  0  0  0  0  0  0  0  0  0  0  0
   -2.7600   -1.4390   -0.4350 C   0  0  0  0  0  0  0  0  0  0  0  0
   -1.5440   -0.9570   -0.8850 C   0  0  0  0  0  0  0  0  0  0  0  0
  1  2  1  0
  2  3  1  0
  3  4  1  6
  3  5  1  0
  5  6  1  0
  6  7  2  0
  6 11  1  0
  7  8  1  0
  8  9  2  0
  9 10  1  0
 10 11  2  0
M  CHG  1   2   1
M  END
