
     RDKit          3D

  6  5  0  0  0  0  0  0  0  0999 V2000
    2.0970   -0.6580    0.3840 C   0  0  0  0  0  0  0  0  0  0  0  0
    0.7260   -0.4960    0.0810 O   0  0  0  0  0  0  0  0  0  0  0  0
    0.0560    0.5810    0.6290 C   0  0  0  0  0  0  0  0  0  0  0  0
    0.6110    1.4160    1.3800 O   0  0  0  0  0  0  0  0  0  0  0  0
   -1.3850    0.7400    0.3040 C   0  0  0  0  0  0  0  0  0  0  0  0
   -1.8810   -0.2790   -0.5570 N   0  0  0  0  0  0  0  0  0  0  0  0
  1  2  1  0
  2  3  1  0
  3  4  2  0
  3  5  1  0
  5  6  1  0
M  END
