
     RDKit          3D

  6  5  0  0  0  0  0  0  0  0999 V2000
   -1.9310    0.4820   -0.1190 C   0  0  0  0  0  0  0  0  0  0  0  0
   -0.6700   -0.2040   -0.5880 C   0  0  0  0  0  0  0  0  0  0  0  0
    0.3850    0.0710    0.3700 N   0  0  0  0  0  0  0  0  0  0  0  0
    1.7080   -0.4390    0.2100 C   0  0  0  0  0  0  0  0  0  0  0  0
    1.8920   -1.1500   -0.8320 O   0  0  0  0  0  0  0  0  0  0  0  0
    2.7270   -0.1830    1.1200 O   0  0  0  0  0  0  0  0  0  0  0  0
  1  2  1  0
  2  3  1  0
  3  4  1  0
  4  5  2  0
  4  6  1  0
M  END
