
     RDKit          3D

  6  5  0  0  0  0  0  0  0  0999 V2000
   -2.0680   -0.6830   -0.0820 N   0  0  0  0  0  0  0  0  0  0  0  0
   -0.8990    0.0700    0.2120 C   0  0  0  0  0  0  0  0  0  0  0  0
   -0.9810    1.1680    1.0550 O   0  0  0  0  0  0  0  0  0  0  0  0
    0.2480   -0.3030   -0.3340 C   0  0  0  0  0  0  0  0  0  0  0  0
    1.5140    0.4330   -0.0750 C   0  0  0  0  0  0  0  0  0  0  0  0
    2.3960   -0.4760    0.5090 O   0  0  0  0  0  0  0  0  0  0  0  0
  1  2  1  0
  2  3  1  0
  2  4  2  3
  4  5  1  0
  5  6  1  0
M  END
