
     RDKit          3D

 22 22  0  0  0  0  0  0  0  0999 V2000
    1.6550   -3.6580   -2.4280 C   0  0  0  0  0  0  0  0  0  0  0  0
    2.1770   -3.5100   -1.1930 O   0  0  0  0  0  0  0  0  0  0  0  0
    1.9900   -2.3640   -0.4930 C   0  0  0  0  0  0  0  0  0  0  0  0
    2.5620   -1.1780   -1.2130 C   0  0  2  0  0  0  0  0  0  0  0  0
    1.9070   -1.0200   -2.4210 O   0  0  0  0  0  0  0  0  0  0  0  0
    4.0310   -1.3980   -1.5460 C   0  0  0  0  0  0  0  0  0  0  0  0
    4.4680   -0.2680   -2.2350 O   0  0  0  0  0  0  0  0  0  0  0  0
    2.3680    0.1070   -0.4360 C   0  0  0  0  0  0  0  0  0  0  0  0
    1.0130    0.2880   -0.2580 O   0  0  0  0  0  0  0  0  0  0  0  0
    0.6840    1.4460    0.4500 C   0  0  1  0  0  0  0  0  0  0  0  0
    0.0310    2.3730   -0.3120 O   0  0  0  0  0  0  0  0  0  0  0  0
   -1.0730    2.9630    0.2900 C   0  0  0  0  0  0  0  0  0  0  0  0
   -1.9950    1.8260    0.8190 C   0  0  1  0  0  0  0  0  0  0  0  0
   -3.1070    2.5230    1.3100 O   0  0  0  0  0  0  0  0  0  0  0  0
   -2.4210    1.0390   -0.3680 C   0  0  0  0  0  0  0  0  0  0  0  0
   -2.9010    1.9940   -1.3060 O   0  0  0  0  0  0  0  0  0  0  0  0
   -1.1920    1.1320    1.8500 C   0  0  1  0  0  0  0  0  0  0  0  0
   -1.7160   -0.1550    2.3880 C   0  0  0  0  0  0  0  0  0  0  0  0
   -3.0260   -0.0690    3.0800 C   0  0  2  0  0  0  0  0  0  0  0  0
   -4.0930    0.3820    2.3400 O   0  0  0  0  0  0  0  0  0  0  0  0
   -2.9450    0.7460    4.2370 O   0  0  0  0  0  0  0  0  0  0  0  0
    0.1720    1.0930    1.6410 O   0  0  0  0  0  0  0  0  0  0  0  0
  1  2  1  0
  2  3  1  0
  3  4  1  0
  4  5  1  6
  4  6  1  0
  4  8  1  0
  6  7  1  0
  8  9  1  0
 10  9  1  6
 10 11  1  0
 10 22  1  0
 11 12  1  0
 12 13  1  0
 13 14  1  1
 13 15  1  0
 13 17  1  0
 15 16  1  0
 17 18  1  6
 17 22  1  0
 18 19  1  0
 19 20  1  6
 19 21  1  0
M  END
