
     RDKit          3D

 22 22  0  0  0  0  0  0  0  0999 V2000
   -1.4950    4.0030   -0.2370 C   0  0  0  0  0  0  0  0  0  0  0  0
   -0.3210    3.4410    0.2350 O   0  0  0  0  0  0  0  0  0  0  0  0
   -0.5100    2.1100    0.6700 C   0  0  2  0  0  0  0  0  0  0  0  0
   -0.2220    2.0400    2.1350 C   0  0  0  0  0  0  0  0  0  0  0  0
   -0.3970    0.7450    2.6180 O   0  0  0  0  0  0  0  0  0  0  0  0
    0.3810    1.2690   -0.1890 C   0  0  2  0  0  0  0  0  0  0  0  0
   -0.0550    1.4800   -1.5170 O   0  0  0  0  0  0  0  0  0  0  0  0
   -0.8790    0.5090   -1.9930 C   0  0  0  0  0  0  0  0  0  0  0  0
   -1.6790   -0.2620   -1.0170 C   0  0  1  0  0  0  0  0  0  0  0  0
   -2.0010   -1.6060   -1.6380 C   0  0  2  0  0  0  0  0  0  0  0  0
   -2.6110   -1.3680   -2.8890 O   0  0  0  0  0  0  0  0  0  0  0  0
   -2.9680   -2.3970   -0.7910 C   0  0  0  0  0  0  0  0  0  0  0  0
   -4.1450   -1.6330   -0.6380 O   0  0  0  0  0  0  0  0  0  0  0  0
   -1.0760   -0.4700    0.2200 O   0  0  0  0  0  0  0  0  0  0  0  0
    0.2840   -0.2060    0.0430 C   0  0  2  0  0  0  0  0  0  0  0  0
    1.0780   -0.7230    1.0180 O   0  0  0  0  0  0  0  0  0  0  0  0
    1.8980   -1.7050    0.5260 C   0  0  2  0  0  0  0  0  0  0  0  0
    1.6280   -2.9620    1.0760 O   0  0  0  0  0  0  0  0  0  0  0  0
    3.3710   -1.4750    0.7400 C   0  0  2  0  0  0  0  0  0  0  0  0
    3.6860   -1.3760    2.0820 O   0  0  0  0  0  0  0  0  0  0  0  0
    3.9360   -0.3610   -0.0850 C   0  0  0  0  0  0  0  0  0  0  0  0
    5.3440   -0.3820    0.0280 O   0  0  0  0  0  0  0  0  0  0  0  0
  1  2  1  0
  2  3  1  0
  3  4  1  1
  3  6  1  0
  4  5  1  0
  6  7  1  6
  6 15  1  0
  7  8  1  0
  9  8  1  6
  9 10  1  0
  9 14  1  0
 10 11  1  6
 10 12  1  0
 12 13  1  0
 14 15  1  0
 15 16  1  1
 16 17  1  0
 17 18  1  1
 17 19  1  0
 19 20  1  1
 19 21  1  0
 21 22  1  0
M  END
