
     RDKit          3D

 22 22  0  0  0  0  0  0  0  0999 V2000
    4.3390    1.1560    0.9700 O   0  0  0  0  0  0  0  0  0  0  0  0
    5.4920    0.4780    0.7020 C   0  0  0  0  0  0  0  0  0  0  0  0
    5.3020   -0.8770    0.1460 C   0  0  2  0  0  0  0  0  0  0  0  0
    6.6110   -1.4400   -0.0310 O   0  0  0  0  0  0  0  0  0  0  0  0
    4.6150   -0.9930   -1.0460 O   0  0  0  0  0  0  0  0  0  0  0  0
    3.6090   -1.9180   -1.0660 C   0  0  0  0  0  0  0  0  0  0  0  0
    2.4350   -1.6330   -0.1740 C   0  0  0  0  0  0  0  0  0  0  0  0
    1.7520   -0.3820   -0.6460 C   0  0  1  0  0  0  0  0  0  0  0  0
    1.2890   -0.5680   -1.9770 O   0  0  0  0  0  0  0  0  0  0  0  0
    0.6600    0.1140    0.2540 C   0  0  1  0  0  0  0  0  0  0  0  0
    0.2250    1.3240   -0.2600 O   0  0  0  0  0  0  0  0  0  0  0  0
   -0.4830   -0.8240    0.3900 C   0  0  0  0  0  0  0  0  0  0  0  0
   -1.5080   -0.4810    1.2000 O   0  0  0  0  0  0  0  0  0  0  0  0
   -2.2750    0.5930    0.9470 C   0  0  2  0  0  0  0  0  0  0  0  0
   -2.2220    1.5860    1.9300 O   0  0  0  0  0  0  0  0  0  0  0  0
   -3.7510    0.2720    0.7770 C   0  0  2  0  0  0  0  0  0  0  0  0
   -3.9610   -0.5980   -0.2650 O   0  0  0  0  0  0  0  0  0  0  0  0
   -5.2430   -0.4240   -0.7240 C   0  0  1  0  0  0  0  0  0  0  0  0
   -6.1420   -1.3440   -0.1890 O   0  0  0  0  0  0  0  0  0  0  0  0
   -5.6920    0.9560   -0.3540 C   0  0  0  0  0  0  0  0  0  0  0  0
   -4.4750    1.5310    0.3210 C   0  0  2  0  0  0  0  0  0  0  0  0
   -3.6860    2.1370   -0.6380 O   0  0  0  0  0  0  0  0  0  0  0  0
  1  2  1  0
  2  3  1  0
  3  4  1  6
  3  5  1  0
  5  6  1  0
  6  7  1  0
  7  8  1  0
  8  9  1  6
  8 10  1  0
 10 11  1  6
 10 12  1  0
 12 13  1  0
 13 14  1  0
 14 15  1  1
 14 16  1  0
 16 17  1  6
 16 21  1  0
 17 18  1  0
 18 19  1  1
 18 20  1  0
 20 21  1  0
 21 22  1  6
M  END
