
     RDKit          3D

 22 22  0  0  0  0  0  0  0  0999 V2000
   -3.7990   -2.7850    1.0740 O   0  0  0  0  0  0  0  0  0  0  0  0
   -3.8270   -1.4940    0.5710 C   0  0  0  0  0  0  0  0  0  0  0  0
   -3.4940   -1.4410   -0.9130 C   0  0  1  0  0  0  0  0  0  0  0  0
   -4.4960   -2.2350   -1.5270 O   0  0  0  0  0  0  0  0  0  0  0  0
   -3.7020   -0.0560   -1.4140 C   0  0  1  0  0  0  0  0  0  0  0  0
   -5.0020    0.3340   -1.0150 O   0  0  0  0  0  0  0  0  0  0  0  0
   -2.7680    0.9830   -0.9060 C   0  0  0  0  0  0  0  0  0  0  0  0
   -1.3040    0.7250   -1.2390 C   0  0  2  0  0  0  0  0  0  0  0  0
   -0.8250   -0.4470   -0.7250 O   0  0  0  0  0  0  0  0  0  0  0  0
   -0.4910    1.9540   -0.9110 C   0  0  1  0  0  0  0  0  0  0  0  0
   -1.1380    3.0520   -1.5170 O   0  0  0  0  0  0  0  0  0  0  0  0
   -0.2150    2.1680    0.3980 O   0  0  0  0  0  0  0  0  0  0  0  0
    1.0620    2.3420    0.7970 C   0  0  0  0  0  0  0  0  0  0  0  0
    2.0190    1.2040    0.5570 C   0  0  1  0  0  0  0  0  0  0  0  0
    3.2960    1.5410    0.9830 O   0  0  0  0  0  0  0  0  0  0  0  0
    4.0080    0.4640    1.4810 C   0  0  0  0  0  0  0  0  0  0  0  0
    3.7380   -0.7030    0.5670 C   0  0  1  0  0  0  0  0  0  0  0  0
    3.9680   -0.3010   -0.7470 O   0  0  0  0  0  0  0  0  0  0  0  0
    4.6220   -1.8890    0.8810 C   0  0  0  0  0  0  0  0  0  0  0  0
    5.9470   -1.4770    0.7130 O   0  0  0  0  0  0  0  0  0  0  0  0
    2.2940   -1.0900    0.7810 C   0  0  0  0  0  0  0  0  0  0  0  0
    1.5730    0.0140    1.0950 O   0  0  0  0  0  0  0  0  0  0  0  0
  1  2  1  0
  2  3  1  0
  3  4  1  6
  3  5  1  0
  5  6  1  1
  5  7  1  0
  7  8  1  0
  8  9  1  1
  8 10  1  0
 10 11  1  1
 10 12  1  0
 12 13  1  0
 14 13  1  1
 14 15  1  0
 14 22  1  0
 15 16  1  0
 16 17  1  0
 17 18  1  6
 17 19  1  0
 17 21  1  0
 19 20  1  0
 21 22  1  0
M  END
