
     RDKit          3D

 22 22  0  0  0  0  0  0  0  0999 V2000
    1.5830    1.2330   -1.9270 C   0  0  0  0  0  0  0  0  0  0  0  0
    1.8480    0.1080   -0.9160 C   0  0  2  0  0  0  0  0  0  0  0  0
    2.2700   -1.0910   -1.7190 C   0  0  0  0  0  0  0  0  0  0  0  0
    3.3730   -0.7720   -2.4930 O   0  0  0  0  0  0  0  0  0  0  0  0
    0.7570   -0.1250   -0.1190 O   0  0  0  0  0  0  0  0  0  0  0  0
   -0.3890   -0.4990   -0.7680 C   0  0  0  0  0  0  0  0  0  0  0  0
   -1.4620   -0.7010    0.3120 C   0  0  1  0  0  0  0  0  0  0  0  0
   -1.6050    0.5010    0.9570 O   0  0  0  0  0  0  0  0  0  0  0  0
   -2.7310    1.2120    0.5540 C   0  0  0  0  0  0  0  0  0  0  0  0
   -3.9990    0.4120    0.7270 C   0  0  1  0  0  0  0  0  0  0  0  0
   -4.5790    0.7190    1.9350 O   0  0  0  0  0  0  0  0  0  0  0  0
   -4.9320    0.7270   -0.4220 C   0  0  0  0  0  0  0  0  0  0  0  0
   -6.1040   -0.0130   -0.2940 O   0  0  0  0  0  0  0  0  0  0  0  0
   -3.6400   -1.0590    0.7100 C   0  0  2  0  0  0  0  0  0  0  0  0
   -3.0890   -1.3680    1.9690 O   0  0  0  0  0  0  0  0  0  0  0  0
   -2.6180   -1.2150   -0.2240 O   0  0  0  0  0  0  0  0  0  0  0  0
    2.9580    0.6310   -0.0230 C   0  0  2  0  0  0  0  0  0  0  0  0
    2.4370    1.8190    0.5490 O   0  0  0  0  0  0  0  0  0  0  0  0
    4.0900    0.9930   -0.7070 O   0  0  0  0  0  0  0  0  0  0  0  0
    3.2330   -0.2930    1.1370 C   0  0  0  0  0  0  0  0  0  0  0  0
    4.3350    0.2860    1.9710 C   0  0  0  0  0  0  0  0  0  0  0  0
    5.5230    0.4530    1.2740 O   0  0  0  0  0  0  0  0  0  0  0  0
  2  1  1  6
  2  3  1  0
  2  5  1  0
  2 17  1  0
  3  4  1  0
  5  6  1  0
  7  6  1  6
  7  8  1  0
  7 16  1  0
  8  9  1  0
  9 10  1  0
 10 11  1  1
 10 12  1  0
 10 14  1  0
 12 13  1  0
 14 15  1  1
 14 16  1  0
 17 18  1  1
 17 19  1  0
 17 20  1  0
 20 21  1  0
 21 22  1  0
M  END
