
     RDKit          3D

 22 22  0  0  0  0  0  0  0  0999 V2000
    3.2990    1.7520    0.9720 O   0  0  0  0  0  0  0  0  0  0  0  0
    4.3230    1.6780    0.0790 C   0  0  0  0  0  0  0  0  0  0  0  0
    4.8400    0.2830   -0.1260 C   0  0  0  0  0  0  0  0  0  0  0  0
    3.9090   -0.5820   -0.5960 O   0  0  0  0  0  0  0  0  0  0  0  0
    2.8310   -0.8870    0.1850 C   0  0  1  0  0  0  0  0  0  0  0  0
    1.5890   -0.4110   -0.5580 C   0  0  0  0  0  0  0  0  0  0  0  0
    0.5980   -1.5830   -0.4770 C   0  0  2  0  0  0  0  0  0  0  0  0
   -0.7260   -1.1850   -1.0590 C   0  0  2  0  0  0  0  0  0  0  0  0
   -0.4770   -0.8200   -2.4150 O   0  0  0  0  0  0  0  0  0  0  0  0
   -1.2290   -0.0710   -0.4590 O   0  0  0  0  0  0  0  0  0  0  0  0
   -2.5410   -0.1430   -0.0790 C   0  0  1  0  0  0  0  0  0  0  0  0
   -2.6290    0.0900    1.4090 C   0  0  0  0  0  0  0  0  0  0  0  0
   -3.9490    0.0500    1.8620 O   0  0  0  0  0  0  0  0  0  0  0  0
   -3.3940    0.9030   -0.7690 C   0  0  2  0  0  0  0  0  0  0  0  0
   -4.7020    0.8010   -0.3650 O   0  0  0  0  0  0  0  0  0  0  0  0
   -3.3030    0.7090   -2.1470 O   0  0  0  0  0  0  0  0  0  0  0  0
   -2.9140    2.3050   -0.4750 C   0  0  0  0  0  0  0  0  0  0  0  0
   -3.7430    3.1720   -1.1990 O   0  0  0  0  0  0  0  0  0  0  0  0
    0.5410   -1.9350    0.9940 C   0  0  2  0  0  0  0  0  0  0  0  0
    0.6420   -0.7420    1.7230 O   0  0  0  0  0  0  0  0  0  0  0  0
    1.8500   -2.7030    1.2620 C   0  0  0  0  0  0  0  0  0  0  0  0
    2.8290   -2.2780    0.3500 O   0  0  0  0  0  0  0  0  0  0  0  0
  1  2  1  0
  2  3  1  0
  3  4  1  0
  5  4  1  6
  5  6  1  0
  5 22  1  0
  7  6  1  1
  7  8  1  0
  7 19  1  0
  8  9  1  6
  8 10  1  0
 10 11  1  0
 11 12  1  1
 11 14  1  0
 12 13  1  0
 14 15  1  1
 14 16  1  0
 14 17  1  0
 17 18  1  0
 19 20  1  1
 19 21  1  0
 21 22  1  0
M  END
