
     RDKit          3D

 15 15  0  0  0  0  0  0  0  0999 V2000
   -4.9710   -0.4390   -0.2310 C   0  0  0  0  0  0  0  0  0  0  0  0
   -4.2990    0.2900    0.9130 C   0  0  0  0  0  0  0  0  0  0  0  0
   -2.9090    0.2740    0.6780 O   0  0  0  0  0  0  0  0  0  0  0  0
   -2.1530   -0.8580    0.5630 C   0  0  0  0  0  0  0  0  0  0  0  0
   -2.7280   -1.9700    0.6720 O   0  0  0  0  0  0  0  0  0  0  0  0
   -0.7120   -0.8550    0.3190 C   0  0  0  0  0  0  0  0  0  0  0  0
   -0.0170    0.2600    0.1880 C   0  0  0  0  0  0  0  0  0  0  0  0
    1.3990    0.3490   -0.0520 C   0  0  0  0  0  0  0  0  0  0  0  0
    1.9800    1.5880   -0.1640 C   0  0  0  0  0  0  0  0  0  0  0  0
    3.3250    1.7520   -0.3940 C   0  0  0  0  0  0  0  0  0  0  0  0
    4.1110    0.6330   -0.5140 C   0  0  0  0  0  0  0  0  0  0  0  0
    5.4710    0.7950   -0.7460 O   0  0  0  0  0  0  0  0  0  0  0  0
    3.5380   -0.6120   -0.4030 C   0  0  0  0  0  0  0  0  0  0  0  0
    4.3880   -1.7220   -0.5350 O   0  0  0  0  0  0  0  0  0  0  0  0
    2.1660   -0.7740   -0.1690 C   0  0  0  0  0  0  0  0  0  0  0  0
  1  2  1  0
  2  3  1  0
  3  4  1  0
  4  5  2  0
  4  6  1  0
  6  7  2  3
  7  8  1  0
  8  9  2  0
  8 15  1  0
  9 10  1  0
 10 11  2  0
 11 12  1  0
 11 13  1  0
 13 14  1  0
 13 15  2  0
M  END
