
     RDKit          3D

 22 22  0  0  0  0  0  0  0  0999 V2000
   -2.7440   -2.2810   -0.7730 C   0  0  0  0  0  0  0  0  0  0  0  0
   -1.6780   -1.3660   -0.1420 C   0  0  1  0  0  0  0  0  0  0  0  0
   -1.2710   -2.0390    1.1260 C   0  0  0  0  0  0  0  0  0  0  0  0
   -0.8690   -3.3450    0.7900 O   0  0  0  0  0  0  0  0  0  0  0  0
   -0.6530   -1.3090   -1.0420 O   0  0  0  0  0  0  0  0  0  0  0  0
    0.3580   -0.3970   -0.7480 C   0  0  2  0  0  0  0  0  0  0  0  0
    1.6130   -1.2120   -0.5790 C   0  0  0  0  0  0  0  0  0  0  0  0
    2.7630   -0.5250   -0.3280 O   0  0  0  0  0  0  0  0  0  0  0  0
    2.8390    0.2460    0.7930 C   0  0  0  0  0  0  0  0  0  0  0  0
    4.2530    0.8420    0.8200 C   0  0  2  0  0  0  0  0  0  0  0  0
    4.4200    1.6470    1.9360 O   0  0  0  0  0  0  0  0  0  0  0  0
    4.4220    1.6120   -0.4710 C   0  0  0  0  0  0  0  0  0  0  0  0
    5.6820    2.1810   -0.5740 O   0  0  0  0  0  0  0  0  0  0  0  0
    0.1150    0.2860    0.4300 O   0  0  0  0  0  0  0  0  0  0  0  0
   -1.1210    0.9150    0.4520 C   0  0  2  0  0  0  0  0  0  0  0  0
   -1.3070    1.3640    1.7790 O   0  0  0  0  0  0  0  0  0  0  0  0
   -2.2510    0.0170    0.0790 C   0  0  2  0  0  0  0  0  0  0  0  0
   -3.1970   -0.0370    1.1120 O   0  0  0  0  0  0  0  0  0  0  0  0
   -2.8820    0.5280   -1.1700 C   0  0  0  0  0  0  0  0  0  0  0  0
   -3.4550    1.8750   -0.9560 C   0  0  0  0  0  0  0  0  0  0  0  0
   -2.8170    2.9470   -1.0710 O   0  0  0  0  0  0  0  0  0  0  0  0
   -4.8090    2.0110   -0.5950 O   0  0  0  0  0  0  0  0  0  0  0  0
  2  1  1  6
  2  3  1  0
  2  5  1  0
  2 17  1  0
  3  4  1  0
  5  6  1  0
  6  7  1  1
  6 14  1  0
  7  8  1  0
  8  9  1  0
  9 10  1  0
 10 11  1  1
 10 12  1  0
 12 13  1  0
 14 15  1  0
 15 16  1  1
 15 17  1  0
 17 18  1  1
 17 19  1  0
 19 20  1  0
 20 21  2  0
 20 22  1  0
M  END
