
     RDKit          3D

 22 23  0  0  0  0  0  0  0  0999 V2000
    5.9550   -0.6170    0.6990 O   0  0  0  0  0  0  0  0  0  0  0  0
    4.9060   -0.7100   -0.0120 C   0  0  0  0  0  0  0  0  0  0  0  0
    4.1810   -1.8760    0.0980 O   0  0  0  0  0  0  0  0  0  0  0  0
    4.4840    0.3910   -0.9230 C   0  0  1  0  0  0  0  0  0  0  0  0
    3.3300    0.0100   -1.5530 O   0  0  0  0  0  0  0  0  0  0  0  0
    2.2490    0.5200   -0.8970 C   0  0  1  0  0  0  0  0  0  0  0  0
    1.1750   -0.4540   -0.6890 C   0  0  0  0  0  0  0  0  0  0  0  0
    1.3200   -1.6220   -1.1050 O   0  0  0  0  0  0  0  0  0  0  0  0
   -0.0050   -0.1300   -0.0430 O   0  0  0  0  0  0  0  0  0  0  0  0
   -1.0410   -1.0900    0.1530 C   0  0  0  0  0  0  0  0  0  0  0  0
   -2.2150   -0.4720    0.8840 C   0  0  2  0  0  0  0  0  0  0  0  0
   -1.8180   -0.0060    2.1150 O   0  0  0  0  0  0  0  0  0  0  0  0
   -3.3850   -1.4000    0.9540 C   0  0  0  0  0  0  0  0  0  0  0  0
   -4.3890   -1.0910   -0.1280 C   0  0  2  0  0  0  0  0  0  0  0  0
   -3.9140   -1.4020   -1.4030 O   0  0  0  0  0  0  0  0  0  0  0  0
   -4.8770    0.3220   -0.0120 C   0  0  0  0  0  0  0  0  0  0  0  0
   -3.9140    1.1590    0.5010 O   0  0  0  0  0  0  0  0  0  0  0  0
   -2.6520    0.7520    0.0700 C   0  0  1  0  0  0  0  0  0  0  0  0
   -1.7060    1.7550    0.2790 O   0  0  0  0  0  0  0  0  0  0  0  0
    2.7260    1.1500    0.3920 C   0  0  0  0  0  0  0  0  0  0  0  0
    4.1270    1.5980   -0.0440 C   0  0  1  0  0  0  0  0  0  0  0  0
    4.9790    1.7390    1.0200 O   0  0  0  0  0  0  0  0  0  0  0  0
  1  2  2  0
  2  3  1  0
  4  2  1  1
  4  5  1  0
  4 21  1  0
  5  6  1  0
  6  7  1  1
  6 20  1  0
  7  8  2  0
  7  9  1  0
  9 10  1  0
 10 11  1  0
 11 12  1  1
 11 13  1  0
 11 18  1  0
 13 14  1  0
 14 15  1  6
 14 16  1  0
 16 17  1  0
 17 18  1  0
 18 19  1  1
 20 21  1  0
 21 22  1  1
M  END
