
     RDKit          3D

 24 25  0  0  0  0  0  0  0  0999 V2000
   -3.3510   -2.0270    1.6550 N   0  0  0  0  0  0  0  0  0  0  0  0
   -2.1430   -1.3220    1.8850 C   0  0  0  0  0  0  0  0  0  0  0  0
   -2.2340   -0.2970    2.6430 O   0  0  0  0  0  0  0  0  0  0  0  0
   -0.9350   -1.7260    1.3150 N   0  0  0  0  0  0  0  0  0  0  0  0
    0.0220   -0.9790    0.8370 C   0  0  0  0  0  0  0  0  0  0  0  0
   -0.1930    0.4060    0.9030 N   0  0  0  0  0  0  0  0  0  0  0  0
   -1.3050    1.0800    0.2770 C   0  0  0  0  0  0  0  0  0  0  0  0
   -2.1910    0.4690   -0.5640 C   0  0  0  0  0  0  0  0  0  0  0  0
   -3.2140    1.1840   -1.1300 C   0  0  0  0  0  0  0  0  0  0  0  0
   -3.4050    2.5280   -0.8930 C   0  0  0  0  0  0  0  0  0  0  0  0
   -2.5130    3.1430   -0.0480 C   0  0  0  0  0  0  0  0  0  0  0  0
   -1.4870    2.4350    0.5230 C   0  0  0  0  0  0  0  0  0  0  0  0
   -0.3680    3.2660    1.5990 Cl  0  0  0  0  0  0  0  0  0  0  0  0
    1.2170   -1.5830    0.3110 C   0  0  0  0  0  0  0  0  0  0  0  0
    2.2420   -1.0640   -0.2100 C   0  0  0  0  0  0  0  0  0  0  0  0
    2.6650    0.2840   -0.4970 C   0  0  0  0  0  0  0  0  0  0  0  0
    2.9920    0.8110   -1.7090 C   0  0  0  0  0  0  0  0  0  0  0  0
    3.4440    2.0540   -1.7970 C   0  0  0  0  0  0  0  0  0  0  0  0
    3.5910    2.8230   -0.6870 C   0  0  0  0  0  0  0  0  0  0  0  0
    3.0080    1.6010    0.6080 S   0  0  0  0  0  0  0  0  0  0  0  0
    1.1990   -3.1130    0.4080 C   0  0  0  0  0  0  0  0  0  0  0  0
    2.3530   -3.7080   -0.1610 N   0  0  0  0  0  0  0  0  0  0  0  0
    3.2020   -4.2590    0.5580 O   0  0  0  0  0  0  0  0  0  0  0  0
    2.5450   -3.6820   -1.5190 O   0  0  0  0  0  0  0  0  0  0  0  0
  1  2  1  0
  2  3  2  0
  2  4  1  0
  4  5  2  3
  5  6  1  0
  5 14  1  0
  6  7  1  0
  7  8  2  0
  7 12  1  0
  8  9  1  0
  9 10  2  0
 10 11  1  0
 11 12  2  0
 12 13  1  0
 14 15  2  3
 14 21  1  0
 15 16  1  0
 16 17  2  0
 16 20  1  0
 17 18  1  0
 18 19  2  0
 19 20  1  0
 21 22  1  0
 22 23  2  0
 22 24  1  0
M  CHG  2  22   1  24  -1
M  END
