
     RDKit          3D

 25 27  0  0  0  0  0  0  0  0999 V2000
    6.5770   -1.0150    0.5480 C   0  0  0  0  0  0  0  0  0  0  0  0
    5.2100   -0.4390    0.3750 C   0  0  0  0  0  0  0  0  0  0  0  0
    4.1390   -0.8800    1.1130 C   0  0  0  0  0  0  0  0  0  0  0  0
    2.8870   -0.2920    0.8960 C   0  0  0  0  0  0  0  0  0  0  0  0
    2.6800    0.7020   -0.0180 C   0  0  0  0  0  0  0  0  0  0  0  0
    1.3900    1.2890   -0.2600 C   0  0  0  0  0  0  0  0  0  0  0  0
    0.3070    0.5830   -0.4750 C   0  0  0  0  0  0  0  0  0  0  0  0
   -0.8860    1.3260   -0.6950 N   0  0  0  0  0  0  0  0  0  0  0  0
   -2.1410    0.7480   -0.4170 C   0  0  0  0  0  0  0  0  0  0  0  0
   -2.2370   -0.4810    0.0430 N   0  0  0  0  0  0  0  0  0  0  0  0
   -3.4510   -1.0820    0.3260 C   0  0  0  0  0  0  0  0  0  0  0  0
   -3.6100   -2.2960    0.7840 N   0  0  0  0  0  0  0  0  0  0  0  0
   -4.7960   -2.7860    1.0240 C   0  0  0  0  0  0  0  0  0  0  0  0
   -5.2630   -3.8310    1.4340 O   0  0  0  0  0  0  0  0  0  0  0  0
   -5.8830   -1.3390    0.5410 S   0  0  0  0  0  0  0  0  0  0  0  0
   -4.5140   -0.2930    0.0860 C   0  0  0  0  0  0  0  0  0  0  0  0
   -4.4740    1.0030   -0.3970 C   0  0  0  0  0  0  0  0  0  0  0  0
   -5.7430    1.7090   -0.5950 C   0  0  0  0  0  0  0  0  0  0  0  0
   -3.2440    1.5780   -0.6700 C   0  0  0  0  0  0  0  0  0  0  0  0
   -3.1360    3.1880   -1.2720 Cl  0  0  0  0  0  0  0  0  0  0  0  0
    0.3480   -0.8300   -0.5280 N   0  0  0  0  0  0  0  0  0  0  0  0
    0.8180   -1.2860   -1.6290 O   0  0  0  0  0  0  0  0  0  0  0  0
   -0.0500   -1.7020    0.4390 O   0  0  0  0  0  0  0  0  0  0  0  0
    3.8010    1.1180   -0.7460 C   0  0  0  0  0  0  0  0  0  0  0  0
    5.0240    0.5710   -0.5600 C   0  0  0  0  0  0  0  0  0  0  0  0
  1  2  1  0
  2  3  2  0
  2 25  1  0
  3  4  1  0
  4  5  2  0
  5  6  1  0
  5 24  1  0
  6  7  2  3
  7  8  1  0
  7 21  1  0
  8  9  1  0
  9 10  2  0
  9 19  1  0
 10 11  1  0
 11 12  1  0
 11 16  2  0
 12 13  1  0
 13 14  2  0
 13 15  1  0
 15 16  1  0
 16 17  1  0
 17 18  1  0
 17 19  2  0
 19 20  1  0
 21 22  2  0
 21 23  1  0
 24 25  2  0
M  CHG  2  21   1  23  -1
M  END
