
     RDKit          3D

 25 27  0  0  0  0  0  0  0  0999 V2000
   -6.9380   -0.4020   -0.5850 N   0  0  0  0  0  0  0  0  0  0  0  0
   -5.5320   -0.2970   -0.4410 C   0  0  0  0  0  0  0  0  0  0  0  0
   -4.7490   -1.4160   -0.3050 C   0  0  0  0  0  0  0  0  0  0  0  0
   -3.3580   -1.3430   -0.1630 C   0  0  0  0  0  0  0  0  0  0  0  0
   -2.7150   -0.1150   -0.1560 C   0  0  0  0  0  0  0  0  0  0  0  0
   -1.3020   -0.0070   -0.0890 N   0  0  0  0  0  0  0  0  0  0  0  0
   -0.3920   -1.0240    0.2720 C   0  0  0  0  0  0  0  0  0  0  0  0
   -0.8120   -2.1530    0.5850 O   0  0  0  0  0  0  0  0  0  0  0  0
    1.0590   -0.7360    0.2730 C   0  0  0  0  0  0  0  0  0  0  0  0
    1.5750    0.2260   -0.5550 C   0  0  0  0  0  0  0  0  0  0  0  0
    2.9100    0.5430   -0.5890 C   0  0  0  0  0  0  0  0  0  0  0  0
    3.7880   -0.1390    0.2520 C   0  0  0  0  0  0  0  0  0  0  0  0
    5.2350    0.2190    0.1940 C   0  0  0  0  0  0  0  0  0  0  0  0
    6.3290   -0.1670    0.8160 C   0  0  0  0  0  0  0  0  0  0  0  0
    7.4640    0.4490    0.4310 N   0  0  0  0  0  0  0  0  0  0  0  0
    7.6010    1.2230   -0.3240 C   0  0  0  0  0  0  0  0  0  0  0  0
    5.8480    1.4820   -0.9570 S   0  0  0  0  0  0  0  0  0  0  0  0
    3.2970   -1.0990    1.0840 C   0  0  0  0  0  0  0  0  0  0  0  0
    4.3570   -1.9760    2.1510 Cl  0  0  0  0  0  0  0  0  0  0  0  0
    1.9300   -1.4020    1.0990 C   0  0  0  0  0  0  0  0  0  0  0  0
   -3.5110    1.0070   -0.2920 C   0  0  0  0  0  0  0  0  0  0  0  0
   -2.9930    2.3120   -0.2860 N   0  0  0  0  0  0  0  0  0  0  0  0
   -3.5820    3.2020   -0.9300 O   0  0  0  0  0  0  0  0  0  0  0  0
   -1.8760    2.6550    0.3870 O   0  0  0  0  0  0  0  0  0  0  0  0
   -4.9060    0.9090   -0.4340 C   0  0  0  0  0  0  0  0  0  0  0  0
  1  2  1  0
  2  3  2  0
  2 25  1  0
  3  4  1  0
  4  5  2  0
  5  6  1  0
  5 21  1  0
  6  7  1  0
  7  8  2  0
  7  9  1  0
  9 10  2  0
  9 20  1  0
 10 11  1  0
 11 12  2  0
 12 13  1  0
 12 18  1  0
 13 14  2  0
 13 17  1  0
 14 15  1  0
 15 16  2  0
 16 17  1  0
 18 19  1  0
 18 20  2  0
 21 22  1  0
 21 25  2  0
 22 23  2  0
 22 24  1  0
M  CHG  2  22   1  24  -1
M  END
