
     RDKit          3D

 25 27  0  0  0  0  0  0  0  0999 V2000
   -7.1280   -0.5330    1.5260 C   0  0  0  0  0  0  0  0  0  0  0  0
   -5.7290   -0.5040    1.4320 O   0  0  0  0  0  0  0  0  0  0  0  0
   -5.0300   -0.0780    0.3270 C   0  0  0  0  0  0  0  0  0  0  0  0
   -5.6730    0.3670   -0.8100 C   0  0  0  0  0  0  0  0  0  0  0  0
   -4.9040    0.7750   -1.8720 C   0  0  0  0  0  0  0  0  0  0  0  0
   -3.5150    0.7480   -1.8190 C   0  0  0  0  0  0  0  0  0  0  0  0
   -2.8810    0.3120   -0.7050 C   0  0  0  0  0  0  0  0  0  0  0  0
   -1.4280    0.2640   -0.6010 C   0  0  0  0  0  0  0  0  0  0  0  0
   -0.7630   -0.1540    0.4650 O   0  0  0  0  0  0  0  0  0  0  0  0
    0.5220   -0.0950    0.2960 C   0  0  0  0  0  0  0  0  0  0  0  0
    1.6410   -0.3900    1.0400 C   0  0  0  0  0  0  0  0  0  0  0  0
    2.9410   -0.2040    0.5440 C   0  0  0  0  0  0  0  0  0  0  0  0
    4.0530   -0.5140    1.3520 N   0  0  0  0  0  0  0  0  0  0  0  0
    5.3990   -0.5160    0.9190 C   0  0  0  0  0  0  0  0  0  0  0  0
    6.7190    0.0530    1.9140 Cl  0  0  0  0  0  0  0  0  0  0  0  0
    5.6540   -0.9580   -0.2490 N   0  0  0  0  0  0  0  0  0  0  0  0
    6.9700   -0.9980   -0.7670 C   0  0  0  0  0  0  0  0  0  0  0  0
    7.7600    0.1790   -0.6820 N   0  0  0  0  0  0  0  0  0  0  0  0
    7.6280   -2.3190   -1.4540 S   0  0  0  0  0  0  0  0  0  0  0  0
    3.0970    0.2840   -0.7120 C   0  0  0  0  0  0  0  0  0  0  0  0
    1.9890    0.5940   -1.4960 C   0  0  0  0  0  0  0  0  0  0  0  0
    0.7120    0.3970   -0.9730 C   0  0  0  0  0  0  0  0  0  0  0  0
   -0.5120    0.6050   -1.4910 N   0  0  0  0  0  0  0  0  0  0  0  0
   -0.7090    1.0990   -2.7600 O   0  0  0  0  0  0  0  0  0  0  0  0
   -3.6510   -0.1010    0.3680 C   0  0  0  0  0  0  0  0  0  0  0  0
  1  2  1  0
  2  3  1  0
  3  4  2  0
  3 25  1  0
  4  5  1  0
  5  6  2  0
  6  7  1  0
  7  8  1  0
  7 25  2  0
  8  9  1  0
  8 23  2  0
  9 10  1  0
 10 11  2  0
 10 22  1  0
 11 12  1  0
 12 13  1  0
 12 20  2  0
 13 14  1  0
 14 15  1  0
 14 16  2  3
 16 17  1  0
 17 18  1  0
 17 19  2  0
 20 21  1  0
 21 22  2  0
 22 23  1  0
 23 24  1  0
M  CHG  2  23   1  24  -1
M  END
