
     RDKit          3D

 25 27  0  0  0  0  0  0  0  0999 V2000
    8.0840    1.8460    1.9370 N   0  0  0  0  0  0  0  0  0  0  0  0
    7.2400    1.1110    1.0270 C   0  0  0  0  0  0  0  0  0  0  0  0
    7.0160    0.9930   -0.0920 N   0  0  0  0  0  0  0  0  0  0  0  0
    6.1430    0.1990   -0.6310 N   0  0  0  0  0  0  0  0  0  0  0  0
    5.4300   -0.5410   -0.0370 C   0  0  0  0  0  0  0  0  0  0  0  0
    4.3540   -1.5650   -0.1900 C   0  0  0  0  0  0  0  0  0  0  0  0
    3.0030   -0.9050   -0.1670 C   0  0  0  0  0  0  0  0  0  0  0  0
    2.8880    0.3290   -0.0340 O   0  0  0  0  0  0  0  0  0  0  0  0
    1.8450   -1.7050   -0.2980 N   0  0  0  0  0  0  0  0  0  0  0  0
    0.5160   -1.2700   -0.2940 C   0  0  0  0  0  0  0  0  0  0  0  0
    0.1060   -0.0170    0.0400 C   0  0  0  0  0  0  0  0  0  0  0  0
   -1.2500    0.3550    0.0060 C   0  0  0  0  0  0  0  0  0  0  0  0
   -2.2250   -0.5320   -0.3670 C   0  0  0  0  0  0  0  0  0  0  0  0
   -3.5030   -0.2630   -0.4240 O   0  0  0  0  0  0  0  0  0  0  0  0
   -4.5010    0.5680   -0.2810 C   0  0  0  0  0  0  0  0  0  0  0  0
   -4.4300    1.8780    0.1210 C   0  0  0  0  0  0  0  0  0  0  0  0
   -5.5610    2.6930    0.2450 C   0  0  0  0  0  0  0  0  0  0  0  0
   -6.7940    2.1800   -0.0430 C   0  0  0  0  0  0  0  0  0  0  0  0
   -6.8970    0.8680   -0.4490 C   0  0  0  0  0  0  0  0  0  0  0  0
   -8.5070    0.2580   -0.8070 Cl  0  0  0  0  0  0  0  0  0  0  0  0
   -5.7960    0.0560   -0.5750 C   0  0  0  0  0  0  0  0  0  0  0  0
   -1.7840   -1.8190   -0.7070 C   0  0  0  0  0  0  0  0  0  0  0  0
   -2.7400   -2.7340   -1.0850 O   0  0  0  0  0  0  0  0  0  0  0  0
   -0.4660   -2.1930   -0.6770 C   0  0  0  0  0  0  0  0  0  0  0  0
    6.0040   -0.1420    1.7390 S   0  0  0  0  0  0  0  0  0  0  0  0
  1  2  1  0
  2  3  2  0
  2 25  1  0
  3  4  1  0
  4  5  2  0
  5  6  1  0
  5 25  1  0
  6  7  1  0
  7  8  2  0
  7  9  1  0
  9 10  1  0
 10 11  2  0
 10 24  1  0
 11 12  1  0
 12 13  2  0
 13 14  1  0
 13 22  1  0
 14 15  1  0
 15 16  2  0
 15 21  1  0
 16 17  1  0
 17 18  2  0
 18 19  1  0
 19 20  1  0
 19 21  2  0
 22 23  1  0
 22 24  2  0
M  END
