
     RDKit          3D

 25 27  0  0  0  0  0  0  0  0999 V2000
    4.5450    0.1860    0.5370 C   0  0  0  0  0  0  0  0  0  0  0  0
    3.8050    0.7840   -0.3550 C   0  0  0  0  0  0  0  0  0  0  0  0
    4.3400    1.9570   -1.0930 C   0  0  0  0  0  0  0  0  0  0  0  0
    5.4950    2.4080   -0.8940 N   0  0  0  0  0  0  0  0  0  0  0  0
    3.4880    2.6090   -2.0890 C   0  0  0  0  0  0  0  0  0  0  0  0
    2.2740    2.1370   -2.3010 C   0  0  0  0  0  0  0  0  0  0  0  0
    1.7630    0.9950   -1.5780 C   0  0  0  0  0  0  0  0  0  0  0  0
    2.4630    0.3210   -0.6390 C   0  0  0  0  0  0  0  0  0  0  0  0
    1.8350   -0.8140    0.0160 C   0  0  0  0  0  0  0  0  0  0  0  0
    2.3350   -1.5950    0.9590 N   0  0  0  0  0  0  0  0  0  0  0  0
    1.4510   -2.5310    1.3050 N   0  0  0  0  0  0  0  0  0  0  0  0
    0.3490   -2.3110    0.5320 C   0  0  0  0  0  0  0  0  0  0  0  0
   -1.1000   -3.3410    0.6610 S   0  0  0  0  0  0  0  0  0  0  0  0
   -2.2840   -2.7220    1.8840 C   0  0  0  0  0  0  0  0  0  0  0  0
   -2.8010   -1.4320    1.3600 C   0  0  0  0  0  0  0  0  0  0  0  0
   -2.1440   -0.2750    1.7110 C   0  0  0  0  0  0  0  0  0  0  0  0
   -2.5590    0.9760    1.2630 C   0  0  0  0  0  0  0  0  0  0  0  0
   -3.6580    1.0160    0.4490 C   0  0  0  0  0  0  0  0  0  0  0  0
   -4.2230    2.5590   -0.1420 Cl  0  0  0  0  0  0  0  0  0  0  0  0
   -4.3320   -0.1390    0.0860 C   0  0  0  0  0  0  0  0  0  0  0  0
   -5.4610   -0.0630   -0.7570 N   0  0  0  0  0  0  0  0  0  0  0  0
   -5.5310    0.8260   -1.6130 O   0  0  0  0  0  0  0  0  0  0  0  0
   -6.4650   -0.9770   -0.6160 O   0  0  0  0  0  0  0  0  0  0  0  0
   -3.9160   -1.3770    0.5330 C   0  0  0  0  0  0  0  0  0  0  0  0
    0.6250   -1.2920   -0.2070 O   0  0  0  0  0  0  0  0  0  0  0  0
  1  2  2  0
  2  3  1  0
  2  8  1  0
  3  4  2  0
  3  5  1  0
  5  6  2  0
  6  7  1  0
  7  8  2  0
  8  9  1  0
  9 10  2  0
  9 25  1  0
 10 11  1  0
 11 12  2  0
 12 13  1  0
 12 25  1  0
 13 14  1  0
 14 15  1  0
 15 16  2  0
 15 24  1  0
 16 17  1  0
 17 18  2  0
 18 19  1  0
 18 20  1  0
 20 21  1  0
 20 24  2  0
 21 22  2  0
 21 23  1  0
M  CHG  2  21   1  23  -1
M  END
