
     RDKit          3D

 25 26  0  0  0  0  0  0  0  0999 V2000
    0.2510   -0.8320   -0.1500 O   0  0  0  0  0  0  0  0  0  0  0  0
    0.2520    0.4120   -0.1460 C   0  0  0  0  0  0  0  0  0  0  0  0
   -1.0620    1.1730   -0.1500 C   0  0  0  0  0  0  0  0  0  0  0  0
   -2.2010    0.2110   -0.1580 C   0  0  0  0  0  0  0  0  0  0  0  0
   -3.0860    0.1860    0.7850 N   0  0  0  0  0  0  0  0  0  0  0  0
   -2.9750    1.1060    1.8690 C   0  0  0  0  0  0  0  0  0  0  0  0
   -3.2730    2.3850    1.7510 C   0  0  0  0  0  0  0  0  0  0  0  0
   -3.7470    3.0110    0.5100 C   0  0  0  0  0  0  0  0  0  0  0  0
   -5.3530    3.7480    0.6910 Cl  0  0  0  0  0  0  0  0  0  0  0  0
   -2.3410   -0.7000   -1.2230 N   0  0  0  0  0  0  0  0  0  0  0  0
   -2.8020   -2.0810   -0.9720 C   0  0  0  0  0  0  0  0  0  0  0  0
   -2.9640   -2.6530    0.2160 C   0  0  0  0  0  0  0  0  0  0  0  0
   -3.3940   -3.9010    0.3980 C   0  0  0  0  0  0  0  0  0  0  0  0
   -3.6430   -4.4570   -1.3710 S   0  0  0  0  0  0  0  0  0  0  0  0
   -3.1200   -2.8930   -2.0970 C   0  0  0  0  0  0  0  0  0  0  0  0
    1.4730    1.1120   -0.1390 N   0  0  0  0  0  0  0  0  0  0  0  0
    2.7600    0.5630   -0.1350 C   0  0  0  0  0  0  0  0  0  0  0  0
    3.1080   -0.7600   -0.1380 C   0  0  0  0  0  0  0  0  0  0  0  0
    4.4140   -1.2340   -0.1340 C   0  0  0  0  0  0  0  0  0  0  0  0
    5.4410   -0.3310   -0.1250 C   0  0  0  0  0  0  0  0  0  0  0  0
    6.7740   -0.8080   -0.1210 N   0  0  0  0  0  0  0  0  0  0  0  0
    7.7080    0.0060   -0.1130 O   0  0  0  0  0  0  0  0  0  0  0  0
    7.0380   -2.1430   -0.1240 O   0  0  0  0  0  0  0  0  0  0  0  0
    5.1480    1.0260   -0.1220 C   0  0  0  0  0  0  0  0  0  0  0  0
    3.8430    1.4530   -0.1270 C   0  0  0  0  0  0  0  0  0  0  0  0
  1  2  2  0
  2  3  1  0
  2 16  1  0
  3  4  1  0
  4  5  2  3
  4 10  1  0
  5  6  1  0
  6  7  2  3
  7  8  1  0
  8  9  1  0
 10 11  1  0
 11 12  1  0
 11 15  2  0
 12 13  2  0
 13 14  1  0
 14 15  1  0
 16 17  1  0
 17 18  2  0
 17 25  1  0
 18 19  1  0
 19 20  2  0
 20 21  1  0
 20 24  1  0
 21 22  2  0
 21 23  1  0
 24 25  2  0
M  CHG  2  21   1  23  -1
M  END
