
     RDKit          3D

 25 27  0  0  0  0  0  0  0  0999 V2000
   -5.6760    1.3190    1.1270 N   0  0  0  0  0  0  0  0  0  0  0  0
   -4.4850    0.5480    1.0650 C   0  0  0  0  0  0  0  0  0  0  0  0
   -4.0400   -0.1380    2.1730 C   0  0  0  0  0  0  0  0  0  0  0  0
   -2.8890   -0.8790    2.1040 C   0  0  0  0  0  0  0  0  0  0  0  0
   -2.2950   -1.7670    3.5090 Cl  0  0  0  0  0  0  0  0  0  0  0  0
   -2.2250   -0.9040    0.9170 C   0  0  0  0  0  0  0  0  0  0  0  0
   -1.0350   -1.6760    0.8660 N   0  0  0  0  0  0  0  0  0  0  0  0
    0.2310   -1.1160    1.1780 C   0  0  0  0  0  0  0  0  0  0  0  0
    0.3680    0.0940    1.5170 O   0  0  0  0  0  0  0  0  0  0  0  0
    1.4260   -1.8940    1.1250 N   0  0  0  0  0  0  0  0  0  0  0  0
    2.7170   -1.3100    1.4460 C   0  0  0  0  0  0  0  0  0  0  0  0
    3.1540   -0.4790    0.3060 C   0  0  0  0  0  0  0  0  0  0  0  0
    2.4110   -0.3340   -0.8470 C   0  0  0  0  0  0  0  0  0  0  0  0
    2.8400    0.4550   -1.9100 C   0  0  0  0  0  0  0  0  0  0  0  0
    4.0420    1.1260   -1.8400 C   0  0  0  0  0  0  0  0  0  0  0  0
    4.5130    1.9450   -2.9130 N   0  0  0  0  0  0  0  0  0  0  0  0
    3.8160    2.0530   -3.9410 O   0  0  0  0  0  0  0  0  0  0  0  0
    5.7030    2.6140   -2.8490 O   0  0  0  0  0  0  0  0  0  0  0  0
    4.7860    0.9810   -0.6860 C   0  0  0  0  0  0  0  0  0  0  0  0
    4.3590    0.1990    0.3660 C   0  0  0  0  0  0  0  0  0  0  0  0
   -2.6790   -0.1920   -0.2460 C   0  0  0  0  0  0  0  0  0  0  0  0
   -1.9520   -0.2540   -1.4490 C   0  0  0  0  0  0  0  0  0  0  0  0
   -2.9660    0.8070   -2.5500 S   0  0  0  0  0  0  0  0  0  0  0  0
   -4.2030    1.2080   -1.3490 C   0  0  0  0  0  0  0  0  0  0  0  0
   -3.7830    0.5140   -0.1650 C   0  0  0  0  0  0  0  0  0  0  0  0
  1  2  1  0
  2  3  2  0
  2 25  1  0
  3  4  1  0
  4  5  1  0
  4  6  2  0
  6  7  1  0
  6 21  1  0
  7  8  1  0
  8  9  2  0
  8 10  1  0
 10 11  1  0
 11 12  1  0
 12 13  2  0
 12 20  1  0
 13 14  1  0
 14 15  2  0
 15 16  1  0
 15 19  1  0
 16 17  2  0
 16 18  1  0
 19 20  2  0
 21 22  2  0
 21 25  1  0
 22 23  1  0
 23 24  1  0
 24 25  2  0
M  CHG  2  16   1  18  -1
M  END
