
     RDKit          3D

 39 40  0  0  0  0  0  0  0  0999 V2000
    0.7690    1.7260   -0.2740 C   0  0  0  0  0  0  0  0  0  0  0  0
    0.9770    0.2290   -0.2320 C   0  0  1  0  0  0  0  0  0  0  0  0
    2.3760   -0.0040   -0.7080 C   0  0  0  0  0  0  0  0  0  0  0  0
    2.7280    0.3210   -1.8560 O   0  0  0  0  0  0  0  0  0  0  0  0
    3.2960   -0.5900    0.1360 O   0  0  0  0  0  0  0  0  0  0  0  0
    4.6320   -0.8610   -0.1900 C   0  0  0  0  0  0  0  0  0  0  0  0
    5.4210    0.3600   -0.5420 C   0  0  0  0  0  0  0  0  0  0  0  0
    5.4830    1.2930    0.4690 O   0  0  0  0  0  0  0  0  0  0  0  0
    6.0520    0.8440    1.6330 C   0  0  0  0  0  0  0  0  0  0  0  0
    7.4810    0.3770    1.4470 C   0  0  0  0  0  0  0  0  0  0  0  0
    8.2920    1.4060    0.9750 O   0  0  0  0  0  0  0  0  0  0  0  0
    9.5070    0.8980    0.8480 O   0  0  0  0  0  0  0  0  0  0  0  0
   10.3300    1.4860    1.6860 O   0  0  0  0  0  0  0  0  0  0  0  0
   11.5690    1.3160    1.2640 O   0  0  0  0  0  0  0  0  0  0  0  0
    0.9000   -0.2370    1.0720 O   0  0  0  0  0  0  0  0  0  0  0  0
   -0.2920   -0.8230    1.4070 C   0  0  0  0  0  0  0  0  0  0  0  0
   -0.7200   -1.8220    0.5730 O   0  0  0  0  0  0  0  0  0  0  0  0
   -1.5750   -2.7330    1.1860 C   0  0  0  0  0  0  0  0  0  0  0  0
   -2.5650   -3.2920    0.2150 C   0  0  0  0  0  0  0  0  0  0  0  0
   -3.8720   -2.7820    0.3660 O   0  0  0  0  0  0  0  0  0  0  0  0
   -4.2090   -1.5290    0.7780 C   0  0  0  0  0  0  0  0  0  0  0  0
   -5.1320   -1.3800    1.6210 O   0  0  0  0  0  0  0  0  0  0  0  0
   -3.5860   -0.3190    0.3240 N   0  0  0  0  0  0  0  0  0  0  0  0
   -3.2200   -0.1000   -1.0470 C   0  0  1  0  0  0  0  0  0  0  0  0
   -4.3250   -0.1790   -2.0300 C   0  0  0  0  0  0  0  0  0  0  0  0
   -5.4550    0.7630   -1.9020 C   0  0  0  0  0  0  0  0  0  0  0  0
   -6.1990    0.7540   -0.6970 N   0  0  0  0  0  0  0  0  0  0  0  0
   -7.3160   -0.0550   -0.3870 C   0  0  0  0  0  0  0  0  0  0  0  0
   -7.8140   -0.9210   -1.1380 O   0  0  0  0  0  0  0  0  0  0  0  0
   -7.7880    0.2640    0.9110 N   0  0  0  0  0  0  0  0  0  0  0  0
   -6.9600    1.2960    1.4420 C   0  0  0  0  0  0  0  0  0  0  0  0
   -7.0450    1.8570    2.5650 O   0  0  0  0  0  0  0  0  0  0  0  0
   -5.9680    1.5930    0.4220 C   0  0  0  0  0  0  0  0  0  0  0  0
   -5.0690    2.4810    0.5830 O   0  0  0  0  0  0  0  0  0  0  0  0
   -2.4900    1.2020   -1.1650 C   0  0  0  0  0  0  0  0  0  0  0  0
   -1.4250    1.0820   -2.0490 O   0  0  0  0  0  0  0  0  0  0  0  0
   -0.5330    0.0640   -2.2030 C   0  0  0  0  0  0  0  0  0  0  0  0
   -0.2780   -0.4560   -3.3550 O   0  0  0  0  0  0  0  0  0  0  0  0
    0.1440   -0.4660   -1.1350 O   0  0  0  0  0  0  0  0  0  0  0  0
  2  1  1  1
  2  3  1  0
  2 15  1  0
  2 39  1  0
  3  4  2  0
  3  5  1  0
  5  6  1  0
  6  7  1  0
  7  8  1  0
  8  9  1  0
  9 10  1  0
 10 11  1  0
 11 12  1  0
 12 13  1  0
 13 14  1  0
 15 16  1  0
 16 17  1  0
 17 18  1  0
 18 19  1  0
 19 20  1  0
 20 21  1  0
 21 22  2  0
 21 23  1  0
 23 24  1  0
 24 25  1  6
 24 35  1  0
 25 26  1  0
 26 27  1  0
 27 28  1  0
 27 33  1  0
 28 29  2  0
 28 30  1  0
 30 31  1  0
 31 32  2  0
 31 33  1  0
 33 34  2  0
 35 36  1  0
 36 37  1  0
 37 38  2  0
 37 39  1  0
M  END
