
     RDKit          3D

 39 42  0  0  0  0  0  0  0  0999 V2000
    7.4040   -4.9910    1.6590 C   0  0  0  0  0  0  0  0  0  0  0  0
    7.5720   -3.4780    1.6350 C   0  0  0  0  0  0  0  0  0  0  0  0
    6.5590   -2.9660    0.8520 O   0  0  0  0  0  0  0  0  0  0  0  0
    6.7230   -1.2230    0.8040 P   0  0  0  0  0  0  0  0  0  0  0  0
    7.5660   -0.7760   -0.6410 O   0  0  0  0  0  0  0  0  0  0  0  0
    8.7590   -0.1520   -0.2720 C   0  0  0  0  0  0  0  0  0  0  0  0
    9.5450    0.2640   -1.5100 C   0  0  0  0  0  0  0  0  0  0  0  0
    5.0810   -0.4320    0.8750 C   0  0  0  0  0  0  0  0  0  0  0  0
    4.8800    0.8790    0.5520 C   0  0  0  0  0  0  0  0  0  0  0  0
    3.6030    1.4410    0.6220 C   0  0  0  0  0  0  0  0  0  0  0  0
    2.4960    0.7310    1.0100 C   0  0  0  0  0  0  0  0  0  0  0  0
    1.1460    1.2050    1.0830 C   0  0  0  0  0  0  0  0  0  0  0  0
    0.3220    0.3530    1.6020 O   0  0  0  0  0  0  0  0  0  0  0  0
    0.5950    2.4220    0.6860 N   0  0  0  0  0  0  0  0  0  0  0  0
    1.3800    3.4920    0.0930 C   0  0  0  0  0  0  0  0  0  0  0  0
    0.5360    4.6580   -0.4360 C   0  0  0  0  0  0  0  0  0  0  0  0
   -0.0010    5.4130    0.6540 O   0  0  0  0  0  0  0  0  0  0  0  0
   -1.1360    5.0170    1.3930 C   0  0  0  0  0  0  0  0  0  0  0  0
   -1.5090    3.7330    1.5080 C   0  0  0  0  0  0  0  0  0  0  0  0
   -0.8420    2.5460    0.9160 C   0  0  0  0  0  0  0  0  0  0  0  0
   -1.5660    1.5190    0.5450 C   0  0  0  0  0  0  0  0  0  0  0  0
   -3.0080    1.4020    0.6710 C   0  0  0  0  0  0  0  0  0  0  0  0
   -3.7900    0.4370    0.3380 C   0  0  0  0  0  0  0  0  0  0  0  0
   -3.6070   -0.8570   -0.2590 C   0  0  2  0  0  0  0  0  0  0  0  0
   -2.2790   -1.3690   -0.6250 C   0  0  0  0  0  0  0  0  0  0  0  0
   -2.5340   -2.6710   -1.1770 O   0  0  0  0  0  0  0  0  0  0  0  0
   -1.3970   -3.2490   -1.5530 N   0  0  0  0  0  0  0  0  0  0  0  0
   -4.5540   -0.9770   -1.4610 C   0  0  0  0  0  0  0  0  0  0  0  0
   -5.9460   -1.0420   -0.9310 C   0  0  2  0  0  0  0  0  0  0  0  0
   -6.4200   -2.4760   -0.9660 C   0  0  0  0  0  0  0  0  0  0  0  0
   -5.5790   -3.2430   -0.1820 O   0  0  0  0  0  0  0  0  0  0  0  0
   -6.8160   -0.1270   -1.7620 C   0  0  0  0  0  0  0  0  0  0  0  0
   -6.9160    1.2540   -1.1840 C   0  0  0  0  0  0  0  0  0  0  0  0
   -5.7280    1.6820   -0.3910 C   0  0  0  0  0  0  0  0  0  0  0  0
   -5.2740    0.7060    0.6430 C   0  0  2  0  0  0  0  0  0  0  0  0
   -5.3860    1.1540    1.9410 O   0  0  0  0  0  0  0  0  0  0  0  0
   -6.0480   -0.5610    0.5020 C   0  0  0  0  0  0  0  0  0  0  0  0
    2.7550   -0.6080    1.3310 C   0  0  0  0  0  0  0  0  0  0  0  0
    3.9980   -1.1780    1.2700 C   0  0  0  0  0  0  0  0  0  0  0  0
  1  2  1  0
  2  3  1  0
  3  4  1  0
  4  5  1  0
  4  8  1  0
  5  6  1  0
  6  7  1  0
  8  9  2  0
  8 39  1  0
  9 10  1  0
 10 11  2  0
 11 12  1  0
 11 38  1  0
 12 13  2  0
 12 14  1  0
 14 15  1  0
 14 20  1  0
 15 16  1  0
 16 17  1  0
 17 18  1  0
 18 19  2  0
 19 20  1  0
 20 21  2  3
 21 22  1  0
 22 23  2  3
 23 24  1  0
 23 35  1  0
 24 25  1  6
 24 28  1  0
 25 26  1  0
 26 27  1  0
 28 29  1  0
 29 30  1  1
 29 32  1  0
 29 37  1  0
 30 31  1  0
 32 33  1  0
 33 34  1  0
 34 35  1  0
 35 36  1  1
 35 37  1  0
 38 39  2  0
M  END
