
     RDKit          3D

 39 41  0  0  0  0  0  0  0  0999 V2000
   -1.7260    3.4870   -1.5310 O   0  0  0  0  0  0  0  0  0  0  0  0
   -2.1170    2.2490   -1.7230 C   0  0  0  0  0  0  0  0  0  0  0  0
   -1.0520    1.3070   -2.0130 C   0  0  0  0  0  0  0  0  0  0  0  0
   -0.4840    0.4280   -1.2030 C   0  0  0  0  0  0  0  0  0  0  0  0
   -0.6920    0.1000    0.1780 C   0  0  0  0  0  0  0  0  0  0  0  0
    0.3150    0.2720    1.0250 N   0  0  0  0  0  0  0  0  0  0  0  0
    1.4980    0.7300    0.6430 O   0  0  0  0  0  0  0  0  0  0  0  0
    2.7370    0.0960    0.7300 C   0  0  1  0  0  0  0  0  0  0  0  0
    3.8500    0.9820    0.1720 C   0  0  0  0  0  0  0  0  0  0  0  0
    3.5200    1.2170   -1.1470 O   0  0  0  0  0  0  0  0  0  0  0  0
    4.3930    2.0320   -1.8070 C   0  0  0  0  0  0  0  0  0  0  0  0
    5.7720    1.4290   -1.8290 C   0  0  0  0  0  0  0  0  0  0  0  0
    6.5890    2.3410   -2.5390 O   0  0  0  0  0  0  0  0  0  0  0  0
    7.8130    1.8180   -2.5650 O   0  0  0  0  0  0  0  0  0  0  0  0
    8.5130    2.4430   -1.6460 O   0  0  0  0  0  0  0  0  0  0  0  0
    3.0430   -0.3880    2.0250 O   0  0  0  0  0  0  0  0  0  0  0  0
    2.6920   -1.7300    2.1070 C   0  0  0  0  0  0  0  0  0  0  0  0
    2.5810   -2.4170    3.1560 O   0  0  0  0  0  0  0  0  0  0  0  0
    2.4730   -2.2240    0.7910 N   0  0  0  0  0  0  0  0  0  0  0  0
    2.0880   -3.5740    0.4120 C   0  0  0  0  0  0  0  0  0  0  0  0
    0.6880   -3.6280    0.3870 O   0  0  0  0  0  0  0  0  0  0  0  0
    2.7020   -1.1310   -0.1060 C   0  0  0  0  0  0  0  0  0  0  0  0
    2.8390   -1.2360   -1.3350 O   0  0  0  0  0  0  0  0  0  0  0  0
   -1.9110   -0.4370    0.7750 N   0  0  0  0  0  0  0  0  0  0  0  0
   -2.2240    0.0800    2.0530 C   0  0  0  0  0  0  0  0  0  0  0  0
   -1.4920    0.9690    2.5940 O   0  0  0  0  0  0  0  0  0  0  0  0
   -3.3860   -0.3170    2.8950 C   0  0  1  0  0  0  0  0  0  0  0  0
   -2.9450   -1.5900    3.6280 C   0  0  0  0  0  0  0  0  0  0  0  0
   -2.7200   -1.2130    4.9620 O   0  0  0  0  0  0  0  0  0  0  0  0
   -3.7100   -0.2260    5.0920 C   0  0  0  0  0  0  0  0  0  0  0  0
   -3.5660    0.5410    3.9670 O   0  0  0  0  0  0  0  0  0  0  0  0
   -2.7600   -1.4000    0.1480 C   0  0  0  0  0  0  0  0  0  0  0  0
   -3.2670   -2.2890    0.9430 O   0  0  0  0  0  0  0  0  0  0  0  0
   -3.0120   -1.3800   -1.1890 O   0  0  0  0  0  0  0  0  0  0  0  0
   -3.8920   -0.8680   -2.0760 C   0  0  0  0  0  0  0  0  0  0  0  0
   -4.9200   -0.0960   -1.5340 O   0  0  0  0  0  0  0  0  0  0  0  0
   -5.4450    0.8310   -2.3790 C   0  0  0  0  0  0  0  0  0  0  0  0
   -4.4020    1.8590   -2.6810 C   0  0  0  0  0  0  0  0  0  0  0  0
   -3.4700    1.9890   -1.6290 O   0  0  0  0  0  0  0  0  0  0  0  0
  1  2  2  0
  2  3  1  0
  2 39  1  0
  3  4  2  0
  4  5  1  0
  5  6  2  3
  5 24  1  0
  6  7  1  0
  7  8  1  0
  8  9  1  6
  8 16  1  0
  8 22  1  0
  9 10  1  0
 10 11  1  0
 11 12  1  0
 12 13  1  0
 13 14  1  0
 14 15  1  0
 16 17  1  0
 17 18  2  0
 17 19  1  0
 19 20  1  0
 19 22  1  0
 20 21  1  0
 22 23  2  0
 24 25  1  0
 24 32  1  0
 25 26  2  0
 27 25  1  6
 27 28  1  0
 27 31  1  0
 28 29  1  0
 29 30  1  0
 30 31  1  0
 32 33  2  0
 32 34  1  0
 34 35  1  0
 35 36  1  0
 36 37  1  0
 37 38  1  0
 38 39  1  0
M  END
