
     RDKit          3D

 37 39  0  0  0  0  0  0  0  0999 V2000
    6.8580   -0.4840    1.4550 C   0  0  0  0  0  0  0  0  0  0  0  0
    6.1420   -1.1650    0.3330 C   0  0  2  0  0  0  0  0  0  0  0  0
    4.7820   -1.5580    0.7200 N   0  0  0  0  0  0  0  0  0  0  0  0
    3.6210   -1.0880    0.0950 C   0  0  0  0  0  0  0  0  0  0  0  0
    3.7300   -0.2770   -0.8620 O   0  0  0  0  0  0  0  0  0  0  0  0
    2.2430   -1.4900    0.4930 C   0  0  2  0  0  0  0  0  0  0  0  0
    2.1520   -2.9990    0.2320 C   0  0  0  0  0  0  0  0  0  0  0  0
    1.2410   -0.8580   -0.3170 N   0  0  0  0  0  0  0  0  0  0  0  0
    0.2220   -0.0820    0.3010 C   0  0  0  0  0  0  0  0  0  0  0  0
    0.2040    0.0490    1.5500 O   0  0  0  0  0  0  0  0  0  0  0  0
   -0.8300    0.5850   -0.5080 C   0  0  2  0  0  0  0  0  0  0  0  0
   -1.5920   -0.4900   -1.2780 C   0  0  0  0  0  0  0  0  0  0  0  0
   -2.1690   -1.3860   -0.2200 C   0  0  0  0  0  0  0  0  0  0  0  0
   -3.3840   -1.2970    0.4200 C   0  0  0  0  0  0  0  0  0  0  0  0
   -3.4580   -2.3490    1.3100 C   0  0  0  0  0  0  0  0  0  0  0  0
   -4.5510   -2.6850    2.2210 C   0  0  0  0  0  0  0  0  0  0  0  0
   -5.6970   -1.9460    2.2960 C   0  0  0  0  0  0  0  0  0  0  0  0
   -6.7280   -2.2870    3.1770 C   0  0  0  0  0  0  0  0  0  0  0  0
   -6.6010   -3.3870    3.9910 C   0  0  0  0  0  0  0  0  0  0  0  0
   -5.4420   -4.1260    3.9080 C   0  0  0  0  0  0  0  0  0  0  0  0
   -4.4330   -3.7800    3.0370 C   0  0  0  0  0  0  0  0  0  0  0  0
   -2.3020   -3.0130    1.1680 N   0  0  0  0  0  0  0  0  0  0  0  0
   -1.5580   -2.4390    0.2710 O   0  0  0  0  0  0  0  0  0  0  0  0
   -0.1410    1.5570   -1.4650 C   0  0  0  0  0  0  0  0  0  0  0  0
   -1.0850    2.4850   -2.5410 P   0  0  0  0  0  0  0  0  0  0  0  0
   -1.7010    1.8830   -3.9360 O   0  0  0  0  0  0  0  0  0  0  0  0
   -2.4430    2.2990   -1.8570 O   0  0  0  0  0  0  0  0  0  0  0  0
   -1.2320    4.2640   -2.2620 C   0  0  0  0  0  0  0  0  0  0  0  0
   -1.9150    5.0010   -3.1450 C   0  0  0  0  0  0  0  0  0  0  0  0
   -2.0600    6.3590   -2.9360 C   0  0  0  0  0  0  0  0  0  0  0  0
   -1.4810    6.9120   -1.7990 C   0  0  0  0  0  0  0  0  0  0  0  0
   -1.6890    8.7910   -1.5190 Br  0  0  0  0  0  0  0  0  0  0  0  0
   -0.7880    6.1130   -0.9200 C   0  0  0  0  0  0  0  0  0  0  0  0
   -0.6530    4.7470   -1.1490 C   0  0  0  0  0  0  0  0  0  0  0  0
    6.8620   -2.3920   -0.0380 C   0  0  0  0  0  0  0  0  0  0  0  0
    8.2080   -2.3100   -0.4580 N   0  0  0  0  0  0  0  0  0  0  0  0
    6.3030   -3.5010    0.0120 O   0  0  0  0  0  0  0  0  0  0  0  0
  2  1  1  1
  2  3  1  0
  2 35  1  0
  3  4  1  0
  4  5  2  0
  4  6  1  0
  6  7  1  6
  6  8  1  0
  8  9  1  0
  9 10  2  0
  9 11  1  0
 11 12  1  6
 11 24  1  0
 12 13  1  0
 13 14  2  0
 13 23  1  0
 14 15  1  0
 15 16  1  0
 15 22  2  0
 16 17  2  0
 16 21  1  0
 17 18  1  0
 18 19  2  0
 19 20  1  0
 20 21  2  0
 22 23  1  0
 24 25  1  0
 25 26  1  0
 25 27  1  0
 25 28  1  0
 28 29  2  0
 28 34  1  0
 29 30  1  0
 30 31  2  0
 31 32  1  0
 31 33  1  0
 33 34  2  0
 35 36  1  0
 35 37  2  0
M  END
