
     RDKit          3D

 39 40  0  0  0  0  0  0  0  0999 V2000
    6.5570   -1.6250   -3.4750 O   0  0  0  0  0  0  0  0  0  0  0  0
    5.8600   -0.9060   -4.2450 C   0  0  0  0  0  0  0  0  0  0  0  0
    6.3480   -0.7930   -5.5540 O   0  0  0  0  0  0  0  0  0  0  0  0
    4.6130   -0.2220   -3.8200 C   0  0  0  0  0  0  0  0  0  0  0  0
    4.4090   -0.5600   -2.4520 O   0  0  0  0  0  0  0  0  0  0  0  0
    3.3530   -0.1140   -1.6950 C   0  0  0  0  0  0  0  0  0  0  0  0
    2.5140    0.6400   -2.2430 O   0  0  0  0  0  0  0  0  0  0  0  0
    3.1520   -0.4770   -0.2660 C   0  0  2  0  0  0  0  0  0  0  0  0
    2.0470    0.0830    0.2910 O   0  0  0  0  0  0  0  0  0  0  0  0
    1.1840   -0.8230    0.9050 C   0  0  1  0  0  0  0  0  0  0  0  0
    0.9650   -0.4740    2.3620 C   0  0  0  0  0  0  0  0  0  0  0  0
    0.1090   -1.4190    2.9090 O   0  0  0  0  0  0  0  0  0  0  0  0
   -0.1350   -0.6760    0.2350 C   0  0  0  0  0  0  0  0  0  0  0  0
   -0.2610    0.2260   -0.6470 O   0  0  0  0  0  0  0  0  0  0  0  0
   -1.2680   -1.4720    0.5060 N   0  0  0  0  0  0  0  0  0  0  0  0
   -2.4730   -1.2410   -0.1740 C   0  0  0  0  0  0  0  0  0  0  0  0
   -2.5250   -0.2970   -1.0280 O   0  0  0  0  0  0  0  0  0  0  0  0
   -3.6450   -1.9850    0.0200 O   0  0  0  0  0  0  0  0  0  0  0  0
   -4.7600   -1.6360   -0.7260 C   0  0  0  0  0  0  0  0  0  0  0  0
   -5.7540   -0.8490   -0.2580 N   0  0  0  0  0  0  0  0  0  0  0  0
   -6.6930   -0.6970   -1.2240 C   0  0  0  0  0  0  0  0  0  0  0  0
   -7.9460    0.0940   -1.1040 C   0  0  2  0  0  0  0  0  0  0  0  0
   -9.1520   -0.6690   -1.5380 C   0  0  0  0  0  0  0  0  0  0  0  0
  -10.3870    0.1130   -1.1710 C   0  0  0  0  0  0  0  0  0  0  0  0
  -10.1490    1.5160   -1.1560 O   0  0  0  0  0  0  0  0  0  0  0  0
   -9.0630    2.1210   -1.7680 C   0  0  0  0  0  0  0  0  0  0  0  0
   -9.0590    3.3230   -2.1580 O   0  0  0  0  0  0  0  0  0  0  0  0
   -7.8250    1.3260   -1.9860 C   0  0  0  0  0  0  0  0  0  0  0  0
   -6.2320   -1.4050   -2.2620 N   0  0  0  0  0  0  0  0  0  0  0  0
   -5.0900   -1.9540   -1.9520 O   0  0  0  0  0  0  0  0  0  0  0  0
    4.3610    0.0530    0.4630 C   0  0  0  0  0  0  0  0  0  0  0  0
    5.5170   -0.3120    0.1240 O   0  0  0  0  0  0  0  0  0  0  0  0
    4.2270    0.9390    1.5040 O   0  0  0  0  0  0  0  0  0  0  0  0
    5.2500    1.4950    2.2510 C   0  0  0  0  0  0  0  0  0  0  0  0
    6.0200    0.4130    2.9660 C   0  0  0  0  0  0  0  0  0  0  0  0
    7.1550    0.9940    3.8030 C   0  0  0  0  0  0  0  0  0  0  0  0
    6.6770    1.8620    4.7650 O   0  0  0  0  0  0  0  0  0  0  0  0
    7.6880    2.3350    5.4600 O   0  0  0  0  0  0  0  0  0  0  0  0
    8.7120    2.6510    4.6990 O   0  0  0  0  0  0  0  0  0  0  0  0
  1  2  2  0
  2  3  1  0
  2  4  1  0
  4  5  1  0
  5  6  1  0
  6  7  2  0
  6  8  1  0
  8  9  1  1
  8 31  1  0
  9 10  1  0
 10 11  1  1
 10 13  1  0
 11 12  1  0
 13 14  2  0
 13 15  1  0
 15 16  1  0
 16 17  2  0
 16 18  1  0
 18 19  1  0
 19 20  2  0
 19 30  1  0
 20 21  1  0
 22 21  1  6
 21 29  2  0
 22 23  1  0
 22 28  1  0
 23 24  1  0
 24 25  1  0
 25 26  1  0
 26 27  2  0
 26 28  1  0
 29 30  1  0
 31 32  2  0
 31 33  1  0
 33 34  1  0
 34 35  1  0
 35 36  1  0
 36 37  1  0
 37 38  1  0
 38 39  1  0
M  END
