
     RDKit          3D

 29 32  0  0  0  0  0  0  0  0999 V2000
   -1.3800   -0.3400   -0.7650 O   0  0  0  0  0  0  0  0  0  0  0  0
   -1.2150   -0.0610    0.4380 C   0  0  0  0  0  0  0  0  0  0  0  0
   -2.3390    0.2850    1.2180 N   0  0  0  0  0  0  0  0  0  0  0  0
   -3.6820    0.3590    0.7990 C   0  0  0  0  0  0  0  0  0  0  0  0
   -4.6530    0.7520    1.7300 C   0  0  0  0  0  0  0  0  0  0  0  0
   -5.9770    0.8650    1.4680 C   0  0  0  0  0  0  0  0  0  0  0  0
   -6.4350    0.5750    0.1800 C   0  0  0  0  0  0  0  0  0  0  0  0
   -7.7390    0.6760   -0.1160 N   0  0  0  0  0  0  0  0  0  0  0  0
   -8.1310    0.3870   -1.3660 C   0  0  0  0  0  0  0  0  0  0  0  0
   -9.3760    0.4960   -1.6070 O   0  0  0  0  0  0  0  0  0  0  0  0
   -7.2520   -0.0070   -2.3500 C   0  0  0  0  0  0  0  0  0  0  0  0
   -5.9130   -0.1120   -2.0490 C   0  0  0  0  0  0  0  0  0  0  0  0
   -5.5120    0.1870   -0.7600 C   0  0  0  0  0  0  0  0  0  0  0  0
   -4.1460    0.0800   -0.4510 C   0  0  0  0  0  0  0  0  0  0  0  0
    0.1450   -0.1000    1.0070 C   0  0  0  0  0  0  0  0  0  0  0  0
    0.5010    0.1580    2.2290 C   0  0  0  0  0  0  0  0  0  0  0  0
    1.9600    0.0210    2.4610 C   0  0  0  0  0  0  0  0  0  0  0  0
    2.4280   -0.7560    1.2800 C   0  0  2  0  0  0  0  0  0  0  0  0
    3.7670   -0.2740    0.8640 C   0  0  0  0  0  0  0  0  0  0  0  0
    4.2980    0.6490    1.4990 O   0  0  0  0  0  0  0  0  0  0  0  0
    4.4300   -0.8530   -0.2380 N   0  0  0  0  0  0  0  0  0  0  0  0
    5.7050   -0.5000   -0.7470 C   0  0  0  0  0  0  0  0  0  0  0  0
    6.5660    0.4160   -0.2090 C   0  0  0  0  0  0  0  0  0  0  0  0
    7.8120    0.7340   -0.7530 C   0  0  0  0  0  0  0  0  0  0  0  0
    8.2240    0.1020   -1.9030 C   0  0  0  0  0  0  0  0  0  0  0  0
    9.4260    0.4100   -2.4270 F   0  0  0  0  0  0  0  0  0  0  0  0
    7.3630   -0.8290   -2.4610 C   0  0  0  0  0  0  0  0  0  0  0  0
    6.1470   -1.1320   -1.9200 C   0  0  0  0  0  0  0  0  0  0  0  0
    1.3690   -0.4560    0.2470 C   0  0  0  0  0  0  0  0  0  0  0  0
  1  2  2  0
  2  3  1  0
  2 15  1  0
  3  4  1  0
  4  5  2  0
  4 14  1  0
  5  6  1  0
  6  7  2  0
  7  8  1  0
  7 13  1  0
  8  9  1  0
  9 10  2  0
  9 11  1  0
 11 12  2  0
 12 13  1  0
 13 14  2  0
 15 16  2  0
 15 29  1  0
 16 17  1  0
 17 18  1  0
 18 19  1  6
 18 29  1  0
 19 20  2  0
 19 21  1  0
 21 22  1  0
 22 23  2  0
 22 28  1  0
 23 24  1  0
 24 25  2  0
 25 26  1  0
 25 27  1  0
 27 28  2  0
M  END
