
     RDKit          3D

 30 31  0  0  0  0  0  0  0  0999 V2000
   -1.7900    2.7290   -1.3360 C   0  0  0  0  0  0  0  0  0  0  0  0
   -1.2290    1.3670   -1.7010 C   0  0  0  0  0  0  0  0  0  0  0  0
   -1.0500    0.4580   -0.5870 C   0  0  0  0  0  0  0  0  0  0  0  0
   -0.0210   -0.0700   -0.0480 C   0  0  0  0  0  0  0  0  0  0  0  0
    1.3900   -0.1610   -0.0830 C   0  0  0  0  0  0  0  0  0  0  0  0
    2.2710    0.9000   -0.4780 C   0  0  0  0  0  0  0  0  0  0  0  0
    3.4540    1.1160    0.5040 C   0  0  0  0  0  0  0  0  0  0  0  0
    2.1750    1.8750   -1.3110 C   0  0  0  0  0  0  0  0  0  0  0  0
    3.2690    2.8690   -1.5460 C   0  0  0  0  0  0  0  0  0  0  0  0
    3.0100    3.7800   -2.3980 O   0  0  0  0  0  0  0  0  0  0  0  0
    4.4720    2.8500   -0.9260 O   0  0  0  0  0  0  0  0  0  0  0  0
    2.0100   -1.0410    0.7650 C   0  0  0  0  0  0  0  0  0  0  0  0
    1.1730   -1.8420    1.7410 C   0  0  0  0  0  0  0  0  0  0  0  0
    3.2900   -1.6540    0.4770 C   0  0  0  0  0  0  0  0  0  0  0  0
    3.9240   -2.3570    1.4350 C   0  0  0  0  0  0  0  0  0  0  0  0
    5.1590   -3.0030    1.2450 N   0  0  0  0  0  0  0  0  0  0  0  0
    5.9060   -3.0530    0.0640 C   0  0  0  0  0  0  0  0  0  0  0  0
    5.5190   -2.5230   -1.0280 N   0  0  0  0  0  0  0  0  0  0  0  0
    3.9760   -1.7100   -1.1030 S   0  0  2  0  0  0  0  0  0  0  0  0
    4.0010   -0.5510   -1.9660 O   0  0  0  0  0  0  0  0  0  0  0  0
    3.1260   -2.7710   -1.9260 O   0  0  0  0  0  0  0  0  0  0  0  0
   -2.3680    0.0440    0.0720 C   0  0  0  0  0  0  0  0  0  0  0  0
   -2.2760   -0.7380    1.0490 O   0  0  0  0  0  0  0  0  0  0  0  0
   -3.6030    0.4920   -0.3650 N   0  0  0  0  0  0  0  0  0  0  0  0
   -4.8370    0.1390    0.2210 C   0  0  0  0  0  0  0  0  0  0  0  0
   -4.9930   -0.4820    1.4200 C   0  0  0  0  0  0  0  0  0  0  0  0
   -6.2640   -0.8130    1.9260 C   0  0  0  0  0  0  0  0  0  0  0  0
   -7.3930   -0.5140    1.2130 C   0  0  0  0  0  0  0  0  0  0  0  0
   -7.2500    0.1150   -0.0050 C   0  0  0  0  0  0  0  0  0  0  0  0
   -6.0070    0.4400   -0.5010 C   0  0  0  0  0  0  0  0  0  0  0  0
  1  2  1  0
  2  3  1  0
  3  4  2  3
  3 22  1  0
  4  5  1  0
  5  6  1  0
  5 12  2  3
  6  7  1  0
  6  8  2  3
  8  9  1  0
  9 10  2  0
  9 11  1  0
 12 13  1  0
 12 14  1  0
 14 15  2  0
 14 19  1  0
 15 16  1  0
 16 17  1  0
 17 18  2  0
 19 18  1  1
 19 20  2  0
 19 21  2  0
 22 23  2  0
 22 24  1  0
 24 25  1  0
 25 26  2  0
 25 30  1  0
 26 27  1  0
 27 28  2  0
 28 29  1  0
 29 30  2  0
M  END
