
     RDKit          3D

 31 34  0  0  0  0  0  0  0  0999 V2000
   -4.4460   -1.3820    0.8850 C   0  0  0  0  0  0  0  0  0  0  0  0
   -4.5530   -0.4280   -0.1550 N   0  0  0  0  0  0  0  0  0  0  0  0
   -3.5520    0.2840   -0.8430 C   0  0  0  0  0  0  0  0  0  0  0  0
   -3.9230    1.1310   -1.8730 N   0  0  0  0  0  0  0  0  0  0  0  0
   -3.0650    1.8370   -2.5960 C   0  0  0  0  0  0  0  0  0  0  0  0
   -1.7270    1.7430   -2.3320 C   0  0  0  0  0  0  0  0  0  0  0  0
   -1.3100    0.9140   -1.3170 C   0  0  0  0  0  0  0  0  0  0  0  0
   -2.2210    0.1710   -0.5560 C   0  0  0  0  0  0  0  0  0  0  0  0
   -1.6890   -0.6440    0.5470 C   0  0  0  0  0  0  0  0  0  0  0  0
   -0.2460   -0.6320    0.5890 N   0  0  0  0  0  0  0  0  0  0  0  0
    0.6640   -1.2320   -0.3060 C   0  0  0  0  0  0  0  0  0  0  0  0
    0.3470   -2.0530   -1.3460 C   0  0  0  0  0  0  0  0  0  0  0  0
   -1.0210   -2.4360   -1.6100 C   0  0  0  0  0  0  0  0  0  0  0  0
   -2.0960   -2.7430   -1.8250 N   0  0  0  0  0  0  0  0  0  0  0  0
    1.3630   -2.5570   -2.1680 C   0  0  0  0  0  0  0  0  0  0  0  0
    2.6570   -2.2730   -1.9840 N   0  0  0  0  0  0  0  0  0  0  0  0
    2.9960   -1.4730   -0.9740 C   0  0  0  0  0  0  0  0  0  0  0  0
    4.1990   -1.0070   -0.5340 N   0  0  0  0  0  0  0  0  0  0  0  0
    4.0250   -0.2210    0.5360 C   0  0  0  0  0  0  0  0  0  0  0  0
    5.0760    0.4630    1.2910 C   0  0  0  0  0  0  0  0  0  0  0  0
    6.4040    0.3400    0.9350 C   0  0  0  0  0  0  0  0  0  0  0  0
    7.3960    0.9900    1.6540 C   0  0  0  0  0  0  0  0  0  0  0  0
    7.1060    1.7810    2.7470 C   0  0  0  0  0  0  0  0  0  0  0  0
    5.7770    1.9040    3.1020 C   0  0  0  0  0  0  0  0  0  0  0  0
    4.7920    1.2550    2.3840 C   0  0  0  0  0  0  0  0  0  0  0  0
    2.6740   -0.1770    0.7960 C   0  0  0  0  0  0  0  0  0  0  0  0
    2.0270   -0.9610   -0.1500 C   0  0  0  0  0  0  0  0  0  0  0  0
   -6.2050   -0.1000   -0.6920 S   0  0  2  0  0  0  0  0  0  0  0  0
   -6.5900    1.6090   -0.4370 C   0  0  0  0  0  0  0  0  0  0  0  0
   -7.1910   -0.9390    0.0200 O   0  0  0  0  0  0  0  0  0  0  0  0
   -6.3240   -0.3850   -2.1630 O   0  0  0  0  0  0  0  0  0  0  0  0
  1  2  1  0
  2  3  1  0
  2 28  1  0
  3  4  2  0
  3  8  1  0
  4  5  1  0
  5  6  2  0
  6  7  1  0
  7  8  2  0
  8  9  1  0
  9 10  1  0
 10 11  1  0
 11 12  2  0
 11 27  1  0
 12 13  1  0
 12 15  1  0
 13 14  3  0
 15 16  2  0
 16 17  1  0
 17 18  1  0
 17 27  2  0
 18 19  1  0
 19 20  1  0
 19 26  2  0
 20 21  2  0
 20 25  1  0
 21 22  1  0
 22 23  2  0
 23 24  1  0
 24 25  2  0
 26 27  1  0
 28 29  1  6
 28 30  2  0
 28 31  2  0
M  END
