
     RDKit          3D

 30 31  0  0  0  0  0  0  0  0999 V2000
   -0.9250    5.7710   -0.8460 C   0  0  0  0  0  0  0  0  0  0  0  0
   -1.0750    4.3640   -0.8470 O   0  0  0  0  0  0  0  0  0  0  0  0
    0.0710    3.5870   -0.6430 C   0  0  0  0  0  0  0  0  0  0  0  0
    1.3000    4.1620   -0.4480 C   0  0  0  0  0  0  0  0  0  0  0  0
    2.4140    3.4090   -0.2490 C   0  0  0  0  0  0  0  0  0  0  0  0
    2.3670    1.9980   -0.2340 C   0  0  0  0  0  0  0  0  0  0  0  0
    3.5730    1.2900   -0.0060 N   0  0  0  0  0  0  0  0  0  0  0  0
    3.7150   -0.0840   -0.1610 C   0  0  0  0  0  0  0  0  0  0  0  0
    2.7770   -0.8200   -0.5240 O   0  0  0  0  0  0  0  0  0  0  0  0
    5.0040   -0.7420    0.1010 C   0  0  0  0  0  0  0  0  0  0  0  0
    6.1850   -0.2370    0.4960 C   0  0  0  0  0  0  0  0  0  0  0  0
    7.2250   -1.0550    0.6680 C   0  0  0  0  0  0  0  0  0  0  0  0
    8.6080   -0.5870    1.1130 C   0  0  0  0  0  0  0  0  0  0  0  0
    7.0430   -2.3950    0.4300 C   0  0  0  0  0  0  0  0  0  0  0  0
    7.9950   -3.5430    0.5320 C   0  0  0  0  0  0  0  0  0  0  0  0
    5.3280   -2.4830   -0.0530 S   0  0  0  0  0  0  0  0  0  0  0  0
    1.1380    1.4420   -0.4290 C   0  0  0  0  0  0  0  0  0  0  0  0
   -0.0210    2.2000   -0.6350 C   0  0  0  0  0  0  0  0  0  0  0  0
   -1.3580    1.6370   -0.8490 C   0  0  0  0  0  0  0  0  0  0  0  0
   -1.4530    0.2030   -0.8430 N   0  0  0  0  0  0  0  0  0  0  0  0
   -2.7580   -0.4020   -1.0500 C   0  0  0  0  0  0  0  0  0  0  0  0
   -3.7380    0.3700   -1.2240 O   0  0  0  0  0  0  0  0  0  0  0  0
   -2.8840   -1.8130   -1.0490 N   0  0  0  0  0  0  0  0  0  0  0  0
   -4.1710   -2.4340   -1.2530 C   0  0  0  0  0  0  0  0  0  0  0  0
   -5.0790   -1.9810   -0.1750 C   0  0  0  0  0  0  0  0  0  0  0  0
   -4.6630   -1.1900    0.7010 O   0  0  0  0  0  0  0  0  0  0  0  0
   -6.3980   -2.4030   -0.0900 O   0  0  0  0  0  0  0  0  0  0  0  0
   -7.2760   -1.9870    0.9220 C   0  0  1  0  0  0  0  0  0  0  0  0
   -8.4760   -1.2510    0.3910 C   0  0  0  0  0  0  0  0  0  0  0  0
   -7.7780   -3.1360    1.7740 C   0  0  0  0  0  0  0  0  0  0  0  0
  1  2  1  0
  2  3  1  0
  3  4  2  0
  3 18  1  0
  4  5  1  0
  5  6  2  0
  6  7  1  0
  6 17  1  0
  7  8  1  0
  8  9  2  0
  8 10  1  0
 10 11  2  0
 10 16  1  0
 11 12  1  0
 12 13  1  0
 12 14  2  0
 14 15  1  0
 14 16  1  0
 17 18  2  0
 18 19  1  0
 19 20  1  0
 20 21  1  0
 21 22  2  0
 21 23  1  0
 23 24  1  0
 24 25  1  0
 25 26  2  0
 25 27  1  0
 27 28  1  0
 28 29  1  6
 28 30  1  0
M  END
