
     RDKit          3D

 30 31  0  0  0  0  0  0  0  0999 V2000
    3.4570   -4.4220   -1.1690 C   0  0  0  0  0  0  0  0  0  0  0  0
    1.9890   -4.0920   -1.2420 C   0  0  0  0  0  0  0  0  0  0  0  0
    1.7640   -2.7360   -0.8510 O   0  0  0  0  0  0  0  0  0  0  0  0
    0.5280   -2.1750   -0.8250 C   0  0  0  0  0  0  0  0  0  0  0  0
   -0.4350   -2.9510   -1.1790 O   0  0  0  0  0  0  0  0  0  0  0  0
    0.1920   -0.8230   -0.4470 C   0  0  0  0  0  0  0  0  0  0  0  0
   -1.1700   -0.4480   -0.4510 C   0  0  0  0  0  0  0  0  0  0  0  0
   -1.6030    0.7780   -0.0910 C   0  0  0  0  0  0  0  0  0  0  0  0
   -3.0020    1.1920   -0.0770 C   0  0  0  0  0  0  0  0  0  0  0  0
   -3.3200    2.4120   -0.0840 O   0  0  0  0  0  0  0  0  0  0  0  0
   -4.0100    0.2190   -0.0530 N   0  0  0  0  0  0  0  0  0  0  0  0
   -5.4050    0.4210   -0.0430 C   0  0  0  0  0  0  0  0  0  0  0  0
   -6.0160    1.6130   -0.2520 C   0  0  0  0  0  0  0  0  0  0  0  0
   -7.3970    1.7880   -0.2220 C   0  0  0  0  0  0  0  0  0  0  0  0
   -8.0070    3.1220   -0.4590 C   0  0  0  0  0  0  0  0  0  0  0  0
   -8.1640    0.6730    0.0360 C   0  0  0  0  0  0  0  0  0  0  0  0
   -7.5960   -0.5680    0.2570 C   0  0  0  0  0  0  0  0  0  0  0  0
   -8.5980   -2.0140    0.5920 S   0  0  0  0  0  0  0  0  0  0  0  0
   -6.2150   -0.6870    0.2160 C   0  0  0  0  0  0  0  0  0  0  0  0
   -0.6760    1.7040    0.2980 C   0  0  0  0  0  0  0  0  0  0  0  0
    0.6800    1.3540    0.3090 C   0  0  0  0  0  0  0  0  0  0  0  0
    1.1530    0.1110   -0.0540 C   0  0  0  0  0  0  0  0  0  0  0  0
    2.5300   -0.1890   -0.0690 N   0  0  0  0  0  0  0  0  0  0  0  0
    3.5500    0.6280    0.4490 C   0  0  0  0  0  0  0  0  0  0  0  0
    3.3220    1.7020    0.9850 O   0  0  0  0  0  0  0  0  0  0  0  0
    4.9360    0.2270    0.3690 N   0  0  0  0  0  0  0  0  0  0  0  0
    5.9880    1.0560    0.8970 C   0  0  0  0  0  0  0  0  0  0  0  0
    7.3140    0.3680    0.6630 C   0  0  0  0  0  0  0  0  0  0  0  0
    8.3900    1.0980    1.1430 O   0  0  0  0  0  0  0  0  0  0  0  0
    8.5320    2.3380    0.5780 C   0  0  0  0  0  0  0  0  0  0  0  0
  1  2  1  0
  2  3  1  0
  3  4  1  0
  4  5  2  0
  4  6  1  0
  6  7  2  0
  6 22  1  0
  7  8  1  0
  8  9  1  0
  8 20  2  0
  9 10  2  0
  9 11  1  0
 11 12  1  0
 12 13  2  0
 12 19  1  0
 13 14  1  0
 14 15  1  0
 14 16  2  0
 16 17  1  0
 17 18  1  0
 17 19  2  0
 20 21  1  0
 21 22  2  0
 22 23  1  0
 23 24  1  0
 24 25  2  0
 24 26  1  0
 26 27  1  0
 27 28  1  0
 28 29  1  0
 29 30  1  0
M  END
