
     RDKit          3D

 30 31  0  0  0  0  0  0  0  0999 V2000
    8.7220   -1.6860    0.8650 C   0  0  0  0  0  0  0  0  0  0  0  0
    7.4590   -1.2770    0.3530 O   0  0  0  0  0  0  0  0  0  0  0  0
    6.7500   -0.2650    1.0030 C   0  0  0  0  0  0  0  0  0  0  0  0
    7.2670    0.2420    2.0210 O   0  0  0  0  0  0  0  0  0  0  0  0
    5.4090    0.1840    0.4770 C   0  0  2  0  0  0  0  0  0  0  0  0
    5.7090    0.6710   -0.9480 C   0  0  0  0  0  0  0  0  0  0  0  0
    5.0130    1.3740    1.2790 C   0  0  0  0  0  0  0  0  0  0  0  0
    4.3360   -1.2180    0.5270 S   0  0  0  0  0  0  0  0  0  0  0  0
    2.6730   -1.0110   -0.0480 C   0  0  2  0  0  0  0  0  0  0  0  0
    2.5590   -0.7010   -1.5240 C   0  0  0  0  0  0  0  0  0  0  0  0
    1.8140   -0.1320    0.7700 C   0  0  0  0  0  0  0  0  0  0  0  0
    2.2710    0.3660    1.8190 O   0  0  0  0  0  0  0  0  0  0  0  0
    0.4890    0.1220    0.3400 N   0  0  0  0  0  0  0  0  0  0  0  0
   -0.3680    0.9660    1.1040 C   0  0  0  0  0  0  0  0  0  0  0  0
   -1.7070    1.1720    0.5930 C   0  0  0  0  0  0  0  0  0  0  0  0
   -2.4820    1.9290    1.2720 O   0  0  0  0  0  0  0  0  0  0  0  0
   -2.2830    0.6330   -0.5910 N   0  0  0  0  0  0  0  0  0  0  0  0
   -3.6170    0.9280   -0.9660 C   0  0  0  0  0  0  0  0  0  0  0  0
   -4.6700    0.1460   -0.6090 C   0  0  0  0  0  0  0  0  0  0  0  0
   -4.4890   -1.0870    0.1310 C   0  0  0  0  0  0  0  0  0  0  0  0
   -5.5440   -1.8180    0.5390 C   0  0  0  0  0  0  0  0  0  0  0  0
   -5.1030   -3.0290    1.2710 C   0  0  0  0  0  0  0  0  0  0  0  0
   -3.6510   -2.9270    1.2380 C   0  0  0  0  0  0  0  0  0  0  0  0
   -3.3430   -1.8140    0.5840 C   0  0  0  0  0  0  0  0  0  0  0  0
   -5.9530    0.5570   -1.0130 C   0  0  0  0  0  0  0  0  0  0  0  0
   -6.1860    1.6970   -1.7440 C   0  0  0  0  0  0  0  0  0  0  0  0
   -7.5750    2.0640   -2.1340 C   0  0  0  0  0  0  0  0  0  0  0  0
   -5.1220    2.4480   -2.0810 N   0  0  0  0  0  0  0  0  0  0  0  0
   -3.8810    2.0920   -1.7150 C   0  0  0  0  0  0  0  0  0  0  0  0
   -2.9000    2.8050   -2.0390 O   0  0  0  0  0  0  0  0  0  0  0  0
  1  2  1  0
  2  3  1  0
  3  4  2  0
  3  5  1  0
  5  6  1  6
  5  7  1  0
  5  8  1  0
  8  9  1  0
  9 10  1  6
  9 11  1  0
 11 12  2  0
 11 13  1  0
 13 14  1  0
 14 15  1  0
 15 16  2  0
 15 17  1  0
 17 18  1  0
 18 19  2  0
 18 29  1  0
 19 20  1  0
 19 25  1  0
 20 21  2  0
 20 24  1  0
 21 22  1  0
 22 23  1  0
 23 24  2  0
 25 26  2  0
 26 27  1  0
 26 28  1  0
 28 29  1  0
 29 30  2  0
M  END
