
     RDKit          3D

 17 19  0  0  0  0  0  0  0  0999 V2000
    0.3450   -1.6110   -2.8730 F   0  0  0  0  0  0  0  0  0  0  0  0
   -0.6930   -1.0530   -2.2000 C   0  0  0  0  0  0  0  0  0  0  0  0
   -1.8670   -0.6780   -2.8040 C   0  0  0  0  0  0  0  0  0  0  0  0
   -2.8630   -0.1270   -2.0710 N   0  0  0  0  0  0  0  0  0  0  0  0
   -2.7400    0.0690   -0.7460 C   0  0  0  0  0  0  0  0  0  0  0  0
   -3.5460    0.5820    0.2020 N   0  0  0  0  0  0  0  0  0  0  0  0
   -2.9400    0.5540    1.4020 C   0  0  0  0  0  0  0  0  0  0  0  0
   -1.6800   -0.0020    1.2270 C   0  0  0  0  0  0  0  0  0  0  0  0
   -1.5670   -0.3020   -0.1280 C   0  0  0  0  0  0  0  0  0  0  0  0
   -0.5290   -0.8680   -0.8430 C   0  0  0  0  0  0  0  0  0  0  0  0
    0.6770   -1.2470   -0.1900 N   0  0  0  0  0  0  0  0  0  0  0  0
    1.7710   -0.3590   -0.0470 C   0  0  0  0  0  0  0  0  0  0  0  0
    1.7090    0.9280   -0.5430 C   0  0  0  0  0  0  0  0  0  0  0  0
    2.7490    1.7720   -0.4070 N   0  0  0  0  0  0  0  0  0  0  0  0
    3.8720    1.3730    0.2170 C   0  0  0  0  0  0  0  0  0  0  0  0
    3.9490    0.0900    0.7170 C   0  0  0  0  0  0  0  0  0  0  0  0
    2.9000   -0.7410    0.5730 N   0  0  0  0  0  0  0  0  0  0  0  0
  1  2  1  0
  2  3  2  0
  2 10  1  0
  3  4  1  0
  4  5  2  0
  5  6  1  0
  5  9  1  0
  6  7  1  0
  7  8  2  0
  8  9  1  0
  9 10  2  0
 10 11  1  0
 11 12  1  0
 12 13  2  0
 12 17  1  0
 13 14  1  0
 14 15  2  0
 15 16  1  0
 16 17  2  0
M  END
