
     RDKit          3D

 17 19  0  0  0  0  0  0  0  0999 V2000
   -1.5070    3.1010    0.5140 N   0  0  0  0  0  0  0  0  0  0  0  0
   -2.2490    1.8910    0.5250 C   0  0  0  0  0  0  0  0  0  0  0  0
   -1.4670    0.6830    0.1970 C   0  0  0  0  0  0  0  0  0  0  0  0
   -0.1450    0.6860   -0.0950 C   0  0  0  0  0  0  0  0  0  0  0  0
    0.5080   -0.4530   -0.3860 N   0  0  0  0  0  0  0  0  0  0  0  0
    1.8010   -0.6330   -0.7000 C   0  0  0  0  0  0  0  0  0  0  0  0
    2.9080    0.3570   -0.7920 C   0  0  1  0  0  0  0  0  0  0  0  0
    3.1600    1.4180    0.1660 C   0  0  0  0  0  0  0  0  0  0  0  0
    3.9250    0.1480    0.3450 C   0  0  0  0  0  0  0  0  0  0  0  0
    1.9200   -1.9840   -0.9060 N   0  0  0  0  0  0  0  0  0  0  0  0
    0.7530   -2.5620   -0.7190 N   0  0  0  0  0  0  0  0  0  0  0  0
   -0.1580   -1.6250   -0.3900 C   0  0  0  0  0  0  0  0  0  0  0  0
   -1.5030   -1.6440   -0.0950 C   0  0  0  0  0  0  0  0  0  0  0  0
   -2.2030   -2.9150   -0.1040 C   0  0  0  0  0  0  0  0  0  0  0  0
   -3.4860   -2.9220    0.1780 C   0  0  0  0  0  0  0  0  0  0  0  0
   -4.1530   -1.7920    0.4720 F   0  0  0  0  0  0  0  0  0  0  0  0
   -2.1220   -0.4910    0.1900 N   0  0  0  0  0  0  0  0  0  0  0  0
  1  2  1  0
  2  3  1  0
  3  4  2  0
  3 17  1  0
  4  5  1  0
  5  6  1  0
  5 12  1  0
  7  6  1  1
  6 10  2  0
  7  8  1  0
  7  9  1  0
  8  9  1  0
 10 11  1  0
 11 12  2  0
 12 13  1  0
 13 14  1  0
 13 17  2  0
 14 15  2  3
 15 16  1  0
M  END
