
     RDKit          3D

 16 18  0  0  0  0  0  0  0  0999 V2000
   -3.6430   -0.6090   -0.1520 C   0  0  0  0  0  0  0  0  0  0  0  0
   -2.7200   -1.2190    0.9070 C   0  0  0  0  0  0  0  0  0  0  0  0
   -2.0280   -0.0870    1.6370 C   0  0  0  0  0  0  0  0  0  0  0  0
   -1.2610    0.6860    0.6860 N   0  0  0  0  0  0  0  0  0  0  0  0
   -1.7660    1.7340    0.0290 C   0  0  0  0  0  0  0  0  0  0  0  0
   -1.0630    2.4920   -0.8840 C   0  0  0  0  0  0  0  0  0  0  0  0
    0.2260    2.1550   -1.1360 N   0  0  0  0  0  0  0  0  0  0  0  0
    0.7830    1.1080   -0.5010 C   0  0  0  0  0  0  0  0  0  0  0  0
    2.0330    0.5050   -0.5170 C   0  0  0  0  0  0  0  0  0  0  0  0
    2.0400   -0.5610    0.3590 C   0  0  0  0  0  0  0  0  0  0  0  0
    0.8080   -0.6550    0.9410 N   0  0  0  0  0  0  0  0  0  0  0  0
    0.0070    0.3320    0.4570 C   0  0  0  0  0  0  0  0  0  0  0  0
    3.3620   -1.1680    0.3170 C   0  0  0  0  0  0  0  0  0  0  0  0
    3.8690   -1.9740    1.2110 N   0  0  0  0  0  0  0  0  0  0  0  0
    3.9980   -0.6840   -0.9330 C   0  0  0  0  0  0  0  0  0  0  0  0
    3.3180    0.6020   -1.1250 N   0  0  0  0  0  0  0  0  0  0  0  0
  1  2  1  0
  2  3  1  0
  3  4  1  0
  4  5  1  0
  4 12  1  0
  5  6  2  0
  6  7  1  0
  7  8  2  0
  8  9  1  0
  8 12  1  0
  9 10  2  0
  9 16  1  0
 10 11  1  0
 10 13  1  0
 11 12  2  0
 13 14  2  0
 13 15  1  0
 15 16  1  0
M  END
