
     RDKit          3D

 17 19  0  0  0  0  0  0  0  0999 V2000
   -1.8660   -0.6020    2.8480 F   0  0  0  0  0  0  0  0  0  0  0  0
   -2.2340   -0.8820    1.5630 C   0  0  0  0  0  0  0  0  0  0  0  0
   -3.4590   -1.4530    1.3480 C   0  0  0  0  0  0  0  0  0  0  0  0
   -3.8430   -1.7420    0.0420 C   0  0  0  0  0  0  0  0  0  0  0  0
   -2.9910   -1.4510   -0.9940 C   0  0  0  0  0  0  0  0  0  0  0  0
   -1.7580   -0.8710   -0.7310 C   0  0  0  0  0  0  0  0  0  0  0  0
   -1.3330   -0.5670    0.5400 C   0  0  0  0  0  0  0  0  0  0  0  0
   -0.1010    0.0150    0.8430 N   0  0  0  0  0  0  0  0  0  0  0  0
    0.9250    0.3980   -0.0450 C   0  0  0  0  0  0  0  0  0  0  0  0
    0.9140    0.2750   -1.3760 N   0  0  0  0  0  0  0  0  0  0  0  0
    1.9240    0.6590   -2.1770 C   0  0  0  0  0  0  0  0  0  0  0  0
    3.0510    1.2100   -1.6900 N   0  0  0  0  0  0  0  0  0  0  0  0
    3.1330    1.3660   -0.3570 C   0  0  0  0  0  0  0  0  0  0  0  0
    4.1010    1.8740    0.4640 N   0  0  0  0  0  0  0  0  0  0  0  0
    3.6810    1.7970    1.7240 N   0  0  0  0  0  0  0  0  0  0  0  0
    2.4620    1.2520    1.7720 C   0  0  0  0  0  0  0  0  0  0  0  0
    2.0940    0.9710    0.4730 C   0  0  0  0  0  0  0  0  0  0  0  0
  1  2  1  0
  2  3  2  0
  2  7  1  0
  3  4  1  0
  4  5  2  0
  5  6  1  0
  6  7  2  0
  7  8  1  0
  8  9  1  0
  9 10  2  0
  9 17  1  0
 10 11  1  0
 11 12  2  0
 12 13  1  0
 13 14  1  0
 13 17  2  0
 14 15  1  0
 15 16  2  0
 16 17  1  0
M  END
