
     RDKit          3D

 17 19  0  0  0  0  0  0  0  0999 V2000
   -4.3740    1.3570    1.3990 F   0  0  0  0  0  0  0  0  0  0  0  0
   -3.8720    0.2700    0.7340 C   0  0  0  0  0  0  0  0  0  0  0  0
   -4.6120   -0.7820    0.2770 C   0  0  0  0  0  0  0  0  0  0  0  0
   -3.7550   -1.6300   -0.3130 N   0  0  0  0  0  0  0  0  0  0  0  0
   -2.5340   -1.1450   -0.2350 N   0  0  0  0  0  0  0  0  0  0  0  0
   -2.5230    0.0330    0.4010 C   0  0  0  0  0  0  0  0  0  0  0  0
   -1.4910    0.9260    0.7280 N   0  0  0  0  0  0  0  0  0  0  0  0
   -0.1370    0.6840    0.3910 C   0  0  0  0  0  0  0  0  0  0  0  0
    0.8360    1.6370    0.7600 C   0  0  0  0  0  0  0  0  0  0  0  0
    2.1670    1.4850    0.4760 C   0  0  0  0  0  0  0  0  0  0  0  0
    2.6320    0.3770   -0.1950 C   0  0  0  0  0  0  0  0  0  0  0  0
    3.9720    0.2200   -0.4840 C   0  0  0  0  0  0  0  0  0  0  0  0
    4.3810   -0.9090   -1.1570 C   0  0  0  0  0  0  0  0  0  0  0  0
    3.4420   -1.8030   -1.5000 N   0  0  0  0  0  0  0  0  0  0  0  0
    2.1500   -1.6470   -1.2190 N   0  0  0  0  0  0  0  0  0  0  0  0
    1.6970   -0.5510   -0.5560 C   0  0  0  0  0  0  0  0  0  0  0  0
    0.3310   -0.4190   -0.2780 C   0  0  0  0  0  0  0  0  0  0  0  0
  1  2  1  0
  2  3  2  0
  2  6  1  0
  3  4  1  0
  4  5  1  0
  5  6  2  0
  6  7  1  0
  7  8  1  0
  8  9  2  0
  8 17  1  0
  9 10  1  0
 10 11  2  0
 11 12  1  0
 11 16  1  0
 12 13  2  0
 13 14  1  0
 14 15  2  0
 15 16  1  0
 16 17  2  0
M  END
