
     RDKit          3D

 17 19  0  0  0  0  0  0  0  0999 V2000
    0.9350   -2.4850    2.0310 F   0  0  0  0  0  0  0  0  0  0  0  0
    1.3740   -1.4360    1.2620 C   0  0  0  0  0  0  0  0  0  0  0  0
    2.6990   -1.0980    1.1990 C   0  0  0  0  0  0  0  0  0  0  0  0
    3.1580   -0.0600    0.4430 C   0  0  0  0  0  0  0  0  0  0  0  0
    4.4060    0.5030    0.1880 C   0  0  0  0  0  0  0  0  0  0  0  0
    4.1850    1.5180   -0.6550 N   0  0  0  0  0  0  0  0  0  0  0  0
    2.9060    1.6360   -0.9480 N   0  0  0  0  0  0  0  0  0  0  0  0
    2.2640    0.6750   -0.2820 C   0  0  0  0  0  0  0  0  0  0  0  0
    0.9100    0.3320   -0.2190 C   0  0  0  0  0  0  0  0  0  0  0  0
    0.4180   -0.7080    0.5340 C   0  0  0  0  0  0  0  0  0  0  0  0
   -0.9290   -1.0760    0.6180 N   0  0  0  0  0  0  0  0  0  0  0  0
   -2.0420   -0.4940   -0.0190 C   0  0  0  0  0  0  0  0  0  0  0  0
   -1.9830    0.5550   -0.8460 N   0  0  0  0  0  0  0  0  0  0  0  0
   -3.0450    1.1100   -1.4530 C   0  0  0  0  0  0  0  0  0  0  0  0
   -4.3090    0.5890   -1.2340 C   0  0  0  0  0  0  0  0  0  0  0  0
   -4.3950   -0.4930   -0.3860 C   0  0  0  0  0  0  0  0  0  0  0  0
   -3.2980   -0.9950    0.1850 N   0  0  0  0  0  0  0  0  0  0  0  0
  1  2  1  0
  2  3  2  0
  2 10  1  0
  3  4  1  0
  4  5  1  0
  4  8  2  0
  5  6  2  0
  6  7  1  0
  7  8  1  0
  8  9  1  0
  9 10  2  0
 10 11  1  0
 11 12  1  0
 12 13  2  0
 12 17  1  0
 13 14  1  0
 14 15  2  0
 15 16  1  0
 16 17  2  0
M  END
