
     RDKit          3D

 33 36  0  0  0  0  0  0  0  0999 V2000
    5.7180   -3.1090    1.0040 C   0  0  0  0  0  0  0  0  0  0  0  0
    5.1880   -1.7300    0.9130 C   0  0  0  0  0  0  0  0  0  0  0  0
    3.9280   -1.5340    0.4210 C   0  0  0  0  0  0  0  0  0  0  0  0
    3.4060   -0.2630    0.3240 C   0  0  0  0  0  0  0  0  0  0  0  0
    2.2520    0.2640   -0.0960 N   0  0  0  0  0  0  0  0  0  0  0  0
    2.2510    1.6190    0.0250 C   0  0  0  0  0  0  0  0  0  0  0  0
    1.1240    2.5020   -0.3510 C   0  0  0  0  0  0  0  0  0  0  0  0
   -0.0280    1.8880   -0.8720 C   0  0  0  0  0  0  0  0  0  0  0  0
   -1.1020    2.6550   -1.2370 C   0  0  0  0  0  0  0  0  0  0  0  0
   -2.2880    2.0300   -1.7720 C   0  0  0  0  0  0  0  0  0  0  0  0
   -3.3090    2.6920   -2.1260 O   0  0  0  0  0  0  0  0  0  0  0  0
   -2.3510    0.6530   -1.9210 O   0  0  0  0  0  0  0  0  0  0  0  0
   -3.5220    0.0650   -2.4470 C   0  0  1  0  0  0  0  0  0  0  0  0
   -3.1030   -0.6840   -3.7130 C   0  0  0  0  0  0  0  0  0  0  0  0
   -4.0360   -0.9040   -1.4580 C   0  0  0  0  0  0  0  0  0  0  0  0
   -5.0730   -1.5600   -1.7020 O   0  0  0  0  0  0  0  0  0  0  0  0
   -3.3730   -1.1100   -0.2250 N   0  0  0  0  0  0  0  0  0  0  0  0
   -3.8620   -2.0360    0.7380 C   0  0  0  0  0  0  0  0  0  0  0  0
   -5.2180   -1.5430    1.2590 C   0  0  0  0  0  0  0  0  0  0  0  0
   -5.6900   -0.3260    0.8120 C   0  0  0  0  0  0  0  0  0  0  0  0
   -7.2580   -0.1240    1.6880 S   0  0  0  0  0  0  0  0  0  0  0  0
   -7.1410   -1.7350    2.6060 C   0  0  0  0  0  0  0  0  0  0  0  0
   -5.9620   -2.2130    2.1470 C   0  0  0  0  0  0  0  0  0  0  0  0
   -5.3970   -3.8210    2.7770 Cl  0  0  0  0  0  0  0  0  0  0  0  0
   -1.0140    4.0130   -1.0800 C   0  0  0  0  0  0  0  0  0  0  0  0
    0.0780    4.6150   -0.5850 N   0  0  0  0  0  0  0  0  0  0  0  0
    1.1360    3.8490   -0.2260 C   0  0  0  0  0  0  0  0  0  0  0  0
    2.1790    4.4100    0.2460 O   0  0  0  0  0  0  0  0  0  0  0  0
    3.4420    1.9340    0.5340 N   0  0  0  0  0  0  0  0  0  0  0  0
    4.1930    0.8100    0.7370 C   0  0  0  0  0  0  0  0  0  0  0  0
    5.4660    0.6060    1.2330 C   0  0  0  0  0  0  0  0  0  0  0  0
    5.9750   -0.6700    1.3250 C   0  0  0  0  0  0  0  0  0  0  0  0
    7.3490   -0.8360    1.8650 C   0  0  0  0  0  0  0  0  0  0  0  0
  1  2  1  0
  2  3  2  0
  2 32  1  0
  3  4  1  0
  4  5  1  0
  4 30  2  0
  5  6  2  0
  6  7  1  0
  6 29  1  0
  7  8  2  0
  7 27  1  0
  8  9  1  0
  9 10  1  0
  9 25  2  0
 10 11  2  0
 10 12  1  0
 12 13  1  0
 13 14  1  6
 13 15  1  0
 15 16  2  0
 15 17  1  0
 17 18  1  0
 18 19  1  0
 19 20  2  0
 19 23  1  0
 20 21  1  0
 21 22  1  0
 22 23  2  0
 23 24  1  0
 25 26  1  0
 26 27  1  0
 27 28  2  0
 29 30  1  0
 30 31  1  0
 31 32  2  0
 32 33  1  0
M  END
