
     RDKit          3D

 33 36  0  0  0  0  0  0  0  0999 V2000
    7.0760   -4.3820    0.7060 C   0  0  0  0  0  0  0  0  0  0  0  0
    5.8850   -5.2460    0.8360 C   0  0  0  0  0  0  0  0  0  0  0  0
    4.7340   -4.7400    1.2130 C   0  0  0  0  0  0  0  0  0  0  0  0
    4.6030   -3.3540    1.5050 N   0  0  0  0  0  0  0  0  0  0  0  0
    3.4850   -2.7940    1.8780 C   0  0  0  0  0  0  0  0  0  0  0  0
    3.4640   -1.3260    2.1590 C   0  0  2  0  0  0  0  0  0  0  0  0
    2.9800   -1.1060    3.4420 O   0  0  0  0  0  0  0  0  0  0  0  0
    2.5930   -0.6830    1.0970 C   0  0  0  0  0  0  0  0  0  0  0  0
    2.4790    1.1150    1.3080 S   0  0  0  0  0  0  0  0  0  0  0  0
    1.4780    1.7450   -0.0260 C   0  0  0  0  0  0  0  0  0  0  0  0
    2.1380    2.0840   -1.1580 N   0  0  0  0  0  0  0  0  0  0  0  0
    1.4870    2.5670   -2.2260 C   0  0  0  0  0  0  0  0  0  0  0  0
    0.0910    2.7160   -2.1460 C   0  0  0  0  0  0  0  0  0  0  0  0
   -0.5950    2.3810   -1.0180 C   0  0  0  0  0  0  0  0  0  0  0  0
   -2.0250    2.5100   -0.8230 C   0  0  0  0  0  0  0  0  0  0  0  0
   -2.5770    2.2840    0.4500 C   0  0  0  0  0  0  0  0  0  0  0  0
   -3.8980    2.3610    0.7250 C   0  0  0  0  0  0  0  0  0  0  0  0
   -4.7780    2.6800   -0.2910 C   0  0  0  0  0  0  0  0  0  0  0  0
   -4.2880    2.9110   -1.5580 C   0  0  0  0  0  0  0  0  0  0  0  0
   -2.9110    2.8230   -1.8070 C   0  0  0  0  0  0  0  0  0  0  0  0
   -2.5210    3.0630   -3.0910 O   0  0  0  0  0  0  0  0  0  0  0  0
   -3.3710    3.3970   -4.1300 C   0  0  0  0  0  0  0  0  0  0  0  0
   -4.1210    4.6910   -3.9780 C   0  0  0  0  0  0  0  0  0  0  0  0
   -6.1190    2.7520    0.0220 O   0  0  0  0  0  0  0  0  0  0  0  0
   -6.6430    2.9350    1.3200 C   0  0  0  0  0  0  0  0  0  0  0  0
   -5.6070    2.8900    2.4010 C   0  0  0  0  0  0  0  0  0  0  0  0
   -4.4530    2.1390    1.9810 O   0  0  0  0  0  0  0  0  0  0  0  0
    0.1620    1.8930    0.0290 N   0  0  0  0  0  0  0  0  0  0  0  0
    2.3170   -3.5900    1.9880 N   0  0  0  0  0  0  0  0  0  0  0  0
    2.1670   -4.8770    1.3490 C   0  0  0  0  0  0  0  0  0  0  0  0
    3.5220   -5.5410    1.3550 C   0  0  0  0  0  0  0  0  0  0  0  0
    3.5950   -6.8490    1.4950 C   0  0  0  0  0  0  0  0  0  0  0  0
    2.1300   -7.7980    1.6630 Cl  0  0  0  0  0  0  0  0  0  0  0  0
  1  2  1  0
  2  3  2  3
  3  4  1  0
  3 31  1  0
  4  5  2  0
  5  6  1  0
  5 29  1  0
  6  7  1  1
  6  8  1  0
  8  9  1  0
  9 10  1  0
 10 11  2  0
 10 28  1  0
 11 12  1  0
 12 13  2  0
 13 14  1  0
 14 15  1  0
 14 28  2  0
 15 16  2  0
 15 20  1  0
 16 17  1  0
 17 18  2  0
 17 27  1  0
 18 19  1  0
 18 24  1  0
 19 20  2  0
 20 21  1  0
 21 22  1  0
 22 23  1  0
 24 25  1  0
 25 26  1  0
 26 27  1  0
 29 30  1  0
 30 31  1  0
 31 32  2  3
 32 33  1  0
M  END
