
     RDKit          3D

 33 36  0  0  0  0  0  0  0  0999 V2000
   -9.9870    0.7060   -0.1250 C   0  0  0  0  0  0  0  0  0  0  0  0
   -8.5150    0.7800   -0.0930 C   0  0  0  0  0  0  0  0  0  0  0  0
   -7.8050    1.9120   -0.7230 C   0  0  0  0  0  0  0  0  0  0  0  0
   -7.8040   -0.1710    0.5010 C   0  0  0  0  0  0  0  0  0  0  0  0
   -8.5300   -1.2780    1.1120 C   0  0  0  0  0  0  0  0  0  0  0  0
   -8.0980   -2.7920    0.2860 Cl  0  0  0  0  0  0  0  0  0  0  0  0
   -6.3980   -0.0530    0.5150 N   0  0  0  0  0  0  0  0  0  0  0  0
   -5.4840   -0.9530    1.1020 C   0  0  0  0  0  0  0  0  0  0  0  0
   -5.9110   -1.9650    1.6830 O   0  0  0  0  0  0  0  0  0  0  0  0
   -4.0450   -0.6770    1.0160 C   0  0  0  0  0  0  0  0  0  0  0  0
   -3.3230    0.3320    0.4560 C   0  0  0  0  0  0  0  0  0  0  0  0
   -2.0010    0.3180    0.5360 C   0  0  0  0  0  0  0  0  0  0  0  0
   -1.3830   -0.7320    1.1930 C   0  0  0  0  0  0  0  0  0  0  0  0
    0.0050   -0.9420    1.3930 N   0  0  0  0  0  0  0  0  0  0  0  0
    0.9360   -1.0470    0.2940 C   0  0  0  0  0  0  0  0  0  0  0  0
    2.1250   -1.7280    0.9140 C   0  0  1  0  0  0  0  0  0  0  0  0
    3.3850   -1.3470    0.2090 C   0  0  0  0  0  0  0  0  0  0  0  0
    4.0570   -2.2450   -0.3200 O   0  0  0  0  0  0  0  0  0  0  0  0
    3.8300   -0.0100    0.1270 N   0  0  0  0  0  0  0  0  0  0  0  0
    4.9900    0.4710   -0.5090 C   0  0  0  0  0  0  0  0  0  0  0  0
    5.2690    1.8380   -0.4070 C   0  0  0  0  0  0  0  0  0  0  0  0
    6.3740    2.4150   -0.9960 C   0  0  0  0  0  0  0  0  0  0  0  0
    7.2520    1.6280   -1.7210 C   0  0  0  0  0  0  0  0  0  0  0  0
    7.0230    0.2750   -1.8520 C   0  0  0  0  0  0  0  0  0  0  0  0
    5.8910   -0.2580   -1.2360 C   0  0  0  0  0  0  0  0  0  0  0  0
    7.9150   -0.5540   -2.5930 N   0  0  0  0  0  0  0  0  0  0  0  0
    9.1210   -0.0380   -3.1870 C   0  0  0  0  0  0  0  0  0  0  0  0
    9.4800    1.2470   -2.5170 C   0  0  0  0  0  0  0  0  0  0  0  0
    8.3880    2.1330   -2.3460 O   0  0  0  0  0  0  0  0  0  0  0  0
    2.1080   -1.2690    2.3320 C   0  0  0  0  0  0  0  0  0  0  0  0
    0.6870   -1.0740    2.6310 C   0  0  0  0  0  0  0  0  0  0  0  0
    0.1750   -1.0310    3.7820 O   0  0  0  0  0  0  0  0  0  0  0  0
   -2.7380   -1.7180    1.7050 S   0  0  0  0  0  0  0  0  0  0  0  0
  1  2  1  0
  2  3  1  0
  2  4  2  3
  4  5  1  0
  4  7  1  0
  5  6  1  0
  7  8  1  0
  8  9  2  0
  8 10  1  0
 10 11  2  0
 10 33  1  0
 11 12  1  0
 12 13  2  0
 13 14  1  0
 13 33  1  0
 14 15  1  0
 14 31  1  0
 15 16  1  0
 16 17  1  6
 16 30  1  0
 17 18  2  0
 17 19  1  0
 19 20  1  0
 20 21  2  0
 20 25  1  0
 21 22  1  0
 22 23  2  0
 23 24  1  0
 23 29  1  0
 24 25  2  0
 24 26  1  0
 26 27  1  0
 27 28  1  0
 28 29  1  0
 30 31  1  0
 31 32  2  0
M  END
