
     RDKit          3D

 33 36  0  0  0  0  0  0  0  0999 V2000
   -0.9310   -4.4150    3.0550 C   0  0  0  0  0  0  0  0  0  0  0  0
   -0.6800   -5.1410    1.7850 C   0  0  0  0  0  0  0  0  0  0  0  0
   -1.4730   -4.9100    0.7440 C   0  0  0  0  0  0  0  0  0  0  0  0
   -1.2130   -5.6260   -0.4860 C   0  0  0  0  0  0  0  0  0  0  0  0
   -1.9410   -5.4690   -1.5750 C   0  0  0  0  0  0  0  0  0  0  0  0
   -1.5880   -6.3570   -3.0440 Cl  0  0  0  0  0  0  0  0  0  0  0  0
   -2.5530   -3.9930    0.8030 N   0  0  0  0  0  0  0  0  0  0  0  0
   -3.9430   -4.3800    0.9070 C   0  0  0  0  0  0  0  0  0  0  0  0
   -4.5920   -3.5260    1.9700 C   0  0  0  0  0  0  0  0  0  0  0  0
   -4.5560   -2.0600    1.5910 C   0  0  0  0  0  0  0  0  0  0  0  0
   -3.2100   -1.6580    1.1430 C   0  0  0  0  0  0  0  0  0  0  0  0
   -2.8640   -0.3210    1.0970 C   0  0  0  0  0  0  0  0  0  0  0  0
   -1.6070    0.0910    0.6850 C   0  0  0  0  0  0  0  0  0  0  0  0
   -1.0100    1.3080    0.5490 N   0  0  0  0  0  0  0  0  0  0  0  0
    0.2280    1.1650    0.1150 C   0  0  0  0  0  0  0  0  0  0  0  0
    1.2620    2.1810   -0.1750 C   0  0  0  0  0  0  0  0  0  0  0  0
    0.9920    3.3890   -0.0000 O   0  0  0  0  0  0  0  0  0  0  0  0
    2.5970    1.7330   -0.6670 C   0  0  0  0  0  0  0  0  0  0  0  0
    3.5460    2.7610   -0.8750 N   0  0  0  0  0  0  0  0  0  0  0  0
    3.3090    3.8170   -1.7940 C   0  0  0  0  0  0  0  0  0  0  0  0
    2.2550    3.8990   -2.4530 O   0  0  0  0  0  0  0  0  0  0  0  0
    4.3580    4.8340   -1.9600 C   0  0  0  0  0  0  0  0  0  0  0  0
    4.0690    5.9300   -2.9160 C   0  0  2  0  0  0  0  0  0  0  0  0
    5.5810    7.0000   -2.9020 S   0  0  0  0  0  0  0  0  0  0  0  0
    5.0320    8.0740   -1.5860 C   0  0  0  0  0  0  0  0  0  0  0  0
    5.7180    8.8740   -0.9580 O   0  0  0  0  0  0  0  0  0  0  0  0
    3.6550    7.7980   -1.4320 N   0  0  0  0  0  0  0  0  0  0  0  0
    3.1060    6.9370   -2.3870 C   0  0  0  0  0  0  0  0  0  0  0  0
    1.8940    6.9550   -2.8100 O   0  0  0  0  0  0  0  0  0  0  0  0
    0.4360   -0.1980   -0.0350 C   0  0  0  0  0  0  0  0  0  0  0  0
   -0.7090   -0.8830    0.3200 C   0  0  0  0  0  0  0  0  0  0  0  0
   -1.0030   -2.2270    0.3480 C   0  0  0  0  0  0  0  0  0  0  0  0
   -2.2680   -2.5850    0.7670 C   0  0  0  0  0  0  0  0  0  0  0  0
  1  2  1  0
  2  3  2  3
  3  4  1  0
  3  7  1  0
  4  5  2  3
  5  6  1  0
  7  8  1  0
  7 33  1  0
  8  9  1  0
  9 10  1  0
 10 11  1  0
 11 12  2  0
 11 33  1  0
 12 13  1  0
 13 14  1  0
 13 31  2  0
 14 15  1  0
 15 16  1  0
 15 30  2  0
 16 17  2  0
 16 18  1  0
 18 19  1  0
 19 20  1  0
 20 21  2  0
 20 22  1  0
 23 22  1  1
 23 24  1  0
 23 28  1  0
 24 25  1  0
 25 26  2  0
 25 27  1  0
 27 28  1  0
 28 29  2  0
 30 31  1  0
 31 32  1  0
 32 33  2  0
M  END
