
     RDKit          3D

 33 36  0  0  0  0  0  0  0  0999 V2000
   -0.4360    6.9030    0.3790 C   0  0  0  0  0  0  0  0  0  0  0  0
   -0.4700    5.3880    0.4060 C   0  0  0  0  0  0  0  0  0  0  0  0
    0.1650    4.5870    1.3060 C   0  0  0  0  0  0  0  0  0  0  0  0
   -0.1530    3.2900    0.9380 C   0  0  0  0  0  0  0  0  0  0  0  0
   -0.9630    3.3280   -0.1630 C   0  0  0  0  0  0  0  0  0  0  0  0
   -1.5760    2.2810   -0.9440 C   0  0  0  0  0  0  0  0  0  0  0  0
   -2.3040    2.7320   -1.9410 O   0  0  0  0  0  0  0  0  0  0  0  0
   -1.5190    0.9300   -0.8110 N   0  0  0  0  0  0  0  0  0  0  0  0
   -2.2810    0.0830   -1.7910 C   0  0  0  0  0  0  0  0  0  0  0  0
   -3.3310   -0.5450   -0.8770 C   0  0  0  0  0  0  0  0  0  0  0  0
   -2.6710   -1.4900   -0.0630 N   0  0  0  0  0  0  0  0  0  0  0  0
   -3.0140   -2.8520   -0.3520 C   0  0  0  0  0  0  0  0  0  0  0  0
   -4.4540   -3.1430   -0.1720 C   0  0  0  0  0  0  0  0  0  0  0  0
   -5.4820   -2.3300    0.2210 C   0  0  0  0  0  0  0  0  0  0  0  0
   -6.6050   -3.0830    0.2260 N   0  0  0  0  0  0  0  0  0  0  0  0
   -6.3240   -4.3330   -0.1480 C   0  0  0  0  0  0  0  0  0  0  0  0
   -4.9780   -4.4100   -0.4070 C   0  0  0  0  0  0  0  0  0  0  0  0
   -4.2820   -5.5310   -0.8210 O   0  0  0  0  0  0  0  0  0  0  0  0
   -1.3120   -1.2690    0.2560 C   0  0  0  0  0  0  0  0  0  0  0  0
   -0.8150    0.1490    0.1570 C   0  0  1  0  0  0  0  0  0  0  0  0
    0.6240    0.2470   -0.1310 C   0  0  0  0  0  0  0  0  0  0  0  0
    0.9670    0.9540   -1.1150 O   0  0  0  0  0  0  0  0  0  0  0  0
    1.6140   -0.4210    0.6550 N   0  0  0  0  0  0  0  0  0  0  0  0
    2.9920   -0.2270    0.2450 C   0  0  0  0  0  0  0  0  0  0  0  0
    3.9750   -0.9350    1.0840 C   0  0  0  0  0  0  0  0  0  0  0  0
    5.3640   -0.6740    0.5850 C   0  0  0  0  0  0  0  0  0  0  0  0
    5.5810    0.0830   -0.4480 C   0  0  0  0  0  0  0  0  0  0  0  0
    6.8240    0.4740   -1.1040 C   0  0  0  0  0  0  0  0  0  0  0  0
    8.2510   -0.2500   -0.2930 S   0  0  0  0  0  0  0  0  0  0  0  0
    7.6850   -1.2270    1.0730 C   0  0  0  0  0  0  0  0  0  0  0  0
    8.8740   -2.0520    2.0460 Cl  0  0  0  0  0  0  0  0  0  0  0  0
    6.4240   -1.3360    1.3550 C   0  0  0  0  0  0  0  0  0  0  0  0
   -1.1090    4.6380   -0.4240 O   0  0  0  0  0  0  0  0  0  0  0  0
  1  2  1  0
  2  3  2  0
  2 33  1  0
  3  4  1  0
  4  5  2  0
  5  6  1  0
  5 33  1  0
  6  7  2  0
  6  8  1  0
  8  9  1  0
  8 20  1  0
  9 10  1  0
 10 11  1  0
 11 12  1  0
 11 19  1  0
 12 13  1  0
 13 14  2  0
 13 17  1  0
 14 15  1  0
 15 16  1  0
 16 17  2  0
 17 18  1  0
 19 20  1  0
 20 21  1  6
 21 22  2  0
 21 23  1  0
 23 24  1  0
 24 25  1  0
 25 26  1  0
 26 27  2  0
 26 32  1  0
 27 28  1  0
 28 29  1  0
 29 30  1  0
 30 31  1  0
 30 32  2  0
M  END
