
     RDKit          3D

 33 36  0  0  0  0  0  0  0  0999 V2000
   -1.5220   -5.9710    3.1140 N   0  0  0  0  0  0  0  0  0  0  0  0
   -1.6760   -4.8270    2.8080 C   0  0  0  0  0  0  0  0  0  0  0  0
   -1.8670   -3.4630    2.4160 C   0  0  0  0  0  0  0  0  0  0  0  0
   -2.1920   -2.4990    3.3870 C   0  0  0  0  0  0  0  0  0  0  0  0
   -2.4480   -1.1810    3.0350 C   0  0  0  0  0  0  0  0  0  0  0  0
   -2.8560    0.0390    4.2450 Cl  0  0  0  0  0  0  0  0  0  0  0  0
   -2.3880   -0.7810    1.6960 C   0  0  0  0  0  0  0  0  0  0  0  0
   -2.6500    0.5520    1.4510 O   0  0  0  0  0  0  0  0  0  0  0  0
   -2.7540    1.2110    0.2540 C   0  0  0  0  0  0  0  0  0  0  0  0
   -4.0080    1.0040   -0.4930 C   0  0  1  0  0  0  0  0  0  0  0  0
   -4.1520    1.6940   -1.8250 C   0  0  0  0  0  0  0  0  0  0  0  0
   -4.9870    0.7210   -2.6360 C   0  0  0  0  0  0  0  0  0  0  0  0
   -5.5320   -0.1610   -1.6890 O   0  0  0  0  0  0  0  0  0  0  0  0
   -4.4060   -0.3940   -0.8210 C   0  0  0  0  0  0  0  0  0  0  0  0
   -2.0630   -1.7220    0.7460 C   0  0  0  0  0  0  0  0  0  0  0  0
   -1.8130   -3.0190    1.1190 C   0  0  0  0  0  0  0  0  0  0  0  0
   -1.4790   -3.9700    0.1640 O   0  0  0  0  0  0  0  0  0  0  0  0
   -1.3760   -3.6900   -1.2280 C   0  0  0  0  0  0  0  0  0  0  0  0
   -0.3050   -2.6410   -1.4230 C   0  0  0  0  0  0  0  0  0  0  0  0
   -0.1200   -2.0510   -2.5110 O   0  0  0  0  0  0  0  0  0  0  0  0
    0.5090   -2.3280   -0.3180 N   0  0  0  0  0  0  0  0  0  0  0  0
    1.2210   -1.2740   -0.2390 C   0  0  0  0  0  0  0  0  0  0  0  0
    1.1820   -0.3350   -1.3630 N   0  0  0  0  0  0  0  0  0  0  0  0
    2.3430   -0.8700    1.0850 S   0  0  0  0  0  0  0  0  0  0  0  0
    3.5920    0.2380    0.4630 C   0  0  0  0  0  0  0  0  0  0  0  0
    4.7530   -0.2780   -0.1200 C   0  0  0  0  0  0  0  0  0  0  0  0
    5.7280    0.5460   -0.6130 C   0  0  0  0  0  0  0  0  0  0  0  0
    5.5790    1.9210   -0.5440 C   0  0  0  0  0  0  0  0  0  0  0  0
    4.4310    2.4360    0.0290 C   0  0  0  0  0  0  0  0  0  0  0  0
    3.4380    1.5920    0.5330 C   0  0  0  0  0  0  0  0  0  0  0  0
    4.5290    3.9100   -0.0270 C   0  0  0  0  0  0  0  0  0  0  0  0
    6.0410    4.1550   -0.1670 C   0  0  0  0  0  0  0  0  0  0  0  0
    6.4210    2.9760   -0.9680 N   0  0  0  0  0  0  0  0  0  0  0  0
  1  2  3  0
  2  3  1  0
  3  4  2  0
  3 16  1  0
  4  5  1  0
  5  6  1  0
  5  7  2  0
  7  8  1  0
  7 15  1  0
  8  9  1  0
 10  9  1  6
 10 11  1  0
 10 14  1  0
 11 12  1  0
 12 13  1  0
 13 14  1  0
 15 16  2  0
 16 17  1  0
 17 18  1  0
 18 19  1  0
 19 20  2  0
 19 21  1  0
 21 22  2  3
 22 23  1  0
 22 24  1  0
 24 25  1  0
 25 26  2  0
 25 30  1  0
 26 27  1  0
 27 28  2  0
 28 29  1  0
 28 33  1  0
 29 30  2  0
 29 31  1  0
 31 32  1  0
 32 33  1  0
M  END
