
     RDKit          3D

 32 35  0  0  0  0  0  0  0  0999 V2000
   -3.7100    1.6030   -2.0180 C   0  0  0  0  0  0  0  0  0  0  0  0
   -2.8080    0.3970   -1.9900 C   0  0  2  0  0  0  0  0  0  0  0  0
   -1.4750    0.8790   -2.0090 O   0  0  0  0  0  0  0  0  0  0  0  0
   -0.6170   -0.1200   -1.6230 C   0  0  1  0  0  0  0  0  0  0  0  0
   -0.8090   -0.3860   -0.2340 O   0  0  0  0  0  0  0  0  0  0  0  0
    0.2150   -0.6590    0.6180 C   0  0  0  0  0  0  0  0  0  0  0  0
    0.8630    0.2510    1.4000 C   0  0  0  0  0  0  0  0  0  0  0  0
    0.5490    1.6730    1.4610 C   0  0  0  0  0  0  0  0  0  0  0  0
   -0.5750    2.2410    0.9350 C   0  0  0  0  0  0  0  0  0  0  0  0
   -0.8210    3.6190    0.9740 C   0  0  0  0  0  0  0  0  0  0  0  0
    0.1100    4.4600    1.5740 C   0  0  0  0  0  0  0  0  0  0  0  0
   -0.1060    5.8270    1.6280 O   0  0  0  0  0  0  0  0  0  0  0  0
    1.2380    3.9120    2.1050 C   0  0  0  0  0  0  0  0  0  0  0  0
    2.1460    4.7780    2.6940 O   0  0  0  0  0  0  0  0  0  0  0  0
    1.4490    2.5540    2.0480 C   0  0  0  0  0  0  0  0  0  0  0  0
    1.8680   -0.1520    2.1850 O   0  0  0  0  0  0  0  0  0  0  0  0
    2.3020   -1.3620    2.2840 C   0  0  0  0  0  0  0  0  0  0  0  0
    3.3540   -1.6720    3.1320 C   0  0  0  0  0  0  0  0  0  0  0  0
    3.8340   -2.9530    3.2580 C   0  0  0  0  0  0  0  0  0  0  0  0
    4.9010   -3.2680    4.1190 O   0  0  0  0  0  0  0  0  0  0  0  0
    3.2270   -3.9260    2.5030 C   0  0  0  0  0  0  0  0  0  0  0  0
    2.1590   -3.6450    1.6340 C   0  0  0  0  0  0  0  0  0  0  0  0
    1.6240   -4.6710    0.9290 O   0  0  0  0  0  0  0  0  0  0  0  0
    1.7040   -2.3570    1.5320 C   0  0  0  0  0  0  0  0  0  0  0  0
    0.6560   -1.9780    0.7010 C   0  0  0  0  0  0  0  0  0  0  0  0
    0.0990   -2.8410    0.0150 O   0  0  0  0  0  0  0  0  0  0  0  0
   -0.9960   -1.3370   -2.4640 C   0  0  2  0  0  0  0  0  0  0  0  0
    0.1480   -1.9930   -2.9540 O   0  0  0  0  0  0  0  0  0  0  0  0
   -1.7380   -0.8890   -3.7320 C   0  0  2  0  0  0  0  0  0  0  0  0
   -1.0100    0.1220   -4.3700 O   0  0  0  0  0  0  0  0  0  0  0  0
   -3.0850   -0.3810   -3.2740 C   0  0  1  0  0  0  0  0  0  0  0  0
   -3.8640   -1.4900   -2.9820 O   0  0  0  0  0  0  0  0  0  0  0  0
  2  1  1  6
  2  3  1  0
  2 31  1  0
  3  4  1  0
  4  5  1  1
  4 27  1  0
  5  6  1  0
  6  7  2  0
  6 25  1  0
  7  8  1  0
  7 16  1  0
  8  9  2  0
  8 15  1  0
  9 10  1  0
 10 11  2  0
 11 12  1  0
 11 13  1  0
 13 14  1  0
 13 15  2  0
 16 17  1  0
 17 18  2  0
 17 24  1  0
 18 19  1  0
 19 20  1  0
 19 21  2  0
 21 22  1  0
 22 23  1  0
 22 24  2  0
 24 25  1  0
 25 26  2  0
 27 28  1  6
 27 29  1  0
 29 30  1  1
 29 31  1  0
 31 32  1  1
M  END
