
     RDKit          3D

 33 37  0  0  0  0  0  0  0  0999 V2000
    8.5550   -0.1920   -0.6090 C   0  0  0  0  0  0  0  0  0  0  0  0
    7.1840    0.1090    0.0110 C   0  0  2  0  0  0  0  0  0  0  0  0
    7.0970    1.5750    0.1010 N   0  0  0  0  0  0  0  0  0  0  0  0
    7.1660   -0.4730    1.3850 C   0  0  0  0  0  0  0  0  0  0  0  0
    6.1980   -1.6530    1.5220 C   0  0  0  0  0  0  0  0  0  0  0  0
    4.8790   -1.1290    1.0910 C   0  0  0  0  0  0  0  0  0  0  0  0
    3.7350   -1.2730    1.8310 C   0  0  0  0  0  0  0  0  0  0  0  0
    2.5300   -0.7570    1.3720 C   0  0  0  0  0  0  0  0  0  0  0  0
    1.1350   -0.9900    2.3730 Cl  0  0  0  0  0  0  0  0  0  0  0  0
    2.4380   -0.0900    0.1720 C   0  0  0  0  0  0  0  0  0  0  0  0
    1.2330    0.4440   -0.3180 N   0  0  0  0  0  0  0  0  0  0  0  0
    0.4530    1.4520    0.3200 C   0  0  0  0  0  0  0  0  0  0  0  0
   -0.9310    1.6350   -0.1930 C   0  0  0  0  0  0  0  0  0  0  0  0
   -1.5070    0.6000   -0.9190 N   0  0  0  0  0  0  0  0  0  0  0  0
   -2.8970    0.4080   -0.9000 C   0  0  0  0  0  0  0  0  0  0  0  0
   -3.4600   -0.0370    0.3850 C   0  0  0  0  0  0  0  0  0  0  0  0
   -2.6540   -0.3050    1.4520 C   0  0  0  0  0  0  0  0  0  0  0  0
   -3.2250   -0.7490    2.6310 C   0  0  0  0  0  0  0  0  0  0  0  0
   -2.4620   -1.0270    3.7170 F   0  0  0  0  0  0  0  0  0  0  0  0
   -4.5870   -0.9170    2.7230 C   0  0  0  0  0  0  0  0  0  0  0  0
   -5.3450   -0.6470    1.6640 N   0  0  0  0  0  0  0  0  0  0  0  0
   -4.8500   -0.2100    0.4820 C   0  0  0  0  0  0  0  0  0  0  0  0
   -5.6860    0.0650   -0.6120 N   0  0  0  0  0  0  0  0  0  0  0  0
   -5.9360    1.3320   -1.2390 C   0  0  0  0  0  0  0  0  0  0  0  0
   -7.4800    1.3230   -1.2390 C   0  0  0  0  0  0  0  0  0  0  0  0
   -7.8150   -0.1500   -1.4660 C   0  0  2  0  0  0  0  0  0  0  0  0
   -8.6920   -0.6530   -0.4390 N   0  0  0  0  0  0  0  0  0  0  0  0
   -6.4880   -0.8930   -1.3370 C   0  0  0  0  0  0  0  0  0  0  0  0
   -0.6850   -0.4810   -1.3350 C   0  0  0  0  0  0  0  0  0  0  0  0
    0.7500   -0.0760   -1.5840 C   0  0  0  0  0  0  0  0  0  0  0  0
    3.6090    0.0430   -0.5600 C   0  0  0  0  0  0  0  0  0  0  0  0
    4.8090   -0.4650   -0.1110 C   0  0  0  0  0  0  0  0  0  0  0  0
    6.0730   -0.3300   -0.8860 C   0  0  0  0  0  0  0  0  0  0  0  0
  2  1  1  6
  2  3  1  0
  2  4  1  0
  2 33  1  0
  4  5  1  0
  5  6  1  0
  6  7  2  0
  6 32  1  0
  7  8  1  0
  8  9  1  0
  8 10  2  0
 10 11  1  0
 10 31  1  0
 11 12  1  0
 11 30  1  0
 12 13  1  0
 13 14  1  0
 14 15  1  0
 14 29  1  0
 15 16  1  0
 16 17  2  0
 16 22  1  0
 17 18  1  0
 18 19  1  0
 18 20  2  0
 20 21  1  0
 21 22  2  0
 22 23  1  0
 23 24  1  0
 23 28  1  0
 24 25  1  0
 25 26  1  0
 26 27  1  1
 26 28  1  0
 29 30  1  0
 31 32  2  0
 32 33  1  0
M  CHG  2   3   1  27   1
M  END
