
     RDKit          3D

 24 26  0  0  0  0  0  0  0  0999 V2000
   -4.0020    0.9590   -1.9660 C   0  0  0  0  0  0  0  0  0  0  0  0
   -2.8230    0.7540   -1.0400 C   0  0  2  0  0  0  0  0  0  0  0  0
   -2.0580   -0.4060   -1.3600 N   0  0  0  0  0  0  0  0  0  0  0  0
   -0.6840   -0.2770   -1.7320 C   0  0  0  0  0  0  0  0  0  0  0  0
   -0.2170    0.8610   -1.7590 O   0  0  0  0  0  0  0  0  0  0  0  0
    0.0700   -1.4740   -2.0530 C   0  0  0  0  0  0  0  0  0  0  0  0
    1.4930   -1.2270   -2.3830 C   0  0  0  0  0  0  0  0  0  0  0  0
    2.3000   -0.6040   -1.3110 C   0  0  0  0  0  0  0  0  0  0  0  0
    2.8130   -1.3720   -0.3000 N   0  0  0  0  0  0  0  0  0  0  0  0
    3.5800   -0.9220    0.6800 C   0  0  0  0  0  0  0  0  0  0  0  0
    4.0800   -1.7420    1.6920 C   0  0  0  0  0  0  0  0  0  0  0  0
    4.8770   -1.2660    2.7080 C   0  0  0  0  0  0  0  0  0  0  0  0
    5.1820    0.0790    2.7080 C   0  0  0  0  0  0  0  0  0  0  0  0
    4.7000    0.9180    1.7170 C   0  0  0  0  0  0  0  0  0  0  0  0
    3.9020    0.4180    0.7070 C   0  0  0  0  0  0  0  0  0  0  0  0
    3.3970    1.2060   -0.3020 C   0  0  0  0  0  0  0  0  0  0  0  0
    3.6960    2.4360   -0.2720 O   0  0  0  0  0  0  0  0  0  0  0  0
    2.6070    0.6980   -1.2970 N   0  0  0  0  0  0  0  0  0  0  0  0
   -3.2730    0.6470    0.3820 C   0  0  0  0  0  0  0  0  0  0  0  0
   -2.3770    0.2460    1.3410 C   0  0  0  0  0  0  0  0  0  0  0  0
   -2.7150    0.1230    2.6700 C   0  0  0  0  0  0  0  0  0  0  0  0
   -3.9960    0.4040    3.0930 C   0  0  0  0  0  0  0  0  0  0  0  0
   -4.9020    0.8100    2.1170 C   0  0  0  0  0  0  0  0  0  0  0  0
   -4.5550    0.9310    0.7870 C   0  0  0  0  0  0  0  0  0  0  0  0
  2  1  1  6
  2  3  1  0
  2 19  1  0
  3  4  1  0
  4  5  2  0
  4  6  1  0
  6  7  1  0
  7  8  1  0
  8  9  2  0
  8 18  1  0
  9 10  1  0
 10 11  2  0
 10 15  1  0
 11 12  1  0
 12 13  2  0
 13 14  1  0
 14 15  2  0
 15 16  1  0
 16 17  2  0
 16 18  1  0
 19 20  2  0
 19 24  1  0
 20 21  1  0
 21 22  2  0
 22 23  1  0
 23 24  2  0
M  END
