
     RDKit          3D

 12 13  0  0  0  0  0  0  0  0999 V2000
   -3.4310   -1.3020    0.3280 C   0  0  0  0  0  0  0  0  0  0  0  0
   -2.1120   -1.3710    0.4170 C   0  0  0  0  0  0  0  0  0  0  0  0
   -1.4720   -0.4200   -0.4710 C   0  0  0  0  0  0  0  0  0  0  0  0
   -0.0130   -0.2080   -0.6460 C   0  0  0  0  0  0  0  0  0  0  0  0
    0.6320    0.2050    0.6530 C   0  0  0  0  0  0  0  0  0  0  0  0
    2.0410    0.4220    0.5330 N   0  0  0  0  0  0  0  0  0  0  0  0
    2.7190    1.5520    0.2290 C   0  0  0  0  0  0  0  0  0  0  0  0
    4.0620    1.2400    0.2390 C   0  0  0  0  0  0  0  0  0  0  0  0
    4.1570   -0.0760    0.5510 C   0  0  0  0  0  0  0  0  0  0  0  0
    2.9280   -0.5590    0.7260 N   0  0  0  0  0  0  0  0  0  0  0  0
   -2.4470    0.2190   -1.0920 C   0  0  0  0  0  0  0  0  0  0  0  0
   -3.7690   -0.2620   -0.6610 C   0  0  0  0  0  0  0  0  0  0  0  0
  1  2  2  0
  1 12  1  0
  2  3  1  0
  3  4  1  0
  3 11  2  0
  4  5  1  0
  5  6  1  0
  6  7  1  0
  6 10  1  0
  7  8  2  0
  8  9  1  0
  9 10  2  0
 11 12  1  0
M  END
