
     RDKit          3D

 12 13  0  0  0  0  0  0  0  0999 V2000
    3.0920    0.2860    0.8920 C   0  0  0  0  0  0  0  0  0  0  0  0
    2.7030   -1.0740    0.3710 C   0  0  0  0  0  0  0  0  0  0  0  0
    1.9150   -0.8830   -0.9010 C   0  0  0  0  0  0  0  0  0  0  0  0
    0.7120   -0.0980   -0.6740 N   0  0  0  0  0  0  0  0  0  0  0  0
    0.6140    1.2300   -0.7580 N   0  0  0  0  0  0  0  0  0  0  0  0
   -0.6360    1.6320   -0.4890 C   0  0  0  0  0  0  0  0  0  0  0  0
   -1.1920    3.0130   -0.4650 C   0  0  0  0  0  0  0  0  0  0  0  0
   -1.3730    0.4890   -0.2190 C   0  0  0  0  0  0  0  0  0  0  0  0
   -0.5090   -0.5500   -0.3440 C   0  0  0  0  0  0  0  0  0  0  0  0
   -1.2800   -1.8050   -0.0580 C   0  0  0  0  0  0  0  0  0  0  0  0
   -2.4530   -1.3170    0.7460 C   0  0  0  0  0  0  0  0  0  0  0  0
   -2.7440    0.0210    0.1480 C   0  0  0  0  0  0  0  0  0  0  0  0
  1  2  1  0
  2  3  1  0
  3  4  1  0
  4  5  1  0
  4  9  1  0
  5  6  2  0
  6  7  1  0
  6  8  1  0
  8  9  2  0
  8 12  1  0
  9 10  1  0
 10 11  1  0
 11 12  1  0
M  END
