
     RDKit          3D

 12 13  0  0  0  0  0  0  0  0999 V2000
   -2.7190   -2.5500   -0.0930 C   0  0  0  0  0  0  0  0  0  0  0  0
   -2.4980   -1.0510   -0.2840 C   0  0  0  0  0  0  0  0  0  0  0  0
   -1.0390   -0.7980   -0.1400 C   0  0  0  0  0  0  0  0  0  0  0  0
   -0.0420   -1.6980   -0.1940 N   0  0  0  0  0  0  0  0  0  0  0  0
    1.1490   -1.1110   -0.0130 N   0  0  0  0  0  0  0  0  0  0  0  0
    0.8970    0.1850    0.1480 C   0  0  0  0  0  0  0  0  0  0  0  0
   -0.4740    0.4400    0.0810 C   0  0  0  0  0  0  0  0  0  0  0  0
   -1.1820    1.7230    0.2050 C   0  0  0  0  0  0  0  0  0  0  0  0
   -0.5970    2.8810   -0.5440 C   0  0  0  0  0  0  0  0  0  0  0  0
    2.1590    0.9450    0.3010 C   0  0  0  0  0  0  0  0  0  0  0  0
    3.1930   -0.1220    0.4800 C   0  0  0  0  0  0  0  0  0  0  0  0
    2.5670   -1.4190    0.0740 C   0  0  0  0  0  0  0  0  0  0  0  0
  1  2  1  0
  2  3  1  0
  3  4  2  0
  3  7  1  0
  4  5  1  0
  5  6  1  0
  5 12  1  0
  6  7  2  0
  6 10  1  0
  7  8  1  0
  8  9  1  0
 10 11  1  0
 11 12  1  0
M  END
