
     RDKit          3D

 12 13  0  0  0  0  0  0  0  0999 V2000
    3.2800    0.2000   -0.9760 C   0  0  0  0  0  0  0  0  0  0  0  0
    2.6060   -0.1840    0.2540 N   0  0  0  0  0  0  0  0  0  0  0  0
    3.2210   -0.6040    1.3670 C   0  0  0  0  0  0  0  0  0  0  0  0
    2.2620   -0.8930    2.3180 C   0  0  0  0  0  0  0  0  0  0  0  0
    1.0880   -0.6300    1.7260 N   0  0  0  0  0  0  0  0  0  0  0  0
    1.2590   -0.1920    0.4540 C   0  0  0  0  0  0  0  0  0  0  0  0
    0.2550    0.2160   -0.5010 C   0  0  0  0  0  0  0  0  0  0  0  0
   -0.9750    0.4230   -0.1890 C   0  0  0  0  0  0  0  0  0  0  0  0
   -1.6630    0.3140    1.1000 C   0  0  0  0  0  0  0  0  0  0  0  0
   -2.9940   -0.2910    0.6840 C   0  0  0  0  0  0  0  0  0  0  0  0
   -3.1110   -0.1520   -0.8120 C   0  0  0  0  0  0  0  0  0  0  0  0
   -2.0620    0.8810   -1.1310 C   0  0  0  0  0  0  0  0  0  0  0  0
  1  2  1  0
  2  3  1  0
  2  6  1  0
  3  4  2  0
  4  5  1  0
  5  6  2  0
  6  7  1  0
  7  8  2  3
  8  9  1  0
  8 12  1  0
  9 10  1  0
 10 11  1  0
 11 12  1  0
M  END
