
     RDKit          3D

 12 12  0  0  0  0  0  0  0  0999 V2000
    2.4000    2.4080    1.0580 C   0  0  0  0  0  0  0  0  0  0  0  0
    2.0070    2.0550   -0.1050 N   0  0  0  0  0  0  0  0  0  0  0  0
    1.9080    0.6310   -0.3390 C   0  0  0  0  0  0  0  0  0  0  0  0
    2.6200    0.0930   -1.2970 C   0  0  0  0  0  0  0  0  0  0  0  0
    2.6140   -1.3380   -1.6390 C   0  0  0  0  0  0  0  0  0  0  0  0
    1.0210   -0.2150    0.4790 C   0  0  0  0  0  0  0  0  0  0  0  0
   -0.3620    0.1910    0.4060 N   0  0  0  0  0  0  0  0  0  0  0  0
   -0.9090   -0.0500   -0.8700 C   0  0  0  0  0  0  0  0  0  0  0  0
   -2.4020    0.0710   -0.9660 C   0  0  0  0  0  0  0  0  0  0  0  0
   -3.1240   -0.5060    0.2260 C   0  0  0  0  0  0  0  0  0  0  0  0
   -2.5310    0.0800    1.4700 C   0  0  0  0  0  0  0  0  0  0  0  0
   -1.0860   -0.3820    1.5030 C   0  0  0  0  0  0  0  0  0  0  0  0
  1  2  2  0
  2  3  1  0
  3  4  2  3
  3  6  1  0
  4  5  1  0
  6  7  1  0
  7  8  1  0
  7 12  1  0
  8  9  1  0
  9 10  1  0
 10 11  1  0
 11 12  1  0
M  END
