
     RDKit          3D

 12 13  0  0  0  0  0  0  0  0999 V2000
    0.9150    2.7780   -0.4810 C   0  0  0  0  0  0  0  0  0  0  0  0
    0.0760    2.1030    0.2390 C   0  0  0  0  0  0  0  0  0  0  0  0
   -0.0390    0.6580    0.3510 C   0  0  0  0  0  0  0  0  0  0  0  0
   -0.9170    0.0050    1.2330 C   0  0  0  0  0  0  0  0  0  0  0  0
   -1.8350    0.6990    2.1660 C   0  0  0  0  0  0  0  0  0  0  0  0
   -0.7550   -1.3520    1.0590 C   0  0  0  0  0  0  0  0  0  0  0  0
   -1.5000   -2.4220    1.8040 C   0  0  0  0  0  0  0  0  0  0  0  0
    0.1810   -1.5160    0.1120 N   0  0  0  0  0  0  0  0  0  0  0  0
    0.6070   -0.3050   -0.3090 N   0  0  0  0  0  0  0  0  0  0  0  0
    1.6260   -0.1040   -1.3430 C   0  0  1  0  0  0  0  0  0  0  0  0
    1.7130   -1.2950   -2.3120 C   0  0  0  0  0  0  0  0  0  0  0  0
    1.1910    0.0320   -2.7530 C   0  0  0  0  0  0  0  0  0  0  0  0
  1  2  2  0
  2  3  1  0
  3  4  2  0
  3  9  1  0
  4  5  1  0
  4  6  1  0
  6  7  1  0
  6  8  2  0
  8  9  1  0
 10  9  1  1
 10 11  1  0
 10 12  1  0
 11 12  1  0
M  END
