
     RDKit          3D

 12 13  0  0  0  0  0  0  0  0999 V2000
    0.2960   -2.0430   -0.5190 C   0  0  0  0  0  0  0  0  0  0  0  0
   -0.1340   -0.6780   -0.1640 C   0  0  0  0  0  0  0  0  0  0  0  0
    0.6770    0.4070    0.0870 C   0  0  0  0  0  0  0  0  0  0  0  0
    2.1420    0.4720    0.0620 C   0  0  0  0  0  0  0  0  0  0  0  0
    3.1230   -0.3740   -0.1800 C   0  0  0  0  0  0  0  0  0  0  0  0
    4.1380    0.6660    0.0540 C   0  0  0  0  0  0  0  0  0  0  0  0
    3.1430    1.5070    0.2950 C   0  0  0  0  0  0  0  0  0  0  0  0
   -0.1530    1.4200    0.3650 N   0  0  0  0  0  0  0  0  0  0  0  0
   -1.4210    1.0190    0.2990 N   0  0  0  0  0  0  0  0  0  0  0  0
   -2.6030    1.8480    0.5400 C   0  0  0  0  0  0  0  0  0  0  0  0
   -1.4480   -0.2840   -0.0280 C   0  0  0  0  0  0  0  0  0  0  0  0
   -2.6940   -1.0750   -0.1920 C   0  0  0  0  0  0  0  0  0  0  0  0
  1  2  1  0
  2  3  1  0
  2 11  2  0
  3  4  1  0
  3  8  2  0
  4  5  2  0
  4  7  1  0
  5  6  1  0
  6  7  2  0
  8  9  1  0
  9 10  1  0
  9 11  1  0
 11 12  1  0
M  END
