
     RDKit          3D

 11 12  0  0  0  0  0  0  0  0999 V2000
    3.7200   -0.4610   -0.6150 C   0  0  0  0  0  0  0  0  0  0  0  0
    2.4320    0.1130   -0.0990 C   0  0  0  0  0  0  0  0  0  0  0  0
    1.5150   -0.9860    0.4080 C   0  0  0  0  0  0  0  0  0  0  0  0
    0.2580   -0.3740    0.9060 C   0  0  0  0  0  0  0  0  0  0  0  0
    0.0600    0.0320    2.1650 N   0  0  0  0  0  0  0  0  0  0  0  0
   -1.1790    0.5370    2.2810 C   0  0  0  0  0  0  0  0  0  0  0  0
   -1.7930    0.4450    1.0340 C   0  0  0  0  0  0  0  0  0  0  0  0
   -0.8840   -0.1160    0.2230 N   0  0  0  0  0  0  0  0  0  0  0  0
   -1.4090   -0.2690   -1.1240 C   0  0  0  0  0  0  0  0  0  0  0  0
   -2.6340    0.5850   -1.1500 C   0  0  0  0  0  0  0  0  0  0  0  0
   -3.0650    0.7390    0.2990 C   0  0  0  0  0  0  0  0  0  0  0  0
  1  2  1  0
  2  3  1  0
  3  4  1  0
  4  5  2  0
  4  8  1  0
  5  6  1  0
  6  7  2  0
  7  8  1  0
  7 11  1  0
  8  9  1  0
  9 10  1  0
 10 11  1  0
M  END
