
     RDKit          3D

 28 29  0  0  0  0  0  0  0  0999 V2000
   -7.6230    2.6800    0.4760 O   0  0  0  0  0  0  0  0  0  0  0  0
   -6.6610    1.8750    0.3510 C   0  0  0  0  0  0  0  0  0  0  0  0
   -5.6840    1.7530    1.3190 C   0  0  0  0  0  0  0  0  0  0  0  0
   -4.6350    0.8480    1.1410 C   0  0  0  0  0  0  0  0  0  0  0  0
   -4.5460    0.0810    0.0380 N   0  0  0  0  0  0  0  0  0  0  0  0
   -3.4790   -0.8510   -0.1640 C   0  0  1  0  0  0  0  0  0  0  0  0
   -2.7610   -0.6630   -1.4730 C   0  0  0  0  0  0  0  0  0  0  0  0
   -1.4500   -1.3710   -1.2000 C   0  0  2  0  0  0  0  0  0  0  0  0
   -1.5550   -2.7170   -1.5770 O   0  0  0  0  0  0  0  0  0  0  0  0
   -1.3370   -1.2620    0.2970 C   0  0  1  0  0  0  0  0  0  0  0  0
   -0.0580   -0.5060    0.6270 C   0  0  0  0  0  0  0  0  0  0  0  0
    1.0410   -1.2130    0.1260 O   0  0  0  0  0  0  0  0  0  0  0  0
    2.4900   -0.4420    0.4500 P   0  0  1  0  0  0  0  0  0  0  0  0
    2.4980    0.8790   -0.3000 O   0  0  0  0  0  0  0  0  0  0  0  0
    2.5390   -0.1380    2.1330 O   0  0  0  0  0  0  0  0  0  0  0  0
    3.8070   -1.4720   -0.0300 N   0  0  0  0  0  0  0  0  0  0  0  0
    5.2380   -0.5860   -0.4600 P   0  0  1  0  0  0  0  0  0  0  0  0
    6.3720   -1.5890   -0.5840 O   0  0  0  0  0  0  0  0  0  0  0  0
    4.9670    0.1770   -1.9450 O   0  0  0  0  0  0  0  0  0  0  0  0
    5.6630    0.5250    0.7430 O   0  0  0  0  0  0  0  0  0  0  0  0
    6.9760    1.4280    0.2000 P   0  0  1  0  0  0  0  0  0  0  0  0
    7.1210    1.3070   -1.2940 O   0  0  0  0  0  0  0  0  0  0  0  0
    6.7870    3.0580    0.6440 O   0  0  0  0  0  0  0  0  0  0  0  0
    8.4010    0.8770    0.9090 O   0  0  0  0  0  0  0  0  0  0  0  0
   -2.4560   -0.6210    0.7620 O   0  0  0  0  0  0  0  0  0  0  0  0
   -5.5090    0.2180   -0.8910 C   0  0  0  0  0  0  0  0  0  0  0  0
   -5.4370   -0.4920   -1.9250 O   0  0  0  0  0  0  0  0  0  0  0  0
   -6.5410    1.0940   -0.7390 N   0  0  0  0  0  0  0  0  0  0  0  0
  1  2  2  0
  2  3  1  0
  2 28  1  0
  3  4  2  0
  4  5  1  0
  6  5  1  1
  5 26  1  0
  6  7  1  0
  6 25  1  0
  7  8  1  0
  8  9  1  1
  8 10  1  0
 10 11  1  6
 10 25  1  0
 11 12  1  0
 12 13  1  0
 13 14  2  0
 13 15  1  1
 13 16  1  0
 16 17  1  0
 17 18  2  0
 17 19  1  6
 17 20  1  0
 20 21  1  0
 21 22  2  0
 21 23  1  6
 21 24  1  0
 26 27  2  0
 26 28  1  0
M  END
