
     RDKit          3D

 16 17  0  0  0  0  0  0  0  0999 V2000
   -2.1440   -1.1070    1.8180 O   0  0  0  0  0  0  0  0  0  0  0  0
   -0.8790   -0.7750    1.7190 O   0  0  0  0  0  0  0  0  0  0  0  0
   -0.7870    0.2830    0.8490 C   0  0  2  0  0  0  0  0  0  0  0  0
   -1.5300    1.3430    1.3480 O   0  0  0  0  0  0  0  0  0  0  0  0
   -1.2370   -0.0060   -0.4770 N   0  0  0  0  0  0  0  0  0  0  0  0
   -0.5780    1.0410   -1.2340 C   0  0  1  0  0  0  0  0  0  0  0  0
   -1.0830    2.2650   -0.8410 F   0  0  0  0  0  0  0  0  0  0  0  0
    0.7280    0.9710   -0.7610 O   0  0  0  0  0  0  0  0  0  0  0  0
    0.6610    0.6920    0.5880 C   0  0  1  0  0  0  0  0  0  0  0  0
    1.1070    1.6710    1.4170 O   0  0  0  0  0  0  0  0  0  0  0  0
    2.3560    1.9360    1.0980 O   0  0  0  0  0  0  0  0  0  0  0  0
    1.5950   -0.9290    0.8280 P   0  0  0  0  0  0  0  0  0  0  0  0
    2.9980   -0.9790   -0.1540 O   0  0  0  0  0  0  0  0  0  0  0  0
    0.0240   -2.3060    0.0240 P   0  0  0  0  0  0  0  0  0  0  0  0
   -1.0480   -1.2650   -0.9360 N   0  0  0  0  0  0  0  0  0  0  0  0
   -0.5930   -1.1850   -2.2300 O   0  0  0  0  0  0  0  0  0  0  0  0
  1  2  1  0
  2  3  1  0
  3  4  1  1
  3  5  1  0
  3  9  1  0
  5  6  1  0
  5 15  1  0
  6  7  1  1
  6  8  1  0
  8  9  1  0
  9 10  1  1
  9 12  1  0
 10 11  1  0
 12 13  1  0
 12 14  1  0
 14 15  1  0
 15 16  1  0
M  END
