
     RDKit          3D

 15 14  0  0  0  0  0  0  0  0999 V2000
   -1.8940   -1.9450    0.0710 C   0  0  0  0  0  0  0  0  0  0  0  0
   -1.9440   -0.5250    0.5360 C   0  0  1  0  0  0  0  0  0  0  0  0
   -2.5410   -0.4580    1.7900 O   0  0  0  0  0  0  0  0  0  0  0  0
   -0.6340   -0.0670    0.6720 O   0  0  0  0  0  0  0  0  0  0  0  0
   -0.0440   -0.1570   -0.5180 N   0  0  0  0  0  0  0  0  0  0  0  0
    1.5840   -0.8500   -0.4870 P   0  0  0  0  0  0  0  0  0  0  0  0
    2.8790    0.1680   -0.2970 C   0  0  0  0  0  0  0  0  0  0  0  0
    2.6750    1.5350   -0.1660 O   0  0  0  0  0  0  0  0  0  0  0  0
    4.5910   -0.5160   -0.2590 P   0  0  0  0  0  0  0  0  0  0  0  0
    5.2630   -0.2610    1.3110 O   0  0  0  0  0  0  0  0  0  0  0  0
    5.5180    0.2330   -1.5020 O   0  0  0  0  0  0  0  0  0  0  0  0
   -2.6050    0.2980   -0.4440 N   0  0  0  0  0  0  0  0  0  0  0  0
   -3.8640   -0.0710   -0.6950 O   0  0  0  0  0  0  0  0  0  0  0  0
   -2.4690    1.6160   -0.2030 O   0  0  0  0  0  0  0  0  0  0  0  0
   -3.5350    2.1460    0.3430 O   0  0  0  0  0  0  0  0  0  0  0  0
  2  1  1  6
  2  3  1  0
  2  4  1  0
  2 12  1  0
  4  5  1  0
  5  6  1  0
  6  7  2  3
  7  8  1  0
  7  9  1  0
  9 10  1  0
  9 11  1  0
 12 13  1  0
 12 14  1  0
 14 15  1  0
M  END
