
     RDKit          3D

 16 16  0  0  0  0  0  0  0  0999 V2000
    2.5520   -0.5750   -1.5850 C   0  0  0  0  0  0  0  0  0  0  0  0
    1.8320    0.3180   -0.7060 N   0  0  0  0  0  0  0  0  0  0  0  0
    0.5030    0.0440   -0.6860 O   0  0  0  0  0  0  0  0  0  0  0  0
   -0.0870    0.9050    0.2120 C   0  0  1  0  0  0  0  0  0  0  0  0
    0.5890    2.1420    0.0840 O   0  0  0  0  0  0  0  0  0  0  0  0
    0.0500    3.0120    0.9370 O   0  0  0  0  0  0  0  0  0  0  0  0
    0.3100    4.2130    0.4610 F   0  0  0  0  0  0  0  0  0  0  0  0
   -1.4210    1.1800   -0.1070 O   0  0  0  0  0  0  0  0  0  0  0  0
   -2.2050    0.0430   -0.1250 C   0  0  2  0  0  0  0  0  0  0  0  0
   -1.7290   -0.8070   -1.2010 N   0  0  0  0  0  0  0  0  0  0  0  0
   -3.4990    0.4260   -0.4500 O   0  0  0  0  0  0  0  0  0  0  0  0
   -2.0790   -0.8260    1.4790 P   0  0  0  0  0  0  0  0  0  0  0  0
   -0.0310    0.5180    1.5170 O   0  0  0  0  0  0  0  0  0  0  0  0
    0.8590   -0.3620    1.8200 O   0  0  0  0  0  0  0  0  0  0  0  0
    2.3530    0.0520    1.0110 P   0  0  0  0  0  0  0  0  0  0  0  0
    3.4300   -1.3330    1.0560 O   0  0  0  0  0  0  0  0  0  0  0  0
  1  2  1  0
  2  3  1  0
  2 15  1  0
  3  4  1  0
  4  5  1  1
  4  8  1  0
  4 13  1  0
  5  6  1  0
  6  7  1  0
  8  9  1  0
  9 10  1  6
  9 11  1  0
  9 12  1  0
 13 14  1  0
 14 15  1  0
 15 16  1  0
M  END
