
     RDKit          3D

 16 17  0  0  0  0  0  0  0  0999 V2000
    4.2150    0.9000   -0.2050 O   0  0  0  0  0  0  0  0  0  0  0  0
    3.0230    0.2820    0.1630 C   0  0  0  0  0  0  0  0  0  0  0  0
    2.4970   -0.3210   -0.9750 O   0  0  0  0  0  0  0  0  0  0  0  0
    1.0030   -1.1310   -0.6540 P   0  0  0  0  0  0  0  0  0  0  0  0
    1.2620   -2.2280    0.6680 O   0  0  0  0  0  0  0  0  0  0  0  0
   -0.3290    0.0760   -0.2230 C   0  0  2  0  0  0  0  0  0  0  0  0
    0.1600    1.3550   -0.1840 O   0  0  0  0  0  0  0  0  0  0  0  0
    0.6450    1.6240   -1.4030 F   0  0  0  0  0  0  0  0  0  0  0  0
   -1.3300   -0.3920    0.6730 C   0  0  2  0  0  0  0  0  0  0  0  0
   -1.3270   -1.4380    1.5100 O   0  0  0  0  0  0  0  0  0  0  0  0
   -2.6230   -1.6960    1.7760 O   0  0  0  0  0  0  0  0  0  0  0  0
   -3.3050   -1.5440    0.1400 P   0  0  0  0  0  0  0  0  0  0  0  0
   -1.7640   -1.1160   -0.5700 N   0  0  0  0  0  0  0  0  0  0  0  0
   -1.4700    0.0330   -1.1780 N   0  0  0  0  0  0  0  0  0  0  0  0
   -2.2780    1.0710   -1.1270 O   0  0  0  0  0  0  0  0  0  0  0  0
   -1.8050    2.1600   -0.6260 O   0  0  0  0  0  0  0  0  0  0  0  0
  1  2  1  0
  2  3  1  0
  3  4  1  0
  4  5  1  0
  4  6  1  0
  6  7  1  1
  6  9  1  0
  6 14  1  0
  7  8  1  0
  9 10  1  1
  9 13  1  0
 10 11  1  0
 11 12  1  0
 12 13  1  0
 13 14  1  0
 14 15  1  0
 15 16  1  0
M  END
