
     RDKit          3D

 16 16  0  0  0  0  0  0  0  0999 V2000
   -0.7350   -1.9020    0.3890 C   0  0  0  0  0  0  0  0  0  0  0  0
   -1.3740   -0.7360   -0.0330 N   0  0  0  0  0  0  0  0  0  0  0  0
   -2.7480   -0.7130   -0.2160 C   0  0  0  0  0  0  0  0  0  0  0  0
   -0.6450    0.3950   -0.1810 N   0  0  0  0  0  0  0  0  0  0  0  0
   -1.1750    1.3190   -0.9780 O   0  0  0  0  0  0  0  0  0  0  0  0
   -1.0360    2.5450   -0.4900 O   0  0  0  0  0  0  0  0  0  0  0  0
   -2.1840    3.1510   -0.3330 O   0  0  0  0  0  0  0  0  0  0  0  0
    1.0350   -0.0400   -0.5890 P   0  0  0  0  0  0  0  0  0  0  0  0
    1.7500    1.1390   -1.6830 O   0  0  0  0  0  0  0  0  0  0  0  0
    3.0170    0.9330   -1.6770 O   0  0  0  0  0  0  0  0  0  0  0  0
    3.6390    0.9670   -0.5730 O   0  0  0  0  0  0  0  0  0  0  0  0
    2.9890    1.2210    0.5020 O   0  0  0  0  0  0  0  0  0  0  0  0
    2.1630    0.1450    0.9130 C   0  0  1  0  0  0  0  0  0  0  0  0
    1.4600    0.4840    2.0250 F   0  0  0  0  0  0  0  0  0  0  0  0
    3.2250   -1.3410    1.1070 P   0  0  0  0  0  0  0  0  0  0  0  0
    4.4310   -1.5740    0.1500 O   0  0  0  0  0  0  0  0  0  0  0  0
  1  2  1  0
  2  3  1  0
  2  4  1  0
  4  5  1  0
  4  8  1  0
  5  6  1  0
  6  7  1  0
  8  9  1  0
  8 13  1  0
  9 10  1  0
 10 11  1  0
 11 12  1  0
 12 13  1  0
 13 14  1  1
 13 15  1  0
 15 16  2  0
M  END
