
     RDKit          3D

 16 16  0  0  0  0  0  0  0  0999 V2000
   -1.9810    2.0100   -0.9110 N   0  0  0  0  0  0  0  0  0  0  0  0
   -2.0770    1.4290    0.4260 C   0  0  0  0  0  0  0  0  0  0  0  0
   -0.9450    0.7320    0.7800 O   0  0  0  0  0  0  0  0  0  0  0  0
   -0.6860   -0.3110   -0.0810 C   0  0  1  0  0  0  0  0  0  0  0  0
   -1.6810   -1.2540   -0.1580 O   0  0  0  0  0  0  0  0  0  0  0  0
   -0.5370    0.2440   -1.3650 O   0  0  0  0  0  0  0  0  0  0  0  0
    0.6100   -1.0010    0.2790 C   0  0  2  0  0  0  0  0  0  0  0  0
    1.6510   -0.1110    0.1860 O   0  0  0  0  0  0  0  0  0  0  0  0
    2.8020   -0.6320    0.4820 O   0  0  0  0  0  0  0  0  0  0  0  0
    3.5040    0.2550    1.1320 O   0  0  0  0  0  0  0  0  0  0  0  0
    4.5020    0.6900    0.3840 O   0  0  0  0  0  0  0  0  0  0  0  0
    4.0650    1.7380   -0.3270 F   0  0  0  0  0  0  0  0  0  0  0  0
    0.8850   -2.1000   -0.6270 N   0  0  0  0  0  0  0  0  0  0  0  0
   -0.3920   -3.3510   -0.2590 P   0  0  0  0  0  0  0  0  0  0  0  0
   -0.6340   -2.7370    1.6630 P   0  0  0  0  0  0  0  0  0  0  0  0
    0.5490   -1.4680    1.5650 O   0  0  0  0  0  0  0  0  0  0  0  0
  1  2  1  0
  2  3  1  0
  3  4  1  0
  4  5  1  6
  4  6  1  0
  4  7  1  0
  7  8  1  1
  7 13  1  0
  7 16  1  0
  8  9  1  0
  9 10  1  0
 10 11  1  0
 11 12  1  0
 13 14  1  0
 14 15  2  0
 15 16  1  0
M  END
