
     RDKit          3D

 20 20  0  0  0  0  0  0  0  0999 V2000
    5.0920   -0.0370    1.5080 C   0  0  0  0  0  0  0  0  0  0  0  0
    5.2760    0.3590    0.0730 C   0  0  2  0  0  0  0  0  0  0  0  0
    5.5640   -0.8700   -0.7860 C   0  0  0  0  0  0  0  0  0  0  0  0
    6.4490    1.3080   -0.0430 C   0  0  0  0  0  0  0  0  0  0  0  0
    4.1180    1.0150   -0.4420 O   0  0  0  0  0  0  0  0  0  0  0  0
    2.8970    0.3260   -0.4530 C   0  0  0  0  0  0  0  0  0  0  0  0
    2.8960   -0.8450   -0.0020 O   0  0  0  0  0  0  0  0  0  0  0  0
    1.7220    0.9300   -0.9520 N   0  0  0  0  0  0  0  0  0  0  0  0
    0.4490    0.2670   -0.9830 C   0  0  0  0  0  0  0  0  0  0  0  0
   -0.0360   -0.1340    0.3910 C   0  0  1  0  0  0  0  0  0  0  0  0
   -0.1750    1.1110    1.2540 C   0  0  0  0  0  0  0  0  0  0  0  0
   -0.6220    0.6800    2.5010 O   0  0  0  0  0  0  0  0  0  0  0  0
   -1.3520   -0.8800    0.3090 C   0  0  0  0  0  0  0  0  0  0  0  0
   -2.3450   -0.0980   -0.2750 O   0  0  0  0  0  0  0  0  0  0  0  0
   -3.5500   -0.7480   -0.3630 C   0  0  2  0  0  0  0  0  0  0  0  0
   -4.0890   -0.8430   -1.7590 C   0  0  0  0  0  0  0  0  0  0  0  0
   -4.7890    0.4650   -1.9550 C   0  0  0  0  0  0  0  0  0  0  0  0
   -5.5460    0.6060   -0.6270 C   0  0  0  0  0  0  0  0  0  0  0  0
   -4.6120   -0.0120    0.3820 C   0  0  1  0  0  0  0  0  0  0  0  0
   -5.3850   -0.9760    1.1540 N   0  0  0  0  0  0  0  0  0  0  0  0
  2  1  1  1
  2  3  1  0
  2  4  1  0
  2  5  1  0
  5  6  1  0
  6  7  2  0
  6  8  1  0
  8  9  1  0
 10  9  1  6
 10 11  1  0
 10 13  1  0
 11 12  1  0
 13 14  1  0
 15 14  1  6
 15 16  1  0
 15 19  1  0
 16 17  1  0
 17 18  1  0
 18 19  1  0
 19 20  1  1
M  CHG  1  20   1
M  END
