
     RDKit          3D

 20 20  0  0  0  0  0  0  0  0999 V2000
   -0.2180   -1.9460    0.6650 C   0  0  0  0  0  0  0  0  0  0  0  0
   -0.2640   -0.4330    0.6080 C   0  0  1  0  0  0  0  0  0  0  0  0
   -0.1690    0.0370    2.0420 C   0  0  0  0  0  0  0  0  0  0  0  0
    0.9480    0.0530   -0.0920 C   0  0  0  0  0  0  0  0  0  0  0  0
    0.8500    0.7660   -1.1220 O   0  0  0  0  0  0  0  0  0  0  0  0
    2.2330   -0.2400    0.3370 O   0  0  0  0  0  0  0  0  0  0  0  0
    3.3930    0.2030   -0.2990 C   0  0  1  0  0  0  0  0  0  0  0  0
    4.1290    1.1550    0.6280 C   0  0  0  0  0  0  0  0  0  0  0  0
    5.4730    1.5490    0.0950 C   0  0  0  0  0  0  0  0  0  0  0  0
    6.0160    0.5330   -0.8880 C   0  0  0  0  0  0  0  0  0  0  0  0
    5.6200   -0.7200   -0.4380 O   0  0  0  0  0  0  0  0  0  0  0  0
    4.2820   -0.9240   -0.7680 C   0  0  0  0  0  0  0  0  0  0  0  0
   -1.5240   -0.0060   -0.0660 C   0  0  1  0  0  0  0  0  0  0  0  0
   -1.5390   -0.5620   -1.3970 N   0  0  0  0  0  0  0  0  0  0  0  0
   -2.7520   -0.3430    0.7430 C   0  0  0  0  0  0  0  0  0  0  0  0
   -3.9820    0.1140    0.0180 C   0  0  0  0  0  0  0  0  0  0  0  0
   -5.2730   -0.1730    0.7310 C   0  0  2  0  0  0  0  0  0  0  0  0
   -6.3340    0.3490   -0.1470 N   0  0  0  0  0  0  0  0  0  0  0  0
   -5.3280    0.5780    2.0100 C   0  0  0  0  0  0  0  0  0  0  0  0
   -4.5910    0.3600    2.9490 O   0  0  0  0  0  0  0  0  0  0  0  0
  2  1  1  1
  2  3  1  0
  2  4  1  0
  2 13  1  0
  4  5  2  0
  4  6  1  0
  7  6  1  1
  7  8  1  0
  7 12  1  0
  8  9  1  0
  9 10  1  0
 10 11  1  0
 11 12  1  0
 13 14  1  6
 13 15  1  0
 15 16  1  0
 16 17  1  0
 17 18  1  6
 17 19  1  0
 19 20  2  0
M  CHG  1  14   1
M  END
