
     RDKit          3D

 20 20  0  0  0  0  0  0  0  0999 V2000
    3.0240    0.9410    1.6860 C   0  0  0  0  0  0  0  0  0  0  0  0
    2.9370   -0.5240    1.3790 C   0  0  0  0  0  0  0  0  0  0  0  0
    1.8630   -0.8710    0.3820 C   0  0  1  0  0  0  0  0  0  0  0  0
    1.9250   -2.3580    0.1830 C   0  0  0  0  0  0  0  0  0  0  0  0
    3.2960   -2.7470   -0.3450 C   0  0  0  0  0  0  0  0  0  0  0  0
    0.7080   -0.3500    0.7930 O   0  0  0  0  0  0  0  0  0  0  0  0
    0.0220    0.5590    0.0750 C   0  0  2  0  0  0  0  0  0  0  0  0
   -0.2550    1.7760    0.8690 C   0  0  0  0  0  0  0  0  0  0  0  0
   -1.3320    2.5170    0.6380 C   0  0  0  0  0  0  0  0  0  0  0  0
   -1.5870    3.6920    1.4110 C   0  0  0  0  0  0  0  0  0  0  0  0
   -0.8440    4.1080    2.3390 O   0  0  0  0  0  0  0  0  0  0  0  0
   -2.7370    4.4590    1.1450 O   0  0  0  0  0  0  0  0  0  0  0  0
   -2.2850    2.0970   -0.4340 C   0  0  0  0  0  0  0  0  0  0  0  0
   -2.5190    0.6160   -0.1610 C   0  0  2  0  0  0  0  0  0  0  0  0
   -2.8470    0.4510    1.2660 N   0  0  0  0  0  0  0  0  0  0  0  0
   -1.2480   -0.1270   -0.3970 C   0  0  1  0  0  0  0  0  0  0  0  0
   -1.1210   -0.5250   -1.8060 N   0  0  0  0  0  0  0  0  0  0  0  0
   -1.2260   -1.8860   -2.1810 C   0  0  0  0  0  0  0  0  0  0  0  0
   -1.1000   -2.3360   -3.6140 C   0  0  0  0  0  0  0  0  0  0  0  0
   -1.4290   -2.7810   -1.3320 O   0  0  0  0  0  0  0  0  0  0  0  0
  1  2  1  0
  3  2  1  1
  3  4  1  0
  3  6  1  0
  4  5  1  0
  7  6  1  1
  7  8  1  0
  7 16  1  0
  8  9  2  0
  9 10  1  0
  9 13  1  0
 10 11  2  0
 10 12  1  0
 13 14  1  0
 14 15  1  1
 14 16  1  0
 16 17  1  6
 17 18  1  0
 18 19  1  0
 18 20  2  0
M  CHG  1  15   1
M  END
