
     RDKit          3D

 20 20  0  0  0  0  0  0  0  0999 V2000
    4.8230    2.6000    0.6070 C   0  0  0  0  0  0  0  0  0  0  0  0
    4.2030    1.3540    0.7400 O   0  0  0  0  0  0  0  0  0  0  0  0
    3.8440    0.5350   -0.3190 C   0  0  0  0  0  0  0  0  0  0  0  0
    4.1270    1.0080   -1.4680 O   0  0  0  0  0  0  0  0  0  0  0  0
    3.2010   -0.7720   -0.1900 C   0  0  2  0  0  0  0  0  0  0  0  0
    3.5490   -1.4830   -1.4690 N   0  0  0  0  0  0  0  0  0  0  0  0
    1.7330   -0.8480   -0.1450 C   0  0  0  0  0  0  0  0  0  0  0  0
    0.9620   -0.1550    0.9200 C   0  0  2  0  0  0  0  0  0  0  0  0
    1.1630    1.3210    0.8600 C   0  0  0  0  0  0  0  0  0  0  0  0
    1.5390   -0.5800    2.3120 C   0  0  0  0  0  0  0  0  0  0  0  0
   -0.2740   -0.6220    0.9750 O   0  0  0  0  0  0  0  0  0  0  0  0
   -1.2480   -0.6390    0.1180 C   0  0  1  0  0  0  0  0  0  0  0  0
   -1.1170   -1.3150   -1.2150 C   0  0  0  0  0  0  0  0  0  0  0  0
   -2.3510   -1.4780    0.8370 C   0  0  0  0  0  0  0  0  0  0  0  0
   -3.6310   -1.1720    0.1570 C   0  0  0  0  0  0  0  0  0  0  0  0
   -3.4570    0.2130   -0.3590 C   0  0  1  0  0  0  0  0  0  0  0  0
   -3.7300    0.1920   -1.7990 N   0  0  0  0  0  0  0  0  0  0  0  0
   -4.4510    1.1810    0.2460 C   0  0  0  0  0  0  0  0  0  0  0  0
   -5.7280    0.7390   -0.0110 O   0  0  0  0  0  0  0  0  0  0  0  0
   -2.0310    0.6490   -0.0760 C   0  0  0  0  0  0  0  0  0  0  0  0
  1  2  1  0
  2  3  1  0
  3  4  2  0
  3  5  1  0
  5  6  1  6
  5  7  1  0
  7  8  1  0
  8  9  1  6
  8 10  1  0
  8 11  1  0
 11 12  1  0
 12 13  1  6
 12 14  1  0
 12 20  1  0
 14 15  1  0
 15 16  1  0
 16 17  1  6
 16 18  1  0
 16 20  1  0
 18 19  1  0
M  CHG  1   6   1
M  END
