
     RDKit          3D

 20 21  0  0  0  0  0  0  0  0999 V2000
    3.3340    2.0260   -1.8670 C   0  0  0  0  0  0  0  0  0  0  0  0
    2.8210    0.8330   -2.2040 O   0  0  0  0  0  0  0  0  0  0  0  0
    2.8870   -0.2500   -1.4420 C   0  0  0  0  0  0  0  0  0  0  0  0
    2.2930   -0.2340   -0.0540 C   0  0  1  0  0  0  0  0  0  0  0  0
    3.2170    0.5250    0.9060 C   0  0  0  0  0  0  0  0  0  0  0  0
    4.5440   -0.0470    0.7320 N   0  0  0  0  0  0  0  0  0  0  0  0
    0.9010    0.2780   -0.0730 C   0  0  0  0  0  0  0  0  0  0  0  0
   -0.0620   -0.7930    0.3940 C   0  0  2  0  0  0  0  0  0  0  0  0
    0.0100   -1.8810   -0.4340 O   0  0  0  0  0  0  0  0  0  0  0  0
   -1.4420   -0.2470    0.6260 C   0  0  0  0  0  0  0  0  0  0  0  0
   -2.1310    0.1900   -0.5390 N   0  0  0  0  0  0  0  0  0  0  0  0
   -2.5180   -0.8290   -1.4600 C   0  0  0  0  0  0  0  0  0  0  0  0
   -4.0460   -0.9190   -1.3730 C   0  0  0  0  0  0  0  0  0  0  0  0
   -4.4290    0.4960   -1.0850 C   0  0  0  0  0  0  0  0  0  0  0  0
   -3.2580    1.0070   -0.2550 C   0  0  1  0  0  0  0  0  0  0  0  0
   -3.7180    1.0280    1.1690 C   0  0  0  0  0  0  0  0  0  0  0  0
   -4.8410    1.8940    1.1950 O   0  0  0  0  0  0  0  0  0  0  0  0
    0.4630   -1.2000    1.7830 C   0  0  0  0  0  0  0  0  0  0  0  0
    1.8020   -1.8320    1.5840 C   0  0  0  0  0  0  0  0  0  0  0  0
    2.4130   -1.5700    0.3950 O   0  0  0  0  0  0  0  0  0  0  0  0
  1  2  1  0
  2  3  1  0
  4  3  1  6
  4  5  1  0
  4  7  1  0
  4 20  1  0
  5  6  1  0
  7  8  1  0
  8  9  1  6
  8 10  1  0
  8 18  1  0
 10 11  1  0
 11 12  1  0
 11 15  1  0
 12 13  1  0
 13 14  1  0
 14 15  1  0
 15 16  1  1
 16 17  1  0
 18 19  1  0
 19 20  1  0
M  CHG  1   6   1
M  END
