
     RDKit          3D

 19 19  0  0  0  0  0  0  0  0999 V2000
   -1.9360    2.5250   -0.9640 C   0  0  0  0  0  0  0  0  0  0  0  0
   -1.4940    1.0510   -0.8750 C   0  0  2  0  0  0  0  0  0  0  0  0
   -2.3300    0.3250   -1.9070 C   0  0  0  0  0  0  0  0  0  0  0  0
   -1.7510    0.6230    0.5220 C   0  0  2  0  0  0  0  0  0  0  0  0
   -3.2250    0.7620    0.8150 C   0  0  0  0  0  0  0  0  0  0  0  0
   -1.1130    1.6060    1.3300 O   0  0  0  0  0  0  0  0  0  0  0  0
   -1.1660   -0.6750    0.9750 C   0  0  1  0  0  0  0  0  0  0  0  0
   -1.6540   -0.7690    2.4530 C   0  0  0  0  0  0  0  0  0  0  0  0
   -1.7300   -1.9110    0.3580 C   0  0  0  0  0  0  0  0  0  0  0  0
   -1.0320   -2.9960    0.9460 O   0  0  0  0  0  0  0  0  0  0  0  0
    0.2940   -0.7170    1.0920 C   0  0  0  0  0  0  0  0  0  0  0  0
    1.1600   -0.4720    0.0200 N   0  0  0  0  0  0  0  0  0  0  0  0
    1.1500   -1.4750   -1.0190 C   0  0  0  0  0  0  0  0  0  0  0  0
    2.3900   -1.3960   -1.8950 C   0  0  0  0  0  0  0  0  0  0  0  0
    2.7310   -0.0720   -2.1800 O   0  0  0  0  0  0  0  0  0  0  0  0
    3.8330    0.2340   -1.4240 C   0  0  0  0  0  0  0  0  0  0  0  0
    3.4130    0.5300   -0.0200 C   0  0  1  0  0  0  0  0  0  0  0  0
    2.8690    1.8510    0.1590 N   0  0  0  0  0  0  0  0  0  0  0  0
    2.5210   -0.5140    0.5870 C   0  0  0  0  0  0  0  0  0  0  0  0
  2  1  1  1
  2  3  1  0
  2  4  1  0
  4  5  1  1
  4  6  1  0
  4  7  1  0
  7  8  1  1
  7  9  1  0
  7 11  1  0
  9 10  1  0
 11 12  1  0
 12 13  1  0
 12 19  1  0
 13 14  1  0
 14 15  1  0
 15 16  1  0
 16 17  1  0
 17 18  1  6
 17 19  1  0
M  CHG  1  18   1
M  END
