
     RDKit          3D

 20 20  0  0  0  0  0  0  0  0999 V2000
    4.4230    1.5990   -1.0780 C   0  0  0  0  0  0  0  0  0  0  0  0
    3.8420    0.6030   -0.1150 C   0  0  2  0  0  0  0  0  0  0  0  0
    4.0010   -0.8330   -0.6100 C   0  0  0  0  0  0  0  0  0  0  0  0
    3.5110   -1.7210    0.4750 C   0  0  0  0  0  0  0  0  0  0  0  0
    2.6120   -1.2510    1.3330 O   0  0  0  0  0  0  0  0  0  0  0  0
    1.8140   -0.2000    1.0170 C   0  0  2  0  0  0  0  0  0  0  0  0
    1.5760    0.5810    2.3200 C   0  0  0  0  0  0  0  0  0  0  0  0
    0.5830   -0.7340    0.5670 O   0  0  0  0  0  0  0  0  0  0  0  0
   -0.4850    0.0920    0.1520 C   0  0  0  0  0  0  0  0  0  0  0  0
   -0.2040    1.3060    0.2340 O   0  0  0  0  0  0  0  0  0  0  0  0
   -1.7340   -0.5250   -0.3040 C   0  0  2  0  0  0  0  0  0  0  0  0
   -2.8080    0.3410   -0.7040 C   0  0  0  0  0  0  0  0  0  0  0  0
   -2.8380    1.6350   -0.7050 C   0  0  0  0  0  0  0  0  0  0  0  0
   -4.0360    2.3830   -1.1540 C   0  0  0  0  0  0  0  0  0  0  0  0
   -4.0580    3.7940   -1.1510 N   0  0  0  0  0  0  0  0  0  0  0  0
   -5.0510    1.7770   -1.5440 O   0  0  0  0  0  0  0  0  0  0  0  0
   -2.1860   -1.4300    0.8610 C   0  0  0  0  0  0  0  0  0  0  0  0
   -3.4750   -2.1380    0.5280 C   0  0  0  0  0  0  0  0  0  0  0  0
   -3.3780   -2.9740   -0.6270 N   0  0  0  0  0  0  0  0  0  0  0  0
    2.3310    0.7690    0.0230 C   0  0  0  0  0  0  0  0  0  0  0  0
  2  1  1  6
  2  3  1  0
  2 20  1  0
  3  4  1  0
  4  5  1  0
  5  6  1  0
  6  7  1  1
  6  8  1  0
  6 20  1  0
  8  9  1  0
  9 10  2  0
  9 11  1  0
 11 12  1  0
 11 17  1  1
 12 13  2  3
 13 14  1  0
 14 15  1  0
 14 16  2  0
 17 18  1  0
 18 19  1  0
M  CHG  1  19   1
M  END
