
     RDKit          3D

 20 20  0  0  0  0  0  0  0  0999 V2000
    4.4280    0.2290    0.1170 C   0  0  0  0  0  0  0  0  0  0  0  0
    3.1640    0.0850    0.8800 C   0  0  0  0  0  0  0  0  0  0  0  0
    1.9990   -0.5070    0.1650 C   0  0  1  0  0  0  0  0  0  0  0  0
    2.1740   -1.8850   -0.3390 C   0  0  0  0  0  0  0  0  0  0  0  0
    3.2650   -2.1050   -1.3460 C   0  0  0  0  0  0  0  0  0  0  0  0
    0.8690   -0.4010    1.0130 O   0  0  0  0  0  0  0  0  0  0  0  0
   -0.0770    0.4600    0.4920 C   0  0  2  0  0  0  0  0  0  0  0  0
   -0.1860    1.6240    1.4320 C   0  0  0  0  0  0  0  0  0  0  0  0
   -1.3220    2.5280    1.2320 C   0  0  1  0  0  0  0  0  0  0  0  0
   -0.9880    3.6590    0.2940 C   0  0  0  0  0  0  0  0  0  0  0  0
    0.1420    3.7780   -0.2340 O   0  0  0  0  0  0  0  0  0  0  0  0
   -2.0070    4.5660    0.0450 O   0  0  0  0  0  0  0  0  0  0  0  0
   -2.5870    1.9050    0.7160 C   0  0  0  0  0  0  0  0  0  0  0  0
   -2.2570    0.9580   -0.3900 C   0  0  2  0  0  0  0  0  0  0  0  0
   -3.3940    0.4300   -1.0790 N   0  0  0  0  0  0  0  0  0  0  0  0
   -1.4350   -0.1510    0.2870 C   0  0  1  0  0  0  0  0  0  0  0  0
   -1.4530   -1.3570   -0.4510 N   0  0  0  0  0  0  0  0  0  0  0  0
   -1.9660   -2.5400    0.1460 C   0  0  0  0  0  0  0  0  0  0  0  0
   -1.9970   -3.8340   -0.6140 C   0  0  0  0  0  0  0  0  0  0  0  0
   -2.4130   -2.5360    1.3410 O   0  0  0  0  0  0  0  0  0  0  0  0
  1  2  1  0
  3  2  1  1
  3  4  1  0
  3  6  1  0
  4  5  1  0
  7  6  1  1
  7  8  1  0
  7 16  1  0
  8  9  1  0
  9 10  1  6
  9 13  1  0
 10 11  2  0
 10 12  1  0
 13 14  1  0
 14 15  1  1
 14 16  1  0
 16 17  1  6
 17 18  1  0
 18 19  1  0
 18 20  2  0
M  CHG  1  15   1
M  END
