
     RDKit          3D

 20 20  0  0  0  0  0  0  0  0999 V2000
    5.9200    0.3240    1.6940 C   0  0  0  0  0  0  0  0  0  0  0  0
    5.7240   -1.0610    1.1070 C   0  0  0  0  0  0  0  0  0  0  0  0
    4.6640   -0.9780    0.0620 C   0  0  0  0  0  0  0  0  0  0  0  0
    3.3580   -0.5110    0.5690 C   0  0  0  0  0  0  0  0  0  0  0  0
    3.3040   -0.2460    1.8050 O   0  0  0  0  0  0  0  0  0  0  0  0
    2.2110   -0.3510   -0.2170 N   0  0  0  0  0  0  0  0  0  0  0  0
    0.9780    0.1010    0.3190 C   0  0  0  0  0  0  0  0  0  0  0  0
    0.8540    0.3810    1.5340 O   0  0  0  0  0  0  0  0  0  0  0  0
   -0.1940    0.2480   -0.5700 C   0  0  1  0  0  0  0  0  0  0  0  0
    0.2190    1.2640   -1.6400 C   0  0  0  0  0  0  0  0  0  0  0  0
   -0.8420    1.5020   -2.5810 N   0  0  0  0  0  0  0  0  0  0  0  0
   -0.5700   -1.0480   -1.2460 C   0  0  0  0  0  0  0  0  0  0  0  0
   -1.1510   -2.0270   -0.2590 C   0  0  0  0  0  0  0  0  0  0  0  0
   -2.4390   -1.4780    0.2570 C   0  0  2  0  0  0  0  0  0  0  0  0
   -3.5570   -2.0880   -0.3560 O   0  0  0  0  0  0  0  0  0  0  0  0
   -2.6020   -0.0060    0.1050 C   0  0  1  0  0  0  0  0  0  0  0  0
   -3.4860    0.4460    1.0650 O   0  0  0  0  0  0  0  0  0  0  0  0
   -4.6130    1.0510    0.5250 C   0  0  0  0  0  0  0  0  0  0  0  0
   -5.5130    1.5090    1.6480 C   0  0  0  0  0  0  0  0  0  0  0  0
   -1.3290    0.7770    0.2340 C   0  0  0  0  0  0  0  0  0  0  0  0
  1  2  1  0
  2  3  1  0
  3  4  1  0
  4  5  2  0
  4  6  1  0
  6  7  1  0
  7  8  2  0
  7  9  1  0
  9 10  1  6
  9 12  1  0
  9 20  1  0
 10 11  1  0
 12 13  1  0
 13 14  1  0
 14 15  1  6
 14 16  1  0
 16 17  1  1
 16 20  1  0
 17 18  1  0
 18 19  1  0
M  CHG  1  11   1
M  END
