
     RDKit          3D

 20 20  0  0  0  0  0  0  0  0999 V2000
   -1.3920    3.6730    0.8680 C   0  0  0  0  0  0  0  0  0  0  0  0
   -1.1310    2.4640    0.1660 O   0  0  0  0  0  0  0  0  0  0  0  0
   -0.7020    1.3230    0.8490 C   0  0  0  0  0  0  0  0  0  0  0  0
   -0.5620    1.4220    2.0940 O   0  0  0  0  0  0  0  0  0  0  0  0
   -0.4260    0.0430    0.1040 C   0  0  1  0  0  0  0  0  0  0  0  0
    0.0180   -0.9130    1.0820 N   0  0  0  0  0  0  0  0  0  0  0  0
   -1.6920   -0.4500   -0.6050 C   0  0  2  0  0  0  0  0  0  0  0  0
   -2.1030   -1.7700   -0.0720 C   0  0  0  0  0  0  0  0  0  0  0  0
   -3.2970   -2.4250   -0.6160 C   0  0  0  0  0  0  0  0  0  0  0  0
   -4.5420   -1.6470   -0.4310 C   0  0  0  0  0  0  0  0  0  0  0  0
   -4.5320   -0.5490    0.1700 O   0  0  0  0  0  0  0  0  0  0  0  0
   -5.7770   -2.0800   -0.9040 O   0  0  0  0  0  0  0  0  0  0  0  0
   -1.4050   -0.3490   -2.0400 C   0  0  0  0  0  0  0  0  0  0  0  0
   -0.1870    0.5640   -2.1860 C   0  0  0  0  0  0  0  0  0  0  0  0
    0.6040    0.2160   -0.9410 C   0  0  1  0  0  0  0  0  0  0  0  0
    1.6730    1.2220   -0.6660 C   0  0  0  0  0  0  0  0  0  0  0  0
    2.4210    0.8930    0.5110 N   0  0  0  0  0  0  0  0  0  0  0  0
    3.5360   -0.0070    0.1920 C   0  0  1  0  0  0  0  0  0  0  0  0
    4.8170    0.4640    0.8400 C   0  0  0  0  0  0  0  0  0  0  0  0
    3.2870   -1.4120    0.6360 C   0  0  0  0  0  0  0  0  0  0  0  0
  1  2  1  0
  2  3  1  0
  3  4  2  0
  3  5  1  0
  5  6  1  1
  5  7  1  0
  5 15  1  0
  7  8  1  1
  7 13  1  0
  8  9  1  0
  9 10  1  0
 10 11  2  0
 10 12  1  0
 13 14  1  0
 14 15  1  0
 15 16  1  1
 16 17  1  0
 17 18  1  0
 18 19  1  1
 18 20  1  0
M  CHG  1  17   1
M  END
