
     RDKit          3D

 20 20  0  0  0  0  0  0  0  0999 V2000
    2.0410   -2.6380   -0.2170 C   0  0  0  0  0  0  0  0  0  0  0  0
    2.7790   -1.4190   -0.7100 C   0  0  0  0  0  0  0  0  0  0  0  0
    2.8400   -0.3150    0.2850 C   0  0  2  0  0  0  0  0  0  0  0  0
    3.5420   -0.7230    1.5640 C   0  0  0  0  0  0  0  0  0  0  0  0
    1.5000    0.1590    0.5450 N   0  0  0  0  0  0  0  0  0  0  0  0
    0.7650    0.7080   -0.5340 C   0  0  0  0  0  0  0  0  0  0  0  0
    1.2080    0.8100   -1.7080 O   0  0  0  0  0  0  0  0  0  0  0  0
   -0.6440    1.2150   -0.3130 C   0  0  1  0  0  0  0  0  0  0  0  0
   -1.5990    0.4200   -1.1560 C   0  0  0  0  0  0  0  0  0  0  0  0
   -2.6650    0.0360   -0.2120 C   0  0  0  0  0  0  0  0  0  0  0  0
   -3.6640   -0.8130   -0.4470 C   0  0  0  0  0  0  0  0  0  0  0  0
   -4.6890   -1.1320    0.5740 C   0  0  0  0  0  0  0  0  0  0  0  0
   -5.9800   -0.7370    0.0060 N   0  0  0  0  0  0  0  0  0  0  0  0
   -2.3770    0.7980    1.0360 C   0  0  2  0  0  0  0  0  0  0  0  0
   -3.2170    2.0530    1.0050 C   0  0  0  0  0  0  0  0  0  0  0  0
   -1.0280    1.0520    1.0100 O   0  0  0  0  0  0  0  0  0  0  0  0
    3.6060    0.8380   -0.2600 C   0  0  0  0  0  0  0  0  0  0  0  0
    3.1720    1.9810   -0.4400 O   0  0  0  0  0  0  0  0  0  0  0  0
    4.9460    0.5900   -0.5970 O   0  0  0  0  0  0  0  0  0  0  0  0
    5.8050    1.5560   -1.1190 C   0  0  0  0  0  0  0  0  0  0  0  0
  1  2  1  0
  2  3  1  0
  3  4  1  1
  3  5  1  0
  3 17  1  0
  5  6  1  0
  6  7  2  0
  8  6  1  1
  8  9  1  0
  8 16  1  0
  9 10  1  0
 10 11  2  3
 10 14  1  0
 11 12  1  0
 12 13  1  0
 14 15  1  6
 14 16  1  0
 17 18  2  0
 17 19  1  0
 19 20  1  0
M  CHG  1  13   1
M  END
