
     RDKit          3D

 20 20  0  0  0  0  0  0  0  0999 V2000
    5.3480    1.9200    2.5170 C   0  0  0  0  0  0  0  0  0  0  0  0
    4.4790    1.5290    1.4720 O   0  0  0  0  0  0  0  0  0  0  0  0
    4.5640    0.3010    0.8430 C   0  0  0  0  0  0  0  0  0  0  0  0
    5.4470   -0.5000    1.2140 O   0  0  0  0  0  0  0  0  0  0  0  0
    3.6200   -0.1010   -0.2800 C   0  0  1  0  0  0  0  0  0  0  0  0
    3.9960   -1.4380   -0.6970 N   0  0  0  0  0  0  0  0  0  0  0  0
    2.2050   -0.0070    0.1950 C   0  0  0  0  0  0  0  0  0  0  0  0
    1.1930   -0.3910   -0.8460 C   0  0  1  0  0  0  0  0  0  0  0  0
    1.2980    0.5050   -2.0370 C   0  0  0  0  0  0  0  0  0  0  0  0
    1.4360   -1.8530   -1.1770 C   0  0  0  0  0  0  0  0  0  0  0  0
   -0.2090   -0.1930   -0.2870 C   0  0  0  0  0  0  0  0  0  0  0  0
   -1.3120   -0.5240   -1.2130 C   0  0  2  0  0  0  0  0  0  0  0  0
   -1.3150    0.2210   -2.3850 O   0  0  0  0  0  0  0  0  0  0  0  0
   -2.6830   -0.3240   -0.5830 C   0  0  2  0  0  0  0  0  0  0  0  0
   -3.0250    1.1100   -0.3760 C   0  0  0  0  0  0  0  0  0  0  0  0
   -3.7800    1.3250    0.9310 C   0  0  0  0  0  0  0  0  0  0  0  0
   -4.8490    0.2510    1.0320 C   0  0  2  0  0  0  0  0  0  0  0  0
   -5.5920    0.4520    2.2050 O   0  0  0  0  0  0  0  0  0  0  0  0
   -4.2190   -1.1040    0.9920 C   0  0  0  0  0  0  0  0  0  0  0  0
   -2.8060   -1.0550    0.6550 N   0  0  0  0  0  0  0  0  0  0  0  0
  1  2  1  0
  2  3  1  0
  3  4  2  0
  3  5  1  0
  5  6  1  1
  5  7  1  0
  7  8  1  0
  8  9  1  6
  8 10  1  0
  8 11  1  0
 11 12  1  0
 12 13  1  6
 12 14  1  0
 14 15  1  1
 14 20  1  0
 15 16  1  0
 16 17  1  0
 17 18  1  1
 17 19  1  0
 19 20  1  0
M  CHG  1  20   1
M  END
