
     RDKit          3D

 20 20  0  0  0  0  0  0  0  0999 V2000
    5.7240   -0.0610   -0.4950 C   0  0  0  0  0  0  0  0  0  0  0  0
    4.5650    0.0560   -1.5280 C   0  0  0  0  0  0  0  0  0  0  0  0
    3.4610    0.3240   -0.7160 O   0  0  0  0  0  0  0  0  0  0  0  0
    2.1370    0.1370   -0.9580 C   0  0  0  0  0  0  0  0  0  0  0  0
    1.7390   -0.3190   -2.0260 O   0  0  0  0  0  0  0  0  0  0  0  0
    1.1070    0.4850    0.2080 C   0  0  2  0  0  0  0  0  0  0  0  0
    0.7820    1.8510    0.1660 C   0  0  0  0  0  0  0  0  0  0  0  0
    1.9340    0.0610    1.2860 N   0  0  0  0  0  0  0  0  0  0  0  0
    1.7010   -1.2490    1.6230 C   0  0  0  0  0  0  0  0  0  0  0  0
    2.3210   -2.0480    2.4210 O   0  0  0  0  0  0  0  0  0  0  0  0
    0.5090   -1.6040    0.8340 C   0  0  0  0  0  0  0  0  0  0  0  0
   -0.0070   -2.9160    0.9990 O   0  0  0  0  0  0  0  0  0  0  0  0
    0.1090   -0.6200    0.0650 C   0  0  0  0  0  0  0  0  0  0  0  0
   -1.2270   -0.6460   -0.5580 C   0  0  1  0  0  0  0  0  0  0  0  0
   -2.0750   -1.6840    0.2750 C   0  0  0  0  0  0  0  0  0  0  0  0
   -2.1210   -1.3510    1.6610 N   0  0  0  0  0  0  0  0  0  0  0  0
   -2.0900    0.5130   -0.6140 C   0  0  1  0  0  0  0  0  0  0  0  0
   -3.3600    0.0240   -1.3910 C   0  0  0  0  0  0  0  0  0  0  0  0
   -2.6730    1.1730    0.5760 C   0  0  0  0  0  0  0  0  0  0  0  0
   -3.4670    2.3950    0.0240 C   0  0  0  0  0  0  0  0  0  0  0  0
  1  2  1  0
  2  3  1  0
  3  4  1  0
  4  5  2  0
  4  6  1  0
  6  7  1  1
  6  8  1  0
  6 13  1  0
  8  9  1  0
  9 10  2  0
  9 11  1  0
 11 12  1  0
 11 13  2  0
 13 14  1  0
 14 15  1  1
 14 17  1  0
 15 16  1  0
 17 18  1  6
 17 19  1  0
 19 20  1  0
M  CHG  1  16   1
M  END
