
     RDKit          3D

 20 20  0  0  0  0  0  0  0  0999 V2000
   -4.4390    1.8960   -1.5800 N   0  0  0  0  0  0  0  0  0  0  0  0
   -4.2130    0.7730   -1.7410 C   0  0  0  0  0  0  0  0  0  0  0  0
   -3.9270   -0.6710   -1.9220 C   0  0  0  0  0  0  0  0  0  0  0  0
   -3.1230   -1.1070   -0.7110 C   0  0  2  0  0  0  0  0  0  0  0  0
   -3.9570   -0.8550    0.4970 C   0  0  0  0  0  0  0  0  0  0  0  0
   -3.1710   -0.7830    1.7780 C   0  0  0  0  0  0  0  0  0  0  0  0
   -1.9080   -0.0080    1.6620 C   0  0  0  0  0  0  0  0  0  0  0  0
   -1.0270   -0.3860    0.5050 C   0  0  2  0  0  0  0  0  0  0  0  0
   -0.3950   -1.7280    0.7940 C   0  0  0  0  0  0  0  0  0  0  0  0
    0.3590   -1.6630    1.9400 O   0  0  0  0  0  0  0  0  0  0  0  0
    0.0290    0.7130    0.4230 C   0  0  1  0  0  0  0  0  0  0  0  0
    0.7580    0.7660    1.6270 O   0  0  0  0  0  0  0  0  0  0  0  0
    0.9130    0.5980   -0.7370 C   0  0  0  0  0  0  0  0  0  0  0  0
    0.5560    0.5530   -1.9300 O   0  0  0  0  0  0  0  0  0  0  0  0
    2.2890    0.5320   -0.5050 O   0  0  0  0  0  0  0  0  0  0  0  0
    3.1960    0.4200   -1.5830 C   0  0  0  0  0  0  0  0  0  0  0  0
    4.6030    0.3670   -1.0790 C   0  0  0  0  0  0  0  0  0  0  0  0
    5.0080    1.5790   -0.2970 C   0  0  0  0  0  0  0  0  0  0  0  0
    4.2130    1.8180    0.8700 N   0  0  0  0  0  0  0  0  0  0  0  0
   -1.8180   -0.3650   -0.7520 C   0  0  0  0  0  0  0  0  0  0  0  0
  1  2  3  0
  2  3  1  0
  4  3  1  6
  4  5  1  0
  4 20  1  0
  5  6  1  0
  6  7  1  0
  7  8  1  0
  8  9  1  1
  8 11  1  0
  8 20  1  0
  9 10  1  0
 11 12  1  1
 11 13  1  0
 13 14  2  0
 13 15  1  0
 15 16  1  0
 16 17  1  0
 17 18  1  0
 18 19  1  0
M  CHG  1  19   1
M  END
