
     RDKit          3D

 20 20  0  0  0  0  0  0  0  0999 V2000
    5.8720    0.7170    1.2120 C   0  0  0  0  0  0  0  0  0  0  0  0
    4.8930   -0.2860    0.6770 C   0  0  2  0  0  0  0  0  0  0  0  0
    3.5580    0.4450    0.4620 C   0  0  0  0  0  0  0  0  0  0  0  0
    2.6680   -0.5250   -0.0620 N   0  0  0  0  0  0  0  0  0  0  0  0
    1.5610   -0.0490   -0.8300 C   0  0  0  0  0  0  0  0  0  0  0  0
    0.5380    0.7000   -0.0810 C   0  0  0  0  0  0  0  0  0  0  0  0
   -0.6200    1.2630   -0.8010 C   0  0  2  0  0  0  0  0  0  0  0  0
   -1.3980    1.9140    0.2020 O   0  0  0  0  0  0  0  0  0  0  0  0
   -1.5620    0.3250   -1.4900 C   0  0  1  0  0  0  0  0  0  0  0  0
   -2.6630    1.1500   -2.1060 C   0  0  0  0  0  0  0  0  0  0  0  0
   -0.9090   -0.3880   -2.5940 N   0  0  0  0  0  0  0  0  0  0  0  0
   -2.0650   -0.7650   -0.5900 C   0  0  2  0  0  0  0  0  0  0  0  0
   -2.9640   -1.5850   -1.3510 O   0  0  0  0  0  0  0  0  0  0  0  0
   -2.7990   -0.4210    0.6340 C   0  0  0  0  0  0  0  0  0  0  0  0
   -4.0880    0.3210    0.4640 C   0  0  0  0  0  0  0  0  0  0  0  0
   -4.7540    0.5780    1.8170 C   0  0  0  0  0  0  0  0  0  0  0  0
   -5.0370   -0.5950    2.4840 O   0  0  0  0  0  0  0  0  0  0  0  0
    2.4820   -1.6680    0.7390 C   0  0  0  0  0  0  0  0  0  0  0  0
    3.4320   -1.5960    1.9210 C   0  0  0  0  0  0  0  0  0  0  0  0
    4.7290   -1.4080    1.4480 O   0  0  0  0  0  0  0  0  0  0  0  0
  2  1  1  1
  2  3  1  0
  2 20  1  0
  3  4  1  0
  4  5  1  0
  4 18  1  0
  5  6  1  0
  6  7  1  0
  7  8  1  1
  7  9  1  0
  9 10  1  6
  9 11  1  0
  9 12  1  0
 12 13  1  6
 12 14  1  0
 14 15  1  0
 15 16  1  0
 16 17  1  0
 18 19  1  0
 19 20  1  0
M  CHG  1  11   1
M  END
