
     RDKit          3D

 20 20  0  0  0  0  0  0  0  0999 V2000
    5.3800   -1.1130    0.4890 C   0  0  0  0  0  0  0  0  0  0  0  0
    4.7840    0.0020   -0.3820 C   0  0  2  0  0  0  0  0  0  0  0  0
    5.4820   -0.1160   -1.7300 C   0  0  0  0  0  0  0  0  0  0  0  0
    5.1110    1.2940    0.2830 C   0  0  0  0  0  0  0  0  0  0  0  0
    3.4680   -0.2750   -0.5490 O   0  0  0  0  0  0  0  0  0  0  0  0
    2.7510    0.6170   -1.3100 C   0  0  0  0  0  0  0  0  0  0  0  0
    1.3130    0.1390   -1.3790 C   0  0  0  0  0  0  0  0  0  0  0  0
    0.7270    0.0530   -0.1440 O   0  0  0  0  0  0  0  0  0  0  0  0
   -0.6110   -0.3930   -0.1890 C   0  0  1  0  0  0  0  0  0  0  0  0
   -0.6850   -1.6610    0.5510 C   0  0  0  0  0  0  0  0  0  0  0  0
    0.2350   -2.6140   -0.1020 N   0  0  0  0  0  0  0  0  0  0  0  0
   -1.4760    0.7300    0.2080 C   0  0  0  0  0  0  0  0  0  0  0  0
   -2.9400    0.5310    0.2510 C   0  0  2  0  0  0  0  0  0  0  0  0
   -3.4950    0.1410   -0.9630 O   0  0  0  0  0  0  0  0  0  0  0  0
   -3.6350    1.8970    0.5180 C   0  0  0  0  0  0  0  0  0  0  0  0
   -4.9840    1.8300    0.0230 N   0  0  0  0  0  0  0  0  0  0  0  0
   -5.7390    0.6970    0.4620 C   0  0  0  0  0  0  0  0  0  0  0  0
   -5.5090    0.3570    1.9030 C   0  0  0  0  0  0  0  0  0  0  0  0
   -4.2060    0.3330    2.3100 O   0  0  0  0  0  0  0  0  0  0  0  0
   -3.3320   -0.3210    1.4240 C   0  0  0  0  0  0  0  0  0  0  0  0
  2  1  1  1
  2  3  1  0
  2  4  1  0
  2  5  1  0
  5  6  1  0
  6  7  1  0
  7  8  1  0
  8  9  1  0
  9 10  1  1
  9 12  1  0
 10 11  1  0
 12 13  1  0
 13 14  1  6
 13 15  1  0
 13 20  1  0
 15 16  1  0
 16 17  1  0
 17 18  1  0
 18 19  1  0
 19 20  1  0
M  CHG  1  11   1
M  END
