
     RDKit          3D

 33 36  0  0  0  0  0  0  0  0999 V2000
   -0.1820    1.5800    0.2070 O   0  0  0  0  0  0  0  0  0  0  0  0
   -0.4850    0.3910    0.4570 C   0  0  0  0  0  0  0  0  0  0  0  0
    0.5680   -0.6170    0.2800 C   0  0  0  0  0  0  0  0  0  0  0  0
    1.7790   -0.2890   -0.1270 C   0  0  0  0  0  0  0  0  0  0  0  0
    2.8030   -1.2710   -0.2990 C   0  0  0  0  0  0  0  0  0  0  0  0
    4.1430   -1.0510   -0.5780 C   0  0  0  0  0  0  0  0  0  0  0  0
    4.9190    0.1610   -0.5710 C   0  0  0  0  0  0  0  0  0  0  0  0
    4.5480    1.3330    0.0240 C   0  0  0  0  0  0  0  0  0  0  0  0
    5.2950    2.5170   -0.0480 C   0  0  0  0  0  0  0  0  0  0  0  0
    6.4660    2.5340   -0.7430 C   0  0  0  0  0  0  0  0  0  0  0  0
    6.8750    1.3780   -1.3540 C   0  0  0  0  0  0  0  0  0  0  0  0
    6.1290    0.2170   -1.2770 C   0  0  0  0  0  0  0  0  0  0  0  0
    4.6800   -2.2860   -0.7600 N   0  0  0  0  0  0  0  0  0  0  0  0
    6.0060   -2.6220   -1.0550 O   0  0  0  0  0  0  0  0  0  0  0  0
    3.7790   -3.2150   -0.6100 N   0  0  0  0  0  0  0  0  0  0  0  0
    2.6030   -2.6330   -0.3230 C   0  0  0  0  0  0  0  0  0  0  0  0
    1.5280   -3.2670   -0.1190 O   0  0  0  0  0  0  0  0  0  0  0  0
   -1.7980    0.0930    0.8880 N   0  0  0  0  0  0  0  0  0  0  0  0
   -2.7300    1.1510    1.0940 C   0  0  0  0  0  0  0  0  0  0  0  0
   -3.5400    1.5440   -0.0670 C   0  0  0  0  0  0  0  0  0  0  0  0
   -3.4220    0.9530   -1.2980 C   0  0  0  0  0  0  0  0  0  0  0  0
   -4.2170    1.3700   -2.3710 C   0  0  0  0  0  0  0  0  0  0  0  0
   -5.1170    2.3540   -2.2470 N   0  0  0  0  0  0  0  0  0  0  0  0
   -5.2410    2.9450   -1.0350 C   0  0  0  0  0  0  0  0  0  0  0  0
   -6.1830    3.9610   -0.9380 O   0  0  0  0  0  0  0  0  0  0  0  0
   -4.4790    2.5590    0.0350 C   0  0  0  0  0  0  0  0  0  0  0  0
   -4.6160    3.1780    1.2830 O   0  0  0  0  0  0  0  0  0  0  0  0
   -2.1520   -1.2830    1.1340 C   0  0  0  0  0  0  0  0  0  0  0  0
   -2.5930   -1.7110    2.3460 C   0  0  0  0  0  0  0  0  0  0  0  0
   -2.9200   -3.0310    2.5320 C   0  0  0  0  0  0  0  0  0  0  0  0
   -2.8100   -3.9450    1.5080 C   0  0  0  0  0  0  0  0  0  0  0  0
   -2.3680   -3.5450    0.2720 C   0  0  0  0  0  0  0  0  0  0  0  0
   -2.0430   -2.1980    0.1110 C   0  0  0  0  0  0  0  0  0  0  0  0
  1  2  2  0
  2  3  1  0
  2 18  1  0
  3  4  2  3
  4  5  1  0
  5  6  2  0
  5 16  1  0
  6  7  1  0
  6 13  1  0
  7  8  2  0
  7 12  1  0
  8  9  1  0
  9 10  2  0
 10 11  1  0
 11 12  2  0
 13 14  1  0
 13 15  1  0
 15 16  1  0
 16 17  2  0
 18 19  1  0
 18 28  1  0
 19 20  1  0
 20 21  2  0
 20 26  1  0
 21 22  1  0
 22 23  2  0
 23 24  1  0
 24 25  1  0
 24 26  2  0
 26 27  1  0
 28 29  2  0
 28 33  1  0
 29 30  1  0
 30 31  2  0
 31 32  1  0
 32 33  2  0
M  CHG  2  14  -1  23   1
M  END
