
     RDKit          3D

 32 36  0  0  0  0  0  0  0  0999 V2000
    9.0350    2.7160    0.5930 C   0  0  0  0  0  0  0  0  0  0  0  0
    7.8610    1.9310    0.4650 O   0  0  0  0  0  0  0  0  0  0  0  0
    7.2800    1.2890    1.5500 C   0  0  0  0  0  0  0  0  0  0  0  0
    7.8010    1.3990    2.6850 O   0  0  0  0  0  0  0  0  0  0  0  0
    6.0430    0.4810    1.3300 C   0  0  2  0  0  0  0  0  0  0  0  0
    6.3570   -0.6060    0.3410 C   0  0  0  0  0  0  0  0  0  0  0  0
    6.1960   -0.1920   -1.0870 C   0  0  0  0  0  0  0  0  0  0  0  0
    4.9620    0.6020   -1.3680 C   0  0  0  0  0  0  0  0  0  0  0  0
    4.1730    0.9160   -0.2240 N   0  0  0  0  0  0  0  0  0  0  0  0
    3.1150    0.0090    0.0630 C   0  0  0  0  0  0  0  0  0  0  0  0
    1.9990    0.0140   -0.9450 C   0  0  0  0  0  0  0  0  0  0  0  0
    0.9580   -0.9830   -0.5250 C   0  0  1  0  0  0  0  0  0  0  0  0
    0.3490   -0.7100    0.8110 C   0  0  0  0  0  0  0  0  0  0  0  0
   -0.9400   -1.5330    0.7960 C   0  0  0  0  0  0  0  0  0  0  0  0
   -1.2390   -1.7410   -0.6510 C   0  0  1  0  0  0  0  0  0  0  0  0
   -2.6390   -1.6920   -1.0790 C   0  0  1  0  0  0  0  0  0  0  0  0
   -3.3690   -2.8650   -0.3800 C   0  0  0  0  0  0  0  0  0  0  0  0
   -4.6560   -3.1990   -1.0570 C   0  0  0  0  0  0  0  0  0  0  0  0
   -5.4300   -1.9660   -1.4670 C   0  0  0  0  0  0  0  0  0  0  0  0
   -4.8950   -0.7410   -0.7590 C   0  0  0  0  0  0  0  0  0  0  0  0
   -5.7940    0.1450   -0.3160 C   0  0  0  0  0  0  0  0  0  0  0  0
   -7.2380   -0.0460   -0.5160 C   0  0  0  0  0  0  0  0  0  0  0  0
   -5.3200    1.2570    0.5070 C   0  0  2  0  0  0  0  0  0  0  0  0
   -5.2140    0.6910    1.9530 C   0  0  0  0  0  0  0  0  0  0  0  0
   -6.0660    2.4840    0.6020 C   0  0  0  0  0  0  0  0  0  0  0  0
   -5.2590    3.5140    0.2940 C   0  0  0  0  0  0  0  0  0  0  0  0
   -3.9440    2.9730   -0.0260 C   0  0  0  0  0  0  0  0  0  0  0  0
   -3.9540    1.6680    0.0820 C   0  0  0  0  0  0  0  0  0  0  0  0
   -2.9790    0.6170   -0.2110 C   0  0  0  0  0  0  0  0  0  0  0  0
   -3.4490   -0.5090   -0.6990 C   0  0  0  0  0  0  0  0  0  0  0  0
   -0.2490   -0.9380   -1.4610 C   0  0  0  0  0  0  0  0  0  0  0  0
    4.9150    1.3780    0.9050 C   0  0  0  0  0  0  0  0  0  0  0  0
  1  2  1  0
  2  3  1  0
  3  4  2  0
  5  3  1  6
  5  6  1  0
  5 32  1  0
  6  7  1  0
  7  8  1  0
  8  9  1  0
  9 10  1  0
  9 32  1  0
 10 11  1  0
 12 11  1  6
 12 13  1  0
 12 31  1  0
 13 14  1  0
 15 14  1  1
 15 16  1  0
 15 31  1  0
 16 17  1  1
 16 30  1  0
 17 18  1  0
 18 19  1  0
 19 20  1  0
 20 21  2  0
 20 30  1  0
 21 22  1  0
 21 23  1  0
 23 24  1  1
 23 25  1  0
 23 28  1  0
 25 26  2  0
 26 27  1  0
 27 28  2  0
 28 29  1  0
 29 30  2  0
M  END
