
     RDKit          3D

 32 35  0  0  0  0  0  0  0  0999 V2000
   -3.2870    4.5920    1.1040 C   0  0  0  0  0  0  0  0  0  0  0  0
   -3.3630    3.1650    0.7000 C   0  0  0  0  0  0  0  0  0  0  0  0
   -4.5740    2.5510    0.4960 C   0  0  0  0  0  0  0  0  0  0  0  0
   -4.6350    1.2250    0.1210 C   0  0  0  0  0  0  0  0  0  0  0  0
   -3.5130    0.4710   -0.0620 C   0  0  0  0  0  0  0  0  0  0  0  0
   -3.5700   -0.8560   -0.4370 O   0  0  0  0  0  0  0  0  0  0  0  0
   -4.7740   -1.5110   -0.6530 C   0  0  0  0  0  0  0  0  0  0  0  0
   -5.4300   -2.1700    0.3660 C   0  0  0  0  0  0  0  0  0  0  0  0
   -6.6270   -2.8270    0.1720 C   0  0  0  0  0  0  0  0  0  0  0  0
   -7.2280   -2.8510   -1.0700 C   0  0  0  0  0  0  0  0  0  0  0  0
   -6.5860   -2.1980   -2.0990 C   0  0  0  0  0  0  0  0  0  0  0  0
   -5.3890   -1.5410   -1.9060 C   0  0  0  0  0  0  0  0  0  0  0  0
   -2.2650    1.0800    0.1420 C   0  0  0  0  0  0  0  0  0  0  0  0
   -1.1390    0.2750   -0.0550 N   0  0  0  0  0  0  0  0  0  0  0  0
    0.1960    0.6810    0.0940 C   0  0  0  0  0  0  0  0  0  0  0  0
    0.4820    1.8370    0.4270 O   0  0  0  0  0  0  0  0  0  0  0  0
    1.3310   -0.2570   -0.1400 C   0  0  0  0  0  0  0  0  0  0  0  0
    2.6280    0.0660   -0.0160 C   0  0  0  0  0  0  0  0  0  0  0  0
    3.0440    1.3760    0.3640 N   0  0  0  0  0  0  0  0  0  0  0  0
    3.4840   -1.0570   -0.3090 C   0  0  0  0  0  0  0  0  0  0  0  0
    4.7960   -1.2070   -0.3170 C   0  0  0  0  0  0  0  0  0  0  0  0
    5.7580   -0.2170   -0.0130 C   0  0  0  0  0  0  0  0  0  0  0  0
    5.5750    0.9770    0.3180 O   0  0  0  0  0  0  0  0  0  0  0  0
    7.2070   -0.5840   -0.0790 C   0  0  0  0  0  0  0  0  0  0  0  0
    8.2790    0.2320    0.1790 C   0  0  0  0  0  0  0  0  0  0  0  0
    9.4610   -0.4560    0.0160 C   0  0  0  0  0  0  0  0  0  0  0  0
    9.0730   -1.7270   -0.3520 C   0  0  0  0  0  0  0  0  0  0  0  0
    7.7180   -1.7840   -0.4040 N   0  0  0  0  0  0  0  0  0  0  0  0
    2.5870   -2.1190   -0.6320 O   0  0  0  0  0  0  0  0  0  0  0  0
    1.2910   -1.6460   -0.5320 C   0  0  0  0  0  0  0  0  0  0  0  0
    0.2290   -2.3220   -0.7500 O   0  0  0  0  0  0  0  0  0  0  0  0
   -2.2140    2.4030    0.5160 C   0  0  0  0  0  0  0  0  0  0  0  0
  1  2  1  0
  2  3  2  0
  2 32  1  0
  3  4  1  0
  4  5  2  0
  5  6  1  0
  5 13  1  0
  6  7  1  0
  7  8  2  0
  7 12  1  0
  8  9  1  0
  9 10  2  0
 10 11  1  0
 11 12  2  0
 13 14  1  0
 13 32  2  0
 14 15  1  0
 15 16  2  0
 15 17  1  0
 17 18  2  0
 17 30  1  0
 18 19  1  0
 18 20  1  0
 20 21  2  3
 20 29  1  0
 21 22  1  0
 22 23  2  0
 22 24  1  0
 24 25  2  0
 24 28  1  0
 25 26  1  0
 26 27  2  0
 27 28  1  0
 29 30  1  0
 30 31  2  0
M  END
