
     RDKit          3D

 32 36  0  0  0  0  0  0  0  0999 V2000
   -0.7170    4.7470   -2.5720 C   0  0  0  0  0  0  0  0  0  0  0  0
   -0.8640    3.5340   -1.6760 C   0  0  0  0  0  0  0  0  0  0  0  0
   -1.6680    2.5270   -1.8590 C   0  0  0  0  0  0  0  0  0  0  0  0
   -1.4500    1.5730   -0.7020 C   0  0  0  0  0  0  0  0  0  0  0  0
   -2.1630    0.4480   -0.5490 C   0  0  0  0  0  0  0  0  0  0  0  0
   -3.2250    0.1820   -1.6220 C   0  0  0  0  0  0  0  0  0  0  0  0
   -4.5560    0.2220   -0.8880 C   0  0  0  0  0  0  0  0  0  0  0  0
   -4.5350   -0.9260    0.0960 C   0  0  0  0  0  0  0  0  0  0  0  0
   -3.2220   -1.6420    0.0660 C   0  0  2  0  0  0  0  0  0  0  0  0
   -3.2830   -2.8090    0.9850 C   0  0  0  0  0  0  0  0  0  0  0  0
   -3.5190   -2.4490    2.4210 C   0  0  0  0  0  0  0  0  0  0  0  0
   -3.1170   -1.0960    2.7980 C   0  0  0  0  0  0  0  0  0  0  0  0
   -2.5270   -0.1700    1.8210 C   0  0  0  0  0  0  0  0  0  0  0  0
   -2.1340   -0.6190    0.4640 C   0  0  2  0  0  0  0  0  0  0  0  0
   -0.8810   -1.3490    0.5080 N   0  0  0  0  0  0  0  0  0  0  0  0
   -0.1340   -1.9050   -0.5220 C   0  0  0  0  0  0  0  0  0  0  0  0
    0.3340   -3.0870   -0.2830 O   0  0  0  0  0  0  0  0  0  0  0  0
    0.2140   -1.3690   -1.8460 C   0  0  0  0  0  0  0  0  0  0  0  0
    1.4780   -0.5910   -1.9410 C   0  0  0  0  0  0  0  0  0  0  0  0
    2.5960   -1.3480   -1.2910 C   0  0  0  0  0  0  0  0  0  0  0  0
    3.7170   -0.4040   -0.9330 C   0  0  2  0  0  0  0  0  0  0  0  0
    5.0340   -1.0310   -1.3370 C   0  0  0  0  0  0  0  0  0  0  0  0
    5.4510   -1.6930   -0.0290 C   0  0  0  0  0  0  0  0  0  0  0  0
    5.2160   -0.5300    0.9380 C   0  0  0  0  0  0  0  0  0  0  0  0
    3.7820   -0.1570    0.5410 C   0  0  1  0  0  0  0  0  0  0  0  0
    3.4700    1.2590    0.9210 C   0  0  0  0  0  0  0  0  0  0  0  0
    2.5300    1.3030    2.1040 C   0  0  0  0  0  0  0  0  0  0  0  0
    1.1600    0.7250    1.7240 C   0  0  0  0  0  0  0  0  0  0  0  0
    0.2180    1.7900    1.3620 C   0  0  0  0  0  0  0  0  0  0  0  0
   -0.0750    2.5450    2.3950 O   0  0  0  0  0  0  0  0  0  0  0  0
   -0.4330    2.1690    0.1350 C   0  0  0  0  0  0  0  0  0  0  0  0
   -0.1050    3.3520   -0.4800 C   0  0  0  0  0  0  0  0  0  0  0  0
  1  2  1  0
  2  3  2  0
  2 32  1  0
  3  4  1  0
  4  5  2  0
  4 31  1  0
  5  6  1  0
  5 14  1  0
  6  7  1  0
  7  8  1  0
  9  8  1  1
  9 10  1  0
  9 14  1  0
 10 11  1  0
 11 12  1  0
 12 13  1  0
 14 13  1  1
 14 15  1  0
 15 16  1  0
 16 17  2  0
 16 18  1  0
 18 19  1  0
 19 20  1  0
 21 20  1  1
 21 22  1  0
 21 25  1  0
 22 23  1  0
 23 24  1  0
 25 24  1  6
 25 26  1  0
 26 27  1  0
 27 28  1  0
 28 29  1  0
 29 30  2  0
 29 31  1  0
 31 32  2  0
M  END
