
     RDKit          3D

 33 36  0  0  0  0  0  0  0  0999 V2000
    1.6860    2.7830   -2.2950 C   0  0  0  0  0  0  0  0  0  0  0  0
    2.1130    1.8070   -1.3790 O   0  0  0  0  0  0  0  0  0  0  0  0
    1.2000    1.0770   -0.6140 C   0  0  0  0  0  0  0  0  0  0  0  0
   -0.1390    1.3050   -0.7490 C   0  0  0  0  0  0  0  0  0  0  0  0
   -1.0580    0.5660    0.0250 C   0  0  0  0  0  0  0  0  0  0  0  0
   -2.4250    0.8690   -0.1650 N   0  0  0  0  0  0  0  0  0  0  0  0
   -3.5270    0.1320    0.3200 C   0  0  0  0  0  0  0  0  0  0  0  0
   -3.3880   -0.9040    0.9800 O   0  0  0  0  0  0  0  0  0  0  0  0
   -4.8840    0.5430    0.0720 N   0  0  0  0  0  0  0  0  0  0  0  0
   -6.0160   -0.2100    0.5670 C   0  0  1  0  0  0  0  0  0  0  0  0
   -6.8880    0.6240    1.4820 C   0  0  0  0  0  0  0  0  0  0  0  0
   -8.1880   -0.1870    1.4950 C   0  0  0  0  0  0  0  0  0  0  0  0
   -8.3120   -0.5520    0.0650 C   0  0  0  0  0  0  0  0  0  0  0  0
   -9.1710   -0.8600   -0.8470 N   0  0  0  0  0  0  0  0  0  0  0  0
  -10.5550   -0.9590   -0.7160 O   0  0  0  0  0  0  0  0  0  0  0  0
   -8.5070   -1.1080   -2.1030 C   0  0  0  0  0  0  0  0  0  0  0  0
   -7.0810   -0.8950   -1.7920 C   0  0  0  0  0  0  0  0  0  0  0  0
   -6.9710   -0.5680   -0.5140 C   0  0  0  0  0  0  0  0  0  0  0  0
   -0.6190   -0.3730    0.9050 C   0  0  0  0  0  0  0  0  0  0  0  0
    0.7670   -0.5730    1.0100 C   0  0  0  0  0  0  0  0  0  0  0  0
    1.6940    0.1190    0.2810 C   0  0  0  0  0  0  0  0  0  0  0  0
    3.1460   -0.0800    0.3800 C   0  0  0  0  0  0  0  0  0  0  0  0
    3.6510   -0.9520    1.1920 C   0  0  0  0  0  0  0  0  0  0  0  0
    5.1050   -1.1740    1.3130 C   0  0  0  0  0  0  0  0  0  0  0  0
    5.5190   -2.0550    2.1380 O   0  0  0  0  0  0  0  0  0  0  0  0
    6.0400   -0.4550    0.5570 N   0  0  0  0  0  0  0  0  0  0  0  0
    7.4460   -0.6080    0.6150 C   0  0  0  0  0  0  0  0  0  0  0  0
    8.0930   -1.4940    1.4290 C   0  0  0  0  0  0  0  0  0  0  0  0
    9.4980   -1.6130    1.4540 C   0  0  0  0  0  0  0  0  0  0  0  0
   10.2800   -0.8270    0.6430 C   0  0  0  0  0  0  0  0  0  0  0  0
    9.6190    0.0670   -0.1770 C   0  0  0  0  0  0  0  0  0  0  0  0
    8.2640    0.1900   -0.2090 C   0  0  0  0  0  0  0  0  0  0  0  0
    7.6330    1.0940   -1.0410 O   0  0  0  0  0  0  0  0  0  0  0  0
  1  2  1  0
  2  3  1  0
  3  4  2  0
  3 21  1  0
  4  5  1  0
  5  6  1  0
  5 19  2  0
  6  7  1  0
  7  8  2  0
  7  9  1  0
 10  9  1  6
 10 11  1  0
 10 18  1  0
 11 12  1  0
 12 13  1  0
 13 14  2  0
 13 18  1  0
 14 15  1  0
 14 16  1  0
 16 17  1  0
 17 18  2  0
 19 20  1  0
 20 21  2  0
 21 22  1  0
 22 23  2  3
 23 24  1  0
 24 25  2  0
 24 26  1  0
 26 27  1  0
 27 28  2  0
 27 32  1  0
 28 29  1  0
 29 30  2  0
 30 31  1  0
 31 32  2  0
 32 33  1  0
M  CHG  2  14   1  15  -1
M  END
