
     RDKit          3D

 32 33  0  0  0  0  0  0  0  0999 V2000
   -5.4940    3.1950   -0.9940 C   0  0  0  0  0  0  0  0  0  0  0  0
   -4.1180    2.6460   -0.7080 C   0  0  0  0  0  0  0  0  0  0  0  0
   -3.2740    3.3650   -0.1600 O   0  0  0  0  0  0  0  0  0  0  0  0
   -3.7740    1.3180   -1.0570 N   0  0  0  0  0  0  0  0  0  0  0  0
   -2.4880    0.7860   -0.7920 C   0  0  2  0  0  0  0  0  0  0  0  0
   -1.6360    0.6990   -2.0870 C   0  0  1  0  0  0  0  0  0  0  0  0
   -1.6860    1.8790   -2.7840 O   0  0  0  0  0  0  0  0  0  0  0  0
   -0.2320    0.4480   -1.5710 C   0  0  0  0  0  0  0  0  0  0  0  0
   -0.1160   -0.6460   -0.5910 C   0  0  2  0  0  0  0  0  0  0  0  0
    0.9950   -0.3940    0.2080 O   0  0  0  0  0  0  0  0  0  0  0  0
    2.1620   -0.1840   -0.4730 C   0  0  0  0  0  0  0  0  0  0  0  0
    3.3400    0.0690    0.4440 C   0  0  1  0  0  0  0  0  0  0  0  0
    3.5990   -0.9670    1.3030 O   0  0  0  0  0  0  0  0  0  0  0  0
    4.9120   -1.0300    1.7290 C   0  0  1  0  0  0  0  0  0  0  0  0
    5.0150   -2.0840    2.6360 O   0  0  0  0  0  0  0  0  0  0  0  0
    5.8710   -1.3200    0.5930 C   0  0  2  0  0  0  0  0  0  0  0  0
    7.0830   -0.7000    0.8940 O   0  0  0  0  0  0  0  0  0  0  0  0
    5.3630   -0.7280   -0.7080 C   0  0  1  0  0  0  0  0  0  0  0  0
    4.6280   -1.7150   -1.3440 O   0  0  0  0  0  0  0  0  0  0  0  0
    4.5520    0.4890   -0.3570 C   0  0  1  0  0  0  0  0  0  0  0  0
    4.1650    1.2200   -1.4770 O   0  0  0  0  0  0  0  0  0  0  0  0
    0.0550   -2.0080   -1.1870 C   0  0  0  0  0  0  0  0  0  0  0  0
   -0.7400   -2.4590   -2.0560 O   0  0  0  0  0  0  0  0  0  0  0  0
    1.1160   -2.7820   -0.7580 O   0  0  0  0  0  0  0  0  0  0  0  0
   -1.1760   -0.7970    0.3040 O   0  0  0  0  0  0  0  0  0  0  0  0
   -2.4280   -0.5750   -0.2320 C   0  0  1  0  0  0  0  0  0  0  0  0
   -3.5180   -0.9940    0.7010 C   0  0  2  0  0  0  0  0  0  0  0  0
   -4.7910   -0.7690    0.2600 O   0  0  0  0  0  0  0  0  0  0  0  0
   -3.3690   -0.5330    2.1230 C   0  0  2  0  0  0  0  0  0  0  0  0
   -4.3090   -1.3080    2.8580 O   0  0  0  0  0  0  0  0  0  0  0  0
   -3.7790    0.8960    2.3570 C   0  0  0  0  0  0  0  0  0  0  0  0
   -3.7270    1.1340    3.7530 O   0  0  0  0  0  0  0  0  0  0  0  0
  1  2  1  0
  2  3  2  0
  2  4  1  0
  5  4  1  6
  5  6  1  0
  5 26  1  0
  6  7  1  1
  6  8  1  0
  8  9  1  0
  9 10  1  1
  9 22  1  0
  9 25  1  0
 10 11  1  0
 12 11  1  6
 12 13  1  0
 12 20  1  0
 13 14  1  0
 14 15  1  1
 14 16  1  0
 16 17  1  1
 16 18  1  0
 18 19  1  1
 18 20  1  0
 20 21  1  6
 22 23  2  0
 22 24  1  0
 26 25  1  1
 26 27  1  0
 27 28  1  6
 27 29  1  0
 29 30  1  1
 29 31  1  0
 31 32  1  0
M  END
