
     RDKit          3D

 32 35  0  0  0  0  0  0  0  0999 V2000
    1.0950    3.9660   -0.6820 O   0  0  0  0  0  0  0  0  0  0  0  0
    0.4820    2.8940   -0.4400 C   0  0  0  0  0  0  0  0  0  0  0  0
    1.1880    1.7750   -0.6450 N   0  0  0  0  0  0  0  0  0  0  0  0
    0.6980    0.5090   -0.4370 C   0  0  0  0  0  0  0  0  0  0  0  0
    1.6320   -0.5870   -0.6560 C   0  0  0  0  0  0  0  0  0  0  0  0
    1.2990   -1.8660   -0.9950 C   0  0  0  0  0  0  0  0  0  0  0  0
    2.2520   -2.8970   -1.1050 C   0  0  0  0  0  0  0  0  0  0  0  0
    3.5860   -2.6600   -0.8750 C   0  0  0  0  0  0  0  0  0  0  0  0
    4.5050   -3.7010   -0.9940 O   0  0  0  0  0  0  0  0  0  0  0  0
    3.9440   -1.3860   -0.5360 C   0  0  0  0  0  0  0  0  0  0  0  0
    5.3630   -1.0600   -0.2680 C   0  0  0  0  0  0  0  0  0  0  0  0
    5.7460   -1.5370    1.0910 C   0  0  0  0  0  0  0  0  0  0  0  0
    5.5970   -2.8950    1.2280 O   0  0  0  0  0  0  0  0  0  0  0  0
    3.0030   -0.3840   -0.4290 C   0  0  0  0  0  0  0  0  0  0  0  0
   -0.5770    0.4460    0.0010 C   0  0  0  0  0  0  0  0  0  0  0  0
   -1.2050   -0.7760    0.3250 N   0  0  0  0  0  0  0  0  0  0  0  0
   -2.2260   -1.0600   -0.6540 C   0  0  0  0  0  0  0  0  0  0  0  0
   -3.1400   -2.1450   -0.1910 C   0  0  0  0  0  0  0  0  0  0  0  0
   -2.9820   -2.7750    1.0220 C   0  0  0  0  0  0  0  0  0  0  0  0
   -3.8550   -3.7640    1.3920 C   0  0  0  0  0  0  0  0  0  0  0  0
   -4.8590   -4.1180    0.5810 N   0  0  0  0  0  0  0  0  0  0  0  0
   -5.0420   -3.5260   -0.6040 C   0  0  0  0  0  0  0  0  0  0  0  0
   -6.1070   -3.9210   -1.4320 O   0  0  0  0  0  0  0  0  0  0  0  0
   -4.1840   -2.5320   -1.0050 C   0  0  0  0  0  0  0  0  0  0  0  0
   -1.3290    1.5890    0.2190 C   0  0  0  0  0  0  0  0  0  0  0  0
   -0.8070    2.8660   -0.0000 C   0  0  0  0  0  0  0  0  0  0  0  0
   -1.6000    4.0420    0.2290 C   0  0  0  0  0  0  0  0  0  0  0  0
   -1.2060    5.3230    0.0650 C   0  0  0  0  0  0  0  0  0  0  0  0
   -2.0540    6.4160    0.3160 C   0  0  0  0  0  0  0  0  0  0  0  0
   -3.3170    6.1510    0.7410 C   0  0  0  0  0  0  0  0  0  0  0  0
   -3.7370    4.8350    0.9150 C   0  0  0  0  0  0  0  0  0  0  0  0
   -2.8810    3.8600    0.6580 N   0  0  0  0  0  0  0  0  0  0  0  0
  1  2  2  0
  2  3  1  0
  2 26  1  0
  3  4  1  0
  4  5  1  0
  4 15  2  0
  5  6  2  0
  5 14  1  0
  6  7  1  0
  7  8  2  0
  8  9  1  0
  8 10  1  0
 10 11  1  0
 10 14  2  0
 11 12  1  0
 12 13  1  0
 15 16  1  0
 15 25  1  0
 16 17  1  0
 17 18  1  0
 18 19  2  0
 18 24  1  0
 19 20  1  0
 20 21  2  0
 21 22  1  0
 22 23  1  0
 22 24  2  0
 25 26  2  0
 26 27  1  0
 27 28  2  0
 27 32  1  0
 28 29  1  0
 29 30  2  0
 30 31  1  0
 31 32  2  0
M  CHG  2  16   1  23  -1
M  END
