
     RDKit          3D

 32 35  0  0  0  0  0  0  0  0999 V2000
   -5.5490    1.9620   -1.2360 C   0  0  0  0  0  0  0  0  0  0  0  0
   -4.3440    1.4400   -0.5370 C   0  0  0  0  0  0  0  0  0  0  0  0
   -3.2790    2.3450   -0.3280 C   0  0  0  0  0  0  0  0  0  0  0  0
   -2.1890    1.9420    0.3830 C   0  0  0  0  0  0  0  0  0  0  0  0
   -1.1050    2.7630    0.6330 C   0  0  0  0  0  0  0  0  0  0  0  0
   -0.0250    2.3130    1.3580 C   0  0  0  0  0  0  0  0  0  0  0  0
    1.0550    3.1640    1.5950 O   0  0  0  0  0  0  0  0  0  0  0  0
    0.0060    1.0280    1.8550 C   0  0  0  0  0  0  0  0  0  0  0  0
    1.1460    0.6070    2.5990 N   0  0  0  0  0  0  0  0  0  0  0  0
    2.2590    0.3720    1.9820 C   0  0  0  0  0  0  0  0  0  0  0  0
    2.3570    0.5240    0.6150 C   0  0  0  0  0  0  0  0  0  0  0  0
    3.5510    0.2760   -0.0770 C   0  0  0  0  0  0  0  0  0  0  0  0
    4.6700   -0.1330    0.6130 C   0  0  0  0  0  0  0  0  0  0  0  0
    5.9560   -0.4130   -0.0300 C   0  0  0  0  0  0  0  0  0  0  0  0
    6.9600   -0.7850    0.6300 O   0  0  0  0  0  0  0  0  0  0  0  0
    6.1280   -0.2780   -1.4310 N   0  0  0  0  0  0  0  0  0  0  0  0
    7.4210   -0.5650   -2.0450 C   0  0  0  0  0  0  0  0  0  0  0  0
    7.8370   -1.9590   -1.8140 C   0  0  0  0  0  0  0  0  0  0  0  0
    7.0130   -2.8360   -1.0760 N   0  0  0  0  0  0  0  0  0  0  0  0
    8.9280   -2.3430   -2.2820 O   0  0  0  0  0  0  0  0  0  0  0  0
    4.5260   -0.2720    1.9830 C   0  0  0  0  0  0  0  0  0  0  0  0
    3.3690   -0.0280    2.6280 N   0  0  0  0  0  0  0  0  0  0  0  0
   -1.0490    0.1840    1.6280 C   0  0  0  0  0  0  0  0  0  0  0  0
   -2.1290    0.6680    0.8900 C   0  0  0  0  0  0  0  0  0  0  0  0
   -3.1840   -0.2050    0.6730 C   0  0  0  0  0  0  0  0  0  0  0  0
   -4.3170    0.1780   -0.0540 C   0  0  0  0  0  0  0  0  0  0  0  0
   -5.2890   -0.8960   -0.3150 C   0  0  0  0  0  0  0  0  0  0  0  0
   -6.0810   -0.9700   -1.3270 C   0  0  0  0  0  0  0  0  0  0  0  0
   -7.0480   -2.0560   -1.5550 C   0  0  0  0  0  0  0  0  0  0  0  0
   -7.0620   -2.9680   -0.5150 O   0  0  0  0  0  0  0  0  0  0  0  0
   -6.2530   -2.9540    0.5880 C   0  0  0  0  0  0  0  0  0  0  0  0
   -5.3890   -1.9720    0.7140 C   0  0  0  0  0  0  0  0  0  0  0  0
  1  2  1  0
  2  3  2  0
  2 26  1  0
  3  4  1  0
  4  5  2  0
  4 24  1  0
  5  6  1  0
  6  7  1  0
  6  8  2  0
  8  9  1  0
  8 23  1  0
  9 10  2  3
 10 11  1  0
 10 22  1  0
 11 12  2  0
 12 13  1  0
 13 14  1  0
 13 21  2  0
 14 15  2  0
 14 16  1  0
 16 17  1  0
 17 18  1  0
 18 19  1  0
 18 20  2  0
 21 22  1  0
 23 24  2  0
 24 25  1  0
 25 26  2  0
 26 27  1  0
 27 28  2  0
 27 32  1  0
 28 29  1  0
 29 30  1  0
 30 31  1  0
 31 32  2  0
M  END
