
     RDKit          3D

 32 34  0  0  0  0  0  0  0  0999 V2000
    4.3490    3.7260   -4.8180 C   0  0  0  0  0  0  0  0  0  0  0  0
    3.6370    2.8500   -3.8420 C   0  0  0  0  0  0  0  0  0  0  0  0
    4.4830    1.7490   -3.3780 N   0  0  0  0  0  0  0  0  0  0  0  0
    3.9740    0.7980   -2.4360 C   0  0  0  0  0  0  0  0  0  0  0  0
    2.8000    0.9820   -2.0640 O   0  0  0  0  0  0  0  0  0  0  0  0
    4.7310   -0.2810   -1.9480 N   0  0  0  0  0  0  0  0  0  0  0  0
    4.3420   -1.2690   -1.0320 C   0  0  0  0  0  0  0  0  0  0  0  0
    3.1130   -1.3210   -0.4650 C   0  0  0  0  0  0  0  0  0  0  0  0
    2.7280   -2.3060    0.4440 C   0  0  0  0  0  0  0  0  0  0  0  0
    1.3850   -2.3090    1.0240 C   0  0  0  0  0  0  0  0  0  0  0  0
    0.3630   -1.4180    0.7950 C   0  0  0  0  0  0  0  0  0  0  0  0
   -0.7350   -1.7800    1.5380 C   0  0  0  0  0  0  0  0  0  0  0  0
   -2.0400   -1.1440    1.6200 C   0  0  0  0  0  0  0  0  0  0  0  0
   -3.0370   -1.6470    2.4160 C   0  0  0  0  0  0  0  0  0  0  0  0
   -4.2900   -1.0340    2.4940 C   0  0  0  0  0  0  0  0  0  0  0  0
   -4.5190    0.0970    1.7560 C   0  0  0  0  0  0  0  0  0  0  0  0
   -5.6800    0.7590    1.7690 O   0  0  0  0  0  0  0  0  0  0  0  0
   -6.8450    0.6560    2.4250 C   0  0  0  0  0  0  0  0  0  0  0  0
   -6.8220    0.9410    3.8870 C   0  0  1  0  0  0  0  0  0  0  0  0
   -6.0140    0.1460    4.6080 F   0  0  0  0  0  0  0  0  0  0  0  0
   -6.3850    2.2670    4.0670 F   0  0  0  0  0  0  0  0  0  0  0  0
   -8.1120    0.9150    4.4230 F   0  0  0  0  0  0  0  0  0  0  0  0
   -3.5110    0.6330    0.9300 C   0  0  0  0  0  0  0  0  0  0  0  0
   -3.7800    1.7830    0.1930 O   0  0  0  0  0  0  0  0  0  0  0  0
   -2.7850    2.3340   -0.6370 C   0  0  0  0  0  0  0  0  0  0  0  0
   -2.3020   -0.0060    0.8880 C   0  0  0  0  0  0  0  0  0  0  0  0
   -0.3600   -2.8940    2.2120 N   0  0  0  0  0  0  0  0  0  0  0  0
    0.8980   -3.2000    1.9010 N   0  0  0  0  0  0  0  0  0  0  0  0
    3.6460   -3.2650    0.7740 C   0  0  0  0  0  0  0  0  0  0  0  0
    4.9090   -3.2550    0.2230 C   0  0  0  0  0  0  0  0  0  0  0  0
    5.2470   -2.2480   -0.6820 C   0  0  0  0  0  0  0  0  0  0  0  0
    6.8500   -2.2170   -1.3940 Cl  0  0  0  0  0  0  0  0  0  0  0  0
  1  2  1  0
  2  3  1  0
  3  4  1  0
  4  5  2  0
  4  6  1  0
  6  7  1  0
  7  8  2  0
  7 31  1  0
  8  9  1  0
  9 10  1  0
  9 29  2  0
 10 11  1  0
 10 28  2  0
 11 12  2  0
 12 13  1  0
 12 27  1  0
 13 14  2  0
 13 26  1  0
 14 15  1  0
 15 16  2  0
 16 17  1  0
 16 23  1  0
 17 18  1  0
 18 19  1  0
 19 20  1  1
 19 21  1  0
 19 22  1  0
 23 24  1  0
 23 26  2  0
 24 25  1  0
 27 28  1  0
 29 30  1  0
 30 31  2  0
 31 32  1  0
M  END
