
     RDKit          3D

 32 34  0  0  0  0  0  0  0  0999 V2000
   -4.7490    2.6780   -0.5550 C   0  0  0  0  0  0  0  0  0  0  0  0
   -3.5990    2.7540    0.4460 C   0  0  0  0  0  0  0  0  0  0  0  0
   -3.5810    1.5520    1.3510 C   0  0  0  0  0  0  0  0  0  0  0  0
   -3.4090    0.2660    0.6650 C   0  0  0  0  0  0  0  0  0  0  0  0
   -4.5460   -0.5030    0.3680 C   0  0  0  0  0  0  0  0  0  0  0  0
   -4.4750   -1.6980   -0.3090 C   0  0  0  0  0  0  0  0  0  0  0  0
   -5.7220   -2.4880   -0.6150 C   0  0  1  0  0  0  0  0  0  0  0  0
   -6.7980   -1.7500   -0.0980 F   0  0  0  0  0  0  0  0  0  0  0  0
   -5.9150   -2.5560   -1.9820 F   0  0  0  0  0  0  0  0  0  0  0  0
   -5.7100   -3.7360   -0.0600 F   0  0  0  0  0  0  0  0  0  0  0  0
   -3.2360   -2.1460   -0.7020 C   0  0  0  0  0  0  0  0  0  0  0  0
   -3.0670   -3.4330   -1.4310 C   0  0  0  0  0  0  0  0  0  0  0  0
   -3.1660   -4.7520   -0.2500 Cl  0  0  0  0  0  0  0  0  0  0  0  0
   -2.1070   -1.3740   -0.4010 C   0  0  0  0  0  0  0  0  0  0  0  0
   -2.1760   -0.1730    0.2780 C   0  0  0  0  0  0  0  0  0  0  0  0
   -0.9480    0.5680    0.5840 C   0  0  0  0  0  0  0  0  0  0  0  0
   -0.7480    1.7000    1.2600 N   0  0  0  0  0  0  0  0  0  0  0  0
    0.5300    2.0290    1.3060 N   0  0  0  0  0  0  0  0  0  0  0  0
    1.2270    1.0690    0.6260 C   0  0  0  0  0  0  0  0  0  0  0  0
    2.6470    1.1090    0.4810 N   0  0  0  0  0  0  0  0  0  0  0  0
    3.3870    0.1300   -0.2160 C   0  0  0  0  0  0  0  0  0  0  0  0
    2.7760   -0.8210   -1.0230 C   0  0  0  0  0  0  0  0  0  0  0  0
    3.4580   -1.7620   -1.7570 C   0  0  0  0  0  0  0  0  0  0  0  0
    4.8220   -1.7640   -1.6920 C   0  0  0  0  0  0  0  0  0  0  0  0
    5.5820   -2.7030   -2.4210 O   0  0  0  0  0  0  0  0  0  0  0  0
    5.4990   -0.8590   -0.9180 C   0  0  0  0  0  0  0  0  0  0  0  0
    4.7680    0.0860   -0.1820 C   0  0  0  0  0  0  0  0  0  0  0  0
    5.5560    0.9770    0.6410 C   0  0  0  0  0  0  0  0  0  0  0  0
    5.0870    1.8560    1.3970 O   0  0  0  0  0  0  0  0  0  0  0  0
    6.9720    0.8630    0.6020 O   0  0  0  0  0  0  0  0  0  0  0  0
    7.7580    1.7370    1.4110 C   0  0  0  0  0  0  0  0  0  0  0  0
    0.3030    0.2090    0.2070 N   0  0  0  0  0  0  0  0  0  0  0  0
  1  2  1  0
  2  3  1  0
  3  4  1  0
  4  5  2  0
  4 15  1  0
  5  6  1  0
  6  7  1  0
  6 11  2  0
  7  8  1  1
  7  9  1  0
  7 10  1  0
 11 12  1  0
 11 14  1  0
 12 13  1  0
 14 15  2  0
 15 16  1  0
 16 17  2  0
 16 32  1  0
 17 18  1  0
 18 19  1  0
 19 20  1  0
 19 32  2  0
 20 21  1  0
 21 22  2  0
 21 27  1  0
 22 23  1  0
 23 24  2  0
 24 25  1  0
 24 26  1  0
 26 27  2  0
 27 28  1  0
 28 29  2  0
 28 30  1  0
 30 31  1  0
M  END
