
     RDKit          3D

 33 36  0  0  0  0  0  0  0  0999 V2000
   -3.8930    2.4360    3.2450 C   0  0  0  0  0  0  0  0  0  0  0  0
   -3.0940    1.1650    3.3240 C   0  0  0  0  0  0  0  0  0  0  0  0
   -1.8960    1.2080    2.4250 C   0  0  0  0  0  0  0  0  0  0  0  0
   -1.7150    0.3390    1.4490 C   0  0  0  0  0  0  0  0  0  0  0  0
   -2.6650   -0.6640    1.2310 N   0  0  0  0  0  0  0  0  0  0  0  0
   -3.9600   -0.7230    0.0550 S   0  0  0  0  0  0  0  0  0  0  0  0
   -3.7800   -1.5810   -1.3610 C   0  0  0  0  0  0  0  0  0  0  0  0
   -2.5210   -2.2740   -1.5880 C   0  0  0  0  0  0  0  0  0  0  0  0
   -2.5060   -2.9890   -2.8680 C   0  0  0  0  0  0  0  0  0  0  0  0
   -3.5390   -2.9690   -3.6790 C   0  0  0  0  0  0  0  0  0  0  0  0
   -4.7610   -2.2820   -3.4370 N   0  0  0  0  0  0  0  0  0  0  0  0
   -4.8600   -1.6270   -2.3320 C   0  0  0  0  0  0  0  0  0  0  0  0
   -6.1130   -0.8690   -1.9840 C   0  0  0  0  0  0  0  0  0  0  0  0
   -5.7640    0.5100   -1.4470 C   0  0  0  0  0  0  0  0  0  0  0  0
   -5.3840    0.4180    0.0350 C   0  0  0  0  0  0  0  0  0  0  0  0
   -0.5190    0.4030    0.5750 C   0  0  0  0  0  0  0  0  0  0  0  0
    0.6820    0.8610    1.3420 C   0  0  0  0  0  0  0  0  0  0  0  0
    1.8390    0.5620    0.9170 N   0  0  0  0  0  0  0  0  0  0  0  0
    2.0840   -0.1770   -0.2370 N   0  0  0  0  0  0  0  0  0  0  0  0
    3.2340   -0.2410   -0.8020 C   0  0  0  0  0  0  0  0  0  0  0  0
    3.3070   -1.0590   -1.9970 C   0  0  0  0  0  0  0  0  0  0  0  0
    2.2140   -1.6210   -2.3710 O   0  0  0  0  0  0  0  0  0  0  0  0
    4.3930   -1.3340   -2.8150 O   0  0  0  0  0  0  0  0  0  0  0  0
    5.7500   -1.5020   -2.4630 C   0  0  2  0  0  0  0  0  0  0  0  0
    6.2500   -2.8790   -2.8080 C   0  0  0  0  0  0  0  0  0  0  0  0
    5.9230   -1.1780   -1.0020 C   0  0  0  0  0  0  0  0  0  0  0  0
    5.6760    0.2540   -0.6830 C   0  0  0  0  0  0  0  0  0  0  0  0
    4.2970    0.5260   -0.1480 C   0  0  2  0  0  0  0  0  0  0  0  0
    4.3090    0.3350    1.3360 C   0  0  0  0  0  0  0  0  0  0  0  0
    4.0000    2.0140   -0.3990 C   0  0  0  0  0  0  0  0  0  0  0  0
    0.4270    1.6130    2.5150 N   0  0  0  0  0  0  0  0  0  0  0  0
   -0.8620    2.2660    2.6320 C   0  0  2  0  0  0  0  0  0  0  0  0
   -0.9440    2.8930    3.9900 C   0  0  0  0  0  0  0  0  0  0  0  0
  1  2  1  0
  2  3  1  0
  3  4  2  0
  3 32  1  0
  4  5  1  0
  4 16  1  0
  6  5  1  6
  6  7  2  0
  6 15  1  0
  7  8  1  0
  7 12  1  0
  8  9  1  0
  9 10  2  0
 10 11  1  0
 11 12  2  0
 12 13  1  0
 13 14  1  0
 14 15  1  0
 16 17  1  0
 17 18  2  3
 17 31  1  0
 18 19  1  0
 19 20  2  3
 20 21  1  0
 20 28  1  0
 21 22  2  0
 21 23  1  0
 23 24  1  0
 24 25  1  1
 24 26  1  0
 26 27  1  0
 27 28  1  0
 28 29  1  1
 28 30  1  0
 31 32  1  0
 32 33  1  1
M  END
