
     RDKit          3D

 32 34  0  0  0  0  0  0  0  0999 V2000
   -3.6470   -5.1230    1.3550 C   0  0  0  0  0  0  0  0  0  0  0  0
   -2.4520   -4.3530    0.9930 C   0  0  0  0  0  0  0  0  0  0  0  0
   -1.2870   -5.0630    0.6900 C   0  0  0  0  0  0  0  0  0  0  0  0
   -0.1370   -4.4110    0.3450 C   0  0  0  0  0  0  0  0  0  0  0  0
   -0.1390   -3.0280    0.2980 C   0  0  0  0  0  0  0  0  0  0  0  0
    1.0500   -2.2700   -0.0610 C   0  0  0  0  0  0  0  0  0  0  0  0
    2.2740   -2.7290   -0.3880 N   0  0  0  0  0  0  0  0  0  0  0  0
    3.0690   -1.7050   -0.6470 N   0  0  0  0  0  0  0  0  0  0  0  0
    2.3450   -0.5830   -0.4830 C   0  0  0  0  0  0  0  0  0  0  0  0
    2.8150    0.7810   -0.6630 N   0  0  0  0  0  0  0  0  0  0  0  0
    4.1540    0.9820   -1.0440 C   0  0  0  0  0  0  0  0  0  0  0  0
    4.8850   -0.0460   -1.2110 O   0  0  0  0  0  0  0  0  0  0  0  0
    4.7410    2.2800   -1.2550 C   0  0  0  0  0  0  0  0  0  0  0  0
    6.0940    2.3330   -1.6330 C   0  0  0  0  0  0  0  0  0  0  0  0
    6.7280    3.5290   -1.8530 C   0  0  0  0  0  0  0  0  0  0  0  0
    8.4140    3.4680   -2.3200 Cl  0  0  0  0  0  0  0  0  0  0  0  0
    6.0570    4.7260   -1.7090 C   0  0  0  0  0  0  0  0  0  0  0  0
    4.7310    4.7220   -1.3400 C   0  0  0  0  0  0  0  0  0  0  0  0
    4.0130    6.0110   -1.1830 C   0  0  2  0  0  0  0  0  0  0  0  0
    2.9410    6.0530   -2.0500 F   0  0  0  0  0  0  0  0  0  0  0  0
    4.8550    7.0830   -1.4270 F   0  0  0  0  0  0  0  0  0  0  0  0
    3.5580    6.0970    0.1120 F   0  0  0  0  0  0  0  0  0  0  0  0
    4.1120    3.4960   -1.1230 C   0  0  0  0  0  0  0  0  0  0  0  0
    2.7840    3.5140   -0.7540 O   0  0  0  0  0  0  0  0  0  0  0  0
    1.1440   -0.9720   -0.1330 O   0  0  0  0  0  0  0  0  0  0  0  0
   -1.2960   -2.3460    0.6000 C   0  0  0  0  0  0  0  0  0  0  0  0
   -2.4820   -2.9710    0.9550 C   0  0  0  0  0  0  0  0  0  0  0  0
   -3.6570   -2.2390    1.2600 N   0  0  0  0  0  0  0  0  0  0  0  0
   -3.6880   -0.8140    1.2200 C   0  0  0  0  0  0  0  0  0  0  0  0
   -5.0160   -0.2240    1.5730 C   0  0  1  0  0  0  0  0  0  0  0  0
   -4.8820    1.2990    1.4820 C   0  0  0  0  0  0  0  0  0  0  0  0
   -6.1130   -0.6260    0.6260 C   0  0  0  0  0  0  0  0  0  0  0  0
  1  2  1  0
  2  3  2  0
  2 27  1  0
  3  4  1  0
  4  5  2  0
  5  6  1  0
  5 26  1  0
  6  7  2  0
  6 25  1  0
  7  8  1  0
  8  9  2  0
  9 10  1  0
  9 25  1  0
 10 11  1  0
 11 12  2  0
 11 13  1  0
 13 14  2  0
 13 23  1  0
 14 15  1  0
 15 16  1  0
 15 17  2  0
 17 18  1  0
 18 19  1  0
 18 23  2  0
 19 20  1  6
 19 21  1  0
 19 22  1  0
 23 24  1  0
 26 27  2  0
 27 28  1  0
 28 29  1  0
 29 30  1  0
 30 31  1  6
 30 32  1  0
M  END
