
     RDKit          3D

 33 37  0  0  0  0  0  0  0  0999 V2000
   -5.8880   -3.3900   -1.8000 C   0  0  0  0  0  0  0  0  0  0  0  0
   -6.2410   -3.2850   -0.4250 O   0  0  0  0  0  0  0  0  0  0  0  0
   -5.3790   -2.6050    0.4290 C   0  0  0  0  0  0  0  0  0  0  0  0
   -5.7170   -2.5010    1.7490 C   0  0  0  0  0  0  0  0  0  0  0  0
   -4.9240   -1.8430    2.6760 C   0  0  0  0  0  0  0  0  0  0  0  0
   -3.7460   -1.2800    2.2090 C   0  0  0  0  0  0  0  0  0  0  0  0
   -3.4170   -1.3920    0.8760 C   0  0  0  0  0  0  0  0  0  0  0  0
   -2.1770   -0.7870    0.4520 N   0  0  0  0  0  0  0  0  0  0  0  0
   -1.7110   -0.8680   -0.9110 C   0  0  0  0  0  0  0  0  0  0  0  0
   -0.4950   -0.0020   -0.9960 C   0  0  1  0  0  0  0  0  0  0  0  0
   -0.6340    0.8740   -2.1800 C   0  0  0  0  0  0  0  0  0  0  0  0
   -0.9320    0.3770   -3.3220 O   0  0  0  0  0  0  0  0  0  0  0  0
   -0.4470    2.2620   -2.0950 N   0  0  0  0  0  0  0  0  0  0  0  0
   -0.0370    2.9700   -3.2960 C   0  0  0  0  0  0  0  0  0  0  0  0
   -0.6410    2.8910   -0.9730 C   0  0  0  0  0  0  0  0  0  0  0  0
   -0.4460    4.2820   -0.9210 N   0  0  0  0  0  0  0  0  0  0  0  0
   -1.0470    2.1200    0.1530 N   0  0  0  0  0  0  0  0  0  0  0  0
   -0.4620    0.7890    0.2460 C   0  0  2  0  0  0  0  0  0  0  0  0
    0.9230    0.8810    0.8030 C   0  0  0  0  0  0  0  0  0  0  0  0
    2.1780    0.5620    0.3680 C   0  0  0  0  0  0  0  0  0  0  0  0
    3.2110    0.7920    1.1840 C   0  0  0  0  0  0  0  0  0  0  0  0
    4.5950    0.3500    0.8820 C   0  0  0  0  0  0  0  0  0  0  0  0
    5.6790    1.1050    1.2310 C   0  0  0  0  0  0  0  0  0  0  0  0
    6.9740    0.6510    1.0790 C   0  0  0  0  0  0  0  0  0  0  0  0
    7.2260   -0.5930    0.5670 C   0  0  0  0  0  0  0  0  0  0  0  0
    6.1160   -1.3780    0.2070 C   0  0  0  0  0  0  0  0  0  0  0  0
    6.4100   -2.6710   -0.3130 C   0  0  0  0  0  0  0  0  0  0  0  0
    6.6390   -3.7440   -0.7500 N   0  0  0  0  0  0  0  0  0  0  0  0
    4.8480   -0.8990    0.3650 C   0  0  0  0  0  0  0  0  0  0  0  0
    2.9650    1.3430    2.4130 C   0  0  0  0  0  0  0  0  0  0  0  0
    1.2400    1.5450    2.4450 S   0  0  0  0  0  0  0  0  0  0  0  0
   -1.2480   -0.0510    1.2560 C   0  0  0  0  0  0  0  0  0  0  0  0
   -4.2230   -2.0410    0.0200 N   0  0  0  0  0  0  0  0  0  0  0  0
  1  2  1  0
  2  3  1  0
  3  4  2  0
  3 33  1  0
  4  5  1  0
  5  6  2  0
  6  7  1  0
  7  8  1  0
  7 33  2  0
  8  9  1  0
  8 32  1  0
 10  9  1  1
 10 11  1  0
 10 18  1  0
 11 12  2  0
 11 13  1  0
 13 14  1  0
 13 15  2  0
 15 16  1  0
 15 17  1  0
 17 18  1  0
 18 19  1  1
 18 32  1  0
 19 20  2  0
 19 31  1  0
 20 21  1  0
 21 22  1  0
 21 30  2  0
 22 23  2  0
 22 29  1  0
 23 24  1  0
 24 25  2  0
 25 26  1  0
 26 27  1  0
 26 29  2  0
 27 28  3  0
 30 31  1  0
M  CHG  1  13   1
M  END
