
     RDKit          3D

 32 35  0  0  0  0  0  0  0  0999 V2000
   -8.7740    0.2430   -1.9340 C   0  0  0  0  0  0  0  0  0  0  0  0
   -8.8530   -0.3800   -0.5660 C   0  0  0  0  0  0  0  0  0  0  0  0
   -9.6290    0.0260    0.4430 N   0  0  0  0  0  0  0  0  0  0  0  0
   -9.4050   -0.7840    1.4680 C   0  0  0  0  0  0  0  0  0  0  0  0
   -8.4620   -1.7300    1.0980 C   0  0  0  0  0  0  0  0  0  0  0  0
   -8.1440   -1.4470   -0.1700 N   0  0  0  0  0  0  0  0  0  0  0  0
   -7.2030   -2.1560   -0.9770 C   0  0  0  0  0  0  0  0  0  0  0  0
   -5.8060   -1.6020   -0.8500 C   0  0  0  0  0  0  0  0  0  0  0  0
   -5.5610   -0.6080   -1.5580 O   0  0  0  0  0  0  0  0  0  0  0  0
   -4.8520   -2.1530   -0.0080 N   0  0  0  0  0  0  0  0  0  0  0  0
   -3.5270   -1.6730    0.1600 C   0  0  0  0  0  0  0  0  0  0  0  0
   -2.5850   -2.5330    0.7350 C   0  0  0  0  0  0  0  0  0  0  0  0
   -1.3020   -2.1090    0.9350 C   0  0  0  0  0  0  0  0  0  0  0  0
   -0.8430   -0.8310    0.5930 C   0  0  0  0  0  0  0  0  0  0  0  0
    0.5190   -0.5030    0.8330 N   0  0  0  0  0  0  0  0  0  0  0  0
    1.1010    0.7700    0.7820 C   0  0  0  0  0  0  0  0  0  0  0  0
    0.3710    1.7460    0.5030 O   0  0  0  0  0  0  0  0  0  0  0  0
    2.5350    1.0540    1.0350 C   0  0  0  0  0  0  0  0  0  0  0  0
    3.3980    0.1460    1.3300 C   0  0  0  0  0  0  0  0  0  0  0  0
    4.8350    0.4010    1.5880 C   0  0  1  0  0  0  0  0  0  0  0  0
    5.6570   -0.5560    0.8190 C   0  0  0  0  0  0  0  0  0  0  0  0
    6.6670   -0.2290    0.0900 C   0  0  0  0  0  0  0  0  0  0  0  0
    7.0480    1.1860    0.0000 C   0  0  0  0  0  0  0  0  0  0  0  0
    8.2270    1.5370   -0.8570 C   0  0  1  0  0  0  0  0  0  0  0  0
    7.9040    1.0710   -2.2620 C   0  0  0  0  0  0  0  0  0  0  0  0
    8.3310    3.0630   -0.8210 C   0  0  0  0  0  0  0  0  0  0  0  0
    6.3720    2.0280    0.6390 N   0  0  0  0  0  0  0  0  0  0  0  0
    5.2340    1.7990    1.4780 C   0  0  1  0  0  0  0  0  0  0  0  0
    4.1910    2.7330    1.1460 N   0  0  0  0  0  0  0  0  0  0  0  0
    2.9920    2.4450    0.9430 C   0  0  0  0  0  0  0  0  0  0  0  0
   -1.7830   -0.0170    0.0350 C   0  0  0  0  0  0  0  0  0  0  0  0
   -3.1030   -0.4130   -0.1850 C   0  0  0  0  0  0  0  0  0  0  0  0
  1  2  1  0
  2  3  2  0
  2  6  1  0
  3  4  1  0
  4  5  2  0
  5  6  1  0
  6  7  1  0
  7  8  1  0
  8  9  2  0
  8 10  1  0
 10 11  1  0
 11 12  2  0
 11 32  1  0
 12 13  1  0
 13 14  2  0
 14 15  1  0
 14 31  1  0
 15 16  1  0
 16 17  2  0
 16 18  1  0
 18 19  2  0
 18 30  1  0
 20 19  1  6
 20 21  1  0
 20 28  1  0
 21 22  2  0
 22 23  1  0
 23 24  1  0
 23 27  2  0
 24 25  1  6
 24 26  1  0
 28 27  1  6
 28 29  1  0
 29 30  2  0
 31 32  2  0
M  END
