
     RDKit          3D

 32 35  0  0  0  0  0  0  0  0999 V2000
   -5.1200    2.3330   -0.2460 C   0  0  0  0  0  0  0  0  0  0  0  0
   -3.8680    1.5430   -0.4910 C   0  0  0  0  0  0  0  0  0  0  0  0
   -4.0780    0.4960   -1.5770 C   0  0  0  0  0  0  0  0  0  0  0  0
   -2.8500   -0.2220   -1.7670 N   0  0  0  0  0  0  0  0  0  0  0  0
   -2.2580   -1.1080   -0.8370 C   0  0  0  0  0  0  0  0  0  0  0  0
   -0.8450   -1.0120   -0.5360 N   0  0  0  0  0  0  0  0  0  0  0  0
   -0.3110   -1.2330    0.7490 C   0  0  0  0  0  0  0  0  0  0  0  0
   -1.0770   -1.5100    1.8210 N   0  0  0  0  0  0  0  0  0  0  0  0
   -0.5640   -1.6970    3.0230 N   0  0  0  0  0  0  0  0  0  0  0  0
    0.7470   -1.6210    3.2420 N   0  0  0  0  0  0  0  0  0  0  0  0
    1.5960   -1.3520    2.2460 C   0  0  0  0  0  0  0  0  0  0  0  0
    1.0590   -1.1540    0.9740 C   0  0  0  0  0  0  0  0  0  0  0  0
    2.1410   -0.8760    0.0440 C   0  0  0  0  0  0  0  0  0  0  0  0
    2.0480   -0.6470   -1.1770 O   0  0  0  0  0  0  0  0  0  0  0  0
    3.3840   -0.9060    0.7780 N   0  0  0  0  0  0  0  0  0  0  0  0
    4.6890   -0.6740    0.1970 C   0  0  0  0  0  0  0  0  0  0  0  0
    5.0630    0.7630    0.2570 C   0  0  0  0  0  0  0  0  0  0  0  0
    4.2160    1.7490    0.7330 C   0  0  0  0  0  0  0  0  0  0  0  0
    4.5890    3.0730    0.7830 C   0  0  0  0  0  0  0  0  0  0  0  0
    5.8370    3.4740    0.3550 C   0  0  0  0  0  0  0  0  0  0  0  0
    6.6760    2.4820   -0.1190 C   0  0  0  0  0  0  0  0  0  0  0  0
    8.0270    2.8570   -0.5900 C   0  0  0  0  0  0  0  0  0  0  0  0
    6.2990    1.1440   -0.1690 C   0  0  0  0  0  0  0  0  0  0  0  0
    3.0380   -1.1980    2.1210 C   0  0  0  0  0  0  0  0  0  0  0  0
    3.8450   -1.3120    3.0830 O   0  0  0  0  0  0  0  0  0  0  0  0
   -2.9320   -1.9990   -0.2730 N   0  0  0  0  0  0  0  0  0  0  0  0
   -4.3050   -2.3000   -0.4230 C   0  0  0  0  0  0  0  0  0  0  0  0
   -5.2600   -2.1570    0.4950 C   0  0  0  0  0  0  0  0  0  0  0  0
   -6.5740   -2.5860   -0.0480 C   0  0  0  0  0  0  0  0  0  0  0  0
   -6.2500   -3.0160   -1.4230 C   0  0  0  0  0  0  0  0  0  0  0  0
   -4.9570   -2.8390   -1.6030 C   0  0  0  0  0  0  0  0  0  0  0  0
   -4.1170   -3.2150   -3.1070 Cl  0  0  0  0  0  0  0  0  0  0  0  0
  1  2  1  0
  2  3  1  0
  3  4  1  0
  4  5  1  0
  5  6  1  0
  5 26  2  3
  6  7  1  0
  7  8  2  0
  7 12  1  0
  8  9  1  0
  9 10  2  0
 10 11  1  0
 11 12  2  0
 11 24  1  0
 12 13  1  0
 13 14  2  0
 13 15  1  0
 15 16  1  0
 15 24  1  0
 16 17  1  0
 17 18  2  0
 17 23  1  0
 18 19  1  0
 19 20  2  0
 20 21  1  0
 21 22  1  0
 21 23  2  0
 24 25  2  0
 26 27  1  0
 27 28  2  0
 27 31  1  0
 28 29  1  0
 29 30  1  0
 30 31  2  0
 31 32  1  0
M  CHG  1  26   1
M  END
