
     RDKit          3D

 32 35  0  0  0  0  0  0  0  0999 V2000
   -2.5630    4.6110    1.4980 C   0  0  0  0  0  0  0  0  0  0  0  0
   -1.5300    3.7630    2.2120 C   0  0  0  0  0  0  0  0  0  0  0  0
   -2.0940    2.5010    2.7580 C   0  0  0  0  0  0  0  0  0  0  0  0
   -2.6950    1.5900    1.7760 C   0  0  0  0  0  0  0  0  0  0  0  0
   -3.9990    1.6160    1.3580 N   0  0  0  0  0  0  0  0  0  0  0  0
   -4.1690    0.6360    0.4920 N   0  0  0  0  0  0  0  0  0  0  0  0
   -3.0120   -0.0390    0.3250 C   0  0  0  0  0  0  0  0  0  0  0  0
   -2.7690   -1.2140   -0.5610 C   0  0  2  0  0  0  0  0  0  0  0  0
   -2.9670   -0.7530   -1.9860 C   0  0  0  0  0  0  0  0  0  0  0  0
   -4.4610   -0.8810   -2.2830 C   0  0  0  0  0  0  0  0  0  0  0  0
   -4.7400   -2.3720   -2.3510 C   0  0  0  0  0  0  0  0  0  0  0  0
   -4.2030   -3.0940   -1.2470 N   0  0  0  0  0  0  0  0  0  0  0  0
   -5.1990   -4.0140   -0.7270 C   0  0  0  0  0  0  0  0  0  0  0  0
   -3.7460   -2.2830   -0.1580 C   0  0  0  0  0  0  0  0  0  0  0  0
   -2.0980    0.5750    1.1410 N   0  0  0  0  0  0  0  0  0  0  0  0
   -0.7460    0.1430    1.2660 C   0  0  0  0  0  0  0  0  0  0  0  0
    0.1840    0.7470    0.2700 C   0  0  0  0  0  0  0  0  0  0  0  0
    1.5800    0.2770    0.4320 C   0  0  0  0  0  0  0  0  0  0  0  0
    1.8390   -0.5550    1.3580 O   0  0  0  0  0  0  0  0  0  0  0  0
    2.6060    0.7570   -0.4420 N   0  0  0  0  0  0  0  0  0  0  0  0
    3.9540    0.3310   -0.3310 C   0  0  0  0  0  0  0  0  0  0  0  0
    4.8290    1.2370    0.1030 C   0  0  0  0  0  0  0  0  0  0  0  0
    6.2580    1.1390    0.3340 C   0  0  0  0  0  0  0  0  0  0  0  0
    6.9240    2.3670    0.8540 C   0  0  0  0  0  0  0  0  0  0  0  0
    7.1010    0.1200    0.1580 C   0  0  0  0  0  0  0  0  0  0  0  0
    6.7750   -1.2030   -0.3320 C   0  0  0  0  0  0  0  0  0  0  0  0
    5.5960   -1.6670   -0.6970 C   0  0  0  0  0  0  0  0  0  0  0  0
    5.6570   -2.9930   -1.1240 O   0  0  0  0  0  0  0  0  0  0  0  0
    4.5260   -3.6440   -1.5480 N   0  0  0  0  0  0  0  0  0  0  0  0
    3.3740   -3.0880   -1.5780 C   0  0  0  0  0  0  0  0  0  0  0  0
    3.1890   -1.6930   -1.1500 C   0  0  0  0  0  0  0  0  0  0  0  0
    4.2530   -1.0340   -0.7330 C   0  0  0  0  0  0  0  0  0  0  0  0
  1  2  1  0
  2  3  1  0
  3  4  1  0
  4  5  2  0
  4 15  1  0
  5  6  1  0
  6  7  2  0
  8  7  1  1
  7 15  1  0
  8  9  1  0
  8 14  1  0
  9 10  1  0
 10 11  1  0
 11 12  1  0
 12 13  1  0
 12 14  1  0
 15 16  1  0
 16 17  1  0
 17 18  1  0
 18 19  2  0
 18 20  1  0
 20 21  1  0
 21 22  2  0
 21 32  1  0
 22 23  1  0
 23 24  1  0
 23 25  2  0
 25 26  1  0
 26 27  2  0
 27 28  1  0
 27 32  1  0
 28 29  1  0
 29 30  2  0
 30 31  1  0
 31 32  2  0
M  END
