
     RDKit          3D

 32 34  0  0  0  0  0  0  0  0999 V2000
   -3.1390    2.3320    0.3450 C   0  0  0  0  0  0  0  0  0  0  0  0
   -3.1980    2.4860   -0.9680 C   0  0  0  0  0  0  0  0  0  0  0  0
   -3.7390    1.4950   -1.8750 C   0  0  0  0  0  0  0  0  0  0  0  0
   -3.7550    1.8010   -3.1860 C   0  0  0  0  0  0  0  0  0  0  0  0
   -3.2510    3.0790   -3.6930 C   0  0  0  0  0  0  0  0  0  0  0  0
   -4.1760    0.2860   -1.4040 N   0  0  0  0  0  0  0  0  0  0  0  0
   -3.6990   -0.7600   -0.9640 C   0  0  0  0  0  0  0  0  0  0  0  0
   -2.3050   -0.7390   -0.9100 N   0  0  0  0  0  0  0  0  0  0  0  0
   -1.4190   -1.7400   -1.2580 C   0  0  0  0  0  0  0  0  0  0  0  0
   -2.1050   -2.6980   -1.7800 O   0  0  0  0  0  0  0  0  0  0  0  0
   -0.0260   -1.7800   -1.1150 N   0  0  0  0  0  0  0  0  0  0  0  0
    0.5650   -2.9940   -1.7000 C   0  0  0  0  0  0  0  0  0  0  0  0
    1.7430   -2.5410   -2.5150 C   0  0  0  0  0  0  0  0  0  0  0  0
    2.7580   -1.9660   -1.5750 C   0  0  0  0  0  0  0  0  0  0  0  0
    2.2340   -0.8030   -0.7720 C   0  0  2  0  0  0  0  0  0  0  0  0
    2.9790   -0.8670    0.4950 N   0  0  0  0  0  0  0  0  0  0  0  0
    2.6520   -1.9900    1.3450 C   0  0  0  0  0  0  0  0  0  0  0  0
    3.9350    0.0670    0.8890 C   0  0  0  0  0  0  0  0  0  0  0  0
    4.5160   -0.1270    2.0010 O   0  0  0  0  0  0  0  0  0  0  0  0
    4.3440    1.2240    0.1830 N   0  0  0  0  0  0  0  0  0  0  0  0
    5.3720    2.0730    0.7500 C   0  0  0  0  0  0  0  0  0  0  0  0
    4.9690    2.5850    2.0900 C   0  0  0  0  0  0  0  0  0  0  0  0
    5.6420    2.3390    3.2010 C   0  0  0  0  0  0  0  0  0  0  0  0
    4.9220    3.0200    4.3050 C   0  0  0  0  0  0  0  0  0  0  0  0
    3.7810    3.6590    3.6350 C   0  0  0  0  0  0  0  0  0  0  0  0
    3.8450    3.3880    2.3860 N   0  0  0  0  0  0  0  0  0  0  0  0
    0.7860   -0.8140   -0.4730 C   0  0  0  0  0  0  0  0  0  0  0  0
   -4.6740   -1.5780   -0.1740 C   0  0  0  0  0  0  0  0  0  0  0  0
   -4.5620   -2.7320    0.4290 C   0  0  0  0  0  0  0  0  0  0  0  0
   -5.8200   -3.1200    1.0940 C   0  0  0  0  0  0  0  0  0  0  0  0
   -6.6930   -1.9760    0.8090 C   0  0  0  0  0  0  0  0  0  0  0  0
   -6.0220   -1.1110    0.0780 C   0  0  0  0  0  0  0  0  0  0  0  0
  1  2  2  0
  2  3  1  0
  3  4  2  3
  3  6  1  0
  4  5  1  0
  6  7  2  3
  7  8  1  0
  7 28  1  0
  8  9  1  0
  9 10  2  0
  9 11  1  0
 11 12  1  0
 11 27  1  0
 12 13  1  0
 13 14  1  0
 14 15  1  0
 15 16  1  1
 15 27  1  0
 16 17  1  0
 16 18  1  0
 18 19  2  0
 18 20  1  0
 20 21  1  0
 21 22  1  0
 22 23  2  0
 22 26  1  0
 23 24  1  0
 24 25  1  0
 25 26  2  0
 28 29  2  0
 28 32  1  0
 29 30  1  0
 30 31  1  0
 31 32  2  0
M  END
