
     RDKit          3D

 32 35  0  0  0  0  0  0  0  0999 V2000
    9.4290    1.2020    0.4530 C   0  0  0  0  0  0  0  0  0  0  0  0
    7.9620    0.8430    0.7040 C   0  0  0  0  0  0  0  0  0  0  0  0
    7.3320    0.7280   -0.5920 N   0  0  0  0  0  0  0  0  0  0  0  0
    5.9340    0.3910   -0.6190 C   0  0  0  0  0  0  0  0  0  0  0  0
    5.2770    0.1990    0.5220 N   0  0  0  0  0  0  0  0  0  0  0  0
    3.9450   -0.1310    0.6090 C   0  0  0  0  0  0  0  0  0  0  0  0
    3.2900   -0.0970    1.9150 C   0  0  0  0  0  0  0  0  0  0  0  0
    3.2970   -0.2690   -0.5830 C   0  0  0  0  0  0  0  0  0  0  0  0
    3.9950   -0.0570   -1.8120 C   0  0  0  0  0  0  0  0  0  0  0  0
    5.2760    0.2620   -1.7820 N   0  0  0  0  0  0  0  0  0  0  0  0
    3.2670   -0.1670   -2.9690 C   0  0  0  0  0  0  0  0  0  0  0  0
    3.9290    0.0340   -4.0390 O   0  0  0  0  0  0  0  0  0  0  0  0
    1.9330   -0.4660   -3.0250 C   0  0  0  0  0  0  0  0  0  0  0  0
    1.3150   -0.6710   -1.8100 C   0  0  0  0  0  0  0  0  0  0  0  0
    2.0110   -0.5770   -0.6340 N   0  0  0  0  0  0  0  0  0  0  0  0
    1.3800   -1.1780    0.5190 C   0  0  0  0  0  0  0  0  0  0  0  0
    2.0270   -1.9600    1.2090 O   0  0  0  0  0  0  0  0  0  0  0  0
   -0.0350   -0.8130    0.7740 C   0  0  0  0  0  0  0  0  0  0  0  0
   -0.7800   -0.9270   -0.5240 C   0  0  0  0  0  0  0  0  0  0  0  0
   -2.2180   -1.1150   -0.5200 C   0  0  0  0  0  0  0  0  0  0  0  0
   -2.8630   -1.1780    0.6260 C   0  0  0  0  0  0  0  0  0  0  0  0
   -4.2950   -1.3670    0.5970 N   0  0  0  0  0  0  0  0  0  0  0  0
   -5.0970   -0.2090    0.6200 C   0  0  0  0  0  0  0  0  0  0  0  0
   -4.5120    1.0510    0.6660 C   0  0  0  0  0  0  0  0  0  0  0  0
   -5.3410    2.1500    0.6890 C   0  0  0  0  0  0  0  0  0  0  0  0
   -4.7210    3.5030    0.7380 C   0  0  0  0  0  0  0  0  0  0  0  0
   -6.7060    1.9710    0.6660 C   0  0  0  0  0  0  0  0  0  0  0  0
   -7.2160    0.7290    0.6210 N   0  0  0  0  0  0  0  0  0  0  0  0
   -6.4580   -0.3760    0.5970 C   0  0  0  0  0  0  0  0  0  0  0  0
   -7.0310   -1.7180    0.5470 C   0  0  0  0  0  0  0  0  0  0  0  0
   -6.9310   -2.3230   -0.8330 C   0  0  0  0  0  0  0  0  0  0  0  0
   -0.1250   -0.8560   -1.6840 C   0  0  0  0  0  0  0  0  0  0  0  0
  1  2  1  0
  2  3  1  0
  3  4  1  0
  4  5  2  0
  4 10  1  0
  5  6  1  0
  6  7  1  0
  6  8  2  0
  8  9  1  0
  8 15  1  0
  9 10  2  0
  9 11  1  0
 11 12  2  0
 11 13  1  0
 13 14  2  0
 14 15  1  0
 14 32  1  0
 15 16  1  0
 16 17  2  0
 16 18  1  0
 18 19  1  0
 19 20  1  0
 19 32  2  0
 20 21  2  3
 21 22  1  0
 22 23  1  0
 23 24  2  0
 23 29  1  0
 24 25  1  0
 25 26  1  0
 25 27  2  0
 27 28  1  0
 28 29  2  0
 29 30  1  0
 30 31  1  0
M  END
