
     RDKit          3D

 32 35  0  0  0  0  0  0  0  0999 V2000
   -4.8540    4.0390    2.4210 C   0  0  0  0  0  0  0  0  0  0  0  0
   -4.3040    2.9950    1.8440 C   0  0  0  0  0  0  0  0  0  0  0  0
   -4.3460    2.7490    0.4130 C   0  0  0  0  0  0  0  0  0  0  0  0
   -3.7840    1.6960   -0.1350 C   0  0  0  0  0  0  0  0  0  0  0  0
   -3.0750    0.6950    0.6460 N   0  0  0  0  0  0  0  0  0  0  0  0
   -2.4740   -0.4110    0.0180 C   0  0  0  0  0  0  0  0  0  0  0  0
   -1.7690   -1.4220    0.8840 C   0  0  1  0  0  0  0  0  0  0  0  0
   -2.5300   -2.6640    0.8150 C   0  0  0  0  0  0  0  0  0  0  0  0
   -3.7990   -3.0070    1.3090 C   0  0  0  0  0  0  0  0  0  0  0  0
   -4.0040   -4.2740    0.9450 N   0  0  0  0  0  0  0  0  0  0  0  0
   -2.9720   -4.7320    0.2730 N   0  0  0  0  0  0  0  0  0  0  0  0
   -2.0510   -3.7650    0.1780 C   0  0  0  0  0  0  0  0  0  0  0  0
   -0.7410   -3.8240   -0.4820 C   0  0  0  0  0  0  0  0  0  0  0  0
    0.2100   -2.7650    0.0530 C   0  0  0  0  0  0  0  0  0  0  0  0
   -0.3750   -1.5620    0.4910 N   0  0  0  0  0  0  0  0  0  0  0  0
    0.3550   -0.3600    0.6180 C   0  0  0  0  0  0  0  0  0  0  0  0
   -0.3980    0.7060    0.9330 O   0  0  0  0  0  0  0  0  0  0  0  0
    1.7230   -0.0200    0.4850 C   0  0  0  0  0  0  0  0  0  0  0  0
    2.7050   -1.0000    0.2490 N   0  0  0  0  0  0  0  0  0  0  0  0
    4.0750   -0.4740    0.0720 C   0  0  0  0  0  0  0  0  0  0  0  0
    4.2030    0.7550    0.1510 O   0  0  0  0  0  0  0  0  0  0  0  0
    5.0920   -1.4990   -0.1760 C   0  0  0  0  0  0  0  0  0  0  0  0
    6.4290   -0.9880   -0.3770 C   0  0  0  0  0  0  0  0  0  0  0  0
    6.8490    0.2390   -0.3660 C   0  0  0  0  0  0  0  0  0  0  0  0
    8.3300    0.5450   -0.6070 C   0  0  0  0  0  0  0  0  0  0  0  0
    8.8210    1.2380    0.6370 C   0  0  0  0  0  0  0  0  0  0  0  0
   -2.5430   -0.5540   -1.2510 N   0  0  0  0  0  0  0  0  0  0  0  0
   -3.2130    0.3680   -2.1000 C   0  0  0  0  0  0  0  0  0  0  0  0
   -3.7960    1.4270   -1.5600 C   0  0  0  0  0  0  0  0  0  0  0  0
   -4.5360    2.3920   -2.4490 C   0  0  0  0  0  0  0  0  0  0  0  0
   -4.3780    3.7520   -1.8180 C   0  0  0  0  0  0  0  0  0  0  0  0
   -5.0470    3.7390   -0.4580 C   0  0  0  0  0  0  0  0  0  0  0  0
  1  2  2  0
  2  3  1  0
  3  4  2  0
  3 32  1  0
  4  5  1  0
  4 29  1  0
  5  6  1  0
  7  6  1  6
  6 27  2  0
  7  8  1  0
  7 15  1  0
  8  9  1  0
  8 12  2  0
  9 10  2  0
 10 11  1  0
 11 12  1  0
 12 13  1  0
 13 14  1  0
 14 15  1  0
 15 16  1  0
 16 17  2  0
 16 18  1  0
 18 19  1  0
 19 20  1  0
 20 21  2  0
 20 22  1  0
 22 23  1  0
 23 24  2  3
 24 25  1  0
 25 26  1  0
 27 28  1  0
 28 29  2  0
 29 30  1  0
 30 31  1  0
 31 32  1  0
M  END
