
     RDKit          3D

 32 36  0  0  0  0  0  0  0  0999 V2000
   -4.1100   -3.7560    1.1490 C   0  0  0  0  0  0  0  0  0  0  0  0
   -2.9180   -2.9890    0.9090 N   0  0  0  0  0  0  0  0  0  0  0  0
   -2.0340   -3.4590    0.1040 C   0  0  0  0  0  0  0  0  0  0  0  0
   -2.2560   -4.7010   -0.5100 N   0  0  0  0  0  0  0  0  0  0  0  0
   -0.8640   -2.7140   -0.1850 N   0  0  0  0  0  0  0  0  0  0  0  0
   -0.7620   -1.3220    0.2870 C   0  0  1  0  0  0  0  0  0  0  0  0
    0.6880   -0.9820    0.2690 C   0  0  0  0  0  0  0  0  0  0  0  0
    1.7470   -1.7980    0.2110 C   0  0  0  0  0  0  0  0  0  0  0  0
    2.9810   -1.2650    0.1390 C   0  0  0  0  0  0  0  0  0  0  0  0
    3.1180    0.0840    0.1270 C   0  0  0  0  0  0  0  0  0  0  0  0
    4.2690    0.9450    0.0510 C   0  0  0  0  0  0  0  0  0  0  0  0
    4.1230    2.2900    0.2510 C   0  0  0  0  0  0  0  0  0  0  0  0
    5.2690    3.0680    0.0960 C   0  0  0  0  0  0  0  0  0  0  0  0
    6.4870    2.5600   -0.2410 C   0  0  0  0  0  0  0  0  0  0  0  0
    7.5720    3.3350   -0.4040 F   0  0  0  0  0  0  0  0  0  0  0  0
    6.6110    1.1950   -0.4410 C   0  0  0  0  0  0  0  0  0  0  0  0
    7.8480    0.6110   -0.8700 C   0  0  0  0  0  0  0  0  0  0  0  0
    8.8710    0.1340   -1.2030 N   0  0  0  0  0  0  0  0  0  0  0  0
    5.4780    0.3900   -0.2860 C   0  0  0  0  0  0  0  0  0  0  0  0
    1.4040    0.6200    0.2280 S   0  0  0  0  0  0  0  0  0  0  0  0
   -1.4650   -0.4090   -0.7100 C   0  0  0  0  0  0  0  0  0  0  0  0
   -1.9370    0.6830    0.1030 N   0  0  0  0  0  0  0  0  0  0  0  0
   -2.4880    1.8760   -0.4380 C   0  0  0  0  0  0  0  0  0  0  0  0
   -3.2940    2.7120    0.3110 C   0  0  0  0  0  0  0  0  0  0  0  0
   -3.8150    3.8760   -0.2220 C   0  0  0  0  0  0  0  0  0  0  0  0
   -3.5140    4.2130   -1.5460 C   0  0  0  0  0  0  0  0  0  0  0  0
   -2.7040    3.3750   -2.2830 C   0  0  0  0  0  0  0  0  0  0  0  0
   -2.1920    2.2140   -1.7450 C   0  0  0  0  0  0  0  0  0  0  0  0
   -1.7670    0.4320    1.5110 C   0  0  0  0  0  0  0  0  0  0  0  0
   -1.4440   -1.0530    1.5620 C   0  0  1  0  0  0  0  0  0  0  0  0
   -2.7800   -1.7460    1.5720 C   0  0  0  0  0  0  0  0  0  0  0  0
   -3.7890   -1.2290    2.1630 O   0  0  0  0  0  0  0  0  0  0  0  0
  1  2  1  0
  2  3  2  0
  2 31  1  0
  3  4  1  0
  3  5  1  0
  5  6  1  0
  6  7  1  1
  6 21  1  0
  6 30  1  0
  7  8  2  0
  7 20  1  0
  8  9  1  0
  9 10  2  0
 10 11  1  0
 10 20  1  0
 11 12  2  0
 11 19  1  0
 12 13  1  0
 13 14  2  0
 14 15  1  0
 14 16  1  0
 16 17  1  0
 16 19  2  0
 17 18  3  0
 21 22  1  0
 22 23  1  0
 22 29  1  0
 23 24  2  0
 23 28  1  0
 24 25  1  0
 25 26  2  0
 26 27  1  0
 27 28  2  0
 30 29  1  6
 30 31  1  0
 31 32  2  0
M  CHG  1   2   1
M  END
