
     RDKit          3D

 32 35  0  0  0  0  0  0  0  0999 V2000
    9.9780    1.3260    1.0040 C   0  0  0  0  0  0  0  0  0  0  0  0
    8.8760    1.4460    0.0430 C   0  0  0  0  0  0  0  0  0  0  0  0
    7.6460    1.1180    0.3170 C   0  0  0  0  0  0  0  0  0  0  0  0
    6.5730    1.2230   -0.5870 O   0  0  0  0  0  0  0  0  0  0  0  0
    5.4060    0.8090   -0.0260 C   0  0  0  0  0  0  0  0  0  0  0  0
    4.1640    0.8080   -0.7120 N   0  0  0  0  0  0  0  0  0  0  0  0
    2.9350    0.3890   -0.1630 C   0  0  0  0  0  0  0  0  0  0  0  0
    2.8900   -0.0150    1.0060 O   0  0  0  0  0  0  0  0  0  0  0  0
    1.7280    0.4510   -1.0170 C   0  0  0  0  0  0  0  0  0  0  0  0
    0.5420    0.0080   -0.3680 N   0  0  1  0  0  0  0  0  0  0  0  0
   -0.3770    1.0950   -0.3100 C   0  0  0  0  0  0  0  0  0  0  0  0
   -1.6620    0.8130    0.3820 C   0  0  0  0  0  0  0  0  0  0  0  0
   -2.1590   -0.5100    0.2550 N   0  0  0  0  0  0  0  0  0  0  0  0
   -3.4410   -0.6630   -0.3420 C   0  0  0  0  0  0  0  0  0  0  0  0
   -4.5380   -0.0110    0.3710 C   0  0  0  0  0  0  0  0  0  0  0  0
   -5.7490    0.2980   -0.2460 C   0  0  0  0  0  0  0  0  0  0  0  0
   -6.7910    0.9020    0.3990 C   0  0  0  0  0  0  0  0  0  0  0  0
   -8.0840    1.2270   -0.2740 C   0  0  0  0  0  0  0  0  0  0  0  0
   -6.6710    1.2400    1.7330 C   0  0  0  0  0  0  0  0  0  0  0  0
   -5.5010    0.9550    2.3730 C   0  0  0  0  0  0  0  0  0  0  0  0
   -5.3630    1.3150    3.8100 C   0  0  0  0  0  0  0  0  0  0  0  0
   -4.4420    0.3350    1.7000 C   0  0  0  0  0  0  0  0  0  0  0  0
   -1.2330   -1.5330   -0.0120 C   0  0  0  0  0  0  0  0  0  0  0  0
   -0.0720   -1.1640   -0.9080 C   0  0  2  0  0  0  0  0  0  0  0  0
    0.9040   -2.3210   -0.9610 C   0  0  0  0  0  0  0  0  0  0  0  0
    0.1300   -3.5690   -1.2220 C   0  0  0  0  0  0  0  0  0  0  0  0
   -0.7750   -3.5180   -2.3860 C   0  0  0  0  0  0  0  0  0  0  0  0
   -1.2680   -2.2140   -2.8330 C   0  0  0  0  0  0  0  0  0  0  0  0
   -0.5900   -1.0000   -2.2960 C   0  0  0  0  0  0  0  0  0  0  0  0
    5.6010    0.4290    1.1940 C   0  0  0  0  0  0  0  0  0  0  0  0
    7.0400    0.5900    1.5240 C   0  0  0  0  0  0  0  0  0  0  0  0
    7.5810    0.3120    2.6360 N   0  0  0  0  0  0  0  0  0  0  0  0
  1  2  1  0
  2  3  2  3
  3  4  1  0
  3 31  1  0
  4  5  1  0
  5  6  1  0
  5 30  2  0
  6  7  1  0
  7  8  2  0
  7  9  1  0
 10  9  1  6
 10 11  1  0
 10 24  1  0
 11 12  1  0
 12 13  1  0
 13 14  1  0
 13 23  1  0
 14 15  1  0
 15 16  2  0
 15 22  1  0
 16 17  1  0
 17 18  1  0
 17 19  2  0
 19 20  1  0
 20 21  1  0
 20 22  2  0
 24 23  1  1
 24 25  1  0
 24 29  1  0
 25 26  1  0
 26 27  1  0
 27 28  1  0
 28 29  1  0
 30 31  1  0
 31 32  2  0
M  CHG  1  10   1
M  END
