
     RDKit          3D

 32 35  0  0  0  0  0  0  0  0999 V2000
   -4.3150   -0.8370    3.9630 C   0  0  0  0  0  0  0  0  0  0  0  0
   -4.2800    0.0410    2.7580 C   0  0  0  0  0  0  0  0  0  0  0  0
   -3.3200   -0.0590    1.8800 C   0  0  0  0  0  0  0  0  0  0  0  0
   -3.3040    0.8100    0.7060 C   0  0  0  0  0  0  0  0  0  0  0  0
   -2.3640    0.7510   -0.2040 C   0  0  0  0  0  0  0  0  0  0  0  0
   -1.3130   -0.2210   -0.0170 N   0  0  0  0  0  0  0  0  0  0  0  0
   -0.0020    0.1340    0.3180 C   0  0  0  0  0  0  0  0  0  0  0  0
    0.1150    1.4390    0.3930 O   0  0  0  0  0  0  0  0  0  0  0  0
    1.1890   -0.6160    0.6200 C   0  0  0  0  0  0  0  0  0  0  0  0
    1.2450   -1.8950    0.9510 C   0  0  0  0  0  0  0  0  0  0  0  0
    0.0210   -2.6690    1.0550 C   0  0  0  0  0  0  0  0  0  0  0  0
    0.0300   -3.9800    1.3680 C   0  0  0  0  0  0  0  0  0  0  0  0
    1.2830   -4.6720    1.6200 C   0  0  0  0  0  0  0  0  0  0  0  0
    2.4350   -4.0390    1.5500 C   0  0  0  0  0  0  0  0  0  0  0  0
    3.7200   -4.7280    1.8040 C   0  0  0  0  0  0  0  0  0  0  0  0
    2.4400   -2.6320    1.2120 N   0  0  0  0  0  0  0  0  0  0  0  0
    3.6710   -2.0310    1.1360 N   0  0  0  0  0  0  0  0  0  0  0  0
    3.6910   -0.6300    0.7750 C   0  0  0  0  0  0  0  0  0  0  0  0
    4.8270   -0.1100    0.7110 O   0  0  0  0  0  0  0  0  0  0  0  0
    2.5040    0.1400    0.4990 C   0  0  0  0  0  0  0  0  0  0  0  0
    2.5200    1.3110   -0.0400 C   0  0  0  0  0  0  0  0  0  0  0  0
    3.4520    2.3500   -0.3350 C   0  0  0  0  0  0  0  0  0  0  0  0
    3.0720    3.5020   -0.9770 C   0  0  0  0  0  0  0  0  0  0  0  0
    4.2190    4.3930   -1.1480 C   0  0  0  0  0  0  0  0  0  0  0  0
    5.3310    3.6840   -0.5250 C   0  0  0  0  0  0  0  0  0  0  0  0
    4.8490    2.5150   -0.0730 C   0  0  0  0  0  0  0  0  0  0  0  0
   -2.4320    1.5890   -1.4130 C   0  0  1  0  0  0  0  0  0  0  0  0
   -1.1360    1.7090   -2.1710 C   0  0  0  0  0  0  0  0  0  0  0  0
   -1.6060    1.7970   -3.6520 C   0  0  0  0  0  0  0  0  0  0  0  0
   -2.7910    0.8210   -3.6080 C   0  0  0  0  0  0  0  0  0  0  0  0
   -3.3910    1.1290   -2.3590 N   0  0  1  0  0  0  0  0  0  0  0  0
   -4.2000    0.0290   -1.8440 C   0  0  0  0  0  0  0  0  0  0  0  0
  1  2  1  0
  2  3  2  3
  3  4  1  0
  4  5  2  3
  5  6  1  0
 27  5  1  1
  6  7  1  0
  7  8  2  0
  7  9  1  0
  9 10  2  0
  9 20  1  0
 10 11  1  0
 10 16  1  0
 11 12  2  0
 12 13  1  0
 13 14  2  0
 14 15  1  0
 14 16  1  0
 16 17  1  0
 17 18  1  0
 18 19  2  0
 18 20  1  0
 20 21  2  3
 21 22  1  0
 22 23  2  0
 22 26  1  0
 23 24  1  0
 24 25  1  0
 25 26  2  0
 27 28  1  0
 27 31  1  0
 28 29  1  0
 29 30  1  0
 30 31  1  0
 31 32  1  1
M  CHG  1  31   1
M  END
