
     RDKit          3D

 32 36  0  0  0  0  0  0  0  0999 V2000
    3.6200   -1.4040    1.0430 O   0  0  0  0  0  0  0  0  0  0  0  0
    3.8540   -0.4930    0.1700 C   0  0  0  0  0  0  0  0  0  0  0  0
    2.7740    0.2390   -0.3840 N   0  0  0  0  0  0  0  0  0  0  0  0
    1.4280   -0.0680    0.0540 C   0  0  1  0  0  0  0  0  0  0  0  0
    0.7810    1.1510    0.6760 C   0  0  0  0  0  0  0  0  0  0  0  0
   -0.2120    0.8050    1.7650 C   0  0  0  0  0  0  0  0  0  0  0  0
   -1.4260    0.2210    1.0840 N   0  0  0  0  0  0  0  0  0  0  0  0
   -2.5940    0.8670    1.3960 C   0  0  0  0  0  0  0  0  0  0  0  0
   -2.3670    1.8790    2.2690 O   0  0  0  0  0  0  0  0  0  0  0  0
   -3.9990    0.8180    1.0940 C   0  0  0  0  0  0  0  0  0  0  0  0
   -4.4730   -0.1770    0.1800 N   0  0  2  0  0  0  0  0  0  0  0  0
   -4.0850    0.1220   -1.1380 C   0  0  0  0  0  0  0  0  0  0  0  0
   -5.0910    0.5450   -2.1080 C   0  0  0  0  0  0  0  0  0  0  0  0
   -6.3860    0.5020   -1.8710 C   0  0  0  0  0  0  0  0  0  0  0  0
   -6.7840    0.0060   -0.5560 C   0  0  0  0  0  0  0  0  0  0  0  0
   -8.1630   -0.1310   -0.3170 C   0  0  0  0  0  0  0  0  0  0  0  0
   -8.6250   -0.6610    0.8660 C   0  0  0  0  0  0  0  0  0  0  0  0
   -7.7210   -1.0540    1.8110 C   0  0  0  0  0  0  0  0  0  0  0  0
   -6.3710   -0.9100    1.5580 C   0  0  0  0  0  0  0  0  0  0  0  0
   -5.8850   -0.3820    0.3840 C   0  0  0  0  0  0  0  0  0  0  0  0
   -1.2280   -0.8900    0.2250 C   0  0  0  0  0  0  0  0  0  0  0  0
   -0.6890   -0.3440   -1.0920 C   0  0  0  0  0  0  0  0  0  0  0  0
    0.7250   -0.5370   -1.1310 N   0  0  0  0  0  0  0  0  0  0  0  0
    5.2220   -0.2440   -0.2180 C   0  0  0  0  0  0  0  0  0  0  0  0
    5.5500    0.5400   -1.2900 C   0  0  0  0  0  0  0  0  0  0  0  0
    6.8660    0.7600   -1.6280 C   0  0  0  0  0  0  0  0  0  0  0  0
    7.8590    0.1670   -0.8550 C   0  0  0  0  0  0  0  0  0  0  0  0
    7.5360   -0.6240    0.2250 C   0  0  0  0  0  0  0  0  0  0  0  0
    6.2250   -0.8260    0.5400 C   0  0  0  0  0  0  0  0  0  0  0  0
    8.8050   -1.0710    0.7920 C   0  0  0  0  0  0  0  0  0  0  0  0
    9.8270   -0.6000    0.1240 C   0  0  0  0  0  0  0  0  0  0  0  0
    9.3320    0.2330   -0.9880 C   0  0  0  0  0  0  0  0  0  0  0  0
  1  2  2  0
  2  3  1  0
  2 24  1  0
  4  3  1  6
  4  5  1  0
  4 23  1  0
  5  6  1  0
  6  7  1  0
  7  8  1  0
  7 21  1  0
  8  9  2  0
  8 10  1  0
 11 10  1  1
 11 12  1  0
 11 20  1  0
 12 13  1  0
 13 14  2  0
 14 15  1  0
 15 16  2  0
 15 20  1  0
 16 17  1  0
 17 18  2  0
 18 19  1  0
 19 20  2  0
 21 22  1  0
 22 23  1  0
 24 25  2  0
 24 29  1  0
 25 26  1  0
 26 27  2  0
 27 28  1  0
 27 32  1  0
 28 29  2  0
 28 30  1  0
 30 31  2  0
 31 32  1  0
M  CHG  1  11   1
M  END
