
     RDKit          3D

 33 35  0  0  0  0  0  0  0  0999 V2000
   -8.4360    0.1270    1.7010 C   0  0  0  0  0  0  0  0  0  0  0  0
   -8.4070   -0.2630    0.2370 C   0  0  0  0  0  0  0  0  0  0  0  0
   -7.0480   -0.7740   -0.0850 C   0  0  0  0  0  0  0  0  0  0  0  0
   -6.8340   -2.1290   -0.2310 C   0  0  0  0  0  0  0  0  0  0  0  0
   -5.5720   -2.5510   -0.5260 C   0  0  0  0  0  0  0  0  0  0  0  0
   -4.5180   -1.6880   -0.6830 C   0  0  0  0  0  0  0  0  0  0  0  0
   -3.2790   -2.2280   -0.9820 O   0  0  0  0  0  0  0  0  0  0  0  0
   -2.1610   -1.4420   -1.1580 C   0  0  0  0  0  0  0  0  0  0  0  0
   -1.2450   -1.2180   -0.2210 C   0  0  0  0  0  0  0  0  0  0  0  0
   -0.2150   -0.3610   -0.7250 C   0  0  0  0  0  0  0  0  0  0  0  0
    0.9950    0.1470   -0.0230 N   0  0  0  0  0  0  0  0  0  0  0  0
    0.6440    0.8030    1.1870 C   0  0  0  0  0  0  0  0  0  0  0  0
    0.4670   -0.2870    2.2630 C   0  0  0  0  0  0  0  0  0  0  0  0
    2.2220   -0.2050   -0.5950 C   0  0  0  0  0  0  0  0  0  0  0  0
    2.1500   -1.0390   -1.6380 O   0  0  0  0  0  0  0  0  0  0  0  0
    3.5480    0.1760   -0.2380 C   0  0  0  0  0  0  0  0  0  0  0  0
    3.9330    1.4030    0.1980 C   0  0  0  0  0  0  0  0  0  0  0  0
    3.0090    2.4020    0.4210 O   0  0  0  0  0  0  0  0  0  0  0  0
    3.4460    3.6600    0.8730 C   0  0  0  0  0  0  0  0  0  0  0  0
    5.2980    1.6820    0.4220 C   0  0  0  0  0  0  0  0  0  0  0  0
    6.2940    0.7700    0.2190 C   0  0  0  0  0  0  0  0  0  0  0  0
    7.7280    1.1000    0.4670 C   0  0  0  0  0  0  0  0  0  0  0  0
    5.9130   -0.4740   -0.2270 C   0  0  0  0  0  0  0  0  0  0  0  0
    6.8760   -1.4680   -0.4620 O   0  0  0  0  0  0  0  0  0  0  0  0
    7.4920   -1.6160   -1.7270 C   0  0  0  0  0  0  0  0  0  0  0  0
    4.5960   -0.7650   -0.4480 C   0  0  0  0  0  0  0  0  0  0  0  0
    4.1710   -2.0140   -0.8990 O   0  0  0  0  0  0  0  0  0  0  0  0
   -0.4810   -0.0490   -1.9720 C   0  0  0  0  0  0  0  0  0  0  0  0
   -1.7500   -0.7160   -2.3530 C   0  0  0  0  0  0  0  0  0  0  0  0
   -2.3210   -0.6490   -3.4700 O   0  0  0  0  0  0  0  0  0  0  0  0
   -4.7360   -0.3770   -0.5400 N   0  0  0  0  0  0  0  0  0  0  0  0
   -5.9660    0.0680   -0.2490 C   0  0  0  0  0  0  0  0  0  0  0  0
   -6.2100    1.4650   -0.0940 N   0  0  0  0  0  0  0  0  0  0  0  0
  1  2  1  0
  2  3  1  0
  3  4  2  0
  3 32  1  0
  4  5  1  0
  5  6  2  0
  6  7  1  0
  6 31  1  0
  7  8  1  0
  8  9  2  0
  8 29  1  0
  9 10  1  0
 10 11  1  0
 10 28  2  0
 11 12  1  0
 11 14  1  0
 12 13  1  0
 14 15  2  0
 14 16  1  0
 16 17  2  0
 16 26  1  0
 17 18  1  0
 17 20  1  0
 18 19  1  0
 20 21  2  0
 21 22  1  0
 21 23  1  0
 23 24  1  0
 23 26  2  0
 24 25  1  0
 26 27  1  0
 28 29  1  0
 29 30  2  0
 31 32  2  0
 32 33  1  0
M  END
