
     RDKit          3D

 33 35  0  0  0  0  0  0  0  0999 V2000
    2.0930    3.7110   -1.9520 C   0  0  0  0  0  0  0  0  0  0  0  0
    1.9020    2.6160   -1.0830 O   0  0  0  0  0  0  0  0  0  0  0  0
    2.9370    1.9880   -0.4260 C   0  0  0  0  0  0  0  0  0  0  0  0
    4.2190    2.4730   -0.6340 C   0  0  0  0  0  0  0  0  0  0  0  0
    5.2770    1.8850   -0.0130 C   0  0  0  0  0  0  0  0  0  0  0  0
    6.5930    2.3970   -0.2360 N   0  0  0  0  0  0  0  0  0  0  0  0
    5.1620    0.7810    0.8550 C   0  0  0  0  0  0  0  0  0  0  0  0
    6.1950    0.2500    1.4280 O   0  0  0  0  0  0  0  0  0  0  0  0
    7.1570   -0.3480    2.0420 C   0  0  0  0  0  0  0  0  0  0  0  0
    8.5470    0.2860    1.8720 C   0  0  0  0  0  0  0  0  0  0  0  0
    8.5410    1.6020    2.4060 C   0  0  0  0  0  0  0  0  0  0  0  0
    8.5570    2.7310    2.8570 N   0  0  0  0  0  0  0  0  0  0  0  0
    3.8540    0.3190    1.0410 C   0  0  0  0  0  0  0  0  0  0  0  0
    2.7670    0.9190    0.4090 C   0  0  0  0  0  0  0  0  0  0  0  0
    1.5440    0.3860    0.6700 O   0  0  0  0  0  0  0  0  0  0  0  0
    0.2800    0.7000    0.2870 C   0  0  2  0  0  0  0  0  0  0  0  0
   -0.6050    1.0320    1.5250 C   0  0  0  0  0  0  0  0  0  0  0  0
   -1.8810    1.6070    1.0150 C   0  0  0  0  0  0  0  0  0  0  0  0
   -2.5580    0.5060    0.1990 N   0  0  0  0  0  0  0  0  0  0  0  0
   -3.8250    0.1630    0.5490 C   0  0  0  0  0  0  0  0  0  0  0  0
   -4.3070    0.9620    1.5190 O   0  0  0  0  0  0  0  0  0  0  0  0
   -4.7670   -0.8480    0.1100 C   0  0  0  0  0  0  0  0  0  0  0  0
   -6.0920   -0.6950    0.4430 O   0  0  0  0  0  0  0  0  0  0  0  0
   -6.8060   -1.6400    0.0000 C   0  0  0  0  0  0  0  0  0  0  0  0
   -8.2960   -1.8120    0.1640 C   0  0  0  0  0  0  0  0  0  0  0  0
   -5.9950   -2.5580   -0.6990 C   0  0  0  0  0  0  0  0  0  0  0  0
   -6.5070   -3.7230   -1.4030 C   0  0  0  0  0  0  0  0  0  0  0  0
   -5.6710   -4.7060   -2.0610 C   0  0  0  0  0  0  0  0  0  0  0  0
   -7.7710   -3.8920   -1.4440 O   0  0  0  0  0  0  0  0  0  0  0  0
   -4.7370   -2.0050   -0.5860 C   0  0  0  0  0  0  0  0  0  0  0  0
   -3.5010   -2.6810   -1.0880 C   0  0  0  0  0  0  0  0  0  0  0  0
   -1.7470    0.1130   -0.8910 C   0  0  0  0  0  0  0  0  0  0  0  0
   -0.4500   -0.5000   -0.3440 C   0  0  0  0  0  0  0  0  0  0  0  0
  1  2  1  0
  2  3  1  0
  3  4  2  0
  3 14  1  0
  4  5  1  0
  5  6  1  0
  5  7  2  0
  7  8  1  0
  7 13  1  0
  8  9  1  0
  9 10  1  0
 10 11  1  0
 11 12  3  0
 13 14  2  0
 14 15  1  0
 16 15  1  1
 16 17  1  0
 16 33  1  0
 17 18  1  0
 18 19  1  0
 19 20  1  0
 19 32  1  0
 20 21  2  0
 20 22  1  0
 22 23  1  0
 22 30  2  0
 23 24  1  0
 24 25  1  0
 24 26  2  0
 26 27  1  0
 26 30  1  0
 27 28  1  0
 27 29  2  0
 30 31  1  0
 32 33  1  0
M  END
