
     RDKit          3D

 33 35  0  0  0  0  0  0  0  0999 V2000
    5.3660    4.0470   -0.7510 C   0  0  0  0  0  0  0  0  0  0  0  0
    3.8750    4.1960   -0.7140 C   0  0  0  0  0  0  0  0  0  0  0  0
    3.1680    3.0050   -0.7970 O   0  0  0  0  0  0  0  0  0  0  0  0
    3.2380    1.9520    0.0690 C   0  0  0  0  0  0  0  0  0  0  0  0
    4.0530    1.9370    1.1790 C   0  0  0  0  0  0  0  0  0  0  0  0
    4.1100    0.8700    2.0380 C   0  0  0  0  0  0  0  0  0  0  0  0
    3.3410   -0.2380    1.8120 C   0  0  0  0  0  0  0  0  0  0  0  0
    3.4110   -1.3270    2.7030 O   0  0  0  0  0  0  0  0  0  0  0  0
    4.2700   -1.2720    3.8230 C   0  0  0  0  0  0  0  0  0  0  0  0
    2.4990   -0.2690    0.6980 C   0  0  0  0  0  0  0  0  0  0  0  0
    1.7340   -1.4290    0.5130 N   0  0  0  0  0  0  0  0  0  0  0  0
    0.8050   -1.7070   -0.5090 C   0  0  0  0  0  0  0  0  0  0  0  0
    0.5980   -0.8640   -1.3790 O   0  0  0  0  0  0  0  0  0  0  0  0
    0.0730   -2.9930   -0.5530 C   0  0  0  0  0  0  0  0  0  0  0  0
    0.6070   -4.0750    0.0110 O   0  0  0  0  0  0  0  0  0  0  0  0
   -0.1570   -5.1110   -0.1240 C   0  0  0  0  0  0  0  0  0  0  0  0
    0.1160   -6.5150    0.3830 C   0  0  0  0  0  0  0  0  0  0  0  0
   -1.2640   -4.7050   -0.8130 C   0  0  0  0  0  0  0  0  0  0  0  0
   -1.1070   -3.3230   -1.0860 C   0  0  0  0  0  0  0  0  0  0  0  0
   -2.1450   -2.5220   -1.6970 C   0  0  0  0  0  0  0  0  0  0  0  0
   -2.3670   -1.2500   -1.7030 C   0  0  0  0  0  0  0  0  0  0  0  0
   -3.5360   -0.6470   -2.4340 C   0  0  0  0  0  0  0  0  0  0  0  0
   -4.3980    0.0680   -1.5420 N   0  0  0  0  0  0  0  0  0  0  0  0
   -4.0890    1.2950   -0.9350 C   0  0  0  0  0  0  0  0  0  0  0  0
   -2.9170    1.9340   -1.2330 C   0  0  0  0  0  0  0  0  0  0  0  0
   -2.6530    3.1380   -0.5900 C   0  0  0  0  0  0  0  0  0  0  0  0
   -1.5730    3.7360   -0.8580 O   0  0  0  0  0  0  0  0  0  0  0  0
   -3.5420    3.6190    0.2840 N   0  0  0  0  0  0  0  0  0  0  0  0
   -4.6920    2.9830    0.5700 C   0  0  0  0  0  0  0  0  0  0  0  0
   -5.5240    3.4610    1.4050 O   0  0  0  0  0  0  0  0  0  0  0  0
   -4.9500    1.8340   -0.0410 N   0  0  0  0  0  0  0  0  0  0  0  0
   -6.1770    1.1430    0.2560 C   0  0  0  0  0  0  0  0  0  0  0  0
    2.4540    0.8110   -0.1540 C   0  0  0  0  0  0  0  0  0  0  0  0
  1  2  1  0
  2  3  1  0
  3  4  1  0
  4  5  2  0
  4 33  1  0
  5  6  1  0
  6  7  2  0
  7  8  1  0
  7 10  1  0
  8  9  1  0
 10 11  1  0
 10 33  2  0
 11 12  1  0
 12 13  2  0
 12 14  1  0
 14 15  1  0
 14 19  2  0
 15 16  1  0
 16 17  1  0
 16 18  2  0
 18 19  1  0
 19 20  1  0
 20 21  2  3
 21 22  1  0
 22 23  1  0
 23 24  1  0
 24 25  2  0
 24 31  1  0
 25 26  1  0
 26 27  2  0
 26 28  1  0
 28 29  1  0
 29 30  2  0
 29 31  1  0
 31 32  1  0
M  END
