
     RDKit          3D

 17 18  0  0  0  0  0  0  0  0999 V2000
    5.3130    0.4470   -0.1780 N   0  0  0  0  0  0  0  0  0  0  0  0
    3.9920   -0.0170   -0.3930 C   0  0  0  0  0  0  0  0  0  0  0  0
    3.2810    0.5300   -1.2630 O   0  0  0  0  0  0  0  0  0  0  0  0
    3.4590   -1.1320    0.4000 C   0  0  0  0  0  0  0  0  0  0  0  0
    2.1380   -1.4790    0.1420 O   0  0  0  0  0  0  0  0  0  0  0  0
    1.0130   -0.7120    0.2950 C   0  0  0  0  0  0  0  0  0  0  0  0
    1.0760    0.5800    0.7650 C   0  0  0  0  0  0  0  0  0  0  0  0
   -0.0970    1.3200    0.9010 C   0  0  0  0  0  0  0  0  0  0  0  0
   -1.3090    0.7370    0.5580 C   0  0  0  0  0  0  0  0  0  0  0  0
   -1.3880   -0.5510    0.0870 C   0  0  0  0  0  0  0  0  0  0  0  0
   -0.2050   -1.2690   -0.0400 C   0  0  0  0  0  0  0  0  0  0  0  0
   -2.5400   -1.2660   -0.2960 N   0  0  0  0  0  0  0  0  0  0  0  0
   -3.9160   -0.9390   -0.3490 C   0  0  0  0  0  0  0  0  0  0  0  0
   -4.7310   -1.9080   -0.1730 O   0  0  0  0  0  0  0  0  0  0  0  0
   -4.4680    0.3480   -0.5750 N   0  0  0  0  0  0  0  0  0  0  0  0
   -3.9380    1.6530   -0.4620 C   0  0  0  0  0  0  0  0  0  0  0  0
   -2.6770    1.8570    0.8060 S   0  0  0  0  0  0  0  0  0  0  0  0
  1  2  1  0
  2  3  2  0
  2  4  1  0
  4  5  1  0
  5  6  1  0
  6  7  2  0
  6 11  1  0
  7  8  1  0
  8  9  2  0
  9 10  1  0
  9 17  1  0
 10 11  2  0
 10 12  1  0
 12 13  1  0
 13 14  2  0
 13 15  1  0
 15 16  1  0
 16 17  1  0
M  END
