
     RDKit          3D

 17 18  0  0  0  0  0  0  0  0999 V2000
   -3.6310    1.7230   -0.1850 C   0  0  0  0  0  0  0  0  0  0  0  0
   -3.2210    0.2920   -0.0280 C   0  0  0  0  0  0  0  0  0  0  0  0
   -4.0070   -0.8350    0.0160 C   0  0  0  0  0  0  0  0  0  0  0  0
   -3.1770   -1.9120    0.1710 C   0  0  0  0  0  0  0  0  0  0  0  0
   -1.8860   -1.5110    0.2280 N   0  0  0  0  0  0  0  0  0  0  0  0
   -0.7420   -2.1990    0.3710 C   0  0  0  0  0  0  0  0  0  0  0  0
   -0.7370   -3.4460    0.4820 O   0  0  0  0  0  0  0  0  0  0  0  0
    0.4130   -1.5180    0.3930 N   0  0  0  0  0  0  0  0  0  0  0  0
    0.4630   -0.1890    0.2790 C   0  0  0  0  0  0  0  0  0  0  0  0
    1.6990    0.5760    0.3000 C   0  0  0  0  0  0  0  0  0  0  0  0
    2.8620    0.0240    0.4320 C   0  0  0  0  0  0  0  0  0  0  0  0
    4.3660    0.9250    0.4600 S   0  0  1  0  0  0  0  0  0  0  0  0
    5.2350    0.7920   -1.0050 N   0  0  0  0  0  0  0  0  0  0  0  0
    4.1070    2.3690    0.7740 O   0  0  0  0  0  0  0  0  0  0  0  0
    5.2030    0.3520    1.5680 O   0  0  0  0  0  0  0  0  0  0  0  0
   -0.7340    0.5250    0.1300 C   0  0  0  0  0  0  0  0  0  0  0  0
   -1.9110   -0.1740    0.1070 C   0  0  0  0  0  0  0  0  0  0  0  0
  1  2  1  0
  2  3  1  0
  2 17  2  0
  3  4  2  0
  4  5  1  0
  5  6  1  0
  5 17  1  0
  6  7  2  0
  6  8  1  0
  8  9  1  0
  9 10  1  0
  9 16  2  0
 10 11  2  3
 11 12  1  0
 12 13  1  6
 12 14  2  0
 12 15  2  0
 16 17  1  0
M  END
