
     RDKit          3D

 17 18  0  0  0  0  0  0  0  0999 V2000
   -0.3710    2.0630   -0.9330 O   0  0  0  0  0  0  0  0  0  0  0  0
    0.4090    1.0950   -0.6470 C   0  0  0  0  0  0  0  0  0  0  0  0
    1.8370    1.3340   -0.9130 C   0  0  0  0  0  0  0  0  0  0  0  0
    2.7640    0.5730   -0.0280 C   0  0  0  0  0  0  0  0  0  0  0  0
    3.2890    1.1850    1.2020 C   0  0  0  0  0  0  0  0  0  0  0  0
    4.3290   -0.0730    1.8710 S   0  0  0  0  0  0  0  0  0  0  0  0
    4.0140   -1.2790    0.5290 C   0  0  0  0  0  0  0  0  0  0  0  0
    4.5400   -2.4320    0.4910 O   0  0  0  0  0  0  0  0  0  0  0  0
    3.1830   -0.6250   -0.2550 N   0  0  0  0  0  0  0  0  0  0  0  0
   -0.1380   -0.0750   -0.1240 N   0  0  0  0  0  0  0  0  0  0  0  0
   -1.4870   -0.3470    0.1190 C   0  0  0  0  0  0  0  0  0  0  0  0
   -1.8930   -1.2700    1.1010 C   0  0  0  0  0  0  0  0  0  0  0  0
   -3.2180   -1.5690    1.3120 C   0  0  0  0  0  0  0  0  0  0  0  0
   -4.1820   -0.9730    0.5680 N   0  0  0  0  0  0  0  0  0  0  0  0
   -3.8140   -0.0880   -0.3740 C   0  0  0  0  0  0  0  0  0  0  0  0
   -4.7700    0.5590   -1.1730 O   0  0  0  0  0  0  0  0  0  0  0  0
   -2.4930    0.2430   -0.6210 C   0  0  0  0  0  0  0  0  0  0  0  0
  1  2  2  0
  2  3  1  0
  2 10  1  0
  3  4  1  0
  4  5  2  0
  4  9  1  0
  5  6  1  0
  6  7  1  0
  7  8  2  0
  7  9  1  0
 10 11  1  0
 11 12  2  0
 11 17  1  0
 12 13  1  0
 13 14  2  0
 14 15  1  0
 15 16  1  0
 15 17  2  0
M  END
