
     RDKit          3D

 17 18  0  0  0  0  0  0  0  0999 V2000
    1.2610   -1.2500   -0.4090 O   0  0  0  0  0  0  0  0  0  0  0  0
    1.1120   -0.3760    0.4530 C   0  0  0  0  0  0  0  0  0  0  0  0
    2.2630    0.0500    1.2220 N   0  0  0  0  0  0  0  0  0  0  0  0
    3.5700   -0.5090    1.0090 C   0  0  0  0  0  0  0  0  0  0  0  0
    4.0250   -0.2260   -0.3830 C   0  0  0  0  0  0  0  0  0  0  0  0
    5.2950   -0.7700   -0.5800 O   0  0  0  0  0  0  0  0  0  0  0  0
   -0.1480    0.1900    0.6790 N   0  0  0  0  0  0  0  0  0  0  0  0
   -1.3670   -0.1150    0.0330 C   0  0  0  0  0  0  0  0  0  0  0  0
   -1.4410   -1.1680   -0.8140 C   0  0  0  0  0  0  0  0  0  0  0  0
   -2.5770   -1.5780   -1.4780 C   0  0  0  0  0  0  0  0  0  0  0  0
   -3.7100   -0.8580   -1.2560 C   0  0  0  0  0  0  0  0  0  0  0  0
   -3.6900    0.2500   -0.3820 C   0  0  0  0  0  0  0  0  0  0  0  0
   -4.9080    1.3810    0.1300 S   0  0  0  0  0  0  0  0  0  0  0  0
   -3.8270    2.3600    1.2190 N   0  0  0  0  0  0  0  0  0  0  0  0
   -2.6560    1.7240    1.0790 C   0  0  0  0  0  0  0  0  0  0  0  0
   -1.6920    2.2630    1.7890 O   0  0  0  0  0  0  0  0  0  0  0  0
   -2.5330    0.6580    0.2870 C   0  0  0  0  0  0  0  0  0  0  0  0
  1  2  2  0
  2  3  1  0
  2  7  1  0
  3  4  1  0
  4  5  1  0
  5  6  1  0
  7  8  1  0
  8  9  2  0
  8 17  1  0
  9 10  1  0
 10 11  2  0
 11 12  1  0
 12 13  1  0
 12 17  2  0
 13 14  1  0
 14 15  1  0
 15 16  2  0
 15 17  1  0
M  END
