
     RDKit          3D

 17 17  0  0  0  0  0  0  0  0999 V2000
    5.0980    1.6050    0.0000 N   0  0  0  0  0  0  0  0  0  0  0  0
    4.5830    0.3720   -0.4140 N   0  0  0  0  0  0  0  0  0  0  0  0
    3.5240   -0.2740    0.3020 C   0  0  0  0  0  0  0  0  0  0  0  0
    3.0420    0.2710    1.3250 O   0  0  0  0  0  0  0  0  0  0  0  0
    3.0070   -1.4920   -0.0960 O   0  0  0  0  0  0  0  0  0  0  0  0
    1.9630   -2.1740    0.5590 C   0  0  0  0  0  0  0  0  0  0  0  0
    0.6800   -1.4820    0.5850 C   0  0  0  0  0  0  0  0  0  0  0  0
   -0.2640   -2.0060    1.2320 O   0  0  0  0  0  0  0  0  0  0  0  0
    0.4470   -0.2660   -0.0760 N   0  0  0  0  0  0  0  0  0  0  0  0
   -0.8290    0.4010   -0.0360 C   0  0  0  0  0  0  0  0  0  0  0  0
   -0.9630    1.6070    0.4740 C   0  0  0  0  0  0  0  0  0  0  0  0
   -2.3060    2.2740    0.5010 C   0  0  0  0  0  0  0  0  0  0  0  0
   -3.3280    1.1660    0.7840 C   0  0  0  0  0  0  0  0  0  0  0  0
   -3.3220    0.2780   -0.4250 C   0  0  0  0  0  0  0  0  0  0  0  0
   -1.9720   -0.3010   -0.5930 C   0  0  0  0  0  0  0  0  0  0  0  0
   -1.8170   -1.4550   -1.2590 C   0  0  0  0  0  0  0  0  0  0  0  0
   -3.2800   -2.2390   -1.9030 S   0  0  0  0  0  0  0  0  0  0  0  0
  1  2  1  0
  2  3  1  0
  3  4  2  0
  3  5  1  0
  5  6  1  0
  6  7  1  0
  7  8  2  0
  7  9  1  0
  9 10  1  0
 10 11  2  0
 10 15  1  0
 11 12  1  0
 12 13  1  0
 13 14  1  0
 14 15  1  0
 15 16  2  3
 16 17  1  0
M  END
