
     RDKit          3D

 28 30  0  0  0  0  0  0  0  0999 V2000
    3.6570   -3.0030    1.7800 O   0  0  0  0  0  0  0  0  0  0  0  0
    3.1010   -2.1670    1.0140 C   0  0  0  0  0  0  0  0  0  0  0  0
    1.3220   -2.0160    0.7090 S   0  0  0  0  0  0  0  0  0  0  0  0
    1.4260   -0.3090    0.1100 C   0  0  0  0  0  0  0  0  0  0  0  0
    0.4150    0.5080    0.0820 C   0  0  0  0  0  0  0  0  0  0  0  0
    0.4950    1.8790   -0.3980 C   0  0  0  0  0  0  0  0  0  0  0  0
   -0.4790    2.7720   -0.2640 C   0  0  0  0  0  0  0  0  0  0  0  0
   -0.3550    4.1650   -0.7700 C   0  0  2  0  0  0  0  0  0  0  0  0
    0.8930    4.3360   -1.3680 F   0  0  0  0  0  0  0  0  0  0  0  0
   -0.4960    5.0750    0.2720 F   0  0  0  0  0  0  0  0  0  0  0  0
   -1.6440    2.3910    0.3660 O   0  0  0  0  0  0  0  0  0  0  0  0
   -1.6510    1.2360    1.1990 C   0  0  0  0  0  0  0  0  0  0  0  0
   -0.9630    0.0880    0.5590 C   0  0  1  0  0  0  0  0  0  0  0  0
   -1.7020   -0.6040   -0.5260 C   0  0  2  0  0  0  0  0  0  0  0  0
   -1.7870    0.3360   -1.5960 O   0  0  0  0  0  0  0  0  0  0  0  0
   -3.0640   -1.0520   -0.2140 C   0  0  0  0  0  0  0  0  0  0  0  0
   -3.4330   -2.3260   -0.0660 C   0  0  0  0  0  0  0  0  0  0  0  0
   -4.8650   -2.4310    0.2450 C   0  0  0  0  0  0  0  0  0  0  0  0
   -5.2920   -1.0230    0.2650 C   0  0  0  0  0  0  0  0  0  0  0  0
   -4.2340   -0.2360   -0.0040 C   0  0  0  0  0  0  0  0  0  0  0  0
    2.8090   -0.1770   -0.2680 C   0  0  0  0  0  0  0  0  0  0  0  0
    3.1950    0.8000   -1.0090 O   0  0  0  0  0  0  0  0  0  0  0  0
    3.6740   -1.1580    0.2130 N   0  0  0  0  0  0  0  0  0  0  0  0
    5.1200   -1.1840   -0.0710 C   0  0  0  0  0  0  0  0  0  0  0  0
    5.8750   -0.4110    0.9890 C   0  0  2  0  0  0  0  0  0  0  0  0
    7.2240   -0.4350    0.7230 F   0  0  0  0  0  0  0  0  0  0  0  0
    5.5790   -0.9780    2.2200 F   0  0  0  0  0  0  0  0  0  0  0  0
    5.4080    0.9020    0.9630 F   0  0  0  0  0  0  0  0  0  0  0  0
  1  2  2  0
  2  3  1  0
  2 23  1  0
  3  4  1  0
  4  5  2  3
  4 21  1  0
  5  6  1  0
  5 13  1  0
  6  7  2  0
  7  8  1  0
  7 11  1  0
  8  9  1  1
  8 10  1  0
 11 12  1  0
 13 12  1  6
 13 14  1  0
 14 15  1  6
 14 16  1  0
 16 17  2  0
 16 20  1  0
 17 18  1  0
 18 19  1  0
 19 20  2  0
 21 22  2  0
 21 23  1  0
 23 24  1  0
 24 25  1  0
 25 26  1  6
 25 27  1  0
 25 28  1  0
M  END
