
     RDKit          3D

 17 18  0  0  0  0  0  0  0  0999 V2000
    4.7790    1.4500   -0.0780 N   0  0  0  0  0  0  0  0  0  0  0  0
    3.8740    0.4740    0.4530 C   0  0  0  0  0  0  0  0  0  0  0  0
    3.6680   -0.5310   -0.2640 O   0  0  0  0  0  0  0  0  0  0  0  0
    3.2460    0.6950    1.7790 C   0  0  0  0  0  0  0  0  0  0  0  0
    2.1460   -0.6630    2.1990 S   0  0  0  0  0  0  0  0  0  0  0  0
    0.7130   -0.7810    1.1770 C   0  0  0  0  0  0  0  0  0  0  0  0
   -0.3800   -0.0690    1.4890 N   0  0  0  0  0  0  0  0  0  0  0  0
   -1.5110   -0.1040    0.7480 C   0  0  0  0  0  0  0  0  0  0  0  0
   -2.6260    0.6390    1.0900 C   0  0  0  0  0  0  0  0  0  0  0  0
   -3.7430    0.5660    0.3040 C   0  0  0  0  0  0  0  0  0  0  0  0
   -4.8600    1.3280    0.6710 O   0  0  0  0  0  0  0  0  0  0  0  0
   -3.7840   -0.2300   -0.8200 C   0  0  0  0  0  0  0  0  0  0  0  0
   -2.6860   -0.9680   -1.1650 C   0  0  0  0  0  0  0  0  0  0  0  0
   -1.5320   -0.9130   -0.3810 C   0  0  0  0  0  0  0  0  0  0  0  0
   -0.4210   -1.6320   -0.6930 C   0  0  0  0  0  0  0  0  0  0  0  0
   -0.4600   -2.3610   -1.7220 O   0  0  0  0  0  0  0  0  0  0  0  0
    0.6890   -1.5560    0.0940 N   0  0  0  0  0  0  0  0  0  0  0  0
  1  2  1  0
  2  3  2  0
  2  4  1  0
  4  5  1  0
  5  6  1  0
  6  7  2  0
  6 17  1  0
  7  8  1  0
  8  9  2  0
  8 14  1  0
  9 10  1  0
 10 11  1  0
 10 12  2  0
 12 13  1  0
 13 14  2  0
 14 15  1  0
 15 16  2  0
 15 17  1  0
M  END
