
     RDKit          3D

 17 18  0  0  0  0  0  0  0  0999 V2000
    5.5090   -0.5040    0.8560 N   0  0  0  0  0  0  0  0  0  0  0  0
    4.2020   -0.6930    0.2950 C   0  0  0  0  0  0  0  0  0  0  0  0
    3.5140   -1.6270    0.7650 O   0  0  0  0  0  0  0  0  0  0  0  0
    3.7870    0.1770   -0.7360 N   0  0  0  0  0  0  0  0  0  0  0  0
    2.5000    0.0310   -1.3240 C   0  0  0  0  0  0  0  0  0  0  0  0
    1.3880    0.2000   -0.2880 C   0  0  0  0  0  0  0  0  0  0  0  0
    0.1890    0.0390   -0.9690 O   0  0  0  0  0  0  0  0  0  0  0  0
   -1.0560    0.1240   -0.3530 C   0  0  0  0  0  0  0  0  0  0  0  0
   -1.0620    0.3810    0.9930 C   0  0  0  0  0  0  0  0  0  0  0  0
   -2.3100    0.4630    1.5910 C   0  0  0  0  0  0  0  0  0  0  0  0
   -3.4200    0.2870    0.8180 C   0  0  0  0  0  0  0  0  0  0  0  0
   -5.1590    0.3180    1.2150 S   0  0  0  0  0  0  0  0  0  0  0  0
   -5.7520   -0.0140   -0.4480 C   0  0  0  0  0  0  0  0  0  0  0  0
   -6.9870   -0.1170   -0.8210 O   0  0  0  0  0  0  0  0  0  0  0  0
   -4.5860   -0.1190   -1.1540 N   0  0  0  0  0  0  0  0  0  0  0  0
   -3.4620    0.0310   -0.5200 C   0  0  0  0  0  0  0  0  0  0  0  0
   -2.1720   -0.0510   -1.1220 C   0  0  0  0  0  0  0  0  0  0  0  0
  1  2  1  0
  2  3  2  0
  2  4  1  0
  4  5  1  0
  5  6  1  0
  6  7  1  0
  7  8  1  0
  8  9  2  0
  8 17  1  0
  9 10  1  0
 10 11  2  0
 11 12  1  0
 11 16  1  0
 12 13  1  0
 13 14  2  0
 13 15  1  0
 15 16  1  0
 16 17  2  0
M  END
