
     RDKit          3D

 14 13  0  0  0  0  0  0  0  0999 V2000
   -2.3960    1.8080   -1.5900 O   0  0  0  0  0  0  0  0  0  0  0  0
   -1.5320    0.8930   -1.5160 C   0  0  0  0  0  0  0  0  0  0  0  0
   -1.4940   -0.0340   -0.4480 N   0  0  0  0  0  0  0  0  0  0  0  0
   -0.4750   -1.0520   -0.4350 C   0  0  0  0  0  0  0  0  0  0  0  0
    0.7720   -0.5530    0.3010 C   0  0  2  0  0  0  0  0  0  0  0  0
    0.4710   -0.2210    1.6190 O   0  0  0  0  0  0  0  0  0  0  0  0
    1.1540   -0.9310    2.4850 O   0  0  0  0  0  0  0  0  0  0  0  0
    1.3060    0.5590   -0.3790 O   0  0  0  0  0  0  0  0  0  0  0  0
    2.5860    0.5080   -0.8880 C   0  0  0  0  0  0  0  0  0  0  0  0
    3.2720   -0.5390   -0.7400 O   0  0  0  0  0  0  0  0  0  0  0  0
    3.1320    1.5940   -1.5630 O   0  0  0  0  0  0  0  0  0  0  0  0
   -2.4600    0.0670    0.5760 C   0  0  0  0  0  0  0  0  0  0  0  0
   -2.4240   -0.7530    1.5180 O   0  0  0  0  0  0  0  0  0  0  0  0
   -3.4320    1.0370    0.5650 O   0  0  0  0  0  0  0  0  0  0  0  0
  1  2  2  0
  2  3  1  0
  3  4  1  0
  3 12  1  0
  5  4  1  6
  5  6  1  0
  5  8  1  0
  6  7  1  0
  8  9  1  0
  9 10  2  0
  9 11  1  0
 12 13  2  0
 12 14  1  0
M  END
