
     RDKit          3D

 15 14  0  0  0  0  0  0  0  0999 V2000
   -2.6210   -0.9530   -0.9650 C   0  0  0  0  0  0  0  0  0  0  0  0
   -2.4200    0.3700   -0.3290 C   0  0  0  0  0  0  0  0  0  0  0  0
   -1.1900    0.7990   -0.1100 C   0  0  0  0  0  0  0  0  0  0  0  0
    0.0080   -0.0090   -0.4830 C   0  0  0  0  0  0  0  0  0  0  0  0
    0.7280   -0.2550    0.6780 O   0  0  0  0  0  0  0  0  0  0  0  0
    2.1120   -1.1580    0.4190 P   0  0  1  0  0  0  0  0  0  0  0  0
    2.9930   -1.0720    1.6440 O   0  0  0  0  0  0  0  0  0  0  0  0
    1.7520   -2.8090    0.1970 O   0  0  0  0  0  0  0  0  0  0  0  0
    3.0040   -0.6560   -0.9030 O   0  0  0  0  0  0  0  0  0  0  0  0
    4.1580    0.4520   -0.3490 P   0  0  1  0  0  0  0  0  0  0  0  0
    5.2680    0.6440   -1.3610 O   0  0  0  0  0  0  0  0  0  0  0  0
    3.4910    1.9470    0.0120 O   0  0  0  0  0  0  0  0  0  0  0  0
    4.8980   -0.1460    1.0670 O   0  0  0  0  0  0  0  0  0  0  0  0
   -3.5720    1.2120    0.0620 C   0  0  0  0  0  0  0  0  0  0  0  0
   -4.4360    0.5600    1.0250 N   0  0  0  0  0  0  0  0  0  0  0  0
  1  2  1  0
  2  3  2  3
  2 14  1  0
  3  4  1  0
  4  5  1  0
  5  6  1  0
  6  7  2  0
  6  8  1  6
  6  9  1  0
  9 10  1  0
 10 11  2  0
 10 12  1  1
 10 13  1  0
 14 15  1  0
M  END
