
     RDKit          3D

 14 13  0  0  0  0  0  0  0  0999 V2000
   -4.6200    0.3930   -0.5670 C   0  0  0  0  0  0  0  0  0  0  0  0
   -3.2680   -0.0480   -0.8120 N   0  0  0  0  0  0  0  0  0  0  0  0
   -2.4350    0.1940    0.2020 O   0  0  0  0  0  0  0  0  0  0  0  0
   -1.2370    0.6740   -0.3440 C   0  0  1  0  0  0  0  0  0  0  0  0
   -0.9000    1.8950    0.2110 O   0  0  0  0  0  0  0  0  0  0  0  0
   -0.1980   -0.3590   -0.0290 C   0  0  0  0  0  0  0  0  0  0  0  0
   -0.3820   -1.5230   -0.4760 O   0  0  0  0  0  0  0  0  0  0  0  0
    0.9250   -0.0600    0.7240 O   0  0  0  0  0  0  0  0  0  0  0  0
    1.8370   -1.1310    0.9530 C   0  0  0  0  0  0  0  0  0  0  0  0
    2.9270   -0.7430    1.7120 O   0  0  0  0  0  0  0  0  0  0  0  0
    3.6020    0.2270    1.1060 O   0  0  0  0  0  0  0  0  0  0  0  0
    4.3450    0.0530   -0.0480 C   0  0  0  0  0  0  0  0  0  0  0  0
    4.4080   -1.0640   -0.5790 O   0  0  0  0  0  0  0  0  0  0  0  0
    5.0300    1.1040   -0.6370 O   0  0  0  0  0  0  0  0  0  0  0  0
  1  2  1  0
  2  3  1  0
  3  4  1  0
  4  5  1  1
  4  6  1  0
  6  7  2  0
  6  8  1  0
  8  9  1  0
  9 10  1  0
 10 11  1  0
 11 12  1  0
 12 13  2  0
 12 14  1  0
M  END
