
     RDKit          3D

 14 13  0  0  0  0  0  0  0  0999 V2000
    1.2620    0.5240   -1.2260 O   0  0  0  0  0  0  0  0  0  0  0  0
    1.4520    0.5630    0.0180 C   0  0  0  0  0  0  0  0  0  0  0  0
    2.7450    0.4490    0.5810 N   0  0  0  0  0  0  0  0  0  0  0  0
    3.8700    0.2830   -0.3010 C   0  0  0  0  0  0  0  0  0  0  0  0
    5.0190    0.1950    0.4760 O   0  0  0  0  0  0  0  0  0  0  0  0
    4.9940   -0.8160    1.3120 O   0  0  0  0  0  0  0  0  0  0  0  0
    0.3800    0.7200    0.8500 O   0  0  0  0  0  0  0  0  0  0  0  0
   -0.9100    0.8410    0.4350 O   0  0  0  0  0  0  0  0  0  0  0  0
   -1.5250   -0.0700   -0.4030 C   0  0  0  0  0  0  0  0  0  0  0  0
   -0.8010   -1.0550   -0.7740 O   0  0  0  0  0  0  0  0  0  0  0  0
   -2.9220    0.0510   -0.8600 C   0  0  1  0  0  0  0  0  0  0  0  0
   -3.2330   -1.0180   -1.6830 O   0  0  0  0  0  0  0  0  0  0  0  0
   -3.8760    0.1330    0.3210 C   0  0  0  0  0  0  0  0  0  0  0  0
   -3.7710   -1.0380    1.0340 O   0  0  0  0  0  0  0  0  0  0  0  0
  1  2  2  0
  2  3  1  0
  2  7  1  0
  3  4  1  0
  4  5  1  0
  5  6  1  0
  7  8  1  0
  8  9  1  0
  9 10  2  0
  9 11  1  0
 11 12  1  6
 11 13  1  0
 13 14  1  0
M  END
