
     RDKit          3D

 14 13  0  0  0  0  0  0  0  0999 V2000
   -3.7360   -0.4940    1.7240 C   0  0  0  0  0  0  0  0  0  0  0  0
   -3.3100   -0.3030    0.2860 C   0  0  1  0  0  0  0  0  0  0  0  0
   -4.0840    0.6820   -0.3230 O   0  0  0  0  0  0  0  0  0  0  0  0
   -1.8790    0.1150    0.2570 C   0  0  0  0  0  0  0  0  0  0  0  0
   -0.9970   -0.6330    0.7580 O   0  0  0  0  0  0  0  0  0  0  0  0
   -1.4550    1.3110   -0.3040 O   0  0  0  0  0  0  0  0  0  0  0  0
   -0.1890    1.7090   -0.3440 O   0  0  0  0  0  0  0  0  0  0  0  0
    0.5720    0.9630   -1.1560 O   0  0  0  0  0  0  0  0  0  0  0  0
    1.7420    0.4040   -0.5970 C   0  0  0  0  0  0  0  0  0  0  0  0
    2.0140    0.6230    0.6050 O   0  0  0  0  0  0  0  0  0  0  0  0
    2.5920   -0.3940   -1.3970 N   0  0  0  0  0  0  0  0  0  0  0  0
    3.8140   -1.0180   -0.9600 C   0  0  0  0  0  0  0  0  0  0  0  0
    4.7970   -0.1460   -0.5970 O   0  0  0  0  0  0  0  0  0  0  0  0
    4.5350    0.6510    0.3790 O   0  0  0  0  0  0  0  0  0  0  0  0
  2  1  1  1
  2  3  1  0
  2  4  1  0
  4  5  2  0
  4  6  1  0
  6  7  1  0
  7  8  1  0
  8  9  1  0
  9 10  2  0
  9 11  1  0
 11 12  1  0
 12 13  1  0
 13 14  1  0
M  END
