
     RDKit          3D

 14 13  0  0  0  0  0  0  0  0999 V2000
   -1.8980    1.7330   -1.1890 C   0  0  0  0  0  0  0  0  0  0  0  0
   -0.7250    1.7880   -0.4530 O   0  0  0  0  0  0  0  0  0  0  0  0
   -0.4770    0.6100    0.2490 C   0  0  2  0  0  0  0  0  0  0  0  0
   -0.4970    0.8840    1.6610 N   0  0  0  0  0  0  0  0  0  0  0  0
   -1.5020    0.2840    2.4600 C   0  0  0  0  0  0  0  0  0  0  0  0
   -2.3850   -0.4880    1.9650 O   0  0  0  0  0  0  0  0  0  0  0  0
   -1.5860    0.5020    3.8350 O   0  0  0  0  0  0  0  0  0  0  0  0
    0.8030   -0.0090   -0.1840 C   0  0  0  0  0  0  0  0  0  0  0  0
    1.7160   -0.2400    0.6250 O   0  0  0  0  0  0  0  0  0  0  0  0
    1.0780   -0.3710   -1.4920 O   0  0  0  0  0  0  0  0  0  0  0  0
    2.2190   -0.9290   -1.9140 O   0  0  0  0  0  0  0  0  0  0  0  0
    2.7610   -2.0740   -1.3860 C   0  0  0  0  0  0  0  0  0  0  0  0
    2.1350   -2.6090   -0.4560 O   0  0  0  0  0  0  0  0  0  0  0  0
    3.9410   -2.5580   -1.8990 O   0  0  0  0  0  0  0  0  0  0  0  0
  1  2  1  0
  2  3  1  0
  3  4  1  1
  3  8  1  0
  4  5  1  0
  5  6  2  0
  5  7  1  0
  8  9  2  0
  8 10  1  0
 10 11  1  0
 11 12  1  0
 12 13  2  0
 12 14  1  0
M  END
