
     RDKit          3D

 14 14  0  0  0  0  0  0  0  0999 V2000
    2.9820   -1.7040    1.1800 O   0  0  0  0  0  0  0  0  0  0  0  0
    3.1760   -1.0200    0.1560 C   0  0  0  0  0  0  0  0  0  0  0  0
    4.3940   -1.0080   -0.4750 O   0  0  0  0  0  0  0  0  0  0  0  0
    2.1040   -0.2380   -0.3600 N   0  0  0  0  0  0  0  0  0  0  0  0
    0.8170   -0.2460    0.3010 C   0  0  0  0  0  0  0  0  0  0  0  0
   -0.1040    0.6590   -0.4560 C   0  0  0  0  0  0  0  0  0  0  0  0
    0.2800    1.2500   -1.4500 O   0  0  0  0  0  0  0  0  0  0  0  0
   -1.5100    0.8640   -0.0250 C   0  0  1  0  0  0  0  0  0  0  0  0
   -2.1290    1.7280   -0.8790 O   0  0  0  0  0  0  0  0  0  0  0  0
   -3.3880    1.9200   -0.6640 O   0  0  0  0  0  0  0  0  0  0  0  0
   -4.0730    0.8560   -0.3060 O   0  0  0  0  0  0  0  0  0  0  0  0
   -3.5280   -0.4030   -0.0780 C   0  0  0  0  0  0  0  0  0  0  0  0
   -4.1970   -1.4360    0.0710 O   0  0  0  0  0  0  0  0  0  0  0  0
   -2.1200   -0.4350   -0.0250 O   0  0  0  0  0  0  0  0  0  0  0  0
  1  2  2  0
  2  3  1  0
  2  4  1  0
  4  5  1  0
  5  6  1  0
  6  7  2  0
  8  6  1  6
  8  9  1  0
  8 14  1  0
  9 10  1  0
 10 11  1  0
 11 12  1  0
 12 13  2  0
 12 14  1  0
M  END
