
     RDKit          3D

 26 28  0  0  0  0  0  0  0  0999 V2000
   -6.6980    2.3240   -0.4150 C   0  0  0  0  0  0  0  0  0  0  0  0
   -6.0270    1.1630   -0.5470 C   0  0  0  0  0  0  0  0  0  0  0  0
   -6.1970    0.2790   -1.7360 C   0  0  0  0  0  0  0  0  0  0  0  0
   -5.1500   -0.7620   -1.7200 C   0  0  0  0  0  0  0  0  0  0  0  0
   -4.2460   -0.9340   -0.7840 C   0  0  0  0  0  0  0  0  0  0  0  0
   -4.2260   -0.0030    0.4010 C   0  0  0  0  0  0  0  0  0  0  0  0
   -3.6590   -0.3010    1.6650 N   0  0  0  0  0  0  0  0  0  0  0  0
   -2.2630   -0.1550    1.6990 C   0  0  0  0  0  0  0  0  0  0  0  0
   -1.8350    0.3950    0.6080 O   0  0  0  0  0  0  0  0  0  0  0  0
   -1.4390   -0.5150    2.7280 N   0  0  0  0  0  0  0  0  0  0  0  0
   -0.0180   -0.2360    2.5890 C   0  0  0  0  0  0  0  0  0  0  0  0
    0.4900   -0.9950    1.4260 C   0  0  0  0  0  0  0  0  0  0  0  0
   -0.3100   -1.7250    0.7660 O   0  0  0  0  0  0  0  0  0  0  0  0
    1.8870   -0.8950    1.0590 N   0  0  0  0  0  0  0  0  0  0  0  0
    2.1370   -1.7090   -0.0860 C   0  0  0  0  0  0  0  0  0  0  0  0
    3.3530   -1.5390   -0.8680 C   0  0  0  0  0  0  0  0  0  0  0  0
    3.9470   -0.1530   -0.8070 C   0  0  0  0  0  0  0  0  0  0  0  0
    4.1870    0.3310   -1.9970 C   0  0  0  0  0  0  0  0  0  0  0  0
    4.7680    1.6740   -2.1500 C   0  0  0  0  0  0  0  0  0  0  0  0
    5.0330    2.3470   -0.9740 O   0  0  0  0  0  0  0  0  0  0  0  0
    4.7700    1.8140    0.2690 C   0  0  0  0  0  0  0  0  0  0  0  0
    4.2500    0.6170    0.3810 C   0  0  0  0  0  0  0  0  0  0  0  0
    4.0230    0.1810    1.7730 C   0  0  2  0  0  0  0  0  0  0  0  0
    4.7030   -1.0410    1.9400 O   0  0  0  0  0  0  0  0  0  0  0  0
    2.5720   -0.0320    1.9390 C   0  0  0  0  0  0  0  0  0  0  0  0
   -5.0800    0.8600    0.3720 N   0  0  0  0  0  0  0  0  0  0  0  0
  1  2  2  0
  2  3  1  0
  2 26  1  0
  3  4  1  0
  4  5  2  0
  5  6  1  0
  6  7  1  0
  6 26  2  0
  7  8  1  0
  8  9  2  0
  8 10  1  0
 10 11  1  0
 11 12  1  0
 12 13  2  0
 12 14  1  0
 14 15  1  0
 14 25  1  0
 15 16  1  0
 16 17  1  0
 17 18  2  0
 17 22  1  0
 18 19  1  0
 19 20  1  0
 20 21  1  0
 21 22  2  0
 22 23  1  0
 23 24  1  6
 23 25  1  0
M  END
