
     RDKit          3D

 26 29  0  0  0  0  0  0  0  0999 V2000
   -1.3010   -1.3270   -0.8930 O   0  0  0  0  0  0  0  0  0  0  0  0
   -0.7920   -1.6810    0.2020 C   0  0  0  0  0  0  0  0  0  0  0  0
   -1.6090   -1.9780    1.4050 C   0  0  0  0  0  0  0  0  0  0  0  0
   -3.0680   -1.8010    1.2430 C   0  0  0  0  0  0  0  0  0  0  0  0
   -3.5470   -0.5090    0.9050 N   0  0  0  0  0  0  0  0  0  0  0  0
   -3.7790    0.0010   -0.4280 C   0  0  0  0  0  0  0  0  0  0  0  0
   -5.0840    0.7860   -0.2100 C   0  0  0  0  0  0  0  0  0  0  0  0
   -4.6930    1.5910    1.0330 C   0  0  0  0  0  0  0  0  0  0  0  0
   -3.9240    0.5710    1.7810 C   0  0  0  0  0  0  0  0  0  0  0  0
   -3.6450    0.6350    2.9890 O   0  0  0  0  0  0  0  0  0  0  0  0
    0.6270   -1.7770    0.2070 N   0  0  0  0  0  0  0  0  0  0  0  0
    1.4660   -1.4940   -0.9520 C   0  0  2  0  0  0  0  0  0  0  0  0
    2.1660   -2.6450   -1.4500 C   0  0  0  0  0  0  0  0  0  0  0  0
    1.4850   -3.7170   -1.6290 O   0  0  0  0  0  0  0  0  0  0  0  0
    3.5220   -2.7010   -1.7580 N   0  0  0  0  0  0  0  0  0  0  0  0
    4.3020   -1.5390   -1.5730 C   0  0  0  0  0  0  0  0  0  0  0  0
    5.5180   -1.5390   -1.8340 O   0  0  0  0  0  0  0  0  0  0  0  0
    3.6250   -0.3240   -1.0590 C   0  0  0  0  0  0  0  0  0  0  0  0
    4.4010    0.8300   -0.8760 C   0  0  0  0  0  0  0  0  0  0  0  0
    3.8040    1.9700   -0.4020 C   0  0  0  0  0  0  0  0  0  0  0  0
    4.3010    3.2360   -0.1240 C   0  0  0  0  0  0  0  0  0  0  0  0
    3.2660    4.0370    0.3400 C   0  0  0  0  0  0  0  0  0  0  0  0
    2.1600    3.2730    0.3460 N   0  0  0  0  0  0  0  0  0  0  0  0
    2.4600    2.0200   -0.0990 C   0  0  0  0  0  0  0  0  0  0  0  0
    1.7130    0.8870   -0.2820 C   0  0  0  0  0  0  0  0  0  0  0  0
    2.2920   -0.3080   -0.7690 C   0  0  0  0  0  0  0  0  0  0  0  0
  1  2  2  0
  2  3  1  0
  2 11  1  0
  3  4  1  0
  4  5  1  0
  5  6  1  0
  5  9  1  0
  6  7  1  0
  7  8  1  0
  8  9  1  0
  9 10  2  0
 12 11  1  1
 12 13  1  0
 12 26  1  0
 13 14  2  0
 13 15  1  0
 15 16  1  0
 16 17  2  0
 16 18  1  0
 18 19  2  0
 18 26  1  0
 19 20  1  0
 20 21  1  0
 20 24  2  0
 21 22  2  0
 22 23  1  0
 23 24  1  0
 24 25  1  0
 25 26  2  0
M  END
