
     RDKit          3D

 26 29  0  0  0  0  0  0  0  0999 V2000
    1.0100    0.6110    1.8600 O   0  0  0  0  0  0  0  0  0  0  0  0
    1.9320    0.3810    1.0480 C   0  0  0  0  0  0  0  0  0  0  0  0
    3.2390    0.8680    1.2430 N   0  0  0  0  0  0  0  0  0  0  0  0
    4.3090    0.2340    0.5330 C   0  0  0  0  0  0  0  0  0  0  0  0
    5.6000    0.6870    0.7020 C   0  0  0  0  0  0  0  0  0  0  0  0
    6.6490    0.1010    0.0350 C   0  0  0  0  0  0  0  0  0  0  0  0
    7.9660    0.5400    0.1870 O   0  0  0  0  0  0  0  0  0  0  0  0
    6.3590   -0.9550   -0.8050 C   0  0  0  0  0  0  0  0  0  0  0  0
    5.0780   -1.4110   -0.9780 C   0  0  0  0  0  0  0  0  0  0  0  0
    4.0130   -0.8150   -0.3010 C   0  0  0  0  0  0  0  0  0  0  0  0
    2.7260   -1.2740   -0.4750 O   0  0  0  0  0  0  0  0  0  0  0  0
    1.6430   -0.4270   -0.1570 C   0  0  2  0  0  0  0  0  0  0  0  0
    1.4940    0.5390   -1.3130 C   0  0  0  0  0  0  0  0  0  0  0  0
    0.4010    1.4170   -1.0460 N   0  0  0  0  0  0  0  0  0  0  0  0
   -0.9310    0.9520   -1.0200 C   0  0  0  0  0  0  0  0  0  0  0  0
   -1.9210    1.7700   -0.5110 C   0  0  0  0  0  0  0  0  0  0  0  0
   -3.2150    1.3380   -0.4950 C   0  0  0  0  0  0  0  0  0  0  0  0
   -3.6040    0.0940   -0.9720 C   0  0  0  0  0  0  0  0  0  0  0  0
   -4.9680   -0.3050   -0.9300 N   0  0  0  0  0  0  0  0  0  0  0  0
   -5.5070   -0.5250    0.1950 C   0  0  0  0  0  0  0  0  0  0  0  0
   -4.9390   -0.4380    1.5800 C   0  0  0  0  0  0  0  0  0  0  0  0
   -6.2400   -0.2200    2.3640 C   0  0  0  0  0  0  0  0  0  0  0  0
   -7.0680   -1.1730    1.7340 O   0  0  0  0  0  0  0  0  0  0  0  0
   -6.8740   -0.9340    0.4130 N   0  0  0  0  0  0  0  0  0  0  0  0
   -2.5900   -0.6900   -1.4700 C   0  0  0  0  0  0  0  0  0  0  0  0
   -1.2610   -0.2950   -1.5070 C   0  0  0  0  0  0  0  0  0  0  0  0
  1  2  2  0
  2  3  1  0
  2 12  1  0
  3  4  1  0
  4  5  2  0
  4 10  1  0
  5  6  1  0
  6  7  1  0
  6  8  2  0
  8  9  1  0
  9 10  2  0
 10 11  1  0
 11 12  1  0
 12 13  1  6
 13 14  1  0
 14 15  1  0
 15 16  2  0
 15 26  1  0
 16 17  1  0
 17 18  2  0
 18 19  1  0
 18 25  1  0
 19 20  2  3
 20 21  1  0
 20 24  1  0
 21 22  1  0
 22 23  1  0
 23 24  1  0
 25 26  2  0
M  END
