
     RDKit          3D

 26 29  0  0  0  0  0  0  0  0999 V2000
    7.7940    0.6150    2.1570 O   0  0  0  0  0  0  0  0  0  0  0  0
    7.9950   -0.2690    1.3590 C   0  0  0  0  0  0  0  0  0  0  0  0
    6.8750   -1.0650    0.8490 C   0  0  0  0  0  0  0  0  0  0  0  0
    6.1990   -0.3000   -0.2690 C   0  0  0  0  0  0  0  0  0  0  0  0
    5.0630   -1.0980   -0.7960 C   0  0  0  0  0  0  0  0  0  0  0  0
    4.8080   -2.2210   -0.2960 O   0  0  0  0  0  0  0  0  0  0  0  0
    4.3130   -0.5370   -1.8590 N   0  0  0  0  0  0  0  0  0  0  0  0
    3.0320   -0.3050   -1.7390 C   0  0  0  0  0  0  0  0  0  0  0  0
    2.2350    0.2210   -2.6830 N   0  0  0  0  0  0  0  0  0  0  0  0
    0.9790    0.3150   -2.2140 C   0  0  0  0  0  0  0  0  0  0  0  0
   -0.2170    0.7710   -2.7400 C   0  0  0  0  0  0  0  0  0  0  0  0
   -1.3700    0.7280   -1.9640 C   0  0  0  0  0  0  0  0  0  0  0  0
   -1.3680    0.2440   -0.6790 C   0  0  0  0  0  0  0  0  0  0  0  0
   -2.5670    0.1870    0.1540 C   0  0  0  0  0  0  0  0  0  0  0  0
   -2.4410   -0.3290    1.4350 C   0  0  0  0  0  0  0  0  0  0  0  0
   -3.5170   -0.4270    2.2970 C   0  0  0  0  0  0  0  0  0  0  0  0
   -4.7620   -0.0020    1.8860 C   0  0  0  0  0  0  0  0  0  0  0  0
   -4.8680    0.5070    0.6110 C   0  0  0  0  0  0  0  0  0  0  0  0
   -3.7800    0.6060   -0.2620 C   0  0  0  0  0  0  0  0  0  0  0  0
   -6.1120    0.9390    0.1790 O   0  0  0  0  0  0  0  0  0  0  0  0
   -7.0640    1.2730    1.1730 C   0  0  0  0  0  0  0  0  0  0  0  0
   -7.1590    0.0560    2.0950 C   0  0  0  0  0  0  0  0  0  0  0  0
   -5.8810   -0.0730    2.7070 O   0  0  0  0  0  0  0  0  0  0  0  0
   -0.1680   -0.1940   -0.2010 N   0  0  0  0  0  0  0  0  0  0  0  0
    0.9670   -0.1680   -0.9220 C   0  0  0  0  0  0  0  0  0  0  0  0
    2.2490   -0.5360   -0.6760 N   0  0  0  0  0  0  0  0  0  0  0  0
  1  2  2  0
  2  3  1  0
  3  4  1  0
  4  5  1  0
  5  6  2  0
  5  7  1  0
  7  8  2  3
  8  9  1  0
  8 26  1  0
  9 10  1  0
 10 11  2  0
 10 25  1  0
 11 12  1  0
 12 13  2  0
 13 14  1  0
 13 24  1  0
 14 15  2  0
 14 19  1  0
 15 16  1  0
 16 17  2  0
 17 18  1  0
 17 23  1  0
 18 19  2  0
 18 20  1  0
 20 21  1  0
 21 22  1  0
 22 23  1  0
 24 25  2  0
 25 26  1  0
M  END
