
     RDKit          3D

 12 12  0  0  0  0  0  0  0  0999 V2000
    3.5890   -0.6210    0.3080 O   0  0  0  0  0  0  0  0  0  0  0  0
    3.0980    0.4730   -0.0700 C   0  0  0  0  0  0  0  0  0  0  0  0
    3.9040    1.5490   -0.4060 O   0  0  0  0  0  0  0  0  0  0  0  0
    1.6220    0.6040   -0.1550 C   0  0  2  0  0  0  0  0  0  0  0  0
    1.0980    1.8970    0.9200 Cl  0  0  0  0  0  0  0  0  0  0  0  0
    0.9510   -0.7040    0.2070 C   0  0  0  0  0  0  0  0  0  0  0  0
   -0.5150   -0.5010    0.1010 C   0  0  0  0  0  0  0  0  0  0  0  0
   -1.1300   -0.7500   -1.1050 C   0  0  0  0  0  0  0  0  0  0  0  0
   -2.5130   -0.5500   -1.1770 C   0  0  0  0  0  0  0  0  0  0  0  0
   -3.2270   -0.1210   -0.0820 C   0  0  0  0  0  0  0  0  0  0  0  0
   -2.6170    0.1290    1.1230 C   0  0  0  0  0  0  0  0  0  0  0  0
   -1.2350   -0.0780    1.1710 C   0  0  0  0  0  0  0  0  0  0  0  0
  1  2  2  0
  2  3  1  0
  2  4  1  0
  4  5  1  1
  4  6  1  0
  6  7  1  0
  7  8  2  0
  7 12  1  0
  8  9  1  0
  9 10  2  0
 10 11  1  0
 11 12  2  0
M  END
