
     RDKit          3D

 20 22  0  0  0  0  0  0  0  0999 V2000
   -3.2010    2.0580    0.1500 C   0  0  0  0  0  0  0  0  0  0  0  0
   -3.9370    0.7880    0.4010 C   0  0  0  0  0  0  0  0  0  0  0  0
   -5.3020    0.6630    0.6840 C   0  0  0  0  0  0  0  0  0  0  0  0
   -5.5430   -0.6700    0.8410 C   0  0  0  0  0  0  0  0  0  0  0  0
   -4.3720   -1.3120    0.6590 N   0  0  0  0  0  0  0  0  0  0  0  0
   -3.4140   -0.4480    0.3970 N   0  0  0  0  0  0  0  0  0  0  0  0
   -2.0620   -0.7830    0.1550 C   0  0  0  0  0  0  0  0  0  0  0  0
   -1.4910   -0.5220   -1.0680 C   0  0  0  0  0  0  0  0  0  0  0  0
   -0.1730   -0.8620   -1.2670 C   0  0  0  0  0  0  0  0  0  0  0  0
    0.6000   -1.4540   -0.2910 C   0  0  0  0  0  0  0  0  0  0  0  0
    1.9250   -1.7840   -0.5230 O   0  0  0  0  0  0  0  0  0  0  0  0
    2.9850   -0.9170   -0.3890 C   0  0  0  0  0  0  0  0  0  0  0  0
    4.2470   -1.3940   -0.6470 C   0  0  0  0  0  0  0  0  0  0  0  0
    5.3360   -0.5540   -0.5230 C   0  0  0  0  0  0  0  0  0  0  0  0
    5.1040    0.7540   -0.1380 C   0  0  0  0  0  0  0  0  0  0  0  0
    6.2190    1.5800   -0.0210 O   0  0  0  0  0  0  0  0  0  0  0  0
    3.8360    1.2220    0.1190 C   0  0  0  0  0  0  0  0  0  0  0  0
    2.7530    0.3810   -0.0060 C   0  0  0  0  0  0  0  0  0  0  0  0
   -0.0200   -1.6810    0.8800 N   0  0  0  0  0  0  0  0  0  0  0  0
   -1.3010   -1.3730    1.1350 C   0  0  0  0  0  0  0  0  0  0  0  0
  1  2  1  0
  2  3  2  0
  2  6  1  0
  3  4  1  0
  4  5  2  0
  5  6  1  0
  6  7  1  0
  7  8  2  0
  7 20  1  0
  8  9  1  0
  9 10  2  0
 10 11  1  0
 10 19  1  0
 11 12  1  0
 12 13  2  0
 12 18  1  0
 13 14  1  0
 14 15  2  0
 15 16  1  0
 15 17  1  0
 17 18  2  0
 19 20  2  0
M  END
