
     RDKit          3D

 14 15  0  0  0  0  0  0  0  0999 V2000
    0.4010    2.5720    0.6900 O   0  0  0  0  0  0  0  0  0  0  0  0
    0.0940    1.2420    0.5150 N   0  0  0  0  0  0  0  0  0  0  0  0
    0.9800    0.2370    0.5210 C   0  0  0  0  0  0  0  0  0  0  0  0
    2.4260    0.3090    0.7280 C   0  0  0  0  0  0  0  0  0  0  0  0
    3.3160   -0.3080   -0.0110 C   0  0  0  0  0  0  0  0  0  0  0  0
    4.6600   -0.1680    0.2760 O   0  0  0  0  0  0  0  0  0  0  0  0
    2.9220   -1.0920   -1.0720 O   0  0  0  0  0  0  0  0  0  0  0  0
    0.2840   -0.9010    0.3160 N   0  0  0  0  0  0  0  0  0  0  0  0
   -1.0280   -0.6010    0.1840 C   0  0  0  0  0  0  0  0  0  0  0  0
   -2.1610   -1.3550   -0.0430 C   0  0  0  0  0  0  0  0  0  0  0  0
   -3.4140   -0.7830   -0.1450 C   0  0  0  0  0  0  0  0  0  0  0  0
   -3.5540    0.5940   -0.0160 C   0  0  0  0  0  0  0  0  0  0  0  0
   -2.4160    1.3190    0.2080 C   0  0  0  0  0  0  0  0  0  0  0  0
   -1.1470    0.7800    0.3150 C   0  0  0  0  0  0  0  0  0  0  0  0
  1  2  1  0
  2  3  2  0
  2 14  1  0
  3  4  1  0
  3  8  1  0
  4  5  2  3
  5  6  1  0
  5  7  1  0
  8  9  1  0
  9 10  2  0
  9 14  1  0
 10 11  1  0
 11 12  2  0
 12 13  1  0
 13 14  2  0
M  CHG  2   1  -1   2   1
M  END
