
     RDKit          3D

 14 15  0  0  0  0  0  0  0  0999 V2000
   -4.1580   -0.8950   -0.2190 C   0  0  0  0  0  0  0  0  0  0  0  0
   -2.6740   -0.9370   -0.0740 C   0  0  0  0  0  0  0  0  0  0  0  0
   -2.1330   -2.0350    0.1780 O   0  0  0  0  0  0  0  0  0  0  0  0
   -1.8590    0.2060   -0.2100 N   0  0  0  0  0  0  0  0  0  0  0  0
   -0.4690    0.3050   -0.1000 C   0  0  0  0  0  0  0  0  0  0  0  0
    0.1320    1.5470   -0.2740 C   0  0  0  0  0  0  0  0  0  0  0  0
    1.4940    1.7290   -0.1820 C   0  0  0  0  0  0  0  0  0  0  0  0
    2.3000    0.6630    0.0890 C   0  0  0  0  0  0  0  0  0  0  0  0
    1.7460   -0.5630    0.2650 C   0  0  0  0  0  0  0  0  0  0  0  0
    0.3600   -0.7480    0.1710 C   0  0  0  0  0  0  0  0  0  0  0  0
    2.7440   -1.3970    0.5110 O   0  0  0  0  0  0  0  0  0  0  0  0
    3.8850   -0.7530    0.4970 C   0  0  0  0  0  0  0  0  0  0  0  0
    3.6520    0.5470    0.2350 N   0  0  0  0  0  0  0  0  0  0  0  0
    4.5450    1.5820    0.1260 O   0  0  0  0  0  0  0  0  0  0  0  0
  1  2  1  0
  2  3  2  0
  2  4  1  0
  4  5  1  0
  5  6  2  0
  5 10  1  0
  6  7  1  0
  7  8  2  0
  8  9  1  0
  8 13  1  0
  9 10  2  0
  9 11  1  0
 11 12  1  0
 12 13  2  0
 13 14  1  0
M  CHG  2  13   1  14  -1
M  END
