
     RDKit          3D

 14 15  0  0  0  0  0  0  0  0999 V2000
    3.7340    1.6120   -0.1230 O   0  0  0  0  0  0  0  0  0  0  0  0
    3.4400    0.4010   -0.0550 C   0  0  0  0  0  0  0  0  0  0  0  0
    2.0410    0.0210   -0.0210 C   0  0  0  0  0  0  0  0  0  0  0  0
    1.0180    0.9400   -0.0610 C   0  0  0  0  0  0  0  0  0  0  0  0
   -0.3180    0.5780   -0.0280 C   0  0  0  0  0  0  0  0  0  0  0  0
   -0.6530   -0.7580    0.0470 C   0  0  0  0  0  0  0  0  0  0  0  0
   -1.9680   -1.1490    0.0810 C   0  0  0  0  0  0  0  0  0  0  0  0
   -2.9620   -0.2010    0.0400 C   0  0  0  0  0  0  0  0  0  0  0  0
   -2.5940    1.1230   -0.0350 C   0  0  0  0  0  0  0  0  0  0  0  0
   -1.2940    1.4990   -0.0680 N   0  0  0  0  0  0  0  0  0  0  0  0
   -0.9490    2.8170   -0.1420 O   0  0  0  0  0  0  0  0  0  0  0  0
    0.3830   -1.6680    0.0860 C   0  0  0  0  0  0  0  0  0  0  0  0
    0.0520   -2.8860    0.1550 O   0  0  0  0  0  0  0  0  0  0  0  0
    1.6750   -1.2820    0.0520 N   0  0  0  0  0  0  0  0  0  0  0  0
  1  2  2  0
  2  3  1  0
  3  4  2  0
  3 14  1  0
  4  5  1  0
  5  6  2  0
  5 10  1  0
  6  7  1  0
  6 12  1  0
  7  8  2  0
  8  9  1  0
  9 10  2  0
 10 11  1  0
 12 13  2  0
 12 14  1  0
M  CHG  2  10   1  11  -1
M  END
