
     RDKit          3D

 14 15  0  0  0  0  0  0  0  0999 V2000
   -2.6480   -2.4860   -0.4400 O   0  0  0  0  0  0  0  0  0  0  0  0
   -1.9320   -1.4640   -0.2530 C   0  0  0  0  0  0  0  0  0  0  0  0
   -2.7000   -0.3190   -0.0280 C   0  0  0  0  0  0  0  0  0  0  0  0
   -2.2060    0.9660   -0.1120 C   0  0  0  0  0  0  0  0  0  0  0  0
   -3.1930    1.9620   -0.1660 O   0  0  0  0  0  0  0  0  0  0  0  0
   -0.9310    1.4100   -0.1500 N   0  0  0  0  0  0  0  0  0  0  0  0
   -0.7350    2.6280   -0.3310 O   0  0  0  0  0  0  0  0  0  0  0  0
    0.2310    0.7050   -0.0170 C   0  0  0  0  0  0  0  0  0  0  0  0
    1.3280    1.5230    0.2040 C   0  0  0  0  0  0  0  0  0  0  0  0
    2.5960    0.9560    0.3620 C   0  0  0  0  0  0  0  0  0  0  0  0
    2.7280   -0.4150    0.2950 C   0  0  0  0  0  0  0  0  0  0  0  0
    1.6380   -1.2270    0.0760 C   0  0  0  0  0  0  0  0  0  0  0  0
    0.3660   -0.6720   -0.0840 C   0  0  0  0  0  0  0  0  0  0  0  0
   -0.5950   -1.5910   -0.2900 N   0  0  0  0  0  0  0  0  0  0  0  0
  1  2  2  0
  2  3  1  0
  2 14  1  0
  3  4  2  0
  4  5  1  0
  4  6  1  0
  6  7  2  0
  6  8  1  0
  8  9  2  0
  8 13  1  0
  9 10  1  0
 10 11  2  0
 11 12  1  0
 12 13  2  0
 13 14  1  0
M  CHG  2   5  -1   6   1
M  END
