
     RDKit          3D

 20 22  0  0  0  0  0  0  0  0999 V2000
    5.6920   -1.4310    0.4130 C   0  0  0  0  0  0  0  0  0  0  0  0
    4.3350   -1.6870    0.6430 O   0  0  0  0  0  0  0  0  0  0  0  0
    3.3290   -0.8260    0.2200 C   0  0  0  0  0  0  0  0  0  0  0  0
    3.6570    0.3280   -0.4520 C   0  0  0  0  0  0  0  0  0  0  0  0
    2.6740    1.1880   -0.8760 C   0  0  0  0  0  0  0  0  0  0  0  0
    1.3460    0.8850   -0.6210 C   0  0  0  0  0  0  0  0  0  0  0  0
    0.3070    1.7220   -1.0280 O   0  0  0  0  0  0  0  0  0  0  0  0
    0.6630    2.9040   -1.7180 C   0  0  0  0  0  0  0  0  0  0  0  0
    0.9800   -0.2730    0.0560 C   0  0  0  0  0  0  0  0  0  0  0  0
   -0.4280   -0.5490    0.3000 C   0  0  0  0  0  0  0  0  0  0  0  0
   -0.8770   -1.6680    0.9600 C   0  0  0  0  0  0  0  0  0  0  0  0
   -2.1630   -1.9250    1.1860 N   0  0  0  0  0  0  0  0  0  0  0  0
   -3.1270   -1.0710    0.7650 C   0  0  0  0  0  0  0  0  0  0  0  0
   -2.7200    0.0540    0.1050 C   0  0  0  0  0  0  0  0  0  0  0  0
   -1.3930    0.3020   -0.1190 N   0  0  0  0  0  0  0  0  0  0  0  0
   -3.7230    1.0180   -0.3760 C   0  0  0  0  0  0  0  0  0  0  0  0
   -5.0110    0.8180   -0.1820 C   0  0  0  0  0  0  0  0  0  0  0  0
   -5.4100   -0.3430    0.4980 N   0  0  0  0  0  0  0  0  0  0  0  0
   -4.5540   -1.3530    1.0140 C   0  0  0  0  0  0  0  0  0  0  0  0
    1.9880   -1.1050    0.4620 C   0  0  0  0  0  0  0  0  0  0  0  0
  1  2  1  0
  2  3  1  0
  3  4  2  0
  3 20  1  0
  4  5  1  0
  5  6  2  0
  6  7  1  0
  6  9  1  0
  7  8  1  0
  9 10  1  0
  9 20  2  0
 10 11  2  0
 10 15  1  0
 11 12  1  0
 12 13  2  0
 13 14  1  0
 13 19  1  0
 14 15  2  0
 14 16  1  0
 16 17  2  0
 17 18  1  0
 18 19  1  0
M  END
