
     RDKit          3D

 13 14  0  0  0  0  0  0  0  0999 V2000
   -2.9760   -2.1610    0.5770 O   0  0  0  0  0  0  0  0  0  0  0  0
   -2.1560   -1.0670    0.3370 C   0  0  0  0  0  0  0  0  0  0  0  0
   -2.7320    0.1790    0.1790 C   0  0  0  0  0  0  0  0  0  0  0  0
   -1.9170    1.2660   -0.0600 C   0  0  0  0  0  0  0  0  0  0  0  0
   -2.4890    2.5360   -0.2220 O   0  0  0  0  0  0  0  0  0  0  0  0
   -0.5510    1.1050   -0.1370 C   0  0  0  0  0  0  0  0  0  0  0  0
    0.0280   -0.1330    0.0200 C   0  0  0  0  0  0  0  0  0  0  0  0
    1.4810   -0.3050   -0.0620 C   0  0  0  0  0  0  0  0  0  0  0  0
    2.3900    0.7050   -0.2950 C   0  0  0  0  0  0  0  0  0  0  0  0
    3.6630    0.1710   -0.3050 C   0  0  0  0  0  0  0  0  0  0  0  0
    3.5000   -1.1460   -0.0790 N   0  0  0  0  0  0  0  0  0  0  0  0
    2.2060   -1.4240    0.0640 N   0  0  0  0  0  0  0  0  0  0  0  0
   -0.7940   -1.2110    0.2570 C   0  0  0  0  0  0  0  0  0  0  0  0
  1  2  1  0
  2  3  2  0
  2 13  1  0
  3  4  1  0
  4  5  1  0
  4  6  2  0
  6  7  1  0
  7  8  1  0
  7 13  2  0
  8  9  1  0
  8 12  2  0
  9 10  2  0
 10 11  1  0
 11 12  1  0
M  END
