
     RDKit          3D

  9  8  0  0  0  0  0  0  0  0999 V2000
   -1.8470    0.5210   -1.8550 O   0  0  0  0  0  0  0  0  0  0  0  0
   -2.1330   -0.3320   -0.7290 C   0  0  0  0  0  0  0  0  0  0  0  0
   -1.0900   -0.3970    0.1120 C   0  0  0  0  0  0  0  0  0  0  0  0
    0.1410    0.1630    0.0810 C   0  0  0  0  0  0  0  0  0  0  0  0
    1.2950    0.7030    0.0610 C   0  0  0  0  0  0  0  0  0  0  0  0
    2.6890    1.3800    0.0400 C   0  0  0  0  0  0  0  0  0  0  0  0
    3.2510    0.8450   -1.1350 O   0  0  0  0  0  0  0  0  0  0  0  0
   -1.4220   -1.3120    1.3560 C   0  0  0  0  0  0  0  0  0  0  0  0
   -1.5960   -0.3400    2.7910 Cl  0  0  0  0  0  0  0  0  0  0  0  0
  1  2  1  0
  2  3  2  3
  3  4  1  0
  3  8  1  0
  4  5  3  0
  5  6  1  0
  6  7  1  0
  8  9  1  0
M  END
