
     RDKit          3D

  9  8  0  0  0  0  0  0  0  0999 V2000
   -2.6620    0.8340   -0.7930 C   0  0  0  0  0  0  0  0  0  0  0  0
   -2.0760   -0.2900   -1.1160 C   0  0  0  0  0  0  0  0  0  0  0  0
   -0.8840   -0.7640   -0.4240 C   0  0  0  0  0  0  0  0  0  0  0  0
   -0.3140   -1.9240   -0.7830 C   0  0  0  0  0  0  0  0  0  0  0  0
   -0.3600   -0.0070    0.5930 O   0  0  0  0  0  0  0  0  0  0  0  0
    0.7690    0.8110    0.4740 C   0  0  2  0  0  0  0  0  0  0  0  0
    0.5430    2.0730   -0.7600 Cl  0  0  0  0  0  0  0  0  0  0  0  0
    2.0220    0.0390    0.1830 C   0  0  0  0  0  0  0  0  0  0  0  0
    3.1370    0.8660    0.0780 O   0  0  0  0  0  0  0  0  0  0  0  0
  1  2  2  0
  2  3  1  0
  3  4  2  0
  3  5  1  0
  5  6  1  0
  6  7  1  6
  6  8  1  0
  8  9  1  0
M  END
