
     RDKit          3D

  9  8  0  0  0  0  0  0  0  0999 V2000
   -1.6240    1.6520    0.2880 C   0  0  0  0  0  0  0  0  0  0  0  0
   -1.3810    0.3320    0.7980 O   0  0  0  0  0  0  0  0  0  0  0  0
   -0.2500   -0.2850    0.3110 C   0  0  0  0  0  0  0  0  0  0  0  0
   -0.4060   -1.4690   -0.5010 C   0  0  0  0  0  0  0  0  0  0  0  0
   -1.6110   -1.9400   -0.7630 C   0  0  0  0  0  0  0  0  0  0  0  0
   -3.0590   -1.1710   -0.1540 Cl  0  0  0  0  0  0  0  0  0  0  0  0
    0.9180    0.2280    0.6050 C   0  0  0  0  0  0  0  0  0  0  0  0
    2.2380   -0.2810    0.1830 C   0  0  0  0  0  0  0  0  0  0  0  0
    2.8850    0.7150   -0.5620 O   0  0  0  0  0  0  0  0  0  0  0  0
  1  2  1  0
  2  3  1  0
  3  4  1  0
  3  7  2  3
  4  5  2  3
  5  6  1  0
  7  8  1  0
  8  9  1  0
M  END
