
     RDKit          3D

  9  8  0  0  0  0  0  0  0  0999 V2000
    0.8940    0.4060   -3.6160 O   0  0  0  0  0  0  0  0  0  0  0  0
    1.8410    0.1650   -2.6220 C   0  0  0  0  0  0  0  0  0  0  0  0
    1.1570    0.0880   -1.3510 C   0  0  0  0  0  0  0  0  0  0  0  0
    0.5950    0.0290   -0.2630 C   0  0  0  0  0  0  0  0  0  0  0  0
   -0.0540   -0.0540    1.0320 C   0  0  0  0  0  0  0  0  0  0  0  0
    0.6460    0.3130    2.1910 O   0  0  0  0  0  0  0  0  0  0  0  0
   -1.2900   -0.4730    1.1070 C   0  0  0  0  0  0  0  0  0  0  0  0
   -1.9480   -0.5560    2.4210 C   0  0  0  0  0  0  0  0  0  0  0  0
   -3.3810    0.5190    2.3740 Cl  0  0  0  0  0  0  0  0  0  0  0  0
  1  2  1  0
  2  3  1  0
  3  4  3  0
  4  5  1  0
  5  6  1  0
  5  7  2  3
  7  8  1  0
  8  9  1  0
M  END
