
     RDKit          3D

  9  8  0  0  0  0  0  0  0  0999 V2000
   -0.4260   -1.9280   -0.5280 C   0  0  0  0  0  0  0  0  0  0  0  0
   -0.6450   -0.6820   -0.1620 C   0  0  0  0  0  0  0  0  0  0  0  0
   -1.9980   -0.1140   -0.2370 C   0  0  0  0  0  0  0  0  0  0  0  0
   -2.2710    1.1150    0.1120 C   0  0  0  0  0  0  0  0  0  0  0  0
   -3.5610    1.5800    0.0160 O   0  0  0  0  0  0  0  0  0  0  0  0
    0.4120    0.1130    0.3010 O   0  0  0  0  0  0  0  0  0  0  0  0
    1.7160   -0.3960    0.2680 C   0  0  0  0  0  0  0  0  0  0  0  0
    2.7350    0.5800    0.8000 C   0  0  0  0  0  0  0  0  0  0  0  0
    2.7920    2.0850   -0.0940 Cl  0  0  0  0  0  0  0  0  0  0  0  0
  1  2  2  0
  2  3  1  0
  2  6  1  0
  3  4  2  3
  4  5  1  0
  6  7  1  0
  7  8  1  0
  8  9  1  0
M  END
