
     RDKit          3D

  9  8  0  0  0  0  0  0  0  0999 V2000
   -1.2110    1.5850    1.8050 C   0  0  0  0  0  0  0  0  0  0  0  0
   -0.0420    1.3090    0.9540 C   0  0  0  0  0  0  0  0  0  0  0  0
   -0.0880    0.2330    0.1260 C   0  0  0  0  0  0  0  0  0  0  0  0
   -1.3360   -0.5480    0.1820 C   0  0  0  0  0  0  0  0  0  0  0  0
   -1.6110   -1.6080   -0.5110 C   0  0  0  0  0  0  0  0  0  0  0  0
   -0.4840   -2.2710   -1.6480 Cl  0  0  0  0  0  0  0  0  0  0  0  0
    0.9340   -0.0130   -0.6220 O   0  0  0  0  0  0  0  0  0  0  0  0
    1.9560   -0.2580   -1.3690 C   0  0  0  0  0  0  0  0  0  0  0  0
    2.6390   -1.4220   -0.9640 O   0  0  0  0  0  0  0  0  0  0  0  0
  1  2  1  0
  2  3  2  3
  3  4  1  0
  3  7  1  0
  4  5  2  3
  5  6  1  0
  7  8  1  0
  8  9  1  0
M  END
