
     RDKit          3D

 23 25  0  0  0  0  0  0  0  0999 V2000
    6.2880   -0.3070    0.0250 C   0  0  0  0  0  0  0  0  0  0  0  0
    4.8330   -0.0170   -0.0870 N   0  0  0  0  0  0  0  0  0  0  0  0
    4.1680   -1.0330    0.6400 C   0  0  0  0  0  0  0  0  0  0  0  0
    2.7410   -1.2140    0.5280 C   0  0  0  0  0  0  0  0  0  0  0  0
    1.8040   -0.6110   -0.1640 C   0  0  0  0  0  0  0  0  0  0  0  0
    2.0770    0.5070   -1.0760 C   0  0  0  0  0  0  0  0  0  0  0  0
    0.7780    1.1700   -1.5940 C   0  0  0  0  0  0  0  0  0  0  0  0
   -0.1630    1.2000   -0.4050 C   0  0  1  0  0  0  0  0  0  0  0  0
   -1.1900    2.1800   -0.5190 N   0  0  0  0  0  0  0  0  0  0  0  0
   -1.2000    3.3550    0.2830 C   0  0  0  0  0  0  0  0  0  0  0  0
   -2.2810    4.3940    0.1730 C   0  0  0  0  0  0  0  0  0  0  0  0
   -0.2440    3.4820    1.1000 O   0  0  0  0  0  0  0  0  0  0  0  0
   -0.6090   -0.1720   -0.1370 C   0  0  0  0  0  0  0  0  0  0  0  0
   -2.0140   -0.5750    0.0140 C   0  0  0  0  0  0  0  0  0  0  0  0
   -3.0480   -0.1840   -0.7350 N   0  0  0  0  0  0  0  0  0  0  0  0
   -4.2100   -0.7610   -0.2900 C   0  0  0  0  0  0  0  0  0  0  0  0
   -3.8890   -1.5210    0.7520 C   0  0  0  0  0  0  0  0  0  0  0  0
   -2.5350   -1.4020    0.9340 N   0  0  0  0  0  0  0  0  0  0  0  0
   -4.9780   -2.2680    1.4210 C   0  0  0  0  0  0  0  0  0  0  0  0
   -6.3190   -2.0980    0.2100 S   0  0  0  0  0  0  0  0  0  0  0  0
   -5.6150   -0.7020   -0.7130 C   0  0  0  0  0  0  0  0  0  0  0  0
    0.3870   -1.0620   -0.0210 C   0  0  0  0  0  0  0  0  0  0  0  0
    0.1430   -2.4770    0.2420 C   0  0  0  0  0  0  0  0  0  0  0  0
  1  2  1  0
  2  3  1  0
  3  4  1  0
  4  5  2  3
  5  6  1  0
  5 22  1  0
  6  7  1  0
  7  8  1  0
  8  9  1  6
  8 13  1  0
  9 10  1  0
 10 11  1  0
 10 12  2  0
 13 14  1  0
 13 22  2  0
 14 15  2  0
 14 18  1  0
 15 16  1  0
 16 17  2  0
 16 21  1  0
 17 18  1  0
 17 19  1  0
 19 20  1  0
 20 21  1  0
 22 23  1  0
M  CHG  1   2   1
M  END
