
     RDKit          3D

 23 26  0  0  0  0  0  0  0  0999 V2000
   -0.6290    2.0230    1.6470 O   0  0  0  0  0  0  0  0  0  0  0  0
    0.3560    1.3860    1.0830 C   0  0  0  0  0  0  0  0  0  0  0  0
    1.5590    1.8640    0.9630 N   0  0  0  0  0  0  0  0  0  0  0  0
    2.5130    1.1840    0.3880 C   0  0  0  0  0  0  0  0  0  0  0  0
    3.7700    1.4740    0.1680 C   0  0  0  0  0  0  0  0  0  0  0  0
    4.7150    0.5930   -0.4950 C   0  0  0  0  0  0  0  0  0  0  0  0
    6.0070    0.8940   -0.7200 C   0  0  0  0  0  0  0  0  0  0  0  0
    6.6570   -0.2260   -1.4090 C   0  0  0  0  0  0  0  0  0  0  0  0
    5.6200   -1.1960   -1.5590 N   0  0  0  0  0  0  0  0  0  0  0  0
    4.5070   -0.7320   -1.0370 C   0  0  0  0  0  0  0  0  0  0  0  0
    1.6720   -0.3230   -0.0590 S   0  0  0  0  0  0  0  0  0  0  0  0
    0.0990    0.1310    0.5860 C   0  0  0  0  0  0  0  0  0  0  0  0
   -1.0100   -0.6110    0.5600 C   0  0  0  0  0  0  0  0  0  0  0  0
   -2.1770   -0.1080    1.1130 N   0  0  0  0  0  0  0  0  0  0  0  0
   -3.2700    0.4100    0.3320 C   0  0  0  0  0  0  0  0  0  0  0  0
   -4.4080    0.8990    0.9290 C   0  0  0  0  0  0  0  0  0  0  0  0
   -5.4500    1.3930    0.1860 C   0  0  0  0  0  0  0  0  0  0  0  0
   -5.3630    1.4020   -1.1860 C   0  0  0  0  0  0  0  0  0  0  0  0
   -4.2110    0.9070   -1.7610 C   0  0  0  0  0  0  0  0  0  0  0  0
   -3.2050    0.4290   -1.0100 N   0  0  0  0  0  0  0  0  0  0  0  0
   -0.9720   -1.9530   -0.0610 C   0  0  1  0  0  0  0  0  0  0  0  0
   -1.3440   -3.0990    0.8710 C   0  0  0  0  0  0  0  0  0  0  0  0
   -2.1990   -2.7180   -0.2940 C   0  0  0  0  0  0  0  0  0  0  0  0
  1  2  2  0
  2  3  1  0
  2 12  1  0
  3  4  1  0
  4  5  2  3
  4 11  1  0
  5  6  1  0
  6  7  2  0
  6 10  1  0
  7  8  1  0
  8  9  1  0
  9 10  2  0
 11 12  1  0
 12 13  2  3
 13 14  1  0
 21 13  1  1
 14 15  1  0
 15 16  2  0
 15 20  1  0
 16 17  1  0
 17 18  2  0
 18 19  1  0
 19 20  2  0
 21 22  1  0
 21 23  1  0
 22 23  1  0
M  CHG  1  20   1
M  END
