
     RDKit          3D

 22 25  0  0  0  0  0  0  0  0999 V2000
   -6.1890   -0.0010   -1.2670 C   0  0  0  0  0  0  0  0  0  0  0  0
   -5.7090    0.8320   -0.1300 C   0  0  0  0  0  0  0  0  0  0  0  0
   -4.2290    0.9980   -0.1100 C   0  0  0  0  0  0  0  0  0  0  0  0
   -3.5760    2.1150   -0.4850 N   0  0  0  0  0  0  0  0  0  0  0  0
   -2.2970    1.9250   -0.3430 O   0  0  0  0  0  0  0  0  0  0  0  0
   -2.0160    0.7550    0.1030 C   0  0  0  0  0  0  0  0  0  0  0  0
   -3.2560    0.1180    0.2680 C   0  0  0  0  0  0  0  0  0  0  0  0
   -3.2980   -1.2560    0.7690 C   0  0  0  0  0  0  0  0  0  0  0  0
   -2.2690   -2.1070    0.2270 N   0  0  0  0  0  0  0  0  0  0  0  0
   -1.1020   -1.4260   -0.2600 C   0  0  0  0  0  0  0  0  0  0  0  0
   -0.8720   -0.1070    0.4840 C   0  0  1  0  0  0  0  0  0  0  0  0
    0.3950    0.4380    0.3760 N   0  0  0  0  0  0  0  0  0  0  0  0
    0.9120    0.8420   -0.8510 C   0  0  0  0  0  0  0  0  0  0  0  0
    2.2260    1.6080   -0.6450 C   0  0  0  0  0  0  0  0  0  0  0  0
    3.2210    0.6670    0.0240 C   0  0  0  0  0  0  0  0  0  0  0  0
    2.6270    0.0750    1.1750 C   0  0  0  0  0  0  0  0  0  0  0  0
    3.8540   -0.9500    1.8100 S   0  0  0  0  0  0  0  0  0  0  0  0
    5.1320   -0.5680    0.5300 C   0  0  0  0  0  0  0  0  0  0  0  0
    6.4450   -1.1340    0.4950 C   0  0  0  0  0  0  0  0  0  0  0  0
    4.4600    0.3290   -0.2680 C   0  0  0  0  0  0  0  0  0  0  0  0
    5.2480    0.8770   -1.4750 C   0  0  0  0  0  0  0  0  0  0  0  0
    1.2250    0.4460    1.5250 C   0  0  0  0  0  0  0  0  0  0  0  0
  1  2  1  0
  2  3  1  0
  3  4  2  0
  3  7  1  0
  4  5  1  0
  5  6  1  0
  6  7  2  0
  6 11  1  0
  7  8  1  0
  8  9  1  0
  9 10  1  0
 10 11  1  0
 11 12  1  6
 12 13  1  0
 12 22  1  0
 13 14  1  0
 14 15  1  0
 15 16  2  0
 15 20  1  0
 16 17  1  0
 16 22  1  0
 17 18  1  0
 18 19  1  0
 18 20  2  0
 20 21  1  0
M  CHG  1   9   1
M  END
