
     RDKit          3D

 23 25  0  0  0  0  0  0  0  0999 V2000
   -3.8860   -0.0310    2.6220 C   0  0  0  0  0  0  0  0  0  0  0  0
   -4.7030   -0.0830    1.6210 C   0  0  0  0  0  0  0  0  0  0  0  0
   -4.4020   -0.0630    0.2510 C   0  0  0  0  0  0  0  0  0  0  0  0
   -5.3820   -0.1240   -0.6430 C   0  0  0  0  0  0  0  0  0  0  0  0
   -6.7840   -0.2140   -0.1680 C   0  0  0  0  0  0  0  0  0  0  0  0
   -3.0640    0.0230   -0.4040 C   0  0  0  0  0  0  0  0  0  0  0  0
   -2.6140    0.0520   -1.4870 N   0  0  0  0  0  0  0  0  0  0  0  0
   -1.3620    0.1310   -1.8550 C   0  0  0  0  0  0  0  0  0  0  0  0
   -0.9340    0.1590   -3.3040 C   0  0  0  0  0  0  0  0  0  0  0  0
   -0.4410    0.1880   -0.8580 C   0  0  0  0  0  0  0  0  0  0  0  0
    1.0070    0.2790   -0.8260 C   0  0  0  0  0  0  0  0  0  0  0  0
    1.5550    0.3130    0.5190 N   0  0  1  0  0  0  0  0  0  0  0  0
    1.6890   -1.0100    1.0540 C   0  0  0  0  0  0  0  0  0  0  0  0
    2.9150   -1.1790    1.9440 C   0  0  0  0  0  0  0  0  0  0  0  0
    4.0860   -0.8980    1.0560 C   0  0  0  0  0  0  0  0  0  0  0  0
    5.1620   -1.6860    0.9690 N   0  0  0  0  0  0  0  0  0  0  0  0
    6.1580   -1.3150    0.1200 C   0  0  0  0  0  0  0  0  0  0  0  0
    7.2050   -2.0210   -0.0070 O   0  0  0  0  0  0  0  0  0  0  0  0
    6.0900   -0.1930   -0.6220 N   0  0  0  0  0  0  0  0  0  0  0  0
    5.0270    0.6300   -0.5670 C   0  0  0  0  0  0  0  0  0  0  0  0
    3.9950    0.2570    0.3040 C   0  0  0  0  0  0  0  0  0  0  0  0
    2.7790    1.0690    0.4590 C   0  0  0  0  0  0  0  0  0  0  0  0
   -1.5330    0.1180    0.6390 S   0  0  0  0  0  0  0  0  0  0  0  0
  1  2  2  0
  2  3  1  0
  3  4  2  3
  3  6  1  0
  4  5  1  0
  6  7  2  0
  6 23  1  0
  7  8  1  0
  8  9  1  0
  8 10  2  0
 10 11  1  0
 10 23  1  0
 12 11  1  6
 12 13  1  0
 12 22  1  0
 13 14  1  0
 14 15  1  0
 15 16  2  0
 15 21  1  0
 16 17  1  0
 17 18  2  0
 17 19  1  0
 19 20  1  0
 20 21  2  0
 21 22  1  0
M  CHG  1  12   1
M  END
