
     RDKit          3D

 23 25  0  0  0  0  0  0  0  0999 V2000
    8.7290   -0.3080    1.9160 N   0  0  0  0  0  0  0  0  0  0  0  0
    7.9370   -0.2410    1.5640 C   0  0  0  0  0  0  0  0  0  0  0  0
    6.5210   -0.1380    0.9110 C   0  0  0  0  0  0  0  0  0  0  0  0
    5.9370   -1.2800    0.4170 C   0  0  0  0  0  0  0  0  0  0  0  0
    4.6460   -1.1690   -0.1560 C   0  0  0  0  0  0  0  0  0  0  0  0
    4.0000    0.0370   -0.2180 C   0  0  0  0  0  0  0  0  0  0  0  0
    2.6420    0.0940   -0.7630 N   0  0  0  0  0  0  0  0  0  0  0  0
    1.8890   -0.9660   -0.8840 N   0  0  0  0  0  0  0  0  0  0  0  0
    0.7670   -1.4380   -0.7470 C   0  0  0  0  0  0  0  0  0  0  0  0
   -0.3910   -0.6710   -0.2440 C   0  0  0  0  0  0  0  0  0  0  0  0
   -0.2250    0.5310    0.3530 C   0  0  0  0  0  0  0  0  0  0  0  0
   -1.2710    1.3120    0.7660 C   0  0  0  0  0  0  0  0  0  0  0  0
   -2.5860    0.8020    0.5440 C   0  0  0  0  0  0  0  0  0  0  0  0
   -2.7640   -0.4300   -0.0660 C   0  0  0  0  0  0  0  0  0  0  0  0
   -1.6710   -1.1810   -0.4680 C   0  0  0  0  0  0  0  0  0  0  0  0
   -4.3810   -0.9440   -0.4090 S   0  0  1  0  0  0  0  0  0  0  0  0
   -4.4650   -1.7400   -1.7450 N   0  0  0  0  0  0  0  0  0  0  0  0
   -4.9650   -1.9260    0.5770 O   0  0  0  0  0  0  0  0  0  0  0  0
   -5.3460    0.5660   -0.5120 C   0  0  0  0  0  0  0  0  0  0  0  0
   -5.0780    1.2790    0.7780 C   0  0  0  0  0  0  0  0  0  0  0  0
   -3.6720    1.6320    1.0600 C   0  0  0  0  0  0  0  0  0  0  0  0
    4.5970    1.1510    0.2790 C   0  0  0  0  0  0  0  0  0  0  0  0
    5.8830    1.0530    0.8540 C   0  0  0  0  0  0  0  0  0  0  0  0
  1  2  3  0
  2  3  1  0
  3  4  2  0
  3 23  1  0
  4  5  1  0
  5  6  2  0
  6  7  1  0
  6 22  1  0
  7  8  1  0
  8  9  2  3
  9 10  1  0
 10 11  2  0
 10 15  1  0
 11 12  1  0
 12 13  2  0
 13 14  1  0
 13 21  1  0
 14 15  2  0
 14 16  1  0
 16 17  2  0
 16 18  2  0
 16 19  1  6
 19 20  1  0
 20 21  1  0
 22 23  2  0
M  CHG  1  17   1
M  END
