
     RDKit          3D

 23 25  0  0  0  0  0  0  0  0999 V2000
    5.6240    0.4920    1.2310 C   0  0  0  0  0  0  0  0  0  0  0  0
    4.4020    0.0370    2.0110 C   0  0  0  0  0  0  0  0  0  0  0  0
    3.4540   -0.6330    1.0980 C   0  0  0  0  0  0  0  0  0  0  0  0
    3.1310   -1.8530    1.3080 N   0  0  0  0  0  0  0  0  0  0  0  0
    2.8840    0.0450   -0.0180 N   0  0  0  0  0  0  0  0  0  0  0  0
    2.7020   -0.6200   -1.2920 C   0  0  0  0  0  0  0  0  0  0  0  0
    2.5920    0.4080   -2.3660 C   0  0  0  0  0  0  0  0  0  0  0  0
    1.3930    1.3170   -2.1760 C   0  0  0  0  0  0  0  0  0  0  0  0
    1.1860    1.5970   -0.7020 C   0  0  1  0  0  0  0  0  0  0  0  0
    0.1440    0.6930   -0.1420 C   0  0  0  0  0  0  0  0  0  0  0  0
    0.4900   -0.0670    0.7860 O   0  0  0  0  0  0  0  0  0  0  0  0
   -1.1720    0.6660   -0.6030 N   0  0  0  0  0  0  0  0  0  0  0  0
   -2.2430   -0.1510   -0.1550 C   0  0  0  0  0  0  0  0  0  0  0  0
   -1.9790   -1.2820    0.5700 C   0  0  0  0  0  0  0  0  0  0  0  0
   -3.0540   -2.0390    1.0150 C   0  0  0  0  0  0  0  0  0  0  0  0
   -4.3660   -1.6400    0.7190 C   0  0  0  0  0  0  0  0  0  0  0  0
   -5.9600   -2.2820    1.0780 S   0  0  0  0  0  0  0  0  0  0  0  0
   -6.8250   -0.8450    0.1400 C   0  0  0  0  0  0  0  0  0  0  0  0
   -8.3490   -0.9270    0.1470 C   0  0  0  0  0  0  0  0  0  0  0  0
   -5.9130   -0.2650   -0.2000 N   0  0  0  0  0  0  0  0  0  0  0  0
   -4.6290   -0.4780   -0.0260 C   0  0  0  0  0  0  0  0  0  0  0  0
   -3.5440    0.2410   -0.4460 C   0  0  0  0  0  0  0  0  0  0  0  0
    2.4620    1.4360    0.0740 C   0  0  0  0  0  0  0  0  0  0  0  0
  1  2  1  0
  2  3  1  0
  3  4  2  0
  3  5  1  0
  5  6  1  0
  5 23  1  0
  6  7  1  0
  7  8  1  0
  8  9  1  0
  9 10  1  1
  9 23  1  0
 10 11  2  0
 10 12  1  0
 12 13  1  0
 13 14  2  0
 13 22  1  0
 14 15  1  0
 15 16  2  0
 16 17  1  0
 16 21  1  0
 17 18  1  0
 18 19  1  0
 18 20  2  0
 20 21  1  0
 21 22  2  0
M  CHG  1   4   1
M  END
