
     RDKit          3D

 30 32  0  0  0  0  0  0  0  0999 V2000
    7.6510   -1.8980    0.4710 C   0  0  0  0  0  0  0  0  0  0  0  0
    6.8960   -2.4310   -0.6750 C   0  0  0  0  0  0  0  0  0  0  0  0
    5.6720   -1.9410   -0.9480 C   0  0  0  0  0  0  0  0  0  0  0  0
    4.9570   -2.4730   -2.0660 C   0  0  0  0  0  0  0  0  0  0  0  0
    3.7800   -2.1200   -2.4630 C   0  0  0  0  0  0  0  0  0  0  0  0
    2.9410   -1.1130   -1.8620 C   0  0  0  0  0  0  0  0  0  0  0  0
    1.7580   -0.8510   -2.3730 C   0  0  0  0  0  0  0  0  0  0  0  0
    0.9050    0.1840   -1.7460 C   0  0  0  0  0  0  0  0  0  0  0  0
   -0.7880    0.3960   -2.5960 Br  0  0  0  0  0  0  0  0  0  0  0  0
    1.2280    0.8780   -0.7050 C   0  0  0  0  0  0  0  0  0  0  0  0
    0.5480    1.8890    0.0060 C   0  0  0  0  0  0  0  0  0  0  0  0
    1.3640    2.2400    1.0700 O   0  0  0  0  0  0  0  0  0  0  0  0
   -0.5950    2.6180    0.0110 N   0  0  0  0  0  0  0  0  0  0  0  0
   -0.7270    3.5890    1.2390 C   0  0  0  0  0  0  0  0  0  0  0  0
   -1.7560    2.8120   -0.7930 C   0  0  0  0  0  0  0  0  0  0  0  0
   -2.8080    1.8560   -0.3800 C   0  0  0  0  0  0  0  0  0  0  0  0
   -2.5520    0.9360    0.6540 C   0  0  0  0  0  0  0  0  0  0  0  0
   -3.5010    0.0460    1.0410 C   0  0  0  0  0  0  0  0  0  0  0  0
   -4.7270    0.0470    0.4140 C   0  0  0  0  0  0  0  0  0  0  0  0
   -5.0140    0.9030   -0.5730 N   0  0  0  0  0  0  0  0  0  0  0  0
   -4.0630    1.7820   -0.9490 C   0  0  0  0  0  0  0  0  0  0  0  0
   -4.3370    2.5870   -1.8800 O   0  0  0  0  0  0  0  0  0  0  0  0
   -5.7290   -0.9630    0.9070 C   0  0  2  0  0  0  0  0  0  0  0  0
   -6.3620   -0.3190    2.0930 C   0  0  0  0  0  0  0  0  0  0  0  0
   -6.8710    0.1870    3.0070 N   0  0  0  0  0  0  0  0  0  0  0  0
   -5.1800   -2.1550    1.2690 O   0  0  0  0  0  0  0  0  0  0  0  0
   -3.8560   -2.2460    1.5200 C   0  0  0  0  0  0  0  0  0  0  0  0
   -3.2900   -0.9440    2.0970 C   0  0  0  0  0  0  0  0  0  0  0  0
    2.6270    0.5500   -0.1000 C   0  0  0  0  0  0  0  0  0  0  0  0
    3.3060   -0.3940   -0.7650 O   0  0  0  0  0  0  0  0  0  0  0  0
  1  2  1  0
  2  3  2  3
  3  4  1  0
  4  5  2  3
  5  6  1  0
  6  7  2  0
  6 30  1  0
  7  8  1  0
  8  9  1  0
  8 10  2  0
 10 11  1  0
 10 29  1  0
 11 12  2  0
 11 13  1  0
 13 14  1  0
 13 15  1  0
 15 16  1  0
 16 17  2  0
 16 21  1  0
 17 18  1  0
 18 19  2  0
 18 28  1  0
 19 20  1  0
 19 23  1  0
 20 21  1  0
 21 22  2  0
 23 24  1  1
 23 26  1  0
 24 25  3  0
 26 27  1  0
 27 28  1  0
 29 30  1  0
M  END
