
     RDKit          3D

 30 32  0  0  0  0  0  0  0  0999 V2000
    8.4450    0.9780    0.1840 O   0  0  0  0  0  0  0  0  0  0  0  0
    8.5490   -0.2770    0.2180 C   0  0  0  0  0  0  0  0  0  0  0  0
    7.4220   -1.1340   -0.1410 C   0  0  0  0  0  0  0  0  0  0  0  0
    7.4300   -2.4440   -0.1370 C   0  0  0  0  0  0  0  0  0  0  0  0
    6.1090   -2.9860   -0.5580 C   0  0  0  0  0  0  0  0  0  0  0  0
    5.3010   -1.8120   -0.8150 N   0  0  0  0  0  0  0  0  0  0  0  0
    3.9580   -1.7590   -1.2430 C   0  0  0  0  0  0  0  0  0  0  0  0
    3.3510   -2.8640   -1.4350 O   0  0  0  0  0  0  0  0  0  0  0  0
    3.2200   -0.5050   -1.4780 C   0  0  0  0  0  0  0  0  0  0  0  0
    1.8060   -0.7910   -1.9280 C   0  0  0  0  0  0  0  0  0  0  0  0
    1.0380    0.4260   -2.1730 C   0  0  0  0  0  0  0  0  0  0  0  0
    1.5810    1.6950   -3.4650 Br  0  0  0  0  0  0  0  0  0  0  0  0
   -0.1000    0.6630   -1.4580 C   0  0  0  0  0  0  0  0  0  0  0  0
   -0.8790    1.8320   -1.6610 C   0  0  0  0  0  0  0  0  0  0  0  0
   -1.9110    2.4590   -1.3200 C   0  0  0  0  0  0  0  0  0  0  0  0
   -3.0830    2.4430   -0.4710 C   0  0  0  0  0  0  0  0  0  0  0  0
   -3.8450    3.5740   -0.4060 C   0  0  0  0  0  0  0  0  0  0  0  0
   -5.0550    3.8060    0.3620 C   0  0  0  0  0  0  0  0  0  0  0  0
   -5.6800    2.5580    0.9380 C   0  0  0  0  0  0  0  0  0  0  0  0
   -4.5630    1.6100    1.2930 C   0  0  0  0  0  0  0  0  0  0  0  0
   -4.5870    1.0200    2.3620 O   0  0  0  0  0  0  0  0  0  0  0  0
   -3.4560    1.3880    0.3870 N   0  0  0  0  0  0  0  0  0  0  0  0
   -3.0970    0.0490    0.0930 C   0  0  0  0  0  0  0  0  0  0  0  0
   -2.6900   -0.1360   -1.1080 O   0  0  0  0  0  0  0  0  0  0  0  0
   -3.1220   -1.1300    0.9350 C   0  0  2  0  0  0  0  0  0  0  0  0
   -4.4660   -1.7050    1.2210 C   0  0  0  0  0  0  0  0  0  0  0  0
   -4.3720   -2.1500    2.6500 C   0  0  0  0  0  0  0  0  0  0  0  0
   -3.2230   -1.7620    3.1910 C   0  0  0  0  0  0  0  0  0  0  0  0
   -2.3760   -1.0150    2.2450 C   0  0  0  0  0  0  0  0  0  0  0  0
    6.1120   -0.7090   -0.5580 N   0  0  0  0  0  0  0  0  0  0  0  0
  1  2  2  0
  2  3  1  0
  3  4  2  0
  3 30  1  0
  4  5  1  0
  5  6  1  0
  6  7  1  0
  6 30  1  0
  7  8  2  0
  7  9  1  0
  9 10  1  0
 10 11  1  0
 11 12  1  0
 11 13  2  3
 13 14  1  0
 14 15  2  3
 15 16  1  0
 16 17  2  0
 16 22  1  0
 17 18  1  0
 18 19  1  0
 19 20  1  0
 20 21  2  0
 20 22  1  0
 22 23  1  0
 23 24  2  0
 25 23  1  1
 25 26  1  0
 25 29  1  0
 26 27  1  0
 27 28  2  0
 28 29  1  0
M  END
