
     RDKit          3D

 30 32  0  0  0  0  0  0  0  0999 V2000
   -2.5510   -1.5220   -3.3100 C   0  0  0  0  0  0  0  0  0  0  0  0
   -1.5650   -0.9100   -2.3630 C   0  0  0  0  0  0  0  0  0  0  0  0
   -2.0470   -0.7900   -0.9370 C   0  0  1  0  0  0  0  0  0  0  0  0
   -2.3520   -2.1590   -0.4160 C   0  0  0  0  0  0  0  0  0  0  0  0
   -3.2730   -2.7750   -1.2440 O   0  0  0  0  0  0  0  0  0  0  0  0
   -1.1040   -0.0840   -0.1060 N   0  0  0  0  0  0  0  0  0  0  0  0
   -1.5010    1.1520    0.4600 C   0  0  0  0  0  0  0  0  0  0  0  0
   -2.6970    1.3320    0.7560 O   0  0  0  0  0  0  0  0  0  0  0  0
   -0.4740    2.2390    0.7000 C   0  0  1  0  0  0  0  0  0  0  0  0
   -1.1080    3.2490    1.6340 C   0  0  0  0  0  0  0  0  0  0  0  0
   -0.2510    4.3840    1.9640 C   0  0  0  0  0  0  0  0  0  0  0  0
    0.8880    4.4850    1.4620 O   0  0  0  0  0  0  0  0  0  0  0  0
   -0.6610    5.3750    2.8290 O   0  0  0  0  0  0  0  0  0  0  0  0
    0.7280    1.5900    1.2540 C   0  0  0  0  0  0  0  0  0  0  0  0
    1.2390    0.4620    0.4550 C   0  0  2  0  0  0  0  0  0  0  0  0
    2.0640    0.8050   -0.7170 C   0  0  0  0  0  0  0  0  0  0  0  0
    2.6230   -0.2120   -1.4460 C   0  0  0  0  0  0  0  0  0  0  0  0
    3.4120    0.1030   -2.5350 C   0  0  0  0  0  0  0  0  0  0  0  0
    3.6640    1.4000   -2.9230 C   0  0  0  0  0  0  0  0  0  0  0  0
    3.1030    2.4160   -2.1910 C   0  0  0  0  0  0  0  0  0  0  0  0
    3.4050    4.0660   -2.6590 Cl  0  0  0  0  0  0  0  0  0  0  0  0
    2.3040    2.1030   -1.0880 C   0  0  0  0  0  0  0  0  0  0  0  0
    0.2070   -0.6150    0.1410 C   0  0  1  0  0  0  0  0  0  0  0  0
    0.2430   -1.6150    1.2230 C   0  0  0  0  0  0  0  0  0  0  0  0
    1.0210   -2.7390    1.0520 C   0  0  0  0  0  0  0  0  0  0  0  0
    1.0940   -3.7290    2.0410 C   0  0  0  0  0  0  0  0  0  0  0  0
    0.3810   -3.5850    3.2040 C   0  0  0  0  0  0  0  0  0  0  0  0
    0.4860   -4.8360    4.4310 Cl  0  0  0  0  0  0  0  0  0  0  0  0
   -0.4040   -2.4690    3.3980 C   0  0  0  0  0  0  0  0  0  0  0  0
   -0.4460   -1.5230    2.3990 C   0  0  0  0  0  0  0  0  0  0  0  0
  1  2  1  0
  3  2  1  6
  3  4  1  0
  3  6  1  0
  4  5  1  0
  6  7  1  0
  6 23  1  0
  7  8  2  0
  7  9  1  0
  9 10  1  1
  9 14  1  0
 10 11  1  0
 11 12  2  0
 11 13  1  0
 14 15  1  0
 15 16  1  6
 15 23  1  0
 16 17  2  0
 16 22  1  0
 17 18  1  0
 18 19  2  0
 19 20  1  0
 20 21  1  0
 20 22  2  0
 23 24  1  1
 24 25  2  0
 24 30  1  0
 25 26  1  0
 26 27  2  0
 27 28  1  0
 27 29  1  0
 29 30  2  0
M  END
