
     RDKit          3D

 30 32  0  0  0  0  0  0  0  0999 V2000
   -4.6490    2.2460    2.6800 C   0  0  0  0  0  0  0  0  0  0  0  0
   -3.9380    1.2980    1.8110 C   0  0  0  0  0  0  0  0  0  0  0  0
   -4.4980    0.5270    0.9400 C   0  0  0  0  0  0  0  0  0  0  0  0
   -5.9510    0.5060    0.7090 C   0  0  0  0  0  0  0  0  0  0  0  0
   -7.0170    0.9690    2.1950 Br  0  0  0  0  0  0  0  0  0  0  0  0
   -6.6030    0.1700   -0.4250 C   0  0  0  0  0  0  0  0  0  0  0  0
   -6.1190   -0.2650   -1.7380 C   0  0  0  0  0  0  0  0  0  0  0  0
   -4.7440    0.1670   -2.0850 C   0  0  0  0  0  0  0  0  0  0  0  0
   -3.7010   -0.4850   -1.2000 C   0  0  0  0  0  0  0  0  0  0  0  0
   -3.5720   -0.3440    0.1180 C   0  0  0  0  0  0  0  0  0  0  0  0
   -2.5260   -0.9550    0.8770 C   0  0  0  0  0  0  0  0  0  0  0  0
   -2.5620   -0.7870    2.1860 O   0  0  0  0  0  0  0  0  0  0  0  0
   -1.4390   -1.7210    0.4760 N   0  0  0  0  0  0  0  0  0  0  0  0
   -0.5980   -2.2450    1.5940 C   0  0  0  0  0  0  0  0  0  0  0  0
    0.7990   -1.6660    1.5260 C   0  0  0  0  0  0  0  0  0  0  0  0
    1.1760   -1.7500    0.1200 N   0  0  0  0  0  0  0  0  0  0  0  0
    2.2640   -0.9920   -0.3700 C   0  0  0  0  0  0  0  0  0  0  0  0
    2.6390   -1.0190   -1.5640 O   0  0  0  0  0  0  0  0  0  0  0  0
    2.9910   -0.1420    0.5270 N   0  0  0  0  0  0  0  0  0  0  0  0
    4.1070    0.6470    0.0540 C   0  0  1  0  0  0  0  0  0  0  0  0
    4.6670    1.4130    1.2210 C   0  0  0  0  0  0  0  0  0  0  0  0
    5.1590   -0.3000   -0.4010 C   0  0  0  0  0  0  0  0  0  0  0  0
    4.9940   -1.5450   -0.3370 O   0  0  0  0  0  0  0  0  0  0  0  0
    6.3720    0.1490   -0.9170 O   0  0  0  0  0  0  0  0  0  0  0  0
    7.3370   -0.7860   -1.3350 C   0  0  0  0  0  0  0  0  0  0  0  0
    3.7310    1.5070   -1.1080 C   0  0  1  0  0  0  0  0  0  0  0  0
    2.6100    2.5060   -0.8060 C   0  0  0  0  0  0  0  0  0  0  0  0
    3.9910    2.9470   -1.1710 C   0  0  0  0  0  0  0  0  0  0  0  0
    0.4370   -2.6050   -0.7590 C   0  0  0  0  0  0  0  0  0  0  0  0
   -1.0090   -2.0440   -0.8220 C   0  0  0  0  0  0  0  0  0  0  0  0
  1  2  1  0
  2  3  2  3
  3  4  1  0
  3 10  1  0
  4  5  1  0
  4  6  2  0
  6  7  1  0
  7  8  1  0
  8  9  1  0
  9 10  2  0
 10 11  1  0
 11 12  2  0
 11 13  1  0
 13 14  1  0
 13 30  1  0
 14 15  1  0
 15 16  1  0
 16 17  1  0
 16 29  1  0
 17 18  2  0
 17 19  1  0
 19 20  1  0
 20 21  1  1
 20 22  1  0
 20 26  1  0
 22 23  2  0
 22 24  1  0
 24 25  1  0
 26 27  1  1
 26 28  1  0
 27 28  1  0
 29 30  1  0
M  END
