
     RDKit          3D

 41 42  0  0  0  0  0  0  0  0999 V2000
   -7.9590    0.8820   -1.8410 C   0  0  0  0  0  0  0  0  0  0  0  0
   -7.9850    0.9300   -0.3440 C   0  0  0  0  0  0  0  0  0  0  0  0
   -6.6760    1.1650    0.2450 N   0  0  1  0  0  0  0  0  0  0  0  0
   -6.5420    2.6210    0.3910 C   0  0  0  0  0  0  0  0  0  0  0  0
   -5.6580    3.1500   -0.7010 C   0  0  0  0  0  0  0  0  0  0  0  0
   -5.4990    4.5340   -0.6060 O   0  0  0  0  0  0  0  0  0  0  0  0
   -6.5950    0.5280    1.5250 C   0  0  0  0  0  0  0  0  0  0  0  0
   -5.5740   -0.5940    1.5050 C   0  0  2  0  0  0  0  0  0  0  0  0
   -5.5000   -1.1610    2.9550 C   0  0  0  0  0  0  0  0  0  0  0  0
   -4.2930   -0.1760    1.1790 O   0  0  0  0  0  0  0  0  0  0  0  0
   -3.3620   -0.8680    0.4420 C   0  0  0  0  0  0  0  0  0  0  0  0
   -3.6050   -2.1340   -0.0300 C   0  0  0  0  0  0  0  0  0  0  0  0
   -2.6050   -2.7400   -0.7570 C   0  0  0  0  0  0  0  0  0  0  0  0
   -1.3960   -2.1190   -1.0160 C   0  0  0  0  0  0  0  0  0  0  0  0
   -0.3700   -2.8500   -1.7630 C   0  0  2  0  0  0  0  0  0  0  0  0
   -1.0570   -4.0600   -2.4340 C   0  0  0  0  0  0  0  0  0  0  0  0
    0.6430   -3.4790   -0.8600 C   0  0  0  0  0  0  0  0  0  0  0  0
    0.1650   -4.3840    0.2050 C   0  0  0  0  0  0  0  0  0  0  0  0
    1.8080   -3.2420   -1.0130 O   0  0  0  0  0  0  0  0  0  0  0  0
   -1.1350   -0.8460   -0.5510 C   0  0  0  0  0  0  0  0  0  0  0  0
    0.0870   -0.2280   -0.8580 N   0  0  0  0  0  0  0  0  0  0  0  0
    0.5560    1.0460   -0.5490 C   0  0  0  0  0  0  0  0  0  0  0  0
   -0.2460    1.7880    0.1290 O   0  0  0  0  0  0  0  0  0  0  0  0
    1.7980    1.6370   -0.8900 N   0  0  0  0  0  0  0  0  0  0  0  0
    1.9890    3.0710   -0.5170 C   0  0  0  0  0  0  0  0  0  0  0  0
    2.8370    0.9090   -1.4940 C   0  0  0  0  0  0  0  0  0  0  0  0
    3.9180    0.4010   -0.5840 C   0  0  0  0  0  0  0  0  0  0  0  0
    5.1130    0.8580   -0.8880 C   0  0  0  0  0  0  0  0  0  0  0  0
    6.3390    0.5360   -0.1990 C   0  0  0  0  0  0  0  0  0  0  0  0
    6.8970   -0.7240   -0.1070 C   0  0  0  0  0  0  0  0  0  0  0  0
    8.0490   -1.0240    0.5490 C   0  0  0  0  0  0  0  0  0  0  0  0
    8.5990   -2.3910    0.6130 C   0  0  0  0  0  0  0  0  0  0  0  0
    8.7310   -0.0060    1.1800 C   0  0  0  0  0  0  0  0  0  0  0  0
    8.2370    1.2950    1.1360 C   0  0  0  0  0  0  0  0  0  0  0  0
    7.0680    1.5450    0.4600 C   0  0  0  0  0  0  0  0  0  0  0  0
    6.5370    2.8690    0.4040 N   0  0  0  0  0  0  0  0  0  0  0  0
    7.1690    4.0050    1.0270 C   0  0  0  0  0  0  0  0  0  0  0  0
    3.6820   -0.4140    0.5500 C   0  0  0  0  0  0  0  0  0  0  0  0
    4.6750   -0.7900    1.4660 N   0  0  0  0  0  0  0  0  0  0  0  0
    2.5270   -0.8460    0.7830 O   0  0  0  0  0  0  0  0  0  0  0  0
   -2.1260   -0.2370    0.1740 C   0  0  0  0  0  0  0  0  0  0  0  0
  1  2  1  0
  3  2  1  1
  3  4  1  0
  3  7  1  0
  4  5  1  0
  5  6  1  0
  7  8  1  0
  8  9  1  1
  8 10  1  0
 10 11  1  0
 11 12  2  0
 11 41  1  0
 12 13  1  0
 13 14  2  0
 14 15  1  0
 14 20  1  0
 15 16  1  1
 15 17  1  0
 17 18  1  0
 17 19  2  0
 20 21  1  0
 20 41  2  0
 21 22  1  0
 22 23  2  0
 22 24  1  0
 24 25  1  0
 24 26  1  0
 26 27  1  0
 27 28  2  3
 27 38  1  0
 28 29  1  0
 29 30  2  0
 29 35  1  0
 30 31  1  0
 31 32  1  0
 31 33  2  0
 33 34  1  0
 34 35  2  0
 35 36  1  0
 36 37  1  0
 38 39  1  0
 38 40  2  0
M  CHG  1   3   1
M  END
