
     RDKit          3D

 42 46  0  0  0  0  0  0  0  0999 V2000
    7.1340   -3.6850    4.1190 C   0  0  0  0  0  0  0  0  0  0  0  0
    7.5080   -2.8310    3.0800 O   0  0  0  0  0  0  0  0  0  0  0  0
    6.7280   -1.8660    2.4870 C   0  0  0  0  0  0  0  0  0  0  0  0
    5.4270   -1.5890    2.8380 C   0  0  0  0  0  0  0  0  0  0  0  0
    4.7000   -0.6070    2.2020 C   0  0  0  0  0  0  0  0  0  0  0  0
    5.2720    0.1370    1.1790 C   0  0  0  0  0  0  0  0  0  0  0  0
    4.3580    1.3950    0.3970 S   0  0  1  0  0  0  0  0  0  0  0  0
    3.5820    2.0810    1.5190 O   0  0  0  0  0  0  0  0  0  0  0  0
    5.2990    2.4740   -0.1380 O   0  0  0  0  0  0  0  0  0  0  0  0
    3.3730    0.9020   -0.8640 N   0  0  0  0  0  0  0  0  0  0  0  0
    3.9230    0.3040   -2.0050 C   0  0  0  0  0  0  0  0  0  0  0  0
    3.6880   -1.1470   -2.2330 C   0  0  2  0  0  0  0  0  0  0  0  0
    4.2140   -2.0080   -1.1330 C   0  0  0  0  0  0  0  0  0  0  0  0
    4.4780   -1.5360   -3.4940 C   0  0  0  0  0  0  0  0  0  0  0  0
    2.1380    1.6230   -1.0370 C   0  0  0  0  0  0  0  0  0  0  0  0
    1.0290    0.9130   -0.3020 C   0  0  1  0  0  0  0  0  0  0  0  0
    1.3400    0.8490    1.0300 O   0  0  0  0  0  0  0  0  0  0  0  0
   -0.3210    1.5430   -0.5700 C   0  0  2  0  0  0  0  0  0  0  0  0
   -0.3790    2.9780   -0.1560 C   0  0  0  0  0  0  0  0  0  0  0  0
   -1.7290    3.4990   -0.4590 C   0  0  0  0  0  0  0  0  0  0  0  0
   -2.0340    4.0790   -1.6720 C   0  0  0  0  0  0  0  0  0  0  0  0
   -3.3150    4.5540   -1.9140 C   0  0  0  0  0  0  0  0  0  0  0  0
   -4.3110    4.4630   -0.9650 C   0  0  0  0  0  0  0  0  0  0  0  0
   -4.0040    3.8810    0.2530 C   0  0  0  0  0  0  0  0  0  0  0  0
   -2.7140    3.4080    0.4830 C   0  0  0  0  0  0  0  0  0  0  0  0
   -1.3020    0.7200    0.1110 N   0  0  0  0  0  0  0  0  0  0  0  0
   -2.2650   -0.0470   -0.5910 C   0  0  0  0  0  0  0  0  0  0  0  0
   -2.2320    0.0200   -1.8450 O   0  0  0  0  0  0  0  0  0  0  0  0
   -3.2130   -0.8410   -0.0140 O   0  0  0  0  0  0  0  0  0  0  0  0
   -4.1140   -1.5540   -0.8300 C   0  0  1  0  0  0  0  0  0  0  0  0
   -4.0970   -3.0230   -0.6120 C   0  0  0  0  0  0  0  0  0  0  0  0
   -5.4030   -3.4600   -0.4150 O   0  0  0  0  0  0  0  0  0  0  0  0
   -6.2370   -2.4840   -0.9480 C   0  0  1  0  0  0  0  0  0  0  0  0
   -7.4350   -2.3600   -0.2870 O   0  0  0  0  0  0  0  0  0  0  0  0
   -7.2020   -1.7680    0.9420 C   0  0  2  0  0  0  0  0  0  0  0  0
   -8.1990   -0.8720    1.2370 O   0  0  0  0  0  0  0  0  0  0  0  0
   -7.6180    0.2090    1.8820 C   0  0  0  0  0  0  0  0  0  0  0  0
   -6.2990    0.4030    1.1780 C   0  0  0  0  0  0  0  0  0  0  0  0
   -5.9020   -1.0200    0.8510 C   0  0  2  0  0  0  0  0  0  0  0  0
   -5.5410   -1.1860   -0.6010 C   0  0  1  0  0  0  0  0  0  0  0  0
    6.5770   -0.1140    0.8000 C   0  0  0  0  0  0  0  0  0  0  0  0
    7.2700   -1.0950    1.4510 C   0  0  0  0  0  0  0  0  0  0  0  0
  1  2  1  0
  2  3  1  0
  3  4  2  0
  3 42  1  0
  4  5  1  0
  5  6  2  0
  6  7  1  0
  6 41  1  0
  7  8  2  0
  7  9  2  0
  7 10  1  6
 10 11  1  0
 10 15  1  0
 11 12  1  0
 12 13  1  1
 12 14  1  0
 15 16  1  0
 16 17  1  1
 16 18  1  0
 18 19  1  1
 18 26  1  0
 19 20  1  0
 20 21  2  0
 20 25  1  0
 21 22  1  0
 22 23  2  0
 23 24  1  0
 24 25  2  0
 26 27  1  0
 27 28  2  0
 27 29  1  0
 30 29  1  1
 30 31  1  0
 40 30  1  1
 31 32  1  0
 33 32  1  1
 33 34  1  0
 33 40  1  0
 35 34  1  6
 35 36  1  0
 35 39  1  0
 36 37  1  0
 37 38  1  0
 39 38  1  6
 39 40  1  0
 41 42  2  0
M  END
