
     RDKit          3D

 41 43  0  0  0  0  0  0  0  0999 V2000
    7.1130   -2.9910   -1.8780 C   0  0  0  0  0  0  0  0  0  0  0  0
    6.2590   -1.8710   -2.2900 N   0  0  0  0  0  0  0  0  0  0  0  0
    5.4580   -1.2100   -1.3400 C   0  0  0  0  0  0  0  0  0  0  0  0
    5.6050   -0.0710   -0.7330 C   0  0  0  0  0  0  0  0  0  0  0  0
    6.7360    0.8480   -0.9300 C   0  0  0  0  0  0  0  0  0  0  0  0
    6.8240    1.9900   -0.2470 C   0  0  0  0  0  0  0  0  0  0  0  0
    7.9240    2.9750   -0.3870 C   0  0  0  0  0  0  0  0  0  0  0  0
    8.9250    2.5560   -1.2530 O   0  0  0  0  0  0  0  0  0  0  0  0
    8.8850    1.4020   -1.9820 C   0  0  0  0  0  0  0  0  0  0  0  0
    7.8400    0.5800   -1.8310 C   0  0  0  0  0  0  0  0  0  0  0  0
    4.5970    0.3680    0.3210 C   0  0  1  0  0  0  0  0  0  0  0  0
    3.7960    1.4310   -0.4370 C   0  0  0  0  0  0  0  0  0  0  0  0
    2.7600    2.1230    0.3430 C   0  0  0  0  0  0  0  0  0  0  0  0
    1.9990    1.3470    1.3470 C   0  0  0  0  0  0  0  0  0  0  0  0
    1.3320    0.1550    0.7270 C   0  0  2  0  0  0  0  0  0  0  0  0
    0.3680   -0.4920    1.5820 N   0  0  1  0  0  0  0  0  0  0  0  0
    0.2460   -0.0070    2.9010 C   0  0  0  0  0  0  0  0  0  0  0  0
   -1.0710    0.6270    3.2830 C   0  0  0  0  0  0  0  0  0  0  0  0
   -1.4030    1.7290    2.5010 O   0  0  0  0  0  0  0  0  0  0  0  0
   -0.9310   -0.7230    0.9260 C   0  0  0  0  0  0  0  0  0  0  0  0
   -0.8630   -1.7990   -0.0860 C   0  0  1  0  0  0  0  0  0  0  0  0
   -0.4890   -3.0550    0.3940 O   0  0  0  0  0  0  0  0  0  0  0  0
   -2.0840   -2.0200   -0.9380 C   0  0  0  0  0  0  0  0  0  0  0  0
   -2.6610   -0.8550   -1.5140 N   0  0  0  0  0  0  0  0  0  0  0  0
   -1.9920   -0.4530   -2.8010 C   0  0  0  0  0  0  0  0  0  0  0  0
   -3.7300   -0.0770   -1.0430 C   0  0  0  0  0  0  0  0  0  0  0  0
   -3.9620    0.9820   -1.7900 O   0  0  0  0  0  0  0  0  0  0  0  0
   -4.5760   -0.2250    0.0490 N   0  0  0  0  0  0  0  0  0  0  0  0
   -4.6450   -1.2210    1.0580 C   0  0  0  0  0  0  0  0  0  0  0  0
   -5.5700   -2.3520    0.6260 C   0  0  0  0  0  0  0  0  0  0  0  0
   -6.8430   -1.8450    0.4020 O   0  0  0  0  0  0  0  0  0  0  0  0
   -7.7240   -2.8450    0.0150 C   0  0  0  0  0  0  0  0  0  0  0  0
   -5.6050    0.8220    0.1890 C   0  0  0  0  0  0  0  0  0  0  0  0
   -6.6450    0.8890   -0.7050 C   0  0  0  0  0  0  0  0  0  0  0  0
   -7.6280    1.8750   -0.5850 C   0  0  0  0  0  0  0  0  0  0  0  0
   -7.5520    2.7900    0.4420 C   0  0  0  0  0  0  0  0  0  0  0  0
   -8.5520    3.8110    0.5830 N   0  0  0  0  0  0  0  0  0  0  0  0
   -6.4980    2.6990    1.3240 C   0  0  0  0  0  0  0  0  0  0  0  0
   -5.5120    1.7180    1.2120 C   0  0  0  0  0  0  0  0  0  0  0  0
    2.3420   -0.8100    0.1290 C   0  0  0  0  0  0  0  0  0  0  0  0
    3.6800   -0.7260    0.7400 C   0  0  0  0  0  0  0  0  0  0  0  0
  1  2  1  0
  2  3  1  0
  3  4  2  3
  4  5  1  0
 11  4  1  6
  5  6  2  0
  5 10  1  0
  6  7  1  0
  7  8  1  0
  8  9  1  0
  9 10  2  0
 11 12  1  0
 11 41  1  0
 12 13  1  0
 13 14  1  0
 15 14  1  1
 15 16  1  0
 15 40  1  0
 16 17  1  1
 16 20  1  0
 17 18  1  0
 18 19  1  0
 20 21  1  0
 21 22  1  1
 21 23  1  0
 23 24  1  0
 24 25  1  0
 24 26  1  0
 26 27  2  0
 26 28  1  0
 28 29  1  0
 28 33  1  0
 29 30  1  0
 30 31  1  0
 31 32  1  0
 33 34  2  0
 33 39  1  0
 34 35  1  0
 35 36  2  0
 36 37  1  0
 36 38  1  0
 38 39  2  0
 40 41  1  0
M  CHG  1  16   1
M  END
