
     RDKit          3D

 41 42  0  0  0  0  0  0  0  0999 V2000
   10.4720    1.2600    1.2030 C   0  0  0  0  0  0  0  0  0  0  0  0
    9.5700    0.7090    0.4230 C   0  0  0  0  0  0  0  0  0  0  0  0
    9.3160    1.2570   -0.9470 C   0  0  0  0  0  0  0  0  0  0  0  0
    7.9410    1.6820   -1.0700 N   0  0  0  0  0  0  0  0  0  0  0  0
    7.5920    3.0320   -0.7490 C   0  0  0  0  0  0  0  0  0  0  0  0
    6.9620    0.7560   -1.5070 C   0  0  0  0  0  0  0  0  0  0  0  0
    5.7590    1.1640   -1.6170 O   0  0  0  0  0  0  0  0  0  0  0  0
    7.2120   -0.5900   -1.8310 N   0  0  0  0  0  0  0  0  0  0  0  0
    6.1510   -1.4700   -2.2690 C   0  0  0  0  0  0  0  0  0  0  0  0
    5.2930   -1.8910   -1.1150 C   0  0  0  0  0  0  0  0  0  0  0  0
    5.8350   -2.7650   -0.2050 C   0  0  0  0  0  0  0  0  0  0  0  0
    5.0690   -3.1650    0.8550 C   0  0  0  0  0  0  0  0  0  0  0  0
    3.7600   -2.6700    0.9780 C   0  0  0  0  0  0  0  0  0  0  0  0
    3.1960   -1.8000    0.0910 C   0  0  0  0  0  0  0  0  0  0  0  0
    1.8530   -1.2200    0.2010 C   0  0  0  0  0  0  0  0  0  0  0  0
    1.5440   -0.6080   -0.9090 O   0  0  0  0  0  0  0  0  0  0  0  0
    0.9320   -1.2250    1.2350 N   0  0  0  0  0  0  0  0  0  0  0  0
    1.1900   -1.8280    2.5200 C   0  0  0  0  0  0  0  0  0  0  0  0
    0.1760   -1.3860    3.5830 C   0  0  0  0  0  0  0  0  0  0  0  0
   -0.2800    0.0110    3.4700 C   0  0  0  0  0  0  0  0  0  0  0  0
   -0.2940    0.5670    2.0890 C   0  0  0  0  0  0  0  0  0  0  0  0
   -0.3790   -0.6670    1.1510 C   0  0  1  0  0  0  0  0  0  0  0  0
   -0.9930   -0.2600   -0.1140 C   0  0  1  0  0  0  0  0  0  0  0  0
   -0.4080    0.7660   -0.8290 O   0  0  0  0  0  0  0  0  0  0  0  0
   -1.4230   -1.4070   -0.9930 C   0  0  0  0  0  0  0  0  0  0  0  0
   -2.0190   -0.8630   -2.2560 C   0  0  1  0  0  0  0  0  0  0  0  0
   -2.4650   -1.9770   -3.1910 C   0  0  0  0  0  0  0  0  0  0  0  0
   -3.1020    0.1190   -2.0800 C   0  0  0  0  0  0  0  0  0  0  0  0
   -3.0820    1.2170   -2.7400 O   0  0  0  0  0  0  0  0  0  0  0  0
   -4.2160   -0.0470   -1.2190 N   0  0  0  0  0  0  0  0  0  0  0  0
   -5.3020    0.9380   -1.0950 C   0  0  2  0  0  0  0  0  0  0  0  0
   -6.0110    1.0500   -2.4000 C   0  0  0  0  0  0  0  0  0  0  0  0
   -4.8100    2.2110   -0.5680 C   0  0  0  0  0  0  0  0  0  0  0  0
   -5.5500    3.4600   -0.3590 C   0  0  0  0  0  0  0  0  0  0  0  0
   -3.6040    2.2560   -0.2530 O   0  0  0  0  0  0  0  0  0  0  0  0
   -6.2650    0.3150   -0.0730 C   0  0  1  0  0  0  0  0  0  0  0  0
   -5.5980    0.1220    1.2400 C   0  0  0  0  0  0  0  0  0  0  0  0
   -7.6270    0.8750   -0.0990 C   0  0  0  0  0  0  0  0  0  0  0  0
   -8.6280    0.3180    0.8460 C   0  0  0  0  0  0  0  0  0  0  0  0
   -8.3350    0.4870    2.2470 N   0  0  0  0  0  0  0  0  0  0  0  0
    4.0220   -1.4200   -0.9810 C   0  0  0  0  0  0  0  0  0  0  0  0
  1  2  2  0
  2  3  1  0
  3  4  1  0
  4  5  1  0
  4  6  1  0
  6  7  2  0
  6  8  1  0
  8  9  1  0
  9 10  1  0
 10 11  2  0
 10 41  1  0
 11 12  1  0
 12 13  2  0
 13 14  1  0
 14 15  1  0
 14 41  2  0
 15 16  2  0
 15 17  1  0
 17 18  1  0
 17 22  1  0
 18 19  1  0
 19 20  1  0
 20 21  1  0
 22 21  1  1
 22 23  1  0
 23 24  1  6
 23 25  1  0
 25 26  1  0
 26 27  1  6
 26 28  1  0
 28 29  2  0
 28 30  1  0
 30 31  1  0
 31 32  1  6
 31 33  1  0
 31 36  1  0
 33 34  1  0
 33 35  2  0
 36 37  1  1
 36 38  1  0
 38 39  1  0
 39 40  1  0
M  CHG  1  40   1
M  END
