
     RDKit          3D

 41 43  0  0  0  0  0  0  0  0999 V2000
   -7.3920   -2.6260    4.2580 C   0  0  0  0  0  0  0  0  0  0  0  0
   -7.0030   -1.3740    3.5400 C   0  0  0  0  0  0  0  0  0  0  0  0
   -5.7840   -1.5510    2.7420 N   0  0  0  0  0  0  0  0  0  0  0  0
   -6.0950   -2.4530    1.6320 C   0  0  0  0  0  0  0  0  0  0  0  0
   -5.4400   -0.2260    2.2580 C   0  0  0  0  0  0  0  0  0  0  0  0
   -4.1590   -0.1780    1.5170 C   0  0  0  0  0  0  0  0  0  0  0  0
   -3.3430   -1.2840    1.3800 C   0  0  0  0  0  0  0  0  0  0  0  0
   -2.1320   -1.2200    0.7360 C   0  0  0  0  0  0  0  0  0  0  0  0
   -1.6310   -0.0410    0.1720 C   0  0  0  0  0  0  0  0  0  0  0  0
   -0.3740   -0.0790   -0.4810 N   0  0  0  0  0  0  0  0  0  0  0  0
    0.3920    1.0260   -0.8930 C   0  0  0  0  0  0  0  0  0  0  0  0
   -0.0090    2.1930   -0.6920 O   0  0  0  0  0  0  0  0  0  0  0  0
    1.6960    0.7840   -1.5750 C   0  0  2  0  0  0  0  0  0  0  0  0
    1.5720    0.0510   -2.8600 C   0  0  0  0  0  0  0  0  0  0  0  0
    2.3440   -1.2810   -2.7970 C   0  0  1  0  0  0  0  0  0  0  0  0
    2.1690   -2.0500   -4.0520 C   0  0  0  0  0  0  0  0  0  0  0  0
    2.8690   -3.3730   -3.9990 C   0  0  0  0  0  0  0  0  0  0  0  0
    4.2310   -3.3360   -3.8230 O   0  0  0  0  0  0  0  0  0  0  0  0
    3.7310   -0.8530   -2.4920 C   0  0  0  0  0  0  0  0  0  0  0  0
    4.7410   -0.9840   -3.1980 O   0  0  0  0  0  0  0  0  0  0  0  0
    3.8860   -0.2010   -1.2050 N   0  0  0  0  0  0  0  0  0  0  0  0
    5.1900   -0.0180   -0.7110 C   0  0  0  0  0  0  0  0  0  0  0  0
    5.9010   -1.0980   -0.3330 C   0  0  0  0  0  0  0  0  0  0  0  0
    5.4310   -2.4520   -0.3890 C   0  0  0  0  0  0  0  0  0  0  0  0
    4.3150   -2.8520   -0.7740 O   0  0  0  0  0  0  0  0  0  0  0  0
    6.3340   -3.4960    0.0450 N   0  0  0  0  0  0  0  0  0  0  0  0
    5.9140   -4.8740    0.0100 C   0  0  0  0  0  0  0  0  0  0  0  0
    5.8900    1.2850   -0.6050 C   0  0  0  0  0  0  0  0  0  0  0  0
    5.2110    2.2500    0.2860 C   0  0  2  0  0  0  0  0  0  0  0  0
    5.9670    3.5720    0.3880 C   0  0  0  0  0  0  0  0  0  0  0  0
    5.3220    4.1870    1.6320 C   0  0  0  0  0  0  0  0  0  0  0  0
    4.4220    3.0850    2.1960 C   0  0  0  0  0  0  0  0  0  0  0  0
    5.0820    1.8850    1.6570 N   0  0  0  0  0  0  0  0  0  0  0  0
    2.6430    0.1540   -0.5740 C   0  0  0  0  0  0  0  0  0  0  0  0
   -2.4380    1.0540    0.3060 C   0  0  0  0  0  0  0  0  0  0  0  0
   -3.6770    0.9840    0.9650 C   0  0  0  0  0  0  0  0  0  0  0  0
   -4.4710    2.2260    1.0040 C   0  0  0  0  0  0  0  0  0  0  0  0
   -5.4580    2.2180   -0.1340 C   0  0  0  0  0  0  0  0  0  0  0  0
   -6.2990    3.4930   -0.0910 C   0  0  0  0  0  0  0  0  0  0  0  0
   -7.2830    3.4740   -1.2340 C   0  0  0  0  0  0  0  0  0  0  0  0
   -8.1010    2.3580   -1.1020 O   0  0  0  0  0  0  0  0  0  0  0  0
  1  2  1  0
  2  3  1  0
  3  4  1  0
  3  5  1  0
  5  6  1  0
  6  7  2  0
  6 36  1  0
  7  8  1  0
  8  9  2  0
  9 10  1  0
  9 35  1  0
 10 11  1  0
 11 12  2  0
 13 11  1  1
 13 14  1  0
 13 34  1  0
 14 15  1  0
 15 16  1  6
 15 19  1  0
 16 17  1  0
 17 18  1  0
 19 20  2  0
 19 21  1  0
 21 22  1  0
 21 34  1  0
 22 23  2  3
 22 28  1  0
 23 24  1  0
 24 25  2  0
 24 26  1  0
 26 27  1  0
 29 28  1  6
 29 30  1  0
 29 33  1  0
 30 31  1  0
 31 32  1  0
 32 33  1  0
 35 36  2  0
 36 37  1  0
 37 38  1  0
 38 39  1  0
 39 40  1  0
 40 41  1  0
M  CHG  1  33   1
M  END
