
     RDKit          3D

 41 46  0  0  0  0  0  0  0  0999 V2000
    3.2440   -4.3470    0.0650 C   0  0  0  0  0  0  0  0  0  0  0  0
    1.8380   -3.8570    0.1820 C   0  0  0  0  0  0  0  0  0  0  0  0
    0.7390   -4.6760    0.2100 C   0  0  0  0  0  0  0  0  0  0  0  0
   -0.3360   -3.8080    0.3260 C   0  0  0  0  0  0  0  0  0  0  0  0
   -1.6840   -4.1070    0.4740 C   0  0  0  0  0  0  0  0  0  0  0  0
   -2.1240   -5.2910    0.4440 O   0  0  0  0  0  0  0  0  0  0  0  0
   -2.5630   -3.1070    0.6580 N   0  0  0  0  0  0  0  0  0  0  0  0
   -2.1360   -1.8280    0.6920 C   0  0  0  0  0  0  0  0  0  0  0  0
   -2.7450   -0.6590    0.9130 N   0  0  0  0  0  0  0  0  0  0  0  0
   -1.8780    0.3380    0.8970 N   0  0  0  0  0  0  0  0  0  0  0  0
   -2.2540    1.7000    1.1190 C   0  0  0  0  0  0  0  0  0  0  0  0
   -2.5330    2.3670   -0.2230 C   0  0  0  0  0  0  0  0  0  0  0  0
   -3.5830    1.7670   -0.9670 N   0  0  0  0  0  0  0  0  0  0  0  0
   -4.9380    1.8870   -0.5870 C   0  0  0  0  0  0  0  0  0  0  0  0
   -5.3920    2.6950    0.4300 C   0  0  0  0  0  0  0  0  0  0  0  0
   -6.7610    2.7660    0.7230 C   0  0  0  0  0  0  0  0  0  0  0  0
   -7.7030    2.0470    0.0220 C   0  0  0  0  0  0  0  0  0  0  0  0
   -7.2480    1.2370   -0.9990 C   0  0  0  0  0  0  0  0  0  0  0  0
   -5.9070    1.1670   -1.2850 C   0  0  0  0  0  0  0  0  0  0  0  0
   -5.3720    0.1260   -2.5870 Cl  0  0  0  0  0  0  0  0  0  0  0  0
   -0.6040   -0.1410    0.6510 C   0  0  0  0  0  0  0  0  0  0  0  0
    0.4510    0.7510    0.2470 C   0  0  0  0  0  0  0  0  0  0  0  0
    0.5310    2.0410    1.0210 N   0  0  0  0  0  0  0  0  0  0  0  0
    1.3480    0.6970   -0.5810 N   0  0  0  0  0  0  0  0  0  0  0  0
    1.8750   -0.1080   -1.5450 C   0  0  0  0  0  0  0  0  0  0  0  0
    1.0020   -0.8550   -2.3480 N   0  0  0  0  0  0  0  0  0  0  0  0
    1.4620   -1.6500   -3.3020 C   0  0  0  0  0  0  0  0  0  0  0  0
    2.8060   -1.7830   -3.5530 C   0  0  0  0  0  0  0  0  0  0  0  0
    3.6290   -1.0730   -2.7890 N   0  0  0  0  0  0  0  0  0  0  0  0
    3.2180   -0.2310   -1.7850 C   0  0  0  0  0  0  0  0  0  0  0  0
    4.2150    0.4940   -1.0350 C   0  0  0  0  0  0  0  0  0  0  0  0
    5.9160    0.1470   -1.4890 Cl  0  0  0  0  0  0  0  0  0  0  0  0
    4.0720    1.3610   -0.0800 C   0  0  0  0  0  0  0  0  0  0  0  0
    5.2930    1.9670    0.5320 C   0  0  0  0  0  0  0  0  0  0  0  0
    5.4710    3.2560    0.9750 C   0  0  0  0  0  0  0  0  0  0  0  0
    6.7350    3.3620    1.4570 N   0  0  0  0  0  0  0  0  0  0  0  0
    7.3490    2.1640    1.3230 C   0  0  0  0  0  0  0  0  0  0  0  0
    6.4490    1.3230    0.7550 N   0  0  0  0  0  0  0  0  0  0  0  0
   -0.7940   -1.4880    0.5410 C   0  0  0  0  0  0  0  0  0  0  0  0
    0.1150   -2.5070    0.3610 C   0  0  0  0  0  0  0  0  0  0  0  0
    1.4190   -2.5670    0.2770 N   0  0  0  0  0  0  0  0  0  0  0  0
  1  2  1  0
  2  3  2  0
  2 41  1  0
  3  4  1  0
  4  5  1  0
  4 40  2  0
  5  6  2  0
  5  7  1  0
  7  8  1  0
  8  9  2  0
  8 39  1  0
  9 10  1  0
 10 11  1  0
 10 21  1  0
 11 12  1  0
 12 13  1  0
 13 14  1  0
 14 15  2  0
 14 19  1  0
 15 16  1  0
 16 17  2  0
 17 18  1  0
 18 19  2  0
 19 20  1  0
 21 22  1  0
 21 39  2  0
 22 23  1  0
 22 24  2  3
 24 25  1  0
 25 26  2  0
 25 30  1  0
 26 27  1  0
 27 28  2  0
 28 29  1  0
 29 30  2  0
 30 31  1  0
 31 32  1  0
 31 33  2  3
 33 34  1  0
 34 35  2  0
 34 38  1  0
 35 36  1  0
 36 37  1  0
 37 38  2  0
 39 40  1  0
 40 41  1  0
M  END
