
     RDKit          3D

 41 43  0  0  0  0  0  0  0  0999 V2000
    6.8940    0.0770    2.2450 C   0  0  0  0  0  0  0  0  0  0  0  0
    8.1800    0.1350    2.0130 C   0  0  0  0  0  0  0  0  0  0  0  0
    8.7110    0.7450    0.7790 C   0  0  0  0  0  0  0  0  0  0  0  0
    9.5100   -0.2260   -0.0290 C   0  0  0  0  0  0  0  0  0  0  0  0
    8.6760   -1.4210   -0.4670 C   0  0  2  0  0  0  0  0  0  0  0  0
    9.5630   -2.3810   -1.2800 C   0  0  0  0  0  0  0  0  0  0  0  0
    7.6530   -0.9820   -1.3740 N   0  0  0  0  0  0  0  0  0  0  0  0
    6.2910   -1.2830   -1.1360 C   0  0  0  0  0  0  0  0  0  0  0  0
    5.9830   -1.9340   -0.1190 O   0  0  0  0  0  0  0  0  0  0  0  0
    5.3090   -0.8020   -2.1170 C   0  0  0  0  0  0  0  0  0  0  0  0
    3.9390   -1.1080   -1.8260 N   0  0  0  0  0  0  0  0  0  0  0  0
    3.6620   -2.5010   -1.8820 C   0  0  0  0  0  0  0  0  0  0  0  0
    3.4620   -0.3850   -0.7110 C   0  0  0  0  0  0  0  0  0  0  0  0
    1.9930   -0.5480   -0.3920 C   0  0  1  0  0  0  0  0  0  0  0  0
    1.5930    0.2550    0.8060 C   0  0  0  0  0  0  0  0  0  0  0  0
    0.1770    0.2400    1.0560 N   0  0  0  0  0  0  0  0  0  0  0  0
   -0.2260    0.2680    2.4390 C   0  0  0  0  0  0  0  0  0  0  0  0
    0.7520    0.2030    3.3180 O   0  0  0  0  0  0  0  0  0  0  0  0
   -1.5280    0.3550    3.0430 C   0  0  0  0  0  0  0  0  0  0  0  0
   -2.7010    0.5230    2.2720 N   0  0  0  0  0  0  0  0  0  0  0  0
   -3.0880    1.7420    1.6490 C   0  0  0  0  0  0  0  0  0  0  0  0
   -2.3070    2.8550    1.7820 C   0  0  0  0  0  0  0  0  0  0  0  0
   -2.6880    4.0500    1.1730 C   0  0  0  0  0  0  0  0  0  0  0  0
   -3.8470    4.1220    0.4360 C   0  0  0  0  0  0  0  0  0  0  0  0
   -4.6450    2.9940    0.2970 C   0  0  0  0  0  0  0  0  0  0  0  0
   -4.2510    1.8200    0.9070 C   0  0  0  0  0  0  0  0  0  0  0  0
   -5.0500    0.5920    0.8010 C   0  0  0  0  0  0  0  0  0  0  0  0
   -6.2260    0.7710    0.0130 N   0  0  2  0  0  0  0  0  0  0  0  0
   -7.2800    1.4610    0.6830 C   0  0  0  0  0  0  0  0  0  0  0  0
   -8.2350    2.0460   -0.3150 C   0  0  0  0  0  0  0  0  0  0  0  0
   -8.3040    1.1010   -1.4990 C   0  0  0  0  0  0  0  0  0  0  0  0
   -8.1170   -0.3400   -1.0050 C   0  0  0  0  0  0  0  0  0  0  0  0
   -6.7590   -0.5410   -0.4160 C   0  0  2  0  0  0  0  0  0  0  0  0
   -6.7300   -1.5400    0.6910 C   0  0  0  0  0  0  0  0  0  0  0  0
   -7.2630   -2.8340    0.2370 C   0  0  0  0  0  0  0  0  0  0  0  0
   -7.6710   -2.9740   -0.9360 O   0  0  0  0  0  0  0  0  0  0  0  0
   -7.3360   -3.9450    1.0830 O   0  0  0  0  0  0  0  0  0  0  0  0
   -0.8080    0.1770    0.0380 C   0  0  0  0  0  0  0  0  0  0  0  0
   -0.2600   -0.5460   -1.1870 C   0  0  0  0  0  0  0  0  0  0  0  0
    1.1220   -0.0350   -1.5280 C   0  0  2  0  0  0  0  0  0  0  0  0
    1.5430   -0.3780   -2.7780 O   0  0  0  0  0  0  0  0  0  0  0  0
  1  2  2  0
  2  3  1  0
  3  4  1  0
  4  5  1  0
  5  6  1  6
  5  7  1  0
  7  8  1  0
  8  9  2  0
  8 10  1  0
 10 11  1  0
 11 12  1  0
 11 13  1  0
 14 13  1  6
 14 15  1  0
 14 40  1  0
 15 16  1  0
 16 17  1  0
 16 38  1  0
 17 18  2  0
 17 19  1  0
 19 20  1  0
 20 21  1  0
 21 22  2  0
 21 26  1  0
 22 23  1  0
 23 24  2  0
 24 25  1  0
 25 26  2  0
 26 27  1  0
 28 27  1  1
 28 29  1  0
 28 33  1  0
 29 30  1  0
 30 31  1  0
 31 32  1  0
 32 33  1  0
 33 34  1  1
 34 35  1  0
 35 36  2  0
 35 37  1  0
 38 39  1  0
 39 40  1  0
 40 41  1  6
M  CHG  1  28   1
M  END
