
     RDKit          3D

 41 43  0  0  0  0  0  0  0  0999 V2000
   -5.3070   -1.0130   -1.3690 C   0  0  0  0  0  0  0  0  0  0  0  0
   -4.2520   -0.7860   -2.3690 C   0  0  0  0  0  0  0  0  0  0  0  0
   -3.2580    0.1640   -2.2350 N   0  0  0  0  0  0  0  0  0  0  0  0
   -2.9010    0.8520   -1.1020 C   0  0  1  0  0  0  0  0  0  0  0  0
   -4.0290    1.6300   -0.4720 C   0  0  0  0  0  0  0  0  0  0  0  0
   -5.0300    1.9300   -1.2630 C   0  0  0  0  0  0  0  0  0  0  0  0
   -6.2130    2.6640   -0.8790 N   0  0  0  0  0  0  0  0  0  0  0  0
   -6.8700    2.9380    0.3490 C   0  0  0  0  0  0  0  0  0  0  0  0
   -6.2120    2.4820    1.5320 N   0  0  0  0  0  0  0  0  0  0  0  0
   -4.8060    2.3410    1.7110 C   0  0  0  0  0  0  0  0  0  0  0  0
   -3.8860    1.9880    0.8870 N   0  0  0  0  0  0  0  0  0  0  0  0
   -1.9660    0.2870   -0.0600 C   0  0  1  0  0  0  0  0  0  0  0  0
   -1.8280    1.3190    0.8950 O   0  0  0  0  0  0  0  0  0  0  0  0
   -0.8300    2.0280    1.3810 C   0  0  0  0  0  0  0  0  0  0  0  0
   -1.1110    2.9620    2.3750 C   0  0  0  0  0  0  0  0  0  0  0  0
   -0.1660    3.7640    2.9690 C   0  0  0  0  0  0  0  0  0  0  0  0
    1.1230    3.6340    2.5560 C   0  0  0  0  0  0  0  0  0  0  0  0
    1.4510    2.7310    1.5800 C   0  0  0  0  0  0  0  0  0  0  0  0
    0.4850    1.9210    0.9840 C   0  0  0  0  0  0  0  0  0  0  0  0
    0.8800    1.0540    0.0280 O   0  0  0  0  0  0  0  0  0  0  0  0
    2.0370    0.6800   -0.5650 C   0  0  0  0  0  0  0  0  0  0  0  0
    3.0880    0.0110    0.2880 C   0  0  0  0  0  0  0  0  0  0  0  0
    4.3250   -0.3150   -0.5790 C   0  0  1  0  0  0  0  0  0  0  0  0
    3.7920   -1.2320   -1.6680 C   0  0  0  0  0  0  0  0  0  0  0  0
    4.7320    0.8320   -1.1260 O   0  0  0  0  0  0  0  0  0  0  0  0
    5.8340    1.4670   -0.6910 C   0  0  2  0  0  0  0  0  0  0  0  0
    5.5190    2.9690   -0.6010 C   0  0  0  0  0  0  0  0  0  0  0  0
    7.0310    1.3460   -1.6130 C   0  0  0  0  0  0  0  0  0  0  0  0
    6.3080    1.0930    0.7020 C   0  0  0  0  0  0  0  0  0  0  0  0
    6.5030   -0.3840    0.6900 C   0  0  0  0  0  0  0  0  0  0  0  0
    5.2780   -1.1100    0.2350 C   0  0  2  0  0  0  0  0  0  0  0  0
    5.7580   -2.3680   -0.4830 C   0  0  0  0  0  0  0  0  0  0  0  0
   -2.4300   -0.8830    0.6800 C   0  0  0  0  0  0  0  0  0  0  0  0
   -3.0410   -0.6320    1.7860 O   0  0  0  0  0  0  0  0  0  0  0  0
   -2.3200   -2.2650    0.4010 N   0  0  0  0  0  0  0  0  0  0  0  0
   -1.6020   -2.8110   -0.7160 C   0  0  0  0  0  0  0  0  0  0  0  0
   -0.1370   -3.0250   -0.5420 C   0  0  0  0  0  0  0  0  0  0  0  0
    0.1540   -3.8950    0.4740 O   0  0  0  0  0  0  0  0  0  0  0  0
   -3.0690   -3.1750    1.2520 C   0  0  2  0  0  0  0  0  0  0  0  0
   -2.2250   -4.0780    2.1160 C   0  0  0  0  0  0  0  0  0  0  0  0
   -4.1080   -3.9770    0.5100 C   0  0  0  0  0  0  0  0  0  0  0  0
  1  2  1  0
  2  3  1  0
  4  3  1  1
  4  5  1  0
  4 12  1  0
  5  6  2  0
  5 11  1  0
  6  7  1  0
  7  8  1  0
  8  9  1  0
  9 10  1  0
 10 11  2  0
 12 13  1  1
 12 33  1  0
 13 14  1  0
 14 15  2  0
 14 19  1  0
 15 16  1  0
 16 17  2  0
 17 18  1  0
 18 19  2  0
 19 20  1  0
 20 21  1  0
 21 22  1  0
 22 23  1  0
 23 24  1  6
 23 25  1  0
 23 31  1  0
 25 26  1  0
 26 27  1  1
 26 28  1  0
 26 29  1  0
 29 30  1  0
 30 31  1  0
 31 32  1  6
 33 34  2  0
 33 35  1  0
 35 36  1  0
 35 39  1  0
 36 37  1  0
 37 38  1  0
 39 40  1  6
 39 41  1  0
M  CHG  1   3   1
M  END
