
     RDKit          3D

 41 42  0  0  0  0  0  0  0  0999 V2000
   12.6700   -1.3500    0.8970 C   0  0  0  0  0  0  0  0  0  0  0  0
   12.9210   -0.0200    1.4640 C   0  0  0  0  0  0  0  0  0  0  0  0
   12.0100    0.9620    1.5900 C   0  0  0  0  0  0  0  0  0  0  0  0
   10.6630    0.7440    1.1490 C   0  0  0  0  0  0  0  0  0  0  0  0
    9.6250    1.5930    1.1870 C   0  0  0  0  0  0  0  0  0  0  0  0
    9.7870    2.8920    1.7140 C   0  0  0  0  0  0  0  0  0  0  0  0
    8.7940    3.8880    1.8240 N   0  0  0  0  0  0  0  0  0  0  0  0
   10.9360    3.2590    2.1550 O   0  0  0  0  0  0  0  0  0  0  0  0
    8.3620    1.0700    0.6440 C   0  0  0  0  0  0  0  0  0  0  0  0
    8.2610   -0.2220    0.1690 C   0  0  0  0  0  0  0  0  0  0  0  0
    7.1280   -0.7690   -0.3820 C   0  0  0  0  0  0  0  0  0  0  0  0
    5.9760    0.0250   -0.4770 C   0  0  0  0  0  0  0  0  0  0  0  0
    4.8870   -0.5200   -1.0940 N   0  0  0  0  0  0  0  0  0  0  0  0
    3.4590   -0.1330   -0.8420 C   0  0  0  0  0  0  0  0  0  0  0  0
    3.2630    0.6840   -0.0050 O   0  0  0  0  0  0  0  0  0  0  0  0
    2.6830   -0.8920   -1.7290 N   0  0  0  0  0  0  0  0  0  0  0  0
    1.1060   -0.3220   -1.1900 C   0  0  0  0  0  0  0  0  0  0  0  0
    1.1730    0.4910   -0.3980 O   0  0  0  0  0  0  0  0  0  0  0  0
    0.1010   -1.0490   -1.8960 C   0  0  1  0  0  0  0  0  0  0  0  0
    0.1700   -2.5550   -1.6380 C   0  0  0  0  0  0  0  0  0  0  0  0
   -1.2800   -0.5400   -1.9740 C   0  0  0  0  0  0  0  0  0  0  0  0
   -2.0700   -0.2890   -0.7890 C   0  0  0  0  0  0  0  0  0  0  0  0
   -1.5590    0.2400    0.2110 O   0  0  0  0  0  0  0  0  0  0  0  0
   -3.4930   -0.6200   -0.6640 N   0  0  0  0  0  0  0  0  0  0  0  0
   -4.0770   -1.4040   -1.7360 C   0  0  0  0  0  0  0  0  0  0  0  0
   -3.8390   -2.8610   -1.6960 C   0  0  2  0  0  0  0  0  0  0  0  0
   -4.5450   -3.3970   -3.0000 C   0  0  0  0  0  0  0  0  0  0  0  0
   -4.4310   -3.6990   -0.6280 C   0  0  0  0  0  0  0  0  0  0  0  0
   -5.8070   -3.7240   -0.5990 O   0  0  0  0  0  0  0  0  0  0  0  0
   -4.2280   -0.0230    0.4160 C   0  0  2  0  0  0  0  0  0  0  0  0
   -4.9800   -0.9350    1.2760 C   0  0  0  0  0  0  0  0  0  0  0  0
   -5.9130   -0.2460    2.2860 C   0  0  0  0  0  0  0  0  0  0  0  0
   -7.2220    0.0620    1.6080 C   0  0  0  0  0  0  0  0  0  0  0  0
   -7.2600    1.2630    0.8450 N   0  0  1  0  0  0  0  0  0  0  0  0
   -8.2390    2.2120    1.2610 C   0  0  0  0  0  0  0  0  0  0  0  0
   -8.7280    3.1120    0.1360 C   0  0  0  0  0  0  0  0  0  0  0  0
   -9.7750    4.0490    0.7240 C   0  0  0  0  0  0  0  0  0  0  0  0
   -5.9310    1.8460    0.6560 C   0  0  0  0  0  0  0  0  0  0  0  0
   -5.1370    1.0120   -0.2840 C   0  0  0  0  0  0  0  0  0  0  0  0
    6.0410    1.3070   -0.0130 C   0  0  0  0  0  0  0  0  0  0  0  0
    7.2140    1.8290    0.5390 C   0  0  0  0  0  0  0  0  0  0  0  0
  1  2  1  0
  2  3  2  3
  3  4  1  0
  4  5  2  3
  5  6  1  0
  5  9  1  0
  6  7  1  0
  6  8  2  0
  9 10  2  0
  9 41  1  0
 10 11  1  0
 11 12  2  0
 12 13  1  0
 12 40  1  0
 13 14  1  0
 14 15  2  0
 14 16  1  0
 16 17  1  0
 17 18  2  0
 17 19  1  0
 19 20  1  1
 19 21  1  0
 21 22  1  0
 22 23  2  0
 22 24  1  0
 24 25  1  0
 30 24  1  6
 25 26  1  0
 26 27  1  6
 26 28  1  0
 28 29  1  0
 30 31  1  0
 30 39  1  0
 31 32  1  0
 32 33  1  0
 33 34  1  0
 34 35  1  1
 34 38  1  0
 35 36  1  0
 36 37  1  0
 38 39  1  0
 40 41  2  0
M  CHG  1  34   1
M  END
