
     RDKit          3D

 42 46  0  0  0  0  0  0  0  0999 V2000
    8.9350    1.8920    1.4180 C   0  0  0  0  0  0  0  0  0  0  0  0
    8.0530    1.1210    2.1750 O   0  0  0  0  0  0  0  0  0  0  0  0
    6.6770    1.1940    1.9170 C   0  0  0  0  0  0  0  0  0  0  0  0
    5.7670    0.4520    2.6390 C   0  0  0  0  0  0  0  0  0  0  0  0
    4.4270    0.5230    2.3880 C   0  0  0  0  0  0  0  0  0  0  0  0
    3.9540    1.3410    1.4020 C   0  0  0  0  0  0  0  0  0  0  0  0
    2.2480    1.4880    1.0270 S   0  0  2  0  0  0  0  0  0  0  0  0
    2.0460    2.8540    0.4520 O   0  0  0  0  0  0  0  0  0  0  0  0
    1.4310    1.5040    2.3160 O   0  0  0  0  0  0  0  0  0  0  0  0
    1.6980    0.3180   -0.0660 N   0  0  0  0  0  0  0  0  0  0  0  0
    2.3920    0.4520   -1.3210 C   0  0  0  0  0  0  0  0  0  0  0  0
    1.6390    0.9810   -2.4740 C   0  0  2  0  0  0  0  0  0  0  0  0
    1.0650    2.3480   -2.3190 C   0  0  0  0  0  0  0  0  0  0  0  0
    0.6330    0.0060   -3.0570 C   0  0  0  0  0  0  0  0  0  0  0  0
    1.8780   -1.0400    0.3640 C   0  0  0  0  0  0  0  0  0  0  0  0
    0.8380   -1.6620    1.1930 C   0  0  1  0  0  0  0  0  0  0  0  0
    0.6550   -0.9700    2.4250 O   0  0  0  0  0  0  0  0  0  0  0  0
   -0.5020   -1.8750    0.6140 C   0  0  2  0  0  0  0  0  0  0  0  0
   -0.6410   -2.7670   -0.5610 C   0  0  0  0  0  0  0  0  0  0  0  0
   -0.2020   -4.1690   -0.3050 C   0  0  0  0  0  0  0  0  0  0  0  0
    1.0890   -4.6120   -0.6050 C   0  0  0  0  0  0  0  0  0  0  0  0
    1.4030   -5.9210   -0.3220 C   0  0  0  0  0  0  0  0  0  0  0  0
    0.4420   -6.7510    0.2450 C   0  0  0  0  0  0  0  0  0  0  0  0
   -0.8170   -6.3010    0.5330 C   0  0  0  0  0  0  0  0  0  0  0  0
   -1.1560   -5.0010    0.2610 C   0  0  0  0  0  0  0  0  0  0  0  0
   -1.1990   -0.6290    0.3460 N   0  0  0  0  0  0  0  0  0  0  0  0
   -2.4270   -0.2470    0.9320 C   0  0  0  0  0  0  0  0  0  0  0  0
   -2.9520   -1.0660    1.7610 O   0  0  0  0  0  0  0  0  0  0  0  0
   -3.0750    0.9450    0.6570 O   0  0  0  0  0  0  0  0  0  0  0  0
   -4.2860    1.2310    1.2840 C   0  0  1  0  0  0  0  0  0  0  0  0
   -4.3180    2.5230    2.0200 C   0  0  0  0  0  0  0  0  0  0  0  0
   -5.5760    3.0700    1.9080 O   0  0  0  0  0  0  0  0  0  0  0  0
   -6.3600    2.2740    1.1140 C   0  0  1  0  0  0  0  0  0  0  0  0
   -7.0450    3.0720    0.2230 O   0  0  0  0  0  0  0  0  0  0  0  0
   -6.4420    3.0210   -1.0050 C   0  0  2  0  0  0  0  0  0  0  0  0
   -7.1900    2.1350   -1.8020 O   0  0  0  0  0  0  0  0  0  0  0  0
   -6.3320    1.6670   -2.7800 C   0  0  0  0  0  0  0  0  0  0  0  0
   -4.9720    1.5510   -2.1550 C   0  0  0  0  0  0  0  0  0  0  0  0
   -5.1290    2.2800   -0.8510 C   0  0  2  0  0  0  0  0  0  0  0  0
   -5.4320    1.3850    0.3070 C   0  0  1  0  0  0  0  0  0  0  0  0
    4.8570    2.0850    0.6770 C   0  0  0  0  0  0  0  0  0  0  0  0
    6.2050    2.0160    0.9270 C   0  0  0  0  0  0  0  0  0  0  0  0
  1  2  1  0
  2  3  1  0
  3  4  2  0
  3 42  1  0
  4  5  1  0
  5  6  2  0
  6  7  1  0
  6 41  1  0
  7  8  2  0
  7  9  2  0
  7 10  1  6
 10 11  1  0
 10 15  1  0
 11 12  1  0
 12 13  1  1
 12 14  1  0
 15 16  1  0
 16 17  1  1
 16 18  1  0
 18 19  1  6
 18 26  1  0
 19 20  1  0
 20 21  2  0
 20 25  1  0
 21 22  1  0
 22 23  2  0
 23 24  1  0
 24 25  2  0
 26 27  1  0
 27 28  2  0
 27 29  1  0
 30 29  1  6
 30 31  1  0
 40 30  1  1
 31 32  1  0
 33 32  1  1
 33 34  1  0
 33 40  1  0
 35 34  1  1
 35 36  1  0
 35 39  1  0
 36 37  1  0
 37 38  1  0
 39 38  1  6
 39 40  1  0
 41 42  2  0
M  END
