
     RDKit          3D

 41 43  0  0  0  0  0  0  0  0999 V2000
    8.2680   -0.5270   -3.2670 C   0  0  0  0  0  0  0  0  0  0  0  0
    8.7120   -1.2840   -1.9980 C   0  0  0  0  0  0  0  0  0  0  0  0
    7.5160   -1.4840   -1.1900 C   0  0  0  0  0  0  0  0  0  0  0  0
    7.2910   -1.0650    0.0620 C   0  0  0  0  0  0  0  0  0  0  0  0
    8.3390   -0.3110    0.7410 C   0  0  0  0  0  0  0  0  0  0  0  0
    8.0910    1.1050    1.1290 C   0  0  2  0  0  0  0  0  0  0  0  0
    7.0140    1.4290    2.0810 C   0  0  0  0  0  0  0  0  0  0  0  0
    7.3700    2.8260    2.6660 C   0  0  0  0  0  0  0  0  0  0  0  0
    7.4510    3.7670    1.5120 C   0  0  0  0  0  0  0  0  0  0  0  0
    7.2340    3.1380    0.1790 C   0  0  0  0  0  0  0  0  0  0  0  0
    8.0530    1.9780   -0.0500 N   0  0  0  0  0  0  0  0  0  0  0  0
    6.0320   -1.4790    0.6620 C   0  0  0  0  0  0  0  0  0  0  0  0
    5.7160   -1.1310    1.8210 O   0  0  0  0  0  0  0  0  0  0  0  0
    5.0500   -2.3360   -0.0520 C   0  0  1  0  0  0  0  0  0  0  0  0
    5.6960   -3.7160   -0.2400 C   0  0  0  0  0  0  0  0  0  0  0  0
    3.8470   -2.4780    0.7440 N   0  0  0  0  0  0  0  0  0  0  0  0
    2.5570   -2.1920    0.2270 C   0  0  0  0  0  0  0  0  0  0  0  0
    2.4840   -1.8010   -0.9690 O   0  0  0  0  0  0  0  0  0  0  0  0
    1.3200   -2.3310    1.0060 C   0  0  0  0  0  0  0  0  0  0  0  0
    0.1400   -1.9970    0.2200 N   0  0  0  0  0  0  0  0  0  0  0  0
   -1.1650   -2.0660    0.7500 C   0  0  0  0  0  0  0  0  0  0  0  0
   -1.3220   -2.4130    1.9470 O   0  0  0  0  0  0  0  0  0  0  0  0
   -2.3320   -1.7670    0.0090 N   0  0  0  0  0  0  0  0  0  0  0  0
   -3.6670   -1.8490    0.5710 C   0  0  2  0  0  0  0  0  0  0  0  0
   -4.4430   -3.0010   -0.0510 C   0  0  0  0  0  0  0  0  0  0  0  0
   -5.8640   -2.9890    0.4610 C   0  0  0  0  0  0  0  0  0  0  0  0
   -6.0770   -1.9110    1.4970 C   0  0  0  0  0  0  0  0  0  0  0  0
   -5.7010   -0.5410    0.9680 C   0  0  2  0  0  0  0  0  0  0  0  0
   -6.6500   -0.0030    0.1200 O   0  0  0  0  0  0  0  0  0  0  0  0
   -7.3620    1.1690    0.2880 C   0  0  0  0  0  0  0  0  0  0  0  0
   -7.2480    2.0040    1.3640 C   0  0  0  0  0  0  0  0  0  0  0  0
   -7.9880    3.1780    1.4900 C   0  0  0  0  0  0  0  0  0  0  0  0
   -8.8880    3.5620    0.5180 C   0  0  0  0  0  0  0  0  0  0  0  0
   -9.6210    4.7320    0.6490 O   0  0  0  0  0  0  0  0  0  0  0  0
  -10.5360    5.1010   -0.3720 C   0  0  0  0  0  0  0  0  0  0  0  0
   -9.0090    2.7290   -0.5660 C   0  0  0  0  0  0  0  0  0  0  0  0
   -8.2840    1.5610   -0.7070 C   0  0  0  0  0  0  0  0  0  0  0  0
   -8.4280    0.7200   -1.8360 N   0  0  0  0  0  0  0  0  0  0  0  0
   -8.9240   -0.6250   -1.6430 C   0  0  0  0  0  0  0  0  0  0  0  0
   -8.0950    1.1500   -3.1730 C   0  0  0  0  0  0  0  0  0  0  0  0
   -4.3850   -0.5750    0.2150 C   0  0  0  0  0  0  0  0  0  0  0  0
  1  2  1  0
  2  3  1  0
  3  4  2  3
  4  5  1  0
  4 12  1  0
  6  5  1  6
  6  7  1  0
  6 11  1  0
  7  8  1  0
  8  9  1  0
  9 10  1  0
 10 11  1  0
 12 13  2  0
 12 14  1  0
 14 15  1  1
 14 16  1  0
 16 17  1  0
 17 18  2  0
 17 19  1  0
 19 20  1  0
 20 21  1  0
 21 22  2  0
 21 23  1  0
 24 23  1  6
 24 25  1  0
 24 41  1  0
 25 26  1  0
 26 27  1  0
 27 28  1  0
 28 29  1  6
 28 41  1  0
 29 30  1  0
 30 31  2  0
 30 37  1  0
 31 32  1  0
 32 33  2  0
 33 34  1  0
 33 36  1  0
 34 35  1  0
 36 37  2  0
 37 38  1  0
 38 39  1  0
 38 40  1  0
M  CHG  1  11   1
M  END
