
     RDKit          3D

 41 46  0  0  0  0  0  0  0  0999 V2000
    1.8030   -5.0160   -1.1560 C   0  0  0  0  0  0  0  0  0  0  0  0
    0.6110   -4.1090   -1.0850 C   0  0  0  0  0  0  0  0  0  0  0  0
   -0.6800   -4.5610   -1.1470 C   0  0  0  0  0  0  0  0  0  0  0  0
   -1.4930   -3.4330   -1.0500 C   0  0  0  0  0  0  0  0  0  0  0  0
   -2.8580   -3.2650   -1.1320 C   0  0  0  0  0  0  0  0  0  0  0  0
   -3.5770   -4.2860   -1.2370 O   0  0  0  0  0  0  0  0  0  0  0  0
   -3.3620   -2.0320   -1.0970 N   0  0  0  0  0  0  0  0  0  0  0  0
   -2.6090   -0.9530   -0.9820 C   0  0  0  0  0  0  0  0  0  0  0  0
   -2.8340    0.3710   -0.9830 N   0  0  0  0  0  0  0  0  0  0  0  0
   -1.7000    1.0290   -0.8900 N   0  0  0  0  0  0  0  0  0  0  0  0
   -1.5640    2.4670   -0.8730 C   0  0  0  0  0  0  0  0  0  0  0  0
   -1.5730    2.9990    0.5430 C   0  0  0  0  0  0  0  0  0  0  0  0
   -2.7870    2.7010    1.2450 N   0  0  0  0  0  0  0  0  0  0  0  0
   -4.0440    3.2860    1.0260 C   0  0  0  0  0  0  0  0  0  0  0  0
   -4.2760    4.3450    0.1790 C   0  0  0  0  0  0  0  0  0  0  0  0
   -5.5220    4.9220   -0.0030 C   0  0  0  0  0  0  0  0  0  0  0  0
   -6.6110    4.4380    0.6820 C   0  0  0  0  0  0  0  0  0  0  0  0
   -6.4180    3.3790    1.5410 C   0  0  0  0  0  0  0  0  0  0  0  0
   -5.1790    2.8240    1.7060 C   0  0  0  0  0  0  0  0  0  0  0  0
   -4.9970    1.4800    2.8120 Cl  0  0  0  0  0  0  0  0  0  0  0  0
   -0.6340    0.1360   -0.8150 C   0  0  0  0  0  0  0  0  0  0  0  0
    0.6410    0.6010   -0.3530 C   0  0  0  0  0  0  0  0  0  0  0  0
    1.1460    1.8700   -0.8980 N   0  0  0  0  0  0  0  0  0  0  0  0
    1.4440    0.1040    0.4300 N   0  0  0  0  0  0  0  0  0  0  0  0
    1.6990   -0.9590    1.2560 C   0  0  0  0  0  0  0  0  0  0  0  0
    0.6450   -1.5180    1.9590 N   0  0  0  0  0  0  0  0  0  0  0  0
    0.7840   -2.5500    2.7690 C   0  0  0  0  0  0  0  0  0  0  0  0
    2.0090   -3.1380    2.9620 C   0  0  0  0  0  0  0  0  0  0  0  0
    3.0350   -2.6210    2.3010 N   0  0  0  0  0  0  0  0  0  0  0  0
    2.9230   -1.5420    1.4460 C   0  0  0  0  0  0  0  0  0  0  0  0
    4.1440   -1.0740    0.8150 C   0  0  0  0  0  0  0  0  0  0  0  0
    5.6330   -2.0470    1.1080 Cl  0  0  0  0  0  0  0  0  0  0  0  0
    4.2370   -0.0310    0.0670 C   0  0  0  0  0  0  0  0  0  0  0  0
    5.5680    0.3010   -0.4980 C   0  0  0  0  0  0  0  0  0  0  0  0
    6.1150    1.5240   -0.6720 C   0  0  0  0  0  0  0  0  0  0  0  0
    7.3390    1.3480   -1.2200 N   0  0  0  0  0  0  0  0  0  0  0  0
    7.5110    0.0250   -1.3670 C   0  0  0  0  0  0  0  0  0  0  0  0
    6.4270   -0.6280   -0.9250 N   0  0  0  0  0  0  0  0  0  0  0  0
   -1.2180   -1.0810   -0.8880 C   0  0  0  0  0  0  0  0  0  0  0  0
   -0.6510   -2.3650   -0.9310 C   0  0  0  0  0  0  0  0  0  0  0  0
    0.6260   -2.7720   -0.9570 N   0  0  0  0  0  0  0  0  0  0  0  0
  1  2  1  0
  2  3  2  0
  2 41  1  0
  3  4  1  0
  4  5  1  0
  4 40  2  0
  5  6  2  0
  5  7  1  0
  7  8  1  0
  8  9  2  0
  8 39  1  0
  9 10  1  0
 10 11  1  0
 10 21  1  0
 11 12  1  0
 12 13  1  0
 13 14  1  0
 14 15  2  0
 14 19  1  0
 15 16  1  0
 16 17  2  0
 17 18  1  0
 18 19  2  0
 19 20  1  0
 21 22  1  0
 21 39  2  0
 22 23  1  0
 22 24  2  3
 24 25  1  0
 25 26  2  0
 25 30  1  0
 26 27  1  0
 27 28  2  0
 28 29  1  0
 29 30  2  0
 30 31  1  0
 31 32  1  0
 31 33  2  3
 33 34  1  0
 34 35  2  0
 34 38  1  0
 35 36  1  0
 36 37  1  0
 37 38  2  0
 39 40  1  0
 40 41  1  0
M  END
