
     RDKit          3D

 41 43  0  0  0  0  0  0  0  0999 V2000
    8.1690    2.5660   -1.7270 C   0  0  0  0  0  0  0  0  0  0  0  0
    7.5360    1.4220   -1.9730 C   0  0  0  0  0  0  0  0  0  0  0  0
    8.2680    0.3020   -2.5760 C   0  0  0  0  0  0  0  0  0  0  0  0
    8.4310   -0.9240   -1.7790 C   0  0  0  0  0  0  0  0  0  0  0  0
    7.2450   -1.6890   -1.3360 C   0  0  2  0  0  0  0  0  0  0  0  0
    6.3700   -2.1740   -2.4550 C   0  0  0  0  0  0  0  0  0  0  0  0
    6.4970   -1.0810   -0.2760 N   0  0  0  0  0  0  0  0  0  0  0  0
    6.6750   -1.5150    1.0560 C   0  0  0  0  0  0  0  0  0  0  0  0
    7.5040   -2.4520    1.2960 O   0  0  0  0  0  0  0  0  0  0  0  0
    5.9090   -0.8950    2.1820 C   0  0  0  0  0  0  0  0  0  0  0  0
    5.0530    0.1070    1.8210 N   0  0  0  0  0  0  0  0  0  0  0  0
    5.7770    1.3470    1.4230 C   0  0  0  0  0  0  0  0  0  0  0  0
    3.7480    0.1190    1.4370 C   0  0  0  0  0  0  0  0  0  0  0  0
    2.5690   -0.1780    2.2630 C   0  0  1  0  0  0  0  0  0  0  0  0
    1.2900    0.1130    1.3490 C   0  0  0  0  0  0  0  0  0  0  0  0
    0.1610   -0.2650    2.1700 N   0  0  0  0  0  0  0  0  0  0  0  0
   -1.1400   -0.2280    1.6080 C   0  0  0  0  0  0  0  0  0  0  0  0
   -2.1420   -0.5460    2.3200 O   0  0  0  0  0  0  0  0  0  0  0  0
   -1.3890    0.1720    0.2030 C   0  0  0  0  0  0  0  0  0  0  0  0
   -2.8070    0.1220   -0.0540 N   0  0  0  0  0  0  0  0  0  0  0  0
   -3.6340    1.0710    0.6460 C   0  0  0  0  0  0  0  0  0  0  0  0
   -3.1200    2.0120    1.4800 C   0  0  0  0  0  0  0  0  0  0  0  0
   -3.9160    2.9260    2.1400 C   0  0  0  0  0  0  0  0  0  0  0  0
   -5.2760    2.8890    1.9490 C   0  0  0  0  0  0  0  0  0  0  0  0
   -5.8330    1.9250    1.0900 C   0  0  0  0  0  0  0  0  0  0  0  0
   -5.0240    1.0400    0.4570 C   0  0  0  0  0  0  0  0  0  0  0  0
   -5.5470    0.0260   -0.4660 C   0  0  0  0  0  0  0  0  0  0  0  0
   -6.9410    0.0130   -0.5860 N   0  0  2  0  0  0  0  0  0  0  0  0
   -7.3580   -1.4200   -0.4230 C   0  0  0  0  0  0  0  0  0  0  0  0
   -6.7950   -2.1860   -1.5860 C   0  0  0  0  0  0  0  0  0  0  0  0
   -7.5900   -1.7850   -2.8210 C   0  0  0  0  0  0  0  0  0  0  0  0
   -8.3940   -0.5470   -2.5190 C   0  0  0  0  0  0  0  0  0  0  0  0
   -7.5660    0.4990   -1.7480 C   0  0  2  0  0  0  0  0  0  0  0  0
   -6.7960    1.2700   -2.7480 C   0  0  0  0  0  0  0  0  0  0  0  0
   -6.1980    2.5220   -2.2650 C   0  0  0  0  0  0  0  0  0  0  0  0
   -4.9630    2.6660   -2.2200 O   0  0  0  0  0  0  0  0  0  0  0  0
   -7.0390    3.5480   -1.8570 O   0  0  0  0  0  0  0  0  0  0  0  0
    0.3590   -0.6780    3.5400 C   0  0  0  0  0  0  0  0  0  0  0  0
    1.3760   -1.7820    3.6840 C   0  0  0  0  0  0  0  0  0  0  0  0
    2.3760   -1.6410    2.5310 C   0  0  2  0  0  0  0  0  0  0  0  0
    3.4600   -2.4270    2.6980 O   0  0  0  0  0  0  0  0  0  0  0  0
  1  2  2  0
  2  3  1  0
  3  4  1  0
  4  5  1  0
  5  6  1  6
  5  7  1  0
  7  8  1  0
  8  9  2  0
  8 10  1  0
 10 11  1  0
 11 12  1  0
 11 13  1  0
 14 13  1  6
 14 15  1  0
 14 40  1  0
 15 16  1  0
 16 17  1  0
 16 38  1  0
 17 18  2  0
 17 19  1  0
 19 20  1  0
 20 21  1  0
 21 22  2  0
 21 26  1  0
 22 23  1  0
 23 24  2  0
 24 25  1  0
 25 26  2  0
 26 27  1  0
 28 27  1  6
 28 29  1  0
 28 33  1  0
 29 30  1  0
 30 31  1  0
 31 32  1  0
 32 33  1  0
 33 34  1  6
 34 35  1  0
 35 36  2  0
 35 37  1  0
 38 39  1  0
 39 40  1  0
 40 41  1  1
M  CHG  1  28   1
M  END
