
     RDKit          3D

 41 43  0  0  0  0  0  0  0  0999 V2000
    7.9790   -0.3750   -3.6690 C   0  0  0  0  0  0  0  0  0  0  0  0
    6.8630   -1.0850   -4.3420 C   0  0  0  0  0  0  0  0  0  0  0  0
    5.5260   -0.6640   -3.8970 N   0  0  0  0  0  0  0  0  0  0  0  0
    5.3780    0.6990   -4.4040 C   0  0  0  0  0  0  0  0  0  0  0  0
    5.6340   -0.5740   -2.4500 C   0  0  0  0  0  0  0  0  0  0  0  0
    4.3460   -0.2550   -1.7830 C   0  0  0  0  0  0  0  0  0  0  0  0
    3.1940   -0.1300   -2.5360 C   0  0  0  0  0  0  0  0  0  0  0  0
    1.9620    0.1530   -1.9920 C   0  0  0  0  0  0  0  0  0  0  0  0
    1.8880    0.3190   -0.6130 C   0  0  0  0  0  0  0  0  0  0  0  0
    0.6380    0.6320   -0.0530 N   0  0  0  0  0  0  0  0  0  0  0  0
    0.2340    0.4460    1.2690 C   0  0  0  0  0  0  0  0  0  0  0  0
    1.0270   -0.0630    2.1040 O   0  0  0  0  0  0  0  0  0  0  0  0
   -1.1420    0.8410    1.7470 C   0  0  2  0  0  0  0  0  0  0  0  0
   -1.2800    0.3980    3.1570 C   0  0  0  0  0  0  0  0  0  0  0  0
   -2.6230    0.7040    3.7950 C   0  0  1  0  0  0  0  0  0  0  0  0
   -2.7050    2.1190    4.2450 C   0  0  0  0  0  0  0  0  0  0  0  0
   -4.0010    2.4580    4.9020 C   0  0  0  0  0  0  0  0  0  0  0  0
   -5.1050    2.3180    4.1080 O   0  0  0  0  0  0  0  0  0  0  0  0
   -3.6780    0.2440    2.8910 C   0  0  0  0  0  0  0  0  0  0  0  0
   -4.8050   -0.1000    3.3420 O   0  0  0  0  0  0  0  0  0  0  0  0
   -3.4670    0.1710    1.5180 N   0  0  0  0  0  0  0  0  0  0  0  0
   -4.6640    0.0150    0.6370 C   0  0  0  0  0  0  0  0  0  0  0  0
   -5.4710    0.9990    0.7270 C   0  0  0  0  0  0  0  0  0  0  0  0
   -6.7270    1.3450    0.1290 C   0  0  0  0  0  0  0  0  0  0  0  0
   -7.3870    0.6800   -0.7020 O   0  0  0  0  0  0  0  0  0  0  0  0
   -7.3900    2.6000    0.4690 N   0  0  0  0  0  0  0  0  0  0  0  0
   -8.6530    2.9570   -0.1260 C   0  0  0  0  0  0  0  0  0  0  0  0
   -4.6020   -1.2000   -0.1170 C   0  0  0  0  0  0  0  0  0  0  0  0
   -5.5540   -1.5720   -1.1750 C   0  0  2  0  0  0  0  0  0  0  0  0
   -5.1000   -2.9810   -1.6960 C   0  0  0  0  0  0  0  0  0  0  0  0
   -3.9170   -2.6800   -2.5680 C   0  0  0  0  0  0  0  0  0  0  0  0
   -4.0700   -1.2430   -2.9580 C   0  0  0  0  0  0  0  0  0  0  0  0
   -5.3090   -0.7670   -2.3490 N   0  0  0  0  0  0  0  0  0  0  0  0
   -2.2120    0.2400    0.8440 C   0  0  0  0  0  0  0  0  0  0  0  0
    3.0170    0.1950    0.1120 C   0  0  0  0  0  0  0  0  0  0  0  0
    4.2880   -0.0940   -0.4190 C   0  0  0  0  0  0  0  0  0  0  0  0
    5.4200   -0.2010    0.4920 C   0  0  0  0  0  0  0  0  0  0  0  0
    5.8620   -1.5550    0.8960 C   0  0  0  0  0  0  0  0  0  0  0  0
    7.0590   -1.4310    1.8530 C   0  0  0  0  0  0  0  0  0  0  0  0
    6.7380   -0.6690    3.0940 C   0  0  0  0  0  0  0  0  0  0  0  0
    7.9230   -0.6530    3.8620 O   0  0  0  0  0  0  0  0  0  0  0  0
  1  2  1  0
  2  3  1  0
  3  4  1  0
  3  5  1  0
  5  6  1  0
  6  7  2  0
  6 36  1  0
  7  8  1  0
  8  9  2  0
  9 10  1  0
  9 35  1  0
 10 11  1  0
 11 12  2  0
 13 11  1  6
 13 14  1  0
 13 34  1  0
 14 15  1  0
 15 16  1  6
 15 19  1  0
 16 17  1  0
 17 18  1  0
 19 20  2  0
 19 21  1  0
 21 22  1  0
 21 34  1  0
 22 23  2  3
 22 28  1  0
 23 24  1  0
 24 25  2  0
 24 26  1  0
 26 27  1  0
 29 28  1  1
 29 30  1  0
 29 33  1  0
 30 31  1  0
 31 32  1  0
 32 33  1  0
 35 36  2  0
 36 37  1  0
 37 38  1  0
 38 39  1  0
 39 40  1  0
 40 41  1  0
M  CHG  1  33   1
M  END
