
     RDKit          3D

 41 46  0  0  0  0  0  0  0  0999 V2000
    2.3570    4.9990   -0.0910 C   0  0  0  0  0  0  0  0  0  0  0  0
    1.1250    4.2610    0.2810 C   0  0  0  0  0  0  0  0  0  0  0  0
    0.0350    4.8040    0.9040 C   0  0  0  0  0  0  0  0  0  0  0  0
   -0.9140    3.8190    1.0880 C   0  0  0  0  0  0  0  0  0  0  0  0
   -2.1720    3.8210    1.6450 C   0  0  0  0  0  0  0  0  0  0  0  0
   -2.5940    4.9170    2.1040 O   0  0  0  0  0  0  0  0  0  0  0  0
   -2.8860    2.6950    1.6820 N   0  0  0  0  0  0  0  0  0  0  0  0
   -2.3970    1.5490    1.1810 C   0  0  0  0  0  0  0  0  0  0  0  0
   -2.8940    0.3090    1.0870 N   0  0  0  0  0  0  0  0  0  0  0  0
   -2.0340   -0.5020    0.5040 N   0  0  0  0  0  0  0  0  0  0  0  0
   -2.3470   -1.9110    0.2660 C   0  0  0  0  0  0  0  0  0  0  0  0
   -3.0660   -2.0720   -1.0660 C   0  0  0  0  0  0  0  0  0  0  0  0
   -4.3350   -1.3560   -1.0920 N   0  0  0  0  0  0  0  0  0  0  0  0
   -5.4950   -1.7640   -0.3840 C   0  0  0  0  0  0  0  0  0  0  0  0
   -5.5750   -2.9560    0.2880 C   0  0  0  0  0  0  0  0  0  0  0  0
   -6.7200   -3.3410    0.9500 C   0  0  0  0  0  0  0  0  0  0  0  0
   -7.8070   -2.5060    0.9340 C   0  0  0  0  0  0  0  0  0  0  0  0
   -7.7730   -1.3040    0.2740 C   0  0  0  0  0  0  0  0  0  0  0  0
   -6.6240   -0.9380   -0.3800 C   0  0  0  0  0  0  0  0  0  0  0  0
   -6.6010    0.6120   -1.2220 Cl  0  0  0  0  0  0  0  0  0  0  0  0
   -0.8960    0.1860    0.1770 C   0  0  0  0  0  0  0  0  0  0  0  0
    0.2710   -0.3730   -0.4380 C   0  0  0  0  0  0  0  0  0  0  0  0
    0.2890   -1.7780   -0.8290 N   0  0  0  0  0  0  0  0  0  0  0  0
    1.3620    0.2010   -0.7050 N   0  0  0  0  0  0  0  0  0  0  0  0
    2.4910   -0.3630   -1.3080 C   0  0  0  0  0  0  0  0  0  0  0  0
    2.4000   -0.6840   -2.6370 N   0  0  0  0  0  0  0  0  0  0  0  0
    3.4380   -1.2260   -3.2870 C   0  0  0  0  0  0  0  0  0  0  0  0
    4.6170   -1.4670   -2.6100 C   0  0  0  0  0  0  0  0  0  0  0  0
    4.6710   -1.1430   -1.3170 N   0  0  0  0  0  0  0  0  0  0  0  0
    3.6630   -0.5960   -0.6110 C   0  0  0  0  0  0  0  0  0  0  0  0
    3.7600   -0.2970    0.7970 C   0  0  0  0  0  0  0  0  0  0  0  0
    2.2780    0.2740    1.6140 Cl  0  0  0  0  0  0  0  0  0  0  0  0
    4.8060   -0.3940    1.5640 C   0  0  0  0  0  0  0  0  0  0  0  0
    6.1100   -0.8320    1.1160 C   0  0  0  0  0  0  0  0  0  0  0  0
    6.9000   -0.3650    0.0880 C   0  0  0  0  0  0  0  0  0  0  0  0
    8.0160   -1.1090    0.0430 N   0  0  0  0  0  0  0  0  0  0  0  0
    7.9760   -2.0400    1.0070 C   0  0  0  0  0  0  0  0  0  0  0  0
    6.8200   -1.8660    1.6530 N   0  0  0  0  0  0  0  0  0  0  0  0
   -1.1290    1.4720    0.6020 C   0  0  0  0  0  0  0  0  0  0  0  0
   -0.3830    2.6520    0.5640 C   0  0  0  0  0  0  0  0  0  0  0  0
    0.8310    2.9400    0.0890 N   0  0  0  0  0  0  0  0  0  0  0  0
  1  2  1  0
  2  3  2  0
  2 41  1  0
  3  4  1  0
  4  5  1  0
  4 40  2  0
  5  6  2  0
  5  7  1  0
  7  8  1  0
  8  9  2  0
  8 39  1  0
  9 10  1  0
 10 11  1  0
 10 21  1  0
 11 12  1  0
 12 13  1  0
 13 14  1  0
 14 15  2  0
 14 19  1  0
 15 16  1  0
 16 17  2  0
 17 18  1  0
 18 19  2  0
 19 20  1  0
 21 22  1  0
 21 39  2  0
 22 23  1  0
 22 24  2  3
 24 25  1  0
 25 26  2  0
 25 30  1  0
 26 27  1  0
 27 28  2  0
 28 29  1  0
 29 30  2  0
 30 31  1  0
 31 32  1  0
 31 33  2  3
 33 34  1  0
 34 35  2  0
 34 38  1  0
 35 36  1  0
 36 37  1  0
 37 38  2  0
 39 40  1  0
 40 41  1  0
M  END
