
     RDKit          3D

 41 43  0  0  0  0  0  0  0  0999 V2000
   -5.0260   -3.5740    0.3280 C   0  0  0  0  0  0  0  0  0  0  0  0
   -6.4090   -3.1680    0.0080 C   0  0  0  0  0  0  0  0  0  0  0  0
   -7.2090   -2.3430    0.9050 C   0  0  2  0  0  0  0  0  0  0  0  0
   -8.6160   -2.1800    0.2650 C   0  0  0  0  0  0  0  0  0  0  0  0
   -9.1650   -3.4730    0.0960 O   0  0  0  0  0  0  0  0  0  0  0  0
   -6.7430   -1.1460    1.6140 C   0  0  0  0  0  0  0  0  0  0  0  0
   -6.1890   -0.0320    0.9340 N   0  0  0  0  0  0  0  0  0  0  0  0
   -4.7360    0.0940    0.9130 C   0  0  0  0  0  0  0  0  0  0  0  0
   -4.2070    0.9060    0.1140 O   0  0  0  0  0  0  0  0  0  0  0  0
   -3.8290   -0.6430    1.7750 C   0  0  0  0  0  0  0  0  0  0  0  0
   -2.4350   -0.3020    1.5550 N   0  0  0  0  0  0  0  0  0  0  0  0
   -1.7440   -0.4520    0.3330 C   0  0  0  0  0  0  0  0  0  0  0  0
   -2.4400   -0.9340   -0.6260 O   0  0  0  0  0  0  0  0  0  0  0  0
   -0.3840   -0.1040    0.1530 N   0  0  0  0  0  0  0  0  0  0  0  0
    0.4700    0.4520    1.1780 C   0  0  0  0  0  0  0  0  0  0  0  0
    0.9530    1.6910    0.4000 C   0  0  0  0  0  0  0  0  0  0  0  0
    1.4530    0.9860   -0.8670 C   0  0  1  0  0  0  0  0  0  0  0  0
    2.8020    0.5460   -0.5770 N   0  0  0  0  0  0  0  0  0  0  0  0
    3.7210    0.8300   -1.6470 C   0  0  0  0  0  0  0  0  0  0  0  0
    4.2200    2.2080   -1.7290 C   0  0  1  0  0  0  0  0  0  0  0  0
    3.1360    3.1270   -1.9420 O   0  0  0  0  0  0  0  0  0  0  0  0
    5.1260    2.7490   -0.7010 C   0  0  0  0  0  0  0  0  0  0  0  0
    6.4320    2.1210   -0.4600 C   0  0  0  0  0  0  0  0  0  0  0  0
    6.3600    0.7840    0.0560 N   0  0  0  0  0  0  0  0  0  0  0  0
    7.5590    0.0420    0.1790 C   0  0  0  0  0  0  0  0  0  0  0  0
    7.5010   -1.2540    0.6180 C   0  0  0  0  0  0  0  0  0  0  0  0
    8.6650   -1.9810    0.7460 C   0  0  0  0  0  0  0  0  0  0  0  0
    8.6100   -3.3730    1.2170 C   0  0  0  0  0  0  0  0  0  0  0  0
    9.8790   -1.4050    0.4350 C   0  0  0  0  0  0  0  0  0  0  0  0
   11.1450   -2.1750    0.5690 C   0  0  0  0  0  0  0  0  0  0  0  0
    9.9580   -0.1070   -0.0070 C   0  0  0  0  0  0  0  0  0  0  0  0
   11.2250    0.5640   -0.3560 C   0  0  0  0  0  0  0  0  0  0  0  0
    8.7690    0.6000   -0.1270 C   0  0  0  0  0  0  0  0  0  0  0  0
    0.4780   -0.1910   -1.0060 C   0  0  0  0  0  0  0  0  0  0  0  0
   -6.9470    1.0200    0.2980 C   0  0  1  0  0  0  0  0  0  0  0  0
   -8.4130    1.0060    0.5570 C   0  0  0  0  0  0  0  0  0  0  0  0
   -6.4810    2.4100    0.7950 C   0  0  0  0  0  0  0  0  0  0  0  0
   -6.6530    3.3920   -0.3320 C   0  0  0  0  0  0  0  0  0  0  0  0
   -7.7440    3.1720   -1.1330 O   0  0  0  0  0  0  0  0  0  0  0  0
   -7.7130    1.9790   -1.8230 C   0  0  0  0  0  0  0  0  0  0  0  0
   -6.6730    1.0520   -1.2100 C   0  0  0  0  0  0  0  0  0  0  0  0
  1  2  1  0
  3  2  1  6
  3  4  1  0
  3  6  1  0
  4  5  1  0
  6  7  1  0
  7  8  1  0
  7 35  1  0
  8  9  2  0
  8 10  1  0
 10 11  1  0
 11 12  1  0
 12 13  2  0
 12 14  1  0
 14 15  1  0
 14 34  1  0
 15 16  1  0
 16 17  1  0
 17 18  1  1
 17 34  1  0
 18 19  1  0
 19 20  1  0
 20 21  1  1
 20 22  1  0
 22 23  1  0
 23 24  1  0
 24 25  1  0
 25 26  2  0
 25 33  1  0
 26 27  1  0
 27 28  1  0
 27 29  2  0
 29 30  1  0
 29 31  1  0
 31 32  1  0
 31 33  2  0
 35 36  1  6
 35 37  1  0
 35 41  1  0
 37 38  1  0
 38 39  1  0
 39 40  1  0
 40 41  1  0
M  CHG  1  18   1
M  END
