
     RDKit          3D

 41 42  0  0  0  0  0  0  0  0999 V2000
    7.7670   -2.0440    1.8740 C   0  0  0  0  0  0  0  0  0  0  0  0
    7.5010   -2.0690    0.4270 C   0  0  0  0  0  0  0  0  0  0  0  0
    6.2690   -1.4620   -0.0210 N   0  0  1  0  0  0  0  0  0  0  0  0
    5.1240   -1.7700    0.7630 C   0  0  0  0  0  0  0  0  0  0  0  0
    4.9570   -3.2870    0.8080 C   0  0  0  0  0  0  0  0  0  0  0  0
    4.7900   -3.8120   -0.4660 O   0  0  0  0  0  0  0  0  0  0  0  0
    6.4510   -0.1220   -0.4340 C   0  0  0  0  0  0  0  0  0  0  0  0
    5.8820    0.9730    0.3950 C   0  0  2  0  0  0  0  0  0  0  0  0
    6.6320    1.2050    1.6940 C   0  0  0  0  0  0  0  0  0  0  0  0
    4.5030    0.9370    0.5630 O   0  0  0  0  0  0  0  0  0  0  0  0
    3.5510    1.7960    0.0670 C   0  0  0  0  0  0  0  0  0  0  0  0
    3.7640    2.8900   -0.7150 C   0  0  0  0  0  0  0  0  0  0  0  0
    2.7350    3.6680   -1.1510 C   0  0  0  0  0  0  0  0  0  0  0  0
    1.3760    3.3980   -0.8260 C   0  0  0  0  0  0  0  0  0  0  0  0
    0.4110    4.2580   -1.5150 C   0  0  2  0  0  0  0  0  0  0  0  0
    0.9770    5.6540   -1.8140 C   0  0  0  0  0  0  0  0  0  0  0  0
   -1.0010    4.2220   -1.2960 C   0  0  0  0  0  0  0  0  0  0  0  0
   -1.8870    3.1270   -1.8610 C   0  0  0  0  0  0  0  0  0  0  0  0
   -1.5750    5.0860   -0.6420 O   0  0  0  0  0  0  0  0  0  0  0  0
    1.1580    2.3040   -0.0370 C   0  0  0  0  0  0  0  0  0  0  0  0
   -0.1230    2.0460    0.4850 N   0  0  0  0  0  0  0  0  0  0  0  0
   -0.6030    0.8070    0.9620 C   0  0  0  0  0  0  0  0  0  0  0  0
    0.1330   -0.2260    0.9330 O   0  0  0  0  0  0  0  0  0  0  0  0
   -1.9090    0.6990    1.4810 N   0  0  0  0  0  0  0  0  0  0  0  0
   -2.7720    1.8580    1.6480 C   0  0  0  0  0  0  0  0  0  0  0  0
   -2.4840   -0.5670    1.8030 C   0  0  0  0  0  0  0  0  0  0  0  0
   -3.3960   -1.1270    0.7470 C   0  0  0  0  0  0  0  0  0  0  0  0
   -4.6420   -1.3240    1.1130 C   0  0  0  0  0  0  0  0  0  0  0  0
   -5.7410   -1.8490    0.3530 C   0  0  0  0  0  0  0  0  0  0  0  0
   -5.7660   -3.1180   -0.1760 C   0  0  0  0  0  0  0  0  0  0  0  0
   -6.8080   -3.5930   -0.9030 C   0  0  0  0  0  0  0  0  0  0  0  0
   -6.8420   -4.9680   -1.4780 C   0  0  0  0  0  0  0  0  0  0  0  0
   -7.9140   -2.8030   -1.1490 C   0  0  0  0  0  0  0  0  0  0  0  0
   -7.9040   -1.5350   -0.6270 C   0  0  0  0  0  0  0  0  0  0  0  0
   -6.8620   -1.0490    0.1040 C   0  0  0  0  0  0  0  0  0  0  0  0
   -6.8730    0.2690    0.6310 N   0  0  0  0  0  0  0  0  0  0  0  0
   -8.0390    1.0980    0.3530 C   0  0  0  0  0  0  0  0  0  0  0  0
   -2.9480   -1.3450   -0.5890 C   0  0  0  0  0  0  0  0  0  0  0  0
   -3.8830   -1.7550   -1.6050 N   0  0  0  0  0  0  0  0  0  0  0  0
   -1.7500   -1.2060   -0.9850 O   0  0  0  0  0  0  0  0  0  0  0  0
    2.2280    1.5110    0.4040 C   0  0  0  0  0  0  0  0  0  0  0  0
  1  2  1  0
  3  2  1  1
  3  4  1  0
  3  7  1  0
  4  5  1  0
  5  6  1  0
  7  8  1  0
  8  9  1  1
  8 10  1  0
 10 11  1  0
 11 12  2  0
 11 41  1  0
 12 13  1  0
 13 14  2  0
 14 15  1  0
 14 20  1  0
 15 16  1  1
 15 17  1  0
 17 18  1  0
 17 19  2  0
 20 21  1  0
 20 41  2  0
 21 22  1  0
 22 23  2  0
 22 24  1  0
 24 25  1  0
 24 26  1  0
 26 27  1  0
 27 28  2  3
 27 38  1  0
 28 29  1  0
 29 30  2  0
 29 35  1  0
 30 31  1  0
 31 32  1  0
 31 33  2  0
 33 34  1  0
 34 35  2  0
 35 36  1  0
 36 37  1  0
 38 39  1  0
 38 40  2  0
M  CHG  1   3   1
M  END
