
     RDKit          3D

 41 43  0  0  0  0  0  0  0  0999 V2000
    8.4780    0.7070    2.2410 C   0  0  0  0  0  0  0  0  0  0  0  0
    7.8130   -0.6470    2.2340 C   0  0  0  0  0  0  0  0  0  0  0  0
    6.4060   -0.5120    1.8340 N   0  0  0  0  0  0  0  0  0  0  0  0
    5.8500   -1.8650    1.8650 C   0  0  0  0  0  0  0  0  0  0  0  0
    6.3210    0.0610    0.5010 C   0  0  0  0  0  0  0  0  0  0  0  0
    4.9420    0.3790    0.1700 C   0  0  0  0  0  0  0  0  0  0  0  0
    3.9750    0.1900    1.1320 C   0  0  0  0  0  0  0  0  0  0  0  0
    2.6470    0.5160    0.9160 C   0  0  0  0  0  0  0  0  0  0  0  0
    2.2790    1.0440   -0.2920 C   0  0  0  0  0  0  0  0  0  0  0  0
    0.9350    1.3720   -0.6090 N   0  0  0  0  0  0  0  0  0  0  0  0
   -0.2180    0.8500   -0.0030 C   0  0  0  0  0  0  0  0  0  0  0  0
   -0.1050    0.0000    0.9020 O   0  0  0  0  0  0  0  0  0  0  0  0
   -1.6260    1.2600   -0.3780 C   0  0  2  0  0  0  0  0  0  0  0  0
   -1.7540    2.6600    0.1680 C   0  0  0  0  0  0  0  0  0  0  0  0
   -3.2090    3.0770    0.2260 C   0  0  1  0  0  0  0  0  0  0  0  0
   -3.6370    3.8380   -0.9630 C   0  0  0  0  0  0  0  0  0  0  0  0
   -3.4530    3.2180   -2.3000 C   0  0  0  0  0  0  0  0  0  0  0  0
   -4.0420    2.0300   -2.5600 O   0  0  0  0  0  0  0  0  0  0  0  0
   -4.0960    2.0780    0.8120 C   0  0  0  0  0  0  0  0  0  0  0  0
   -5.1460    2.4180    1.4800 O   0  0  0  0  0  0  0  0  0  0  0  0
   -3.8260    0.6660    0.6660 N   0  0  0  0  0  0  0  0  0  0  0  0
   -4.8420   -0.2030    1.1330 C   0  0  0  0  0  0  0  0  0  0  0  0
   -6.0970   -0.2810    0.8530 C   0  0  0  0  0  0  0  0  0  0  0  0
   -7.0530    0.3590    0.0330 C   0  0  0  0  0  0  0  0  0  0  0  0
   -8.2800   -0.1110    0.0970 O   0  0  0  0  0  0  0  0  0  0  0  0
   -6.9570    1.4280   -0.8640 N   0  0  0  0  0  0  0  0  0  0  0  0
   -8.0960    1.9350   -1.6160 C   0  0  0  0  0  0  0  0  0  0  0  0
   -4.3740   -1.1900    2.2050 C   0  0  0  0  0  0  0  0  0  0  0  0
   -3.7090   -2.3520    1.5970 C   0  0  2  0  0  0  0  0  0  0  0  0
   -4.6630   -3.0760    0.6590 C   0  0  0  0  0  0  0  0  0  0  0  0
   -5.4980   -3.9140    1.5880 C   0  0  0  0  0  0  0  0  0  0  0  0
   -4.7020   -3.9770    2.8970 C   0  0  0  0  0  0  0  0  0  0  0  0
   -3.4270   -3.4040    2.5900 N   0  0  0  0  0  0  0  0  0  0  0  0
   -2.5610    0.2480    0.1570 C   0  0  0  0  0  0  0  0  0  0  0  0
    3.2550    1.2320   -1.2500 C   0  0  0  0  0  0  0  0  0  0  0  0
    4.6070    0.9020   -1.0390 C   0  0  0  0  0  0  0  0  0  0  0  0
    5.5060    1.1130   -2.1220 C   0  0  0  0  0  0  0  0  0  0  0  0
    5.7620    0.1650   -3.2100 C   0  0  0  0  0  0  0  0  0  0  0  0
    6.2410   -1.2000   -2.9800 C   0  0  0  0  0  0  0  0  0  0  0  0
    5.2550   -2.0740   -2.2700 C   0  0  0  0  0  0  0  0  0  0  0  0
    4.1040   -2.0960   -3.0810 O   0  0  0  0  0  0  0  0  0  0  0  0
  1  2  1  0
  2  3  1  0
  3  4  1  0
  3  5  1  0
  5  6  1  0
  6  7  2  0
  6 36  1  0
  7  8  1  0
  8  9  2  0
  9 10  1  0
  9 35  1  0
 10 11  1  0
 11 12  2  0
 13 11  1  1
 13 14  1  0
 13 34  1  0
 14 15  1  0
 15 16  1  6
 15 19  1  0
 16 17  1  0
 17 18  1  0
 19 20  2  0
 19 21  1  0
 21 22  1  0
 21 34  1  0
 22 23  2  3
 22 28  1  0
 23 24  1  0
 24 25  2  0
 24 26  1  0
 26 27  1  0
 29 28  1  1
 29 30  1  0
 29 33  1  0
 30 31  1  0
 31 32  1  0
 32 33  1  0
 35 36  2  0
 36 37  1  0
 37 38  1  0
 38 39  1  0
 39 40  1  0
 40 41  1  0
M  CHG  1  33   1
M  END
