
     RDKit          3D

 42 46  0  0  0  0  0  0  0  0999 V2000
    8.1730    4.0440    2.5900 C   0  0  0  0  0  0  0  0  0  0  0  0
    8.2060    2.7190    2.0840 O   0  0  0  0  0  0  0  0  0  0  0  0
    7.0950    2.1930    1.4010 C   0  0  0  0  0  0  0  0  0  0  0  0
    5.9460    2.8960    1.1850 C   0  0  0  0  0  0  0  0  0  0  0  0
    4.8930    2.3120    0.5030 C   0  0  0  0  0  0  0  0  0  0  0  0
    4.9850    1.0190    0.0340 C   0  0  0  0  0  0  0  0  0  0  0  0
    3.6370    0.3150   -0.8330 S   0  0  1  0  0  0  0  0  0  0  0  0
    3.0040    1.4380   -1.6040 O   0  0  0  0  0  0  0  0  0  0  0  0
    4.1520   -0.6470   -1.9020 O   0  0  0  0  0  0  0  0  0  0  0  0
    2.5130   -0.4920    0.1860 N   0  0  0  0  0  0  0  0  0  0  0  0
    3.0530   -1.5950    0.9100 C   0  0  0  0  0  0  0  0  0  0  0  0
    3.5740   -1.2830    2.2840 C   0  0  2  0  0  0  0  0  0  0  0  0
    4.0990   -2.5860    2.8700 C   0  0  0  0  0  0  0  0  0  0  0  0
    2.4640   -0.8200    3.2150 C   0  0  0  0  0  0  0  0  0  0  0  0
    1.4220   -0.9750   -0.6430 C   0  0  0  0  0  0  0  0  0  0  0  0
    0.2430   -0.0820   -0.6450 C   0  0  1  0  0  0  0  0  0  0  0  0
    0.4710    1.2050   -1.1030 O   0  0  0  0  0  0  0  0  0  0  0  0
   -1.0590   -0.6020   -1.0900 C   0  0  2  0  0  0  0  0  0  0  0  0
   -1.3810   -0.6100   -2.5440 C   0  0  0  0  0  0  0  0  0  0  0  0
   -0.4930   -1.3740   -3.4290 C   0  0  0  0  0  0  0  0  0  0  0  0
    0.5580   -0.7890   -4.1270 C   0  0  0  0  0  0  0  0  0  0  0  0
    1.4030   -1.4800   -4.9590 C   0  0  0  0  0  0  0  0  0  0  0  0
    1.2200   -2.8410   -5.1310 C   0  0  0  0  0  0  0  0  0  0  0  0
    0.1960   -3.4730   -4.4660 C   0  0  0  0  0  0  0  0  0  0  0  0
   -0.6320   -2.7430   -3.6390 C   0  0  0  0  0  0  0  0  0  0  0  0
   -2.0690    0.2970   -0.4450 N   0  0  0  0  0  0  0  0  0  0  0  0
   -3.0460   -0.2460    0.4090 C   0  0  0  0  0  0  0  0  0  0  0  0
   -3.0170   -1.4970    0.5870 O   0  0  0  0  0  0  0  0  0  0  0  0
   -4.0200    0.4740    1.0570 O   0  0  0  0  0  0  0  0  0  0  0  0
   -4.9540   -0.2280    1.8960 C   0  0  1  0  0  0  0  0  0  0  0  0
   -4.7750    0.3250    3.2860 C   0  0  0  0  0  0  0  0  0  0  0  0
   -5.6720    1.3790    3.3330 O   0  0  0  0  0  0  0  0  0  0  0  0
   -6.8420    0.9090    2.7260 C   0  0  1  0  0  0  0  0  0  0  0  0
   -7.6180    1.9230    2.2330 O   0  0  0  0  0  0  0  0  0  0  0  0
   -7.7000    1.8710    0.8750 C   0  0  2  0  0  0  0  0  0  0  0  0
   -8.8120    1.1520    0.4160 O   0  0  0  0  0  0  0  0  0  0  0  0
   -8.4590    0.8850   -0.9110 C   0  0  0  0  0  0  0  0  0  0  0  0
   -7.0140    0.3670   -0.8100 C   0  0  0  0  0  0  0  0  0  0  0  0
   -6.5160    1.0580    0.4160 C   0  0  2  0  0  0  0  0  0  0  0  0
   -6.3600    0.0740    1.5520 C   0  0  1  0  0  0  0  0  0  0  0  0
    6.1560    0.3430    0.2700 C   0  0  0  0  0  0  0  0  0  0  0  0
    7.2130    0.9010    0.9430 C   0  0  0  0  0  0  0  0  0  0  0  0
  1  2  1  0
  2  3  1  0
  3  4  2  0
  3 42  1  0
  4  5  1  0
  5  6  2  0
  6  7  1  0
  6 41  1  0
  7  8  2  0
  7  9  2  0
  7 10  1  1
 10 11  1  0
 10 15  1  0
 11 12  1  0
 12 13  1  1
 12 14  1  0
 15 16  1  0
 16 17  1  6
 16 18  1  0
 18 19  1  6
 18 26  1  0
 19 20  1  0
 20 21  2  0
 20 25  1  0
 21 22  1  0
 22 23  2  0
 23 24  1  0
 24 25  2  0
 26 27  1  0
 27 28  2  0
 27 29  1  0
 30 29  1  6
 30 31  1  0
 40 30  1  1
 31 32  1  0
 33 32  1  6
 33 34  1  0
 33 40  1  0
 35 34  1  1
 35 36  1  0
 35 39  1  0
 36 37  1  0
 37 38  1  0
 39 38  1  6
 39 40  1  0
 41 42  2  0
M  END
