
     RDKit          3D

 41 43  0  0  0  0  0  0  0  0999 V2000
    7.5920    3.3870    0.4530 C   0  0  0  0  0  0  0  0  0  0  0  0
    6.6300    2.5530    1.3560 C   0  0  0  0  0  0  0  0  0  0  0  0
    7.0920    1.1930    1.2920 C   0  0  0  0  0  0  0  0  0  0  0  0
    6.4480    0.1040    0.8660 C   0  0  0  0  0  0  0  0  0  0  0  0
    7.2320   -1.1880    0.9310 C   0  0  0  0  0  0  0  0  0  0  0  0
    7.4230   -1.7750   -0.4080 C   0  0  2  0  0  0  0  0  0  0  0  0
    8.2530   -3.0700   -0.3100 C   0  0  0  0  0  0  0  0  0  0  0  0
    9.7220   -2.7990   -0.2360 C   0  0  0  0  0  0  0  0  0  0  0  0
   10.1450   -1.8650   -1.3490 C   0  0  0  0  0  0  0  0  0  0  0  0
    9.3850   -0.5700   -1.1320 C   0  0  0  0  0  0  0  0  0  0  0  0
    7.9890   -0.8510   -1.3550 N   0  0  0  0  0  0  0  0  0  0  0  0
    5.0910    0.1460    0.4500 C   0  0  0  0  0  0  0  0  0  0  0  0
    4.5000    1.2820    0.5260 O   0  0  0  0  0  0  0  0  0  0  0  0
    4.2650   -0.9560   -0.0630 C   0  0  1  0  0  0  0  0  0  0  0  0
    4.1560   -2.0760    0.9260 C   0  0  0  0  0  0  0  0  0  0  0  0
    2.8760   -0.4100   -0.1880 N   0  0  0  0  0  0  0  0  0  0  0  0
    2.3330   -0.2780   -1.4710 C   0  0  0  0  0  0  0  0  0  0  0  0
    3.0300   -0.6200   -2.4850 O   0  0  0  0  0  0  0  0  0  0  0  0
    0.9960    0.2350   -1.7200 C   0  0  0  0  0  0  0  0  0  0  0  0
    0.2400    0.5920   -0.5530 N   0  0  0  0  0  0  0  0  0  0  0  0
   -1.0930    1.1130   -0.6830 C   0  0  0  0  0  0  0  0  0  0  0  0
   -1.5850    1.2600   -1.8290 O   0  0  0  0  0  0  0  0  0  0  0  0
   -1.8630    1.4620    0.4580 N   0  0  0  0  0  0  0  0  0  0  0  0
   -3.1950    1.9810    0.2530 C   0  0  2  0  0  0  0  0  0  0  0  0
   -3.4170    3.2700    0.9810 C   0  0  0  0  0  0  0  0  0  0  0  0
   -4.7670    3.8450    0.7150 C   0  0  0  0  0  0  0  0  0  0  0  0
   -5.8850    2.8540    0.9660 C   0  0  0  0  0  0  0  0  0  0  0  0
   -5.5900    1.5290    0.2670 C   0  0  2  0  0  0  0  0  0  0  0  0
   -6.6170    0.6530    0.5560 O   0  0  0  0  0  0  0  0  0  0  0  0
   -7.4940    0.1670   -0.3710 C   0  0  0  0  0  0  0  0  0  0  0  0
   -7.5180    0.4680   -1.7130 C   0  0  0  0  0  0  0  0  0  0  0  0
   -8.4650   -0.0910   -2.5690 C   0  0  0  0  0  0  0  0  0  0  0  0
   -9.4100   -0.9620   -2.1180 C   0  0  0  0  0  0  0  0  0  0  0  0
  -10.3400   -1.5020   -3.0000 O   0  0  0  0  0  0  0  0  0  0  0  0
  -11.3310   -2.4000   -2.5880 C   0  0  0  0  0  0  0  0  0  0  0  0
   -9.3990   -1.2750   -0.7730 C   0  0  0  0  0  0  0  0  0  0  0  0
   -8.4700   -0.7330    0.0910 C   0  0  0  0  0  0  0  0  0  0  0  0
   -8.4590   -1.0580    1.4680 N   0  0  0  0  0  0  0  0  0  0  0  0
   -8.6130   -0.1030    2.5440 C   0  0  0  0  0  0  0  0  0  0  0  0
   -8.2810   -2.4570    1.8620 C   0  0  0  0  0  0  0  0  0  0  0  0
   -4.2460    0.9820    0.7570 C   0  0  0  0  0  0  0  0  0  0  0  0
  1  2  1  0
  2  3  1  0
  3  4  2  3
  4  5  1  0
  4 12  1  0
  6  5  1  1
  6  7  1  0
  6 11  1  0
  7  8  1  0
  8  9  1  0
  9 10  1  0
 10 11  1  0
 12 13  2  0
 12 14  1  0
 14 15  1  1
 14 16  1  0
 16 17  1  0
 17 18  2  0
 17 19  1  0
 19 20  1  0
 20 21  1  0
 21 22  2  0
 21 23  1  0
 24 23  1  1
 24 25  1  0
 24 41  1  0
 25 26  1  0
 26 27  1  0
 27 28  1  0
 28 29  1  1
 28 41  1  0
 29 30  1  0
 30 31  2  0
 30 37  1  0
 31 32  1  0
 32 33  2  0
 33 34  1  0
 33 36  1  0
 34 35  1  0
 36 37  2  0
 37 38  1  0
 38 39  1  0
 38 40  1  0
M  CHG  1  11   1
M  END
