
     RDKit          3D

 41 42  0  0  0  0  0  0  0  0999 V2000
   12.1450    2.2020    2.2190 C   0  0  0  0  0  0  0  0  0  0  0  0
   11.2790    1.0280    2.0740 C   0  0  0  0  0  0  0  0  0  0  0  0
   10.3270    0.7730    1.2770 C   0  0  0  0  0  0  0  0  0  0  0  0
    9.2980    0.3800    0.4870 C   0  0  0  0  0  0  0  0  0  0  0  0
    8.6580    0.9210   -0.5350 C   0  0  0  0  0  0  0  0  0  0  0  0
    9.0570    2.2210   -1.0600 C   0  0  0  0  0  0  0  0  0  0  0  0
   10.1580    2.9440   -0.5230 N   0  0  0  0  0  0  0  0  0  0  0  0
    8.4560    2.7600   -2.0000 O   0  0  0  0  0  0  0  0  0  0  0  0
    7.3490    0.3480   -0.9200 C   0  0  0  0  0  0  0  0  0  0  0  0
    6.7370    0.7210   -2.0650 C   0  0  0  0  0  0  0  0  0  0  0  0
    5.3840    0.3580   -2.2860 C   0  0  0  0  0  0  0  0  0  0  0  0
    4.6950   -0.3810   -1.3270 C   0  0  0  0  0  0  0  0  0  0  0  0
    3.3080   -0.5150   -1.4860 N   0  0  0  0  0  0  0  0  0  0  0  0
    2.5060   -0.0430   -0.2710 C   0  0  0  0  0  0  0  0  0  0  0  0
    3.1990    0.2530    0.6420 O   0  0  0  0  0  0  0  0  0  0  0  0
    1.1600   -0.0790   -0.6130 N   0  0  0  0  0  0  0  0  0  0  0  0
    0.5750    0.4030    0.9690 C   0  0  0  0  0  0  0  0  0  0  0  0
    1.3910    0.3340    1.7830 O   0  0  0  0  0  0  0  0  0  0  0  0
   -0.8080    0.7960    0.9180 C   0  0  1  0  0  0  0  0  0  0  0  0
   -1.0830    1.7180   -0.2820 C   0  0  0  0  0  0  0  0  0  0  0  0
   -1.9330   -0.0670    1.2890 C   0  0  0  0  0  0  0  0  0  0  0  0
   -2.1580   -1.2980    0.6050 C   0  0  0  0  0  0  0  0  0  0  0  0
   -1.0860   -2.0810    0.4770 O   0  0  0  0  0  0  0  0  0  0  0  0
   -3.3080   -1.8740    0.0110 N   0  0  0  0  0  0  0  0  0  0  0  0
   -3.1610   -3.1640   -0.6020 C   0  0  0  0  0  0  0  0  0  0  0  0
   -3.1960   -4.2990    0.3710 C   0  0  2  0  0  0  0  0  0  0  0  0
   -3.0820   -5.6660   -0.2970 C   0  0  0  0  0  0  0  0  0  0  0  0
   -4.2760   -4.3840    1.3790 C   0  0  0  0  0  0  0  0  0  0  0  0
   -3.9720   -5.5650    2.1300 O   0  0  0  0  0  0  0  0  0  0  0  0
   -4.5570   -1.1080    0.1060 C   0  0  2  0  0  0  0  0  0  0  0  0
   -5.7770   -1.8470   -0.2550 C   0  0  0  0  0  0  0  0  0  0  0  0
   -6.8990   -0.9240   -0.7290 C   0  0  0  0  0  0  0  0  0  0  0  0
   -7.0380    0.3190    0.0470 C   0  0  0  0  0  0  0  0  0  0  0  0
   -6.3380    1.4580   -0.5690 N   0  0  1  0  0  0  0  0  0  0  0  0
   -6.5660    2.5400    0.4020 C   0  0  0  0  0  0  0  0  0  0  0  0
   -6.1480    3.8860   -0.0610 C   0  0  0  0  0  0  0  0  0  0  0  0
   -6.8270    4.4000   -1.2870 C   0  0  0  0  0  0  0  0  0  0  0  0
   -4.9090    1.2570   -0.6690 C   0  0  0  0  0  0  0  0  0  0  0  0
   -4.4480   -0.0690   -1.1380 C   0  0  0  0  0  0  0  0  0  0  0  0
    5.3170   -0.7740   -0.1720 C   0  0  0  0  0  0  0  0  0  0  0  0
    6.6360   -0.4020    0.0160 C   0  0  0  0  0  0  0  0  0  0  0  0
  1  2  1  0
  2  3  2  3
  3  4  1  0
  4  5  2  3
  5  6  1  0
  5  9  1  0
  6  7  1  0
  6  8  2  0
  9 10  2  0
  9 41  1  0
 10 11  1  0
 11 12  2  0
 12 13  1  0
 12 40  1  0
 13 14  1  0
 14 15  2  0
 14 16  1  0
 16 17  1  0
 17 18  2  0
 17 19  1  0
 19 20  1  6
 19 21  1  0
 21 22  1  0
 22 23  2  0
 22 24  1  0
 24 25  1  0
 30 24  1  6
 25 26  1  0
 26 27  1  6
 26 28  1  0
 28 29  1  0
 30 31  1  0
 30 39  1  0
 31 32  1  0
 32 33  1  0
 33 34  1  0
 34 35  1  1
 34 38  1  0
 35 36  1  0
 36 37  1  0
 38 39  1  0
 40 41  2  0
M  CHG  1  34   1
M  END
