
     RDKit          3D

 41 43  0  0  0  0  0  0  0  0999 V2000
   -8.8030    0.7270    2.4030 C   0  0  0  0  0  0  0  0  0  0  0  0
   -8.1190    1.2670    1.2120 N   0  0  0  0  0  0  0  0  0  0  0  0
   -6.7190    1.2030    1.2140 C   0  0  0  0  0  0  0  0  0  0  0  0
   -5.8790    0.4030    0.6250 C   0  0  0  0  0  0  0  0  0  0  0  0
   -6.3000   -0.6910   -0.2370 C   0  0  0  0  0  0  0  0  0  0  0  0
   -5.3770   -1.4430   -0.8390 C   0  0  0  0  0  0  0  0  0  0  0  0
   -5.6740   -2.5940   -1.7390 C   0  0  0  0  0  0  0  0  0  0  0  0
   -7.0360   -2.8170   -1.9320 O   0  0  0  0  0  0  0  0  0  0  0  0
   -8.0150   -2.0680   -1.3300 C   0  0  0  0  0  0  0  0  0  0  0  0
   -7.6730   -1.0560   -0.5230 C   0  0  0  0  0  0  0  0  0  0  0  0
   -4.3900    0.6320    0.8340 C   0  0  1  0  0  0  0  0  0  0  0  0
   -4.1850    1.9950    1.3850 C   0  0  0  0  0  0  0  0  0  0  0  0
   -2.7180    2.4370    1.2110 C   0  0  0  0  0  0  0  0  0  0  0  0
   -1.8450    1.5230    1.9490 C   0  0  0  0  0  0  0  0  0  0  0  0
   -1.3800    0.2670    1.2470 C   0  0  2  0  0  0  0  0  0  0  0  0
   -0.6480    0.4390    0.0380 N   0  0  1  0  0  0  0  0  0  0  0  0
   -1.2320   -0.0170   -1.1810 C   0  0  0  0  0  0  0  0  0  0  0  0
   -1.5220    1.0520   -2.2230 C   0  0  0  0  0  0  0  0  0  0  0  0
   -2.0940    0.3000   -3.3040 O   0  0  0  0  0  0  0  0  0  0  0  0
    0.0150    1.7160   -0.0620 C   0  0  0  0  0  0  0  0  0  0  0  0
    1.5240    1.6330   -0.0750 C   0  0  1  0  0  0  0  0  0  0  0  0
    2.0860    1.0760    1.0400 O   0  0  0  0  0  0  0  0  0  0  0  0
    2.0610    0.9740   -1.3400 C   0  0  0  0  0  0  0  0  0  0  0  0
    3.5300    1.1740   -1.3800 N   0  0  0  0  0  0  0  0  0  0  0  0
    3.9690    2.3760   -1.9970 C   0  0  0  0  0  0  0  0  0  0  0  0
    4.3280    0.2100   -0.7860 C   0  0  0  0  0  0  0  0  0  0  0  0
    3.6640   -0.7540   -0.2030 O   0  0  0  0  0  0  0  0  0  0  0  0
    5.7270    0.0650   -0.6830 N   0  0  0  0  0  0  0  0  0  0  0  0
    6.7230    0.8800   -1.2780 C   0  0  0  0  0  0  0  0  0  0  0  0
    7.2660    0.6690   -2.6170 C   0  0  0  0  0  0  0  0  0  0  0  0
    7.8960   -0.4260   -3.0430 O   0  0  0  0  0  0  0  0  0  0  0  0
    7.1740   -1.5490   -3.2360 C   0  0  0  0  0  0  0  0  0  0  0  0
    6.1720   -1.0100    0.2030 C   0  0  0  0  0  0  0  0  0  0  0  0
    7.0950   -0.7400    1.1840 C   0  0  0  0  0  0  0  0  0  0  0  0
    7.5280   -1.7310    2.0660 C   0  0  0  0  0  0  0  0  0  0  0  0
    7.0370   -3.0120    1.9730 C   0  0  0  0  0  0  0  0  0  0  0  0
    7.4860   -4.0130    2.8760 N   0  0  0  0  0  0  0  0  0  0  0  0
    6.1210   -3.2690    0.9930 C   0  0  0  0  0  0  0  0  0  0  0  0
    5.6940   -2.2880    0.1220 C   0  0  0  0  0  0  0  0  0  0  0  0
   -2.3620   -0.8390    1.3150 C   0  0  0  0  0  0  0  0  0  0  0  0
   -3.7920   -0.4740    1.6010 C   0  0  0  0  0  0  0  0  0  0  0  0
  1  2  1  0
  2  3  1  0
  3  4  2  3
  4  5  1  0
 11  4  1  1
  5  6  2  0
  5 10  1  0
  6  7  1  0
  7  8  1  0
  8  9  1  0
  9 10  2  0
 11 12  1  0
 11 41  1  0
 12 13  1  0
 13 14  1  0
 15 14  1  6
 15 16  1  0
 15 40  1  0
 16 17  1  6
 16 20  1  0
 17 18  1  0
 18 19  1  0
 20 21  1  0
 21 22  1  1
 21 23  1  0
 23 24  1  0
 24 25  1  0
 24 26  1  0
 26 27  2  0
 26 28  1  0
 28 29  1  0
 28 33  1  0
 29 30  1  0
 30 31  1  0
 31 32  1  0
 33 34  2  0
 33 39  1  0
 34 35  1  0
 35 36  2  0
 36 37  1  0
 36 38  1  0
 38 39  2  0
 40 41  1  0
M  CHG  1  16   1
M  END
