
     RDKit          3D

 41 42  0  0  0  0  0  0  0  0999 V2000
    8.7950    3.7530   -2.0510 C   0  0  0  0  0  0  0  0  0  0  0  0
    9.1210    2.8130   -2.9060 C   0  0  0  0  0  0  0  0  0  0  0  0
    8.0520    2.0560   -3.6560 C   0  0  0  0  0  0  0  0  0  0  0  0
    6.7450    2.4920   -3.2900 N   0  0  0  0  0  0  0  0  0  0  0  0
    6.1070    3.5800   -3.9920 C   0  0  0  0  0  0  0  0  0  0  0  0
    6.0420    1.8770   -2.2230 C   0  0  0  0  0  0  0  0  0  0  0  0
    6.5800    0.9440   -1.5960 O   0  0  0  0  0  0  0  0  0  0  0  0
    4.7440    2.2950   -1.8490 N   0  0  0  0  0  0  0  0  0  0  0  0
    4.0590    1.6730   -0.7720 C   0  0  0  0  0  0  0  0  0  0  0  0
    3.4510    0.3450   -1.0740 C   0  0  0  0  0  0  0  0  0  0  0  0
    3.7590   -0.2830   -2.2590 C   0  0  0  0  0  0  0  0  0  0  0  0
    3.1950   -1.5090   -2.5300 C   0  0  0  0  0  0  0  0  0  0  0  0
    2.3320   -2.0840   -1.6120 C   0  0  0  0  0  0  0  0  0  0  0  0
    2.0170   -1.4790   -0.4320 C   0  0  0  0  0  0  0  0  0  0  0  0
    1.1870   -2.0950    0.5810 C   0  0  0  0  0  0  0  0  0  0  0  0
    0.7160   -1.2330    1.4240 O   0  0  0  0  0  0  0  0  0  0  0  0
    0.8100   -3.4020    0.8170 N   0  0  0  0  0  0  0  0  0  0  0  0
    1.4090   -4.4840    0.0070 C   0  0  0  0  0  0  0  0  0  0  0  0
    1.5670   -5.6510    0.9910 C   0  0  0  0  0  0  0  0  0  0  0  0
    1.7740   -5.1990    2.3950 C   0  0  0  0  0  0  0  0  0  0  0  0
    0.6350   -4.3870    2.9620 C   0  0  0  0  0  0  0  0  0  0  0  0
   -0.1510   -3.8850    1.7640 C   0  0  1  0  0  0  0  0  0  0  0  0
   -1.3490   -3.0910    2.0800 C   0  0  1  0  0  0  0  0  0  0  0  0
   -1.2160   -1.8450    2.6210 O   0  0  0  0  0  0  0  0  0  0  0  0
   -2.2600   -3.1020    0.8680 C   0  0  0  0  0  0  0  0  0  0  0  0
   -3.5180   -2.3230    1.0240 C   0  0  1  0  0  0  0  0  0  0  0  0
   -4.4240   -2.6970    2.1200 C   0  0  0  0  0  0  0  0  0  0  0  0
   -3.2440   -0.8500    0.9990 C   0  0  0  0  0  0  0  0  0  0  0  0
   -2.1200   -0.4600    0.6220 O   0  0  0  0  0  0  0  0  0  0  0  0
   -4.2100    0.1030    1.3770 N   0  0  0  0  0  0  0  0  0  0  0  0
   -4.0480    1.5340    1.3500 C   0  0  2  0  0  0  0  0  0  0  0  0
   -2.8150    2.0490    2.0060 C   0  0  0  0  0  0  0  0  0  0  0  0
   -5.1800    2.1070    2.2220 C   0  0  0  0  0  0  0  0  0  0  0  0
   -5.2850    3.5570    2.4270 C   0  0  0  0  0  0  0  0  0  0  0  0
   -5.9610    1.3500    2.7250 O   0  0  0  0  0  0  0  0  0  0  0  0
   -4.2740    2.1510    0.0040 C   0  0  1  0  0  0  0  0  0  0  0  0
   -3.3840    1.6870   -1.0910 C   0  0  0  0  0  0  0  0  0  0  0  0
   -5.7400    1.9370   -0.3220 C   0  0  0  0  0  0  0  0  0  0  0  0
   -6.1770    2.4710   -1.6350 C   0  0  0  0  0  0  0  0  0  0  0  0
   -6.0080    3.8810   -1.8330 N   0  0  0  0  0  0  0  0  0  0  0  0
    2.5990   -0.2410   -0.1830 C   0  0  0  0  0  0  0  0  0  0  0  0
  1  2  2  0
  2  3  1  0
  3  4  1  0
  4  5  1  0
  4  6  1  0
  6  7  2  0
  6  8  1  0
  8  9  1  0
  9 10  1  0
 10 11  2  0
 10 41  1  0
 11 12  1  0
 12 13  2  0
 13 14  1  0
 14 15  1  0
 14 41  2  0
 15 16  2  0
 15 17  1  0
 17 18  1  0
 17 22  1  0
 18 19  1  0
 19 20  1  0
 20 21  1  0
 22 21  1  1
 22 23  1  0
 23 24  1  6
 23 25  1  0
 25 26  1  0
 26 27  1  1
 26 28  1  0
 28 29  2  0
 28 30  1  0
 30 31  1  0
 31 32  1  1
 31 33  1  0
 31 36  1  0
 33 34  1  0
 33 35  2  0
 36 37  1  6
 36 38  1  0
 38 39  1  0
 39 40  1  0
M  CHG  1  40   1
M  END
