
     RDKit          3D

 41 43  0  0  0  0  0  0  0  0999 V2000
   -2.1220    3.8540    2.6720 C   0  0  0  0  0  0  0  0  0  0  0  0
   -1.8500    2.6590    1.7620 C   0  0  0  0  0  0  0  0  0  0  0  0
   -2.8540    1.6860    1.9820 N   0  0  0  0  0  0  0  0  0  0  0  0
   -3.2730    0.9160    0.8230 C   0  0  1  0  0  0  0  0  0  0  0  0
   -3.8320    1.7940   -0.1480 C   0  0  0  0  0  0  0  0  0  0  0  0
   -3.2380    2.2560   -1.2150 C   0  0  0  0  0  0  0  0  0  0  0  0
   -3.6990    3.1240   -2.2400 N   0  0  0  0  0  0  0  0  0  0  0  0
   -5.0000    3.5990   -2.6470 C   0  0  0  0  0  0  0  0  0  0  0  0
   -6.0530    3.3480   -1.7190 N   0  0  0  0  0  0  0  0  0  0  0  0
   -6.0760    2.8380   -0.4010 C   0  0  0  0  0  0  0  0  0  0  0  0
   -5.1780    2.2090    0.2370 N   0  0  0  0  0  0  0  0  0  0  0  0
   -2.1710   -0.0760    0.5000 C   0  0  1  0  0  0  0  0  0  0  0  0
   -2.0660   -0.7790    1.7170 O   0  0  0  0  0  0  0  0  0  0  0  0
   -1.0690   -1.0010    2.5810 C   0  0  0  0  0  0  0  0  0  0  0  0
   -1.3930   -1.6660    3.7640 C   0  0  0  0  0  0  0  0  0  0  0  0
   -0.4590   -1.9520    4.7220 C   0  0  0  0  0  0  0  0  0  0  0  0
    0.8470   -1.5700    4.5160 C   0  0  0  0  0  0  0  0  0  0  0  0
    1.1710   -0.9130    3.3470 C   0  0  0  0  0  0  0  0  0  0  0  0
    0.2330   -0.6090    2.3460 C   0  0  0  0  0  0  0  0  0  0  0  0
    0.6130    0.0300    1.2080 O   0  0  0  0  0  0  0  0  0  0  0  0
    1.7920    0.4830    0.6930 C   0  0  0  0  0  0  0  0  0  0  0  0
    2.8530   -0.5320    0.4060 C   0  0  0  0  0  0  0  0  0  0  0  0
    4.1150    0.0690   -0.2170 C   0  0  1  0  0  0  0  0  0  0  0  0
    4.6720    1.1000    0.7390 C   0  0  0  0  0  0  0  0  0  0  0  0
    5.0310   -0.9570   -0.2550 O   0  0  0  0  0  0  0  0  0  0  0  0
    6.1770   -0.8090   -0.9470 C   0  0  1  0  0  0  0  0  0  0  0  0
    7.3660   -0.3800   -0.0910 C   0  0  0  0  0  0  0  0  0  0  0  0
    6.5460   -2.2150   -1.4610 C   0  0  0  0  0  0  0  0  0  0  0  0
    6.0820    0.0530   -2.1860 C   0  0  0  0  0  0  0  0  0  0  0  0
    4.6450    0.1560   -2.6550 C   0  0  0  0  0  0  0  0  0  0  0  0
    3.7840    0.6920   -1.5090 C   0  0  2  0  0  0  0  0  0  0  0  0
    3.8410    2.2180   -1.5100 C   0  0  0  0  0  0  0  0  0  0  0  0
   -2.4780   -0.9160   -0.6470 C   0  0  0  0  0  0  0  0  0  0  0  0
   -2.0520   -0.4920   -1.7990 O   0  0  0  0  0  0  0  0  0  0  0  0
   -3.1850   -2.1310   -0.7490 N   0  0  0  0  0  0  0  0  0  0  0  0
   -3.7830   -2.8950    0.3090 C   0  0  0  0  0  0  0  0  0  0  0  0
   -3.0220   -4.0460    0.8410 C   0  0  0  0  0  0  0  0  0  0  0  0
   -1.7820   -3.8080    1.3800 O   0  0  0  0  0  0  0  0  0  0  0  0
   -3.3270   -2.7640   -2.0970 C   0  0  2  0  0  0  0  0  0  0  0  0
   -1.9230   -3.1460   -2.5840 C   0  0  0  0  0  0  0  0  0  0  0  0
   -3.8430   -1.7050   -3.0190 C   0  0  0  0  0  0  0  0  0  0  0  0
  1  2  1  0
  2  3  1  0
  4  3  1  1
  4  5  1  0
  4 12  1  0
  5  6  2  0
  5 11  1  0
  6  7  1  0
  7  8  1  0
  8  9  1  0
  9 10  1  0
 10 11  2  0
 12 13  1  1
 12 33  1  0
 13 14  1  0
 14 15  2  0
 14 19  1  0
 15 16  1  0
 16 17  2  0
 17 18  1  0
 18 19  2  0
 19 20  1  0
 20 21  1  0
 21 22  1  0
 22 23  1  0
 23 24  1  1
 23 25  1  0
 23 31  1  0
 25 26  1  0
 26 27  1  1
 26 28  1  0
 26 29  1  0
 29 30  1  0
 30 31  1  0
 31 32  1  1
 33 34  2  0
 33 35  1  0
 35 36  1  0
 35 39  1  0
 36 37  1  0
 37 38  1  0
 39 40  1  6
 39 41  1  0
M  CHG  1   3   1
M  END
