
     RDKit          3D

 41 43  0  0  0  0  0  0  0  0999 V2000
   11.7340   -0.7910   -0.4180 C   0  0  0  0  0  0  0  0  0  0  0  0
   10.7050   -1.3350    0.2130 C   0  0  0  0  0  0  0  0  0  0  0  0
    9.5660   -1.9620   -0.4650 C   0  0  0  0  0  0  0  0  0  0  0  0
    8.2760   -1.3120   -0.1300 C   0  0  0  0  0  0  0  0  0  0  0  0
    8.1380    0.1090   -0.5170 C   0  0  2  0  0  0  0  0  0  0  0  0
    9.1010    1.0620    0.0910 C   0  0  0  0  0  0  0  0  0  0  0  0
    6.7650    0.5270   -0.1530 N   0  0  0  0  0  0  0  0  0  0  0  0
    5.9020    1.0460   -1.1470 C   0  0  0  0  0  0  0  0  0  0  0  0
    6.3460    1.1350   -2.3390 O   0  0  0  0  0  0  0  0  0  0  0  0
    4.5230    1.4770   -0.8240 C   0  0  0  0  0  0  0  0  0  0  0  0
    4.1590    1.3220    0.5250 N   0  0  0  0  0  0  0  0  0  0  0  0
    4.7720    2.1280    1.5030 C   0  0  0  0  0  0  0  0  0  0  0  0
    3.5040    0.1350    0.9280 C   0  0  0  0  0  0  0  0  0  0  0  0
    2.1130    0.0880    0.3450 C   0  0  1  0  0  0  0  0  0  0  0  0
    1.3600   -1.1490    0.7310 C   0  0  0  0  0  0  0  0  0  0  0  0
   -0.0140   -1.0010    0.2050 N   0  0  0  0  0  0  0  0  0  0  0  0
   -0.4310   -1.8030   -0.8480 C   0  0  0  0  0  0  0  0  0  0  0  0
    0.5380   -2.5950   -1.2970 O   0  0  0  0  0  0  0  0  0  0  0  0
   -1.6810   -1.9640   -1.5610 C   0  0  0  0  0  0  0  0  0  0  0  0
   -2.8290   -1.2330   -1.1700 N   0  0  0  0  0  0  0  0  0  0  0  0
   -3.9930   -1.2950   -2.0330 C   0  0  0  0  0  0  0  0  0  0  0  0
   -3.9800   -1.9850   -3.2120 C   0  0  0  0  0  0  0  0  0  0  0  0
   -5.0630   -2.0530   -4.0660 C   0  0  0  0  0  0  0  0  0  0  0  0
   -6.1940   -1.3730   -3.6690 C   0  0  0  0  0  0  0  0  0  0  0  0
   -6.2520   -0.6550   -2.4710 C   0  0  0  0  0  0  0  0  0  0  0  0
   -5.1540   -0.6300   -1.6770 C   0  0  0  0  0  0  0  0  0  0  0  0
   -5.1390    0.0930   -0.4000 C   0  0  0  0  0  0  0  0  0  0  0  0
   -6.3310    0.7700   -0.0280 N   0  0  2  0  0  0  0  0  0  0  0  0
   -5.9370    1.9000    0.8170 C   0  0  0  0  0  0  0  0  0  0  0  0
   -7.0240    2.9420    0.6850 C   0  0  0  0  0  0  0  0  0  0  0  0
   -8.3670    2.2240    0.7210 C   0  0  0  0  0  0  0  0  0  0  0  0
   -8.1940    0.9210    1.4430 C   0  0  0  0  0  0  0  0  0  0  0  0
   -7.3170   -0.0270    0.6260 C   0  0  2  0  0  0  0  0  0  0  0  0
   -6.7910   -1.0600    1.5800 C   0  0  0  0  0  0  0  0  0  0  0  0
   -7.9550   -1.7820    2.1560 C   0  0  0  0  0  0  0  0  0  0  0  0
   -8.6530   -1.3490    3.1080 O   0  0  0  0  0  0  0  0  0  0  0  0
   -8.2990   -3.0060    1.6170 O   0  0  0  0  0  0  0  0  0  0  0  0
   -0.7990    0.0150    0.8430 C   0  0  0  0  0  0  0  0  0  0  0  0
    0.1580    0.8800    1.6840 C   0  0  0  0  0  0  0  0  0  0  0  0
    1.3460    1.2920    0.8650 C   0  0  2  0  0  0  0  0  0  0  0  0
    0.9700    2.0350   -0.2400 O   0  0  0  0  0  0  0  0  0  0  0  0
  1  2  2  0
  2  3  1  0
  3  4  1  0
  4  5  1  0
  5  6  1  1
  5  7  1  0
  7  8  1  0
  8  9  2  0
  8 10  1  0
 10 11  1  0
 11 12  1  0
 11 13  1  0
 14 13  1  1
 14 15  1  0
 14 40  1  0
 15 16  1  0
 16 17  1  0
 16 38  1  0
 17 18  2  0
 17 19  1  0
 19 20  1  0
 20 21  1  0
 21 22  2  0
 21 26  1  0
 22 23  1  0
 23 24  2  0
 24 25  1  0
 25 26  2  0
 26 27  1  0
 28 27  1  1
 28 29  1  0
 28 33  1  0
 29 30  1  0
 30 31  1  0
 31 32  1  0
 32 33  1  0
 33 34  1  1
 34 35  1  0
 35 36  2  0
 35 37  1  0
 38 39  1  0
 39 40  1  0
 40 41  1  6
M  CHG  1  28   1
M  END
