
     RDKit          3D

 41 43  0  0  0  0  0  0  0  0999 V2000
  -10.0990    2.7270    2.1240 C   0  0  0  0  0  0  0  0  0  0  0  0
   -9.4570    1.2920    1.9060 C   0  0  0  0  0  0  0  0  0  0  0  0
   -8.0660    1.5140    1.5290 C   0  0  0  0  0  0  0  0  0  0  0  0
   -7.3060    1.0310    0.5940 C   0  0  0  0  0  0  0  0  0  0  0  0
   -7.5400    0.0600   -0.4440 C   0  0  0  0  0  0  0  0  0  0  0  0
   -8.7920   -0.6890   -0.6060 C   0  0  2  0  0  0  0  0  0  0  0  0
   -9.2310   -1.5750    0.5000 C   0  0  0  0  0  0  0  0  0  0  0  0
   -9.2770   -3.0210    0.0640 C   0  0  0  0  0  0  0  0  0  0  0  0
   -7.8820   -3.3770   -0.3990 C   0  0  0  0  0  0  0  0  0  0  0  0
   -7.6570   -2.5670   -1.6680 C   0  0  0  0  0  0  0  0  0  0  0  0
   -8.6270   -1.5170   -1.8250 N   0  0  0  0  0  0  0  0  0  0  0  0
   -5.9060    1.6320    0.6570 C   0  0  0  0  0  0  0  0  0  0  0  0
   -5.7150    2.3970    1.6260 O   0  0  0  0  0  0  0  0  0  0  0  0
   -4.8510    1.3820   -0.2910 C   0  0  1  0  0  0  0  0  0  0  0  0
   -5.0650    2.2210   -1.5820 C   0  0  0  0  0  0  0  0  0  0  0  0
   -3.5970    1.8440    0.2950 N   0  0  0  0  0  0  0  0  0  0  0  0
   -2.3570    1.3740   -0.1930 C   0  0  0  0  0  0  0  0  0  0  0  0
   -2.3760    0.5670   -1.1520 O   0  0  0  0  0  0  0  0  0  0  0  0
   -1.0630    1.8250    0.4100 C   0  0  0  0  0  0  0  0  0  0  0  0
    0.0260    1.2480   -0.3400 N   0  0  0  0  0  0  0  0  0  0  0  0
    1.3730    1.5250    0.0870 C   0  0  0  0  0  0  0  0  0  0  0  0
    1.5730    2.2270    1.1250 O   0  0  0  0  0  0  0  0  0  0  0  0
    2.4940    1.0310   -0.6330 N   0  0  0  0  0  0  0  0  0  0  0  0
    3.8140    1.3470   -0.1140 C   0  0  2  0  0  0  0  0  0  0  0  0
    4.1860    2.7920   -0.5280 C   0  0  0  0  0  0  0  0  0  0  0  0
    5.3510    3.1210    0.4050 C   0  0  0  0  0  0  0  0  0  0  0  0
    6.5280    2.2660    0.1300 C   0  0  0  0  0  0  0  0  0  0  0  0
    6.1930    0.7870    0.1710 C   0  0  2  0  0  0  0  0  0  0  0  0
    7.2690    0.0590   -0.3310 O   0  0  0  0  0  0  0  0  0  0  0  0
    7.9860   -0.9390    0.2880 C   0  0  0  0  0  0  0  0  0  0  0  0
    7.7110   -1.4080    1.5460 C   0  0  0  0  0  0  0  0  0  0  0  0
    8.4670   -2.4210    2.1330 C   0  0  0  0  0  0  0  0  0  0  0  0
    9.5050   -2.9450    1.4220 C   0  0  0  0  0  0  0  0  0  0  0  0
   10.2510   -3.9570    2.0250 O   0  0  0  0  0  0  0  0  0  0  0  0
   11.3350   -4.5190    1.3090 C   0  0  0  0  0  0  0  0  0  0  0  0
    9.8140   -2.5000    0.1540 C   0  0  0  0  0  0  0  0  0  0  0  0
    9.0730   -1.5080   -0.4230 C   0  0  0  0  0  0  0  0  0  0  0  0
    9.3350   -1.0100   -1.7190 N   0  0  0  0  0  0  0  0  0  0  0  0
    8.3160   -1.0740   -2.7320 C   0  0  0  0  0  0  0  0  0  0  0  0
   10.6190   -0.4390   -2.0280 C   0  0  0  0  0  0  0  0  0  0  0  0
    4.9200    0.4950   -0.6050 C   0  0  0  0  0  0  0  0  0  0  0  0
  1  2  1  0
  2  3  1  0
  3  4  2  3
  4  5  1  0
  4 12  1  0
  6  5  1  1
  6  7  1  0
  6 11  1  0
  7  8  1  0
  8  9  1  0
  9 10  1  0
 10 11  1  0
 12 13  2  0
 12 14  1  0
 14 15  1  6
 14 16  1  0
 16 17  1  0
 17 18  2  0
 17 19  1  0
 19 20  1  0
 20 21  1  0
 21 22  2  0
 21 23  1  0
 24 23  1  6
 24 25  1  0
 24 41  1  0
 25 26  1  0
 26 27  1  0
 27 28  1  0
 28 29  1  6
 28 41  1  0
 29 30  1  0
 30 31  2  0
 30 37  1  0
 31 32  1  0
 32 33  2  0
 33 34  1  0
 33 36  1  0
 34 35  1  0
 36 37  2  0
 37 38  1  0
 38 39  1  0
 38 40  1  0
M  CHG  1  11   1
M  END
