
     RDKit          3D

 41 43  0  0  0  0  0  0  0  0999 V2000
   -6.5020   -4.1400    0.8820 C   0  0  0  0  0  0  0  0  0  0  0  0
   -6.1700   -2.8630    1.5240 N   0  0  0  0  0  0  0  0  0  0  0  0
   -5.3710   -1.9220    0.8940 C   0  0  0  0  0  0  0  0  0  0  0  0
   -5.6300   -0.8090    0.2460 C   0  0  0  0  0  0  0  0  0  0  0  0
   -6.9660   -0.3070    0.0530 C   0  0  0  0  0  0  0  0  0  0  0  0
   -7.1700    0.8280   -0.6110 C   0  0  0  0  0  0  0  0  0  0  0  0
   -8.4960    1.4060   -0.8510 C   0  0  0  0  0  0  0  0  0  0  0  0
   -9.5860    0.7080   -0.3540 O   0  0  0  0  0  0  0  0  0  0  0  0
   -9.3960   -0.4540    0.3270 C   0  0  0  0  0  0  0  0  0  0  0  0
   -8.1830   -0.9780    0.5480 C   0  0  0  0  0  0  0  0  0  0  0  0
   -4.4410   -0.1020   -0.2770 C   0  0  1  0  0  0  0  0  0  0  0  0
   -4.2340   -0.2830   -1.7430 C   0  0  0  0  0  0  0  0  0  0  0  0
   -2.7100   -0.1220   -1.9540 C   0  0  0  0  0  0  0  0  0  0  0  0
   -2.3920    1.3310   -1.8850 C   0  0  0  0  0  0  0  0  0  0  0  0
   -1.8920    1.8270   -0.5530 C   0  0  2  0  0  0  0  0  0  0  0  0
   -0.4760    1.5920   -0.4300 N   0  0  1  0  0  0  0  0  0  0  0  0
    0.2300    2.8300   -0.3710 C   0  0  0  0  0  0  0  0  0  0  0  0
   -0.0180    3.5930    0.9110 C   0  0  0  0  0  0  0  0  0  0  0  0
    0.7150    4.8030    0.8920 O   0  0  0  0  0  0  0  0  0  0  0  0
   -0.1230    0.6730    0.6300 C   0  0  0  0  0  0  0  0  0  0  0  0
    1.3840    0.5470    0.6610 C   0  0  1  0  0  0  0  0  0  0  0  0
    1.6880   -0.3580    1.7040 O   0  0  0  0  0  0  0  0  0  0  0  0
    1.9600   -0.0140   -0.6010 C   0  0  0  0  0  0  0  0  0  0  0  0
    3.4240   -0.1180   -0.3640 N   0  0  0  0  0  0  0  0  0  0  0  0
    4.1690    1.0300   -0.7710 C   0  0  0  0  0  0  0  0  0  0  0  0
    3.8740   -1.3240    0.1720 C   0  0  0  0  0  0  0  0  0  0  0  0
    2.9940   -2.2670    0.3320 O   0  0  0  0  0  0  0  0  0  0  0  0
    5.1770   -1.7010    0.5760 N   0  0  0  0  0  0  0  0  0  0  0  0
    5.4380   -3.0520    0.9140 C   0  0  0  0  0  0  0  0  0  0  0  0
    5.7160   -4.0740   -0.0900 C   0  0  0  0  0  0  0  0  0  0  0  0
    6.7330   -3.9330   -0.9870 O   0  0  0  0  0  0  0  0  0  0  0  0
    6.4010   -3.0620   -2.0350 C   0  0  0  0  0  0  0  0  0  0  0  0
    6.1460   -0.6550    0.7540 C   0  0  0  0  0  0  0  0  0  0  0  0
    5.7440    0.4250    1.5760 C   0  0  0  0  0  0  0  0  0  0  0  0
    6.6010    1.4620    1.8470 C   0  0  0  0  0  0  0  0  0  0  0  0
    7.8830    1.5210    1.3480 C   0  0  0  0  0  0  0  0  0  0  0  0
    8.7690    2.5950    1.6290 N   0  0  0  0  0  0  0  0  0  0  0  0
    8.2730    0.4740    0.5530 C   0  0  0  0  0  0  0  0  0  0  0  0
    7.4010   -0.5970    0.2680 C   0  0  0  0  0  0  0  0  0  0  0  0
   -2.6820    1.3720    0.6220 C   0  0  0  0  0  0  0  0  0  0  0  0
   -4.1730    1.2760    0.1770 C   0  0  0  0  0  0  0  0  0  0  0  0
  1  2  1  0
  2  3  1  0
  3  4  2  3
  4  5  1  0
 11  4  1  6
  5  6  2  0
  5 10  1  0
  6  7  1  0
  7  8  1  0
  8  9  1  0
  9 10  2  0
 11 12  1  0
 11 41  1  0
 12 13  1  0
 13 14  1  0
 15 14  1  6
 15 16  1  0
 15 40  1  0
 16 17  1  1
 16 20  1  0
 17 18  1  0
 18 19  1  0
 20 21  1  0
 21 22  1  1
 21 23  1  0
 23 24  1  0
 24 25  1  0
 24 26  1  0
 26 27  2  0
 26 28  1  0
 28 29  1  0
 28 33  1  0
 29 30  1  0
 30 31  1  0
 31 32  1  0
 33 34  2  0
 33 39  1  0
 34 35  1  0
 35 36  2  0
 36 37  1  0
 36 38  1  0
 38 39  2  0
 40 41  1  0
M  CHG  1  16   1
M  END
