
     RDKit          3D

 41 42  0  0  0  0  0  0  0  0999 V2000
   12.7730    2.0610    1.0570 C   0  0  0  0  0  0  0  0  0  0  0  0
   11.4720    2.0070    0.9490 C   0  0  0  0  0  0  0  0  0  0  0  0
   10.8000    0.7250    0.6080 C   0  0  0  0  0  0  0  0  0  0  0  0
   10.0350    0.7970   -0.6200 N   0  0  0  0  0  0  0  0  0  0  0  0
   10.7260    0.4660   -1.8450 C   0  0  0  0  0  0  0  0  0  0  0  0
    8.6790    1.1670   -0.6710 C   0  0  0  0  0  0  0  0  0  0  0  0
    8.0910    1.2030   -1.7790 O   0  0  0  0  0  0  0  0  0  0  0  0
    7.9080    1.5110    0.4660 N   0  0  0  0  0  0  0  0  0  0  0  0
    6.5110    1.8880    0.3930 C   0  0  0  0  0  0  0  0  0  0  0  0
    5.6830    0.6450    0.1910 C   0  0  0  0  0  0  0  0  0  0  0  0
    6.3060   -0.5820    0.2070 C   0  0  0  0  0  0  0  0  0  0  0  0
    5.5020   -1.6800    0.0190 C   0  0  0  0  0  0  0  0  0  0  0  0
    4.1320   -1.5760   -0.1780 C   0  0  0  0  0  0  0  0  0  0  0  0
    3.4950   -0.3730   -0.1990 C   0  0  0  0  0  0  0  0  0  0  0  0
    2.0910   -0.1340   -0.4280 C   0  0  0  0  0  0  0  0  0  0  0  0
    1.7310    1.1140   -0.2480 O   0  0  0  0  0  0  0  0  0  0  0  0
    1.0810   -1.0290   -0.8090 N   0  0  0  0  0  0  0  0  0  0  0  0
    1.1720   -2.4040   -1.1020 C   0  0  0  0  0  0  0  0  0  0  0  0
    0.0070   -3.0750   -1.7600 C   0  0  0  0  0  0  0  0  0  0  0  0
   -1.0270   -2.2380   -2.3750 C   0  0  0  0  0  0  0  0  0  0  0  0
   -0.8060   -0.7560   -2.2250 C   0  0  0  0  0  0  0  0  0  0  0  0
   -0.2770   -0.4050   -0.8850 C   0  0  1  0  0  0  0  0  0  0  0  0
   -1.0530   -0.8730    0.2930 C   0  0  1  0  0  0  0  0  0  0  0  0
   -0.3400   -0.4270    1.4350 O   0  0  0  0  0  0  0  0  0  0  0  0
   -2.4800   -0.3760    0.3210 C   0  0  0  0  0  0  0  0  0  0  0  0
   -3.1860   -0.8950    1.5450 C   0  0  1  0  0  0  0  0  0  0  0  0
   -2.5490   -0.4540    2.8370 C   0  0  0  0  0  0  0  0  0  0  0  0
   -4.6260   -0.4950    1.6010 C   0  0  0  0  0  0  0  0  0  0  0  0
   -5.0290    0.2300    2.5380 O   0  0  0  0  0  0  0  0  0  0  0  0
   -5.5520   -0.9150    0.6190 N   0  0  0  0  0  0  0  0  0  0  0  0
   -6.9560   -0.5970    0.5390 C   0  0  2  0  0  0  0  0  0  0  0  0
   -7.7160   -0.8510    1.7850 C   0  0  0  0  0  0  0  0  0  0  0  0
   -7.4910   -1.6410   -0.4470 C   0  0  0  0  0  0  0  0  0  0  0  0
   -8.8010   -2.2690   -0.2690 C   0  0  0  0  0  0  0  0  0  0  0  0
   -6.7810   -1.9270   -1.3810 O   0  0  0  0  0  0  0  0  0  0  0  0
   -7.2680    0.7310   -0.0890 C   0  0  1  0  0  0  0  0  0  0  0  0
   -8.7650    1.0020   -0.1390 C   0  0  0  0  0  0  0  0  0  0  0  0
   -6.5160    1.8880    0.4750 C   0  0  0  0  0  0  0  0  0  0  0  0
   -6.8370    3.2140   -0.1900 C   0  0  0  0  0  0  0  0  0  0  0  0
   -6.5560    3.2070   -1.5950 N   0  0  0  0  0  0  0  0  0  0  0  0
    4.3310    0.7490   -0.0040 C   0  0  0  0  0  0  0  0  0  0  0  0
  1  2  2  0
  2  3  1  0
  3  4  1  0
  4  5  1  0
  4  6  1  0
  6  7  2  0
  6  8  1  0
  8  9  1  0
  9 10  1  0
 10 11  2  0
 10 41  1  0
 11 12  1  0
 12 13  2  0
 13 14  1  0
 14 15  1  0
 14 41  2  0
 15 16  2  0
 15 17  1  0
 17 18  1  0
 17 22  1  0
 18 19  1  0
 19 20  1  0
 20 21  1  0
 22 21  1  6
 22 23  1  0
 23 24  1  1
 23 25  1  0
 25 26  1  0
 26 27  1  1
 26 28  1  0
 28 29  2  0
 28 30  1  0
 30 31  1  0
 31 32  1  1
 31 33  1  0
 31 36  1  0
 33 34  1  0
 33 35  2  0
 36 37  1  1
 36 38  1  0
 38 39  1  0
 39 40  1  0
M  CHG  1  40   1
M  END
