
     RDKit          3D

 41 42  0  0  0  0  0  0  0  0999 V2000
   11.1220   -3.4970    1.5010 C   0  0  0  0  0  0  0  0  0  0  0  0
   11.8940   -2.7610    0.4890 C   0  0  0  0  0  0  0  0  0  0  0  0
   11.3120   -1.7060   -0.1180 C   0  0  0  0  0  0  0  0  0  0  0  0
    9.9820   -1.3010    0.2060 C   0  0  0  0  0  0  0  0  0  0  0  0
    9.3380   -0.2910   -0.3470 C   0  0  0  0  0  0  0  0  0  0  0  0
    9.8990    0.5530   -1.3670 C   0  0  0  0  0  0  0  0  0  0  0  0
   11.1970    0.4810   -1.9130 N   0  0  0  0  0  0  0  0  0  0  0  0
    9.2070    1.4990   -1.8930 O   0  0  0  0  0  0  0  0  0  0  0  0
    7.9430   -0.0210    0.1190 C   0  0  0  0  0  0  0  0  0  0  0  0
    7.2870    1.0820   -0.3140 C   0  0  0  0  0  0  0  0  0  0  0  0
    5.9800    1.3120    0.1510 C   0  0  0  0  0  0  0  0  0  0  0  0
    5.3420    0.4660    1.0220 C   0  0  0  0  0  0  0  0  0  0  0  0
    4.0480    0.7070    1.4360 N   0  0  0  0  0  0  0  0  0  0  0  0
    3.0730    1.2400    0.4300 C   0  0  0  0  0  0  0  0  0  0  0  0
    3.4960    1.3120   -0.7190 O   0  0  0  0  0  0  0  0  0  0  0  0
    1.8920    1.5500    1.0430 N   0  0  0  0  0  0  0  0  0  0  0  0
    1.0750    2.2130   -0.3550 C   0  0  0  0  0  0  0  0  0  0  0  0
    1.6770    2.0290   -1.3510 O   0  0  0  0  0  0  0  0  0  0  0  0
   -0.1350    2.8430    0.0140 C   0  0  1  0  0  0  0  0  0  0  0  0
   -0.6420    3.5630   -1.2600 C   0  0  0  0  0  0  0  0  0  0  0  0
   -1.2120    2.1100    0.6820 C   0  0  0  0  0  0  0  0  0  0  0  0
   -1.7760    0.9850   -0.0780 C   0  0  0  0  0  0  0  0  0  0  0  0
   -0.9810    0.3860   -0.8440 O   0  0  0  0  0  0  0  0  0  0  0  0
   -3.1480    0.5540    0.0230 N   0  0  0  0  0  0  0  0  0  0  0  0
   -4.1190    1.2890    0.7540 C   0  0  0  0  0  0  0  0  0  0  0  0
   -4.9270    2.2920   -0.0500 C   0  0  2  0  0  0  0  0  0  0  0  0
   -4.0790    3.3450   -0.7250 C   0  0  0  0  0  0  0  0  0  0  0  0
   -5.8450    2.9950    0.9270 C   0  0  0  0  0  0  0  0  0  0  0  0
   -6.6600    3.9440    0.3520 O   0  0  0  0  0  0  0  0  0  0  0  0
   -3.4900   -0.7370   -0.6140 C   0  0  2  0  0  0  0  0  0  0  0  0
   -4.2520   -0.5530   -1.9000 C   0  0  0  0  0  0  0  0  0  0  0  0
   -5.6600   -0.8450   -1.9740 C   0  0  0  0  0  0  0  0  0  0  0  0
   -6.4980   -1.0570   -0.7790 C   0  0  0  0  0  0  0  0  0  0  0  0
   -6.2920   -2.2260   -0.0110 N   0  0  1  0  0  0  0  0  0  0  0  0
   -7.2890   -3.2310   -0.0280 C   0  0  0  0  0  0  0  0  0  0  0  0
   -8.6460   -2.6650    0.2910 C   0  0  0  0  0  0  0  0  0  0  0  0
   -8.7210   -1.9620    1.6270 C   0  0  0  0  0  0  0  0  0  0  0  0
   -4.9550   -2.7370   -0.3040 C   0  0  0  0  0  0  0  0  0  0  0  0
   -3.9900   -1.7540    0.3260 C   0  0  0  0  0  0  0  0  0  0  0  0
    6.0070   -0.6370    1.4480 C   0  0  0  0  0  0  0  0  0  0  0  0
    7.3080   -0.8760    0.9950 C   0  0  0  0  0  0  0  0  0  0  0  0
  1  2  1  0
  2  3  2  3
  3  4  1  0
  4  5  2  3
  5  6  1  0
  5  9  1  0
  6  7  1  0
  6  8  2  0
  9 10  2  0
  9 41  1  0
 10 11  1  0
 11 12  2  0
 12 13  1  0
 12 40  1  0
 13 14  1  0
 14 15  2  0
 14 16  1  0
 16 17  1  0
 17 18  2  0
 17 19  1  0
 19 20  1  6
 19 21  1  0
 21 22  1  0
 22 23  2  0
 22 24  1  0
 24 25  1  0
 30 24  1  1
 25 26  1  0
 26 27  1  1
 26 28  1  0
 28 29  1  0
 30 31  1  0
 30 39  1  0
 31 32  1  0
 32 33  1  0
 33 34  1  0
 34 35  1  6
 34 38  1  0
 35 36  1  0
 36 37  1  0
 38 39  1  0
 40 41  2  0
M  CHG  1  34   1
M  END
