
     RDKit          3D

 41 43  0  0  0  0  0  0  0  0999 V2000
    8.6500   -1.9520   -1.9090 C   0  0  0  0  0  0  0  0  0  0  0  0
    7.8770   -1.3810   -3.0600 C   0  0  0  0  0  0  0  0  0  0  0  0
    6.4330   -1.3780   -2.7410 N   0  0  0  0  0  0  0  0  0  0  0  0
    5.7710   -0.8080   -3.9050 C   0  0  0  0  0  0  0  0  0  0  0  0
    6.3240   -0.3870   -1.6530 C   0  0  0  0  0  0  0  0  0  0  0  0
    4.9730   -0.3040   -1.0970 C   0  0  0  0  0  0  0  0  0  0  0  0
    4.0080   -1.1730   -1.6070 C   0  0  0  0  0  0  0  0  0  0  0  0
    2.6960   -1.1490   -1.1260 C   0  0  0  0  0  0  0  0  0  0  0  0
    2.3380   -0.2680   -0.1420 C   0  0  0  0  0  0  0  0  0  0  0  0
    1.0260   -0.1740    0.3760 N   0  0  0  0  0  0  0  0  0  0  0  0
   -0.1390   -0.7470   -0.1360 C   0  0  0  0  0  0  0  0  0  0  0  0
   -0.1140   -1.4260   -1.1580 O   0  0  0  0  0  0  0  0  0  0  0  0
   -1.4300   -0.5410    0.5530 C   0  0  2  0  0  0  0  0  0  0  0  0
   -1.4250   -1.0950    1.9410 C   0  0  0  0  0  0  0  0  0  0  0  0
   -2.8280   -1.3420    2.4380 C   0  0  1  0  0  0  0  0  0  0  0  0
   -2.8560   -1.2620    3.9140 C   0  0  0  0  0  0  0  0  0  0  0  0
   -4.1690   -1.4960    4.5710 C   0  0  0  0  0  0  0  0  0  0  0  0
   -4.7050   -2.7510    4.3010 O   0  0  0  0  0  0  0  0  0  0  0  0
   -3.7760   -0.4270    1.7410 C   0  0  0  0  0  0  0  0  0  0  0  0
   -4.5520    0.3750    2.3130 O   0  0  0  0  0  0  0  0  0  0  0  0
   -3.7820   -0.4820    0.3260 N   0  0  0  0  0  0  0  0  0  0  0  0
   -4.8750    0.0190   -0.4800 C   0  0  0  0  0  0  0  0  0  0  0  0
   -6.0720   -0.4970   -0.4780 C   0  0  0  0  0  0  0  0  0  0  0  0
   -6.4190   -1.6410    0.3440 C   0  0  0  0  0  0  0  0  0  0  0  0
   -5.6120   -2.2150    1.0830 O   0  0  0  0  0  0  0  0  0  0  0  0
   -7.7680   -2.1700    0.3270 N   0  0  0  0  0  0  0  0  0  0  0  0
   -8.1450   -3.2970    1.1260 C   0  0  0  0  0  0  0  0  0  0  0  0
   -4.5980    1.2100   -1.3320 C   0  0  0  0  0  0  0  0  0  0  0  0
   -5.7980    1.7890   -1.9420 C   0  0  2  0  0  0  0  0  0  0  0  0
   -5.4020    3.0090   -2.8430 C   0  0  0  0  0  0  0  0  0  0  0  0
   -6.7870    3.5370   -3.1490 C   0  0  0  0  0  0  0  0  0  0  0  0
   -7.5020    3.3490   -1.8280 C   0  0  0  0  0  0  0  0  0  0  0  0
   -6.6120    2.5650   -0.9950 N   0  0  0  0  0  0  0  0  0  0  0  0
   -2.5870   -1.0870   -0.2800 C   0  0  0  0  0  0  0  0  0  0  0  0
    3.3280    0.5960    0.3560 C   0  0  0  0  0  0  0  0  0  0  0  0
    4.6360    0.5890   -0.1070 C   0  0  0  0  0  0  0  0  0  0  0  0
    5.6520    1.4940    0.4490 C   0  0  0  0  0  0  0  0  0  0  0  0
    6.5410    0.9090    1.4970 C   0  0  0  0  0  0  0  0  0  0  0  0
    7.5040    2.0300    1.9100 C   0  0  0  0  0  0  0  0  0  0  0  0
    8.4570    1.5430    2.9780 C   0  0  0  0  0  0  0  0  0  0  0  0
    9.2940    2.6030    3.3010 O   0  0  0  0  0  0  0  0  0  0  0  0
  1  2  1  0
  2  3  1  0
  3  4  1  0
  3  5  1  0
  5  6  1  0
  6  7  2  0
  6 36  1  0
  7  8  1  0
  8  9  2  0
  9 10  1  0
  9 35  1  0
 10 11  1  0
 11 12  2  0
 13 11  1  6
 13 14  1  0
 13 34  1  0
 14 15  1  0
 15 16  1  1
 15 19  1  0
 16 17  1  0
 17 18  1  0
 19 20  2  0
 19 21  1  0
 21 22  1  0
 21 34  1  0
 22 23  2  3
 22 28  1  0
 23 24  1  0
 24 25  2  0
 24 26  1  0
 26 27  1  0
 29 28  1  1
 29 30  1  0
 29 33  1  0
 30 31  1  0
 31 32  1  0
 32 33  1  0
 35 36  2  0
 36 37  1  0
 37 38  1  0
 38 39  1  0
 39 40  1  0
 40 41  1  0
M  CHG  1  33   1
M  END
