
     RDKit          3D

 41 46  0  0  0  0  0  0  0  0999 V2000
   -3.1200    4.6300    4.5240 C   0  0  0  0  0  0  0  0  0  0  0  0
   -2.1810    4.3450    3.3990 C   0  0  0  0  0  0  0  0  0  0  0  0
   -1.4840    5.3120    2.7330 C   0  0  0  0  0  0  0  0  0  0  0  0
   -0.7350    4.6710    1.7720 C   0  0  0  0  0  0  0  0  0  0  0  0
    0.1800    5.1560    0.8680 C   0  0  0  0  0  0  0  0  0  0  0  0
    0.3850    6.4000    0.8110 O   0  0  0  0  0  0  0  0  0  0  0  0
    0.8290    4.3280    0.0760 N   0  0  0  0  0  0  0  0  0  0  0  0
    0.5770    2.9870    0.1650 C   0  0  0  0  0  0  0  0  0  0  0  0
    1.1070    1.9480   -0.4760 N   0  0  0  0  0  0  0  0  0  0  0  0
    0.5810    0.7830   -0.0540 N   0  0  0  0  0  0  0  0  0  0  0  0
    0.9970   -0.5020   -0.6310 C   0  0  0  0  0  0  0  0  0  0  0  0
    2.1470   -1.0640    0.1200 C   0  0  0  0  0  0  0  0  0  0  0  0
    3.3260   -0.2420    0.0790 N   0  0  0  0  0  0  0  0  0  0  0  0
    4.0780   -0.1390   -1.1230 C   0  0  0  0  0  0  0  0  0  0  0  0
    3.8140   -0.9360   -2.2080 C   0  0  0  0  0  0  0  0  0  0  0  0
    4.5440   -0.8740   -3.4010 C   0  0  0  0  0  0  0  0  0  0  0  0
    5.5810    0.0310   -3.4900 C   0  0  0  0  0  0  0  0  0  0  0  0
    5.8440    0.8310   -2.3950 C   0  0  0  0  0  0  0  0  0  0  0  0
    5.1240    0.7610   -1.2380 C   0  0  0  0  0  0  0  0  0  0  0  0
    5.4800    1.7860    0.1280 Cl  0  0  0  0  0  0  0  0  0  0  0  0
   -0.3220    1.0500    0.8880 C   0  0  0  0  0  0  0  0  0  0  0  0
   -1.3240    0.0950    1.4200 C   0  0  0  0  0  0  0  0  0  0  0  0
   -2.6650    0.7430    1.5780 N   0  0  0  0  0  0  0  0  0  0  0  0
   -1.3270   -1.0760    1.6190 N   0  0  0  0  0  0  0  0  0  0  0  0
   -0.7750   -2.2990    1.6270 C   0  0  0  0  0  0  0  0  0  0  0  0
    0.1290   -2.6150    2.6630 N   0  0  0  0  0  0  0  0  0  0  0  0
    0.6870   -3.8120    2.7210 C   0  0  0  0  0  0  0  0  0  0  0  0
    0.4060   -4.7820    1.7820 C   0  0  0  0  0  0  0  0  0  0  0  0
   -0.4500   -4.5180    0.7820 N   0  0  0  0  0  0  0  0  0  0  0  0
   -1.0290   -3.2870    0.7140 C   0  0  0  0  0  0  0  0  0  0  0  0
   -1.9660   -3.0890   -0.4020 C   0  0  0  0  0  0  0  0  0  0  0  0
   -2.8620   -1.6170   -0.6250 Cl  0  0  0  0  0  0  0  0  0  0  0  0
   -2.1530   -4.0540   -1.2670 C   0  0  0  0  0  0  0  0  0  0  0  0
   -3.0680   -3.9080   -2.3850 C   0  0  0  0  0  0  0  0  0  0  0  0
   -3.3010   -2.8030   -3.1670 C   0  0  0  0  0  0  0  0  0  0  0  0
   -4.2490   -3.1790   -4.0720 N   0  0  0  0  0  0  0  0  0  0  0  0
   -4.6020   -4.4510   -3.8790 C   0  0  0  0  0  0  0  0  0  0  0  0
   -3.8910   -4.9100   -2.8540 N   0  0  0  0  0  0  0  0  0  0  0  0
   -0.3310    2.4410    1.0460 C   0  0  0  0  0  0  0  0  0  0  0  0
   -1.0180    3.3120    1.8950 C   0  0  0  0  0  0  0  0  0  0  0  0
   -1.8870    3.1200    2.8780 N   0  0  0  0  0  0  0  0  0  0  0  0
  1  2  1  0
  2  3  2  0
  2 41  1  0
  3  4  1  0
  4  5  1  0
  4 40  2  0
  5  6  2  0
  5  7  1  0
  7  8  1  0
  8  9  2  0
  8 39  1  0
  9 10  1  0
 10 11  1  0
 10 21  1  0
 11 12  1  0
 12 13  1  0
 13 14  1  0
 14 15  2  0
 14 19  1  0
 15 16  1  0
 16 17  2  0
 17 18  1  0
 18 19  2  0
 19 20  1  0
 21 22  1  0
 21 39  2  0
 22 23  1  0
 22 24  2  3
 24 25  1  0
 25 26  2  0
 25 30  1  0
 26 27  1  0
 27 28  2  0
 28 29  1  0
 29 30  2  0
 30 31  1  0
 31 32  1  0
 31 33  2  3
 33 34  1  0
 34 35  2  0
 34 38  1  0
 35 36  1  0
 36 37  1  0
 37 38  2  0
 39 40  1  0
 40 41  1  0
M  END
