
     RDKit          3D

 41 42  0  0  0  0  0  0  0  0999 V2000
    7.0030   -0.7900    1.7990 C   0  0  0  0  0  0  0  0  0  0  0  0
    6.4930   -2.1910    1.5490 C   0  0  0  0  0  0  0  0  0  0  0  0
    6.0340   -2.2960    0.2020 N   0  0  1  0  0  0  0  0  0  0  0  0
    6.0140   -3.6650   -0.2840 C   0  0  0  0  0  0  0  0  0  0  0  0
    7.2010   -4.4800    0.0980 C   0  0  0  0  0  0  0  0  0  0  0  0
    8.3850   -3.9360   -0.3850 O   0  0  0  0  0  0  0  0  0  0  0  0
    4.6400   -1.8560    0.1360 C   0  0  0  0  0  0  0  0  0  0  0  0
    4.3660   -1.3630   -1.2510 C   0  0  2  0  0  0  0  0  0  0  0  0
    5.3240   -0.1960   -1.5370 C   0  0  0  0  0  0  0  0  0  0  0  0
    3.0860   -0.9510   -1.5150 O   0  0  0  0  0  0  0  0  0  0  0  0
    2.3750    0.1330   -1.1440 C   0  0  0  0  0  0  0  0  0  0  0  0
    2.8620    1.1040   -0.3130 C   0  0  0  0  0  0  0  0  0  0  0  0
    2.0770    2.1850    0.0240 C   0  0  0  0  0  0  0  0  0  0  0  0
    0.7720    2.2880   -0.4870 C   0  0  0  0  0  0  0  0  0  0  0  0
   -0.0200    3.4470   -0.0720 C   0  0  2  0  0  0  0  0  0  0  0  0
    0.9640    4.5270    0.4470 C   0  0  0  0  0  0  0  0  0  0  0  0
   -0.7760    3.0800    1.1870 C   0  0  0  0  0  0  0  0  0  0  0  0
   -0.1160    2.5000    2.3600 C   0  0  0  0  0  0  0  0  0  0  0  0
   -1.9640    3.2790    1.2100 O   0  0  0  0  0  0  0  0  0  0  0  0
    0.2560    1.3270   -1.3250 C   0  0  0  0  0  0  0  0  0  0  0  0
   -1.0850    1.4730   -1.7890 N   0  0  0  0  0  0  0  0  0  0  0  0
   -1.6530    0.7950   -2.8930 C   0  0  0  0  0  0  0  0  0  0  0  0
   -0.8660    0.0050   -3.5340 O   0  0  0  0  0  0  0  0  0  0  0  0
   -3.0010    0.9190   -3.3460 N   0  0  0  0  0  0  0  0  0  0  0  0
   -3.3630    0.2150   -4.5850 C   0  0  0  0  0  0  0  0  0  0  0  0
   -3.9490    1.6810   -2.5900 C   0  0  0  0  0  0  0  0  0  0  0  0
   -4.6920    0.9060   -1.5680 C   0  0  0  0  0  0  0  0  0  0  0  0
   -4.5710    1.2490   -0.3050 C   0  0  0  0  0  0  0  0  0  0  0  0
   -5.1880    0.6320    0.8410 C   0  0  0  0  0  0  0  0  0  0  0  0
   -6.1230    1.3400    1.5830 C   0  0  0  0  0  0  0  0  0  0  0  0
   -6.6860    0.7570    2.7260 C   0  0  0  0  0  0  0  0  0  0  0  0
   -7.6760    1.4970    3.5180 C   0  0  0  0  0  0  0  0  0  0  0  0
   -6.2890   -0.4990    3.0690 C   0  0  0  0  0  0  0  0  0  0  0  0
   -5.3730   -1.1920    2.3410 C   0  0  0  0  0  0  0  0  0  0  0  0
   -4.8200   -0.6310    1.2300 C   0  0  0  0  0  0  0  0  0  0  0  0
   -3.8310   -1.3340    0.5060 N   0  0  0  0  0  0  0  0  0  0  0  0
   -3.4030   -2.6750    0.8480 C   0  0  0  0  0  0  0  0  0  0  0  0
   -5.6030   -0.1270   -1.9610 C   0  0  0  0  0  0  0  0  0  0  0  0
   -5.8250   -0.6110   -3.2780 N   0  0  0  0  0  0  0  0  0  0  0  0
   -6.3140   -0.7010   -1.0690 O   0  0  0  0  0  0  0  0  0  0  0  0
    1.0530    0.2520   -1.6520 C   0  0  0  0  0  0  0  0  0  0  0  0
  1  2  1  0
  3  2  1  1
  3  4  1  0
  3  7  1  0
  4  5  1  0
  5  6  1  0
  7  8  1  0
  8  9  1  1
  8 10  1  0
 10 11  1  0
 11 12  2  0
 11 41  1  0
 12 13  1  0
 13 14  2  0
 14 15  1  0
 14 20  1  0
 15 16  1  1
 15 17  1  0
 17 18  1  0
 17 19  2  0
 20 21  1  0
 20 41  2  0
 21 22  1  0
 22 23  2  0
 22 24  1  0
 24 25  1  0
 24 26  1  0
 26 27  1  0
 27 28  2  3
 27 38  1  0
 28 29  1  0
 29 30  2  0
 29 35  1  0
 30 31  1  0
 31 32  1  0
 31 33  2  0
 33 34  1  0
 34 35  2  0
 35 36  1  0
 36 37  1  0
 38 39  1  0
 38 40  2  0
M  CHG  1   3   1
M  END
