
     RDKit          3D

 32 34  0  0  0  0  0  0  0  0999 V2000
   -5.2600    3.1430   -0.6620 C   0  0  0  0  0  0  0  0  0  0  0  0
   -4.6850    2.0240   -0.9490 C   0  0  0  0  0  0  0  0  0  0  0  0
   -3.8510    1.2470   -0.0840 C   0  0  0  0  0  0  0  0  0  0  0  0
   -3.4050    1.5190    1.1680 C   0  0  0  0  0  0  0  0  0  0  0  0
   -3.6250    2.7040    2.0610 C   0  0  0  0  0  0  0  0  0  0  0  0
   -2.6460    4.0830    1.5190 Cl  0  0  0  0  0  0  0  0  0  0  0  0
   -2.6780    0.5040    1.5310 O   0  0  0  0  0  0  0  0  0  0  0  0
   -2.6010   -0.4350    0.6110 C   0  0  0  0  0  0  0  0  0  0  0  0
   -1.8200   -1.6440    0.8480 C   0  0  0  0  0  0  0  0  0  0  0  0
   -1.4010   -2.3340   -0.0950 O   0  0  0  0  0  0  0  0  0  0  0  0
   -1.5390   -2.0300    2.2060 N   0  0  0  0  0  0  0  0  0  0  0  0
   -0.7500   -3.2260    2.3830 C   0  0  0  0  0  0  0  0  0  0  0  0
    0.5990   -2.9850    1.8210 C   0  0  0  0  0  0  0  0  0  0  0  0
    1.4320   -3.9610    1.8140 O   0  0  0  0  0  0  0  0  0  0  0  0
    1.0310   -1.7420    1.2950 N   0  0  0  0  0  0  0  0  0  0  0  0
    2.3430   -1.5420    0.7510 C   0  0  0  0  0  0  0  0  0  0  0  0
    3.0890   -2.5630    0.7320 O   0  0  0  0  0  0  0  0  0  0  0  0
    2.7880   -0.2620    0.2590 C   0  0  0  0  0  0  0  0  0  0  0  0
    3.9420    0.0290   -0.2550 C   0  0  0  0  0  0  0  0  0  0  0  0
    4.9250   -0.9810   -0.3770 O   0  0  0  0  0  0  0  0  0  0  0  0
    4.1570    1.3800   -0.6720 C   0  0  0  0  0  0  0  0  0  0  0  0
    5.2560    1.8710   -1.2280 C   0  0  0  0  0  0  0  0  0  0  0  0
    6.4880    1.1460   -1.5400 C   0  0  1  0  0  0  0  0  0  0  0  0
    7.2550    0.6770   -0.3360 C   0  0  0  0  0  0  0  0  0  0  0  0
    6.1430   -0.1720   -2.6880 Cl  0  0  0  0  0  0  0  0  0  0  0  0
    2.9930    2.2670   -0.4450 C   0  0  0  0  0  0  0  0  0  0  0  0
    2.8670    3.4950   -0.6960 O   0  0  0  0  0  0  0  0  0  0  0  0
    1.7640    1.1940    0.2850 S   0  0  0  0  0  0  0  0  0  0  0  0
   -3.3420   -0.0270   -0.4690 C   0  0  0  0  0  0  0  0  0  0  0  0
   -3.5730   -0.6930   -1.7450 C   0  0  1  0  0  0  0  0  0  0  0  0
   -3.4710   -2.1550   -1.9750 C   0  0  0  0  0  0  0  0  0  0  0  0
   -4.7980   -1.3460   -2.1820 C   0  0  0  0  0  0  0  0  0  0  0  0
  1  2  2  0
  2  3  1  0
  3  4  2  0
  3 29  1  0
  4  5  1  0
  4  7  1  0
  5  6  1  0
  7  8  1  0
  8  9  1  0
  8 29  2  0
  9 10  2  0
  9 11  1  0
 11 12  1  0
 12 13  1  0
 13 14  2  0
 13 15  1  0
 15 16  1  0
 16 17  2  0
 16 18  1  0
 18 19  2  0
 18 28  1  0
 19 20  1  0
 19 21  1  0
 21 22  2  3
 21 26  1  0
 22 23  1  0
 23 24  1  1
 23 25  1  0
 26 27  2  0
 26 28  1  0
 30 29  1  1
 30 31  1  0
 30 32  1  0
 31 32  1  0
M  END
