
     RDKit          3D

 32 34  0  0  0  0  0  0  0  0999 V2000
    8.0020    1.7840   -0.3330 C   0  0  0  0  0  0  0  0  0  0  0  0
    6.7080    1.0680   -0.0160 C   0  0  0  0  0  0  0  0  0  0  0  0
    5.8780    1.4340    1.0200 C   0  0  0  0  0  0  0  0  0  0  0  0
    4.7970    0.5770    1.0320 C   0  0  0  0  0  0  0  0  0  0  0  0
    3.6220    0.6810    1.9280 C   0  0  0  0  0  0  0  0  0  0  0  0
    3.7860    0.6340    3.1310 O   0  0  0  0  0  0  0  0  0  0  0  0
    2.3160    0.8480    1.3060 C   0  0  0  0  0  0  0  0  0  0  0  0
    1.4930   -0.3890    1.5070 C   0  0  0  0  0  0  0  0  0  0  0  0
    1.8070   -1.3900    2.7700 S   0  0  0  0  0  0  0  0  0  0  0  0
    0.4840   -0.5930    0.5740 N   0  0  0  0  0  0  0  0  0  0  0  0
   -0.4490   -1.7280    0.6170 C   0  0  2  0  0  0  0  0  0  0  0  0
    0.0270   -2.7940   -0.2160 C   0  0  0  0  0  0  0  0  0  0  0  0
    0.0260   -2.7590   -1.6820 N   0  0  0  0  0  0  0  0  0  0  0  0
    0.5280   -3.8770    0.2980 O   0  0  0  0  0  0  0  0  0  0  0  0
   -1.8330   -1.3630    0.8240 C   0  0  0  0  0  0  0  0  0  0  0  0
   -2.6990   -2.3780    1.9950 Cl  0  0  0  0  0  0  0  0  0  0  0  0
   -2.4100   -0.3970    0.1430 C   0  0  0  0  0  0  0  0  0  0  0  0
   -1.6290    0.2910   -0.8360 O   0  0  0  0  0  0  0  0  0  0  0  0
   -2.3100    1.0360   -1.8050 C   0  0  0  0  0  0  0  0  0  0  0  0
   -3.3020    1.9350   -1.0700 C   0  0  0  0  0  0  0  0  0  0  0  0
   -4.2530    1.0630   -0.4780 O   0  0  0  0  0  0  0  0  0  0  0  0
   -3.7670   -0.0130    0.3530 C   0  0  0  0  0  0  0  0  0  0  0  0
   -4.6310   -0.5070    1.2090 C   0  0  0  0  0  0  0  0  0  0  0  0
   -5.9890    0.1000    1.2110 C   0  0  0  0  0  0  0  0  0  0  0  0
   -6.5160    0.7880    2.1330 O   0  0  0  0  0  0  0  0  0  0  0  0
   -7.7380    1.1810    1.8130 C   0  0  0  0  0  0  0  0  0  0  0  0
   -8.0410    0.6950    0.5340 C   0  0  0  0  0  0  0  0  0  0  0  0
   -6.8880   -0.0060    0.1640 C   0  0  0  0  0  0  0  0  0  0  0  0
   -6.5960   -0.8650   -1.3240 Cl  0  0  0  0  0  0  0  0  0  0  0  0
    5.0190   -0.2830   -0.0140 C   0  0  0  0  0  0  0  0  0  0  0  0
    4.1850   -1.4180   -0.4880 C   0  0  0  0  0  0  0  0  0  0  0  0
    6.1420    0.0580   -0.5780 O   0  0  0  0  0  0  0  0  0  0  0  0
  1  2  1  0
  2  3  2  0
  2 32  1  0
  3  4  1  0
  4  5  1  0
  4 30  2  0
  5  6  2  0
  5  7  1  0
  7  8  1  0
  8  9  2  0
  8 10  1  0
 11 10  1  6
 11 12  1  0
 11 15  1  0
 12 13  1  0
 12 14  2  0
 15 16  1  0
 15 17  2  3
 17 18  1  0
 17 22  1  0
 18 19  1  0
 19 20  1  0
 20 21  1  0
 21 22  1  0
 22 23  2  3
 23 24  1  0
 24 25  1  0
 24 28  2  0
 25 26  1  0
 26 27  2  0
 27 28  1  0
 28 29  1  0
 30 31  1  0
 30 32  1  0
M  END
