
     RDKit          3D

 32 36  0  0  0  0  0  0  0  0999 V2000
   -7.0730   -1.8130   -0.0300 C   0  0  0  0  0  0  0  0  0  0  0  0
   -6.1700   -1.1780    1.0060 C   0  0  2  0  0  0  0  0  0  0  0  0
   -6.9240   -0.5800    2.0260 O   0  0  0  0  0  0  0  0  0  0  0  0
   -5.2930   -0.1470    0.3040 C   0  0  1  0  0  0  0  0  0  0  0  0
   -4.3730    0.5240    1.2660 C   0  0  0  0  0  0  0  0  0  0  0  0
   -3.3400    1.3930    0.5690 C   0  0  0  0  0  0  0  0  0  0  0  0
   -2.8640    0.7380   -0.6300 N   0  0  0  0  0  0  0  0  0  0  0  0
   -2.1720    1.4080   -1.6570 C   0  0  0  0  0  0  0  0  0  0  0  0
   -2.6490    1.4190   -2.9470 N   0  0  0  0  0  0  0  0  0  0  0  0
   -2.0060    2.0540   -3.9370 C   0  0  0  0  0  0  0  0  0  0  0  0
   -0.8410    2.7170   -3.6760 C   0  0  0  0  0  0  0  0  0  0  0  0
   -0.3600    2.7160   -2.4210 N   0  0  0  0  0  0  0  0  0  0  0  0
   -0.9960    2.0820   -1.4220 C   0  0  0  0  0  0  0  0  0  0  0  0
   -0.4630    2.1090   -0.1510 O   0  0  0  0  0  0  0  0  0  0  0  0
    0.5150    1.2050    0.2020 C   0  0  0  0  0  0  0  0  0  0  0  0
    0.2140   -0.0020    0.7800 C   0  0  0  0  0  0  0  0  0  0  0  0
    1.1560   -0.9270    1.1440 C   0  0  0  0  0  0  0  0  0  0  0  0
    2.5040   -0.6450    0.9240 C   0  0  0  0  0  0  0  0  0  0  0  0
    3.4860   -1.5780    1.2890 N   0  0  0  0  0  0  0  0  0  0  0  0
    4.9040   -1.2980    1.0890 C   0  0  0  0  0  0  0  0  0  0  0  0
    5.6760   -0.5390    0.7100 N   0  0  0  0  0  0  0  0  0  0  0  0
    6.9880   -0.5980    0.6670 C   0  0  0  0  0  0  0  0  0  0  0  0
    7.9010    0.3600    0.1930 C   0  0  0  0  0  0  0  0  0  0  0  0
    9.2370    0.0930    0.2410 C   0  0  0  0  0  0  0  0  0  0  0  0
    9.7950   -1.0630    0.7250 C   0  0  0  0  0  0  0  0  0  0  0  0
    8.8900   -2.0130    1.1950 C   0  0  0  0  0  0  0  0  0  0  0  0
    7.5470   -1.7540    1.1510 C   0  0  0  0  0  0  0  0  0  0  0  0
    6.0890   -2.6780    1.6390 S   0  0  0  0  0  0  0  0  0  0  0  0
    2.8350    0.5540    0.3480 C   0  0  0  0  0  0  0  0  0  0  0  0
    1.8620    1.4690   -0.0090 C   0  0  0  0  0  0  0  0  0  0  0  0
   -3.1400   -0.6730   -0.7410 C   0  0  0  0  0  0  0  0  0  0  0  0
   -4.6410   -0.8190   -0.8640 C   0  0  0  0  0  0  0  0  0  0  0  0
  2  1  1  6
  2  3  1  0
  2  4  1  0
  4  5  1  1
  4 32  1  0
  5  6  1  0
  6  7  1  0
  7  8  1  0
  7 31  1  0
  8  9  2  0
  8 13  1  0
  9 10  1  0
 10 11  2  0
 11 12  1  0
 12 13  2  0
 13 14  1  0
 14 15  1  0
 15 16  2  0
 15 30  1  0
 16 17  1  0
 17 18  2  0
 18 19  1  0
 18 29  1  0
 19 20  1  0
 20 21  2  0
 20 28  1  0
 21 22  1  0
 22 23  2  0
 22 27  1  0
 23 24  1  0
 24 25  2  0
 25 26  1  0
 26 27  2  0
 27 28  1  0
 29 30  2  0
 31 32  1  0
M  END
