
     RDKit          3D

 32 34  0  0  0  0  0  0  0  0999 V2000
   -4.8820   -2.1040    2.4360 C   0  0  0  0  0  0  0  0  0  0  0  0
   -4.5370   -1.2680    1.2880 C   0  0  0  0  0  0  0  0  0  0  0  0
   -3.4810   -1.5200    0.4380 C   0  0  0  0  0  0  0  0  0  0  0  0
   -2.7430   -2.7000    0.7970 C   0  0  0  0  0  0  0  0  0  0  0  0
   -1.7860   -3.3020    0.2870 N   0  0  0  0  0  0  0  0  0  0  0  0
   -3.3350   -0.6280   -0.7030 C   0  0  0  0  0  0  0  0  0  0  0  0
   -2.3170    0.3240   -0.8190 N   0  0  0  0  0  0  0  0  0  0  0  0
   -0.9210    0.2060   -0.9030 C   0  0  0  0  0  0  0  0  0  0  0  0
   -0.4390   -0.9420   -0.9010 O   0  0  0  0  0  0  0  0  0  0  0  0
    0.0110    1.3630   -0.9980 C   0  0  0  0  0  0  0  0  0  0  0  0
    1.2580    1.1910   -1.5600 C   0  0  0  0  0  0  0  0  0  0  0  0
    1.7490   -0.0790   -2.1240 C   0  0  1  0  0  0  0  0  0  0  0  0
    2.6330    0.2350   -3.1820 O   0  0  0  0  0  0  0  0  0  0  0  0
    2.4650   -0.8810   -1.0990 C   0  0  0  0  0  0  0  0  0  0  0  0
    2.4790   -0.5900    0.2490 C   0  0  0  0  0  0  0  0  0  0  0  0
    3.1580   -1.3660    1.1540 C   0  0  0  0  0  0  0  0  0  0  0  0
    3.2020   -1.0340    2.8610 Cl  0  0  0  0  0  0  0  0  0  0  0  0
    3.8540   -2.4820    0.6990 C   0  0  0  0  0  0  0  0  0  0  0  0
    4.7400   -3.5190    1.7720 S   0  0  1  0  0  0  0  0  0  0  0  0
    6.0120   -3.9360    1.0850 O   0  0  0  0  0  0  0  0  0  0  0  0
    5.0780   -2.7900    3.0640 O   0  0  0  0  0  0  0  0  0  0  0  0
    3.8310   -2.7590   -0.6440 C   0  0  0  0  0  0  0  0  0  0  0  0
    4.7010   -4.1590   -1.2300 Cl  0  0  0  0  0  0  0  0  0  0  0  0
    3.1540   -1.9880   -1.5540 C   0  0  0  0  0  0  0  0  0  0  0  0
    2.1770    2.2550   -1.6300 C   0  0  0  0  0  0  0  0  0  0  0  0
    1.7780    3.4630   -1.1160 C   0  0  0  0  0  0  0  0  0  0  0  0
    0.5620    3.6860   -0.5510 C   0  0  0  0  0  0  0  0  0  0  0  0
   -0.3350    2.6080   -0.4940 C   0  0  0  0  0  0  0  0  0  0  0  0
   -1.5500    2.8780    0.0910 O   0  0  0  0  0  0  0  0  0  0  0  0
   -1.7610    4.0170    0.8930 C   0  0  0  0  0  0  0  0  0  0  0  0
   -1.1910    5.2100    0.1150 C   0  0  0  0  0  0  0  0  0  0  0  0
    0.1840    4.9220   -0.0370 O   0  0  0  0  0  0  0  0  0  0  0  0
  1  2  1  0
  2  3  2  3
  3  4  1  0
  3  6  1  0
  4  5  2  0
  6  7  1  0
  7  8  1  0
  8  9  2  0
  8 10  1  0
 10 11  2  0
 10 28  1  0
 11 12  1  0
 11 25  1  0
 12 13  1  6
 12 14  1  0
 14 15  2  0
 14 24  1  0
 15 16  1  0
 16 17  1  0
 16 18  2  0
 19 18  1  6
 18 22  1  0
 19 20  2  0
 19 21  2  0
 22 23  1  0
 22 24  2  0
 25 26  2  0
 26 27  1  0
 27 28  2  0
 27 32  1  0
 28 29  1  0
 29 30  1  0
 30 31  1  0
 31 32  1  0
M  END
