
     RDKit          3D

 32 34  0  0  0  0  0  0  0  0999 V2000
   -1.8450   -0.3290    6.4470 C   0  0  0  0  0  0  0  0  0  0  0  0
   -1.8900    0.2170    5.1530 O   0  0  0  0  0  0  0  0  0  0  0  0
   -3.0510    0.8750    4.7130 C   0  0  0  0  0  0  0  0  0  0  0  0
   -4.1340    0.9800    5.5500 C   0  0  0  0  0  0  0  0  0  0  0  0
   -5.2870    1.6140    5.1600 C   0  0  0  0  0  0  0  0  0  0  0  0
   -5.3440    2.1480    3.9110 C   0  0  0  0  0  0  0  0  0  0  0  0
   -4.2340    2.0440    3.0460 C   0  0  0  0  0  0  0  0  0  0  0  0
   -3.0950    1.4200    3.4240 C   0  0  0  0  0  0  0  0  0  0  0  0
   -1.9620    1.2850    2.6310 N   0  0  0  0  0  0  0  0  0  0  0  0
   -1.7750    1.7310    1.3040 C   0  0  0  0  0  0  0  0  0  0  0  0
   -2.7060    2.3280    0.7090 O   0  0  0  0  0  0  0  0  0  0  0  0
   -0.5190    1.5100    0.6190 C   0  0  0  0  0  0  0  0  0  0  0  0
   -0.3020    1.9230   -0.6540 C   0  0  0  0  0  0  0  0  0  0  0  0
   -1.6630    2.7320   -1.3660 Cl  0  0  0  0  0  0  0  0  0  0  0  0
    0.9780    1.6680   -1.2690 C   0  0  0  0  0  0  0  0  0  0  0  0
    2.0990    0.7840   -0.1200 Cl  0  0  0  0  0  0  0  0  0  0  0  0
    1.4520    1.9400   -2.4310 C   0  0  0  0  0  0  0  0  0  0  0  0
    2.8220    1.4770   -2.6040 O   0  0  0  0  0  0  0  0  0  0  0  0
    3.0350    0.1180   -2.7920 C   0  0  0  0  0  0  0  0  0  0  0  0
    4.3170   -0.3780   -2.9590 C   0  0  0  0  0  0  0  0  0  0  0  0
    4.4990   -1.7370   -3.1450 C   0  0  0  0  0  0  0  0  0  0  0  0
    3.4450   -2.5950   -3.1670 C   0  0  0  0  0  0  0  0  0  0  0  0
    2.1710   -2.1530   -3.0080 C   0  0  0  0  0  0  0  0  0  0  0  0
    1.9950   -0.7750   -2.8210 C   0  0  0  0  0  0  0  0  0  0  0  0
    1.1740   -3.1650   -3.0550 C   0  0  0  0  0  0  0  0  0  0  0  0
   -0.0920   -2.9740   -2.9290 O   0  0  0  0  0  0  0  0  0  0  0  0
    1.6210   -4.4530   -3.2550 O   0  0  0  0  0  0  0  0  0  0  0  0
    3.3330   -4.3380   -3.3750 S   0  0  1  0  0  0  0  0  0  0  0  0
    3.8290   -4.8520   -5.0220 C   0  0  0  0  0  0  0  0  0  0  0  0
    0.9480    2.5900   -3.5930 C   0  0  0  0  0  0  0  0  0  0  0  0
   -0.3270    3.1620   -3.7920 N   0  0  0  0  0  0  0  0  0  0  0  0
    1.7810    2.6580   -4.5920 O   0  0  0  0  0  0  0  0  0  0  0  0
  1  2  1  0
  2  3  1  0
  3  4  2  0
  3  8  1  0
  4  5  1  0
  5  6  2  0
  6  7  1  0
  7  8  2  0
  8  9  1  0
  9 10  1  0
 10 11  2  0
 10 12  1  0
 12 13  2  3
 13 14  1  0
 13 15  1  0
 15 16  1  0
 15 17  2  3
 17 18  1  0
 17 30  1  0
 18 19  1  0
 19 20  2  0
 19 24  1  0
 20 21  1  0
 21 22  2  0
 22 23  1  0
 22 28  1  0
 23 24  2  0
 23 25  1  0
 25 26  2  0
 25 27  1  0
 27 28  1  0
 28 29  1  6
 30 31  1  0
 30 32  2  0
M  END
