
     RDKit          3D

 32 34  0  0  0  0  0  0  0  0999 V2000
   -8.2600    1.7460    0.0610 C   0  0  0  0  0  0  0  0  0  0  0  0
   -6.7530    1.7040    0.1040 C   0  0  0  0  0  0  0  0  0  0  0  0
   -6.2400    0.4140   -0.3230 N   0  0  0  0  0  0  0  0  0  0  0  0
   -4.8340    0.1810   -0.3150 C   0  0  0  0  0  0  0  0  0  0  0  0
   -4.0300    0.4760   -1.3910 C   0  0  0  0  0  0  0  0  0  0  0  0
   -4.7890    1.1630   -2.8340 Cl  0  0  0  0  0  0  0  0  0  0  0  0
   -2.6760    0.2520   -1.3420 C   0  0  0  0  0  0  0  0  0  0  0  0
   -2.0480   -0.2840   -0.2020 C   0  0  0  0  0  0  0  0  0  0  0  0
   -2.8880   -0.5560    0.8390 C   0  0  0  0  0  0  0  0  0  0  0  0
   -4.2600   -0.3400    0.8110 C   0  0  0  0  0  0  0  0  0  0  0  0
   -5.0200   -0.7080    1.9960 C   0  0  0  0  0  0  0  0  0  0  0  0
   -6.2510   -0.5660    1.9970 O   0  0  0  0  0  0  0  0  0  0  0  0
   -4.2560   -1.3460    3.4250 Cl  0  0  0  0  0  0  0  0  0  0  0  0
   -1.8540   -1.1390    2.2000 S   0  0  0  0  0  0  0  0  0  0  0  0
   -0.3080   -0.3010    1.4940 C   0  0  0  0  0  0  0  0  0  0  0  0
   -0.6350   -0.6250    0.0880 C   0  0  2  0  0  0  0  0  0  0  0  0
    0.2990   -0.4870   -1.0180 C   0  0  2  0  0  0  0  0  0  0  0  0
    0.0140   -1.3880   -2.0180 O   0  0  0  0  0  0  0  0  0  0  0  0
    1.7340   -0.3590   -0.7720 C   0  0  0  0  0  0  0  0  0  0  0  0
    2.3190    0.1650    0.3070 N   0  0  0  0  0  0  0  0  0  0  0  0
    3.6780    0.1730    0.2080 C   0  0  0  0  0  0  0  0  0  0  0  0
    4.5550    0.6790    1.2440 C   0  0  0  0  0  0  0  0  0  0  0  0
    4.1290    1.1530    2.3310 O   0  0  0  0  0  0  0  0  0  0  0  0
    5.9300    0.6670    1.0920 O   0  0  0  0  0  0  0  0  0  0  0  0
    6.7600    1.1740    2.1350 C   0  0  0  0  0  0  0  0  0  0  0  0
    8.1900    1.0660    1.7080 C   0  0  0  0  0  0  0  0  0  0  0  0
    3.9560   -0.3700   -0.9950 C   0  0  0  0  0  0  0  0  0  0  0  0
    2.7590   -0.7130   -1.6380 C   0  0  0  0  0  0  0  0  0  0  0  0
    2.7170   -1.2790   -2.9700 C   0  0  0  0  0  0  0  0  0  0  0  0
    1.7210   -1.2540   -3.7520 O   0  0  0  0  0  0  0  0  0  0  0  0
    3.8420   -1.9090   -3.4480 O   0  0  0  0  0  0  0  0  0  0  0  0
    3.9980   -2.5210   -4.7020 C   0  0  0  0  0  0  0  0  0  0  0  0
  1  2  1  0
  2  3  1  0
  3  4  1  0
  4  5  2  0
  4 10  1  0
  5  6  1  0
  5  7  1  0
  7  8  2  0
  8  9  1  0
  8 16  1  0
  9 10  2  0
  9 14  1  0
 10 11  1  0
 11 12  2  0
 11 13  1  0
 14 15  1  0
 16 15  1  1
 16 17  1  0
 17 18  1  6
 17 19  1  0
 19 20  1  0
 19 28  2  0
 20 21  1  0
 21 22  1  0
 21 27  2  0
 22 23  2  0
 22 24  1  0
 24 25  1  0
 25 26  1  0
 27 28  1  0
 28 29  1  0
 29 30  2  0
 29 31  1  0
 31 32  1  0
M  END
