
     RDKit          3D

 31 33  0  0  0  0  0  0  0  0999 V2000
   -2.6360   -0.6790   -2.7220 C   0  0  0  0  0  0  0  0  0  0  0  0
   -1.4610    0.1150   -2.5330 N   0  0  0  0  0  0  0  0  0  0  0  0
   -1.4010    0.7830   -1.3590 O   0  0  0  0  0  0  0  0  0  0  0  0
   -2.2510    0.4650   -0.2530 C   0  0  0  0  0  0  0  0  0  0  0  0
   -3.3130    1.2320   -0.1270 C   0  0  0  0  0  0  0  0  0  0  0  0
   -3.5530    2.3540   -1.0960 C   0  0  0  0  0  0  0  0  0  0  0  0
   -4.3130    0.8820    0.8750 C   0  0  0  0  0  0  0  0  0  0  0  0
   -5.4000    1.6810    1.1220 C   0  0  0  0  0  0  0  0  0  0  0  0
   -5.6200    3.1010    0.1530 Cl  0  0  0  0  0  0  0  0  0  0  0  0
   -6.3210    1.3740    2.1400 C   0  0  0  0  0  0  0  0  0  0  0  0
   -6.1630    0.2640    2.9200 C   0  0  0  0  0  0  0  0  0  0  0  0
   -7.0730   -0.0500    3.9360 O   0  0  0  0  0  0  0  0  0  0  0  0
   -5.0680   -0.5350    2.6640 C   0  0  0  0  0  0  0  0  0  0  0  0
   -4.9460   -1.6460    3.4720 O   0  0  0  0  0  0  0  0  0  0  0  0
   -4.1340   -0.2580    1.6590 C   0  0  0  0  0  0  0  0  0  0  0  0
   -3.0260   -1.2010    1.3950 C   0  0  0  0  0  0  0  0  0  0  0  0
   -1.9230   -0.6180    0.6400 C   0  0  1  0  0  0  0  0  0  0  0  0
   -0.8630   -1.8270   -0.1930 S   0  0  0  0  0  0  0  0  0  0  0  0
    0.7750   -1.1670   -0.3480 C   0  0  0  0  0  0  0  0  0  0  0  0
    1.5420   -1.8180   -1.0880 O   0  0  0  0  0  0  0  0  0  0  0  0
    1.3040    0.0450    0.2950 C   0  0  0  0  0  0  0  0  0  0  0  0
    2.6650    0.2760   -0.0340 O   0  0  0  0  0  0  0  0  0  0  0  0
    3.6820   -0.5840    0.2310 C   0  0  0  0  0  0  0  0  0  0  0  0
    3.4620   -1.6700    0.8030 O   0  0  0  0  0  0  0  0  0  0  0  0
    5.0370   -0.2420   -0.1520 C   0  0  0  0  0  0  0  0  0  0  0  0
    5.4520    0.9290   -0.7890 C   0  0  0  0  0  0  0  0  0  0  0  0
    6.8160    0.8270   -0.9560 C   0  0  0  0  0  0  0  0  0  0  0  0
    7.6890    1.8630   -1.6000 C   0  0  0  0  0  0  0  0  0  0  0  0
    7.2340   -0.3410   -0.4520 N   0  0  0  0  0  0  0  0  0  0  0  0
    6.1630   -1.0120    0.0460 C   0  0  0  0  0  0  0  0  0  0  0  0
    6.1370   -2.3450    0.7000 C   0  0  0  0  0  0  0  0  0  0  0  0
  1  2  1  0
  2  3  1  0
  3  4  1  0
  4  5  2  0
  4 17  1  0
  5  6  1  0
  5  7  1  0
  7  8  2  0
  7 15  1  0
  8  9  1  0
  8 10  1  0
 10 11  2  0
 11 12  1  0
 11 13  1  0
 13 14  1  0
 13 15  2  0
 15 16  1  0
 16 17  1  0
 17 18  1  6
 18 19  1  0
 19 20  2  0
 19 21  1  0
 21 22  1  0
 22 23  1  0
 23 24  2  0
 23 25  1  0
 25 26  1  0
 25 30  2  0
 26 27  2  0
 27 28  1  0
 27 29  1  0
 29 30  1  0
 30 31  1  0
M  END
