
     RDKit          3D

 32 34  0  0  0  0  0  0  0  0999 V2000
    7.7340   -0.1440    1.0710 C   0  0  0  0  0  0  0  0  0  0  0  0
    6.3640   -0.3720    0.7260 O   0  0  0  0  0  0  0  0  0  0  0  0
    5.5740    0.6220    0.2150 C   0  0  0  0  0  0  0  0  0  0  0  0
    6.0650    1.7630    0.0460 O   0  0  0  0  0  0  0  0  0  0  0  0
    4.1470    0.3530   -0.1330 C   0  0  1  0  0  0  0  0  0  0  0  0
    3.4100   -0.0460    1.0820 C   0  0  0  0  0  0  0  0  0  0  0  0
    3.9880   -0.2290    2.1510 O   0  0  0  0  0  0  0  0  0  0  0  0
    1.9850   -0.2240    0.9950 N   0  0  0  0  0  0  0  0  0  0  0  0
    1.2200   -0.6160    2.1100 C   0  0  0  0  0  0  0  0  0  0  0  0
   -0.2720   -0.7400    1.8950 C   0  0  0  0  0  0  0  0  0  0  0  0
   -0.8700   -1.1260    2.9250 O   0  0  0  0  0  0  0  0  0  0  0  0
   -0.8910   -0.4560    0.7020 N   0  0  0  0  0  0  0  0  0  0  0  0
   -2.2270   -0.4500    0.2820 C   0  0  0  0  0  0  0  0  0  0  0  0
   -2.4850   -0.7370   -1.4370 S   0  0  0  0  0  0  0  0  0  0  0  0
   -4.0850   -0.6170   -1.9450 C   0  0  0  0  0  0  0  0  0  0  0  0
   -4.9740   -0.3160   -0.9630 C   0  0  0  0  0  0  0  0  0  0  0  0
   -4.6510   -0.1130    0.3480 C   0  0  0  0  0  0  0  0  0  0  0  0
   -5.6700    0.1440    1.0970 O   0  0  0  0  0  0  0  0  0  0  0  0
   -3.3930   -0.1650    0.9470 C   0  0  0  0  0  0  0  0  0  0  0  0
   -3.3390    0.1100    2.4100 C   0  0  2  0  0  0  0  0  0  0  0  0
   -3.8470   -1.3530    3.3200 Cl  0  0  0  0  0  0  0  0  0  0  0  0
   -4.3680    1.1680    2.8240 C   0  0  0  0  0  0  0  0  0  0  0  0
   -4.1490    2.5140    2.2480 C   0  0  0  0  0  0  0  0  0  0  0  0
   -4.0800    2.7150    0.5200 Cl  0  0  0  0  0  0  0  0  0  0  0  0
   -6.3670   -0.2520   -1.5730 C   0  0  0  0  0  0  0  0  0  0  0  0
   -6.2110   -0.8950   -2.9010 C   0  0  0  0  0  0  0  0  0  0  0  0
   -4.7760   -0.7710   -3.2900 C   0  0  0  0  0  0  0  0  0  0  0  0
    3.5110    1.5230   -0.8490 C   0  0  0  0  0  0  0  0  0  0  0  0
    4.3870    1.9460   -1.9990 C   0  0  0  0  0  0  0  0  0  0  0  0
    5.2860    0.9430   -2.3120 O   0  0  0  0  0  0  0  0  0  0  0  0
    4.6680   -0.2980   -2.4410 C   0  0  0  0  0  0  0  0  0  0  0  0
    4.1480   -0.8260   -1.1300 C   0  0  0  0  0  0  0  0  0  0  0  0
  1  2  1  0
  2  3  1  0
  3  4  2  0
  5  3  1  1
  5  6  1  0
  5 28  1  0
  5 32  1  0
  6  7  2  0
  6  8  1  0
  8  9  1  0
  9 10  1  0
 10 11  2  0
 10 12  1  0
 12 13  1  0
 13 14  1  0
 13 19  2  0
 14 15  1  0
 15 16  2  0
 15 27  1  0
 16 17  1  0
 16 25  1  0
 17 18  2  0
 17 19  1  0
 19 20  1  0
 20 21  1  1
 20 22  1  0
 22 23  1  0
 23 24  1  0
 25 26  1  0
 26 27  1  0
 28 29  1  0
 29 30  1  0
 30 31  1  0
 31 32  1  0
M  END
