
     RDKit          3D

 35 37  0  0  0  0  0  0  0  0999 V2000
    6.9070   -0.6830    2.1310 C   0  0  0  0  0  0  0  0  0  0  0  0
    6.2210   -0.4690    0.7270 C   0  0  2  0  0  0  0  0  0  0  0  0
    6.9250   -1.4070   -0.1910 C   0  0  0  0  0  0  0  0  0  0  0  0
    6.6520    0.9480    0.3850 C   0  0  0  0  0  0  0  0  0  0  0  0
    4.7990   -0.6890    0.9740 C   0  0  0  0  0  0  0  0  0  0  0  0
    3.8180   -0.6330   -0.0560 N   0  0  0  0  0  0  0  0  0  0  0  0
    2.5690   -1.0100    0.6500 C   0  0  0  0  0  0  0  0  0  0  0  0
    1.3400   -0.8410   -0.1520 C   0  0  0  0  0  0  0  0  0  0  0  0
    1.1690    0.5920   -0.5410 C   0  0  1  0  0  0  0  0  0  0  0  0
    0.0850    1.1600    0.2850 N   0  0  0  0  0  0  0  0  0  0  0  0
   -1.1920    0.7690   -0.1770 C   0  0  0  0  0  0  0  0  0  0  0  0
   -2.1220    0.1660    0.7780 C   0  0  0  0  0  0  0  0  0  0  0  0
   -1.8590   -0.0570    2.1110 C   0  0  0  0  0  0  0  0  0  0  0  0
   -2.8090   -0.6490    2.9530 C   0  0  0  0  0  0  0  0  0  0  0  0
   -2.5130   -0.8680    4.3160 N   0  0  0  0  0  0  0  0  0  0  0  0
   -4.0450   -1.0240    2.4460 C   0  0  0  0  0  0  0  0  0  0  0  0
   -4.2750   -0.7930    1.1350 N   0  0  0  0  0  0  0  0  0  0  0  0
   -3.3880   -0.2300    0.3110 C   0  0  0  0  0  0  0  0  0  0  0  0
   -3.7730    0.0620   -1.4290 S   0  0  0  0  0  0  0  0  0  0  0  0
   -4.5550    1.7050   -1.5220 C   0  0  0  0  0  0  0  0  0  0  0  0
   -5.8930    1.5490   -0.8240 C   0  0  0  0  0  0  0  0  0  0  0  0
   -6.2090    2.3260    0.0960 O   0  0  0  0  0  0  0  0  0  0  0  0
   -6.7640    0.5240   -1.2260 N   0  0  0  0  0  0  0  0  0  0  0  0
   -8.0370    0.2400   -0.6910 C   0  0  0  0  0  0  0  0  0  0  0  0
   -8.7020    0.9720    0.2600 C   0  0  0  0  0  0  0  0  0  0  0  0
   -9.9610    0.6160    0.7370 C   0  0  0  0  0  0  0  0  0  0  0  0
  -10.5500   -0.5100    0.2330 C   0  0  0  0  0  0  0  0  0  0  0  0
   -9.9230   -1.2440   -0.6970 N   0  0  0  0  0  0  0  0  0  0  0  0
   -8.7160   -0.8960   -1.1500 C   0  0  0  0  0  0  0  0  0  0  0  0
    2.4590    1.3470   -0.2840 C   0  0  0  0  0  0  0  0  0  0  0  0
    3.6520    0.5190   -0.8260 C   0  0  2  0  0  0  0  0  0  0  0  0
    3.4320    0.3040   -2.3040 C   0  0  0  0  0  0  0  0  0  0  0  0
    4.5100   -0.4110   -3.0240 C   0  0  1  0  0  0  0  0  0  0  0  0
    4.7610   -1.6880   -2.5690 O   0  0  0  0  0  0  0  0  0  0  0  0
    4.1070   -0.5350   -4.3730 O   0  0  0  0  0  0  0  0  0  0  0  0
  2  1  1  1
  2  3  1  0
  2  4  1  0
  2  5  1  0
  5  6  1  0
  6  7  1  0
  6 31  1  0
  7  8  1  0
  8  9  1  0
  9 10  1  1
  9 30  1  0
 10 11  1  0
 11 12  1  0
 12 13  2  0
 12 18  1  0
 13 14  1  0
 14 15  1  0
 14 16  2  0
 16 17  1  0
 17 18  2  0
 18 19  1  0
 19 20  1  0
 20 21  1  0
 21 22  2  0
 21 23  1  0
 23 24  1  0
 24 25  2  0
 24 29  1  0
 25 26  1  0
 26 27  2  0
 27 28  1  0
 28 29  2  0
 30 31  1  0
 31 32  1  6
 32 33  1  0
 33 34  1  1
 33 35  1  0
M  CHG  1  10   1
M  END
