
     RDKit          3D

 35 40  0  0  0  0  0  0  0  0999 V2000
   -7.1930    1.8100   -0.5680 C   0  0  0  0  0  0  0  0  0  0  0  0
   -6.1750    2.6450   -0.6740 C   0  0  0  0  0  0  0  0  0  0  0  0
   -5.0340    2.2850   -1.5310 C   0  0  0  0  0  0  0  0  0  0  0  0
   -3.7880    2.2060   -0.8040 N   0  0  0  0  0  0  0  0  0  0  0  0
   -3.7520    1.1050    0.1220 C   0  0  0  0  0  0  0  0  0  0  0  0
   -2.9400   -0.0040   -0.5160 C   0  0  0  0  0  0  0  0  0  0  0  0
   -1.5560    0.4590   -0.5090 C   0  0  0  0  0  0  0  0  0  0  0  0
   -1.4310    1.6670   -1.1160 C   0  0  0  0  0  0  0  0  0  0  0  0
   -2.6570    2.3180   -1.6740 C   0  0  0  0  0  0  0  0  0  0  0  0
   -0.1650    2.3920   -1.2640 C   0  0  2  0  0  0  0  0  0  0  0  0
    0.0940    2.5190   -2.7710 C   0  0  0  0  0  0  0  0  0  0  0  0
    0.9570    1.6860   -0.6860 N   0  0  0  0  0  0  0  0  0  0  0  0
    2.2400    2.2730   -0.7680 C   0  0  0  0  0  0  0  0  0  0  0  0
    2.4170    3.4100   -1.3320 O   0  0  0  0  0  0  0  0  0  0  0  0
    3.3600    1.6190   -0.2270 N   0  0  0  0  0  0  0  0  0  0  0  0
    3.2690    0.3910    0.4780 C   0  0  2  0  0  0  0  0  0  0  0  0
    4.3160   -0.5530    0.0980 N   0  0  0  0  0  0  0  0  0  0  0  0
    5.6530   -0.1490    0.3580 C   0  0  0  0  0  0  0  0  0  0  0  0
    6.0670    0.0430    1.7620 C   0  0  0  0  0  0  0  0  0  0  0  0
    6.5260    0.0550   -0.6090 C   0  0  0  0  0  0  0  0  0  0  0  0
    7.9120    0.4760   -0.3050 C   0  0  0  0  0  0  0  0  0  0  0  0
    1.9460   -0.2070    0.4930 C   0  0  0  0  0  0  0  0  0  0  0  0
    1.7600   -1.4610    1.1100 C   0  0  0  0  0  0  0  0  0  0  0  0
    0.5370   -2.0570    1.1930 C   0  0  0  0  0  0  0  0  0  0  0  0
   -0.5690   -1.4390    0.6670 C   0  0  0  0  0  0  0  0  0  0  0  0
   -0.4060   -0.2140    0.0600 C   0  0  0  0  0  0  0  0  0  0  0  0
    0.8480    0.4180   -0.0370 C   0  0  0  0  0  0  0  0  0  0  0  0
   -1.8190   -1.9970    0.7260 O   0  0  0  0  0  0  0  0  0  0  0  0
   -1.9810   -3.2260    1.3350 C   0  0  0  0  0  0  0  0  0  0  0  0
   -3.2030   -3.8570    1.4380 C   0  0  0  0  0  0  0  0  0  0  0  0
   -3.3530   -5.0830    2.0480 C   0  0  0  0  0  0  0  0  0  0  0  0
   -2.2560   -5.7210    2.5820 C   0  0  0  0  0  0  0  0  0  0  0  0
   -1.0160   -5.1270    2.5020 C   0  0  0  0  0  0  0  0  0  0  0  0
   -0.8880   -3.8930    1.8840 C   0  0  0  0  0  0  0  0  0  0  0  0
    0.3590   -3.3000    1.8060 O   0  0  0  0  0  0  0  0  0  0  0  0
  1  2  2  0
  2  3  1  0
  3  4  1  0
  4  5  1  0
  4  9  1  0
  5  6  1  0
  6  7  1  0
  7  8  2  0
  7 26  1  0
  8  9  1  0
  8 10  1  0
 10 11  1  6
 10 12  1  0
 12 13  1  0
 12 27  1  0
 13 14  2  0
 13 15  1  0
 15 16  1  0
 16 17  1  6
 16 22  1  0
 17 18  1  0
 18 19  1  0
 18 20  2  3
 20 21  1  0
 22 23  2  0
 22 27  1  0
 23 24  1  0
 24 25  2  0
 24 35  1  0
 25 26  1  0
 25 28  1  0
 26 27  2  0
 28 29  1  0
 29 30  2  0
 29 34  1  0
 30 31  1  0
 31 32  2  0
 32 33  1  0
 33 34  2  0
 34 35  1  0
M  END
