
     RDKit          3D

 35 37  0  0  0  0  0  0  0  0999 V2000
   -7.8750    1.9530   -2.6630 C   0  0  0  0  0  0  0  0  0  0  0  0
   -6.8790    2.1240   -1.5410 C   0  0  0  0  0  0  0  0  0  0  0  0
   -6.6430    0.8170   -0.8890 C   0  0  0  0  0  0  0  0  0  0  0  0
   -5.4690    0.1160   -1.1410 C   0  0  0  0  0  0  0  0  0  0  0  0
   -5.2360   -1.1020   -0.5400 C   0  0  0  0  0  0  0  0  0  0  0  0
   -4.0400   -1.8260   -0.7920 N   0  0  0  0  0  0  0  0  0  0  0  0
   -2.9620   -1.6610   -0.1190 C   0  0  0  0  0  0  0  0  0  0  0  0
   -2.8730   -0.7810    0.8900 N   0  0  0  0  0  0  0  0  0  0  0  0
   -1.7140   -0.6260    1.5980 C   0  0  0  0  0  0  0  0  0  0  0  0
   -0.5780   -1.3540    1.3260 C   0  0  0  0  0  0  0  0  0  0  0  0
    0.6710   -1.2240    2.0580 C   0  0  0  0  0  0  0  0  0  0  0  0
    1.6560   -1.9350    1.7250 O   0  0  0  0  0  0  0  0  0  0  0  0
    0.7860   -0.2780    3.1740 C   0  0  0  0  0  0  0  0  0  0  0  0
    1.1480    1.4150    2.6920 S   0  0  0  0  0  0  0  0  0  0  0  0
    2.7720    1.5820    1.9220 C   0  0  0  0  0  0  0  0  0  0  0  0
    2.8060    0.9900    0.5620 C   0  0  0  0  0  0  0  0  0  0  0  0
    1.6890    0.6040    0.0850 O   0  0  0  0  0  0  0  0  0  0  0  0
    3.9850    0.8430   -0.1940 N   0  0  0  0  0  0  0  0  0  0  0  0
    3.9020    0.2580   -1.5100 C   0  0  0  0  0  0  0  0  0  0  0  0
    5.0810   -0.5580   -1.8830 C   0  0  0  0  0  0  0  0  0  0  0  0
    6.3530   -0.1190   -1.3210 N   0  0  0  0  0  0  0  0  0  0  0  0
    7.3830   -1.0940   -1.5950 C   0  0  0  0  0  0  0  0  0  0  0  0
    8.7060   -0.6570   -1.2140 C   0  0  0  0  0  0  0  0  0  0  0  0
    9.1010    0.5690   -0.6500 N   0  0  0  0  0  0  0  0  0  0  0  0
    9.6650   -1.4900   -1.4130 O   0  0  0  0  0  0  0  0  0  0  0  0
    6.2260    0.1660    0.0870 C   0  0  0  0  0  0  0  0  0  0  0  0
    5.2440    1.2760    0.3810 C   0  0  1  0  0  0  0  0  0  0  0  0
    5.6380    2.5950   -0.1980 C   0  0  0  0  0  0  0  0  0  0  0  0
   -0.6570   -2.2780    0.2720 C   0  0  0  0  0  0  0  0  0  0  0  0
   -1.8360   -2.3960   -0.4050 C   0  0  0  0  0  0  0  0  0  0  0  0
   -1.9180   -3.3410   -1.4810 N   0  0  0  0  0  0  0  0  0  0  0  0
   -6.2010   -1.6080    0.3190 C   0  0  0  0  0  0  0  0  0  0  0  0
   -7.3540   -0.9010    0.5560 C   0  0  0  0  0  0  0  0  0  0  0  0
   -7.6030    0.3190   -0.0370 C   0  0  0  0  0  0  0  0  0  0  0  0
   -8.8590    1.0650    0.2310 C   0  0  0  0  0  0  0  0  0  0  0  0
  1  2  1  0
  2  3  1  0
  3  4  2  0
  3 34  1  0
  4  5  1  0
  5  6  1  0
  5 32  2  0
  6  7  2  3
  7  8  1  0
  7 30  1  0
  8  9  1  0
  9 10  2  0
 10 11  1  0
 10 29  1  0
 11 12  2  0
 11 13  1  0
 13 14  1  0
 14 15  1  0
 15 16  1  0
 16 17  2  0
 16 18  1  0
 18 19  1  0
 18 27  1  0
 19 20  1  0
 20 21  1  0
 21 22  1  0
 21 26  1  0
 22 23  1  0
 23 24  1  0
 23 25  2  0
 26 27  1  0
 27 28  1  6
 29 30  2  0
 30 31  1  0
 32 33  1  0
 33 34  2  0
 34 35  1  0
M  CHG  1   6   1
M  END
