
     RDKit          3D

 35 37  0  0  0  0  0  0  0  0999 V2000
   -6.7440   -3.0050    2.2360 C   0  0  0  0  0  0  0  0  0  0  0  0
   -5.9610   -2.4600    1.3000 C   0  0  0  0  0  0  0  0  0  0  0  0
   -5.1480   -3.0700    0.3470 N   0  0  0  0  0  0  0  0  0  0  0  0
   -4.5330   -2.1850   -0.3930 C   0  0  0  0  0  0  0  0  0  0  0  0
   -3.5840   -2.3350   -1.5170 C   0  0  0  0  0  0  0  0  0  0  0  0
   -2.6690   -1.1850   -1.7360 C   0  0  2  0  0  0  0  0  0  0  0  0
   -1.6560   -1.1760   -0.7200 N   0  0  0  0  0  0  0  0  0  0  0  0
   -0.4740   -0.3900   -0.7260 C   0  0  0  0  0  0  0  0  0  0  0  0
   -0.1290    0.4270   -1.7670 C   0  0  0  0  0  0  0  0  0  0  0  0
    1.0370    1.1820   -1.7010 C   0  0  0  0  0  0  0  0  0  0  0  0
    1.8500    1.1140   -0.5910 C   0  0  0  0  0  0  0  0  0  0  0  0
    1.4830    0.2840    0.4450 C   0  0  0  0  0  0  0  0  0  0  0  0
    2.3290    0.1610    1.6770 C   0  0  0  0  0  0  0  0  0  0  0  0
    3.0830   -1.0700    1.7150 N   0  0  0  0  0  0  0  0  0  0  0  0
    4.2580   -1.2300    0.9000 C   0  0  0  0  0  0  0  0  0  0  0  0
    4.5550   -0.2560    0.1890 O   0  0  0  0  0  0  0  0  0  0  0  0
    5.0080   -2.4260    0.9250 N   0  0  0  0  0  0  0  0  0  0  0  0
    6.1790   -2.7280    0.2070 C   0  0  0  0  0  0  0  0  0  0  0  0
    7.4100   -1.9420    0.4410 C   0  0  0  0  0  0  0  0  0  0  0  0
    7.2400   -0.2240   -0.0130 S   0  0  0  0  0  0  0  0  0  0  0  0
    7.0410   -0.0830   -1.5330 O   0  0  0  0  0  0  0  0  0  0  0  0
    8.7870    0.6740    0.3210 C   0  0  0  0  0  0  0  0  0  0  0  0
    8.6410    2.0920   -0.0570 C   0  0  0  0  0  0  0  0  0  0  0  0
    8.1530    3.1040    0.8960 C   0  0  0  0  0  0  0  0  0  0  0  0
    8.9350    2.4480   -1.2050 O   0  0  0  0  0  0  0  0  0  0  0  0
    0.3460   -0.4190    0.3210 N   0  0  0  0  0  0  0  0  0  0  0  0
   -3.4040    0.1410   -1.7050 C   0  0  0  0  0  0  0  0  0  0  0  0
   -4.3740    0.2090   -0.5900 C   0  0  0  0  0  0  0  0  0  0  0  0
   -4.7600    1.5010   -0.1580 N   0  0  0  0  0  0  0  0  0  0  0  0
   -5.7100    2.3350   -0.8250 C   0  0  2  0  0  0  0  0  0  0  0  0
   -5.3270    2.6950   -2.2340 C   0  0  0  0  0  0  0  0  0  0  0  0
   -6.0190    3.5350    0.0320 C   0  0  0  0  0  0  0  0  0  0  0  0
   -4.8990   -0.8320    0.0210 C   0  0  0  0  0  0  0  0  0  0  0  0
   -5.8320   -1.0240    1.1270 C   0  0  0  0  0  0  0  0  0  0  0  0
   -6.4190   -0.0550    1.8060 C   0  0  0  0  0  0  0  0  0  0  0  0
  1  2  2  0
  2  3  1  0
  2 34  1  0
  3  4  2  0
  4  5  1  0
  4 33  1  0
  5  6  1  0
  6  7  1  1
  6 27  1  0
  7  8  1  0
  8  9  2  0
  8 26  1  0
  9 10  1  0
 10 11  2  0
 11 12  1  0
 12 13  1  0
 12 26  2  0
 13 14  1  0
 14 15  1  0
 15 16  2  0
 15 17  1  0
 17 18  1  0
 18 19  1  0
 20 19  1  6
 20 21  2  0
 20 22  1  0
 22 23  1  0
 23 24  1  0
 23 25  2  0
 27 28  1  0
 28 29  1  0
 28 33  2  0
 29 30  1  0
 30 31  1  6
 30 32  1  0
 33 34  1  0
 34 35  2  0
M  CHG  1   3   1
M  END
