
     RDKit          3D

 35 37  0  0  0  0  0  0  0  0999 V2000
   -8.5120    0.4170    1.7110 C   0  0  0  0  0  0  0  0  0  0  0  0
   -8.0380   -0.9550    1.6820 N   0  0  0  0  0  0  0  0  0  0  0  0
   -7.1560   -1.1380    0.5140 C   0  0  0  0  0  0  0  0  0  0  0  0
   -7.9410   -0.9420   -0.7200 C   0  0  0  0  0  0  0  0  0  0  0  0
   -7.2740   -1.1320   -2.0150 C   0  0  0  0  0  0  0  0  0  0  0  0
   -6.1480   -0.3640   -2.3710 N   0  0  0  0  0  0  0  0  0  0  0  0
   -4.8570   -0.3560   -1.8100 C   0  0  0  0  0  0  0  0  0  0  0  0
   -4.5710   -1.1170   -0.8710 O   0  0  0  0  0  0  0  0  0  0  0  0
   -3.8340    0.5700   -2.3480 C   0  0  0  0  0  0  0  0  0  0  0  0
   -2.5400    0.4560   -1.6710 C   0  0  0  0  0  0  0  0  0  0  0  0
   -2.0130    1.4820   -1.0460 C   0  0  0  0  0  0  0  0  0  0  0  0
   -2.7630    3.1060   -0.9330 S   0  0  0  0  0  0  0  0  0  0  0  0
   -1.6540    3.8110    0.3560 C   0  0  0  0  0  0  0  0  0  0  0  0
   -1.0440    2.5240    0.9010 C   0  0  0  0  0  0  0  0  0  0  0  0
   -0.7360    1.6410   -0.2880 C   0  0  1  0  0  0  0  0  0  0  0  0
   -0.2220    0.3980    0.1940 N   0  0  0  0  0  0  0  0  0  0  0  0
    1.0470   -0.1390   -0.1160 C   0  0  0  0  0  0  0  0  0  0  0  0
    1.8040    0.5130   -0.8770 O   0  0  0  0  0  0  0  0  0  0  0  0
    1.5370   -1.4370    0.4080 C   0  0  2  0  0  0  0  0  0  0  0  0
    0.5520   -2.5250    0.0810 C   0  0  0  0  0  0  0  0  0  0  0  0
    1.5390   -1.3040    1.9370 C   0  0  0  0  0  0  0  0  0  0  0  0
    2.8660   -1.7430   -0.0590 N   0  0  0  0  0  0  0  0  0  0  0  0
    3.9690   -0.8730    0.2400 C   0  0  0  0  0  0  0  0  0  0  0  0
    3.7060    0.1270    0.9070 O   0  0  0  0  0  0  0  0  0  0  0  0
    5.2770   -1.1430   -0.2000 N   0  0  0  0  0  0  0  0  0  0  0  0
    6.4020   -0.3470    0.0530 C   0  0  0  0  0  0  0  0  0  0  0  0
    6.4580    0.7960    0.7970 C   0  0  0  0  0  0  0  0  0  0  0  0
    7.6360    1.5070    0.9780 C   0  0  0  0  0  0  0  0  0  0  0  0
    8.8090    1.0850    0.4080 C   0  0  0  0  0  0  0  0  0  0  0  0
    9.9520    1.7770    0.5840 N   0  0  0  0  0  0  0  0  0  0  0  0
   11.1090    1.4020    0.0490 C   0  0  0  0  0  0  0  0  0  0  0  0
   11.1230    0.2460   -0.7210 C   0  0  0  0  0  0  0  0  0  0  0  0
    9.9630   -0.4850   -0.9180 C   0  0  0  0  0  0  0  0  0  0  0  0
    8.7910   -0.0600   -0.3460 C   0  0  0  0  0  0  0  0  0  0  0  0
    7.6190   -0.7500   -0.5150 C   0  0  0  0  0  0  0  0  0  0  0  0
  1  2  1  0
  2  3  1  0
  3  4  1  0
  4  5  1  0
  5  6  1  0
  6  7  1  0
  7  8  2  0
  7  9  1  0
  9 10  1  0
 10 11  2  3
 11 12  1  0
 11 15  1  0
 12 13  1  0
 13 14  1  0
 14 15  1  0
 15 16  1  1
 16 17  1  0
 17 18  2  0
 17 19  1  0
 19 20  1  1
 19 21  1  0
 19 22  1  0
 22 23  1  0
 23 24  2  0
 23 25  1  0
 25 26  1  0
 26 27  2  0
 26 35  1  0
 27 28  1  0
 28 29  2  0
 29 30  1  0
 29 34  1  0
 30 31  2  0
 31 32  1  0
 32 33  2  0
 33 34  1  0
 34 35  2  0
M  CHG  1   2   1
M  END
