
     RDKit          3D

 35 37  0  0  0  0  0  0  0  0999 V2000
    9.2550    0.3500   -2.4760 C   0  0  0  0  0  0  0  0  0  0  0  0
    8.0010   -0.1970   -1.9030 C   0  0  0  0  0  0  0  0  0  0  0  0
    7.9410   -0.8970   -0.7880 C   0  0  0  0  0  0  0  0  0  0  0  0
    9.1770   -1.2090    0.0200 C   0  0  0  0  0  0  0  0  0  0  0  0
    8.7150   -1.7830    1.2490 N   0  0  0  0  0  0  0  0  0  0  0  0
    7.3220   -1.4160    1.3930 C   0  0  0  0  0  0  0  0  0  0  0  0
    6.8330   -1.5160   -0.0640 C   0  0  1  0  0  0  0  0  0  0  0  0
    5.5330   -0.8060   -0.2010 C   0  0  0  0  0  0  0  0  0  0  0  0
    5.3780    0.2490   -0.8570 O   0  0  0  0  0  0  0  0  0  0  0  0
    4.4050   -1.3700    0.4590 N   0  0  0  0  0  0  0  0  0  0  0  0
    3.1300   -0.7840    0.4060 N   0  0  0  0  0  0  0  0  0  0  0  0
    2.5210   -0.2030    1.5370 C   0  0  0  0  0  0  0  0  0  0  0  0
    3.1370   -0.2140    2.6090 O   0  0  0  0  0  0  0  0  0  0  0  0
    1.1390    0.4150    1.4110 C   0  0  0  0  0  0  0  0  0  0  0  0
    0.2900    0.6220    0.6930 N   0  0  0  0  0  0  0  0  0  0  0  0
   -0.8740    1.2180    0.8570 C   0  0  0  0  0  0  0  0  0  0  0  0
   -1.9510    1.4510   -0.1920 C   0  0  0  0  0  0  0  0  0  0  0  0
   -3.1990    1.7840    0.4430 N   0  0  0  0  0  0  0  0  0  0  0  0
   -3.8210    0.8200    1.1890 C   0  0  0  0  0  0  0  0  0  0  0  0
   -4.5500   -0.2480    0.5230 C   0  0  0  0  0  0  0  0  0  0  0  0
   -4.8820   -0.4560   -0.7100 C   0  0  0  0  0  0  0  0  0  0  0  0
   -4.5650    0.4550   -1.8490 C   0  0  0  0  0  0  0  0  0  0  0  0
   -5.6150   -1.6790   -1.1120 C   0  0  0  0  0  0  0  0  0  0  0  0
   -5.9680   -1.8710   -2.4250 C   0  0  0  0  0  0  0  0  0  0  0  0
   -6.6560   -3.0060   -2.8560 C   0  0  0  0  0  0  0  0  0  0  0  0
   -7.0020   -3.9830   -1.9470 C   0  0  0  0  0  0  0  0  0  0  0  0
   -6.6470   -3.7880   -0.6320 C   0  0  0  0  0  0  0  0  0  0  0  0
   -5.9540   -2.6380   -0.2160 C   0  0  0  0  0  0  0  0  0  0  0  0
   -3.4260    3.1560    0.6060 C   0  0  0  0  0  0  0  0  0  0  0  0
   -4.5660    3.6430    1.3970 C   0  0  0  0  0  0  0  0  0  0  0  0
   -5.9180    3.2750    0.9490 C   0  0  0  0  0  0  0  0  0  0  0  0
   -7.0480    3.8330    1.6430 N   0  0  0  0  0  0  0  0  0  0  0  0
   -6.1740    2.5080    0.0010 O   0  0  0  0  0  0  0  0  0  0  0  0
   -1.0760    1.6670    2.1570 C   0  0  0  0  0  0  0  0  0  0  0  0
    0.4700    1.1670    3.0160 S   0  0  0  0  0  0  0  0  0  0  0  0
  1  2  1  0
  2  3  2  3
  3  4  1  0
  3  7  1  0
  4  5  1  0
  5  6  1  0
  6  7  1  0
  7  8  1  1
  8  9  2  0
  8 10  1  0
 10 11  1  0
 11 12  1  0
 12 13  2  0
 12 14  1  0
 14 15  2  0
 14 35  1  0
 15 16  1  0
 16 17  1  0
 16 34  2  0
 17 18  1  0
 18 19  1  0
 18 29  1  0
 19 20  1  0
 20 21  2  3
 21 22  1  0
 21 23  1  0
 23 24  2  0
 23 28  1  0
 24 25  1  0
 25 26  2  0
 26 27  1  0
 27 28  2  0
 29 30  1  0
 30 31  1  0
 31 32  1  0
 31 33  2  0
 34 35  1  0
M  CHG  1   5   1
M  END
