
     RDKit          3D

 35 37  0  0  0  0  0  0  0  0999 V2000
    6.1380    2.9770    2.4830 C   0  0  0  0  0  0  0  0  0  0  0  0
    5.1710    2.1470    1.6700 C   0  0  2  0  0  0  0  0  0  0  0  0
    4.2240    1.3810    2.5660 C   0  0  0  0  0  0  0  0  0  0  0  0
    3.7240    0.1860    1.9160 N   0  0  0  0  0  0  0  0  0  0  0  0
    3.9340   -0.0740    0.5330 C   0  0  0  0  0  0  0  0  0  0  0  0
    5.0680    0.4270   -0.0780 C   0  0  0  0  0  0  0  0  0  0  0  0
    5.3440    0.2230   -1.4230 C   0  0  0  0  0  0  0  0  0  0  0  0
    4.4300   -0.5120   -2.1440 C   0  0  0  0  0  0  0  0  0  0  0  0
    3.2920   -1.0260   -1.5710 C   0  0  0  0  0  0  0  0  0  0  0  0
    3.0230   -0.8180   -0.2280 C   0  0  0  0  0  0  0  0  0  0  0  0
    1.6290   -1.4630    0.5980 S   0  0  1  0  0  0  0  0  0  0  0  0
    2.1470   -2.5800    1.5110 O   0  0  0  0  0  0  0  0  0  0  0  0
    1.0240   -0.4640    1.5400 O   0  0  0  0  0  0  0  0  0  0  0  0
    0.5500   -2.1870   -0.4640 N   0  0  0  0  0  0  0  0  0  0  0  0
   -0.7830   -1.6000   -0.5300 C   0  0  1  0  0  0  0  0  0  0  0  0
   -1.1400   -1.1380   -1.8930 C   0  0  0  0  0  0  0  0  0  0  0  0
   -0.2620   -0.0480   -2.4640 C   0  0  0  0  0  0  0  0  0  0  0  0
   -0.2750    1.1890   -1.6310 C   0  0  0  0  0  0  0  0  0  0  0  0
    0.5640    2.2040   -2.2200 N   0  0  0  0  0  0  0  0  0  0  0  0
    0.0970    3.3670   -2.4880 C   0  0  0  0  0  0  0  0  0  0  0  0
    0.9180    4.3630   -3.0650 N   0  0  0  0  0  0  0  0  0  0  0  0
   -1.2630    3.6390   -2.1960 N   0  0  0  0  0  0  0  0  0  0  0  0
   -1.7970   -2.5560   -0.0410 C   0  0  0  0  0  0  0  0  0  0  0  0
   -1.4700   -3.7990    0.1170 O   0  0  0  0  0  0  0  0  0  0  0  0
   -3.1290   -2.2540    0.2910 N   0  0  0  0  0  0  0  0  0  0  0  0
   -4.0630   -3.3030    0.7190 C   0  0  0  0  0  0  0  0  0  0  0  0
   -4.8750   -2.8890    1.9210 C   0  0  0  0  0  0  0  0  0  0  0  0
   -5.4810   -1.5040    1.6980 C   0  0  1  0  0  0  0  0  0  0  0  0
   -6.3830   -1.1620    2.8480 C   0  0  0  0  0  0  0  0  0  0  0  0
   -4.2960   -0.5580    1.6120 C   0  0  0  0  0  0  0  0  0  0  0  0
   -3.6090   -0.8890    0.2640 C   0  0  2  0  0  0  0  0  0  0  0  0
   -4.6990   -0.7350   -0.7370 C   0  0  0  0  0  0  0  0  0  0  0  0
   -5.2110    0.4110   -0.8480 O   0  0  0  0  0  0  0  0  0  0  0  0
   -5.1640   -1.7740   -1.5330 O   0  0  0  0  0  0  0  0  0  0  0  0
    5.9990    1.2130    0.8080 C   0  0  0  0  0  0  0  0  0  0  0  0
  2  1  1  1
  2  3  1  0
  2 35  1  0
  3  4  1  0
  4  5  1  0
  5  6  2  0
  5 10  1  0
  6  7  1  0
  6 35  1  0
  7  8  2  0
  8  9  1  0
  9 10  2  0
 10 11  1  0
 11 12  2  0
 11 13  2  0
 11 14  1  6
 14 15  1  0
 15 16  1  6
 15 23  1  0
 16 17  1  0
 17 18  1  0
 18 19  1  0
 19 20  2  3
 20 21  1  0
 20 22  1  0
 23 24  2  0
 23 25  1  0
 25 26  1  0
 25 31  1  0
 26 27  1  0
 27 28  1  0
 28 29  1  1
 28 30  1  0
 30 31  1  0
 31 32  1  6
 32 33  2  0
 32 34  1  0
M  CHG  1  19   1
M  END
