
     RDKit          3D

 25 28  0  0  0  0  0  0  0  0999 V2000
   -3.9850   -3.7730    1.0460 C   0  0  0  0  0  0  0  0  0  0  0  0
   -3.0630   -2.6150    0.7620 C   0  0  0  0  0  0  0  0  0  0  0  0
   -1.6950   -2.6510    0.5990 C   0  0  0  0  0  0  0  0  0  0  0  0
   -1.2130   -1.3850    0.3540 C   0  0  0  0  0  0  0  0  0  0  0  0
    0.1270   -0.9520    0.1250 N   0  0  0  0  0  0  0  0  0  0  0  0
    1.2560   -1.8000    0.1120 C   0  0  0  0  0  0  0  0  0  0  0  0
    1.0890   -3.0330    0.3140 O   0  0  0  0  0  0  0  0  0  0  0  0
    2.6290   -1.3000   -0.1300 C   0  0  0  0  0  0  0  0  0  0  0  0
    3.7760   -2.0620   -0.1590 C   0  0  0  0  0  0  0  0  0  0  0  0
    4.7860   -1.2190   -0.4070 N   0  0  0  0  0  0  0  0  0  0  0  0
    4.3060    0.0000   -0.5280 N   0  0  0  0  0  0  0  0  0  0  0  0
    5.0300    1.1210   -0.7820 C   0  0  0  0  0  0  0  0  0  0  0  0
    4.3430    2.3110   -0.8730 C   0  0  0  0  0  0  0  0  0  0  0  0
    2.9670    2.3270   -0.7060 C   0  0  0  0  0  0  0  0  0  0  0  0
    2.3110    1.1800   -0.4570 N   0  0  0  0  0  0  0  0  0  0  0  0
    2.9740    0.0080   -0.3650 C   0  0  0  0  0  0  0  0  0  0  0  0
   -2.3180   -0.5930    0.3720 N   0  0  0  0  0  0  0  0  0  0  0  0
   -2.2470    0.8270    0.1540 C   0  0  0  0  0  0  0  0  0  0  0  0
   -2.5330    1.3290   -1.1110 C   0  0  0  0  0  0  0  0  0  0  0  0
   -2.4720    2.6860   -1.3440 C   0  0  0  0  0  0  0  0  0  0  0  0
   -2.1300    3.5890   -0.3510 C   0  0  0  0  0  0  0  0  0  0  0  0
   -1.8510    3.0640    0.8960 C   0  0  0  0  0  0  0  0  0  0  0  0
   -1.4180    4.1830    2.1640 Cl  0  0  0  0  0  0  0  0  0  0  0  0
   -1.9040    1.7070    1.1600 C   0  0  0  0  0  0  0  0  0  0  0  0
   -3.3860   -1.3220    0.6110 N   0  0  0  0  0  0  0  0  0  0  0  0
  1  2  1  0
  2  3  1  0
  2 25  2  0
  3  4  2  0
  4  5  1  0
  4 17  1  0
  5  6  1  0
  6  7  2  0
  6  8  1  0
  8  9  1  0
  8 16  2  0
  9 10  2  0
 10 11  1  0
 11 12  1  0
 11 16  1  0
 12 13  2  0
 13 14  1  0
 14 15  2  0
 15 16  1  0
 17 18  1  0
 17 25  1  0
 18 19  2  0
 18 24  1  0
 19 20  1  0
 20 21  2  0
 21 22  1  0
 22 23  1  0
 22 24  2  0
M  END
