
     RDKit          3D

 15 16  0  0  0  0  0  0  0  0999 V2000
    2.1700    1.7760   -2.4550 N   0  0  0  0  0  0  0  0  0  0  0  0
    1.8990    1.1960   -1.4910 C   0  0  0  0  0  0  0  0  0  0  0  0
    1.5300    0.4670   -0.2590 C   0  0  1  0  0  0  0  0  0  0  0  0
    0.2360    0.8120    0.1570 N   0  0  0  0  0  0  0  0  0  0  0  0
   -0.2830    0.2100    1.3150 C   0  0  0  0  0  0  0  0  0  0  0  0
   -1.0920   -1.0280    1.1100 C   0  0  0  0  0  0  0  0  0  0  0  0
   -2.5980   -0.7450    1.1580 C   0  0  0  0  0  0  0  0  0  0  0  0
   -3.0330   -0.1550   -0.4760 S   0  0  1  0  0  0  0  0  0  0  0  0
   -2.5750   -1.1870   -1.4690 O   0  0  0  0  0  0  0  0  0  0  0  0
   -4.4730    0.1710   -0.5900 O   0  0  0  0  0  0  0  0  0  0  0  0
   -1.9990    1.2920   -0.7490 C   0  0  0  0  0  0  0  0  0  0  0  0
   -0.6270    0.7800   -0.9970 C   0  0  0  0  0  0  0  0  0  0  0  0
    1.8020   -1.0220   -0.5050 C   0  0  0  0  0  0  0  0  0  0  0  0
    3.2660   -0.6270   -0.2460 C   0  0  0  0  0  0  0  0  0  0  0  0
    2.6620    0.4410    0.6850 C   0  0  0  0  0  0  0  0  0  0  0  0
  1  2  3  0
  3  2  1  6
  3  4  1  0
  3 13  1  0
  3 15  1  0
  4  5  1  0
  4 12  1  0
  5  6  1  0
  6  7  1  0
  8  7  1  1
  8  9  2  0
  8 10  2  0
  8 11  1  0
 11 12  1  0
 13 14  1  0
 14 15  1  0
M  END
