
     RDKit          3D

 16 17  0  0  0  0  0  0  0  0999 V2000
    0.9230    0.3550    2.8810 O   0  0  0  0  0  0  0  0  0  0  0  0
    1.4760    0.4160    1.7390 C   0  0  0  0  0  0  0  0  0  0  0  0
    2.5520    1.3980    1.4390 C   0  0  0  0  0  0  0  0  0  0  0  0
    3.5870    0.6680    0.8260 O   0  0  0  0  0  0  0  0  0  0  0  0
    3.1720    0.2840   -0.4410 C   0  0  0  0  0  0  0  0  0  0  0  0
    2.0050   -0.6380   -0.4390 C   0  0  0  0  0  0  0  0  0  0  0  0
    1.1000   -0.4530    0.6770 N   0  0  0  0  0  0  0  0  0  0  0  0
   -0.1570   -1.1360    0.7090 C   0  0  0  0  0  0  0  0  0  0  0  0
   -1.2530   -0.3290    0.0550 C   0  0  0  0  0  0  0  0  0  0  0  0
   -0.9470    0.8350   -0.4370 C   0  0  0  0  0  0  0  0  0  0  0  0
   -1.8470    1.7900   -1.1160 C   0  0  0  0  0  0  0  0  0  0  0  0
   -3.5890    1.4070   -0.8360 S   0  0  0  0  0  0  0  0  0  0  0  0
   -3.6650   -0.3170   -0.5310 N   0  0  0  0  0  0  0  0  0  0  0  0
   -2.5670   -0.9590    0.0460 C   0  0  0  0  0  0  0  0  0  0  0  0
   -2.7400   -2.1750    0.5960 C   0  0  0  0  0  0  0  0  0  0  0  0
   -3.9480   -2.7630    0.5920 F   0  0  0  0  0  0  0  0  0  0  0  0
  1  2  2  0
  2  3  1  0
  2  7  1  0
  3  4  1  0
  4  5  1  0
  5  6  1  0
  6  7  1  0
  7  8  1  0
  8  9  1  0
  9 10  2  0
  9 14  1  0
 10 11  1  0
 11 12  1  0
 12 13  1  0
 13 14  1  0
 14 15  2  3
 15 16  1  0
M  END
