
     RDKit          3D

 15 17  0  0  0  0  0  0  0  0999 V2000
   -3.3910   -0.4890   -0.1150 C   0  0  0  0  0  0  0  0  0  0  0  0
   -2.1800    0.3840    0.1290 C   0  0  0  0  0  0  0  0  0  0  0  0
   -0.9540   -0.1090    0.0500 C   0  0  0  0  0  0  0  0  0  0  0  0
    0.2140    0.5890    0.2530 C   0  0  0  0  0  0  0  0  0  0  0  0
    1.4760    0.0340    0.1580 C   0  0  0  0  0  0  0  0  0  0  0  0
    1.5990   -1.3000   -0.1580 C   0  0  0  0  0  0  0  0  0  0  0  0
    0.4710   -2.0050   -0.3600 N   0  0  0  0  0  0  0  0  0  0  0  0
   -0.7740   -1.4630   -0.2680 C   0  0  0  0  0  0  0  0  0  0  0  0
   -1.7880   -2.1520   -0.4640 O   0  0  0  0  0  0  0  0  0  0  0  0
    2.8810   -1.6110   -0.1930 C   0  0  0  0  0  0  0  0  0  0  0  0
    3.6890   -0.4840    0.1010 N   0  0  0  0  0  0  0  0  0  0  0  0
    2.8120    0.6410    0.3430 C   0  0  0  0  0  0  0  0  0  0  0  0
    0.1110    2.3280    0.6650 S   0  0  0  0  0  0  0  0  0  0  0  0
   -1.5630    2.8020    0.0820 C   0  0  0  0  0  0  0  0  0  0  0  0
   -2.3860    1.7100    0.4360 O   0  0  0  0  0  0  0  0  0  0  0  0
  1  2  1  0
  2  3  2  0
  2 15  1  0
  3  4  1  0
  3  8  1  0
  4  5  2  0
  4 13  1  0
  5  6  1  0
  5 12  1  0
  6  7  1  0
  6 10  2  0
  7  8  1  0
  8  9  2  0
 10 11  1  0
 11 12  1  0
 13 14  1  0
 14 15  1  0
M  END
