
     RDKit          3D

 15 17  0  0  0  0  0  0  0  0999 V2000
    1.5780    2.2330   -0.3610 C   0  0  0  0  0  0  0  0  0  0  0  0
    2.8830    1.8430   -0.2560 C   0  0  0  0  0  0  0  0  0  0  0  0
    3.2620    0.5430   -0.0090 C   0  0  0  0  0  0  0  0  0  0  0  0
    2.2640   -0.3930    0.1350 C   0  0  0  0  0  0  0  0  0  0  0  0
    0.9220   -0.0000    0.0280 C   0  0  0  0  0  0  0  0  0  0  0  0
    0.5360    1.2960   -0.2180 C   0  0  0  0  0  0  0  0  0  0  0  0
   -1.1430    1.8340   -0.3590 S   0  0  0  0  0  0  0  0  0  0  0  0
   -2.2820    0.4960   -0.1460 C   0  0  0  0  0  0  0  0  0  0  0  0
   -2.0750   -0.7400    0.0830 N   0  0  0  0  0  0  0  0  0  0  0  0
   -3.2780   -1.5110    0.1920 C   0  0  0  0  0  0  0  0  0  0  0  0
   -4.3340   -0.4590    0.3270 C   0  0  0  0  0  0  0  0  0  0  0  0
   -3.7170    0.7180   -0.2240 N   0  0  0  0  0  0  0  0  0  0  0  0
    2.8930   -1.6040    0.3720 O   0  0  0  0  0  0  0  0  0  0  0  0
    4.2630   -1.5190   -0.0410 C   0  0  0  0  0  0  0  0  0  0  0  0
    4.4840   -0.1130    0.1420 O   0  0  0  0  0  0  0  0  0  0  0  0
  1  2  2  0
  1  6  1  0
  2  3  1  0
  3  4  2  0
  3 15  1  0
  4  5  1  0
  4 13  1  0
  5  6  2  0
  6  7  1  0
  7  8  1  0
  8  9  2  0
  8 12  1  0
  9 10  1  0
 10 11  1  0
 11 12  1  0
 13 14  1  0
 14 15  1  0
M  END
