
     RDKit          3D

 16 17  0  0  0  0  0  0  0  0999 V2000
   -3.9070   -2.2640    1.1050 O   0  0  0  0  0  0  0  0  0  0  0  0
   -3.2550   -1.0790    0.6580 C   0  0  0  0  0  0  0  0  0  0  0  0
   -1.9860   -1.1980    0.3900 C   0  0  0  0  0  0  0  0  0  0  0  0
   -1.2450   -2.4260    0.5220 N   0  0  0  0  0  0  0  0  0  0  0  0
   -0.0430   -2.3250    0.2380 C   0  0  0  0  0  0  0  0  0  0  0  0
    0.2980   -0.9380   -0.1690 C   0  0  0  0  0  0  0  0  0  0  0  0
    1.4970   -0.5620   -0.4930 C   0  0  0  0  0  0  0  0  0  0  0  0
    2.1740    0.5890   -0.9170 N   0  0  0  0  0  0  0  0  0  0  0  0
    3.2820    0.8770   -0.0420 C   0  0  0  0  0  0  0  0  0  0  0  0
    4.1860   -0.3480   -0.0620 C   0  0  0  0  0  0  0  0  0  0  0  0
    2.9860   -1.6840   -0.3550 S   0  0  0  0  0  0  0  0  0  0  0  0
   -0.9850   -0.2160   -0.0620 C   0  0  0  0  0  0  0  0  0  0  0  0
   -1.1590    1.0310   -0.3400 C   0  0  0  0  0  0  0  0  0  0  0  0
   -0.0410    1.7620   -0.7390 F   0  0  0  0  0  0  0  0  0  0  0  0
   -2.3830    1.8490   -0.3720 C   0  0  0  0  0  0  0  0  0  0  0  0
   -2.3130    2.9140    0.5430 O   0  0  0  0  0  0  0  0  0  0  0  0
  1  2  1  0
  2  3  2  3
  3  4  1  0
  3 12  1  0
  4  5  2  0
  5  6  1  0
  6  7  2  3
  6 12  1  0
  7  8  1  0
  7 11  1  0
  8  9  1  0
  9 10  1  0
 10 11  1  0
 12 13  2  3
 13 14  1  0
 13 15  1  0
 15 16  1  0
M  END
