
     RDKit          3D

 32 36  0  0  0  0  0  0  0  0999 V2000
    8.8420    0.4680    1.1550 C   0  0  0  0  0  0  0  0  0  0  0  0
    7.4370    0.6980    0.9450 N   0  0  0  0  0  0  0  0  0  0  0  0
    6.7480    1.8310    0.8380 C   0  0  0  0  0  0  0  0  0  0  0  0
    5.4230    1.5740    0.5850 C   0  0  0  0  0  0  0  0  0  0  0  0
    4.2740    2.4520    0.5650 C   0  0  0  0  0  0  0  0  0  0  0  0
    3.1850    2.3120   -0.1850 C   0  0  0  0  0  0  0  0  0  0  0  0
    3.1970    1.1410   -1.1210 C   0  0  0  0  0  0  0  0  0  0  0  0
    4.3780    0.8600   -1.7710 N   0  0  0  0  0  0  0  0  0  0  0  0
    4.5420   -0.2400   -2.5160 C   0  0  0  0  0  0  0  0  0  0  0  0
    3.5360   -1.1450   -2.6720 C   0  0  0  0  0  0  0  0  0  0  0  0
    2.3190   -0.8900   -2.0280 C   0  0  0  0  0  0  0  0  0  0  0  0
    1.2830   -1.8100   -2.1620 C   0  0  0  0  0  0  0  0  0  0  0  0
    0.0940   -1.5440   -1.5170 C   0  0  0  0  0  0  0  0  0  0  0  0
   -1.0200   -2.4630   -1.6170 C   0  0  0  0  0  0  0  0  0  0  0  0
   -1.3400   -3.1230   -0.3370 N   0  0  0  0  0  0  0  0  0  0  0  0
   -0.0510   -0.3820   -0.7640 C   0  0  0  0  0  0  0  0  0  0  0  0
   -1.3840   -0.1760   -0.2590 C   0  0  0  0  0  0  0  0  0  0  0  0
   -1.6880   -0.0270    1.0360 C   0  0  0  0  0  0  0  0  0  0  0  0
   -3.0100    0.1660    1.4260 C   0  0  0  0  0  0  0  0  0  0  0  0
   -3.9820    0.1970    0.4600 C   0  0  0  0  0  0  0  0  0  0  0  0
   -5.3800    0.3650    0.6900 N   0  0  0  0  0  0  0  0  0  0  0  0
   -6.1950   -0.7980    0.8610 C   0  0  0  0  0  0  0  0  0  0  0  0
   -5.8990   -1.5480    2.0690 N   0  0  0  0  0  0  0  0  0  0  0  0
   -5.8780    1.7050    0.7260 C   0  0  2  0  0  0  0  0  0  0  0  0
   -6.4750    2.3420    1.9260 C   0  0  0  0  0  0  0  0  0  0  0  0
   -7.3620    1.8900    0.7700 C   0  0  0  0  0  0  0  0  0  0  0  0
   -3.6610    0.0440   -0.8690 N   0  0  0  0  0  0  0  0  0  0  0  0
   -2.3960   -0.1360   -1.2260 C   0  0  0  0  0  0  0  0  0  0  0  0
    0.9630    0.5030   -0.6320 C   0  0  0  0  0  0  0  0  0  0  0  0
    2.1760    0.2560   -1.2630 C   0  0  0  0  0  0  0  0  0  0  0  0
    5.3560    0.1780    0.5480 C   0  0  0  0  0  0  0  0  0  0  0  0
    6.5920   -0.3130    0.7630 N   0  0  0  0  0  0  0  0  0  0  0  0
  1  2  1  0
  2  3  1  0
  2 32  1  0
  3  4  2  0
  4  5  1  0
  4 31  1  0
  5  6  2  3
  6  7  1  0
  7  8  2  0
  7 30  1  0
  8  9  1  0
  9 10  2  0
 10 11  1  0
 11 12  2  0
 11 30  1  0
 12 13  1  0
 13 14  1  0
 13 16  2  0
 14 15  1  0
 16 17  1  0
 16 29  1  0
 17 18  2  0
 17 28  1  0
 18 19  1  0
 19 20  2  0
 20 21  1  0
 20 27  1  0
 21 22  1  0
 24 21  1  1
 22 23  1  0
 24 25  1  0
 24 26  1  0
 25 26  1  0
 27 28  2  0
 29 30  2  0
 31 32  2  0
M  CHG  1  15   1
M  END
