
     RDKit          3D

 32 36  0  0  0  0  0  0  0  0999 V2000
    6.5820    5.5660    0.1530 C   0  0  0  0  0  0  0  0  0  0  0  0
    5.3230    5.4700    0.5410 C   0  0  0  0  0  0  0  0  0  0  0  0
    4.3670    4.6350   -0.2590 C   0  0  0  0  0  0  0  0  0  0  0  0
    3.8310    3.5740    0.5820 N   0  0  0  0  0  0  0  0  0  0  0  0
    2.9070    2.6570    0.0470 C   0  0  0  0  0  0  0  0  0  0  0  0
    2.4080    2.6040   -1.2080 N   0  0  0  0  0  0  0  0  0  0  0  0
    1.5690    1.6030   -1.3280 N   0  0  0  0  0  0  0  0  0  0  0  0
    1.5100    0.9770   -0.1240 C   0  0  0  0  0  0  0  0  0  0  0  0
    0.7240   -0.1930    0.2690 C   0  0  2  0  0  0  0  0  0  0  0  0
    1.3590   -1.4880   -0.2090 C   0  0  0  0  0  0  0  0  0  0  0  0
    0.4650   -2.6010   -0.0720 N   0  0  0  0  0  0  0  0  0  0  0  0
    0.9790   -3.8850    0.2510 C   0  0  0  0  0  0  0  0  0  0  0  0
    0.5560   -4.4850    1.4360 C   0  0  0  0  0  0  0  0  0  0  0  0
    1.0510   -5.7250    1.7520 C   0  0  0  0  0  0  0  0  0  0  0  0
    1.9460   -6.3550    0.9130 C   0  0  0  0  0  0  0  0  0  0  0  0
    2.3650   -5.7670   -0.2550 C   0  0  0  0  0  0  0  0  0  0  0  0
    1.8620   -4.5050   -0.5790 C   0  0  0  0  0  0  0  0  0  0  0  0
    2.3050   -3.9220   -1.7830 N   0  0  0  0  0  0  0  0  0  0  0  0
   -0.9780   -2.4840   -0.2460 C   0  0  0  0  0  0  0  0  0  0  0  0
   -1.3680   -1.1860    0.4750 C   0  0  0  0  0  0  0  0  0  0  0  0
   -0.6630   -0.1240   -0.2070 N   0  0  0  0  0  0  0  0  0  0  0  0
   -1.1790    1.1840    0.1410 C   0  0  0  0  0  0  0  0  0  0  0  0
   -2.6000    1.3510   -0.1980 C   0  0  0  0  0  0  0  0  0  0  0  0
   -2.9760    1.7730   -1.4690 C   0  0  0  0  0  0  0  0  0  0  0  0
   -4.3100    1.9310   -1.7820 C   0  0  0  0  0  0  0  0  0  0  0  0
   -5.3160    1.6840   -0.8740 C   0  0  0  0  0  0  0  0  0  0  0  0
   -4.9480    1.2650    0.3860 C   0  0  0  0  0  0  0  0  0  0  0  0
   -3.6140    1.1070    0.7030 C   0  0  0  0  0  0  0  0  0  0  0  0
   -6.1790    1.0710    1.1590 C   0  0  0  0  0  0  0  0  0  0  0  0
   -7.2330    1.3510    0.4230 C   0  0  0  0  0  0  0  0  0  0  0  0
   -6.7940    1.7620   -0.9220 C   0  0  0  0  0  0  0  0  0  0  0  0
    2.3410    1.6480    0.6930 N   0  0  0  0  0  0  0  0  0  0  0  0
  1  2  2  0
  2  3  1  0
  3  4  1  0
  4  5  1  0
  5  6  2  0
  5 32  1  0
  6  7  1  0
  7  8  1  0
  9  8  1  6
  8 32  2  0
  9 10  1  0
  9 21  1  0
 10 11  1  0
 11 12  1  0
 11 19  1  0
 12 13  2  0
 12 17  1  0
 13 14  1  0
 14 15  2  0
 15 16  1  0
 16 17  2  0
 17 18  1  0
 19 20  1  0
 20 21  1  0
 21 22  1  0
 22 23  1  0
 23 24  2  0
 23 28  1  0
 24 25  1  0
 25 26  2  0
 26 27  1  0
 26 31  1  0
 27 28  2  0
 27 29  1  0
 29 30  2  0
 30 31  1  0
M  CHG  1  18   1
M  END
