
     RDKit          3D

 33 34  0  0  0  0  0  0  0  0999 V2000
    5.9440   -3.6710   -1.4040 C   0  0  0  0  0  0  0  0  0  0  0  0
    4.7170   -3.1710   -0.7660 C   0  0  0  0  0  0  0  0  0  0  0  0
    4.3590   -1.8970   -0.7740 C   0  0  0  0  0  0  0  0  0  0  0  0
    3.2250   -1.4190   -0.1880 O   0  0  0  0  0  0  0  0  0  0  0  0
    2.2360   -0.6450   -0.8460 C   0  0  1  0  0  0  0  0  0  0  0  0
    1.7100   -1.4700   -1.9660 C   0  0  0  0  0  0  0  0  0  0  0  0
    2.1560   -2.6230   -2.1710 O   0  0  0  0  0  0  0  0  0  0  0  0
    0.7140   -1.0160   -2.8300 O   0  0  0  0  0  0  0  0  0  0  0  0
    1.0990   -0.4930    0.1210 C   0  0  0  0  0  0  0  0  0  0  0  0
    0.4530    0.9290   -0.0040 C   0  0  1  0  0  0  0  0  0  0  0  0
   -0.4340    0.9520    1.0410 O   0  0  0  0  0  0  0  0  0  0  0  0
   -1.7890    0.9370    0.6840 C   0  0  2  0  0  0  0  0  0  0  0  0
   -2.1120    2.1940   -0.0100 C   0  0  0  0  0  0  0  0  0  0  0  0
   -1.2690    3.0950   -0.1300 O   0  0  0  0  0  0  0  0  0  0  0  0
   -3.3820    2.3760   -0.5420 O   0  0  0  0  0  0  0  0  0  0  0  0
   -2.4870    0.8420    2.0560 C   0  0  0  0  0  0  0  0  0  0  0  0
   -3.9480    1.0040    1.8580 C   0  0  2  0  0  0  0  0  0  0  0  0
   -4.5670    0.8060    3.1240 O   0  0  0  0  0  0  0  0  0  0  0  0
   -4.4000   -0.0260    0.8500 C   0  0  2  0  0  0  0  0  0  0  0  0
   -5.1740   -0.9490    1.6080 O   0  0  0  0  0  0  0  0  0  0  0  0
   -3.3130   -0.7820    0.1830 C   0  0  1  0  0  0  0  0  0  0  0  0
   -3.8620   -1.3100   -1.1470 C   0  0  2  0  0  0  0  0  0  0  0  0
   -4.0560   -0.3110   -2.0830 O   0  0  0  0  0  0  0  0  0  0  0  0
   -5.0460   -2.1930   -1.0150 C   0  0  0  0  0  0  0  0  0  0  0  0
   -6.2230   -1.5900   -0.6560 O   0  0  0  0  0  0  0  0  0  0  0  0
   -2.1230   -0.1710   -0.0320 O   0  0  0  0  0  0  0  0  0  0  0  0
    1.6010    1.8450    0.3010 C   0  0  0  0  0  0  0  0  0  0  0  0
    2.7700    1.6300   -0.6340 C   0  0  1  0  0  0  0  0  0  0  0  0
    4.0670    1.8140    0.1350 C   0  0  2  0  0  0  0  0  0  0  0  0
    4.3310    0.8060    1.0230 O   0  0  0  0  0  0  0  0  0  0  0  0
    4.1290    3.1990    0.7250 C   0  0  0  0  0  0  0  0  0  0  0  0
    3.2440    3.4180    1.7520 O   0  0  0  0  0  0  0  0  0  0  0  0
    2.7090    0.5070   -1.3860 O   0  0  0  0  0  0  0  0  0  0  0  0
  1  2  1  0
  2  3  2  3
  3  4  1  0
  5  4  1  1
  5  6  1  0
  5  9  1  0
  5 33  1  0
  6  7  2  0
  6  8  1  0
  9 10  1  0
 10 11  1  1
 10 27  1  0
 12 11  1  1
 12 13  1  0
 12 16  1  0
 12 26  1  0
 13 14  2  0
 13 15  1  0
 16 17  1  0
 17 18  1  1
 17 19  1  0
 19 20  1  1
 19 21  1  0
 21 22  1  0
 21 26  1  6
 22 23  1  6
 22 24  1  0
 24 25  1  0
 28 27  1  1
 28 29  1  0
 28 33  1  0
 29 30  1  1
 29 31  1  0
 31 32  1  0
M  CHG  2   8  -1  15  -1
M  END
