
     RDKit          3D

 33 35  0  0  0  0  0  0  0  0999 V2000
    7.1620   -1.2750    1.0020 C   0  0  0  0  0  0  0  0  0  0  0  0
    6.0200   -0.6190    0.9610 C   0  0  0  0  0  0  0  0  0  0  0  0
    5.7090    0.3980    1.9570 C   0  0  0  0  0  0  0  0  0  0  0  0
    4.6430    1.0570    1.9820 N   0  0  0  0  0  0  0  0  0  0  0  0
    4.4050    2.0220    2.9680 O   0  0  0  0  0  0  0  0  0  0  0  0
    3.5810    0.9200    1.0520 N   0  0  0  0  0  0  0  0  0  0  0  0
    2.3350    1.5510    1.3370 C   0  0  0  0  0  0  0  0  0  0  0  0
    1.3290    0.8350    2.0990 C   0  0  0  0  0  0  0  0  0  0  0  0
    0.6790   -0.3990    1.6690 C   0  0  0  0  0  0  0  0  0  0  0  0
   -0.6420   -0.4600    0.9550 C   0  0  0  0  0  0  0  0  0  0  0  0
   -1.2680    0.6060    0.5830 C   0  0  0  0  0  0  0  0  0  0  0  0
   -2.5100    0.7400   -0.1000 C   0  0  0  0  0  0  0  0  0  0  0  0
   -3.1250    2.0030   -0.0270 C   0  0  0  0  0  0  0  0  0  0  0  0
   -4.3210    2.3190   -0.6380 C   0  0  0  0  0  0  0  0  0  0  0  0
   -4.8680    3.6690   -0.4950 C   0  0  0  0  0  0  0  0  0  0  0  0
   -4.1450    4.6120    0.2740 N   0  0  0  0  0  0  0  0  0  0  0  0
   -5.9230    4.0210   -1.0120 O   0  0  0  0  0  0  0  0  0  0  0  0
   -4.9260    1.3220   -1.3530 C   0  0  0  0  0  0  0  0  0  0  0  0
   -6.1170    1.5050   -2.0050 O   0  0  0  0  0  0  0  0  0  0  0  0
   -4.3580    0.0190   -1.4700 C   0  0  0  0  0  0  0  0  0  0  0  0
   -3.1680   -0.2110   -0.8370 C   0  0  0  0  0  0  0  0  0  0  0  0
   -2.4970   -1.5120   -1.0350 C   0  0  0  0  0  0  0  0  0  0  0  0
   -2.9790   -2.0660   -2.3230 N   0  0  0  0  0  0  0  0  0  0  0  0
   -4.4130   -2.2990   -2.2050 C   0  0  0  0  0  0  0  0  0  0  0  0
   -5.1300   -0.9810   -2.2490 C   0  0  0  0  0  0  0  0  0  0  0  0
    1.1760   -1.5980    1.9830 C   0  0  0  0  0  0  0  0  0  0  0  0
    0.5280   -2.8370    1.5550 C   0  0  0  0  0  0  0  0  0  0  0  0
    2.3370   -1.6210    2.7360 O   0  0  0  0  0  0  0  0  0  0  0  0
    3.7230   -0.0140    0.0150 C   0  0  0  0  0  0  0  0  0  0  0  0
    3.0050   -0.1390   -1.0750 C   0  0  0  0  0  0  0  0  0  0  0  0
    1.8760    0.6900   -1.4900 C   0  0  0  0  0  0  0  0  0  0  0  0
    4.9860   -0.8380   -0.0540 C   0  0  0  0  0  0  0  0  0  0  0  0
    5.2070   -1.7530   -0.9680 C   0  0  0  0  0  0  0  0  0  0  0  0
  1  2  2  0
  2  3  1  0
  2 32  1  0
  3  4  2  0
  4  5  1  0
  4  6  1  0
  6  7  1  0
  6 29  1  0
  7  8  1  0
  8  9  1  0
  9 10  1  0
  9 26  2  3
 10 11  2  3
 11 12  1  0
 12 13  2  0
 12 21  1  0
 13 14  1  0
 14 15  1  0
 14 18  2  0
 15 16  1  0
 15 17  2  0
 18 19  1  0
 18 20  1  0
 20 21  2  0
 20 25  1  0
 21 22  1  0
 22 23  1  0
 23 24  1  0
 24 25  1  0
 26 27  1  0
 26 28  1  0
 29 30  2  3
 29 32  1  0
 30 31  1  0
 32 33  2  0
M  CHG  3   4   1   5  -1  23   1
M  END
