
     RDKit          3D

 32 36  0  0  0  0  0  0  0  0999 V2000
    8.9520    1.3760    0.6420 C   0  0  0  0  0  0  0  0  0  0  0  0
    7.5910    0.9530    0.6220 N   0  0  0  0  0  0  0  0  0  0  0  0
    6.9340    0.5760   -0.4230 C   0  0  0  0  0  0  0  0  0  0  0  0
    7.5480    0.5540   -1.6740 C   0  0  0  0  0  0  0  0  0  0  0  0
    6.7730    0.1470   -2.7420 C   0  0  0  0  0  0  0  0  0  0  0  0
    5.4890   -0.2190   -2.6310 N   0  0  0  0  0  0  0  0  0  0  0  0
    4.8980   -0.1920   -1.3980 C   0  0  0  0  0  0  0  0  0  0  0  0
    3.5370   -0.5620   -1.3190 N   0  0  0  0  0  0  0  0  0  0  0  0
    2.7810   -0.5690   -0.1420 C   0  0  0  0  0  0  0  0  0  0  0  0
    3.2430   -0.5690    1.1430 C   0  0  0  0  0  0  0  0  0  0  0  0
    2.3640   -0.5430    2.2270 C   0  0  0  0  0  0  0  0  0  0  0  0
    0.9980   -0.5160    2.0570 C   0  0  0  0  0  0  0  0  0  0  0  0
    0.5280   -0.5150    0.7800 C   0  0  0  0  0  0  0  0  0  0  0  0
   -0.8880   -0.4480    0.4590 N   0  0  0  0  0  0  0  0  0  0  0  0
   -1.3770    0.8570    0.1800 C   0  0  0  0  0  0  0  0  0  0  0  0
   -2.8270    0.9350   -0.1080 C   0  0  0  0  0  0  0  0  0  0  0  0
   -3.7460   -0.0090   -0.3430 N   0  0  0  0  0  0  0  0  0  0  0  0
   -4.9490    0.5350   -0.5460 C   0  0  0  0  0  0  0  0  0  0  0  0
   -4.7830    1.9140   -0.4320 C   0  0  0  0  0  0  0  0  0  0  0  0
   -3.5010    2.1250   -0.1690 N   0  0  0  0  0  0  0  0  0  0  0  0
   -5.9390    2.8250   -0.6050 C   0  0  0  0  0  0  0  0  0  0  0  0
   -7.2480    2.2830   -0.1780 C   0  0  0  0  0  0  0  0  0  0  0  0
   -7.1930    0.8380    0.2110 C   0  0  0  0  0  0  0  0  0  0  0  0
   -6.3400    0.1090   -0.8400 C   0  0  0  0  0  0  0  0  0  0  0  0
   -1.6150   -1.6450    0.4350 C   0  0  0  0  0  0  0  0  0  0  0  0
   -1.3480   -2.5830   -0.5450 C   0  0  0  0  0  0  0  0  0  0  0  0
   -2.0430   -3.7720   -0.6220 C   0  0  0  0  0  0  0  0  0  0  0  0
   -3.0290   -4.0230    0.3080 C   0  0  0  0  0  0  0  0  0  0  0  0
   -3.2930   -3.0870    1.2820 C   0  0  0  0  0  0  0  0  0  0  0  0
   -2.5990   -1.9040    1.3570 C   0  0  0  0  0  0  0  0  0  0  0  0
    1.3840   -0.5410   -0.2800 C   0  0  0  0  0  0  0  0  0  0  0  0
    5.6560    0.2010   -0.3770 N   0  0  0  0  0  0  0  0  0  0  0  0
  1  2  1  0
  2  3  2  3
  3  4  1  0
  3 32  1  0
  4  5  2  0
  5  6  1  0
  6  7  1  0
  7  8  1  0
  7 32  2  0
  8  9  1  0
  9 10  2  0
  9 31  1  0
 10 11  1  0
 11 12  2  0
 12 13  1  0
 13 14  1  0
 13 31  2  0
 14 15  1  0
 14 25  1  0
 15 16  1  0
 16 17  2  0
 16 20  1  0
 17 18  1  0
 18 19  2  0
 18 24  1  0
 19 20  1  0
 19 21  1  0
 21 22  1  0
 22 23  1  0
 23 24  1  0
 25 26  2  0
 25 30  1  0
 26 27  1  0
 27 28  2  0
 28 29  1  0
 29 30  2  0
M  CHG  1   2   1
M  END
