
     RDKit          3D

 32 36  0  0  0  0  0  0  0  0999 V2000
    4.9370   -0.7010    2.5810 C   0  0  0  0  0  0  0  0  0  0  0  0
    5.5460   -0.7070    1.2530 C   0  0  0  0  0  0  0  0  0  0  0  0
    6.7030   -1.2870    0.9150 N   0  0  0  0  0  0  0  0  0  0  0  0
    6.9210   -1.1090   -0.3810 N   0  0  0  0  0  0  0  0  0  0  0  0
    5.9110   -0.4000   -0.9440 C   0  0  0  0  0  0  0  0  0  0  0  0
    5.9130   -0.0070   -2.3910 C   0  0  0  0  0  0  0  0  0  0  0  0
    5.0430   -0.1380    0.0750 C   0  0  0  0  0  0  0  0  0  0  0  0
    3.8810    0.7200   -0.0000 C   0  0  0  0  0  0  0  0  0  0  0  0
    2.6110    0.3330    0.4240 N   0  0  0  0  0  0  0  0  0  0  0  0
    1.7610    1.5290    0.2290 C   0  0  0  0  0  0  0  0  0  0  0  0
    0.5970    1.0750   -0.6780 C   0  0  0  0  0  0  0  0  0  0  0  0
   -0.2170    0.2190    0.2000 N   0  0  0  0  0  0  0  0  0  0  0  0
   -1.5230    0.6480    0.4420 C   0  0  0  0  0  0  0  0  0  0  0  0
   -1.5560    1.7450    1.3470 C   0  0  0  0  0  0  0  0  0  0  0  0
   -2.7300    2.3360    1.6870 C   0  0  0  0  0  0  0  0  0  0  0  0
   -3.9210    1.8630    1.1420 C   0  0  0  0  0  0  0  0  0  0  0  0
   -5.1300    2.5170    1.6260 C   0  0  0  0  0  0  0  0  0  0  0  0
   -6.2420    1.9220    1.9190 C   0  0  0  0  0  0  0  0  0  0  0  0
   -7.4260    2.5520    2.3830 N   0  0  0  0  0  0  0  0  0  0  0  0
   -3.9140    0.8210    0.2620 C   0  0  0  0  0  0  0  0  0  0  0  0
   -5.1000    0.4190   -0.3060 C   0  0  0  0  0  0  0  0  0  0  0  0
   -5.1360   -0.6080   -1.2170 C   0  0  0  0  0  0  0  0  0  0  0  0
   -3.9850   -1.2010   -1.5420 C   0  0  0  0  0  0  0  0  0  0  0  0
   -2.7330   -0.8260   -1.0020 C   0  0  0  0  0  0  0  0  0  0  0  0
   -1.5990   -1.6150   -1.4180 C   0  0  0  0  0  0  0  0  0  0  0  0
   -1.5060   -2.8450   -0.9140 N   0  0  0  0  0  0  0  0  0  0  0  0
   -0.3400   -3.5250   -1.3960 C   0  0  0  0  0  0  0  0  0  0  0  0
    0.1400   -2.7320   -2.5760 C   0  0  0  0  0  0  0  0  0  0  0  0
   -0.5850   -1.4450   -2.3590 N   0  0  0  0  0  0  0  0  0  0  0  0
   -2.6890    0.1820   -0.1050 C   0  0  0  0  0  0  0  0  0  0  0  0
    0.5110   -0.8290    0.7930 C   0  0  0  0  0  0  0  0  0  0  0  0
    1.9410   -0.8370    0.1790 C   0  0  0  0  0  0  0  0  0  0  0  0
  1  2  1  0
  2  3  2  0
  2  7  1  0
  3  4  1  0
  4  5  1  0
  5  6  1  0
  5  7  2  0
  7  8  1  0
  8  9  1  0
  9 10  1  0
  9 32  1  0
 10 11  1  0
 11 12  1  0
 12 13  1  0
 12 31  1  0
 13 14  2  0
 13 30  1  0
 14 15  1  0
 15 16  2  0
 16 17  1  0
 16 20  1  0
 17 18  2  3
 18 19  1  0
 20 21  2  0
 20 30  1  0
 21 22  1  0
 22 23  2  0
 23 24  1  0
 24 25  1  0
 24 30  2  0
 25 26  2  0
 25 29  1  0
 26 27  1  0
 27 28  1  0
 28 29  1  0
 31 32  1  0
M  CHG  1  19   1
M  END
