
     RDKit          3D

 32 36  0  0  0  0  0  0  0  0999 V2000
    6.6480   -1.2210   -2.7420 C   0  0  0  0  0  0  0  0  0  0  0  0
    5.9140   -0.1130   -2.0730 C   0  0  0  0  0  0  0  0  0  0  0  0
    5.0140   -0.3490   -1.0720 C   0  0  0  0  0  0  0  0  0  0  0  0
    4.3080    0.6740   -0.4230 C   0  0  0  0  0  0  0  0  0  0  0  0
    4.5330    1.9550   -0.8110 C   0  0  0  0  0  0  0  0  0  0  0  0
    3.8550    3.0870   -0.2040 C   0  0  0  0  0  0  0  0  0  0  0  0
    3.0090    3.1380    0.7070 N   0  0  0  0  0  0  0  0  0  0  0  0
    2.4110    2.1480    1.4670 C   0  0  0  0  0  0  0  0  0  0  0  0
    3.0330    1.8020    2.6350 N   0  0  0  0  0  0  0  0  0  0  0  0
    2.4700    0.8730    3.3790 N   0  0  0  0  0  0  0  0  0  0  0  0
    1.3210    0.2560    3.0410 C   0  0  0  0  0  0  0  0  0  0  0  0
    0.7420   -0.7150    3.8280 C   0  0  0  0  0  0  0  0  0  0  0  0
   -0.4500   -1.3380    3.4520 C   0  0  0  0  0  0  0  0  0  0  0  0
   -1.0910   -1.0040    2.2800 C   0  0  0  0  0  0  0  0  0  0  0  0
   -2.3080   -1.6480    1.9090 N   0  0  0  0  0  0  0  0  0  0  0  0
   -3.0030   -1.3370    0.7130 C   0  0  0  0  0  0  0  0  0  0  0  0
   -3.9750   -0.3390    0.6880 C   0  0  0  0  0  0  0  0  0  0  0  0
   -4.2430    0.3730    1.9610 C   0  0  0  0  0  0  0  0  0  0  0  0
   -5.2690    1.3560    1.7300 N   0  0  0  0  0  0  0  0  0  0  0  0
   -4.6600   -0.0220   -0.4610 C   0  0  0  0  0  0  0  0  0  0  0  0
   -4.4030   -0.6930   -1.6480 C   0  0  0  0  0  0  0  0  0  0  0  0
   -5.1630   -0.3280   -2.8820 C   0  0  0  0  0  0  0  0  0  0  0  0
   -3.4430   -1.6820   -1.6330 C   0  0  0  0  0  0  0  0  0  0  0  0
   -2.7610   -1.9930   -0.4750 C   0  0  0  0  0  0  0  0  0  0  0  0
   -1.8890   -2.9760   -0.7130 C   0  0  0  0  0  0  0  0  0  0  0  0
   -2.0320   -3.3180   -2.1480 C   0  0  0  0  0  0  0  0  0  0  0  0
   -3.0450   -2.4250   -2.6040 N   0  0  0  0  0  0  0  0  0  0  0  0
   -0.5110   -0.0340    1.4960 C   0  0  0  0  0  0  0  0  0  0  0  0
    0.6840    0.5950    1.8670 C   0  0  0  0  0  0  0  0  0  0  0  0
    1.2400    1.5390    1.0940 N   0  0  0  0  0  0  0  0  0  0  0  0
    5.4450    2.2130   -1.8270 C   0  0  0  0  0  0  0  0  0  0  0  0
    6.1090    1.2010   -2.4320 C   0  0  0  0  0  0  0  0  0  0  0  0
  1  2  1  0
  2  3  2  0
  2 32  1  0
  3  4  1  0
  4  5  2  0
  5  6  1  0
  5 31  1  0
  6  7  2  3
  7  8  1  0
  8  9  2  0
  8 30  1  0
  9 10  1  0
 10 11  2  0
 11 12  1  0
 11 29  1  0
 12 13  2  0
 13 14  1  0
 14 15  1  0
 14 28  2  0
 15 16  1  0
 16 17  2  0
 16 24  1  0
 17 18  1  0
 17 20  1  0
 18 19  1  0
 20 21  2  0
 21 22  1  0
 21 23  1  0
 23 24  1  0
 23 27  2  0
 24 25  2  0
 25 26  1  0
 26 27  1  0
 28 29  1  0
 29 30  2  0
 31 32  2  0
M  CHG  1  19   1
M  END
