
     RDKit          3D

 32 36  0  0  0  0  0  0  0  0999 V2000
   -2.1940   -5.4540   -0.8330 C   0  0  0  0  0  0  0  0  0  0  0  0
   -2.0180   -4.0450   -0.3980 C   0  0  0  0  0  0  0  0  0  0  0  0
   -2.8120   -3.5330    0.5950 C   0  0  0  0  0  0  0  0  0  0  0  0
   -2.6520   -2.2370    0.9960 C   0  0  0  0  0  0  0  0  0  0  0  0
   -1.7030   -1.3670    0.4460 C   0  0  0  0  0  0  0  0  0  0  0  0
   -1.5470    0.0440    0.9260 C   0  0  1  0  0  0  0  0  0  0  0  0
   -0.1800    0.3800    1.3370 C   0  0  0  0  0  0  0  0  0  0  0  0
    0.7300    1.0730    0.5740 C   0  0  0  0  0  0  0  0  0  0  0  0
    2.0130    1.3310    1.0720 C   0  0  0  0  0  0  0  0  0  0  0  0
    2.4100    0.9110    2.3190 C   0  0  0  0  0  0  0  0  0  0  0  0
    3.7890    1.1870    2.8440 C   0  0  0  0  0  0  0  0  0  0  0  0
    4.6120    1.5730    1.7250 N   0  0  0  0  0  0  0  0  0  0  0  0
    4.8020    0.6220    0.6750 C   0  0  0  0  0  0  0  0  0  0  0  0
    5.5320    0.7860   -0.4530 N   0  0  0  0  0  0  0  0  0  0  0  0
    5.4570   -0.3410   -1.1810 C   0  0  0  0  0  0  0  0  0  0  0  0
    6.0910   -0.5890   -2.4570 N   0  0  0  0  0  0  0  0  0  0  0  0
    4.6840   -1.2020   -0.5070 N   0  0  0  0  0  0  0  0  0  0  0  0
    4.3560   -2.5330   -0.9540 C   0  0  0  0  0  0  0  0  0  0  0  0
    4.2930   -0.6200    0.6060 N   0  0  0  0  0  0  0  0  0  0  0  0
    1.5070    0.2310    3.0580 N   0  0  0  0  0  0  0  0  0  0  0  0
    0.2770   -0.0190    2.5890 C   0  0  0  0  0  0  0  0  0  0  0  0
   -2.2460    1.0350    0.1050 C   0  0  0  0  0  0  0  0  0  0  0  0
   -2.0000    1.2390   -1.2440 C   0  0  0  0  0  0  0  0  0  0  0  0
   -2.6670    2.1910   -1.9830 C   0  0  0  0  0  0  0  0  0  0  0  0
   -3.6180    2.9950   -1.4250 C   0  0  0  0  0  0  0  0  0  0  0  0
   -3.9000    2.8320   -0.0880 C   0  0  0  0  0  0  0  0  0  0  0  0
   -3.2270    1.8780    0.6400 C   0  0  0  0  0  0  0  0  0  0  0  0
   -4.9690    3.8060    0.3370 C   0  0  0  0  0  0  0  0  0  0  0  0
   -5.5320    4.2720   -0.9880 C   0  0  0  0  0  0  0  0  0  0  0  0
   -4.4600    4.0500   -1.9360 N   0  0  0  0  0  0  0  0  0  0  0  0
   -0.9060   -1.8950   -0.5560 C   0  0  0  0  0  0  0  0  0  0  0  0
   -1.0780   -3.2090   -0.9540 C   0  0  0  0  0  0  0  0  0  0  0  0
  1  2  1  0
  2  3  2  0
  2 32  1  0
  3  4  1  0
  4  5  2  0
  6  5  1  6
  5 31  1  0
  6  7  1  0
  6 22  1  0
  7  8  2  0
  7 21  1  0
  8  9  1  0
  9 10  2  0
 10 11  1  0
 10 20  1  0
 11 12  1  0
 12 13  1  0
 13 14  1  0
 13 19  2  0
 14 15  2  0
 15 16  1  0
 15 17  1  0
 17 18  1  0
 17 19  1  0
 20 21  2  0
 22 23  2  0
 22 27  1  0
 23 24  1  0
 24 25  2  0
 25 26  1  0
 25 30  1  0
 26 27  2  0
 26 28  1  0
 28 29  1  0
 29 30  1  0
 31 32  2  0
M  CHG  1  16   1
M  END
