
     RDKit          3D

 37 42  0  0  0  0  0  0  0  0999 V2000
   -7.9710    2.4230    0.4520 C   0  0  0  0  0  0  0  0  0  0  0  0
   -6.9200    2.0440   -0.4680 N   0  0  0  0  0  0  0  0  0  0  0  0
   -5.6070    2.2520    0.0730 C   0  0  0  0  0  0  0  0  0  0  0  0
   -5.2950    1.2510    1.1580 C   0  0  0  0  0  0  0  0  0  0  0  0
   -5.3460   -0.1340    0.6660 C   0  0  0  0  0  0  0  0  0  0  0  0
   -6.5310   -0.8330    0.7210 C   0  0  0  0  0  0  0  0  0  0  0  0
   -6.5480   -2.1190    0.2570 C   0  0  0  0  0  0  0  0  0  0  0  0
   -5.4050   -2.7000   -0.2540 C   0  0  0  0  0  0  0  0  0  0  0  0
   -4.1970   -2.0240   -0.3230 C   0  0  0  0  0  0  0  0  0  0  0  0
   -3.1210   -2.6770   -0.8430 O   0  0  0  0  0  0  0  0  0  0  0  0
   -1.8320   -2.2460   -0.9730 C   0  0  0  0  0  0  0  0  0  0  0  0
   -1.1850   -2.1240   -2.1910 C   0  0  0  0  0  0  0  0  0  0  0  0
    0.1380   -1.6800   -2.2890 C   0  0  0  0  0  0  0  0  0  0  0  0
    0.8210   -1.3520   -1.1480 C   0  0  0  0  0  0  0  0  0  0  0  0
    0.2020   -1.4630    0.0820 C   0  0  0  0  0  0  0  0  0  0  0  0
   -1.1110   -1.9070    0.1530 C   0  0  0  0  0  0  0  0  0  0  0  0
   -1.7280   -2.0160    1.4060 O   0  0  0  0  0  0  0  0  0  0  0  0
   -1.6690   -3.2020    2.1620 C   0  0  0  0  0  0  0  0  0  0  0  0
   -2.2330   -4.2840    1.4820 O   0  0  0  0  0  0  0  0  0  0  0  0
    0.9160   -1.1220    1.2430 O   0  0  0  0  0  0  0  0  0  0  0  0
    2.2550   -0.6710    1.1620 C   0  0  0  0  0  0  0  0  0  0  0  0
    3.1660   -0.2820    1.9840 N   0  0  0  0  0  0  0  0  0  0  0  0
    4.3530    0.0790    1.2750 N   0  0  0  0  0  0  0  0  0  0  0  0
    5.4200    0.5980    2.1090 C   0  0  0  0  0  0  0  0  0  0  0  0
    5.7930    2.0000    1.6020 C   0  0  0  0  0  0  0  0  0  0  0  0
    6.7580    1.9990    0.5650 N   0  0  1  0  0  0  0  0  0  0  0  0
    7.5920    0.7830    0.6200 C   0  0  0  0  0  0  0  0  0  0  0  0
    6.3620    2.2810   -0.7530 C   0  0  0  0  0  0  0  0  0  0  0  0
    4.9190    2.2240   -1.1160 C   0  0  0  0  0  0  0  0  0  0  0  0
    4.3300    0.9330   -1.0570 N   0  0  0  0  0  0  0  0  0  0  0  0
    3.6640    0.6690   -2.3250 C   0  0  0  0  0  0  0  0  0  0  0  0
    3.6980    1.5380   -3.2010 O   0  0  0  0  0  0  0  0  0  0  0  0
    2.9570   -0.6650   -2.5100 C   0  0  0  0  0  0  0  0  0  0  0  0
    2.1930   -0.9020   -1.2930 C   0  0  0  0  0  0  0  0  0  0  0  0
    2.7990   -0.6070   -0.1680 C   0  0  0  0  0  0  0  0  0  0  0  0
    4.2220   -0.1440   -0.1140 C   0  0  2  0  0  0  0  0  0  0  0  0
   -4.1940   -0.7290    0.1480 C   0  0  0  0  0  0  0  0  0  0  0  0
  1  2  1  0
  2  3  1  0
  3  4  1  0
  4  5  1  0
  5  6  2  0
  5 37  1  0
  6  7  1  0
  7  8  2  0
  8  9  1  0
  9 10  1  0
  9 37  2  0
 10 11  1  0
 11 12  2  0
 11 16  1  0
 12 13  1  0
 13 14  2  0
 14 15  1  0
 14 34  1  0
 15 16  2  0
 15 20  1  0
 16 17  1  0
 17 18  1  0
 18 19  1  0
 20 21  1  0
 21 22  2  0
 21 35  1  0
 22 23  1  0
 23 24  1  0
 36 23  1  1
 24 25  1  0
 25 26  1  0
 26 27  1  6
 26 28  1  0
 28 29  1  0
 29 30  1  0
 30 31  1  0
 30 36  1  0
 31 32  2  0
 31 33  1  0
 33 34  1  0
 34 35  2  0
 35 36  1  0
M  CHG  2   2   1  26   1
M  END
