
     RDKit          3D

 38 42  0  0  0  0  0  0  0  0999 V2000
   -8.7630    1.8750    1.0110 C   0  0  0  0  0  0  0  0  0  0  0  0
   -8.1450    1.0300   -0.0100 N   0  0  2  0  0  0  0  0  0  0  0  0
   -8.5150   -0.3530    0.1650 C   0  0  0  0  0  0  0  0  0  0  0  0
   -7.3150   -1.2190   -0.1370 C   0  0  0  0  0  0  0  0  0  0  0  0
   -6.2060   -1.0070    0.8620 C   0  0  0  0  0  0  0  0  0  0  0  0
   -6.0020    0.4600    1.0600 C   0  0  1  0  0  0  0  0  0  0  0  0
   -4.5850    0.8640    1.0630 C   0  0  0  0  0  0  0  0  0  0  0  0
   -4.1770    1.4260    2.1470 O   0  0  0  0  0  0  0  0  0  0  0  0
   -3.7060    0.6700   -0.0130 N   0  0  0  0  0  0  0  0  0  0  0  0
   -3.8400    0.0960   -1.3220 C   0  0  0  0  0  0  0  0  0  0  0  0
   -2.5480   -0.7460   -1.3760 C   0  0  0  0  0  0  0  0  0  0  0  0
   -1.6020    0.2370   -0.9020 N   0  0  2  0  0  0  0  0  0  0  0  0
   -0.3540   -0.2850   -0.4570 C   0  0  0  0  0  0  0  0  0  0  0  0
   -0.0280   -1.6210   -1.1110 C   0  0  0  0  0  0  0  0  0  0  0  0
    1.2140   -2.0700   -0.6470 O   0  0  0  0  0  0  0  0  0  0  0  0
    1.7860   -3.2540   -1.0840 C   0  0  0  0  0  0  0  0  0  0  0  0
    1.1900   -3.9740   -1.9210 O   0  0  0  0  0  0  0  0  0  0  0  0
    3.1290   -3.7050   -0.5720 C   0  0  0  0  0  0  0  0  0  0  0  0
    3.5380   -2.7110    0.4190 N   0  0  0  0  0  0  0  0  0  0  0  0
    3.3130   -2.7870    1.7180 N   0  0  0  0  0  0  0  0  0  0  0  0
    3.8190   -1.7300    2.3640 C   0  0  0  0  0  0  0  0  0  0  0  0
    4.4200   -0.9040    1.4060 C   0  0  0  0  0  0  0  0  0  0  0  0
    5.0780    0.3010    1.4800 C   0  0  0  0  0  0  0  0  0  0  0  0
    5.5450    0.8520    0.2800 C   0  0  0  0  0  0  0  0  0  0  0  0
    6.2140    2.0800    0.3680 O   0  0  0  0  0  0  0  0  0  0  0  0
    7.6120    2.1210    0.4840 C   0  0  0  0  0  0  0  0  0  0  0  0
    8.2800    3.3040    0.6650 C   0  0  0  0  0  0  0  0  0  0  0  0
    9.6530    3.3370    0.7780 C   0  0  0  0  0  0  0  0  0  0  0  0
   10.3810    2.1570    0.7080 C   0  0  0  0  0  0  0  0  0  0  0  0
   11.7620    2.1470    0.8150 O   0  0  0  0  0  0  0  0  0  0  0  0
    9.7020    0.9630    0.5240 C   0  0  0  0  0  0  0  0  0  0  0  0
   10.6500   -0.5310    0.4320 Cl  0  0  0  0  0  0  0  0  0  0  0  0
    8.3320    0.9530    0.4140 C   0  0  0  0  0  0  0  0  0  0  0  0
    5.3430    0.2000   -0.9060 C   0  0  0  0  0  0  0  0  0  0  0  0
    4.6800   -1.0110   -0.9760 C   0  0  0  0  0  0  0  0  0  0  0  0
    4.2130   -1.5670    0.2080 C   0  0  0  0  0  0  0  0  0  0  0  0
   -2.2900    1.0920    0.0180 C   0  0  0  0  0  0  0  0  0  0  0  0
   -6.7180    1.2500    0.0040 C   0  0  0  0  0  0  0  0  0  0  0  0
  2  1  1  1
  2  3  1  0
  2 38  1  0
  3  4  1  0
  4  5  1  0
  5  6  1  0
  6  7  1  6
  6 38  1  0
  7  8  2  0
  7  9  1  0
  9 10  1  0
  9 37  1  0
 10 11  1  0
 11 12  1  0
 12 13  1  1
 12 37  1  0
 13 14  1  0
 14 15  1  0
 15 16  1  0
 16 17  2  0
 16 18  1  0
 18 19  1  0
 19 20  1  0
 19 36  1  0
 20 21  2  0
 21 22  1  0
 22 23  2  0
 22 36  1  0
 23 24  1  0
 24 25  1  0
 24 34  2  0
 25 26  1  0
 26 27  2  0
 26 33  1  0
 27 28  1  0
 28 29  2  0
 29 30  1  0
 29 31  1  0
 31 32  1  0
 31 33  2  0
 34 35  1  0
 35 36  2  0
M  CHG  2   2   1  12   1
M  END
