
     RDKit          3D

 38 42  0  0  0  0  0  0  0  0999 V2000
    8.4100   -2.4270   -1.0020 C   0  0  0  0  0  0  0  0  0  0  0  0
    7.1890   -1.7420   -0.7560 O   0  0  0  0  0  0  0  0  0  0  0  0
    7.0960   -0.6980    0.1370 C   0  0  0  0  0  0  0  0  0  0  0  0
    8.1880   -0.2660    0.8320 C   0  0  0  0  0  0  0  0  0  0  0  0
    8.1040    0.7780    1.7250 C   0  0  0  0  0  0  0  0  0  0  0  0
    6.9070    1.3960    1.9240 C   0  0  0  0  0  0  0  0  0  0  0  0
    5.7810    0.9680    1.2230 C   0  0  0  0  0  0  0  0  0  0  0  0
    5.8580   -0.0620    0.3390 C   0  0  0  0  0  0  0  0  0  0  0  0
    4.7660   -0.5540   -0.4020 N   0  0  0  0  0  0  0  0  0  0  0  0
    3.4520   -0.0270   -0.3290 C   0  0  0  0  0  0  0  0  0  0  0  0
    3.1460    0.9230    0.3990 O   0  0  0  0  0  0  0  0  0  0  0  0
    2.4420   -0.7130   -1.2110 C   0  0  0  0  0  0  0  0  0  0  0  0
    1.2130   -0.1280   -1.0940 O   0  0  0  0  0  0  0  0  0  0  0  0
    0.4240    0.0250    0.0450 C   0  0  0  0  0  0  0  0  0  0  0  0
    0.9120   -0.4160    1.1140 O   0  0  0  0  0  0  0  0  0  0  0  0
   -0.8410    0.6640   -0.1200 C   0  0  0  0  0  0  0  0  0  0  0  0
   -0.8440    2.0780   -0.0660 C   0  0  0  0  0  0  0  0  0  0  0  0
    0.4020    2.8210    0.1680 C   0  0  0  0  0  0  0  0  0  0  0  0
    0.8890    2.8030    1.8750 Cl  0  0  0  0  0  0  0  0  0  0  0  0
   -2.0100    2.7210   -0.2100 N   0  0  0  0  0  0  0  0  0  0  0  0
   -3.1700    2.1040   -0.4020 C   0  0  0  0  0  0  0  0  0  0  0  0
   -4.3950    2.8240   -0.5600 N   0  0  0  0  0  0  0  0  0  0  0  0
   -5.6920    2.2700   -0.7460 C   0  0  0  0  0  0  0  0  0  0  0  0
   -6.5860    3.2240    0.0540 C   0  0  0  0  0  0  0  0  0  0  0  0
   -5.9320    4.5400   -0.2430 C   0  0  0  0  0  0  0  0  0  0  0  0
   -4.5000    4.2660   -0.5620 C   0  0  0  0  0  0  0  0  0  0  0  0
   -3.1680    0.7650   -0.4530 N   0  0  0  0  0  0  0  0  0  0  0  0
   -2.0170    0.0180   -0.3120 C   0  0  0  0  0  0  0  0  0  0  0  0
   -2.1560   -1.4290   -0.2460 C   0  0  0  0  0  0  0  0  0  0  0  0
   -1.1710   -2.3470   -0.4620 C   0  0  0  0  0  0  0  0  0  0  0  0
   -1.4470   -3.7160   -0.2820 C   0  0  0  0  0  0  0  0  0  0  0  0
   -2.7020   -4.1230    0.1080 C   0  0  0  0  0  0  0  0  0  0  0  0
   -3.7050   -3.2100    0.3290 C   0  0  0  0  0  0  0  0  0  0  0  0
   -3.4330   -1.8880    0.1540 C   0  0  0  0  0  0  0  0  0  0  0  0
   -4.9360   -3.9010    0.7300 C   0  0  0  0  0  0  0  0  0  0  0  0
   -6.0790   -3.3810    0.9290 O   0  0  0  0  0  0  0  0  0  0  0  0
   -4.5770   -5.3300    0.8570 C   0  0  0  0  0  0  0  0  0  0  0  0
   -3.2370   -5.4120    0.3560 N   0  0  0  0  0  0  0  0  0  0  0  0
  1  2  1  0
  2  3  1  0
  3  4  2  0
  3  8  1  0
  4  5  1  0
  5  6  2  0
  6  7  1  0
  7  8  2  0
  8  9  1  0
  9 10  1  0
 10 11  2  0
 10 12  1  0
 12 13  1  0
 13 14  1  0
 14 15  2  0
 14 16  1  0
 16 17  2  0
 16 28  1  0
 17 18  1  0
 17 20  1  0
 18 19  1  0
 20 21  2  0
 21 22  1  0
 21 27  1  0
 22 23  1  0
 22 26  1  0
 23 24  1  0
 24 25  1  0
 25 26  1  0
 27 28  2  0
 28 29  1  0
 29 30  2  0
 29 34  1  0
 30 31  1  0
 31 32  2  0
 32 33  1  0
 32 38  1  0
 33 34  2  0
 33 35  1  0
 35 36  2  0
 35 37  1  0
 37 38  1  0
M  CHG  2  20   1  27   1
M  END
