
     RDKit          3D

 38 41  0  0  0  0  0  0  0  0999 V2000
   -3.3990   -1.1030    3.5880 C   0  0  0  0  0  0  0  0  0  0  0  0
   -3.1440   -1.9590    2.3760 C   0  0  1  0  0  0  0  0  0  0  0  0
   -4.3330   -2.9270    2.2860 C   0  0  0  0  0  0  0  0  0  0  0  0
   -3.0680   -1.2260    1.0820 C   0  0  0  0  0  0  0  0  0  0  0  0
   -2.0750   -0.2460    0.9360 N   0  0  0  0  0  0  0  0  0  0  0  0
   -0.7190   -0.6350    0.8910 C   0  0  0  0  0  0  0  0  0  0  0  0
   -0.2530   -0.6540   -0.5600 C   0  0  1  0  0  0  0  0  0  0  0  0
   -0.4220    0.6310   -1.0330 O   0  0  0  0  0  0  0  0  0  0  0  0
    1.1750   -1.1210   -0.6700 C   0  0  2  0  0  0  0  0  0  0  0  0
    1.3860   -2.5650   -0.3600 C   0  0  0  0  0  0  0  0  0  0  0  0
    0.6140   -3.4090   -1.2890 C   0  0  0  0  0  0  0  0  0  0  0  0
    1.2000   -3.8020   -2.4900 C   0  0  0  0  0  0  0  0  0  0  0  0
    0.5150   -4.5910   -3.3810 C   0  0  0  0  0  0  0  0  0  0  0  0
   -0.7630   -4.9710   -3.0380 C   0  0  0  0  0  0  0  0  0  0  0  0
   -1.3340   -4.5850   -1.8650 C   0  0  0  0  0  0  0  0  0  0  0  0
   -0.6590   -3.7880   -0.9500 C   0  0  0  0  0  0  0  0  0  0  0  0
    2.0950   -0.3140    0.0860 N   0  0  0  0  0  0  0  0  0  0  0  0
    3.1050    0.4900   -0.5100 C   0  0  0  0  0  0  0  0  0  0  0  0
    3.2130    0.5080   -1.7700 O   0  0  0  0  0  0  0  0  0  0  0  0
    3.9960    1.2710    0.1990 O   0  0  0  0  0  0  0  0  0  0  0  0
    4.9710    2.0420   -0.4670 C   0  0  1  0  0  0  0  0  0  0  0  0
    4.9000    3.4990   -0.1580 C   0  0  0  0  0  0  0  0  0  0  0  0
    6.1660    4.0110   -0.0860 O   0  0  0  0  0  0  0  0  0  0  0  0
    7.0760    3.0300   -0.3630 C   0  0  1  0  0  0  0  0  0  0  0  0
    8.1250    2.9830    0.5380 O   0  0  0  0  0  0  0  0  0  0  0  0
    7.4360    2.7470    1.7490 C   0  0  0  0  0  0  0  0  0  0  0  0
    6.6060    1.5150    1.3730 C   0  0  0  0  0  0  0  0  0  0  0  0
    6.3760    1.6950   -0.0910 C   0  0  1  0  0  0  0  0  0  0  0  0
   -2.4480    1.3690    1.1850 S   0  0  1  0  0  0  0  0  0  0  0  0
   -2.8340    1.7020    2.5900 O   0  0  0  0  0  0  0  0  0  0  0  0
   -1.1910    2.1900    0.9080 O   0  0  0  0  0  0  0  0  0  0  0  0
   -3.6620    1.9840    0.0800 C   0  0  0  0  0  0  0  0  0  0  0  0
   -5.0030    1.9140    0.3900 C   0  0  0  0  0  0  0  0  0  0  0  0
   -5.9900    2.3850   -0.4510 C   0  0  0  0  0  0  0  0  0  0  0  0
   -5.6110    2.9540   -1.6590 C   0  0  0  0  0  0  0  0  0  0  0  0
   -6.6300    3.4430   -2.5320 N   0  0  0  0  0  0  0  0  0  0  0  0
   -4.2750    3.0300   -1.9810 C   0  0  0  0  0  0  0  0  0  0  0  0
   -3.2970    2.5450   -1.1110 C   0  0  0  0  0  0  0  0  0  0  0  0
  2  1  1  1
  2  3  1  0
  2  4  1  0
  4  5  1  0
  5  6  1  0
 29  5  1  1
  6  7  1  0
  7  8  1  1
  7  9  1  0
  9 10  1  1
  9 17  1  0
 10 11  1  0
 11 12  2  0
 11 16  1  0
 12 13  1  0
 13 14  2  0
 14 15  1  0
 15 16  2  0
 17 18  1  0
 18 19  2  0
 18 20  1  0
 21 20  1  1
 21 22  1  0
 21 28  1  0
 22 23  1  0
 24 23  1  1
 24 25  1  0
 24 28  1  0
 25 26  1  0
 26 27  1  0
 28 27  1  1
 29 30  2  0
 29 31  2  0
 29 32  1  0
 32 33  2  0
 32 38  1  0
 33 34  1  0
 34 35  2  0
 35 36  1  0
 35 37  1  0
 37 38  2  0
M  END
