
     RDKit          3D

 38 42  0  0  0  0  0  0  0  0999 V2000
    7.4680   -0.5600    1.6320 C   0  0  0  0  0  0  0  0  0  0  0  0
    6.7630   -0.4960    0.4230 O   0  0  0  0  0  0  0  0  0  0  0  0
    6.6920   -1.7180   -0.1930 C   0  0  2  0  0  0  0  0  0  0  0  0
    7.4420   -1.6410   -1.5310 C   0  0  0  0  0  0  0  0  0  0  0  0
    5.3130   -2.2720   -0.3610 C   0  0  0  0  0  0  0  0  0  0  0  0
    4.4350   -1.5380   -1.1340 O   0  0  0  0  0  0  0  0  0  0  0  0
    3.9890   -0.2550   -0.9590 C   0  0  0  0  0  0  0  0  0  0  0  0
    4.3980    0.4070    0.0180 O   0  0  0  0  0  0  0  0  0  0  0  0
    3.0450    0.3430   -1.9000 C   0  0  0  0  0  0  0  0  0  0  0  0
    1.7410    0.5950   -1.2800 N   0  0  0  0  0  0  0  0  0  0  0  0
    0.7680   -0.2630   -1.2470 C   0  0  0  0  0  0  0  0  0  0  0  0
    0.8750   -1.3960   -1.7610 O   0  0  0  0  0  0  0  0  0  0  0  0
   -0.4980    0.0150   -0.6240 C   0  0  0  0  0  0  0  0  0  0  0  0
   -1.4300   -1.0730   -0.6890 C   0  0  0  0  0  0  0  0  0  0  0  0
   -2.6960   -1.2350   -0.2070 N   0  0  2  0  0  0  0  0  0  0  0  0
   -2.7870   -1.6210    1.2120 C   0  0  0  0  0  0  0  0  0  0  0  0
   -4.2620   -1.5880    1.5600 C   0  0  0  0  0  0  0  0  0  0  0  0
   -4.8590   -2.6530    0.8250 N   0  0  0  0  0  0  0  0  0  0  0  0
   -6.2610   -2.8090    0.8960 C   0  0  0  0  0  0  0  0  0  0  0  0
   -6.5960   -3.6640   -0.2320 N   0  0  0  0  0  0  0  0  0  0  0  0
   -5.3900   -3.7460   -1.0690 C   0  0  0  0  0  0  0  0  0  0  0  0
   -4.6550   -2.5140   -0.6160 C   0  0  1  0  0  0  0  0  0  0  0  0
   -5.3880   -1.3220   -1.1770 C   0  0  0  0  0  0  0  0  0  0  0  0
   -3.2050   -2.5140   -0.8900 C   0  0  0  0  0  0  0  0  0  0  0  0
   -0.6020    1.2560   -0.0690 C   0  0  0  0  0  0  0  0  0  0  0  0
   -1.7980    1.5720    0.5290 C   0  0  0  0  0  0  0  0  0  0  0  0
   -1.9420    2.8160    1.0940 C   0  0  0  0  0  0  0  0  0  0  0  0
   -0.9280    3.7350    1.0720 C   0  0  0  0  0  0  0  0  0  0  0  0
   -1.1040    4.9730    1.6510 C   0  0  0  0  0  0  0  0  0  0  0  0
   -0.0700    5.8820    1.6190 C   0  0  0  0  0  0  0  0  0  0  0  0
   -0.2750    7.4480    2.3470 Cl  0  0  0  0  0  0  0  0  0  0  0  0
    1.1240    5.5550    1.0160 C   0  0  0  0  0  0  0  0  0  0  0  0
    2.2740    6.4860    0.9540 C   0  0  0  0  0  0  0  0  0  0  0  0
    1.2990    4.2940    0.4290 C   0  0  0  0  0  0  0  0  0  0  0  0
    0.2840    3.3730    0.4480 C   0  0  0  0  0  0  0  0  0  0  0  0
    0.4390    2.1400   -0.1180 N   0  0  0  0  0  0  0  0  0  0  0  0
    1.5950    1.8240   -0.7110 C   0  0  0  0  0  0  0  0  0  0  0  0
    2.5780    2.5880   -0.7850 O   0  0  0  0  0  0  0  0  0  0  0  0
  1  2  1  0
  2  3  1  0
  3  4  1  6
  3  5  1  0
  5  6  1  0
  6  7  1  0
  7  8  2  0
  7  9  1  0
  9 10  1  0
 10 11  1  0
 10 37  1  0
 11 12  2  0
 11 13  1  0
 13 14  1  0
 13 25  2  0
 15 14  1  6
 15 16  1  0
 15 24  1  0
 16 17  1  0
 17 18  1  0
 18 19  1  0
 18 22  1  0
 19 20  1  0
 20 21  1  0
 21 22  1  0
 22 23  1  6
 22 24  1  0
 25 26  1  0
 25 36  1  0
 26 27  2  0
 27 28  1  0
 28 29  2  0
 28 35  1  0
 29 30  1  0
 30 31  1  0
 30 32  2  0
 32 33  1  0
 32 34  1  0
 34 35  2  0
 35 36  1  0
 36 37  1  0
 37 38  2  0
M  CHG  2  15   1  20   1
M  END
