
     RDKit          3D

 38 42  0  0  0  0  0  0  0  0999 V2000
    7.9740   -2.2260    1.7710 C   0  0  0  0  0  0  0  0  0  0  0  0
    8.0980   -0.8820    2.0120 O   0  0  0  0  0  0  0  0  0  0  0  0
    7.5040   -0.1460    1.0020 C   0  0  0  0  0  0  0  0  0  0  0  0
    8.1040   -0.3710   -0.3330 C   0  0  0  0  0  0  0  0  0  0  0  0
    9.4440   -0.7180   -0.4540 C   0  0  0  0  0  0  0  0  0  0  0  0
   10.0150   -0.9320   -1.7020 C   0  0  0  0  0  0  0  0  0  0  0  0
    9.2000   -0.7860   -2.8140 C   0  0  0  0  0  0  0  0  0  0  0  0
    9.9210   -1.0570   -4.3860 Cl  0  0  0  0  0  0  0  0  0  0  0  0
    7.8890   -0.4430   -2.6340 C   0  0  0  0  0  0  0  0  0  0  0  0
    7.3350   -0.2360   -1.4240 N   0  0  0  0  0  0  0  0  0  0  0  0
    5.9730    0.1200   -1.2400 C   0  0  0  0  0  0  0  0  0  0  0  0
    5.0110   -0.8400   -1.0100 C   0  0  0  0  0  0  0  0  0  0  0  0
    3.6550   -0.5250   -0.8270 C   0  0  0  0  0  0  0  0  0  0  0  0
    3.2850    0.7740   -0.8790 C   0  0  0  0  0  0  0  0  0  0  0  0
    1.8930    1.2650   -0.7060 C   0  0  0  0  0  0  0  0  0  0  0  0
    1.6640    2.5010   -0.7780 O   0  0  0  0  0  0  0  0  0  0  0  0
    0.8180    0.3900   -0.4630 N   0  0  0  0  0  0  0  0  0  0  0  0
   -0.5410    0.7530   -0.2890 C   0  0  0  0  0  0  0  0  0  0  0  0
   -1.0780    1.9860   -0.5100 C   0  0  0  0  0  0  0  0  0  0  0  0
   -2.4130    2.2480   -0.3010 C   0  0  0  0  0  0  0  0  0  0  0  0
   -3.2420    1.2440    0.1440 C   0  0  0  0  0  0  0  0  0  0  0  0
   -4.5780    1.4070    0.3790 O   0  0  0  0  0  0  0  0  0  0  0  0
   -5.2850    2.5820    0.2110 C   0  0  1  0  0  0  0  0  0  0  0  0
   -6.3790    2.4040   -0.8390 C   0  0  0  0  0  0  0  0  0  0  0  0
   -7.3450    3.4880   -0.4930 C   0  0  0  0  0  0  0  0  0  0  0  0
   -7.2850    3.6240    0.9280 N   0  0  0  0  0  0  0  0  0  0  0  0
   -6.1260    2.9450    1.4270 C   0  0  0  0  0  0  0  0  0  0  0  0
   -2.7330   -0.0460    0.3860 C   0  0  0  0  0  0  0  0  0  0  0  0
   -3.6480   -1.0820    0.8610 C   0  0  0  0  0  0  0  0  0  0  0  0
   -3.1440   -2.2080    1.0570 O   0  0  0  0  0  0  0  0  0  0  0  0
   -4.9610   -0.9070    1.0950 O   0  0  0  0  0  0  0  0  0  0  0  0
   -5.9580   -1.7540    1.5300 C   0  0  0  0  0  0  0  0  0  0  0  0
   -6.3460   -2.9100    0.6940 C   0  0  1  0  0  0  0  0  0  0  0  0
   -5.5340   -4.0370    0.2730 C   0  0  0  0  0  0  0  0  0  0  0  0
   -6.5680   -4.2210    1.4050 C   0  0  0  0  0  0  0  0  0  0  0  0
   -1.4060   -0.2500    0.1630 C   0  0  0  0  0  0  0  0  0  0  0  0
    4.2510    1.6920   -1.1060 N   0  0  0  0  0  0  0  0  0  0  0  0
    5.5280    1.3990   -1.2790 N   0  0  0  0  0  0  0  0  0  0  0  0
  1  2  1  0
  2  3  1  0
  3  4  1  0
  4  5  2  0
  4 10  1  0
  5  6  1  0
  6  7  2  0
  7  8  1  0
  7  9  1  0
  9 10  2  0
 10 11  1  0
 11 12  2  0
 11 38  1  0
 12 13  1  0
 13 14  2  0
 14 15  1  0
 14 37  1  0
 15 16  2  0
 15 17  1  0
 17 18  1  0
 18 19  2  0
 18 36  1  0
 19 20  1  0
 20 21  2  0
 21 22  1  0
 21 28  1  0
 23 22  1  1
 23 24  1  0
 23 27  1  0
 24 25  1  0
 25 26  1  0
 26 27  1  0
 28 29  1  0
 28 36  2  0
 29 30  2  0
 29 31  1  0
 31 32  1  0
 33 32  1  1
 33 34  1  0
 33 35  1  0
 34 35  1  0
 37 38  2  0
M  CHG  2  10   1  26   1
M  END
