
     RDKit          3D

 38 43  0  0  0  0  0  0  0  0999 V2000
   10.3990    0.5880   -0.9040 C   0  0  0  0  0  0  0  0  0  0  0  0
    9.0040    0.7670   -0.3260 C   0  0  0  0  0  0  0  0  0  0  0  0
    8.7650   -0.2700    0.5460 O   0  0  0  0  0  0  0  0  0  0  0  0
    7.5280   -0.2040    1.1330 C   0  0  0  0  0  0  0  0  0  0  0  0
    6.3920   -0.3050    0.1560 C   0  0  0  0  0  0  0  0  0  0  0  0
    6.4310   -0.4560   -1.1330 O   0  0  0  0  0  0  0  0  0  0  0  0
    5.2420   -0.5050   -1.6490 C   0  0  0  0  0  0  0  0  0  0  0  0
    4.9310   -0.6630   -3.0210 O   0  0  0  0  0  0  0  0  0  0  0  0
    4.6790   -1.9870   -3.4950 C   0  0  0  0  0  0  0  0  0  0  0  0
    4.3240   -0.3790   -0.6450 C   0  0  0  0  0  0  0  0  0  0  0  0
    2.8650   -0.3490   -0.7250 C   0  0  0  0  0  0  0  0  0  0  0  0
    1.9990   -0.2770    0.3230 N   0  0  0  0  0  0  0  0  0  0  0  0
    0.7210   -0.2770   -0.1320 C   0  0  0  0  0  0  0  0  0  0  0  0
   -0.5110   -0.2180    0.5020 C   0  0  0  0  0  0  0  0  0  0  0  0
   -1.6660   -0.2340   -0.2480 C   0  0  0  0  0  0  0  0  0  0  0  0
   -1.5440   -0.3070   -1.5820 N   0  0  0  0  0  0  0  0  0  0  0  0
   -0.3730   -0.3650   -2.2320 C   0  0  0  0  0  0  0  0  0  0  0  0
    0.7850   -0.3500   -1.4970 C   0  0  0  0  0  0  0  0  0  0  0  0
    2.1100   -0.3930   -1.8250 N   0  0  0  0  0  0  0  0  0  0  0  0
   -2.8670   -0.1570    0.6630 C   0  0  2  0  0  0  0  0  0  0  0  0
   -3.7710    0.7830    0.0580 N   0  0  0  0  0  0  0  0  0  0  0  0
   -4.9890    0.9730    0.7850 C   0  0  0  0  0  0  0  0  0  0  0  0
   -6.0200   -0.0090    0.2540 C   0  0  2  0  0  0  0  0  0  0  0  0
   -6.2250    0.2400   -1.1120 O   0  0  0  0  0  0  0  0  0  0  0  0
   -7.6020    0.1340   -1.3710 C   0  0  0  0  0  0  0  0  0  0  0  0
   -8.3500    0.0440   -2.5210 C   0  0  0  0  0  0  0  0  0  0  0  0
   -9.7260   -0.0520   -2.4780 C   0  0  0  0  0  0  0  0  0  0  0  0
  -10.4120   -0.0620   -1.2780 C   0  0  0  0  0  0  0  0  0  0  0  0
   -9.6490    0.0290   -0.1250 C   0  0  0  0  0  0  0  0  0  0  0  0
   -8.2730    0.1260   -0.1650 C   0  0  0  0  0  0  0  0  0  0  0  0
   -7.3000    0.2260    0.8140 O   0  0  0  0  0  0  0  0  0  0  0  0
   -2.2470    0.4370    1.9190 C   0  0  0  0  0  0  0  0  0  0  0  0
   -0.8510   -0.1400    1.9450 C   0  0  2  0  0  0  0  0  0  0  0  0
    0.0130    0.7090    2.7040 N   0  0  1  0  0  0  0  0  0  0  0  0
   -0.0430    2.0980    2.3360 C   0  0  0  0  0  0  0  0  0  0  0  0
   -0.4260    0.6010    4.1020 C   0  0  0  0  0  0  0  0  0  0  0  0
    5.0650   -0.2500    0.5260 C   0  0  0  0  0  0  0  0  0  0  0  0
    4.3760   -0.0560    2.1340 Cl  0  0  0  0  0  0  0  0  0  0  0  0
  1  2  1  0
  2  3  1  0
  3  4  1  0
  4  5  1  0
  5  6  1  0
  5 37  2  0
  6  7  1  0
  7  8  1  0
  7 10  2  0
  8  9  1  0
 10 11  1  0
 10 37  1  0
 11 12  2  0
 11 19  1  0
 12 13  1  0
 13 14  2  0
 13 18  1  0
 14 15  1  0
 14 33  1  0
 15 16  2  0
 15 20  1  0
 16 17  1  0
 17 18  2  0
 18 19  1  0
 20 21  1  6
 20 32  1  0
 21 22  1  0
 23 22  1  1
 23 24  1  0
 23 31  1  0
 24 25  1  0
 25 26  2  0
 25 30  1  0
 26 27  1  0
 27 28  2  0
 28 29  1  0
 29 30  2  0
 30 31  1  0
 33 32  1  6
 33 34  1  0
 34 35  1  6
 34 36  1  0
 37 38  1  0
M  CHG  2  21   1  34   1
M  END
