
     RDKit          3D

 38 42  0  0  0  0  0  0  0  0999 V2000
    7.7950   -3.9840    0.6700 C   0  0  0  0  0  0  0  0  0  0  0  0
    7.0930   -3.0820   -0.2570 N   0  0  0  0  0  0  0  0  0  0  0  0
    7.8730   -1.8870   -0.4700 C   0  0  0  0  0  0  0  0  0  0  0  0
    7.1200   -0.6300   -0.2510 C   0  0  0  0  0  0  0  0  0  0  0  0
    6.7910   -0.2120    1.0250 C   0  0  0  0  0  0  0  0  0  0  0  0
    6.1030    0.9510    1.2900 C   0  0  0  0  0  0  0  0  0  0  0  0
    5.7290    1.7290    0.2210 C   0  0  0  0  0  0  0  0  0  0  0  0
    5.0430    2.8890    0.4870 O   0  0  0  0  0  0  0  0  0  0  0  0
    3.6790    3.0230    0.5350 C   0  0  0  0  0  0  0  0  0  0  0  0
    2.8090    1.9910    0.2840 C   0  0  0  0  0  0  0  0  0  0  0  0
    1.4250    2.1850    0.3470 C   0  0  0  0  0  0  0  0  0  0  0  0
    0.8870    3.4070    0.6620 C   0  0  0  0  0  0  0  0  0  0  0  0
   -0.4820    3.5990    0.7250 O   0  0  0  0  0  0  0  0  0  0  0  0
   -1.4080    2.5990    0.4830 C   0  0  0  0  0  0  0  0  0  0  0  0
   -1.9630    2.4550   -0.7310 N   0  0  0  0  0  0  0  0  0  0  0  0
   -2.8360    1.4910   -0.9080 N   0  0  0  0  0  0  0  0  0  0  0  0
   -3.2050    0.6380    0.0600 C   0  0  0  0  0  0  0  0  0  0  0  0
   -4.1650   -0.3840   -0.2970 N   0  0  0  0  0  0  0  0  0  0  0  0
   -5.4060   -0.2480   -0.0520 C   0  0  0  0  0  0  0  0  0  0  0  0
   -5.7220    1.0210    0.6070 C   0  0  0  0  0  0  0  0  0  0  0  0
   -4.8770    1.9220    0.5520 O   0  0  0  0  0  0  0  0  0  0  0  0
   -6.9220    1.2990    1.3020 O   0  0  0  0  0  0  0  0  0  0  0  0
   -8.2480    0.9000    0.9900 C   0  0  0  0  0  0  0  0  0  0  0  0
   -8.3090    0.1360   -0.3230 C   0  0  0  0  0  0  0  0  0  0  0  0
   -7.8340   -1.2920   -0.1630 C   0  0  0  0  0  0  0  0  0  0  0  0
   -6.3700   -1.3190   -0.3900 C   0  0  0  0  0  0  0  0  0  0  0  0
   -5.9170   -2.4070   -0.9420 C   0  0  0  0  0  0  0  0  0  0  0  0
   -4.5130   -2.6440   -1.2480 C   0  0  0  0  0  0  0  0  0  0  0  0
   -3.6130   -1.5210   -0.9480 C   0  0  2  0  0  0  0  0  0  0  0  0
   -2.4270   -2.0880   -0.1510 C   0  0  0  0  0  0  0  0  0  0  0  0
   -2.6710    0.7580    1.2730 N   0  0  0  0  0  0  0  0  0  0  0  0
   -1.7720    1.7270    1.5140 C   0  0  0  0  0  0  0  0  0  0  0  0
   -1.2190    1.9120    2.6260 O   0  0  0  0  0  0  0  0  0  0  0  0
    1.7690    4.4530    0.9170 C   0  0  0  0  0  0  0  0  0  0  0  0
    1.0610    5.9960    1.3180 Cl  0  0  0  0  0  0  0  0  0  0  0  0
    3.1220    4.2570    0.8530 C   0  0  0  0  0  0  0  0  0  0  0  0
    6.0270    1.3660   -1.0860 C   0  0  0  0  0  0  0  0  0  0  0  0
    6.7140    0.1960   -1.2850 C   0  0  0  0  0  0  0  0  0  0  0  0
  1  2  1  0
  2  3  1  0
  3  4  1  0
  4  5  2  0
  4 38  1  0
  5  6  1  0
  6  7  2  0
  7  8  1  0
  7 37  1  0
  8  9  1  0
  9 10  2  0
  9 36  1  0
 10 11  1  0
 11 12  2  0
 12 13  1  0
 12 34  1  0
 13 14  1  0
 14 15  2  0
 14 32  1  0
 15 16  1  0
 16 17  2  0
 17 18  1  0
 17 31  1  0
 18 19  2  0
 18 29  1  0
 19 20  1  0
 19 26  1  0
 20 21  2  0
 20 22  1  0
 22 23  1  0
 23 24  1  0
 24 25  1  0
 25 26  1  0
 26 27  2  0
 27 28  1  0
 28 29  1  0
 29 30  1  1
 31 32  1  0
 32 33  2  0
 34 35  1  0
 34 36  2  0
 37 38  2  0
M  CHG  2   2   1  18   1
M  END
