
     RDKit          3D

 38 42  0  0  0  0  0  0  0  0999 V2000
   -6.4910    0.5410    4.0750 C   0  0  0  0  0  0  0  0  0  0  0  0
   -6.4630   -0.4980    3.3080 C   0  0  0  0  0  0  0  0  0  0  0  0
   -5.2700   -0.9280    2.5680 C   0  0  0  0  0  0  0  0  0  0  0  0
   -5.4170   -2.0370    1.8760 C   0  0  0  0  0  0  0  0  0  0  0  0
   -4.5470   -2.8120    1.0270 C   0  0  0  0  0  0  0  0  0  0  0  0
   -2.8970   -2.2770    0.7890 Cl  0  0  0  0  0  0  0  0  0  0  0  0
   -4.0670   -0.1240    2.7320 C   0  0  0  0  0  0  0  0  0  0  0  0
   -4.0760    1.2460    2.1120 C   0  0  0  0  0  0  0  0  0  0  0  0
   -4.1790    1.1510    0.6540 N   0  0  0  0  0  0  0  0  0  0  0  0
   -5.3500    1.1670    0.0330 C   0  0  0  0  0  0  0  0  0  0  0  0
   -6.4230    1.2700    0.7130 O   0  0  0  0  0  0  0  0  0  0  0  0
   -5.4180    1.0770   -1.3190 N   0  0  0  0  0  0  0  0  0  0  0  0
   -4.3030    0.9700   -2.0790 C   0  0  0  0  0  0  0  0  0  0  0  0
   -4.4170    0.8890   -3.4240 N   0  0  0  0  0  0  0  0  0  0  0  0
   -3.2980    0.7890   -4.1550 C   0  0  0  0  0  0  0  0  0  0  0  0
   -2.0490    0.7660   -3.5870 C   0  0  0  0  0  0  0  0  0  0  0  0
   -1.9330    0.8480   -2.2230 C   0  0  0  0  0  0  0  0  0  0  0  0
   -0.6120    0.8010   -1.5390 C   0  0  0  0  0  0  0  0  0  0  0  0
    0.5230    0.7200   -2.4350 N   0  0  2  0  0  0  0  0  0  0  0  0
    0.9400   -0.5400   -2.8840 C   0  0  0  0  0  0  0  0  0  0  0  0
    1.2580   -1.5830   -1.8720 C   0  0  0  0  0  0  0  0  0  0  0  0
    2.7560   -1.6920   -1.6000 C   0  0  0  0  0  0  0  0  0  0  0  0
    3.3930   -0.3610   -1.3700 C   0  0  2  0  0  0  0  0  0  0  0  0
    4.5510   -0.5550   -0.4780 C   0  0  0  0  0  0  0  0  0  0  0  0
    4.5990   -1.1090    0.7500 N   0  0  0  0  0  0  0  0  0  0  0  0
    5.8560   -1.0770    1.1900 C   0  0  0  0  0  0  0  0  0  0  0  0
    6.5900   -0.4860    0.2010 C   0  0  0  0  0  0  0  0  0  0  0  0
    5.7800   -0.1970   -0.7570 O   0  0  0  0  0  0  0  0  0  0  0  0
    8.0530   -0.1980    0.1680 C   0  0  0  0  0  0  0  0  0  0  0  0
    8.5080    0.4420    1.2920 O   0  0  0  0  0  0  0  0  0  0  0  0
    7.7480    0.2140    2.4250 C   0  0  0  0  0  0  0  0  0  0  0  0
    7.6370   -1.1420    2.7380 O   0  0  0  0  0  0  0  0  0  0  0  0
    6.3230   -1.5920    2.5030 C   0  0  0  0  0  0  0  0  0  0  0  0
    2.3510    0.5550   -0.7620 C   0  0  0  0  0  0  0  0  0  0  0  0
    1.7030    1.3700   -1.8250 C   0  0  0  0  0  0  0  0  0  0  0  0
   -3.0770    0.9560   -1.4040 C   0  0  0  0  0  0  0  0  0  0  0  0
   -3.0230    1.0470   -0.0370 C   0  0  0  0  0  0  0  0  0  0  0  0
   -1.9160    1.0340    0.5410 O   0  0  0  0  0  0  0  0  0  0  0  0
  1  2  2  0
  2  3  1  0
  3  4  2  3
  3  7  1  0
  4  5  1  0
  5  6  1  0
  7  8  1  0
  8  9  1  0
  9 10  1  0
  9 37  1  0
 10 11  2  0
 10 12  1  0
 12 13  1  0
 13 14  2  0
 13 36  1  0
 14 15  1  0
 15 16  2  0
 16 17  1  0
 17 18  1  0
 17 36  2  0
 19 18  1  1
 19 20  1  0
 19 35  1  0
 20 21  1  0
 21 22  1  0
 22 23  1  0
 23 24  1  1
 23 34  1  0
 24 25  2  0
 24 28  1  0
 25 26  1  0
 26 27  2  0
 26 33  1  0
 27 28  1  0
 27 29  1  0
 29 30  1  0
 30 31  1  0
 31 32  1  0
 32 33  1  0
 34 35  1  0
 36 37  1  0
 37 38  2  0
M  CHG  2  19   1  25   1
M  END
