
     RDKit          3D

 37 40  0  0  0  0  0  0  0  0999 V2000
   -1.9310   -3.1240   -2.8660 C   0  0  0  0  0  0  0  0  0  0  0  0
   -2.4510   -2.2850   -1.8460 O   0  0  0  0  0  0  0  0  0  0  0  0
   -1.5550   -1.3390   -1.3150 C   0  0  0  0  0  0  0  0  0  0  0  0
   -0.2750   -1.2210   -1.7410 C   0  0  0  0  0  0  0  0  0  0  0  0
    0.6580   -0.2950   -1.2450 C   0  0  0  0  0  0  0  0  0  0  0  0
    2.0210   -0.3210   -1.7480 C   0  0  0  0  0  0  0  0  0  0  0  0
    2.2200    0.0170   -2.9640 O   0  0  0  0  0  0  0  0  0  0  0  0
    3.1680   -0.7040   -1.0050 N   0  0  0  0  0  0  0  0  0  0  0  0
    4.4950   -0.6960   -1.5890 C   0  0  0  0  0  0  0  0  0  0  0  0
    5.5660   -1.1730   -0.7440 C   0  0  0  0  0  0  0  0  0  0  0  0
    5.4360   -1.6330    0.5320 C   0  0  0  0  0  0  0  0  0  0  0  0
    6.5420   -2.0880    1.2690 C   0  0  0  0  0  0  0  0  0  0  0  0
    7.7840   -2.0800    0.7180 C   0  0  0  0  0  0  0  0  0  0  0  0
    7.9330   -1.6210   -0.5670 C   0  0  0  0  0  0  0  0  0  0  0  0
    6.8510   -1.1730   -1.2930 C   0  0  0  0  0  0  0  0  0  0  0  0
    7.0560   -0.7190   -2.5920 O   0  0  0  0  0  0  0  0  0  0  0  0
    0.2070    0.5450   -0.2540 C   0  0  0  0  0  0  0  0  0  0  0  0
    1.2410    1.7190    0.5080 S   0  0  1  0  0  0  0  0  0  0  0  0
    2.2690    1.0390    1.4010 O   0  0  0  0  0  0  0  0  0  0  0  0
    2.0330    2.3840   -0.6070 O   0  0  0  0  0  0  0  0  0  0  0  0
    0.4730    2.9250    1.4060 N   0  0  0  0  0  0  0  0  0  0  0  0
   -0.4260    3.9550    0.9190 C   0  0  0  0  0  0  0  0  0  0  0  0
   -0.2840    5.2880    1.5680 C   0  0  0  0  0  0  0  0  0  0  0  0
   -1.5560    6.2370    0.7230 S   0  0  0  0  0  0  0  0  0  0  0  0
   -2.1710    4.8940   -0.3820 C   0  0  0  0  0  0  0  0  0  0  0  0
   -3.5600    5.0500   -1.6410 Br  0  0  0  0  0  0  0  0  0  0  0  0
   -1.3450    3.8540    0.0040 C   0  0  0  0  0  0  0  0  0  0  0  0
   -1.1180    0.4310    0.1950 C   0  0  0  0  0  0  0  0  0  0  0  0
   -1.9960   -0.4930   -0.3190 C   0  0  0  0  0  0  0  0  0  0  0  0
   -3.3090   -0.6190    0.1120 O   0  0  0  0  0  0  0  0  0  0  0  0
   -3.9080    0.1760    1.1090 C   0  0  0  0  0  0  0  0  0  0  0  0
   -5.3310   -0.2330    1.3270 C   0  0  0  0  0  0  0  0  0  0  0  0
   -5.8640   -1.2190    0.6270 C   0  0  0  0  0  0  0  0  0  0  0  0
   -7.2480   -1.6790    0.7800 C   0  0  0  0  0  0  0  0  0  0  0  0
   -7.9740   -0.9810    1.7430 O   0  0  0  0  0  0  0  0  0  0  0  0
   -7.4220    0.0380    2.4660 C   0  0  0  0  0  0  0  0  0  0  0  0
   -6.1710    0.4330    2.3080 C   0  0  0  0  0  0  0  0  0  0  0  0
  1  2  1  0
  2  3  1  0
  3  4  2  0
  3 29  1  0
  4  5  1  0
  5  6  1  0
  5 17  2  0
  6  7  2  0
  6  8  1  0
  8  9  1  0
  9 10  1  0
 10 11  2  0
 10 15  1  0
 11 12  1  0
 12 13  2  0
 13 14  1  0
 14 15  2  0
 15 16  1  0
 17 18  1  0
 17 28  1  0
 18 19  2  0
 18 20  2  0
 18 21  1  1
 21 22  1  0
 22 23  2  0
 22 27  1  0
 23 24  1  0
 24 25  1  0
 25 26  1  0
 25 27  2  0
 28 29  2  0
 29 30  1  0
 30 31  1  0
 31 32  1  0
 32 33  2  0
 32 37  1  0
 33 34  1  0
 34 35  1  0
 35 36  1  0
 36 37  2  0
M  END
