
     RDKit          3D

 37 40  0  0  0  0  0  0  0  0999 V2000
    5.4050   -3.9390    1.6540 C   0  0  0  0  0  0  0  0  0  0  0  0
    5.3970   -2.6720    0.8570 C   0  0  0  0  0  0  0  0  0  0  0  0
    6.5430   -2.1450    0.3000 C   0  0  0  0  0  0  0  0  0  0  0  0
    6.5010   -0.9780   -0.4270 C   0  0  0  0  0  0  0  0  0  0  0  0
    8.1200   -0.2940   -1.1770 Br  0  0  0  0  0  0  0  0  0  0  0  0
    5.3010   -0.2970   -0.6200 C   0  0  0  0  0  0  0  0  0  0  0  0
    4.1340   -0.8140   -0.0650 C   0  0  0  0  0  0  0  0  0  0  0  0
    2.9280   -0.1350   -0.2550 O   0  0  0  0  0  0  0  0  0  0  0  0
    1.7510   -0.6610    0.3090 C   0  0  0  0  0  0  0  0  0  0  0  0
    0.6110    0.2310   -0.0280 C   0  0  0  0  0  0  0  0  0  0  0  0
    0.8060    1.3640   -0.7860 C   0  0  0  0  0  0  0  0  0  0  0  0
   -0.2430    2.2050   -1.1090 C   0  0  0  0  0  0  0  0  0  0  0  0
   -1.5500    1.9420   -0.6800 C   0  0  0  0  0  0  0  0  0  0  0  0
   -2.5710    2.8460   -1.0660 N   0  0  0  0  0  0  0  0  0  0  0  0
   -2.3160    4.4540   -1.6030 S   0  0  1  0  0  0  0  0  0  0  0  0
   -1.5110    4.4420   -2.8900 O   0  0  0  0  0  0  0  0  0  0  0  0
   -3.6610    5.0410   -1.9690 O   0  0  0  0  0  0  0  0  0  0  0  0
   -1.5560    5.4040   -0.3590 C   0  0  0  0  0  0  0  0  0  0  0  0
   -0.2620    5.5790   -0.1720 C   0  0  0  0  0  0  0  0  0  0  0  0
   -0.0610    6.4150    0.9410 O   0  0  0  0  0  0  0  0  0  0  0  0
   -1.2500    7.1610    1.1270 C   0  0  0  0  0  0  0  0  0  0  0  0
   -2.3000    6.1660    0.6770 C   0  0  0  0  0  0  0  0  0  0  0  0
   -1.7400    0.8130    0.0740 C   0  0  0  0  0  0  0  0  0  0  0  0
   -3.0340    0.4970    0.5480 N   0  0  0  0  0  0  0  0  0  0  0  0
   -3.4020   -1.0190    1.2970 S   0  0  2  0  0  0  0  0  0  0  0  0
   -4.8480   -1.0600    1.7040 O   0  0  0  0  0  0  0  0  0  0  0  0
   -2.5270   -1.2100    2.5000 O   0  0  0  0  0  0  0  0  0  0  0  0
   -3.1430   -2.3710    0.2220 C   0  0  0  0  0  0  0  0  0  0  0  0
   -2.2340   -3.3900    0.5340 C   0  0  0  0  0  0  0  0  0  0  0  0
   -2.0390   -4.4530   -0.3210 C   0  0  0  0  0  0  0  0  0  0  0  0
   -1.0720   -5.5570   -0.0110 C   0  0  0  0  0  0  0  0  0  0  0  0
   -2.7640   -4.4850   -1.4930 C   0  0  0  0  0  0  0  0  0  0  0  0
   -3.6640   -3.4750   -1.8010 C   0  0  0  0  0  0  0  0  0  0  0  0
   -3.8620   -2.4120   -0.9510 C   0  0  0  0  0  0  0  0  0  0  0  0
   -4.7620   -1.3890   -1.2450 O   0  0  0  0  0  0  0  0  0  0  0  0
   -0.6750   -0.0210    0.3890 C   0  0  0  0  0  0  0  0  0  0  0  0
    4.2270   -1.9790    0.6510 C   0  0  0  0  0  0  0  0  0  0  0  0
  1  2  1  0
  2  3  2  0
  2 37  1  0
  3  4  1  0
  4  5  1  0
  4  6  2  0
  6  7  1  0
  7  8  1  0
  7 37  2  0
  8  9  1  0
  9 10  1  0
 10 11  2  0
 10 36  1  0
 11 12  1  0
 12 13  2  0
 13 14  1  0
 13 23  1  0
 15 14  1  1
 15 16  2  0
 15 17  2  0
 15 18  1  0
 18 19  2  0
 18 22  1  0
 19 20  1  0
 20 21  1  0
 21 22  1  0
 23 24  1  0
 23 36  2  0
 25 24  1  6
 25 26  2  0
 25 27  2  0
 25 28  1  0
 28 29  2  0
 28 34  1  0
 29 30  1  0
 30 31  1  0
 30 32  2  0
 32 33  1  0
 33 34  2  0
 34 35  1  0
M  END
