
     RDKit          3D

 37 40  0  0  0  0  0  0  0  0999 V2000
   -2.2950   -2.4660   -3.3970 C   0  0  0  0  0  0  0  0  0  0  0  0
   -2.8210   -1.6310   -2.4150 O   0  0  0  0  0  0  0  0  0  0  0  0
   -2.0540   -0.7590   -1.6580 C   0  0  0  0  0  0  0  0  0  0  0  0
   -0.6940   -0.6140   -1.7870 C   0  0  0  0  0  0  0  0  0  0  0  0
    0.0230    0.2670   -1.0060 C   0  0  0  0  0  0  0  0  0  0  0  0
   -0.5890    1.0590   -0.0430 C   0  0  0  0  0  0  0  0  0  0  0  0
    0.2090    1.9970    0.7840 C   0  0  0  0  0  0  0  0  0  0  0  0
    0.6730    1.1760    2.2850 S   0  0  1  0  0  0  0  0  0  0  0  0
    1.4790    2.0990    3.1700 O   0  0  0  0  0  0  0  0  0  0  0  0
   -0.5590    0.7640    3.0690 O   0  0  0  0  0  0  0  0  0  0  0  0
    1.6120   -0.2150    1.9800 N   0  0  0  0  0  0  0  0  0  0  0  0
    2.8770   -0.0870    1.3270 C   0  0  0  0  0  0  0  0  0  0  0  0
    3.8180    0.8340    1.7020 C   0  0  0  0  0  0  0  0  0  0  0  0
    5.0380    0.9240    1.0460 C   0  0  0  0  0  0  0  0  0  0  0  0
    5.3670    0.1070   -0.0020 C   0  0  0  0  0  0  0  0  0  0  0  0
    6.6150    0.1180   -0.7320 C   0  0  0  0  0  0  0  0  0  0  0  0
    7.7520    0.1860   -0.0790 C   0  0  0  0  0  0  0  0  0  0  0  0
    8.0310    0.2750    1.7170 S   0  0  0  0  0  0  0  0  0  0  0  0
    9.6610   -0.5070    1.6200 C   0  0  0  0  0  0  0  0  0  0  0  0
   10.1780   -1.1530    2.5270 O   0  0  0  0  0  0  0  0  0  0  0  0
   10.0980   -0.1820    0.3220 N   0  0  0  0  0  0  0  0  0  0  0  0
    9.1230    0.1880   -0.6000 C   0  0  0  0  0  0  0  0  0  0  0  0
    9.3550    0.5130   -1.8160 O   0  0  0  0  0  0  0  0  0  0  0  0
    4.4110   -0.8290   -0.3840 C   0  0  0  0  0  0  0  0  0  0  0  0
    3.1990   -0.9290    0.2590 C   0  0  0  0  0  0  0  0  0  0  0  0
   -1.9540    0.9190    0.0920 C   0  0  0  0  0  0  0  0  0  0  0  0
   -2.6810    0.0280   -0.6980 C   0  0  0  0  0  0  0  0  0  0  0  0
   -4.0660   -0.0950   -0.5420 O   0  0  0  0  0  0  0  0  0  0  0  0
   -4.7010    0.7090    0.4480 C   0  0  0  0  0  0  0  0  0  0  0  0
   -6.1490    0.3880    0.3760 C   0  0  0  0  0  0  0  0  0  0  0  0
   -6.9730    0.9870   -0.5790 C   0  0  0  0  0  0  0  0  0  0  0  0
   -8.3220    0.6960   -0.6500 C   0  0  0  0  0  0  0  0  0  0  0  0
   -8.9010   -0.2050    0.2300 C   0  0  0  0  0  0  0  0  0  0  0  0
  -10.2490   -0.5140    0.1790 O   0  0  0  0  0  0  0  0  0  0  0  0
   -8.0720   -0.7800    1.1600 C   0  0  0  0  0  0  0  0  0  0  0  0
   -8.8570   -2.0220    2.3820 Br  0  0  0  0  0  0  0  0  0  0  0  0
   -6.7090   -0.5070    1.2560 C   0  0  0  0  0  0  0  0  0  0  0  0
  1  2  1  0
  2  3  1  0
  3  4  2  0
  3 27  1  0
  4  5  1  0
  5  6  2  0
  6  7  1  0
  6 26  1  0
  8  7  1  6
  8  9  2  0
  8 10  2  0
  8 11  1  0
 11 12  1  0
 12 13  2  0
 12 25  1  0
 13 14  1  0
 14 15  2  0
 15 16  1  0
 15 24  1  0
 16 17  2  3
 17 18  1  0
 17 22  1  0
 18 19  1  0
 19 20  2  0
 19 21  1  0
 21 22  1  0
 22 23  2  0
 24 25  2  0
 26 27  2  0
 27 28  1  0
 28 29  1  0
 29 30  1  0
 30 31  2  0
 30 37  1  0
 31 32  1  0
 32 33  2  0
 33 34  1  0
 33 35  1  0
 35 36  1  0
 35 37  2  0
M  END
