
     RDKit          3D

 37 40  0  0  0  0  0  0  0  0999 V2000
    9.9270   -0.3410    0.0720 O   0  0  0  0  0  0  0  0  0  0  0  0
    8.8720    0.0290   -0.9320 S   0  0  0  0  0  0  0  0  0  0  0  0
    7.4690   -1.0600   -0.7960 C   0  0  0  0  0  0  0  0  0  0  0  0
    7.1750   -1.3820    0.6420 C   0  0  0  0  0  0  0  0  0  0  0  0
    6.8160    0.0890    1.5530 S   0  0  1  0  0  0  0  0  0  0  0  0
    6.7540   -0.1860    3.0350 O   0  0  0  0  0  0  0  0  0  0  0  0
    8.0610    0.9720    1.3980 O   0  0  0  0  0  0  0  0  0  0  0  0
    5.4750    1.0050    0.9610 C   0  0  0  0  0  0  0  0  0  0  0  0
    4.1310    0.3860    0.9060 C   0  0  2  0  0  0  0  0  0  0  0  0
    3.7670   -0.0450    2.3300 C   0  0  0  0  0  0  0  0  0  0  0  0
    3.7600    1.0590    3.1530 O   0  0  0  0  0  0  0  0  0  0  0  0
    3.9020   -0.6620   -0.1140 C   0  0  0  0  0  0  0  0  0  0  0  0
    2.4410   -1.0590   -0.1660 C   0  0  0  0  0  0  0  0  0  0  0  0
    1.5190    0.0930   -0.4800 C   0  0  2  0  0  0  0  0  0  0  0  0
    0.6670   -0.2440   -1.6290 C   0  0  0  0  0  0  0  0  0  0  0  0
    1.2440   -0.5330   -2.8410 C   0  0  0  0  0  0  0  0  0  0  0  0
    0.4650   -0.8510   -3.9250 C   0  0  0  0  0  0  0  0  0  0  0  0
   -0.8870   -0.8890   -3.8300 C   0  0  0  0  0  0  0  0  0  0  0  0
   -1.9670   -1.3390   -5.3660 Br  0  0  0  0  0  0  0  0  0  0  0  0
   -1.5210   -0.6010   -2.6130 C   0  0  0  0  0  0  0  0  0  0  0  0
   -2.9400   -0.6580   -2.5840 N   0  0  0  0  0  0  0  0  0  0  0  0
   -3.7490   -0.4190   -1.4540 C   0  0  0  0  0  0  0  0  0  0  0  0
   -3.2360   -0.1340   -0.3740 O   0  0  0  0  0  0  0  0  0  0  0  0
   -5.1740   -0.4980   -1.5240 N   0  0  0  0  0  0  0  0  0  0  0  0
   -6.0870   -0.2920   -0.4890 C   0  0  0  0  0  0  0  0  0  0  0  0
   -5.7840   -0.1780    0.8410 C   0  0  0  0  0  0  0  0  0  0  0  0
   -6.7940    0.0470    1.7910 C   0  0  0  0  0  0  0  0  0  0  0  0
   -8.1080    0.1620    1.4370 C   0  0  0  0  0  0  0  0  0  0  0  0
   -8.4320    0.0500    0.1020 C   0  0  0  0  0  0  0  0  0  0  0  0
   -7.4500   -0.1680   -0.8080 C   0  0  0  0  0  0  0  0  0  0  0  0
   -9.7760    0.1720   -0.2150 O   0  0  0  0  0  0  0  0  0  0  0  0
  -10.6290    1.0640    0.5190 C   0  0  0  0  0  0  0  0  0  0  0  0
  -10.3220    1.0830    1.9790 C   0  0  0  0  0  0  0  0  0  0  0  0
   -9.1400    0.3830    2.3220 O   0  0  0  0  0  0  0  0  0  0  0  0
   -0.7180   -0.2880   -1.5520 C   0  0  0  0  0  0  0  0  0  0  0  0
    2.3940    1.2970   -0.6970 C   0  0  0  0  0  0  0  0  0  0  0  0
    3.1670    1.5460    0.5540 C   0  0  0  0  0  0  0  0  0  0  0  0
  1  2  2  0
  2  3  1  0
  3  4  1  0
  5  4  1  6
  5  6  2  0
  5  7  2  0
  5  8  1  0
  9  8  1  1
  9 10  1  0
  9 12  1  0
  9 37  1  0
 10 11  1  0
 12 13  1  0
 13 14  1  0
 14 15  1  6
 14 36  1  0
 15 16  2  0
 15 35  1  0
 16 17  1  0
 17 18  2  0
 18 19  1  0
 18 20  1  0
 20 21  1  0
 20 35  2  0
 21 22  1  0
 22 23  2  0
 22 24  1  0
 24 25  1  0
 25 26  2  0
 25 30  1  0
 26 27  1  0
 27 28  2  0
 28 29  1  0
 28 34  1  0
 29 30  2  0
 29 31  1  0
 31 32  1  0
 32 33  1  0
 33 34  1  0
 36 37  1  0
M  END
