
     RDKit          3D

 37 40  0  0  0  0  0  0  0  0999 V2000
   -8.9400   -0.4720   -1.7510 C   0  0  0  0  0  0  0  0  0  0  0  0
   -7.7380   -0.7570   -0.9910 N   0  0  0  0  0  0  0  0  0  0  0  0
   -7.3410    0.4650   -0.3170 C   0  0  1  0  0  0  0  0  0  0  0  0
   -8.4730    0.8490    0.5940 C   0  0  0  0  0  0  0  0  0  0  0  0
   -8.5640   -0.0680    1.7930 C   0  0  0  0  0  0  0  0  0  0  0  0
   -7.3550    0.0280    2.6490 C   0  0  0  0  0  0  0  0  0  0  0  0
   -6.1330    0.1060    1.8220 C   0  0  0  0  0  0  0  0  0  0  0  0
   -4.9390   -0.0450    2.5510 C   0  0  0  0  0  0  0  0  0  0  0  0
   -3.7200    0.0100    1.8790 C   0  0  0  0  0  0  0  0  0  0  0  0
   -3.6580    0.2080    0.5250 C   0  0  0  0  0  0  0  0  0  0  0  0
   -2.4340    0.2690   -0.1840 N   0  0  0  0  0  0  0  0  0  0  0  0
   -1.1340    0.1600    0.3000 C   0  0  0  0  0  0  0  0  0  0  0  0
   -0.9510   -0.0200    1.5160 O   0  0  0  0  0  0  0  0  0  0  0  0
    0.0460    0.2440   -0.5350 N   0  0  0  0  0  0  0  0  0  0  0  0
    1.3210    0.0920    0.1060 C   0  0  0  0  0  0  0  0  0  0  0  0
    1.8160   -1.2990    0.2750 C   0  0  0  0  0  0  0  0  0  0  0  0
    3.0940   -1.3590    0.9450 N   0  0  0  0  0  0  0  0  0  0  0  0
    4.2390   -0.7690    0.3910 C   0  0  0  0  0  0  0  0  0  0  0  0
    4.1740   -0.1780   -0.7090 O   0  0  0  0  0  0  0  0  0  0  0  0
    5.5570   -0.8190    1.0760 C   0  0  0  0  0  0  0  0  0  0  0  0
    5.5760   -1.4120    2.1600 O   0  0  0  0  0  0  0  0  0  0  0  0
    6.6960   -0.2320    0.5210 N   0  0  0  0  0  0  0  0  0  0  0  0
    7.9800   -0.2290    1.1000 C   0  0  0  0  0  0  0  0  0  0  0  0
    8.2990   -0.7180    2.3270 C   0  0  0  0  0  0  0  0  0  0  0  0
    9.6070   -0.6850    2.8350 C   0  0  0  0  0  0  0  0  0  0  0  0
   10.6180   -0.1350    2.0640 C   0  0  0  0  0  0  0  0  0  0  0  0
   10.3280    0.3650    0.8280 C   0  0  0  0  0  0  0  0  0  0  0  0
   11.3760    0.9630   -0.0330 C   0  0  0  0  0  0  0  0  0  0  0  0
   11.4430    2.3870    0.2290 N   0  0  0  0  0  0  0  0  0  0  0  0
    9.0470    0.3180    0.3620 C   0  0  0  0  0  0  0  0  0  0  0  0
   -0.1070    0.5690   -1.8990 C   0  0  0  0  0  0  0  0  0  0  0  0
   -0.3670   -0.4700   -2.9060 C   0  0  2  0  0  0  0  0  0  0  0  0
    0.4510   -1.6040   -3.2920 C   0  0  0  0  0  0  0  0  0  0  0  0
    0.4760   -0.4030   -4.1860 C   0  0  0  0  0  0  0  0  0  0  0  0
   -4.8650    0.3510   -0.1540 C   0  0  0  0  0  0  0  0  0  0  0  0
   -4.7700    0.5570   -1.6030 C   0  0  0  0  0  0  0  0  0  0  0  0
   -6.1070    0.3040    0.4740 C   0  0  0  0  0  0  0  0  0  0  0  0
  1  2  1  0
  3  2  1  1
  3  4  1  0
  3 37  1  0
  4  5  1  0
  5  6  1  0
  6  7  1  0
  7  8  2  0
  7 37  1  0
  8  9  1  0
  9 10  2  0
 10 11  1  0
 10 35  1  0
 11 12  1  0
 12 13  2  0
 12 14  1  0
 14 15  1  0
 14 31  1  0
 15 16  1  0
 16 17  1  0
 17 18  1  0
 18 19  2  0
 18 20  1  0
 20 21  2  0
 20 22  1  0
 22 23  1  0
 23 24  2  0
 23 30  1  0
 24 25  1  0
 25 26  2  0
 26 27  1  0
 27 28  1  0
 27 30  2  0
 28 29  1  0
 32 31  1  1
 32 33  1  0
 32 34  1  0
 33 34  1  0
 35 36  1  0
 35 37  2  0
M  CHG  1   2   1
M  END
