
     RDKit          3D

 39 41  0  0  0  0  0  0  0  0999 V2000
    4.5110    3.5340    1.7480 C   0  0  0  0  0  0  0  0  0  0  0  0
    4.2450    2.0750    1.9750 C   0  0  0  0  0  0  0  0  0  0  0  0
    3.9690    1.5910    3.0990 O   0  0  0  0  0  0  0  0  0  0  0  0
    4.3110    1.2000    0.8630 N   0  0  0  0  0  0  0  0  0  0  0  0
    4.0780   -0.2310    0.9440 C   0  0  1  0  0  0  0  0  0  0  0  0
    3.0160   -0.6070   -0.0150 C   0  0  2  0  0  0  0  0  0  0  0  0
    1.8680   -1.0270    0.6200 O   0  0  0  0  0  0  0  0  0  0  0  0
    0.7260   -0.2590    0.2760 C   0  0  2  0  0  0  0  0  0  0  0  0
    0.0800    0.2810    1.4610 C   0  0  1  0  0  0  0  0  0  0  0  0
   -0.0050    1.7930    1.4360 C   0  0  0  0  0  0  0  0  0  0  0  0
    1.1630    2.4290    1.1210 O   0  0  0  0  0  0  0  0  0  0  0  0
   -1.1720   -0.1590    1.7820 O   0  0  0  0  0  0  0  0  0  0  0  0
   -1.9870   -0.4100    0.6970 C   0  0  1  0  0  0  0  0  0  0  0  0
   -2.3560    0.6300   -0.0500 O   0  0  0  0  0  0  0  0  0  0  0  0
   -3.6610    1.0030   -0.1170 C   0  0  2  0  0  0  0  0  0  0  0  0
   -4.3400    0.8960   -1.4400 C   0  0  1  0  0  0  0  0  0  0  0  0
   -5.3900   -0.2230   -1.4610 C   0  0  0  0  0  0  0  0  0  0  0  0
   -4.7470   -1.4110   -1.1750 O   0  0  0  0  0  0  0  0  0  0  0  0
   -5.1140    2.1060   -1.7550 N   0  0  0  0  0  0  0  0  0  0  0  0
   -6.0810    2.3960   -0.7240 C   0  0  0  0  0  0  0  0  0  0  0  0
   -5.4760    2.3800    0.6670 C   0  0  2  0  0  0  0  0  0  0  0  0
   -5.8480    3.5270    1.3990 O   0  0  0  0  0  0  0  0  0  0  0  0
   -3.9700    2.3540    0.4760 C   0  0  1  0  0  0  0  0  0  0  0  0
   -3.3250    2.5270    1.7130 O   0  0  0  0  0  0  0  0  0  0  0  0
   -1.3630   -1.5850   -0.0230 C   0  0  2  0  0  0  0  0  0  0  0  0
   -1.2180   -2.7320    0.8430 N   0  0  0  0  0  0  0  0  0  0  0  0
   -1.9640   -3.9190    0.5770 C   0  0  0  0  0  0  0  0  0  0  0  0
   -1.7830   -5.0670    1.4910 C   0  0  0  0  0  0  0  0  0  0  0  0
   -2.7180   -3.9050   -0.4070 O   0  0  0  0  0  0  0  0  0  0  0  0
   -0.0890   -1.1180   -0.6550 C   0  0  1  0  0  0  0  0  0  0  0  0
   -0.3770   -0.4670   -1.8720 O   0  0  0  0  0  0  0  0  0  0  0  0
    3.3670   -1.6390   -0.8990 O   0  0  0  0  0  0  0  0  0  0  0  0
    4.5350   -1.2320   -1.5400 C   0  0  2  0  0  0  0  0  0  0  0  0
    4.6860   -1.9980   -2.8410 C   0  0  0  0  0  0  0  0  0  0  0  0
    5.8240   -1.6200   -3.5100 O   0  0  0  0  0  0  0  0  0  0  0  0
    5.6570   -1.4950   -0.5860 C   0  0  1  0  0  0  0  0  0  0  0  0
    6.8390   -0.9900   -1.1820 O   0  0  0  0  0  0  0  0  0  0  0  0
    5.4210   -0.8790    0.7380 C   0  0  2  0  0  0  0  0  0  0  0  0
    5.6000   -1.8870    1.7130 O   0  0  0  0  0  0  0  0  0  0  0  0
  1  2  1  0
  2  3  2  0
  2  4  1  0
  5  4  1  6
  5  6  1  0
  5 38  1  0
  6  7  1  1
  6 32  1  0
  8  7  1  1
  8  9  1  0
  8 30  1  0
  9 10  1  6
  9 12  1  0
 10 11  1  0
 12 13  1  0
 13 14  1  6
 13 25  1  0
 15 14  1  6
 15 16  1  0
 15 23  1  0
 16 17  1  1
 16 19  1  0
 17 18  1  0
 19 20  1  0
 20 21  1  0
 21 22  1  1
 21 23  1  0
 23 24  1  1
 25 26  1  1
 25 30  1  0
 26 27  1  0
 27 28  1  0
 27 29  2  0
 30 31  1  6
 32 33  1  0
 33 34  1  6
 33 36  1  0
 34 35  1  0
 36 37  1  6
 36 38  1  0
 38 39  1  1
M  CHG  1  19   1
M  END
