
     RDKit          3D

 37 40  0  0  0  0  0  0  0  0999 V2000
   -9.3980    0.5410    1.8290 C   0  0  0  0  0  0  0  0  0  0  0  0
   -9.3730    1.3290    0.5630 C   0  0  0  0  0  0  0  0  0  0  0  0
   -8.5210    0.8620   -0.4270 O   0  0  0  0  0  0  0  0  0  0  0  0
   -7.1610    0.7140   -0.3440 C   0  0  0  0  0  0  0  0  0  0  0  0
   -6.5110    1.0490    0.8220 C   0  0  0  0  0  0  0  0  0  0  0  0
   -5.1350    0.8980    0.9040 C   0  0  0  0  0  0  0  0  0  0  0  0
   -4.0200    1.2300    2.2320 S   0  0  0  0  0  0  0  0  0  0  0  0
   -2.5300    0.7210    1.3620 C   0  0  0  0  0  0  0  0  0  0  0  0
   -1.2190    0.7010    1.7850 C   0  0  0  0  0  0  0  0  0  0  0  0
   -0.2280    0.2480    0.8890 C   0  0  0  0  0  0  0  0  0  0  0  0
    1.1000    0.2040    1.3410 N   0  0  0  0  0  0  0  0  0  0  0  0
    2.0450   -1.2120    1.3100 S   0  0  1  0  0  0  0  0  0  0  0  0
    3.3420   -1.0120    2.0660 O   0  0  0  0  0  0  0  0  0  0  0  0
    1.2730   -2.2520    2.1300 O   0  0  0  0  0  0  0  0  0  0  0  0
    2.3370   -1.8900   -0.2790 C   0  0  0  0  0  0  0  0  0  0  0  0
    3.0390   -0.9070   -1.1830 C   0  0  0  0  0  0  0  0  0  0  0  0
    4.3260   -0.4780   -0.6800 N   0  0  0  0  0  0  0  0  0  0  0  0
    5.3930   -1.3910   -0.4770 C   0  0  0  0  0  0  0  0  0  0  0  0
    5.1390   -2.5860   -0.7690 O   0  0  0  0  0  0  0  0  0  0  0  0
    6.6850   -0.9700    0.0340 C   0  0  0  0  0  0  0  0  0  0  0  0
    6.9210    0.3340    0.3400 C   0  0  0  0  0  0  0  0  0  0  0  0
    8.1410    0.7910    0.8330 C   0  0  0  0  0  0  0  0  0  0  0  0
    8.3840    2.1010    1.1420 O   0  0  0  0  0  0  0  0  0  0  0  0
    7.4480    3.1350    1.0030 C   0  0  0  0  0  0  0  0  0  0  0  0
    9.1460   -0.1410    1.0120 C   0  0  0  0  0  0  0  0  0  0  0  0
    8.9550   -1.4590    0.7190 C   0  0  0  0  0  0  0  0  0  0  0  0
   10.3580   -2.7220    0.9760 Br  0  0  0  0  0  0  0  0  0  0  0  0
    7.7130   -1.8790    0.2250 C   0  0  0  0  0  0  0  0  0  0  0  0
    7.6230   -3.2150   -0.0360 O   0  0  0  0  0  0  0  0  0  0  0  0
   -0.6760   -0.1320   -0.3320 C   0  0  0  0  0  0  0  0  0  0  0  0
   -1.9820   -0.1030   -0.7240 C   0  0  0  0  0  0  0  0  0  0  0  0
   -2.9980    0.3490    0.1610 C   0  0  0  0  0  0  0  0  0  0  0  0
   -4.3300    0.4350   -0.0850 C   0  0  0  0  0  0  0  0  0  0  0  0
   -5.0320    0.0990   -1.2740 C   0  0  0  0  0  0  0  0  0  0  0  0
   -6.3770    0.2410   -1.3700 C   0  0  0  0  0  0  0  0  0  0  0  0
   -7.0470   -0.0930   -2.5410 O   0  0  0  0  0  0  0  0  0  0  0  0
   -6.3920   -0.5920   -3.6880 C   0  0  0  0  0  0  0  0  0  0  0  0
  1  2  1  0
  2  3  1  0
  3  4  1  0
  4  5  2  0
  4 35  1  0
  5  6  1  0
  6  7  1  0
  6 33  2  0
  7  8  1  0
  8  9  2  0
  8 32  1  0
  9 10  1  0
 10 11  1  0
 10 30  2  0
 11 12  1  0
 12 13  2  0
 12 14  2  0
 12 15  1  6
 15 16  1  0
 16 17  1  0
 17 18  1  0
 18 19  2  0
 18 20  1  0
 20 21  2  0
 20 28  1  0
 21 22  1  0
 22 23  1  0
 22 25  2  0
 23 24  1  0
 25 26  1  0
 26 27  1  0
 26 28  2  0
 28 29  1  0
 30 31  1  0
 31 32  2  0
 32 33  1  0
 33 34  1  0
 34 35  2  0
 35 36  1  0
 36 37  1  0
M  END
