
     RDKit          3D

 37 40  0  0  0  0  0  0  0  0999 V2000
   -1.4830   -3.3640    1.0640 C   0  0  0  0  0  0  0  0  0  0  0  0
   -2.4720   -3.3710   -0.4440 S   0  0  0  0  0  0  0  0  0  0  0  0
   -4.1790   -2.9880   -0.0140 C   0  0  0  0  0  0  0  0  0  0  0  0
   -4.9710   -4.0820    0.2980 C   0  0  0  0  0  0  0  0  0  0  0  0
   -4.4840   -5.4180    0.2840 N   0  0  0  0  0  0  0  0  0  0  0  0
   -6.2980   -3.8110    0.6310 C   0  0  0  0  0  0  0  0  0  0  0  0
   -6.8010   -2.5170    0.6440 C   0  0  0  0  0  0  0  0  0  0  0  0
   -5.9830   -1.4610    0.3260 C   0  0  0  0  0  0  0  0  0  0  0  0
   -6.6000    0.3430    0.3170 Br  0  0  0  0  0  0  0  0  0  0  0  0
   -4.6810   -1.7110    0.0020 C   0  0  0  0  0  0  0  0  0  0  0  0
   -3.7970   -0.6060   -0.3140 N   0  0  0  0  0  0  0  0  0  0  0  0
   -3.1410    0.1150    0.7000 C   0  0  0  0  0  0  0  0  0  0  0  0
   -3.4370   -0.3320    1.8980 O   0  0  0  0  0  0  0  0  0  0  0  0
   -2.2330    1.2340    0.6330 C   0  0  0  0  0  0  0  0  0  0  0  0
   -1.6560    1.7350   -0.4620 O   0  0  0  0  0  0  0  0  0  0  0  0
   -0.7800    1.3610   -1.4310 C   0  0  0  0  0  0  0  0  0  0  0  0
    0.5790    1.5140   -1.0270 C   0  0  0  0  0  0  0  0  0  0  0  0
    0.8980    1.9660    0.1540 O   0  0  0  0  0  0  0  0  0  0  0  0
    1.2260    2.4150    1.3300 C   0  0  0  0  0  0  0  0  0  0  0  0
    2.0740    1.4670    2.1950 C   0  0  0  0  0  0  0  0  0  0  0  0
    3.2850    1.1120    1.6960 O   0  0  0  0  0  0  0  0  0  0  0  0
    4.4310    1.8100    1.4570 C   0  0  0  0  0  0  0  0  0  0  0  0
    4.5840    3.1240    1.7290 C   0  0  0  0  0  0  0  0  0  0  0  0
    5.7610    3.8410    1.4720 C   0  0  0  0  0  0  0  0  0  0  0  0
    6.8100    3.1430    0.9130 C   0  0  0  0  0  0  0  0  0  0  0  0
    6.7190    1.7910    0.6130 C   0  0  0  0  0  0  0  0  0  0  0  0
    7.8710    1.1160    0.0240 C   0  0  0  0  0  0  0  0  0  0  0  0
    8.8910    1.8020   -0.2490 O   0  0  0  0  0  0  0  0  0  0  0  0
    7.8460   -0.2260   -0.2190 O   0  0  0  0  0  0  0  0  0  0  0  0
    5.5470    1.1680    0.8890 C   0  0  0  0  0  0  0  0  0  0  0  0
    1.5890    1.1670   -1.9420 C   0  0  0  0  0  0  0  0  0  0  0  0
    1.2110    0.6940   -3.1880 C   0  0  0  0  0  0  0  0  0  0  0  0
   -0.0870    0.5610   -3.5340 C   0  0  0  0  0  0  0  0  0  0  0  0
   -1.1180    0.8840   -2.6870 C   0  0  0  0  0  0  0  0  0  0  0  0
   -2.3620    0.6960   -3.2000 O   0  0  0  0  0  0  0  0  0  0  0  0
   -2.5370   -0.1320   -4.2870 C   0  0  0  0  0  0  0  0  0  0  0  0
   -0.8530   -0.0390   -5.0250 S   0  0  0  0  0  0  0  0  0  0  0  0
  1  2  1  0
  2  3  1  0
  3  4  2  0
  3 10  1  0
  4  5  1  0
  4  6  1  0
  6  7  2  0
  7  8  1  0
  8  9  1  0
  8 10  2  0
 10 11  1  0
 11 12  1  0
 12 13  2  0
 12 14  1  0
 14 15  1  0
 15 16  1  0
 16 17  1  0
 16 34  2  0
 17 18  1  0
 17 31  2  0
 18 19  1  0
 19 20  1  0
 20 21  1  0
 21 22  1  0
 22 23  2  0
 22 30  1  0
 23 24  1  0
 24 25  2  0
 25 26  1  0
 26 27  1  0
 26 30  2  0
 27 28  2  0
 27 29  1  0
 31 32  1  0
 32 33  2  0
 33 34  1  0
 33 37  1  0
 34 35  1  0
 35 36  1  0
 36 37  1  0
M  END
