
     RDKit          3D

 37 40  0  0  0  0  0  0  0  0999 V2000
    3.8010   -3.0480    2.6480 C   0  0  0  0  0  0  0  0  0  0  0  0
    5.0150   -3.0950    1.9300 O   0  0  0  0  0  0  0  0  0  0  0  0
    5.2270   -2.2000    0.9060 C   0  0  0  0  0  0  0  0  0  0  0  0
    4.2320   -1.2640    0.5990 C   0  0  0  0  0  0  0  0  0  0  0  0
    4.4450   -0.3860   -0.4080 C   0  0  0  0  0  0  0  0  0  0  0  0
    3.5050    0.5810   -0.8100 N   0  0  0  0  0  0  0  0  0  0  0  0
    2.1190    0.6170   -0.5730 C   0  0  0  0  0  0  0  0  0  0  0  0
    1.6660   -0.3690    0.0970 O   0  0  0  0  0  0  0  0  0  0  0  0
    1.2070    1.6770   -1.0250 C   0  0  0  0  0  0  0  0  0  0  0  0
    1.4010    2.6490   -1.9620 C   0  0  0  0  0  0  0  0  0  0  0  0
    2.6110    2.8420   -2.8490 C   0  0  0  0  0  0  0  0  0  0  0  0
    0.3560    3.4060   -1.9820 O   0  0  0  0  0  0  0  0  0  0  0  0
   -0.5630    3.0130   -1.1040 C   0  0  0  0  0  0  0  0  0  0  0  0
   -1.8630    3.7120   -0.9110 C   0  0  0  0  0  0  0  0  0  0  0  0
   -0.0930    1.9220   -0.4640 C   0  0  0  0  0  0  0  0  0  0  0  0
   -0.5860    1.0420    0.5940 C   0  0  0  0  0  0  0  0  0  0  0  0
   -1.8910    1.3330    1.0670 N   0  0  0  0  0  0  0  0  0  0  0  0
   -2.4410    0.6400    2.2120 C   0  0  0  0  0  0  0  0  0  0  0  0
   -1.6800   -0.2310    2.7280 O   0  0  0  0  0  0  0  0  0  0  0  0
   -3.7640    0.8970    2.7810 C   0  0  0  0  0  0  0  0  0  0  0  0
   -4.9700    1.4960    1.6360 S   0  0  0  0  0  0  0  0  0  0  0  0
   -5.8200    0.3260    0.6510 C   0  0  0  0  0  0  0  0  0  0  0  0
   -7.0170   -0.2410    1.1570 C   0  0  0  0  0  0  0  0  0  0  0  0
   -7.7820   -1.1130    0.4430 C   0  0  0  0  0  0  0  0  0  0  0  0
   -8.9630   -1.6440    1.0000 O   0  0  0  0  0  0  0  0  0  0  0  0
   -7.4140   -1.4830   -0.8210 C   0  0  0  0  0  0  0  0  0  0  0  0
   -6.2530   -0.9410   -1.3250 C   0  0  0  0  0  0  0  0  0  0  0  0
   -5.4650   -0.0430   -0.5890 C   0  0  0  0  0  0  0  0  0  0  0  0
   -4.0140    0.5460   -1.4730 S   0  0  0  0  0  0  0  0  0  0  0  0
   -2.7620   -0.7780   -1.2820 C   0  0  0  0  0  0  0  0  0  0  0  0
   -3.3760   -2.3790   -2.2030 Br  0  0  0  0  0  0  0  0  0  0  0  0
    5.6680   -0.4450   -1.1170 C   0  0  0  0  0  0  0  0  0  0  0  0
    6.6320   -1.3700   -0.8010 C   0  0  0  0  0  0  0  0  0  0  0  0
    6.4230   -2.2680    0.2240 C   0  0  0  0  0  0  0  0  0  0  0  0
    7.5580   -3.0560    0.2960 O   0  0  0  0  0  0  0  0  0  0  0  0
    8.5320   -2.6010   -0.6360 C   0  0  0  0  0  0  0  0  0  0  0  0
    7.8790   -1.5830   -1.3720 O   0  0  0  0  0  0  0  0  0  0  0  0
  1  2  1  0
  2  3  1  0
  3  4  2  0
  3 34  1  0
  4  5  1  0
  5  6  1  0
  5 32  2  0
  6  7  1  0
  7  8  2  0
  7  9  1  0
  9 10  2  0
  9 15  1  0
 10 11  1  0
 10 12  1  0
 12 13  1  0
 13 14  1  0
 13 15  2  0
 15 16  1  0
 16 17  1  0
 17 18  1  0
 18 19  2  0
 18 20  1  0
 20 21  1  0
 21 22  1  0
 22 23  2  0
 22 28  1  0
 23 24  1  0
 24 25  1  0
 24 26  2  0
 26 27  1  0
 27 28  2  0
 28 29  1  0
 29 30  1  0
 30 31  1  0
 32 33  1  0
 33 34  2  0
 33 37  1  0
 34 35  1  0
 35 36  1  0
 36 37  1  0
M  END
