
     RDKit          3D

 37 40  0  0  0  0  0  0  0  0999 V2000
   -2.0480    2.4150   -0.6930 C   0  0  0  0  0  0  0  0  0  0  0  0
   -1.8190    0.9560   -1.0890 C   0  0  0  0  0  0  0  0  0  0  0  0
   -0.7250    0.4730   -0.2100 C   0  0  0  0  0  0  0  0  0  0  0  0
    0.5570    0.5970   -0.7330 C   0  0  0  0  0  0  0  0  0  0  0  0
    1.6990    0.2480   -0.0030 C   0  0  0  0  0  0  0  0  0  0  0  0
    2.9370    0.4280   -0.6390 N   0  0  0  0  0  0  0  0  0  0  0  0
    4.1850   -0.0570   -0.2160 C   0  0  0  0  0  0  0  0  0  0  0  0
    4.2420   -0.7480    0.8630 O   0  0  0  0  0  0  0  0  0  0  0  0
    5.4250    0.1920   -0.9570 C   0  0  0  0  0  0  0  0  0  0  0  0
    6.6430   -0.2900   -0.4630 C   0  0  0  0  0  0  0  0  0  0  0  0
    7.8280   -0.0800   -1.1280 C   0  0  0  0  0  0  0  0  0  0  0  0
    9.1500   -0.5510   -0.6740 C   0  0  0  0  0  0  0  0  0  0  0  0
    9.0750   -1.4230    0.4770 N   0  0  0  0  0  0  0  0  0  0  0  0
    7.7510    0.6290   -2.3060 C   0  0  0  0  0  0  0  0  0  0  0  0
    6.5770    1.1040   -2.8010 C   0  0  0  0  0  0  0  0  0  0  0  0
    6.5440    1.7460   -3.8780 O   0  0  0  0  0  0  0  0  0  0  0  0
    5.4300    0.8670   -2.1000 N   0  0  0  0  0  0  0  0  0  0  0  0
    1.5530   -0.2230    1.2500 C   0  0  0  0  0  0  0  0  0  0  0  0
    0.2840   -0.3470    1.7680 C   0  0  0  0  0  0  0  0  0  0  0  0
   -0.8700   -0.0070    1.0550 C   0  0  0  0  0  0  0  0  0  0  0  0
   -2.1390   -0.2350    1.6330 N   0  0  0  0  0  0  0  0  0  0  0  0
   -2.7120    0.5210    2.6900 C   0  0  0  0  0  0  0  0  0  0  0  0
   -3.6180    1.6150    2.3380 C   0  0  0  0  0  0  0  0  0  0  0  0
   -4.5190    1.5250    1.3080 C   0  0  0  0  0  0  0  0  0  0  0  0
   -5.3540    2.5780    1.0370 C   0  0  0  0  0  0  0  0  0  0  0  0
   -5.2620    3.7090    1.8190 C   0  0  0  0  0  0  0  0  0  0  0  0
   -4.3730    3.7760    2.8220 N   0  0  0  0  0  0  0  0  0  0  0  0
   -3.5590    2.7720    3.0990 C   0  0  0  0  0  0  0  0  0  0  0  0
   -2.8520   -1.3750    1.1210 C   0  0  0  0  0  0  0  0  0  0  0  0
   -2.3870   -2.0760    0.1680 O   0  0  0  0  0  0  0  0  0  0  0  0
   -4.1040   -1.7910    1.6400 N   0  0  0  0  0  0  0  0  0  0  0  0
   -4.7650   -2.9530    1.0680 C   0  0  0  0  0  0  0  0  0  0  0  0
   -5.0030   -2.6120   -0.3730 C   0  0  0  0  0  0  0  0  0  0  0  0
   -4.5160   -3.2900   -1.3790 C   0  0  0  0  0  0  0  0  0  0  0  0
   -4.9660   -2.6520   -2.6340 C   0  0  0  0  0  0  0  0  0  0  0  0
   -5.7790   -1.5160   -2.1920 C   0  0  0  0  0  0  0  0  0  0  0  0
   -5.7980   -1.4940   -0.8800 C   0  0  0  0  0  0  0  0  0  0  0  0
  1  2  1  0
  2  3  1  0
  3  4  2  0
  3 20  1  0
  4  5  1  0
  5  6  1  0
  5 18  2  0
  6  7  1  0
  7  8  2  0
  7  9  1  0
  9 10  2  0
  9 17  1  0
 10 11  1  0
 11 12  1  0
 11 14  2  0
 12 13  1  0
 14 15  1  0
 15 16  2  0
 15 17  1  0
 18 19  1  0
 19 20  2  0
 20 21  1  0
 21 22  1  0
 21 29  1  0
 22 23  1  0
 23 24  2  0
 23 28  1  0
 24 25  1  0
 25 26  2  0
 26 27  1  0
 27 28  2  0
 29 30  2  0
 29 31  1  0
 31 32  1  0
 32 33  1  0
 33 34  2  0
 33 37  1  0
 34 35  1  0
 35 36  1  0
 36 37  2  0
M  CHG  1  13   1
M  END
