
     RDKit          3D

 11 11  0  0  0  0  0  0  0  0999 V2000
    3.8890    0.9770   -0.1200 O   0  0  0  0  0  0  0  0  0  0  0  0
    3.0450    0.0050    0.4250 C   0  0  0  0  0  0  0  0  0  0  0  0
    1.5980    0.2560   -0.0250 C   0  0  0  0  0  0  0  0  0  0  0  0
    0.7390   -0.7910    0.5710 C   0  0  0  0  0  0  0  0  0  0  0  0
   -0.7160   -0.7000    0.2330 C   0  0  2  0  0  0  0  0  0  0  0  0
   -1.3410   -1.7840    0.8980 O   0  0  0  0  0  0  0  0  0  0  0  0
   -1.0170   -0.7900   -1.2180 C   0  0  0  0  0  0  0  0  0  0  0  0
   -1.6780    0.5160   -1.6410 C   0  0  0  0  0  0  0  0  0  0  0  0
   -2.9050    0.5310   -0.9690 O   0  0  0  0  0  0  0  0  0  0  0  0
   -2.6430    0.9280    0.3340 C   0  0  0  0  0  0  0  0  0  0  0  0
   -1.3030    0.5390    0.8440 C   0  0  0  0  0  0  0  0  0  0  0  0
  1  2  1  0
  2  3  1  0
  3  4  1  0
  4  5  1  0
  5  6  1  1
  5  7  1  0
  5 11  1  0
  7  8  1  0
  8  9  1  0
  9 10  1  0
 10 11  1  0
M  END
