
     RDKit          3D

 12 12  0  0  0  0  0  0  0  0999 V2000
   -4.1930    0.9840   -0.2570 O   0  0  0  0  0  0  0  0  0  0  0  0
   -3.3550   -0.1390   -0.3290 C   0  0  0  0  0  0  0  0  0  0  0  0
   -1.9420    0.3420   -0.1960 C   0  0  0  0  0  0  0  0  0  0  0  0
   -0.9990   -0.6940   -0.2520 O   0  0  0  0  0  0  0  0  0  0  0  0
    0.3390   -0.3620   -0.1400 C   0  0  0  0  0  0  0  0  0  0  0  0
    0.7830    0.9370    0.0240 C   0  0  0  0  0  0  0  0  0  0  0  0
    2.1030    1.2490    0.1330 C   0  0  0  0  0  0  0  0  0  0  0  0
    3.0560    0.2680    0.0830 C   0  0  0  0  0  0  0  0  0  0  0  0
    4.3940    0.5770    0.1930 O   0  0  0  0  0  0  0  0  0  0  0  0
    2.6600   -1.0420   -0.0790 C   0  0  0  0  0  0  0  0  0  0  0  0
    1.3110   -1.3420   -0.1880 C   0  0  0  0  0  0  0  0  0  0  0  0
    0.9650   -2.6690   -0.3500 O   0  0  0  0  0  0  0  0  0  0  0  0
  1  2  1  0
  2  3  1  0
  3  4  1  0
  4  5  1  0
  5  6  2  0
  5 11  1  0
  6  7  1  0
  7  8  2  0
  8  9  1  0
  8 10  1  0
 10 11  2  0
 11 12  1  0
M  END
