
     RDKit          3D

 23 24  0  0  0  0  0  0  0  0999 V2000
   -4.1410    2.3570   -0.3380 C   0  0  0  0  0  0  0  0  0  0  0  0
   -3.5520    1.0530   -0.0250 C   0  0  0  0  0  0  0  0  0  0  0  0
   -4.0280   -0.1330   -0.5570 C   0  0  0  0  0  0  0  0  0  0  0  0
   -3.4450   -1.3300   -0.2350 C   0  0  0  0  0  0  0  0  0  0  0  0
   -4.0030   -2.5700   -0.8400 C   0  0  0  0  0  0  0  0  0  0  0  0
   -2.4020   -1.3540    0.6020 N   0  0  0  0  0  0  0  0  0  0  0  0
   -1.9280   -0.2010    1.1290 C   0  0  0  0  0  0  0  0  0  0  0  0
   -0.5340   -0.2240    2.2490 S   0  0  0  0  0  0  0  0  0  0  0  0
    1.0100   -0.0800    1.3450 C   0  0  0  0  0  0  0  0  0  0  0  0
    1.6790   -1.2010    0.8840 C   0  0  0  0  0  0  0  0  0  0  0  0
    1.1280   -2.4130    1.1380 F   0  0  0  0  0  0  0  0  0  0  0  0
    2.8640   -1.1190    0.1890 C   0  0  0  0  0  0  0  0  0  0  0  0
    3.5280   -2.2270   -0.2690 F   0  0  0  0  0  0  0  0  0  0  0  0
    3.4340    0.1210   -0.0760 C   0  0  0  0  0  0  0  0  0  0  0  0
    4.9470    0.2110   -0.9640 S   0  0  2  0  0  0  0  0  0  0  0  0
    6.2390    0.1570    0.1550 N   0  0  0  0  0  0  0  0  0  0  0  0
    5.0580    1.4990   -1.7280 O   0  0  0  0  0  0  0  0  0  0  0  0
    4.9890   -0.9490   -1.9350 O   0  0  0  0  0  0  0  0  0  0  0  0
    2.7740    1.2440    0.3800 C   0  0  0  0  0  0  0  0  0  0  0  0
    3.3540    2.4440    0.1090 F   0  0  0  0  0  0  0  0  0  0  0  0
    1.5880    1.1430    1.0750 C   0  0  0  0  0  0  0  0  0  0  0  0
    1.0000    2.2810    1.4890 F   0  0  0  0  0  0  0  0  0  0  0  0
   -2.5000    0.9750    0.8130 N   0  0  0  0  0  0  0  0  0  0  0  0
  1  2  1  0
  2  3  2  0
  2 23  1  0
  3  4  1  0
  4  5  1  0
  4  6  2  0
  6  7  1  0
  7  8  1  0
  7 23  2  0
  8  9  1  0
  9 10  2  0
  9 21  1  0
 10 11  1  0
 10 12  1  0
 12 13  1  0
 12 14  2  0
 14 15  1  0
 14 19  1  0
 15 16  1  1
 15 17  2  0
 15 18  2  0
 19 20  1  0
 19 21  2  0
 21 22  1  0
M  END
