
     RDKit          3D

 27 30  0  0  0  0  0  0  0  0999 V2000
   -2.0370    4.9040    0.9920 C   0  0  0  0  0  0  0  0  0  0  0  0
   -1.4700    3.4820    1.0860 C   0  0  0  0  0  0  0  0  0  0  0  0
   -1.0850    3.0820   -0.3030 C   0  0  0  0  0  0  0  0  0  0  0  0
   -0.5050    1.6940   -0.3870 C   0  0  1  0  0  0  0  0  0  0  0  0
    0.7460    1.5640    0.4570 C   0  0  0  0  0  0  0  0  0  0  0  0
    1.2690    0.2430    0.4050 N   0  0  0  0  0  0  0  0  0  0  0  0
    2.6760   -0.0640    0.2210 C   0  0  0  0  0  0  0  0  0  0  0  0
    3.0970   -1.1380    0.7730 N   0  0  0  0  0  0  0  0  0  0  0  0
    4.4310   -1.6100    0.7100 C   0  0  0  0  0  0  0  0  0  0  0  0
    4.8250   -2.7730    1.3230 C   0  0  0  0  0  0  0  0  0  0  0  0
    6.1520   -3.1750    1.2190 C   0  0  0  0  0  0  0  0  0  0  0  0
    7.0130   -2.3790    0.4990 C   0  0  0  0  0  0  0  0  0  0  0  0
    6.6450   -1.2430   -0.1040 N   0  0  0  0  0  0  0  0  0  0  0  0
    5.3410   -0.8550    0.0030 C   0  0  0  0  0  0  0  0  0  0  0  0
    4.9040    0.3330   -0.6150 N   0  0  0  0  0  0  0  0  0  0  0  0
    3.5580    0.7880   -0.5380 C   0  0  0  0  0  0  0  0  0  0  0  0
    0.3460   -0.8650    0.5430 C   0  0  0  0  0  0  0  0  0  0  0  0
   -0.7620   -0.6150   -0.4730 C   0  0  0  0  0  0  0  0  0  0  0  0
   -1.3960    0.6390   -0.0420 N   0  0  2  0  0  0  0  0  0  0  0  0
   -2.7210    0.7770   -0.5580 C   0  0  0  0  0  0  0  0  0  0  0  0
   -3.2620   -0.5510   -0.9390 C   0  0  0  0  0  0  0  0  0  0  0  0
   -3.1320   -0.9850   -2.2450 C   0  0  0  0  0  0  0  0  0  0  0  0
   -3.6370   -2.2300   -2.6150 C   0  0  0  0  0  0  0  0  0  0  0  0
   -4.2510   -3.0270   -1.7290 N   0  0  0  0  0  0  0  0  0  0  0  0
   -4.3910   -2.6320   -0.4570 C   0  0  0  0  0  0  0  0  0  0  0  0
   -5.0750   -3.5040    0.5590 C   0  0  0  0  0  0  0  0  0  0  0  0
   -3.9010   -1.4040   -0.0610 C   0  0  0  0  0  0  0  0  0  0  0  0
  1  2  1  0
  2  3  1  0
  4  3  1  1
  4  5  1  0
  4 19  1  0
  5  6  1  0
  6  7  1  0
  6 17  1  0
  7  8  2  0
  7 16  1  0
  8  9  1  0
  9 10  2  0
  9 14  1  0
 10 11  1  0
 11 12  2  0
 12 13  1  0
 13 14  2  0
 14 15  1  0
 15 16  1  0
 17 18  1  0
 18 19  1  0
 19 20  1  6
 20 21  1  0
 21 22  2  0
 21 27  1  0
 22 23  1  0
 23 24  2  0
 24 25  1  0
 25 26  1  0
 25 27  2  0
M  CHG  1  19   1
M  END
