
     RDKit          3D

 12 12  0  0  0  0  0  0  0  0999 V2000
    2.9880   -1.7840   -0.7710 O   0  0  0  0  0  0  0  0  0  0  0  0
    3.2920   -0.5300   -0.2550 C   0  0  0  0  0  0  0  0  0  0  0  0
    2.7180   -0.3180    1.1200 C   0  0  0  0  0  0  0  0  0  0  0  0
    1.3690   -0.4060    1.2080 O   0  0  0  0  0  0  0  0  0  0  0  0
    0.6540    0.4890    0.4460 C   0  0  0  0  0  0  0  0  0  0  0  0
   -0.8320    0.3430    0.5860 C   0  0  2  0  0  0  0  0  0  0  0  0
   -1.2550    0.5360    1.9050 O   0  0  0  0  0  0  0  0  0  0  0  0
   -1.3090   -1.0300    0.1450 C   0  0  0  0  0  0  0  0  0  0  0  0
   -1.9060   -0.9510   -1.2320 C   0  0  0  0  0  0  0  0  0  0  0  0
   -3.0150   -0.1480   -1.3180 O   0  0  0  0  0  0  0  0  0  0  0  0
   -3.0040    0.9170   -0.4440 C   0  0  0  0  0  0  0  0  0  0  0  0
   -1.5590    1.3560   -0.2600 C   0  0  0  0  0  0  0  0  0  0  0  0
  1  2  1  0
  2  3  1  0
  3  4  1  0
  4  5  1  0
  5  6  1  0
  6  7  1  1
  6  8  1  0
  6 12  1  0
  8  9  1  0
  9 10  1  0
 10 11  1  0
 11 12  1  0
M  END
