
     RDKit          3D

 12 12  0  0  0  0  0  0  0  0999 V2000
   -1.0590    1.3030    0.6840 O   0  0  0  0  0  0  0  0  0  0  0  0
   -0.5110    0.4100   -0.0040 C   0  0  0  0  0  0  0  0  0  0  0  0
   -1.3030   -0.3580   -0.8010 O   0  0  0  0  0  0  0  0  0  0  0  0
   -2.6770   -0.3240   -0.9900 C   0  0  0  0  0  0  0  0  0  0  0  0
   -3.5300   -0.6120    0.1940 C   0  0  0  0  0  0  0  0  0  0  0  0
   -3.3330    0.2680    1.2170 O   0  0  0  0  0  0  0  0  0  0  0  0
    0.9570    0.2100    0.0630 C   0  0  0  0  0  0  0  0  0  0  0  0
    1.6270   -0.6920   -0.6130 C   0  0  0  0  0  0  0  0  0  0  0  0
    3.0550   -0.5730   -0.2760 C   0  0  0  0  0  0  0  0  0  0  0  0
    3.1190    0.5290    0.6940 C   0  0  0  0  0  0  0  0  0  0  0  0
    4.2880    0.9900    1.2860 O   0  0  0  0  0  0  0  0  0  0  0  0
    1.8890    0.9610    0.8690 C   0  0  0  0  0  0  0  0  0  0  0  0
  1  2  2  0
  2  3  1  0
  2  7  1  0
  3  4  1  0
  4  5  1  0
  5  6  1  0
  7  8  2  0
  7 12  1  0
  8  9  1  0
  9 10  1  0
 10 11  1  0
 10 12  2  0
M  END
