
     RDKit          3D

 27 30  0  0  0  0  0  0  0  0999 V2000
   -5.4520   -2.5950    0.2700 C   0  0  0  0  0  0  0  0  0  0  0  0
   -4.6020   -1.3950    0.2260 C   0  0  0  0  0  0  0  0  0  0  0  0
   -3.2290   -1.5370    0.1420 C   0  0  0  0  0  0  0  0  0  0  0  0
   -2.4700   -0.3830    0.1050 C   0  0  0  0  0  0  0  0  0  0  0  0
   -1.0420   -0.5600    0.0130 N   0  0  0  0  0  0  0  0  0  0  0  0
   -0.4270   -1.5810   -0.6460 C   0  0  0  0  0  0  0  0  0  0  0  0
    0.9300   -1.4150   -0.5160 C   0  0  0  0  0  0  0  0  0  0  0  0
    1.0880   -0.2710    0.2350 C   0  0  0  0  0  0  0  0  0  0  0  0
    2.4340    0.2620    0.5990 C   0  0  0  0  0  0  0  0  0  0  0  0
    3.4120   -0.1740   -0.3660 N   0  0  0  0  0  0  0  0  0  0  0  0
    4.4080    0.8340   -0.6520 C   0  0  1  0  0  0  0  0  0  0  0  0
    3.8720    2.2300   -0.3920 C   0  0  0  0  0  0  0  0  0  0  0  0
    5.6070    0.6750    0.1990 C   0  0  0  0  0  0  0  0  0  0  0  0
    5.8960    1.5360    1.2060 N   0  0  0  0  0  0  0  0  0  0  0  0
    6.9810    1.3620    1.9800 C   0  0  0  0  0  0  0  0  0  0  0  0
    7.8460    0.2890    1.7720 C   0  0  0  0  0  0  0  0  0  0  0  0
    7.5440   -0.5520    0.7700 N   0  0  0  0  0  0  0  0  0  0  0  0
    6.4480   -0.3790   -0.0150 C   0  0  0  0  0  0  0  0  0  0  0  0
    6.2230   -1.3450   -1.0890 C   0  0  0  0  0  0  0  0  0  0  0  0
   -0.1180    0.2190    0.5380 N   0  0  0  0  0  0  0  0  0  0  0  0
   -3.0170    0.8600    0.1490 C   0  0  0  0  0  0  0  0  0  0  0  0
   -4.3870    0.9940    0.2320 C   0  0  0  0  0  0  0  0  0  0  0  0
   -5.1860   -0.1260    0.2710 C   0  0  0  0  0  0  0  0  0  0  0  0
   -6.5430    0.3270    0.3500 N   0  0  0  0  0  0  0  0  0  0  0  0
   -7.6470   -0.4760    0.7980 C   0  0  0  0  0  0  0  0  0  0  0  0
   -6.5820    1.7250   -0.1050 C   0  0  0  0  0  0  0  0  0  0  0  0
   -5.2320    2.2230    0.2950 C   0  0  0  0  0  0  0  0  0  0  0  0
  1  2  1  0
  2  3  2  0
  2 23  1  0
  3  4  1  0
  4  5  1  0
  4 21  2  0
  5  6  1  0
  5 20  1  0
  6  7  2  0
  7  8  1  0
  8  9  1  0
  8 20  2  0
  9 10  1  0
 10 11  1  0
 11 12  1  1
 11 13  1  0
 13 14  2  0
 13 18  1  0
 14 15  1  0
 15 16  2  0
 16 17  1  0
 17 18  2  0
 18 19  1  0
 21 22  1  0
 22 23  2  0
 22 27  1  0
 23 24  1  0
 24 25  1  0
 24 26  1  0
 26 27  1  0
M  CHG  1  10   1
M  END
