
     RDKit          3D

 27 30  0  0  0  0  0  0  0  0999 V2000
   -4.4410    1.4670   -2.6930 C   0  0  0  0  0  0  0  0  0  0  0  0
   -4.9090    0.7150   -1.4940 C   0  0  2  0  0  0  0  0  0  0  0  0
   -6.3300    1.0600   -1.1160 C   0  0  0  0  0  0  0  0  0  0  0  0
   -6.7860    0.1650    0.0140 C   0  0  0  0  0  0  0  0  0  0  0  0
   -5.8210    0.1500    1.1570 C   0  0  0  0  0  0  0  0  0  0  0  0
   -4.4380    0.0470    0.7130 N   0  0  0  0  0  0  0  0  0  0  0  0
   -3.5720   -0.9670    1.1690 C   0  0  0  0  0  0  0  0  0  0  0  0
   -4.0680   -2.1410    1.7520 C   0  0  0  0  0  0  0  0  0  0  0  0
   -3.2520   -3.1610    2.1860 C   0  0  0  0  0  0  0  0  0  0  0  0
   -1.8980   -3.0040    2.0310 C   0  0  0  0  0  0  0  0  0  0  0  0
   -1.3960   -1.8990    1.4800 N   0  0  0  0  0  0  0  0  0  0  0  0
   -0.1290   -1.5390    1.2430 C   0  0  0  0  0  0  0  0  0  0  0  0
   -0.1060   -0.2960    0.6600 C   0  0  0  0  0  0  0  0  0  0  0  0
    1.0520    0.5400    0.2060 C   0  0  0  0  0  0  0  0  0  0  0  0
    2.3150   -0.0960    0.4410 N   0  0  0  0  0  0  0  0  0  0  0  0
    3.5220    0.5530    0.0730 C   0  0  0  0  0  0  0  0  0  0  0  0
    4.7580   -0.0250    0.2810 C   0  0  0  0  0  0  0  0  0  0  0  0
    5.9430    0.5820   -0.0660 C   0  0  0  0  0  0  0  0  0  0  0  0
    7.1860   -0.0680    0.1770 N   0  0  2  0  0  0  0  0  0  0  0  0
    8.2790    0.7530   -0.2670 C   0  0  0  0  0  0  0  0  0  0  0  0
    7.1810   -1.3650   -0.4600 C   0  0  0  0  0  0  0  0  0  0  0  0
    5.8890    1.8260   -0.6500 C   0  0  0  0  0  0  0  0  0  0  0  0
    4.6460    2.3990   -0.8560 C   0  0  0  0  0  0  0  0  0  0  0  0
    3.5060    1.7830   -0.5070 N   0  0  0  0  0  0  0  0  0  0  0  0
   -1.4040    0.0490    0.5690 N   0  0  0  0  0  0  0  0  0  0  0  0
   -2.2030   -0.9150    1.0640 C   0  0  0  0  0  0  0  0  0  0  0  0
   -4.0530    1.0480   -0.2530 C   0  0  0  0  0  0  0  0  0  0  0  0
  2  1  1  6
  2  3  1  0
  2 27  1  0
  3  4  1  0
  4  5  1  0
  5  6  1  0
  6  7  1  0
  6 27  1  0
  7  8  2  0
  7 26  1  0
  8  9  1  0
  9 10  2  0
 10 11  1  0
 11 12  1  0
 11 26  1  0
 12 13  2  0
 13 14  1  0
 13 25  1  0
 14 15  1  0
 15 16  1  0
 16 17  2  0
 16 24  1  0
 17 18  1  0
 18 19  1  0
 18 22  2  0
 19 20  1  6
 19 21  1  0
 22 23  1  0
 23 24  2  0
 25 26  2  0
M  CHG  1  19   1
M  END
