
     RDKit          3D

 12 12  0  0  0  0  0  0  0  0999 V2000
    0.3630    0.3960   -2.0480 O   0  0  0  0  0  0  0  0  0  0  0  0
    0.1840    0.2040   -0.8210 C   0  0  0  0  0  0  0  0  0  0  0  0
    1.3040    0.2530   -0.0090 O   0  0  0  0  0  0  0  0  0  0  0  0
    2.5850    0.5130   -0.5810 C   0  0  0  0  0  0  0  0  0  0  0  0
    3.6740    0.5300    0.4350 C   0  0  0  0  0  0  0  0  0  0  0  0
    3.7990   -0.6680    1.1160 O   0  0  0  0  0  0  0  0  0  0  0  0
   -1.1620   -0.0610   -0.2800 C   0  0  0  0  0  0  0  0  0  0  0  0
   -2.2400   -0.1120   -1.0310 C   0  0  0  0  0  0  0  0  0  0  0  0
   -3.3960   -0.3950   -0.1630 C   0  0  0  0  0  0  0  0  0  0  0  0
   -2.8340   -0.4980    1.1860 C   0  0  0  0  0  0  0  0  0  0  0  0
   -3.5390   -0.7580    2.3690 O   0  0  0  0  0  0  0  0  0  0  0  0
   -1.5340   -0.3010    1.1010 C   0  0  0  0  0  0  0  0  0  0  0  0
  1  2  2  0
  2  3  1  0
  2  7  1  0
  3  4  1  0
  4  5  1  0
  5  6  1  0
  7  8  2  0
  7 12  1  0
  8  9  1  0
  9 10  1  0
 10 11  1  0
 10 12  2  0
M  END
