
     RDKit          3D

 27 30  0  0  0  0  0  0  0  0999 V2000
    5.8940   -1.8130    0.7330 C   0  0  0  0  0  0  0  0  0  0  0  0
    4.7220   -0.9270    0.4960 C   0  0  0  0  0  0  0  0  0  0  0  0
    3.4290   -1.3850    0.6210 C   0  0  0  0  0  0  0  0  0  0  0  0
    2.3250   -0.5970    0.4100 C   0  0  0  0  0  0  0  0  0  0  0  0
    0.9780   -1.0740    0.5440 N   0  0  0  0  0  0  0  0  0  0  0  0
    0.4480   -1.6310    1.6480 C   0  0  0  0  0  0  0  0  0  0  0  0
   -0.8600   -1.9580    1.3870 C   0  0  0  0  0  0  0  0  0  0  0  0
   -1.1220   -1.5870    0.0920 C   0  0  0  0  0  0  0  0  0  0  0  0
   -2.4070   -1.7240   -0.6830 C   0  0  0  0  0  0  0  0  0  0  0  0
   -3.2010   -0.5130   -0.6210 N   0  0  0  0  0  0  0  0  0  0  0  0
   -4.5670   -0.8700   -0.3070 C   0  0  1  0  0  0  0  0  0  0  0  0
   -4.5880   -1.8090    0.9030 C   0  0  0  0  0  0  0  0  0  0  0  0
   -5.4310    0.3010   -0.0700 C   0  0  0  0  0  0  0  0  0  0  0  0
   -5.9250    0.5650    1.1750 N   0  0  0  0  0  0  0  0  0  0  0  0
   -6.7000    1.6330    1.4210 C   0  0  0  0  0  0  0  0  0  0  0  0
   -7.0340    2.5180    0.4200 C   0  0  0  0  0  0  0  0  0  0  0  0
   -6.5540    2.2690   -0.8050 N   0  0  0  0  0  0  0  0  0  0  0  0
   -5.7650    1.1820   -1.0600 C   0  0  0  0  0  0  0  0  0  0  0  0
   -5.2730    0.9430   -2.4360 C   0  0  0  0  0  0  0  0  0  0  0  0
    0.0250   -1.0590   -0.3680 N   0  0  0  0  0  0  0  0  0  0  0  0
    2.5380    0.7160    0.0570 C   0  0  0  0  0  0  0  0  0  0  0  0
    3.8410    1.2090   -0.0770 C   0  0  0  0  0  0  0  0  0  0  0  0
    4.9170    0.4060    0.1380 C   0  0  0  0  0  0  0  0  0  0  0  0
    6.1360    1.1320   -0.0570 N   0  0  0  0  0  0  0  0  0  0  0  0
    7.4660    0.6460   -0.2940 C   0  0  0  0  0  0  0  0  0  0  0  0
    5.7600    2.5440    0.0380 C   0  0  0  0  0  0  0  0  0  0  0  0
    4.3450    2.5500   -0.4400 C   0  0  0  0  0  0  0  0  0  0  0  0
  1  2  1  0
  2  3  2  0
  2 23  1  0
  3  4  1  0
  4  5  1  0
  4 21  2  0
  5  6  1  0
  5 20  1  0
  6  7  2  0
  7  8  1  0
  8  9  1  0
  8 20  2  0
  9 10  1  0
 10 11  1  0
 11 12  1  1
 11 13  1  0
 13 14  2  0
 13 18  1  0
 14 15  1  0
 15 16  2  0
 16 17  1  0
 17 18  2  0
 18 19  1  0
 21 22  1  0
 22 23  2  0
 22 27  1  0
 23 24  1  0
 24 25  1  0
 24 26  1  0
 26 27  1  0
M  CHG  1  10   1
M  END
