
     RDKit          3D

 26 29  0  0  0  0  0  0  0  0999 V2000
    3.7680    2.7030    3.2440 C   0  0  0  0  0  0  0  0  0  0  0  0
    3.9050    1.5270    2.3280 C   0  0  0  0  0  0  0  0  0  0  0  0
    5.1500    0.9580    2.1550 C   0  0  0  0  0  0  0  0  0  0  0  0
    5.2430   -0.1220    1.3050 C   0  0  0  0  0  0  0  0  0  0  0  0
    4.1540   -0.6100    0.6620 N   0  0  0  0  0  0  0  0  0  0  0  0
    2.9460   -0.0520    0.8350 C   0  0  0  0  0  0  0  0  0  0  0  0
    1.7990   -0.5620    0.1600 N   0  0  0  0  0  0  0  0  0  0  0  0
    1.8730   -1.6840   -0.7330 C   0  0  2  0  0  0  0  0  0  0  0  0
    2.7620   -1.4610   -1.9340 C   0  0  0  0  0  0  0  0  0  0  0  0
    2.2670   -0.3870   -2.8350 C   0  0  0  0  0  0  0  0  0  0  0  0
    0.7670   -0.3450   -2.8630 C   0  0  0  0  0  0  0  0  0  0  0  0
   -0.0780    0.4500   -3.6420 C   0  0  0  0  0  0  0  0  0  0  0  0
   -1.3350    0.1260   -3.3110 N   0  0  0  0  0  0  0  0  0  0  0  0
   -1.3410   -0.8300   -2.3660 N   0  0  0  0  0  0  0  0  0  0  0  0
   -2.5370   -1.4060   -1.7810 C   0  0  0  0  0  0  0  0  0  0  0  0
   -3.0450   -0.6950   -0.6120 C   0  0  0  0  0  0  0  0  0  0  0  0
   -2.7850   -1.0100    0.6960 C   0  0  0  0  0  0  0  0  0  0  0  0
   -3.3450   -0.2250    1.7080 C   0  0  0  0  0  0  0  0  0  0  0  0
   -3.0580   -0.5740    3.1260 C   0  0  0  0  0  0  0  0  0  0  0  0
   -4.1300    0.8310    1.4510 N   0  0  0  0  0  0  0  0  0  0  0  0
   -4.4020    1.1640    0.1800 C   0  0  0  0  0  0  0  0  0  0  0  0
   -5.2630    2.3240   -0.1090 C   0  0  0  0  0  0  0  0  0  0  0  0
   -3.8680    0.4130   -0.8450 C   0  0  0  0  0  0  0  0  0  0  0  0
   -0.0500   -1.1140   -2.0960 C   0  0  0  0  0  0  0  0  0  0  0  0
    0.4870   -2.1110   -1.1250 C   0  0  0  0  0  0  0  0  0  0  0  0
    2.8840    0.9990    1.6680 N   0  0  0  0  0  0  0  0  0  0  0  0
  1  2  1  0
  2  3  2  0
  2 26  1  0
  3  4  1  0
  4  5  2  0
  5  6  1  0
  6  7  1  0
  6 26  2  0
  8  7  1  6
  8  9  1  0
  8 25  1  0
  9 10  1  0
 10 11  1  0
 11 12  1  0
 11 24  2  0
 12 13  2  0
 13 14  1  0
 14 15  1  0
 14 24  1  0
 15 16  1  0
 16 17  2  0
 16 23  1  0
 17 18  1  0
 18 19  1  0
 18 20  2  0
 20 21  1  0
 21 22  1  0
 21 23  2  0
 24 25  1  0
M  CHG  1  20   1
M  END
