
     RDKit          3D

 26 29  0  0  0  0  0  0  0  0999 V2000
    2.9880   -3.0280   -2.7350 C   0  0  0  0  0  0  0  0  0  0  0  0
    3.0550   -1.7740   -1.9410 C   0  0  0  0  0  0  0  0  0  0  0  0
    4.2670   -1.3730   -1.4620 N   0  0  0  0  0  0  0  0  0  0  0  0
    4.3820   -0.2470   -0.7380 C   0  0  0  0  0  0  0  0  0  0  0  0
    5.6580    0.2160   -0.2070 C   0  0  0  0  0  0  0  0  0  0  0  0
    5.7390    1.3740    0.5290 C   0  0  0  0  0  0  0  0  0  0  0  0
    6.9720    1.7650    1.0070 C   0  0  0  0  0  0  0  0  0  0  0  0
    8.1010    1.0230    0.7590 C   0  0  0  0  0  0  0  0  0  0  0  0
    7.9800   -0.1010    0.0360 N   0  0  0  0  0  0  0  0  0  0  0  0
    6.8010   -0.5070   -0.4410 C   0  0  0  0  0  0  0  0  0  0  0  0
    3.2630    0.4570   -0.5120 N   0  0  0  0  0  0  0  0  0  0  0  0
    2.0520    0.0950   -0.9670 C   0  0  0  0  0  0  0  0  0  0  0  0
    0.9370    0.9280   -0.6600 N   0  0  0  0  0  0  0  0  0  0  0  0
    0.9480    2.1580    0.1060 C   0  0  0  0  0  0  0  0  0  0  0  0
   -0.2150    1.9120    1.0660 C   0  0  0  0  0  0  0  0  0  0  0  0
   -1.1800    1.0690    0.2460 C   0  0  2  0  0  0  0  0  0  0  0  0
   -1.5530   -0.1350    0.8870 N   0  0  0  0  0  0  0  0  0  0  0  0
   -2.9400   -0.2850    1.1910 C   0  0  2  0  0  0  0  0  0  0  0  0
   -3.3550   -1.7040    0.8640 C   0  0  0  0  0  0  0  0  0  0  0  0
   -4.6220   -1.6130    0.0520 C   0  0  0  0  0  0  0  0  0  0  0  0
   -5.1590   -0.2540    0.4560 C   0  0  1  0  0  0  0  0  0  0  0  0
   -6.1900    0.2500   -0.4980 C   0  0  0  0  0  0  0  0  0  0  0  0
   -5.6440   -0.2660    1.8910 C   0  0  0  0  0  0  0  0  0  0  0  0
   -3.8620    0.5700    0.3890 C   0  0  0  0  0  0  0  0  0  0  0  0
   -0.4560    0.7360   -1.0420 C   0  0  0  0  0  0  0  0  0  0  0  0
    1.9620   -1.0190   -1.6780 N   0  0  0  0  0  0  0  0  0  0  0  0
  1  2  1  0
  2  3  2  0
  2 26  1  0
  3  4  1  0
  4  5  1  0
  4 11  2  0
  5  6  2  0
  5 10  1  0
  6  7  1  0
  7  8  2  0
  8  9  1  0
  9 10  2  0
 11 12  1  0
 12 13  1  0
 12 26  2  0
 13 14  1  0
 13 25  1  0
 14 15  1  0
 15 16  1  0
 16 17  1  1
 16 25  1  0
 18 17  1  6
 18 19  1  0
 18 24  1  0
 19 20  1  0
 20 21  1  0
 21 22  1  6
 21 23  1  0
 21 24  1  0
M  CHG  1  17   1
M  END
