
     RDKit          3D

 12 12  0  0  0  0  0  0  0  0999 V2000
    4.7100   -0.0410    0.7010 O   0  0  0  0  0  0  0  0  0  0  0  0
    3.4200    0.4640    0.8800 C   0  0  0  0  0  0  0  0  0  0  0  0
    2.4940   -0.4000    0.0520 C   0  0  0  0  0  0  0  0  0  0  0  0
    1.1680    0.0160    0.1550 O   0  0  0  0  0  0  0  0  0  0  0  0
    0.4150   -0.8420   -0.6390 C   0  0  0  0  0  0  0  0  0  0  0  0
   -1.0690   -0.4700   -0.5970 C   0  0  2  0  0  0  0  0  0  0  0  0
   -1.7050   -1.4120   -1.4380 O   0  0  0  0  0  0  0  0  0  0  0  0
   -1.3220    0.8800   -1.1460 C   0  0  0  0  0  0  0  0  0  0  0  0
   -2.4810    1.6080   -0.5120 C   0  0  0  0  0  0  0  0  0  0  0  0
   -3.2980    0.7300    0.2230 O   0  0  0  0  0  0  0  0  0  0  0  0
   -2.5230    0.3060    1.3010 C   0  0  0  0  0  0  0  0  0  0  0  0
   -1.5520   -0.7130    0.7850 C   0  0  0  0  0  0  0  0  0  0  0  0
  1  2  1  0
  2  3  1  0
  3  4  1  0
  4  5  1  0
  5  6  1  0
  6  7  1  6
  6  8  1  0
  6 12  1  0
  8  9  1  0
  9 10  1  0
 10 11  1  0
 11 12  1  0
M  END
