
     RDKit          3D

 23 24  0  0  0  0  0  0  0  0999 V2000
   -4.0540   -1.6670   -1.4640 C   0  0  0  0  0  0  0  0  0  0  0  0
   -3.4200   -0.7950   -0.4390 C   0  0  0  0  0  0  0  0  0  0  0  0
   -3.8010    0.5250   -0.3260 C   0  0  0  0  0  0  0  0  0  0  0  0
   -3.1910    1.3000    0.6370 C   0  0  0  0  0  0  0  0  0  0  0  0
   -3.5530    2.7260    0.8120 C   0  0  0  0  0  0  0  0  0  0  0  0
   -2.2460    0.7490    1.4350 N   0  0  0  0  0  0  0  0  0  0  0  0
   -1.8910   -0.5420    1.3050 C   0  0  0  0  0  0  0  0  0  0  0  0
   -0.6360   -1.1580    2.4120 S   0  0  0  0  0  0  0  0  0  0  0  0
    0.9560   -0.8950    1.6410 C   0  0  0  0  0  0  0  0  0  0  0  0
    1.5530   -1.8200    0.8110 C   0  0  0  0  0  0  0  0  0  0  0  0
    0.8800   -2.9780    0.5850 F   0  0  0  0  0  0  0  0  0  0  0  0
    2.7890   -1.5910    0.2260 C   0  0  0  0  0  0  0  0  0  0  0  0
    3.3660   -2.5200   -0.5960 F   0  0  0  0  0  0  0  0  0  0  0  0
    3.4770   -0.4180    0.4520 C   0  0  0  0  0  0  0  0  0  0  0  0
    5.0400   -0.1320   -0.2910 S   0  0  1  0  0  0  0  0  0  0  0  0
    4.8710    0.6400   -1.8230 N   0  0  0  0  0  0  0  0  0  0  0  0
    5.8650    0.7290    0.6210 O   0  0  0  0  0  0  0  0  0  0  0  0
    5.7290   -1.4490   -0.4540 O   0  0  0  0  0  0  0  0  0  0  0  0
    2.8790    0.5060    1.2820 C   0  0  0  0  0  0  0  0  0  0  0  0
    3.5470    1.6560    1.5070 F   0  0  0  0  0  0  0  0  0  0  0  0
    1.6480    0.2770    1.8640 C   0  0  0  0  0  0  0  0  0  0  0  0
    1.0630    1.1940    2.6830 F   0  0  0  0  0  0  0  0  0  0  0  0
   -2.4670   -1.3160    0.3800 N   0  0  0  0  0  0  0  0  0  0  0  0
  1  2  1  0
  2  3  2  0
  2 23  1  0
  3  4  1  0
  4  5  1  0
  4  6  2  0
  6  7  1  0
  7  8  1  0
  7 23  2  0
  8  9  1  0
  9 10  2  0
  9 21  1  0
 10 11  1  0
 10 12  1  0
 12 13  1  0
 12 14  2  0
 14 15  1  0
 14 19  1  0
 15 16  1  6
 15 17  2  0
 15 18  2  0
 19 20  1  0
 19 21  2  0
 21 22  1  0
M  END
