
     RDKit          3D

 11 11  0  0  0  0  0  0  0  0999 V2000
    2.7450    0.9150    1.4270 O   0  0  0  0  0  0  0  0  0  0  0  0
    2.7080    0.3940    0.1350 C   0  0  0  0  0  0  0  0  0  0  0  0
    2.1060   -0.9430    0.0170 C   0  0  0  0  0  0  0  0  0  0  0  0
    0.7120   -1.1760    0.3940 C   0  0  0  0  0  0  0  0  0  0  0  0
   -0.3760   -0.4820   -0.3600 C   0  0  1  0  0  0  0  0  0  0  0  0
   -0.3210   -0.8220   -1.7340 O   0  0  0  0  0  0  0  0  0  0  0  0
   -1.7020   -1.0640    0.1240 C   0  0  0  0  0  0  0  0  0  0  0  0
   -2.8770   -0.2610   -0.3010 C   0  0  0  0  0  0  0  0  0  0  0  0
   -2.5860    0.9440   -0.8970 O   0  0  0  0  0  0  0  0  0  0  0  0
   -1.6910    1.6240   -0.0870 C   0  0  0  0  0  0  0  0  0  0  0  0
   -0.3120    0.9820   -0.2390 C   0  0  0  0  0  0  0  0  0  0  0  0
  1  2  1  0
  2  3  1  0
  3  4  1  0
  4  5  1  0
  5  6  1  6
  5  7  1  0
  5 11  1  0
  7  8  1  0
  8  9  1  0
  9 10  1  0
 10 11  1  0
M  END
