
     RDKit          3D

 19 18  0  0  0  0  0  0  0  0999 V2000
    4.7480   -0.7510    1.5510 N   0  0  0  0  0  0  0  0  0  0  0  0
    3.6580   -0.5710    0.6760 C   0  0  0  0  0  0  0  0  0  0  0  0
    2.8050   -1.4910    0.5310 O   0  0  0  0  0  0  0  0  0  0  0  0
    3.4110    0.9300   -0.2660 S   0  0  0  0  0  0  0  0  0  0  0  0
    1.9340    0.8470   -1.2830 C   0  0  0  0  0  0  0  0  0  0  0  0
    0.7230    0.7920   -0.4290 C   0  0  0  0  0  0  0  0  0  0  0  0
    0.8380    0.8070    0.8000 O   0  0  0  0  0  0  0  0  0  0  0  0
   -0.5240    0.7230   -0.9950 O   0  0  0  0  0  0  0  0  0  0  0  0
   -1.7080    0.6690   -0.2990 C   0  0  0  0  0  0  0  0  0  0  0  0
   -2.2460   -0.6280    0.0650 C   0  0  0  0  0  0  0  0  0  0  0  0
   -1.6230   -1.7470   -0.2590 C   0  0  0  0  0  0  0  0  0  0  0  0
   -2.2880   -3.2850    0.1890 S   0  0  1  0  0  0  0  0  0  0  0  0
   -3.5750   -3.1170    0.9670 O   0  0  0  0  0  0  0  0  0  0  0  0
   -2.6220   -4.0380   -1.0690 O   0  0  0  0  0  0  0  0  0  0  0  0
   -2.3490    1.7520    0.0360 C   0  0  0  0  0  0  0  0  0  0  0  0
   -1.8410    3.1270   -0.3130 C   0  0  1  0  0  0  0  0  0  0  0  0
   -2.8760    4.0430   -0.3590 F   0  0  0  0  0  0  0  0  0  0  0  0
   -0.9380    3.4910    0.6750 F   0  0  0  0  0  0  0  0  0  0  0  0
   -1.1280    3.0950   -1.4980 F   0  0  0  0  0  0  0  0  0  0  0  0
  1  2  1  0
  2  3  2  0
  2  4  1  0
  4  5  1  0
  5  6  1  0
  6  7  2  0
  6  8  1  0
  8  9  1  0
  9 10  1  0
  9 15  2  3
 10 11  2  3
 12 11  1  6
 12 13  2  0
 12 14  2  0
 15 16  1  0
 16 17  1  6
 16 18  1  0
 16 19  1  0
M  END
