
     RDKit          3D

 20 19  0  0  0  0  0  0  0  0999 V2000
    2.2360    2.2900    2.1350 C   0  0  0  0  0  0  0  0  0  0  0  0
    1.7300    1.1550    1.4610 O   0  0  0  0  0  0  0  0  0  0  0  0
    2.2250   -0.0990    1.7660 C   0  0  0  0  0  0  0  0  0  0  0  0
    3.1300   -0.1560    2.6590 O   0  0  0  0  0  0  0  0  0  0  0  0
    1.7350   -1.2880    1.0990 C   0  0  0  0  0  0  0  0  0  0  0  0
    2.2180   -2.5790    1.3880 N   0  0  0  0  0  0  0  0  0  0  0  0
    0.7720   -1.1410    0.1610 C   0  0  0  0  0  0  0  0  0  0  0  0
    0.2130    0.4580   -0.1560 S   0  0  0  0  0  0  0  0  0  0  0  0
   -1.4440    0.7900   -0.5650 C   0  0  0  0  0  0  0  0  0  0  0  0
   -1.7010    1.8890   -1.2940 C   0  0  0  0  0  0  0  0  0  0  0  0
   -3.0470    2.3170   -1.7320 C   0  0  0  0  0  0  0  0  0  0  0  0
   -3.0090    2.3680   -3.1430 F   0  0  0  0  0  0  0  0  0  0  0  0
   -2.5880   -0.0530   -0.1720 C   0  0  1  0  0  0  0  0  0  0  0  0
   -3.5410    0.7720    0.5130 F   0  0  0  0  0  0  0  0  0  0  0  0
   -3.2580   -0.6560   -1.1890 F   0  0  0  0  0  0  0  0  0  0  0  0
   -2.2860   -1.0000    0.7930 F   0  0  0  0  0  0  0  0  0  0  0  0
    0.2600   -2.6420   -0.5750 S   0  0  1  0  0  0  0  0  0  0  0  0
    0.3890   -3.7740    0.3990 O   0  0  0  0  0  0  0  0  0  0  0  0
   -1.0400   -2.5880   -1.2780 O   0  0  0  0  0  0  0  0  0  0  0  0
    1.4040   -2.9680   -1.8210 O   0  0  0  0  0  0  0  0  0  0  0  0
  1  2  1  0
  2  3  1  0
  3  4  2  0
  3  5  1  0
  5  6  1  0
  5  7  2  3
  7  8  1  0
  7 17  1  0
  8  9  1  0
  9 10  2  3
  9 13  1  0
 10 11  1  0
 11 12  1  0
 13 14  1  1
 13 15  1  0
 13 16  1  0
 17 18  2  0
 17 19  2  0
 17 20  1  6
M  END
