
     RDKit          3D

 19 19  0  0  0  0  0  0  0  0999 V2000
   -2.7610   -1.7390    0.8200 N   0  0  0  0  0  0  0  0  0  0  0  0
   -3.3840   -0.5240    0.4860 C   0  0  0  0  0  0  0  0  0  0  0  0
   -4.6230   -0.4220    0.5360 O   0  0  0  0  0  0  0  0  0  0  0  0
   -2.5770    0.6340    0.0750 C   0  0  2  0  0  0  0  0  0  0  0  0
   -1.2190    0.2690    0.0980 O   0  0  0  0  0  0  0  0  0  0  0  0
   -0.4430    0.2900   -1.0630 C   0  0  0  0  0  0  0  0  0  0  0  0
   -1.0670    0.6600   -2.1160 O   0  0  0  0  0  0  0  0  0  0  0  0
    0.9530   -0.0770   -1.0820 C   0  0  0  0  0  0  0  0  0  0  0  0
    1.6300   -0.0390   -2.1990 C   0  0  0  0  0  0  0  0  0  0  0  0
    3.3680   -0.4760   -2.3250 S   0  0  0  0  0  0  0  0  0  0  0  0
    4.1490   -0.6200   -0.7180 C   0  0  0  0  0  0  0  0  0  0  0  0
    3.3860    0.1460    0.3320 C   0  0  0  0  0  0  0  0  0  0  0  0
    1.7380   -0.5700    0.3830 S   0  0  2  0  0  0  0  0  0  0  0  0
    1.9160   -2.0730    0.3630 O   0  0  0  0  0  0  0  0  0  0  0  0
    1.0080   -0.1480    1.6060 O   0  0  0  0  0  0  0  0  0  0  0  0
   -2.8490    1.8570    0.9300 C   0  0  1  0  0  0  0  0  0  0  0  0
   -2.0390    2.8680    0.4490 F   0  0  0  0  0  0  0  0  0  0  0  0
   -4.1600    2.2480    0.6230 F   0  0  0  0  0  0  0  0  0  0  0  0
   -2.6870    1.6270    2.2620 F   0  0  0  0  0  0  0  0  0  0  0  0
  1  2  1  0
  2  3  2  0
  2  4  1  0
  4  5  1  1
  4 16  1  0
  5  6  1  0
  6  7  2  0
  6  8  1  0
  8  9  2  0
  8 13  1  0
  9 10  1  0
 10 11  1  0
 11 12  1  0
 13 12  1  1
 13 14  2  0
 13 15  2  0
 16 17  1  6
 16 18  1  0
 16 19  1  0
M  END
