
     RDKit          3D

 24 27  0  0  0  0  0  0  0  0999 V2000
   -5.9240    0.2410   -1.4610 C   0  0  0  0  0  0  0  0  0  0  0  0
   -5.6240   -0.1460   -0.0490 C   0  0  2  0  0  0  0  0  0  0  0  0
   -6.8920   -0.0560    0.7810 C   0  0  0  0  0  0  0  0  0  0  0  0
   -4.5310    0.6610    0.5860 C   0  0  0  0  0  0  0  0  0  0  0  0
   -3.2450   -0.1320    0.3030 C   0  0  0  0  0  0  0  0  0  0  0  0
   -1.9310    0.1940    0.3370 C   0  0  0  0  0  0  0  0  0  0  0  0
   -1.0540   -0.7950    0.0150 C   0  0  0  0  0  0  0  0  0  0  0  0
    0.4110   -0.8290   -0.0600 C   0  0  0  0  0  0  0  0  0  0  0  0
    1.0060   -1.8910   -0.3890 O   0  0  0  0  0  0  0  0  0  0  0  0
    1.2070    0.2970    0.2250 N   0  0  0  0  0  0  0  0  0  0  0  0
    2.6210    0.3340    0.1730 C   0  0  0  0  0  0  0  0  0  0  0  0
    3.3860    1.4520    0.4570 C   0  0  0  0  0  0  0  0  0  0  0  0
    4.7130    1.1430    0.3090 C   0  0  0  0  0  0  0  0  0  0  0  0
    5.8720    1.8680    0.4640 C   0  0  0  0  0  0  0  0  0  0  0  0
    7.0960    1.2870    0.2440 C   0  0  0  0  0  0  0  0  0  0  0  0
    7.1800   -0.0440   -0.1400 C   0  0  0  0  0  0  0  0  0  0  0  0
    8.4840   -0.6460   -0.3700 C   0  0  0  0  0  0  0  0  0  0  0  0
    9.5470   -0.0040   -0.2340 O   0  0  0  0  0  0  0  0  0  0  0  0
    6.0030   -0.7290   -0.2820 C   0  0  0  0  0  0  0  0  0  0  0  0
    4.7700   -0.1650   -0.0660 C   0  0  0  0  0  0  0  0  0  0  0  0
    3.4830   -0.6190   -0.1380 N   0  0  0  0  0  0  0  0  0  0  0  0
   -2.1040   -2.2190   -0.3430 S   0  0  0  0  0  0  0  0  0  0  0  0
   -3.6590   -1.3310   -0.0210 C   0  0  0  0  0  0  0  0  0  0  0  0
   -5.1140   -1.5520   -0.0180 C   0  0  0  0  0  0  0  0  0  0  0  0
  2  1  1  6
  2  3  1  0
  2  4  1  0
  2 24  1  0
  4  5  1  0
  5  6  1  0
  5 23  2  0
  6  7  2  0
  7  8  1  0
  7 22  1  0
  8  9  2  0
  8 10  1  0
 10 11  1  0
 11 12  2  0
 11 21  1  0
 12 13  1  0
 13 14  2  0
 13 20  1  0
 14 15  1  0
 15 16  2  0
 16 17  1  0
 16 19  1  0
 17 18  2  0
 19 20  2  0
 20 21  1  0
 22 23  1  0
 23 24  1  0
M  END
