
     RDKit          3D

 19 19  0  0  0  0  0  0  0  0999 V2000
    3.9650   -0.1620    1.4450 C   0  0  0  0  0  0  0  0  0  0  0  0
    2.8050    0.4520    0.9780 O   0  0  0  0  0  0  0  0  0  0  0  0
    1.9290   -0.5440   -0.0300 S   0  0  1  0  0  0  0  0  0  0  0  0
    2.4900   -0.6360   -1.3910 O   0  0  0  0  0  0  0  0  0  0  0  0
    2.1130   -1.9720    0.5480 O   0  0  0  0  0  0  0  0  0  0  0  0
    0.2220   -0.1830    0.0450 C   0  0  0  0  0  0  0  0  0  0  0  0
   -0.5600   -0.9570    0.7740 C   0  0  0  0  0  0  0  0  0  0  0  0
   -1.9980   -0.7390    0.9040 C   0  0  2  0  0  0  0  0  0  0  0  0
   -2.7900   -2.0300    0.7550 C   0  0  1  0  0  0  0  0  0  0  0  0
   -4.1190   -1.7510    0.8870 F   0  0  0  0  0  0  0  0  0  0  0  0
   -2.4800   -2.5780   -0.4540 F   0  0  0  0  0  0  0  0  0  0  0  0
   -2.4280   -2.8690    1.8030 F   0  0  0  0  0  0  0  0  0  0  0  0
   -2.4690    0.2870    0.0360 N   0  0  0  0  0  0  0  0  0  0  0  0
   -1.6200    1.1030   -0.7230 C   0  0  0  0  0  0  0  0  0  0  0  0
   -2.2510    2.4660   -1.7130 S   0  0  0  0  0  0  0  0  0  0  0  0
   -0.3080    0.9140   -0.7510 C   0  0  0  0  0  0  0  0  0  0  0  0
    0.5720    1.7790   -1.5110 C   0  0  0  0  0  0  0  0  0  0  0  0
    1.8080    1.7020   -1.5940 O   0  0  0  0  0  0  0  0  0  0  0  0
   -0.0680    2.8250   -2.2350 O   0  0  0  0  0  0  0  0  0  0  0  0
  1  2  1  0
  3  2  1  1
  3  4  2  0
  3  5  2  0
  3  6  1  0
  6  7  2  0
  6 16  1  0
  7  8  1  0
  8  9  1  0
  8 13  1  6
  9 10  1  6
  9 11  1  0
  9 12  1  0
 13 14  1  0
 14 15  1  0
 14 16  2  0
 16 17  1  0
 17 18  2  0
 17 19  1  0
M  END
