
     RDKit          3D

 19 19  0  0  0  0  0  0  0  0999 V2000
   -0.0650   -1.9680    2.3320 N   0  0  0  0  0  0  0  0  0  0  0  0
   -0.2800   -0.5930    2.0350 C   0  0  0  0  0  0  0  0  0  0  0  0
   -0.4860    0.2480    2.9460 O   0  0  0  0  0  0  0  0  0  0  0  0
   -0.2490   -0.2060    0.5990 C   0  0  1  0  0  0  0  0  0  0  0  0
    1.0440   -0.5100   -0.0300 C   0  0  0  0  0  0  0  0  0  0  0  0
    1.1280   -1.2770   -0.9930 O   0  0  0  0  0  0  0  0  0  0  0  0
    2.1760    0.0790    0.4740 O   0  0  0  0  0  0  0  0  0  0  0  0
    3.4800   -0.0460    0.0530 C   0  0  0  0  0  0  0  0  0  0  0  0
    3.6580    0.4770   -1.3420 C   0  0  1  0  0  0  0  0  0  0  0  0
    3.3040    1.8210   -1.4050 F   0  0  0  0  0  0  0  0  0  0  0  0
    5.0110    0.3490   -1.6800 F   0  0  0  0  0  0  0  0  0  0  0  0
    2.9620   -0.1990   -2.2890 F   0  0  0  0  0  0  0  0  0  0  0  0
   -1.6090   -1.1530   -0.1890 S   0  0  0  0  0  0  0  0  0  0  0  0
   -2.9900   -0.1000    0.4170 C   0  0  0  0  0  0  0  0  0  0  0  0
   -2.5850    1.2900   -0.0340 C   0  0  2  0  0  0  0  0  0  0  0  0
   -2.8720    1.3850   -1.4850 C   0  0  0  0  0  0  0  0  0  0  0  0
   -3.6780    2.2590   -1.8820 O   0  0  0  0  0  0  0  0  0  0  0  0
   -2.2640    0.5270   -2.3750 O   0  0  0  0  0  0  0  0  0  0  0  0
   -0.8310    1.4630    0.3060 S   0  0  0  0  0  0  0  0  0  0  0  0
  1  2  1  0
  2  3  2  0
  4  2  1  1
  4  5  1  0
  4 13  1  0
  4 19  1  0
  5  6  2  0
  5  7  1  0
  7  8  1  0
  8  9  1  0
  9 10  1  1
  9 11  1  0
  9 12  1  0
 13 14  1  0
 14 15  1  0
 15 16  1  6
 15 19  1  0
 16 17  2  0
 16 18  1  0
M  END
