
     RDKit          3D

 19 19  0  0  0  0  0  0  0  0999 V2000
    5.2260    0.5780    0.0770 N   0  0  0  0  0  0  0  0  0  0  0  0
    3.8580    0.3280   -0.1640 C   0  0  0  0  0  0  0  0  0  0  0  0
    3.2660    0.9870   -1.0420 O   0  0  0  0  0  0  0  0  0  0  0  0
    3.1480   -0.6890    0.6080 C   0  0  0  0  0  0  0  0  0  0  0  0
    1.8030   -0.8320    0.2670 O   0  0  0  0  0  0  0  0  0  0  0  0
    0.8780    0.1960    0.3670 C   0  0  0  0  0  0  0  0  0  0  0  0
    1.3270    1.3030    0.7930 O   0  0  0  0  0  0  0  0  0  0  0  0
   -0.4990   -0.0020    0.0030 C   0  0  0  0  0  0  0  0  0  0  0  0
   -1.4870    0.8450    0.0350 C   0  0  0  0  0  0  0  0  0  0  0  0
   -2.7590    0.3670   -0.3880 C   0  0  0  0  0  0  0  0  0  0  0  0
   -4.0170    1.2190   -0.4140 C   0  0  2  0  0  0  0  0  0  0  0  0
   -4.3260    1.6750    0.8340 F   0  0  0  0  0  0  0  0  0  0  0  0
   -5.0540    0.5640   -0.9860 F   0  0  0  0  0  0  0  0  0  0  0  0
   -3.6840    2.3160   -1.2210 F   0  0  0  0  0  0  0  0  0  0  0  0
   -2.8130   -0.8940   -0.7730 C   0  0  0  0  0  0  0  0  0  0  0  0
   -4.2230   -1.8230   -1.3600 S   0  0  0  0  0  0  0  0  0  0  0  0
   -1.1780   -1.4890   -0.5870 S   0  0  1  0  0  0  0  0  0  0  0  0
   -0.5800   -1.9250   -1.8820 O   0  0  0  0  0  0  0  0  0  0  0  0
   -1.0680   -2.5230    0.4860 O   0  0  0  0  0  0  0  0  0  0  0  0
  1  2  1  0
  2  3  2  0
  2  4  1  0
  4  5  1  0
  5  6  1  0
  6  7  2  0
  6  8  1  0
  8  9  2  0
 17  8  1  1
  9 10  1  0
 10 11  1  0
 10 15  2  0
 11 12  1  1
 11 13  1  0
 11 14  1  0
 15 16  1  0
 15 17  1  0
 17 18  2  0
 17 19  2  0
M  END
