
     RDKit          3D

 29 30  0  0  0  0  0  0  0  0999 V2000
   -1.5310   -3.5930    0.6320 C   0  0  0  0  0  0  0  0  0  0  0  0
   -1.9900   -2.5470   -0.4290 C   0  0  1  0  0  0  0  0  0  0  0  0
   -3.4390   -2.3720   -0.3460 C   0  0  0  0  0  0  0  0  0  0  0  0
   -1.0830   -1.4080   -0.4200 C   0  0  0  0  0  0  0  0  0  0  0  0
   -1.3380   -0.0910   -0.3010 C   0  0  0  0  0  0  0  0  0  0  0  0
   -2.5790    0.5330   -0.1480 N   0  0  0  0  0  0  0  0  0  0  0  0
   -2.7360    1.9330   -0.0330 C   0  0  0  0  0  0  0  0  0  0  0  0
   -1.8210    2.7850   -0.0510 O   0  0  0  0  0  0  0  0  0  0  0  0
   -4.1450    2.4830    0.1290 C   0  0  1  0  0  0  0  0  0  0  0  0
   -4.4550    3.4210   -1.0230 C   0  0  0  0  0  0  0  0  0  0  0  0
   -5.0720    1.4600    0.1630 O   0  0  0  0  0  0  0  0  0  0  0  0
   -4.1150    3.3020    1.3990 C   0  0  2  0  0  0  0  0  0  0  0  0
   -5.3380    3.8690    1.6760 F   0  0  0  0  0  0  0  0  0  0  0  0
   -3.1700    4.3000    1.2130 F   0  0  0  0  0  0  0  0  0  0  0  0
   -3.7170    2.4570    2.4160 F   0  0  0  0  0  0  0  0  0  0  0  0
   -0.0320    0.5430   -0.3690 C   0  0  0  0  0  0  0  0  0  0  0  0
    0.2200    1.7940   -0.2980 O   0  0  0  0  0  0  0  0  0  0  0  0
    1.0000   -0.4730   -0.5370 C   0  0  0  0  0  0  0  0  0  0  0  0
    0.3890   -1.6170   -0.5680 C   0  0  0  0  0  0  0  0  0  0  0  0
    1.1150   -2.9020   -0.7350 C   0  0  0  0  0  0  0  0  0  0  0  0
    2.5830   -2.7550   -1.7520 S   0  0  0  0  0  0  0  0  0  0  0  0
    3.0150   -1.0230   -1.8550 C   0  0  0  0  0  0  0  0  0  0  0  0
    2.4630   -0.2990   -0.6550 C   0  0  2  0  0  0  0  0  0  0  0  0
    3.2180   -0.8410    0.8850 S   0  0  0  0  0  0  0  0  0  0  0  0
    5.0130   -0.6520    0.8810 C   0  0  0  0  0  0  0  0  0  0  0  0
    5.3800    0.7760    0.8450 C   0  0  0  0  0  0  0  0  0  0  0  0
    4.9510    1.5820   -0.2300 N   0  0  0  0  0  0  0  0  0  0  0  0
    6.1010    1.2910    1.8160 C   0  0  0  0  0  0  0  0  0  0  0  0
    6.5210    0.4870    2.8800 O   0  0  0  0  0  0  0  0  0  0  0  0
  2  1  1  1
  2  3  1  0
  2  4  1  0
  4  5  2  0
  4 19  1  0
  5  6  1  0
  5 16  1  0
  6  7  1  0
  7  8  2  0
  7  9  1  0
  9 10  1  6
  9 11  1  0
  9 12  1  0
 12 13  1  1
 12 14  1  0
 12 15  1  0
 16 17  2  0
 16 18  1  0
 18 19  2  0
 18 23  1  0
 19 20  1  0
 20 21  1  0
 21 22  1  0
 22 23  1  0
 23 24  1  1
 24 25  1  0
 25 26  1  0
 26 27  1  0
 26 28  2  3
 28 29  1  0
M  END
