
     RDKit          3D

 31 33  0  0  0  0  0  0  0  0999 V2000
    7.5410    3.0980    0.4620 C   0  0  0  0  0  0  0  0  0  0  0  0
    6.3490    2.5330    1.1160 C   0  0  0  0  0  0  0  0  0  0  0  0
    5.1210    2.9030    0.7780 C   0  0  0  0  0  0  0  0  0  0  0  0
    4.0110    2.3610    1.4040 N   0  0  0  0  0  0  0  0  0  0  0  0
    3.1860    1.4900    1.0570 C   0  0  0  0  0  0  0  0  0  0  0  0
    3.1350    0.7330   -0.1840 C   0  0  0  0  0  0  0  0  0  0  0  0
    4.0430    0.8750   -1.2180 C   0  0  0  0  0  0  0  0  0  0  0  0
    3.9030    0.0930   -2.3740 C   0  0  0  0  0  0  0  0  0  0  0  0
    4.8630    0.2370   -3.4780 C   0  0  0  0  0  0  0  0  0  0  0  0
    2.8810   -0.8190   -2.5150 C   0  0  0  0  0  0  0  0  0  0  0  0
    2.7620   -1.5660   -3.6410 F   0  0  0  0  0  0  0  0  0  0  0  0
    1.9770   -0.9680   -1.4980 C   0  0  0  0  0  0  0  0  0  0  0  0
    2.1100   -0.2000   -0.3570 C   0  0  0  0  0  0  0  0  0  0  0  0
    1.1870   -0.3510    0.6830 O   0  0  0  0  0  0  0  0  0  0  0  0
    0.1550   -1.2680    0.5510 C   0  0  0  0  0  0  0  0  0  0  0  0
   -1.0620   -0.8850   -0.0190 C   0  0  0  0  0  0  0  0  0  0  0  0
   -2.1010   -1.7590   -0.1660 C   0  0  0  0  0  0  0  0  0  0  0  0
   -3.3650   -1.2850   -0.7800 C   0  0  0  0  0  0  0  0  0  0  0  0
   -4.3330   -0.8170    0.1870 N   0  0  0  0  0  0  0  0  0  0  0  0
   -5.5220   -0.3740   -0.4620 C   0  0  0  0  0  0  0  0  0  0  0  0
   -6.0530    0.9320    0.0640 C   0  0  0  0  0  0  0  0  0  0  0  0
   -5.0790    1.9730    0.1360 N   0  0  1  0  0  0  0  0  0  0  0  0
   -5.3450    2.8110    1.3010 C   0  0  0  0  0  0  0  0  0  0  0  0
   -3.7190    1.4880    0.2680 C   0  0  0  0  0  0  0  0  0  0  0  0
   -3.7920    0.1830    1.0470 C   0  0  0  0  0  0  0  0  0  0  0  0
   -1.9940   -3.0600    0.2420 C   0  0  0  0  0  0  0  0  0  0  0  0
   -0.8040   -3.4790    0.8120 C   0  0  0  0  0  0  0  0  0  0  0  0
   -0.6310   -4.8510    1.2650 C   0  0  0  0  0  0  0  0  0  0  0  0
    0.5950   -5.2640    1.8490 N   0  0  0  0  0  0  0  0  0  0  0  0
   -1.5880   -5.6520    1.1250 O   0  0  0  0  0  0  0  0  0  0  0  0
    0.2480   -2.5780    0.9560 C   0  0  0  0  0  0  0  0  0  0  0  0
  1  2  1  0
  2  3  2  3
  3  4  1  0
  4  5  2  3
  5  6  1  0
  6  7  2  0
  6 13  1  0
  7  8  1  0
  8  9  1  0
  8 10  2  0
 10 11  1  0
 10 12  1  0
 12 13  2  0
 13 14  1  0
 14 15  1  0
 15 16  2  0
 15 31  1  0
 16 17  1  0
 17 18  1  0
 17 26  2  0
 18 19  1  0
 19 20  1  0
 19 25  1  0
 20 21  1  0
 21 22  1  0
 22 23  1  1
 22 24  1  0
 24 25  1  0
 26 27  1  0
 27 28  1  0
 27 31  2  0
 28 29  1  0
 28 30  2  0
M  CHG  1  22   1
M  END
