
     RDKit          3D

 29 30  0  0  0  0  0  0  0  0999 V2000
   -2.0610    6.3200   -1.7390 C   0  0  0  0  0  0  0  0  0  0  0  0
   -2.2120    4.8400   -1.6010 C   0  0  0  0  0  0  0  0  0  0  0  0
   -3.0790    4.2730   -2.3160 O   0  0  0  0  0  0  0  0  0  0  0  0
   -1.4520    4.0470   -0.7310 N   0  0  0  0  0  0  0  0  0  0  0  0
   -1.6460    2.6560   -0.6510 N   0  0  0  0  0  0  0  0  0  0  0  0
   -0.8590    1.8700    0.2300 C   0  0  0  0  0  0  0  0  0  0  0  0
   -0.0050    2.4380    0.9180 O   0  0  0  0  0  0  0  0  0  0  0  0
   -1.1160    0.3730    0.2740 C   0  0  2  0  0  0  0  0  0  0  0  0
   -2.7640    0.1670    0.8910 S   0  0  0  0  0  0  0  0  0  0  0  0
   -3.4610   -1.4400    0.8050 C   0  0  0  0  0  0  0  0  0  0  0  0
   -3.1030   -2.5790    0.2620 C   0  0  0  0  0  0  0  0  0  0  0  0
   -3.9700   -3.6890    0.4190 C   0  0  0  0  0  0  0  0  0  0  0  0
   -3.7030   -5.0730   -0.1390 C   0  0  0  0  0  0  0  0  0  0  0  0
   -5.0770   -3.4890    1.0980 C   0  0  0  0  0  0  0  0  0  0  0  0
   -5.0260   -1.8080    1.5620 S   0  0  1  0  0  0  0  0  0  0  0  0
   -5.0160   -1.5820    3.0140 O   0  0  0  0  0  0  0  0  0  0  0  0
   -6.0370   -0.9890    0.8250 O   0  0  0  0  0  0  0  0  0  0  0  0
   -0.0230   -0.2360    1.1290 C   0  0  1  0  0  0  0  0  0  0  0  0
   -0.2410   -1.6000    1.2100 O   0  0  0  0  0  0  0  0  0  0  0  0
    1.2840   -0.0890    0.3440 C   0  0  0  0  0  0  0  0  0  0  0  0
    2.4300   -0.6780    1.1450 C   0  0  0  0  0  0  0  0  0  0  0  0
    3.6790   -0.5320    0.3710 C   0  0  0  0  0  0  0  0  0  0  0  0
    4.6960    0.1540    0.8410 C   0  0  0  0  0  0  0  0  0  0  0  0
    5.9770    0.3650    0.1670 C   0  0  1  0  0  0  0  0  0  0  0  0
    6.0990    1.7620    0.0290 F   0  0  0  0  0  0  0  0  0  0  0  0
    7.0140   -0.0570    1.0220 F   0  0  0  0  0  0  0  0  0  0  0  0
    6.1330   -0.2640   -1.1360 C   0  0  0  0  0  0  0  0  0  0  0  0
    4.9730   -1.0180   -1.6210 C   0  0  0  0  0  0  0  0  0  0  0  0
    3.8610   -1.1360   -0.9320 C   0  0  0  0  0  0  0  0  0  0  0  0
  1  2  1  0
  2  3  2  0
  2  4  1  0
  4  5  1  0
  5  6  1  0
  6  7  2  0
  6  8  1  0
  8  9  1  1
  8 18  1  0
  9 10  1  0
 10 11  2  0
 10 15  1  0
 11 12  1  0
 12 13  1  0
 12 14  2  0
 15 14  1  1
 15 16  2  0
 15 17  2  0
 18 19  1  6
 18 20  1  0
 20 21  1  0
 21 22  1  0
 22 23  2  0
 22 29  1  0
 23 24  1  0
 24 25  1  6
 24 26  1  0
 24 27  1  0
 27 28  1  0
 28 29  2  0
M  END
