
     RDKit          3D

 30 32  0  0  0  0  0  0  0  0999 V2000
    6.3960    1.2720    1.0680 C   0  0  0  0  0  0  0  0  0  0  0  0
    5.0050    1.4980    1.0590 O   0  0  0  0  0  0  0  0  0  0  0  0
    4.1360    0.8060    0.2330 C   0  0  0  0  0  0  0  0  0  0  0  0
    4.5260   -0.1630   -0.6590 C   0  0  0  0  0  0  0  0  0  0  0  0
    3.6260   -0.8270   -1.4640 C   0  0  0  0  0  0  0  0  0  0  0  0
    2.2720   -0.5390   -1.4040 C   0  0  0  0  0  0  0  0  0  0  0  0
    1.3790   -1.2020   -2.2160 C   0  0  0  0  0  0  0  0  0  0  0  0
    1.9190   -2.3560   -3.2650 S   0  0  0  0  0  0  0  0  0  0  0  0
    0.0750   -0.9330   -2.1770 N   0  0  0  0  0  0  0  0  0  0  0  0
   -0.3620    0.0290   -1.3010 C   0  0  0  0  0  0  0  0  0  0  0  0
   -1.8160    0.2330   -1.3080 C   0  0  0  0  0  0  0  0  0  0  0  0
   -2.6220   -0.4530   -0.2570 C   0  0  2  0  0  0  0  0  0  0  0  0
   -2.3490   -0.0730    1.1430 C   0  0  0  0  0  0  0  0  0  0  0  0
   -2.5740    1.2910    1.5650 C   0  0  0  0  0  0  0  0  0  0  0  0
   -2.9350    2.3350    0.7060 N   0  0  0  0  0  0  0  0  0  0  0  0
   -2.4400    1.5850    2.7950 O   0  0  0  0  0  0  0  0  0  0  0  0
   -2.3030   -1.9300   -0.3810 C   0  0  0  0  0  0  0  0  0  0  0  0
   -3.4360   -2.7170    0.2310 C   0  0  0  0  0  0  0  0  0  0  0  0
   -4.7760   -1.9210   -0.6760 S   0  0  1  0  0  0  0  0  0  0  0  0
   -4.7960   -2.5020   -2.0350 O   0  0  0  0  0  0  0  0  0  0  0  0
   -6.0550   -2.0060    0.0620 O   0  0  0  0  0  0  0  0  0  0  0  0
   -4.0740   -0.2750   -0.6470 C   0  0  0  0  0  0  0  0  0  0  0  0
    0.4920    0.7070   -0.4830 C   0  0  0  0  0  0  0  0  0  0  0  0
    0.1150    1.6950    0.3490 F   0  0  0  0  0  0  0  0  0  0  0  0
    1.8680    0.4310   -0.5140 C   0  0  0  0  0  0  0  0  0  0  0  0
    2.7650    1.0920    0.2880 C   0  0  0  0  0  0  0  0  0  0  0  0
    2.3850    2.0690    1.1910 O   0  0  0  0  0  0  0  0  0  0  0  0
    2.0830    1.8120    2.5520 C   0  0  2  0  0  0  0  0  0  0  0  0
    0.9600    2.4480    2.9980 F   0  0  0  0  0  0  0  0  0  0  0  0
    3.1430    2.2520    3.3640 F   0  0  0  0  0  0  0  0  0  0  0  0
  1  2  1  0
  2  3  1  0
  3  4  2  0
  3 26  1  0
  4  5  1  0
  5  6  2  0
  6  7  1  0
  6 25  1  0
  7  8  2  0
  7  9  1  0
  9 10  1  0
 10 11  1  0
 10 23  2  0
 12 11  1  6
 12 13  1  0
 12 17  1  0
 12 22  1  0
 13 14  1  0
 14 15  1  0
 14 16  2  0
 17 18  1  0
 19 18  1  1
 19 20  2  0
 19 21  2  0
 19 22  1  0
 23 24  1  0
 23 25  1  0
 25 26  2  0
 26 27  1  0
 27 28  1  0
 28 29  1  1
 28 30  1  0
M  END
