
     RDKit          3D

 31 33  0  0  0  0  0  0  0  0999 V2000
    1.6330   -5.1550   -1.5480 C   0  0  0  0  0  0  0  0  0  0  0  0
    2.7600   -4.2670   -1.3730 C   0  0  0  0  0  0  0  0  0  0  0  0
    2.6860   -2.9860   -1.0440 C   0  0  0  0  0  0  0  0  0  0  0  0
    1.4100   -2.3730   -0.8300 C   0  0  0  0  0  0  0  0  0  0  0  0
    1.1460   -1.1140   -0.4940 C   0  0  0  0  0  0  0  0  0  0  0  0
    2.2480   -0.2380   -0.3170 C   0  0  0  0  0  0  0  0  0  0  0  0
    3.4770   -0.7040   -0.4630 O   0  0  0  0  0  0  0  0  0  0  0  0
    2.3390    1.1340    0.0050 N   0  0  0  0  0  0  0  0  0  0  0  0
    3.6870    1.7670    0.1240 C   0  0  0  0  0  0  0  0  0  0  0  0
    3.5690    3.2200    0.4550 C   0  0  1  0  0  0  0  0  0  0  0  0
    4.9420    3.7910    0.5220 C   0  0  0  0  0  0  0  0  0  0  0  0
    4.7980    5.1330   -0.1470 C   0  0  0  0  0  0  0  0  0  0  0  0
    3.5080    5.0040   -0.8870 C   0  0  0  0  0  0  0  0  0  0  0  0
    2.8790    3.8410   -0.5570 O   0  0  0  0  0  0  0  0  0  0  0  0
   -0.2850   -0.7900   -0.3260 C   0  0  0  0  0  0  0  0  0  0  0  0
   -0.7220    0.3970    0.0110 C   0  0  0  0  0  0  0  0  0  0  0  0
   -2.1540    0.6720    0.1660 C   0  0  0  0  0  0  0  0  0  0  0  0
   -2.6290    2.0060    0.5330 C   0  0  0  0  0  0  0  0  0  0  0  0
   -2.2680    2.4830    1.8960 C   0  0  1  0  0  0  0  0  0  0  0  0
   -2.8010    1.5840    2.9920 C   0  0  0  0  0  0  0  0  0  0  0  0
   -0.8960    2.7970    2.1290 N   0  0  0  0  0  0  0  0  0  0  0  0
   -3.0220   -0.2900   -0.0390 C   0  0  0  0  0  0  0  0  0  0  0  0
   -2.6100   -1.5910   -0.4060 N   0  0  0  0  0  0  0  0  0  0  0  0
   -3.5580   -2.6500   -0.6150 C   0  0  0  0  0  0  0  0  0  0  0  0
   -4.7910   -2.5890   -0.0370 C   0  0  0  0  0  0  0  0  0  0  0  0
   -5.6950   -3.6090   -0.2660 C   0  0  0  0  0  0  0  0  0  0  0  0
   -5.3550   -4.6830   -1.0720 C   0  0  0  0  0  0  0  0  0  0  0  0
   -6.2730   -5.6640   -1.2710 F   0  0  0  0  0  0  0  0  0  0  0  0
   -4.1200   -4.7680   -1.6660 C   0  0  0  0  0  0  0  0  0  0  0  0
   -3.2250   -3.7280   -1.4210 C   0  0  0  0  0  0  0  0  0  0  0  0
   -1.2340   -1.8230   -0.5450 N   0  0  0  0  0  0  0  0  0  0  0  0
  1  2  1  0
  2  3  2  3
  3  4  1  0
  4  5  2  3
  5  6  1  0
  5 15  1  0
  6  7  2  0
  6  8  1  0
  8  9  1  0
 10  9  1  6
 10 11  1  0
 10 14  1  0
 11 12  1  0
 12 13  1  0
 13 14  1  0
 15 16  2  0
 15 31  1  0
 16 17  1  0
 17 18  1  0
 17 22  2  0
 18 19  1  0
 19 20  1  1
 19 21  1  0
 22 23  1  0
 23 24  1  0
 23 31  1  0
 24 25  2  0
 24 30  1  0
 25 26  1  0
 26 27  2  0
 27 28  1  0
 27 29  1  0
 29 30  2  0
M  CHG  1  21   1
M  END
