
     RDKit          3D

 30 32  0  0  0  0  0  0  0  0999 V2000
   -6.6030   -1.5230    0.9500 C   0  0  0  0  0  0  0  0  0  0  0  0
   -5.1680   -1.6240    0.4830 C   0  0  0  0  0  0  0  0  0  0  0  0
   -4.0900   -0.8750    0.8480 C   0  0  0  0  0  0  0  0  0  0  0  0
   -2.8850   -1.1580    0.3040 C   0  0  0  0  0  0  0  0  0  0  0  0
   -1.6410   -0.3780    0.7530 C   0  0  0  0  0  0  0  0  0  0  0  0
   -0.9460    0.1260   -0.3280 O   0  0  0  0  0  0  0  0  0  0  0  0
    0.1670    0.9550   -0.1430 C   0  0  0  0  0  0  0  0  0  0  0  0
   -0.0660    2.3460   -0.0790 C   0  0  0  0  0  0  0  0  0  0  0  0
    1.0030    3.1960    0.0940 C   0  0  0  0  0  0  0  0  0  0  0  0
    2.2560    2.7080    0.2040 C   0  0  0  0  0  0  0  0  0  0  0  0
    2.5510    1.3600    0.1510 C   0  0  0  0  0  0  0  0  0  0  0  0
    3.8740    0.8670    0.2780 N   0  0  0  0  0  0  0  0  0  0  0  0
    1.4490    0.4990   -0.0270 C   0  0  0  0  0  0  0  0  0  0  0  0
    1.7760   -0.9010   -0.0700 C   0  0  0  0  0  0  0  0  0  0  0  0
    0.8730   -1.7960   -0.2180 O   0  0  0  0  0  0  0  0  0  0  0  0
    3.0680   -1.4110    0.0400 O   0  0  0  0  0  0  0  0  0  0  0  0
    3.2480   -2.7930   -0.0090 C   0  0  0  0  0  0  0  0  0  0  0  0
    4.6750   -3.2000    0.0730 C   0  0  0  0  0  0  0  0  0  0  0  0
    4.9610   -4.4080    0.1190 O   0  0  0  0  0  0  0  0  0  0  0  0
    5.8120   -2.2430    0.1060 C   0  0  1  0  0  0  0  0  0  0  0  0
    5.8410   -1.4650   -1.0430 F   0  0  0  0  0  0  0  0  0  0  0  0
    5.8390   -1.4540    1.2200 F   0  0  0  0  0  0  0  0  0  0  0  0
    7.0070   -2.9860    0.1420 F   0  0  0  0  0  0  0  0  0  0  0  0
    0.6550    4.9240    0.1480 S   0  0  0  0  0  0  0  0  0  0  0  0
   -0.8800    5.1700   -0.7700 C   0  0  0  0  0  0  0  0  0  0  0  0
   -1.8170    4.0590   -0.5250 C   0  0  0  0  0  0  0  0  0  0  0  0
   -1.3500    2.8120   -0.1940 O   0  0  0  0  0  0  0  0  0  0  0  0
   -2.7800   -2.1700   -0.5840 C   0  0  0  0  0  0  0  0  0  0  0  0
   -1.7810   -2.7520   -1.3630 N   0  0  0  0  0  0  0  0  0  0  0  0
   -4.5460   -2.7910   -0.6660 S   0  0  0  0  0  0  0  0  0  0  0  0
  1  2  1  0
  2  3  2  0
  2 30  1  0
  3  4  1  0
  4  5  1  0
  4 28  2  0
  5  6  1  0
  6  7  1  0
  7  8  2  0
  7 13  1  0
  8  9  1  0
  8 27  1  0
  9 10  2  0
  9 24  1  0
 10 11  1  0
 11 12  1  0
 11 13  2  0
 13 14  1  0
 14 15  2  0
 14 16  1  0
 16 17  1  0
 17 18  1  0
 18 19  2  0
 18 20  1  0
 20 21  1  6
 20 22  1  0
 20 23  1  0
 24 25  1  0
 25 26  1  0
 26 27  1  0
 28 29  1  0
 28 30  1  0
M  END
