
     RDKit          3D

 31 33  0  0  0  0  0  0  0  0999 V2000
    9.2640    1.6250   -0.3330 C   0  0  0  0  0  0  0  0  0  0  0  0
    7.9520    0.9600   -0.2800 C   0  0  0  0  0  0  0  0  0  0  0  0
    7.2230    1.0220    0.8770 C   0  0  0  0  0  0  0  0  0  0  0  0
    5.9810    0.3920    0.9250 C   0  0  0  0  0  0  0  0  0  0  0  0
    5.4500   -0.2880   -0.1290 C   0  0  0  0  0  0  0  0  0  0  0  0
    4.2130   -0.9420   -0.1490 N   0  0  0  0  0  0  0  0  0  0  0  0
    3.2570   -1.0410    0.8950 C   0  0  0  0  0  0  0  0  0  0  0  0
    3.5150   -0.4900    1.9840 O   0  0  0  0  0  0  0  0  0  0  0  0
    2.0240   -1.7540    0.7150 N   0  0  0  0  0  0  0  0  0  0  0  0
    1.0950   -1.8120    1.8140 C   0  0  0  0  0  0  0  0  0  0  0  0
    0.6170   -0.4830    2.2330 C   0  0  0  0  0  0  0  0  0  0  0  0
   -0.1090    0.3890    1.2790 C   0  0  0  0  0  0  0  0  0  0  0  0
   -1.4080   -0.1430    0.8180 C   0  0  2  0  0  0  0  0  0  0  0  0
   -2.1960   -0.3490    1.9810 O   0  0  0  0  0  0  0  0  0  0  0  0
   -1.2820   -1.3410   -0.0470 C   0  0  0  0  0  0  0  0  0  0  0  0
   -2.3280   -1.2290   -1.1660 C   0  0  0  0  0  0  0  0  0  0  0  0
   -3.6230   -0.8930   -0.4620 C   0  0  0  0  0  0  0  0  0  0  0  0
   -3.5470    0.5010   -0.0850 N   0  0  2  0  0  0  0  0  0  0  0  0
   -4.3070    1.3450   -0.9830 C   0  0  0  0  0  0  0  0  0  0  0  0
   -5.7760    1.1720   -0.8640 C   0  0  0  0  0  0  0  0  0  0  0  0
   -6.3920    0.3010    0.0030 C   0  0  0  0  0  0  0  0  0  0  0  0
   -7.7650    0.2040    0.0460 C   0  0  0  0  0  0  0  0  0  0  0  0
   -8.5870    0.9580   -0.7600 C   0  0  0  0  0  0  0  0  0  0  0  0
   -7.9520    1.8270   -1.6250 C   0  0  0  0  0  0  0  0  0  0  0  0
   -6.5830    1.9430   -1.6880 C   0  0  0  0  0  0  0  0  0  0  0  0
   -5.9950    2.8250   -2.5680 F   0  0  0  0  0  0  0  0  0  0  0  0
   -2.1990    0.9610    0.0810 C   0  0  0  0  0  0  0  0  0  0  0  0
    6.2090   -0.3430   -1.3080 C   0  0  0  0  0  0  0  0  0  0  0  0
    5.7480   -1.0310   -2.4790 C   0  0  0  0  0  0  0  0  0  0  0  0
    5.3700   -1.5760   -3.4070 N   0  0  0  0  0  0  0  0  0  0  0  0
    7.4390    0.2760   -1.3680 C   0  0  0  0  0  0  0  0  0  0  0  0
  1  2  1  0
  2  3  2  0
  2 31  1  0
  3  4  1  0
  4  5  2  0
  5  6  1  0
  5 28  1  0
  6  7  1  0
  7  8  2  0
  7  9  1  0
  9 10  1  0
 10 11  1  0
 11 12  1  0
 12 13  1  0
 13 14  1  1
 13 15  1  0
 13 27  1  0
 15 16  1  0
 16 17  1  0
 17 18  1  0
 18 19  1  6
 18 27  1  0
 19 20  1  0
 20 21  2  0
 20 25  1  0
 21 22  1  0
 22 23  2  0
 23 24  1  0
 24 25  2  0
 25 26  1  0
 28 29  1  0
 28 31  2  0
 29 30  3  0
M  CHG  1  18   1
M  END
