
     RDKit          3D

 25 27  0  0  0  0  0  0  0  0999 V2000
   -0.6250    4.0260   -0.8030 C   0  0  0  0  0  0  0  0  0  0  0  0
   -0.5950    3.1220    0.1890 C   0  0  0  0  0  0  0  0  0  0  0  0
   -1.5930    2.0490    0.2620 C   0  0  0  0  0  0  0  0  0  0  0  0
   -0.9560    0.8070    0.2020 O   0  0  0  0  0  0  0  0  0  0  0  0
   -1.6520   -0.4100    0.2500 C   0  0  0  0  0  0  0  0  0  0  0  0
   -3.0050   -0.3630    0.3610 C   0  0  0  0  0  0  0  0  0  0  0  0
   -3.7800   -1.5120    0.4160 C   0  0  0  0  0  0  0  0  0  0  0  0
   -3.0990   -2.6880    0.3530 C   0  0  0  0  0  0  0  0  0  0  0  0
   -1.7450   -2.7410    0.2420 C   0  0  0  0  0  0  0  0  0  0  0  0
   -0.9580   -1.5850    0.1860 C   0  0  0  0  0  0  0  0  0  0  0  0
    0.4640   -1.7230    0.0690 C   0  0  0  0  0  0  0  0  0  0  0  0
    0.9770   -2.8900    0.0190 O   0  0  0  0  0  0  0  0  0  0  0  0
    1.3950   -0.6240    0.0000 C   0  0  0  0  0  0  0  0  0  0  0  0
    2.7180   -0.8760   -0.1090 C   0  0  0  0  0  0  0  0  0  0  0  0
    3.1480   -2.2070   -0.1530 O   0  0  0  0  0  0  0  0  0  0  0  0
    3.7110    0.1590   -0.1830 C   0  0  0  0  0  0  0  0  0  0  0  0
    3.3960    1.4730   -0.1480 C   0  0  0  0  0  0  0  0  0  0  0  0
    4.3970    2.4350   -0.2230 C   0  0  0  0  0  0  0  0  0  0  0  0
    5.7160    2.0940   -0.3330 C   0  0  0  0  0  0  0  0  0  0  0  0
    6.0310    0.7560   -0.3680 C   0  0  0  0  0  0  0  0  0  0  0  0
    5.0480   -0.1910   -0.2940 C   0  0  0  0  0  0  0  0  0  0  0  0
    5.5340   -1.8810   -0.3460 Cl  0  0  0  0  0  0  0  0  0  0  0  0
   -4.3220   -3.9810    0.4610 S   0  0  0  0  0  0  0  0  0  0  0  0
   -5.6580   -2.8960    1.1310 C   0  0  0  0  0  0  0  0  0  0  0  0
   -5.2280   -1.6090    0.5220 C   0  0  0  0  0  0  0  0  0  0  0  0
  1  2  2  0
  2  3  1  0
  3  4  1  0
  4  5  1  0
  5  6  2  0
  5 10  1  0
  6  7  1  0
  7  8  2  0
  7 25  1  0
  8  9  1  0
  8 23  1  0
  9 10  2  0
 10 11  1  0
 11 12  2  0
 11 13  1  0
 13 14  2  3
 14 15  1  0
 14 16  1  0
 16 17  2  0
 16 21  1  0
 17 18  1  0
 18 19  2  0
 19 20  1  0
 20 21  2  0
 21 22  1  0
 23 24  1  0
 24 25  1  0
M  END
