
     RDKit          3D

 25 27  0  0  0  0  0  0  0  0999 V2000
    7.3660    1.2170   -0.1320 C   0  0  0  0  0  0  0  0  0  0  0  0
    6.6110    0.1280   -0.0660 C   0  0  0  0  0  0  0  0  0  0  0  0
    6.8150   -1.1380   -0.7820 C   0  0  0  0  0  0  0  0  0  0  0  0
    5.8260   -1.9240   -0.4090 C   0  0  0  0  0  0  0  0  0  0  0  0
    5.6280   -3.5760   -1.0050 Cl  0  0  0  0  0  0  0  0  0  0  0  0
    4.9520   -1.2560    0.5290 C   0  0  0  0  0  0  0  0  0  0  0  0
    5.4090   -0.0320    0.7420 C   0  0  0  0  0  0  0  0  0  0  0  0
    4.8300    0.9260    1.5950 O   0  0  0  0  0  0  0  0  0  0  0  0
    3.9470    1.9110    1.1070 C   0  0  0  0  0  0  0  0  0  0  0  0
    2.7420    1.3170    0.4720 C   0  0  0  0  0  0  0  0  0  0  0  0
    2.4990    0.9100   -0.8330 C   0  0  0  0  0  0  0  0  0  0  0  0
    1.3010    0.4080   -1.1220 C   0  0  0  0  0  0  0  0  0  0  0  0
    0.3610    0.3090   -0.1500 C   0  0  0  0  0  0  0  0  0  0  0  0
   -1.0470   -0.2210   -0.2470 C   0  0  0  0  0  0  0  0  0  0  0  0
   -1.6690   -0.1070    1.1310 C   0  0  0  0  0  0  0  0  0  0  0  0
   -3.0760   -0.6410    1.0140 C   0  0  0  0  0  0  0  0  0  0  0  0
   -3.7800    0.1390    0.0670 O   0  0  0  0  0  0  0  0  0  0  0  0
   -5.1030   -0.1500   -0.2240 C   0  0  0  0  0  0  0  0  0  0  0  0
   -5.7690   -1.1900    0.3890 C   0  0  0  0  0  0  0  0  0  0  0  0
   -7.0980   -1.4540    0.0750 C   0  0  0  0  0  0  0  0  0  0  0  0
   -7.7970   -0.7050   -0.8450 C   0  0  0  0  0  0  0  0  0  0  0  0
   -7.1250    0.3450   -1.4640 C   0  0  0  0  0  0  0  0  0  0  0  0
   -5.8050    0.5990   -1.1440 C   0  0  0  0  0  0  0  0  0  0  0  0
   -5.1510    1.6510   -1.7720 O   0  0  0  0  0  0  0  0  0  0  0  0
    1.1710    0.9460    1.2580 S   0  0  0  0  0  0  0  0  0  0  0  0
  1  2  2  0
  2  3  1  0
  2  7  1  0
  3  4  2  0
  4  5  1  0
  4  6  1  0
  6  7  2  0
  7  8  1  0
  8  9  1  0
  9 10  1  0
 10 11  2  0
 10 25  1  0
 11 12  1  0
 12 13  2  0
 13 14  1  0
 13 25  1  0
 14 15  1  0
 15 16  1  0
 16 17  1  0
 17 18  1  0
 18 19  2  0
 18 23  1  0
 19 20  1  0
 20 21  2  0
 21 22  1  0
 22 23  2  0
 23 24  1  0
M  END
