
     RDKit          3D

 25 27  0  0  0  0  0  0  0  0999 V2000
    9.0280   -0.7790   -0.4730 C   0  0  0  0  0  0  0  0  0  0  0  0
    7.8100   -0.1270   -0.7560 O   0  0  0  0  0  0  0  0  0  0  0  0
    7.1970    0.3620    0.4240 C   0  0  0  0  0  0  0  0  0  0  0  0
    5.8920    0.8620    0.1600 C   0  0  0  0  0  0  0  0  0  0  0  0
    5.2310    2.0360   -0.0900 C   0  0  0  0  0  0  0  0  0  0  0  0
    3.8970    2.0670   -0.2660 C   0  0  0  0  0  0  0  0  0  0  0  0
    3.1690    0.9590   -0.1960 C   0  0  0  0  0  0  0  0  0  0  0  0
    1.8300    0.4660   -0.3490 C   0  0  0  0  0  0  0  0  0  0  0  0
    0.7810    1.2020    0.2670 O   0  0  0  0  0  0  0  0  0  0  0  0
   -0.4860    0.5520    0.1520 C   0  0  0  0  0  0  0  0  0  0  0  0
   -0.6860   -0.6760   -0.4410 C   0  0  0  0  0  0  0  0  0  0  0  0
   -1.9240   -1.3020   -0.5350 C   0  0  0  0  0  0  0  0  0  0  0  0
   -2.1820   -2.6180   -1.0870 C   0  0  0  0  0  0  0  0  0  0  0  0
   -1.7590   -2.7910   -2.4420 O   0  0  0  0  0  0  0  0  0  0  0  0
   -3.0190   -0.6030    0.0170 C   0  0  0  0  0  0  0  0  0  0  0  0
   -4.3210   -1.1440   -0.1520 C   0  0  0  0  0  0  0  0  0  0  0  0
   -5.4440   -0.4670    0.2540 C   0  0  0  0  0  0  0  0  0  0  0  0
   -6.7650   -1.1180    0.0590 C   0  0  0  0  0  0  0  0  0  0  0  0
   -5.2640    0.7760    0.8390 C   0  0  0  0  0  0  0  0  0  0  0  0
   -6.4760    1.6120    1.1750 C   0  0  0  0  0  0  0  0  0  0  0  0
   -4.0020    1.3100    1.0170 C   0  0  0  0  0  0  0  0  0  0  0  0
   -2.8560    0.6180    0.6040 C   0  0  0  0  0  0  0  0  0  0  0  0
   -1.5980    1.1700    0.6650 C   0  0  0  0  0  0  0  0  0  0  0  0
   -1.4640    2.7480    1.4260 Cl  0  0  0  0  0  0  0  0  0  0  0  0
    4.4280   -0.3000    0.1410 S   0  0  0  0  0  0  0  0  0  0  0  0
  1  2  1  0
  2  3  1  0
  3  4  1  0
  4  5  2  0
  4 25  1  0
  5  6  1  0
  6  7  2  0
  7  8  1  0
  7 25  1  0
  8  9  1  0
  9 10  1  0
 10 11  2  0
 10 23  1  0
 11 12  1  0
 12 13  1  0
 12 15  2  0
 13 14  1  0
 15 16  1  0
 15 22  1  0
 16 17  2  0
 17 18  1  0
 17 19  1  0
 19 20  1  0
 19 21  2  0
 21 22  1  0
 22 23  2  0
 23 24  1  0
M  END
