
     RDKit          3D

 25 27  0  0  0  0  0  0  0  0999 V2000
   -7.0280    2.1010    0.0030 C   0  0  0  0  0  0  0  0  0  0  0  0
   -7.0710    0.7820    0.4960 O   0  0  0  0  0  0  0  0  0  0  0  0
   -5.9150    0.0170    0.6720 C   0  0  0  0  0  0  0  0  0  0  0  0
   -4.6660    0.5160    0.3690 C   0  0  0  0  0  0  0  0  0  0  0  0
   -3.5240   -0.2440    0.5450 C   0  0  0  0  0  0  0  0  0  0  0  0
   -2.1710    0.2630    0.2300 C   0  0  0  0  0  0  0  0  0  0  0  0
   -1.2290   -0.7460    0.5160 O   0  0  0  0  0  0  0  0  0  0  0  0
    0.1350   -0.5840    0.3280 C   0  0  0  0  0  0  0  0  0  0  0  0
    0.7050    0.5740   -0.1540 C   0  0  0  0  0  0  0  0  0  0  0  0
    2.0890    0.6930   -0.3280 C   0  0  0  0  0  0  0  0  0  0  0  0
    2.9310   -0.3470   -0.0210 C   0  0  0  0  0  0  0  0  0  0  0  0
    4.3940   -0.2800   -0.1830 C   0  0  0  0  0  0  0  0  0  0  0  0
    5.0170    0.7680   -0.6300 C   0  0  0  0  0  0  0  0  0  0  0  0
    6.4580    0.7800   -0.7690 C   0  0  0  0  0  0  0  0  0  0  0  0
    7.3860   -0.1940   -0.4950 C   0  0  0  0  0  0  0  0  0  0  0  0
    8.6730    0.0520   -0.7060 C   0  0  0  0  0  0  0  0  0  0  0  0
    9.0450    1.2760   -1.1950 C   0  0  0  0  0  0  0  0  0  0  0  0
    7.4450    2.1190   -1.3580 S   0  0  0  0  0  0  0  0  0  0  0  0
    2.3550   -1.5070    0.4630 C   0  0  0  0  0  0  0  0  0  0  0  0
    0.9790   -1.6290    0.6370 C   0  0  0  0  0  0  0  0  0  0  0  0
    0.3070   -3.1340    1.2590 Cl  0  0  0  0  0  0  0  0  0  0  0  0
   -3.7050   -1.5200    1.0350 C   0  0  0  0  0  0  0  0  0  0  0  0
   -4.9380   -2.0500    1.3460 C   0  0  0  0  0  0  0  0  0  0  0  0
   -6.0720   -1.2620    1.1600 C   0  0  0  0  0  0  0  0  0  0  0  0
   -7.3400   -1.7380    1.4560 O   0  0  0  0  0  0  0  0  0  0  0  0
  1  2  1  0
  2  3  1  0
  3  4  2  0
  3 24  1  0
  4  5  1  0
  5  6  1  0
  5 22  2  0
  6  7  1  0
  7  8  1  0
  8  9  2  0
  8 20  1  0
  9 10  1  0
 10 11  2  0
 11 12  1  0
 11 19  1  0
 12 13  2  3
 13 14  1  0
 14 15  2  0
 14 18  1  0
 15 16  1  0
 16 17  2  0
 17 18  1  0
 19 20  2  0
 20 21  1  0
 22 23  1  0
 23 24  2  0
 24 25  1  0
M  END
