
     RDKit          3D

 25 27  0  0  0  0  0  0  0  0999 V2000
    5.2980   -2.1990   -0.1940 C   0  0  0  0  0  0  0  0  0  0  0  0
    4.3140   -1.0980   -0.0240 C   0  0  0  0  0  0  0  0  0  0  0  0
    3.1250   -1.1190   -0.7080 C   0  0  0  0  0  0  0  0  0  0  0  0
    2.2240   -0.0980   -0.5430 C   0  0  0  0  0  0  0  0  0  0  0  0
    1.0470   -0.1420   -1.2350 O   0  0  0  0  0  0  0  0  0  0  0  0
    0.0510    0.8270   -1.1600 C   0  0  0  0  0  0  0  0  0  0  0  0
   -1.1350    0.5630   -1.9990 C   0  0  0  0  0  0  0  0  0  0  0  0
   -1.9750   -0.6230   -1.7210 C   0  0  0  0  0  0  0  0  0  0  0  0
   -2.5860   -0.5790   -0.3090 C   0  0  0  0  0  0  0  0  0  0  0  0
   -1.9310   -1.1420    0.7180 C   0  0  0  0  0  0  0  0  0  0  0  0
   -0.7780   -2.0330    0.8140 C   0  0  0  0  0  0  0  0  0  0  0  0
   -0.3520   -2.3230    1.9610 O   0  0  0  0  0  0  0  0  0  0  0  0
   -0.1190   -2.5920   -0.2490 O   0  0  0  0  0  0  0  0  0  0  0  0
   -2.9220   -0.7000    2.1550 S   0  0  0  0  0  0  0  0  0  0  0  0
   -4.1520    0.2110    1.2270 C   0  0  0  0  0  0  0  0  0  0  0  0
   -5.3000    0.8840    1.6480 C   0  0  0  0  0  0  0  0  0  0  0  0
   -6.0980    1.5190    0.6980 C   0  0  0  0  0  0  0  0  0  0  0  0
   -5.7020    1.4410   -0.5930 C   0  0  0  0  0  0  0  0  0  0  0  0
   -4.5710    0.7750   -0.9780 C   0  0  0  0  0  0  0  0  0  0  0  0
   -3.7280    0.1140   -0.0530 C   0  0  0  0  0  0  0  0  0  0  0  0
    2.5300    0.9540    0.3210 C   0  0  0  0  0  0  0  0  0  0  0  0
    3.7230    0.9900    1.0170 C   0  0  0  0  0  0  0  0  0  0  0  0
    4.0480    2.1090    1.9360 C   0  0  0  0  0  0  0  0  0  0  0  0
    4.6090   -0.0450    0.8340 C   0  0  0  0  0  0  0  0  0  0  0  0
    6.1260   -0.0230    1.7040 Cl  0  0  0  0  0  0  0  0  0  0  0  0
  1  2  1  0
  2  3  2  0
  2 24  1  0
  3  4  1  0
  4  5  1  0
  4 21  2  0
  5  6  1  0
  6  7  1  0
  7  8  1  0
  8  9  1  0
  9 10  2  0
  9 20  1  0
 10 11  1  0
 10 14  1  0
 11 12  2  0
 11 13  1  0
 14 15  1  0
 15 16  2  0
 15 20  1  0
 16 17  1  0
 17 18  2  0
 18 19  1  0
 19 20  2  0
 21 22  1  0
 22 23  1  0
 22 24  2  0
 24 25  1  0
M  END
