
     RDKit          3D

 25 27  0  0  0  0  0  0  0  0999 V2000
    3.6400   -1.0090   -1.4730 C   0  0  0  0  0  0  0  0  0  0  0  0
    3.1510   -0.4430   -0.1750 C   0  0  0  0  0  0  0  0  0  0  0  0
    2.1490    0.4070   -0.0910 C   0  0  0  0  0  0  0  0  0  0  0  0
    1.7140    0.9560    1.5190 Cl  0  0  0  0  0  0  0  0  0  0  0  0
    1.4900    0.8800   -1.2940 C   0  0  0  0  0  0  0  0  0  0  0  0
    2.2220    1.3510   -2.3880 C   0  0  0  0  0  0  0  0  0  0  0  0
    1.5750    1.7720   -3.5120 C   0  0  0  0  0  0  0  0  0  0  0  0
    2.3220    2.2360   -4.5840 O   0  0  0  0  0  0  0  0  0  0  0  0
    0.1970    1.7360   -3.5780 C   0  0  0  0  0  0  0  0  0  0  0  0
   -0.5460    1.2760   -2.5140 C   0  0  0  0  0  0  0  0  0  0  0  0
    0.0980    0.8430   -1.3600 C   0  0  0  0  0  0  0  0  0  0  0  0
   -0.6720    0.3360   -0.2010 C   0  0  0  0  0  0  0  0  0  0  0  0
   -2.0430    0.4050   -0.5630 O   0  0  0  0  0  0  0  0  0  0  0  0
   -2.8290   -0.0720    0.4960 C   0  0  1  0  0  0  0  0  0  0  0  0
   -3.6460    1.0870    1.0190 C   0  0  0  0  0  0  0  0  0  0  0  0
   -4.6730    0.5390    2.0220 C   0  0  0  0  0  0  0  0  0  0  0  0
   -5.6520   -0.2470    1.1610 C   0  0  0  0  0  0  0  0  0  0  0  0
   -4.9180   -1.4800    0.6850 C   0  0  0  0  0  0  0  0  0  0  0  0
   -3.6450   -1.2040   -0.0290 C   0  0  0  0  0  0  0  0  0  0  0  0
    3.9040   -0.8890    1.0020 C   0  0  0  0  0  0  0  0  0  0  0  0
    4.2940   -0.0090    1.9820 C   0  0  0  0  0  0  0  0  0  0  0  0
    4.9650   -0.7680    2.9130 C   0  0  0  0  0  0  0  0  0  0  0  0
    4.9560   -2.0800    2.4600 C   0  0  0  0  0  0  0  0  0  0  0  0
    5.6980   -3.4850    3.3010 S   0  0  0  0  0  0  0  0  0  0  0  0
    4.3020   -2.0920    1.3030 O   0  0  0  0  0  0  0  0  0  0  0  0
  1  2  1  0
  2  3  2  3
  2 20  1  0
  3  4  1  0
  3  5  1  0
  5  6  2  0
  5 11  1  0
  6  7  1  0
  7  8  1  0
  7  9  2  0
  9 10  1  0
 10 11  2  0
 11 12  1  0
 12 13  1  0
 14 13  1  6
 14 15  1  0
 14 19  1  0
 15 16  1  0
 16 17  1  0
 17 18  1  0
 18 19  1  0
 20 21  2  0
 20 25  1  0
 21 22  1  0
 22 23  2  0
 23 24  1  0
 23 25  1  0
M  END
