
     RDKit          3D

 28 31  0  0  0  0  0  0  0  0999 V2000
   -0.1090    1.8240    0.4750 N   0  0  0  0  0  0  0  0  0  0  0  0
   -0.5760    0.5190    0.9130 C   0  0  1  0  0  0  0  0  0  0  0  0
   -2.0200    0.5040    1.1700 C   0  0  0  0  0  0  0  0  0  0  0  0
   -2.6740    1.2540    1.9810 O   0  0  0  0  0  0  0  0  0  0  0  0
   -2.6160   -0.5440    0.3170 C   0  0  0  0  0  0  0  0  0  0  0  0
   -3.8840   -0.9010    0.1850 C   0  0  0  0  0  0  0  0  0  0  0  0
   -4.8730   -0.1890    0.9700 N   0  0  0  0  0  0  0  0  0  0  0  0
   -5.9970    0.3650    0.3810 N   0  0  0  0  0  0  0  0  0  0  0  0
   -6.0150    1.7430    0.0810 C   0  0  0  0  0  0  0  0  0  0  0  0
   -5.0220    2.4810    0.3410 O   0  0  0  0  0  0  0  0  0  0  0  0
   -4.4280   -1.9530   -0.6870 C   0  0  0  0  0  0  0  0  0  0  0  0
   -3.1970   -2.8510   -1.6440 S   0  0  0  0  0  0  0  0  0  0  0  0
   -1.6010   -2.1580   -1.2740 C   0  0  0  0  0  0  0  0  0  0  0  0
   -0.4750   -2.6530   -1.8750 C   0  0  0  0  0  0  0  0  0  0  0  0
    0.7590   -2.0660   -1.5420 C   0  0  0  0  0  0  0  0  0  0  0  0
    0.8550   -1.0280   -0.6450 C   0  0  0  0  0  0  0  0  0  0  0  0
    2.0500   -0.3770   -0.2680 N   0  0  0  0  0  0  0  0  0  0  0  0
    3.3520   -0.6550   -0.7070 C   0  0  0  0  0  0  0  0  0  0  0  0
    3.4740   -1.6070   -1.5340 O   0  0  0  0  0  0  0  0  0  0  0  0
    4.5610    0.0550   -0.2970 C   0  0  0  0  0  0  0  0  0  0  0  0
    5.7510   -0.3720   -0.8920 C   0  0  0  0  0  0  0  0  0  0  0  0
    6.8860    0.2570   -0.5770 N   0  0  0  0  0  0  0  0  0  0  0  0
    6.8800    1.2850    0.2990 C   0  0  0  0  0  0  0  0  0  0  0  0
    5.7530    1.7260    0.8950 C   0  0  0  0  0  0  0  0  0  0  0  0
    4.5250    1.0900    0.5920 C   0  0  0  0  0  0  0  0  0  0  0  0
    3.3970    1.5620    1.2180 O   0  0  0  0  0  0  0  0  0  0  0  0
   -0.3270   -0.5390   -0.0400 C   0  0  0  0  0  0  0  0  0  0  0  0
   -1.5070   -1.1300   -0.3840 C   0  0  0  0  0  0  0  0  0  0  0  0
  2  1  1  6
  2  3  1  0
  2 27  1  0
  3  4  2  0
  3  5  1  0
  5  6  2  0
  5 28  1  0
  6  7  1  0
  6 11  1  0
  7  8  1  0
  8  9  1  0
  9 10  2  0
 11 12  1  0
 12 13  1  0
 13 14  2  0
 13 28  1  0
 14 15  1  0
 15 16  2  0
 16 17  1  0
 16 27  1  0
 17 18  1  0
 18 19  2  0
 18 20  1  0
 20 21  2  0
 20 25  1  0
 21 22  1  0
 22 23  2  0
 23 24  1  0
 24 25  2  0
 25 26  1  0
 27 28  2  0
M  CHG  1   1   1
M  END
