
     RDKit          3D

 28 31  0  0  0  0  0  0  0  0999 V2000
   -5.5050    1.0500   -3.6830 N   0  0  0  0  0  0  0  0  0  0  0  0
   -5.3390    0.6900   -2.3250 C   0  0  0  0  0  0  0  0  0  0  0  0
   -4.4520    0.9460   -1.4230 N   0  0  0  0  0  0  0  0  0  0  0  0
   -4.5050    0.4910   -0.1940 C   0  0  0  0  0  0  0  0  0  0  0  0
   -3.5020    0.7540    0.9150 C   0  0  1  0  0  0  0  0  0  0  0  0
   -4.2090    1.0270    2.0770 O   0  0  0  0  0  0  0  0  0  0  0  0
   -2.5410   -0.3470    1.1260 C   0  0  1  0  0  0  0  0  0  0  0  0
   -3.0940   -1.6760    1.4930 C   0  0  0  0  0  0  0  0  0  0  0  0
   -1.9190   -2.6650    1.4630 C   0  0  0  0  0  0  0  0  0  0  0  0
   -0.6190   -1.9760    1.7150 C   0  0  0  0  0  0  0  0  0  0  0  0
   -0.2900   -1.1410    0.4790 C   0  0  2  0  0  0  0  0  0  0  0  0
    0.6610   -0.2190    0.7800 O   0  0  0  0  0  0  0  0  0  0  0  0
    1.9240    0.0580    0.4060 C   0  0  0  0  0  0  0  0  0  0  0  0
    2.5500    1.1630    1.0090 C   0  0  0  0  0  0  0  0  0  0  0  0
    3.8340    1.5260    0.6960 C   0  0  0  0  0  0  0  0  0  0  0  0
    4.5580    0.8080   -0.2310 C   0  0  0  0  0  0  0  0  0  0  0  0
    5.9240    1.1870   -0.5700 C   0  0  0  0  0  0  0  0  0  0  0  0
    6.7640    0.6080   -1.4390 N   0  0  0  0  0  0  0  0  0  0  0  0
    7.9000    1.2710   -1.4380 N   0  0  0  0  0  0  0  0  0  0  0  0
    7.8210    2.3000   -0.5630 C   0  0  0  0  0  0  0  0  0  0  0  0
    8.7370    3.1280   -0.3230 O   0  0  0  0  0  0  0  0  0  0  0  0
    6.5870    2.2280   -0.0370 N   0  0  0  0  0  0  0  0  0  0  0  0
    3.9280   -0.2690   -0.8090 C   0  0  0  0  0  0  0  0  0  0  0  0
    2.6350   -0.6690   -0.5220 C   0  0  0  0  0  0  0  0  0  0  0  0
    2.0820   -1.7790   -1.1630 O   0  0  0  0  0  0  0  0  0  0  0  0
   -1.5890   -0.5440   -0.0460 C   0  0  0  0  0  0  0  0  0  0  0  0
   -5.5950   -0.3080    0.1110 C   0  0  0  0  0  0  0  0  0  0  0  0
   -6.5540   -0.3930   -1.4240 S   0  0  0  0  0  0  0  0  0  0  0  0
  1  2  1  0
  2  3  2  0
  2 28  1  0
  3  4  1  0
  4  5  1  0
  4 27  2  0
  5  6  1  1
  5  7  1  0
  7  8  1  6
  7 26  1  0
  8  9  1  0
  9 10  1  0
 10 11  1  0
 11 12  1  1
 11 26  1  0
 12 13  1  0
 13 14  2  0
 13 24  1  0
 14 15  1  0
 15 16  2  0
 16 17  1  0
 16 23  1  0
 17 18  2  0
 17 22  1  0
 18 19  1  0
 19 20  1  0
 20 21  2  0
 20 22  1  0
 23 24  2  0
 24 25  1  0
 27 28  1  0
M  CHG  1   3   1
M  END
