
     RDKit          3D

 28 31  0  0  0  0  0  0  0  0999 V2000
   -6.4440    1.1430    2.1630 C   0  0  0  0  0  0  0  0  0  0  0  0
   -5.4450    0.8140    1.1220 C   0  0  0  0  0  0  0  0  0  0  0  0
   -4.1010    0.8970    1.4440 C   0  0  0  0  0  0  0  0  0  0  0  0
   -3.1940    0.5870    0.4600 C   0  0  0  0  0  0  0  0  0  0  0  0
   -3.5830    0.2050   -0.8030 C   0  0  0  0  0  0  0  0  0  0  0  0
   -4.9380    0.1180   -1.1380 C   0  0  0  0  0  0  0  0  0  0  0  0
   -5.8180    0.4340   -0.1330 C   0  0  0  0  0  0  0  0  0  0  0  0
   -7.4460    0.2000   -0.9040 S   0  0  0  0  0  0  0  0  0  0  0  0
   -6.8270   -0.8380   -2.2330 N   0  0  0  0  0  0  0  0  0  0  0  0
   -5.5390   -0.2530   -2.4090 C   0  0  0  0  0  0  0  0  0  0  0  0
   -1.8450    0.7530    1.0540 C   0  0  2  0  0  0  0  0  0  0  0  0
   -1.0870   -0.4980    0.9950 N   0  0  0  0  0  0  0  0  0  0  0  0
    0.1430   -0.6300    0.3100 C   0  0  0  0  0  0  0  0  0  0  0  0
    0.5920    0.3940   -0.2740 O   0  0  0  0  0  0  0  0  0  0  0  0
    0.8990   -1.8110    0.2300 N   0  0  0  0  0  0  0  0  0  0  0  0
    2.1580   -1.9030   -0.4850 C   0  0  0  0  0  0  0  0  0  0  0  0
    3.1690   -0.9730    0.0540 C   0  0  0  0  0  0  0  0  0  0  0  0
    2.8600   -0.2380    1.0180 O   0  0  0  0  0  0  0  0  0  0  0  0
    4.4910   -0.9270   -0.5390 C   0  0  0  0  0  0  0  0  0  0  0  0
    4.9490   -1.6820   -1.5970 C   0  0  0  0  0  0  0  0  0  0  0  0
    6.2580   -1.3150   -1.8270 C   0  0  0  0  0  0  0  0  0  0  0  0
    6.5390   -0.3490   -0.8940 C   0  0  0  0  0  0  0  0  0  0  0  0
    7.8510    0.3310   -0.7790 C   0  0  0  0  0  0  0  0  0  0  0  0
    7.8090    1.3050    0.3200 N   0  0  0  0  0  0  0  0  0  0  0  0
    5.4860   -0.1530   -0.1640 O   0  0  0  0  0  0  0  0  0  0  0  0
   -2.0510    1.1820    2.4510 C   0  0  0  0  0  0  0  0  0  0  0  0
   -1.1400    1.4290    3.2910 O   0  0  0  0  0  0  0  0  0  0  0  0
   -3.4510    1.2600    2.6550 N   0  0  0  0  0  0  0  0  0  0  0  0
  1  2  1  0
  2  3  2  0
  2  7  1  0
  3  4  1  0
  3 28  1  0
  4  5  2  0
  4 11  1  0
  5  6  1  0
  6  7  2  0
  6 10  1  0
  7  8  1  0
  8  9  1  0
  9 10  1  0
 11 12  1  1
 11 26  1  0
 12 13  1  0
 13 14  2  0
 13 15  1  0
 15 16  1  0
 16 17  1  0
 17 18  2  0
 17 19  1  0
 19 20  2  0
 19 25  1  0
 20 21  1  0
 21 22  2  0
 22 23  1  0
 22 25  1  0
 23 24  1  0
 26 27  2  0
 26 28  1  0
M  CHG  1  24   1
M  END
