
     RDKit          3D

 28 30  0  0  0  0  0  0  0  0999 V2000
    2.6260   -5.2220   -1.0050 C   0  0  0  0  0  0  0  0  0  0  0  0
    1.8680   -4.1060   -0.6260 O   0  0  0  0  0  0  0  0  0  0  0  0
    2.3470   -2.8330   -0.4940 C   0  0  0  0  0  0  0  0  0  0  0  0
    3.6360   -2.5370   -0.7240 C   0  0  0  0  0  0  0  0  0  0  0  0
    4.0450   -1.2490   -0.5750 C   0  0  0  0  0  0  0  0  0  0  0  0
    3.2110   -0.1840   -0.1920 C   0  0  0  0  0  0  0  0  0  0  0  0
    3.7240    0.9810   -0.0830 O   0  0  0  0  0  0  0  0  0  0  0  0
    4.2530    2.1410    0.0220 C   0  0  0  0  0  0  0  0  0  0  0  0
    5.0350    2.5340    1.0560 C   0  0  0  0  0  0  0  0  0  0  0  0
    5.4770    3.9300    0.8610 C   0  0  2  0  0  0  0  0  0  0  0  0
    4.9740    4.7240    1.9740 N   0  0  0  0  0  0  0  0  0  0  0  0
    4.8760    4.2910   -0.3800 N   0  0  0  0  0  0  0  0  0  0  0  0
    4.2020    3.3390   -0.8660 C   0  0  0  0  0  0  0  0  0  0  0  0
    1.8820   -0.5370    0.0370 C   0  0  0  0  0  0  0  0  0  0  0  0
    1.4280   -1.8410   -0.1030 C   0  0  0  0  0  0  0  0  0  0  0  0
    0.1570   -2.2380    0.2180 N   0  0  0  0  0  0  0  0  0  0  0  0
   -1.0290   -1.4140    0.4820 C   0  0  0  0  0  0  0  0  0  0  0  0
   -0.9170   -0.2520    0.3630 O   0  0  0  0  0  0  0  0  0  0  0  0
   -2.0980   -2.3140    0.8460 N   0  0  0  0  0  0  0  0  0  0  0  0
   -3.3060   -1.0880    1.0990 C   0  0  0  0  0  0  0  0  0  0  0  0
   -2.9040   -0.0230    0.9970 O   0  0  0  0  0  0  0  0  0  0  0  0
   -4.6070   -1.6440    1.3900 C   0  0  0  0  0  0  0  0  0  0  0  0
   -5.6470   -1.7560   -0.1020 S   0  0  0  0  0  0  0  0  0  0  0  0
   -6.1140   -0.0780   -0.5790 C   0  0  0  0  0  0  0  0  0  0  0  0
   -6.4800    0.3190   -1.7830 C   0  0  0  0  0  0  0  0  0  0  0  0
   -6.7760    1.7590   -1.7520 C   0  0  0  0  0  0  0  0  0  0  0  0
   -6.4000    2.2050   -0.4560 N   0  0  0  0  0  0  0  0  0  0  0  0
   -6.1110    1.0630    0.3510 C   0  0  0  0  0  0  0  0  0  0  0  0
  1  2  1  0
  2  3  1  0
  3  4  2  0
  3 15  1  0
  4  5  1  0
  5  6  2  0
  6  7  1  0
  6 14  1  0
  7  8  1  0
  8  9  2  0
  8 13  1  0
  9 10  1  0
 10 11  1  1
 10 12  1  0
 12 13  2  0
 14 15  2  0
 15 16  1  0
 16 17  1  0
 17 18  2  0
 17 19  1  0
 19 20  1  0
 20 21  2  0
 20 22  1  0
 22 23  1  0
 23 24  1  0
 24 25  2  0
 24 28  1  0
 25 26  1  0
 26 27  1  0
 27 28  1  0
M  CHG  1  11   1
M  END
