
     RDKit          3D

 28 30  0  0  0  0  0  0  0  0999 V2000
   -7.4950    0.7240   -0.7710 C   0  0  0  0  0  0  0  0  0  0  0  0
   -7.8320   -0.4540    0.0030 N   0  0  0  0  0  0  0  0  0  0  0  0
   -7.3000   -0.3870    1.3440 C   0  0  0  0  0  0  0  0  0  0  0  0
   -5.7830   -0.3040    1.1810 C   0  0  0  0  0  0  0  0  0  0  0  0
   -4.9250    0.2750    2.0210 C   0  0  0  0  0  0  0  0  0  0  0  0
   -3.6170    0.2250    1.7100 C   0  0  0  0  0  0  0  0  0  0  0  0
   -3.2420   -0.3920    0.5930 C   0  0  0  0  0  0  0  0  0  0  0  0
   -1.9440   -0.7160   -0.0150 C   0  0  0  0  0  0  0  0  0  0  0  0
   -1.6860   -1.3950   -0.9380 O   0  0  0  0  0  0  0  0  0  0  0  0
   -0.6520    0.0430    0.8080 N   0  0  0  0  0  0  0  0  0  0  0  0
    0.3460   -0.6340    0.1180 C   0  0  0  0  0  0  0  0  0  0  0  0
    0.3850   -1.4810   -0.7460 O   0  0  0  0  0  0  0  0  0  0  0  0
    1.6650   -0.1660    0.5870 N   0  0  0  0  0  0  0  0  0  0  0  0
    2.8880   -0.5640    0.1570 C   0  0  0  0  0  0  0  0  0  0  0  0
    3.9760    0.2600    0.5600 C   0  0  0  0  0  0  0  0  0  0  0  0
    3.7650    0.9030    1.7890 N   0  0  0  0  0  0  0  0  0  0  0  0
    5.1440    0.4840   -0.1240 C   0  0  0  0  0  0  0  0  0  0  0  0
    5.9410    1.4380    0.4710 C   0  0  0  0  0  0  0  0  0  0  0  0
    7.1510    1.8100   -0.0670 C   0  0  0  0  0  0  0  0  0  0  0  0
    7.6180    1.2410   -1.2290 C   0  0  0  0  0  0  0  0  0  0  0  0
    6.8060    0.2730   -1.8270 C   0  0  0  0  0  0  0  0  0  0  0  0
    5.5970   -0.1040   -1.2960 C   0  0  0  0  0  0  0  0  0  0  0  0
    4.9310   -1.0880   -2.0360 C   0  0  0  0  0  0  0  0  0  0  0  0
    5.4070   -1.2290   -3.1860 O   0  0  0  0  0  0  0  0  0  0  0  0
    3.8750   -1.8820   -1.6910 N   0  0  0  0  0  0  0  0  0  0  0  0
    3.0770   -1.6920   -0.6060 C   0  0  0  0  0  0  0  0  0  0  0  0
    2.4170   -2.7050   -0.2510 O   0  0  0  0  0  0  0  0  0  0  0  0
   -4.7860   -0.9360   -0.0730 S   0  0  0  0  0  0  0  0  0  0  0  0
  1  2  1  0
  2  3  1  0
  3  4  1  0
  4  5  2  0
  4 28  1  0
  5  6  1  0
  6  7  2  0
  7  8  1  0
  7 28  1  0
  8  9  2  0
  8 10  1  0
 10 11  1  0
 11 12  2  0
 11 13  1  0
 13 14  1  0
 14 15  2  0
 14 26  1  0
 15 16  1  0
 15 17  1  0
 17 18  2  0
 17 22  1  0
 18 19  1  0
 19 20  2  0
 20 21  1  0
 21 22  2  0
 22 23  1  0
 23 24  2  0
 23 25  1  0
 25 26  1  0
 26 27  2  0
M  CHG  1   2   1
M  END
