
     RDKit          3D

 28 30  0  0  0  0  0  0  0  0999 V2000
   -4.2620   -4.1580   -0.4970 C   0  0  0  0  0  0  0  0  0  0  0  0
   -2.8350   -3.8250   -0.0790 C   0  0  0  0  0  0  0  0  0  0  0  0
   -2.5390   -2.4560   -0.4110 N   0  0  0  0  0  0  0  0  0  0  0  0
   -2.3370   -1.7080    0.7850 C   0  0  0  0  0  0  0  0  0  0  0  0
   -2.1010   -0.2480    0.5470 C   0  0  0  0  0  0  0  0  0  0  0  0
   -2.9490    0.6800    0.2220 N   0  0  0  0  0  0  0  0  0  0  0  0
   -2.4050    1.8970    0.2140 C   0  0  0  0  0  0  0  0  0  0  0  0
   -2.8660    3.1540   -0.1170 C   0  0  0  0  0  0  0  0  0  0  0  0
   -4.2950    3.5090   -0.3190 C   0  0  0  0  0  0  0  0  0  0  0  0
   -1.9600    4.1690   -0.1040 C   0  0  0  0  0  0  0  0  0  0  0  0
   -2.3450    5.4980   -0.4410 O   0  0  0  0  0  0  0  0  0  0  0  0
   -0.6460    3.9780    0.2320 C   0  0  0  0  0  0  0  0  0  0  0  0
   -0.1930    2.7100    0.5720 C   0  0  0  0  0  0  0  0  0  0  0  0
   -1.0630    1.6400    0.5780 C   0  0  0  0  0  0  0  0  0  0  0  0
   -0.8470    0.3030    0.8080 C   0  0  0  0  0  0  0  0  0  0  0  0
    0.3200   -0.4460    1.2710 C   0  0  0  0  0  0  0  0  0  0  0  0
    1.6400   -0.5040    0.8420 C   0  0  0  0  0  0  0  0  0  0  0  0
    2.4260    0.4990    1.0770 O   0  0  0  0  0  0  0  0  0  0  0  0
    2.3510   -1.5480    0.1620 N   0  0  0  0  0  0  0  0  0  0  0  0
    3.7500   -1.3230    0.0260 N   0  0  0  0  0  0  0  0  0  0  0  0
    4.3550   -0.2380   -0.5940 C   0  0  0  0  0  0  0  0  0  0  0  0
    3.6960    0.6180   -1.2130 O   0  0  0  0  0  0  0  0  0  0  0  0
    5.8790   -0.0870   -0.4870 C   0  0  0  0  0  0  0  0  0  0  0  0
    6.3360    1.2200   -0.6090 C   0  0  0  0  0  0  0  0  0  0  0  0
    8.1060    0.9660   -0.2020 S   0  0  0  0  0  0  0  0  0  0  0  0
    7.9570   -0.8430    0.0530 C   0  0  0  0  0  0  0  0  0  0  0  0
    8.9190   -1.5970    0.3630 O   0  0  0  0  0  0  0  0  0  0  0  0
    6.6610   -1.0420   -0.1840 N   0  0  0  0  0  0  0  0  0  0  0  0
  1  2  1  0
  2  3  1  0
  3  4  1  0
  4  5  1  0
  5  6  1  0
  5 15  2  0
  6  7  1  0
  7  8  2  0
  7 14  1  0
  8  9  1  0
  8 10  1  0
 10 11  1  0
 10 12  2  0
 12 13  1  0
 13 14  2  0
 14 15  1  0
 15 16  1  0
 16 17  1  0
 17 18  2  0
 17 19  1  0
 19 20  1  0
 20 21  1  0
 21 22  2  0
 21 23  1  0
 23 24  2  0
 23 28  1  0
 24 25  1  0
 25 26  1  0
 26 27  2  0
 26 28  1  0
M  CHG  1   3   1
M  END
