
     RDKit          3D

 28 29  0  0  0  0  0  0  0  0999 V2000
    3.0700   -0.0810    2.6690 C   0  0  0  0  0  0  0  0  0  0  0  0
    3.7660    0.9090    2.2470 C   0  0  0  0  0  0  0  0  0  0  0  0
    4.0370    1.3310    0.9230 C   0  0  0  0  0  0  0  0  0  0  0  0
    4.8860    2.4070    0.8680 C   0  0  0  0  0  0  0  0  0  0  0  0
    5.4530    3.1770   -0.2430 C   0  0  0  0  0  0  0  0  0  0  0  0
    5.8330    2.7450   -1.4480 C   0  0  0  0  0  0  0  0  0  0  0  0
    5.8410    1.4190   -2.1210 C   0  0  0  0  0  0  0  0  0  0  0  0
    5.0040    0.4050   -2.0720 N   0  0  0  0  0  0  0  0  0  0  0  0
    3.7540    0.2320   -1.3270 C   0  0  0  0  0  0  0  0  0  0  0  0
    3.3240    0.5890   -0.1250 C   0  0  0  0  0  0  0  0  0  0  0  0
    2.0010    0.2810    0.2530 N   0  0  0  0  0  0  0  0  0  0  0  0
    1.0970   -0.6430   -0.2750 C   0  0  0  0  0  0  0  0  0  0  0  0
    1.5470   -1.3460   -1.2570 O   0  0  0  0  0  0  0  0  0  0  0  0
   -0.2700   -0.8840    0.1620 C   0  0  0  0  0  0  0  0  0  0  0  0
   -1.0950   -0.4280    1.0460 C   0  0  0  0  0  0  0  0  0  0  0  0
   -0.6820    0.6820    2.0130 C   0  0  0  0  0  0  0  0  0  0  0  0
   -2.4830   -0.8300    0.9910 C   0  0  0  0  0  0  0  0  0  0  0  0
   -3.4610   -0.5310    1.8540 C   0  0  0  0  0  0  0  0  0  0  0  0
   -4.7850   -1.0010    1.6650 N   0  0  0  0  0  0  0  0  0  0  0  0
   -3.2540    0.2400    2.9690 O   0  0  0  0  0  0  0  0  0  0  0  0
   -2.7880   -1.7410   -0.1510 C   0  0  0  0  0  0  0  0  0  0  0  0
   -3.7790   -2.0330   -0.7900 N   0  0  0  0  0  0  0  0  0  0  0  0
   -5.0790   -1.9560   -1.1020 C   0  0  2  0  0  0  0  0  0  0  0  0
   -5.8120   -2.9960   -0.5070 O   0  0  0  0  0  0  0  0  0  0  0  0
   -5.2670   -2.1500   -2.6010 C   0  0  0  0  0  0  0  0  0  0  0  0
   -4.6430   -1.2480   -3.4860 N   0  0  0  0  0  0  0  0  0  0  0  0
   -5.9560   -3.0830   -3.0370 O   0  0  0  0  0  0  0  0  0  0  0  0
   -1.1170   -2.3880   -0.4990 S   0  0  0  0  0  0  0  0  0  0  0  0
  1  2  2  0
  2  3  1  0
  3  4  2  0
  3 10  1  0
  4  5  1  0
  5  6  2  0
  6  7  1  0
  7  8  2  0
  8  9  1  0
  9 10  2  0
 10 11  1  0
 11 12  1  0
 12 13  2  0
 12 14  1  0
 14 15  2  0
 14 28  1  0
 15 16  1  0
 15 17  1  0
 17 18  2  3
 17 21  1  0
 18 19  1  0
 18 20  1  0
 21 22  2  3
 21 28  1  0
 22 23  1  0
 23 24  1  1
 23 25  1  0
 25 26  1  0
 25 27  2  0
M  END
