
     RDKit          3D

 28 30  0  0  0  0  0  0  0  0999 V2000
    6.3700    3.4000    0.0680 C   0  0  0  0  0  0  0  0  0  0  0  0
    6.1780    1.9500   -1.0090 S   0  0  0  0  0  0  0  0  0  0  0  0
    4.7910    0.9930   -0.4590 C   0  0  0  0  0  0  0  0  0  0  0  0
    3.5300    1.2940   -0.9400 C   0  0  0  0  0  0  0  0  0  0  0  0
    2.4240    0.5780   -0.5240 C   0  0  0  0  0  0  0  0  0  0  0  0
    2.6060   -0.4450    0.3820 C   0  0  0  0  0  0  0  0  0  0  0  0
    1.4730   -1.1530    0.8390 N   0  0  0  0  0  0  0  0  0  0  0  0
    0.6380   -1.9780    0.1150 N   0  0  0  0  0  0  0  0  0  0  0  0
   -0.5890   -1.3420   -0.2720 C   0  0  1  0  0  0  0  0  0  0  0  0
   -0.9700   -1.9750   -1.6280 C   0  0  0  0  0  0  0  0  0  0  0  0
   -1.1250   -3.4470   -1.4070 C   0  0  0  0  0  0  0  0  0  0  0  0
   -2.3160   -4.0180   -0.9210 N   0  0  0  0  0  0  0  0  0  0  0  0
   -0.1360   -4.2260   -1.6660 O   0  0  0  0  0  0  0  0  0  0  0  0
   -1.7380   -1.5710    0.6140 C   0  0  0  0  0  0  0  0  0  0  0  0
   -1.8350   -2.5940    1.3240 O   0  0  0  0  0  0  0  0  0  0  0  0
   -2.7750   -0.5880    0.6660 N   0  0  0  0  0  0  0  0  0  0  0  0
   -2.7790    0.6480   -0.0750 C   0  0  0  0  0  0  0  0  0  0  0  0
   -3.9530    1.4170    0.3250 C   0  0  0  0  0  0  0  0  0  0  0  0
   -4.3130    2.6350   -0.0790 C   0  0  0  0  0  0  0  0  0  0  0  0
   -5.5350    3.2470    0.4410 C   0  0  0  0  0  0  0  0  0  0  0  0
   -6.2620    2.3950    1.3060 O   0  0  0  0  0  0  0  0  0  0  0  0
   -5.8470    1.1440    1.7000 C   0  0  0  0  0  0  0  0  0  0  0  0
   -4.7170    0.6220    1.2420 C   0  0  0  0  0  0  0  0  0  0  0  0
   -3.9680   -0.6180    1.4370 C   0  0  0  0  0  0  0  0  0  0  0  0
   -4.3840   -1.5360    2.1930 O   0  0  0  0  0  0  0  0  0  0  0  0
    3.8960   -0.7410    0.8610 C   0  0  0  0  0  0  0  0  0  0  0  0
    5.0000   -0.0260    0.4460 C   0  0  0  0  0  0  0  0  0  0  0  0
    6.3080   -0.3320    0.9470 N   0  0  0  0  0  0  0  0  0  0  0  0
  1  2  1  0
  2  3  1  0
  3  4  2  0
  3 27  1  0
  4  5  1  0
  5  6  2  0
  6  7  1  0
  6 26  1  0
  7  8  1  0
  8  9  1  0
  9 10  1  6
  9 14  1  0
 10 11  1  0
 11 12  1  0
 11 13  2  0
 14 15  2  0
 14 16  1  0
 16 17  1  0
 16 24  1  0
 17 18  1  0
 18 19  2  0
 18 23  1  0
 19 20  1  0
 20 21  1  0
 21 22  1  0
 22 23  2  0
 23 24  1  0
 24 25  2  0
 26 27  2  0
 27 28  1  0
M  CHG  1   8   1
M  END
