
     RDKit          3D

 28 29  0  0  0  0  0  0  0  0999 V2000
   -6.8890    2.8780    0.9850 C   0  0  0  0  0  0  0  0  0  0  0  0
   -7.5760    1.6850    0.3890 C   0  0  0  0  0  0  0  0  0  0  0  0
   -8.8210    1.6480    0.2540 O   0  0  0  0  0  0  0  0  0  0  0  0
   -6.7130    0.5850   -0.0200 C   0  0  0  0  0  0  0  0  0  0  0  0
   -5.3490    0.5990    0.1230 C   0  0  0  0  0  0  0  0  0  0  0  0
   -4.5400   -0.4450   -0.2650 C   0  0  0  0  0  0  0  0  0  0  0  0
   -3.1620   -0.3530   -0.0620 N   0  0  0  0  0  0  0  0  0  0  0  0
   -2.1400   -1.1930   -0.5790 C   0  0  0  0  0  0  0  0  0  0  0  0
   -2.4650   -2.1420   -1.3180 O   0  0  0  0  0  0  0  0  0  0  0  0
   -0.7210   -0.9430   -0.2450 C   0  0  0  0  0  0  0  0  0  0  0  0
   -0.4180    0.0080    0.5010 O   0  0  0  0  0  0  0  0  0  0  0  0
    0.2570   -1.7840   -0.7780 N   0  0  0  0  0  0  0  0  0  0  0  0
    1.6100   -1.6790   -0.5560 N   0  0  0  0  0  0  0  0  0  0  0  0
    2.4400   -1.0530   -1.5110 C   0  0  0  0  0  0  0  0  0  0  0  0
    2.0040   -0.5660   -2.6000 O   0  0  0  0  0  0  0  0  0  0  0  0
    3.9110   -0.9760   -1.1860 C   0  0  1  0  0  0  0  0  0  0  0  0
    4.6100   -0.2750   -2.3040 C   0  0  0  0  0  0  0  0  0  0  0  0
    4.0360   -0.1160    0.3850 S   0  0  0  0  0  0  0  0  0  0  0  0
    5.6900    0.0750    0.9750 C   0  0  0  0  0  0  0  0  0  0  0  0
    5.9070    0.7000    2.1080 C   0  0  0  0  0  0  0  0  0  0  0  0
    7.2340    0.9170    2.6940 C   0  0  0  0  0  0  0  0  0  0  0  0
    8.2950    0.3880    1.9350 N   0  0  0  0  0  0  0  0  0  0  0  0
    8.0200   -0.2650    0.7430 C   0  0  0  0  0  0  0  0  0  0  0  0
    6.8300   -0.4500    0.2320 C   0  0  0  0  0  0  0  0  0  0  0  0
   -5.1370   -1.5360   -0.8150 C   0  0  0  0  0  0  0  0  0  0  0  0
   -6.5310   -1.5960   -0.9820 C   0  0  0  0  0  0  0  0  0  0  0  0
   -7.2950   -0.5260   -0.5780 C   0  0  0  0  0  0  0  0  0  0  0  0
   -8.6940   -0.5810   -0.7420 N   0  0  0  0  0  0  0  0  0  0  0  0
  1  2  1  0
  2  3  2  0
  2  4  1  0
  4  5  2  0
  4 27  1  0
  5  6  1  0
  6  7  1  0
  6 25  2  0
  7  8  1  0
  8  9  2  0
  8 10  1  0
 10 11  2  0
 10 12  1  0
 12 13  1  0
 13 14  1  0
 14 15  2  0
 14 16  1  0
 16 17  1  6
 16 18  1  0
 18 19  1  0
 19 20  2  0
 19 24  1  0
 20 21  1  0
 21 22  1  0
 22 23  1  0
 23 24  2  0
 25 26  1  0
 26 27  2  0
 27 28  1  0
M  CHG  1  22   1
M  END
