
     RDKit          3D

 30 32  0  0  0  0  0  0  0  0999 V2000
   -1.5390   -0.5610    2.6950 C   0  0  0  0  0  0  0  0  0  0  0  0
   -1.6750   -1.6790    1.7060 C   0  0  0  0  0  0  0  0  0  0  0  0
   -2.5140   -1.3260    0.4930 C   0  0  2  0  0  0  0  0  0  0  0  0
   -1.8650   -0.2000   -0.2560 C   0  0  1  0  0  0  0  0  0  0  0  0
   -1.7760    0.8440    0.6580 O   0  0  0  0  0  0  0  0  0  0  0  0
   -0.5150   -0.5860   -0.6850 C   0  0  0  0  0  0  0  0  0  0  0  0
    0.6570   -0.1040   -0.4170 C   0  0  0  0  0  0  0  0  0  0  0  0
    2.0050   -0.6020   -0.9360 C   0  0  0  0  0  0  0  0  0  0  0  0
    2.9960    0.4860   -0.5640 C   0  0  1  0  0  0  0  0  0  0  0  0
    4.1020    0.6010   -1.5130 C   0  0  0  0  0  0  0  0  0  0  0  0
    2.0600    1.6850   -0.5400 C   0  0  0  0  0  0  0  0  0  0  0  0
    1.0390    1.0340    0.4300 C   0  0  2  0  0  0  0  0  0  0  0  0
    1.9600    0.5450    1.5180 C   0  0  0  0  0  0  0  0  0  0  0  0
    3.2950    0.2850    0.8670 C   0  0  1  0  0  0  0  0  0  0  0  0
    3.5810   -1.0960    1.0230 O   0  0  0  0  0  0  0  0  0  0  0  0
    4.3720    1.0090    1.5280 C   0  0  1  0  0  0  0  0  0  0  0  0
    4.3780    0.5350    3.0010 C   0  0  0  0  0  0  0  0  0  0  0  0
    5.7600    0.6560    1.0150 C   0  0  0  0  0  0  0  0  0  0  0  0
    4.3090    2.4920    1.6170 C   0  0  0  0  0  0  0  0  0  0  0  0
   -2.6490    0.2590   -1.4320 C   0  0  0  0  0  0  0  0  0  0  0  0
   -2.2130    1.3220   -2.3130 C   0  0  2  0  0  0  0  0  0  0  0  0
   -3.3700    1.4620   -3.3610 C   0  0  0  0  0  0  0  0  0  0  0  0
   -0.9900    1.1910   -3.1450 C   0  0  0  0  0  0  0  0  0  0  0  0
   -2.1690    2.6910   -1.6650 C   0  0  0  0  0  0  0  0  0  0  0  0
   -3.8310   -0.7910    1.1010 C   0  0  0  0  0  0  0  0  0  0  0  0
   -4.8760   -1.4260    0.2430 C   0  0  0  0  0  0  0  0  0  0  0  0
   -4.2300   -2.0940   -0.7830 O   0  0  0  0  0  0  0  0  0  0  0  0
   -3.0130   -2.4990   -0.1990 C   0  0  1  0  0  0  0  0  0  0  0  0
   -2.1680   -3.2960   -1.1040 C   0  0  0  0  0  0  0  0  0  0  0  0
   -3.4770   -3.5160    0.8720 C   0  0  0  0  0  0  0  0  0  0  0  0
  1  2  1  0
  3  2  1  1
  3  4  1  0
  3 25  1  0
  3 28  1  0
  4  5  1  1
  4  6  1  0
  4 20  1  0
  6  7  2  3
  7  8  1  0
  7 12  1  0
  8  9  1  0
  9 10  1  6
  9 11  1  0
  9 14  1  0
 11 12  1  0
 12 13  1  1
 13 14  1  0
 14 15  1  6
 14 16  1  0
 16 17  1  1
 16 18  1  0
 16 19  1  0
 20 21  1  0
 21 22  1  6
 21 23  1  0
 21 24  1  0
 25 26  1  0
 26 27  1  0
 27 28  1  0
 28 29  1  6
 28 30  1  0
M  END
