
     RDKit          3D

 29 32  0  0  0  0  0  0  0  0999 V2000
   -1.6780   -1.7690    3.0260 C   0  0  0  0  0  0  0  0  0  0  0  0
   -1.6580   -1.0540    1.7290 C   0  0  0  0  0  0  0  0  0  0  0  0
   -0.6190   -1.2990    0.8220 C   0  0  0  0  0  0  0  0  0  0  0  0
    0.3320   -2.2210    1.2230 O   0  0  0  0  0  0  0  0  0  0  0  0
    1.4580   -2.6220    0.5090 C   0  0  0  0  0  0  0  0  0  0  0  0
    2.4070   -1.4760    0.2580 C   0  0  0  0  0  0  0  0  0  0  0  0
    2.1690   -0.3370    0.7040 O   0  0  0  0  0  0  0  0  0  0  0  0
    3.5750   -1.6990   -0.4900 N   0  0  0  0  0  0  0  0  0  0  0  0
    4.5700   -0.7570   -0.8270 C   0  0  0  0  0  0  0  0  0  0  0  0
    4.4770    0.6040   -0.6620 C   0  0  0  0  0  0  0  0  0  0  0  0
    5.5580    1.3850   -1.0300 C   0  0  0  0  0  0  0  0  0  0  0  0
    6.7280    0.8640   -1.5550 C   0  0  0  0  0  0  0  0  0  0  0  0
    7.7910    1.6680   -1.9120 O   0  0  0  0  0  0  0  0  0  0  0  0
    6.8180   -0.4890   -1.7180 C   0  0  0  0  0  0  0  0  0  0  0  0
    5.7590   -1.2890   -1.3620 C   0  0  0  0  0  0  0  0  0  0  0  0
   -0.5840   -0.6440   -0.3880 C   0  0  0  0  0  0  0  0  0  0  0  0
   -1.5730    0.2430   -0.6830 C   0  0  0  0  0  0  0  0  0  0  0  0
   -2.6020    0.5020    0.1910 C   0  0  0  0  0  0  0  0  0  0  0  0
   -2.6370   -0.1640    1.4180 C   0  0  0  0  0  0  0  0  0  0  0  0
   -3.6630    0.0770    2.3140 C   0  0  0  0  0  0  0  0  0  0  0  0
   -3.7000   -0.5210    3.4220 O   0  0  0  0  0  0  0  0  0  0  0  0
   -4.6270    0.9550    2.0020 N   0  0  0  0  0  0  0  0  0  0  0  0
   -5.7070    1.2020    2.9570 C   0  0  0  0  0  0  0  0  0  0  0  0
   -4.5540    1.5650    0.8270 C   0  0  0  0  0  0  0  0  0  0  0  0
   -5.7220    2.6350    0.4420 S   0  0  0  0  0  0  0  0  0  0  0  0
   -3.5710    1.3660   -0.0890 N   0  0  0  0  0  0  0  0  0  0  0  0
   -3.5820    2.0980   -1.3290 C   0  0  0  0  0  0  0  0  0  0  0  0
   -2.9150    1.3350   -2.4160 C   0  0  0  0  0  0  0  0  0  0  0  0
   -1.5050    0.9250   -2.0270 C   0  0  0  0  0  0  0  0  0  0  0  0
  1  2  1  0
  2  3  2  0
  2 19  1  0
  3  4  1  0
  3 16  1  0
  4  5  1  0
  5  6  1  0
  6  7  2  0
  6  8  1  0
  8  9  1  0
  9 10  2  0
  9 15  1  0
 10 11  1  0
 11 12  2  0
 12 13  1  0
 12 14  1  0
 14 15  2  0
 16 17  2  0
 17 18  1  0
 17 29  1  0
 18 19  2  0
 18 26  1  0
 19 20  1  0
 20 21  2  0
 20 22  1  0
 22 23  1  0
 22 24  1  0
 24 25  2  0
 24 26  1  0
 26 27  1  0
 27 28  1  0
 28 29  1  0
M  END
