
     RDKit          3D

 30 32  0  0  0  0  0  0  0  0999 V2000
    4.1160    4.2150   -2.7390 C   0  0  0  0  0  0  0  0  0  0  0  0
    3.8880    3.3650   -1.5540 C   0  0  0  0  0  0  0  0  0  0  0  0
    3.1970    2.2690   -1.6610 C   0  0  0  0  0  0  0  0  0  0  0  0
    2.9310    1.3560   -0.4720 C   0  0  0  0  0  0  0  0  0  0  0  0
    1.4110    1.3380   -0.3780 C   0  0  0  0  0  0  0  0  0  0  0  0
    0.7640    0.5820    0.6710 C   0  0  1  0  0  0  0  0  0  0  0  0
    1.4030    1.1550    1.9860 C   0  0  0  0  0  0  0  0  0  0  0  0
   -0.5570    1.4180    0.8740 C   0  0  1  0  0  0  0  0  0  0  0  0
   -0.1870    2.7640    0.8820 O   0  0  0  0  0  0  0  0  0  0  0  0
   -1.6600    1.2210   -0.0160 C   0  0  2  0  0  0  0  0  0  0  0  0
   -2.0900    2.2390   -1.0130 C   0  0  0  0  0  0  0  0  0  0  0  0
   -1.2160    2.7310   -2.0750 C   0  0  0  0  0  0  0  0  0  0  0  0
   -2.8660    1.3460    0.9950 C   0  0  0  0  0  0  0  0  0  0  0  0
   -4.1900    1.1670    0.4270 C   0  0  0  0  0  0  0  0  0  0  0  0
   -5.1560    1.3480    1.6220 C   0  0  0  0  0  0  0  0  0  0  0  0
   -1.5920   -0.1030   -0.6280 C   0  0  1  0  0  0  0  0  0  0  0  0
   -1.3530    0.0100   -1.9930 O   0  0  0  0  0  0  0  0  0  0  0  0
   -0.8210   -1.2300    0.0320 C   0  0  1  0  0  0  0  0  0  0  0  0
   -1.8500   -1.9230    0.9000 C   0  0  0  0  0  0  0  0  0  0  0  0
   -2.4290   -3.0980    0.1410 C   0  0  0  0  0  0  0  0  0  0  0  0
   -2.1920   -2.7110   -1.2660 C   0  0  0  0  0  0  0  0  0  0  0  0
   -0.7480   -2.1820   -1.0970 C   0  0  0  0  0  0  0  0  0  0  0  0
    0.4420   -0.8540    0.7500 C   0  0  2  0  0  0  0  0  0  0  0  0
    0.1020   -0.9880    2.1190 O   0  0  0  0  0  0  0  0  0  0  0  0
    1.5660   -1.8410    0.7040 C   0  0  1  0  0  0  0  0  0  0  0  0
    2.6870   -1.5200    1.6960 C   0  0  0  0  0  0  0  0  0  0  0  0
    1.1850   -3.2360    1.2550 C   0  0  0  0  0  0  0  0  0  0  0  0
    2.1380   -4.1990    0.6140 C   0  0  0  0  0  0  0  0  0  0  0  0
    2.4830   -3.6110   -0.7210 C   0  0  0  0  0  0  0  0  0  0  0  0
    2.2550   -2.1080   -0.5850 C   0  0  0  0  0  0  0  0  0  0  0  0
  1  2  1  0
  2  3  2  3
  3  4  1  0
  4  5  1  0
  5  6  1  0
  6  7  1  1
  6  8  1  0
  6 23  1  0
  8  9  1  6
  8 10  1  0
 10 11  1  6
 10 13  1  0
 10 16  1  0
 11 12  1  0
 13 14  1  0
 14 15  1  0
 16 17  1  6
 16 18  1  0
 18 19  1  1
 18 22  1  0
 18 23  1  0
 19 20  1  0
 20 21  1  0
 21 22  1  0
 23 24  1  1
 23 25  1  0
 25 26  1  1
 25 27  1  0
 25 30  1  0
 27 28  1  0
 28 29  1  0
 29 30  1  0
M  END
