
     RDKit          3D

 30 32  0  0  0  0  0  0  0  0999 V2000
    5.6630    0.4730   -3.1620 C   0  0  0  0  0  0  0  0  0  0  0  0
    4.6050   -0.0730   -2.6090 C   0  0  0  0  0  0  0  0  0  0  0  0
    4.4640   -0.2640   -1.1190 C   0  0  0  0  0  0  0  0  0  0  0  0
    3.2670    0.4690   -0.5860 C   0  0  0  0  0  0  0  0  0  0  0  0
    3.1410    0.2540    0.8870 C   0  0  1  0  0  0  0  0  0  0  0  0
    4.4230    0.7690    1.3180 O   0  0  0  0  0  0  0  0  0  0  0  0
    2.1970    1.2070    1.5810 C   0  0  0  0  0  0  0  0  0  0  0  0
    0.9920    1.6650    0.8570 C   0  0  0  0  0  0  0  0  0  0  0  0
   -0.1970    1.1190    1.3540 O   0  0  0  0  0  0  0  0  0  0  0  0
   -1.3190    1.3220    0.6550 C   0  0  2  0  0  0  0  0  0  0  0  0
   -2.2230    2.1380    1.5740 C   0  0  1  0  0  0  0  0  0  0  0  0
   -1.4320    2.5920    2.8310 C   0  0  0  0  0  0  0  0  0  0  0  0
   -2.6660    3.4300    0.9530 C   0  0  0  0  0  0  0  0  0  0  0  0
   -2.9690    3.1870   -0.4890 C   0  0  0  0  0  0  0  0  0  0  0  0
   -3.8200    1.9980   -0.6340 C   0  0  0  0  0  0  0  0  0  0  0  0
   -3.4790    0.6870   -0.2120 C   0  0  0  0  0  0  0  0  0  0  0  0
   -2.0250    0.2050   -0.0600 C   0  0  1  0  0  0  0  0  0  0  0  0
   -1.4710    0.1160   -1.4570 C   0  0  0  0  0  0  0  0  0  0  0  0
   -1.9380   -0.8860   -2.4160 C   0  0  0  0  0  0  0  0  0  0  0  0
   -1.6740   -2.3320   -2.1210 C   0  0  0  0  0  0  0  0  0  0  0  0
   -2.0710   -1.1090    0.6060 C   0  0  0  0  0  0  0  0  0  0  0  0
   -1.1150   -1.8850    1.0590 C   0  0  0  0  0  0  0  0  0  0  0  0
   -1.6620   -3.1270    1.6540 C   0  0  0  0  0  0  0  0  0  0  0  0
   -2.9520   -3.1290    1.5870 C   0  0  0  0  0  0  0  0  0  0  0  0
   -3.3510   -1.8820    0.9510 C   0  0  0  0  0  0  0  0  0  0  0  0
    0.3390   -1.6220    1.0630 C   0  0  0  0  0  0  0  0  0  0  0  0
    1.2370   -2.8360    1.0050 C   0  0  1  0  0  0  0  0  0  0  0  0
    0.8700   -3.7720    0.0750 O   0  0  0  0  0  0  0  0  0  0  0  0
    2.5840   -2.2270    0.5010 C   0  0  0  0  0  0  0  0  0  0  0  0
    3.1080   -1.1510    1.3670 C   0  0  0  0  0  0  0  0  0  0  0  0
  1  2  2  0
  2  3  1  0
  3  4  1  0
  4  5  1  0
  5  6  1  1
  5  7  1  0
  5 30  1  0
  7  8  1  0
  8  9  1  0
 10  9  1  1
 10 11  1  0
 10 17  1  0
 11 12  1  1
 11 13  1  0
 13 14  1  0
 14 15  1  0
 15 16  1  0
 16 17  1  0
 17 18  1  6
 17 21  1  0
 18 19  1  0
 19 20  1  0
 21 22  2  0
 21 25  1  0
 22 23  1  0
 22 26  1  0
 23 24  2  0
 24 25  1  0
 26 27  1  0
 27 28  1  6
 27 29  1  0
 29 30  1  0
M  END
