
     RDKit          3D

 30 32  0  0  0  0  0  0  0  0999 V2000
    1.5310    1.7490    4.6430 C   0  0  0  0  0  0  0  0  0  0  0  0
    2.2750    1.1080    3.7710 C   0  0  0  0  0  0  0  0  0  0  0  0
    1.8660    1.0890    2.3200 C   0  0  0  0  0  0  0  0  0  0  0  0
    2.6830    0.4080    1.5330 C   0  0  0  0  0  0  0  0  0  0  0  0
    2.7080    0.1100    0.1250 C   0  0  0  0  0  0  0  0  0  0  0  0
    1.8140   -0.6490   -0.5700 C   0  0  0  0  0  0  0  0  0  0  0  0
    2.0690   -0.8160   -2.0230 C   0  0  2  0  0  0  0  0  0  0  0  0
    2.1990   -2.3300   -2.3000 C   0  0  0  0  0  0  0  0  0  0  0  0
    3.3230   -0.1340   -2.5220 C   0  0  0  0  0  0  0  0  0  0  0  0
    3.4470   -0.4150   -4.0360 C   0  0  0  0  0  0  0  0  0  0  0  0
    0.6880   -1.3430    0.0430 C   0  0  0  0  0  0  0  0  0  0  0  0
   -0.5220   -1.0010    0.3660 C   0  0  0  0  0  0  0  0  0  0  0  0
   -1.5160   -1.9510    1.0340 C   0  0  0  0  0  0  0  0  0  0  0  0
   -1.2740   -3.1010    1.6180 C   0  0  0  0  0  0  0  0  0  0  0  0
   -2.3670   -3.8870    2.2140 C   0  0  0  0  0  0  0  0  0  0  0  0
   -2.1130   -4.1050    3.7080 C   0  0  0  0  0  0  0  0  0  0  0  0
   -3.1560   -4.8460    4.2410 O   0  0  0  0  0  0  0  0  0  0  0  0
   -2.8610   -1.3380    0.9260 C   0  0  0  0  0  0  0  0  0  0  0  0
   -2.5810   -0.6470   -0.3120 C   0  0  1  0  0  0  0  0  0  0  0  0
   -3.4410    0.2790   -0.9650 C   0  0  0  0  0  0  0  0  0  0  0  0
   -2.3180    0.8570   -1.8720 C   0  0  0  0  0  0  0  0  0  0  0  0
   -1.4360    1.2780   -0.6440 C   0  0  1  0  0  0  0  0  0  0  0  0
   -1.3340    0.1770    0.1820 C   0  0  2  0  0  0  0  0  0  0  0  0
   -0.5600    2.3180   -1.1450 C   0  0  1  0  0  0  0  0  0  0  0  0
    0.0680    2.0710   -2.5180 C   0  0  0  0  0  0  0  0  0  0  0  0
   -1.4580    3.5600   -1.4370 C   0  0  0  0  0  0  0  0  0  0  0  0
    0.5020    2.8770   -0.2640 C   0  0  1  0  0  0  0  0  0  0  0  0
    0.7260    4.2370   -0.6190 O   0  0  0  0  0  0  0  0  0  0  0  0
    0.2570    2.7470    1.1870 C   0  0  0  0  0  0  0  0  0  0  0  0
    0.7730    1.7110    1.8900 O   0  0  0  0  0  0  0  0  0  0  0  0
  1  2  2  0
  2  3  1  0
  3  4  2  0
  3 30  1  0
  4  5  1  0
  5  6  2  0
  6  7  1  0
  6 11  1  0
  7  8  1  1
  7  9  1  0
  9 10  1  0
 11 12  2  0
 12 13  1  0
 23 12  1  6
 13 14  2  3
 13 18  1  0
 14 15  1  0
 15 16  1  0
 16 17  1  0
 19 18  1  1
 19 20  1  0
 19 23  1  0
 20 21  1  0
 22 21  1  6
 22 23  1  0
 22 24  1  0
 24 25  1  6
 24 26  1  0
 24 27  1  0
 27 28  1  1
 27 29  1  0
 29 30  1  0
M  END
