
     RDKit          3D

 29 32  0  0  0  0  0  0  0  0999 V2000
    9.1830    0.3650   -0.9590 C   0  0  0  0  0  0  0  0  0  0  0  0
    7.8200    0.1740   -0.3830 C   0  0  0  0  0  0  0  0  0  0  0  0
    7.1360   -1.0220   -0.4790 C   0  0  0  0  0  0  0  0  0  0  0  0
    5.8670   -1.1970    0.0590 C   0  0  0  0  0  0  0  0  0  0  0  0
    5.2620   -0.1440    0.7130 C   0  0  0  0  0  0  0  0  0  0  0  0
    3.9040   -0.2870    1.3040 C   0  0  0  0  0  0  0  0  0  0  0  0
    2.9780    0.0780    0.3190 O   0  0  0  0  0  0  0  0  0  0  0  0
    1.5860    0.0520    0.5630 C   0  0  0  0  0  0  0  0  0  0  0  0
    1.2720   -0.3170    1.7090 O   0  0  0  0  0  0  0  0  0  0  0  0
    0.6790    0.4490   -0.5180 C   0  0  0  0  0  0  0  0  0  0  0  0
   -0.7490    0.3790   -0.2160 C   0  0  0  0  0  0  0  0  0  0  0  0
   -1.4620    1.4510   -0.2450 N   0  0  0  0  0  0  0  0  0  0  0  0
   -2.8330    1.5290    0.0210 C   0  0  0  0  0  0  0  0  0  0  0  0
   -3.9250    1.6020   -0.8050 C   0  0  0  0  0  0  0  0  0  0  0  0
   -5.1560    1.6690   -0.2620 C   0  0  0  0  0  0  0  0  0  0  0  0
   -5.2850    1.6650    1.0860 C   0  0  0  0  0  0  0  0  0  0  0  0
   -3.6300    1.5610    1.6440 S   0  0  0  0  0  0  0  0  0  0  0  0
   -6.7090    1.7490    1.5290 C   0  0  0  0  0  0  0  0  0  0  0  0
   -7.3170    2.3920    0.2990 C   0  0  0  0  0  0  0  0  0  0  0  0
   -6.5830    1.7490   -0.8240 C   0  0  0  0  0  0  0  0  0  0  0  0
   -1.3880   -0.8940    0.1210 C   0  0  1  0  0  0  0  0  0  0  0  0
   -1.2290   -1.9220   -1.0110 C   0  0  0  0  0  0  0  0  0  0  0  0
   -2.1200   -3.0070   -0.6760 N   0  0  0  0  0  0  0  0  0  0  0  0
   -2.6810   -3.0290    0.6280 C   0  0  0  0  0  0  0  0  0  0  0  0
   -3.7710   -3.6590    0.8570 O   0  0  0  0  0  0  0  0  0  0  0  0
   -2.0210   -2.3300    1.7390 C   0  0  0  0  0  0  0  0  0  0  0  0
   -1.0260   -1.4580    1.3150 O   0  0  0  0  0  0  0  0  0  0  0  0
    5.9650    1.0420    0.7970 C   0  0  0  0  0  0  0  0  0  0  0  0
    7.1900    1.1780    0.2660 N   0  0  0  0  0  0  0  0  0  0  0  0
  1  2  1  0
  2  3  2  0
  2 29  1  0
  3  4  1  0
  4  5  2  0
  5  6  1  0
  5 28  1  0
  6  7  1  0
  7  8  1  0
  8  9  2  0
  8 10  1  0
 10 11  1  0
 11 12  2  3
 21 11  1  6
 12 13  1  0
 13 14  2  0
 13 17  1  0
 14 15  1  0
 15 16  2  0
 15 20  1  0
 16 17  1  0
 16 18  1  0
 18 19  1  0
 19 20  1  0
 21 22  1  0
 21 27  1  0
 22 23  1  0
 23 24  1  0
 24 25  2  0
 24 26  1  0
 26 27  1  0
 28 29  2  0
M  END
