
     RDKit          3D

 30 32  0  0  0  0  0  0  0  0999 V2000
   -3.0410   -3.8130   -0.7920 C   0  0  0  0  0  0  0  0  0  0  0  0
   -3.2740   -2.3220   -0.8500 C   0  0  1  0  0  0  0  0  0  0  0  0
   -3.8470   -1.9950   -2.2010 C   0  0  0  0  0  0  0  0  0  0  0  0
   -4.2680   -1.9620    0.1990 C   0  0  0  0  0  0  0  0  0  0  0  0
   -3.6350   -1.4450    1.4670 C   0  0  0  0  0  0  0  0  0  0  0  0
   -2.8620   -0.1420    1.2150 C   0  0  2  0  0  0  0  0  0  0  0  0
   -3.8250    0.8620    1.2070 O   0  0  0  0  0  0  0  0  0  0  0  0
   -2.1850   -0.2050   -0.1050 C   0  0  1  0  0  0  0  0  0  0  0  0
   -1.3220    0.9270   -0.5170 C   0  0  1  0  0  0  0  0  0  0  0  0
   -2.3170    2.1330   -0.5950 C   0  0  0  0  0  0  0  0  0  0  0  0
   -1.9700    3.1380   -1.6140 C   0  0  0  0  0  0  0  0  0  0  0  0
   -1.3350    4.2500   -0.8440 C   0  0  0  0  0  0  0  0  0  0  0  0
   -0.2610    3.9490    0.0780 C   0  0  0  0  0  0  0  0  0  0  0  0
   -0.2560    2.7120    0.9220 C   0  0  2  0  0  0  0  0  0  0  0  0
    1.0320    2.9700    1.7440 C   0  0  0  0  0  0  0  0  0  0  0  0
    2.0750    3.1220    0.9140 O   0  0  0  0  0  0  0  0  0  0  0  0
    2.2120    2.2920   -0.1570 C   0  0  0  0  0  0  0  0  0  0  0  0
    0.9890    1.7820   -0.8360 C   0  0  0  0  0  0  0  0  0  0  0  0
   -0.1350    1.4030    0.1870 C   0  0  2  0  0  0  0  0  0  0  0  0
    0.6770    0.4110    1.0200 C   0  0  0  0  0  0  0  0  0  0  0  0
    1.3000   -0.6700    0.2770 C   0  0  0  0  0  0  0  0  0  0  0  0
    2.4080   -1.3330    0.3040 C   0  0  0  0  0  0  0  0  0  0  0  0
    2.5590   -2.4140   -0.7660 C   0  0  0  0  0  0  0  0  0  0  0  0
    3.6730   -2.1990   -1.7100 C   0  0  0  0  0  0  0  0  0  0  0  0
    3.5590   -1.0260   -2.4550 O   0  0  0  0  0  0  0  0  0  0  0  0
    3.4880   -1.2000    1.2780 C   0  0  1  0  0  0  0  0  0  0  0  0
    3.2060   -0.4030    2.5230 C   0  0  0  0  0  0  0  0  0  0  0  0
    3.9120   -2.5910    1.7990 C   0  0  0  0  0  0  0  0  0  0  0  0
    4.7790   -0.6090    0.7200 C   0  0  0  0  0  0  0  0  0  0  0  0
   -1.9490   -1.5640   -0.6670 C   0  0  0  0  0  0  0  0  0  0  0  0
  2  1  1  6
  2  3  1  0
  2  4  1  0
  2 30  1  0
  4  5  1  0
  5  6  1  0
  6  7  1  6
  6  8  1  0
  8  9  1  0
  8 30  1  1
  9 10  1  1
  9 19  1  0
 10 11  1  0
 11 12  1  0
 12 13  1  0
 14 13  1  6
 14 15  1  0
 14 19  1  0
 15 16  1  0
 16 17  1  0
 17 18  1  0
 18 19  1  0
 19 20  1  1
 20 21  1  0
 21 22  2  3
 22 23  1  0
 22 26  1  0
 23 24  1  0
 24 25  1  0
 26 27  1  1
 26 28  1  0
 26 29  1  0
M  END
