
     RDKit          3D

 30 32  0  0  0  0  0  0  0  0999 V2000
    1.8680    0.6710    1.8450 C   0  0  0  0  0  0  0  0  0  0  0  0
    1.9710    0.6390    0.3130 C   0  0  1  0  0  0  0  0  0  0  0  0
    3.2890    1.3150    0.0010 C   0  0  1  0  0  0  0  0  0  0  0  0
    3.2780    2.6400    0.4950 O   0  0  0  0  0  0  0  0  0  0  0  0
    4.4550    0.6390    0.6300 C   0  0  0  0  0  0  0  0  0  0  0  0
    5.6330    1.2800   -0.0720 C   0  0  0  0  0  0  0  0  0  0  0  0
    5.1190    1.7360   -1.4180 C   0  0  0  0  0  0  0  0  0  0  0  0
    3.6250    1.3890   -1.4450 C   0  0  0  0  0  0  0  0  0  0  0  0
    2.0490   -0.7720   -0.2020 C   0  0  0  0  0  0  0  0  0  0  0  0
    1.9070   -1.8230    0.8740 C   0  0  0  0  0  0  0  0  0  0  0  0
    1.2320   -3.0510    0.3850 C   0  0  0  0  0  0  0  0  0  0  0  0
   -0.0770   -3.1440    0.2640 C   0  0  0  0  0  0  0  0  0  0  0  0
   -0.7080   -4.3750   -0.2230 C   0  0  0  0  0  0  0  0  0  0  0  0
   -1.9970   -4.5980   -0.3890 C   0  0  0  0  0  0  0  0  0  0  0  0
   -2.2140   -5.9910   -0.9080 C   0  0  0  0  0  0  0  0  0  0  0  0
   -0.8400   -6.5040   -1.0030 C   0  0  0  0  0  0  0  0  0  0  0  0
   -0.0000   -5.5630   -0.6070 C   0  0  0  0  0  0  0  0  0  0  0  0
   -0.9490   -1.9830    0.6250 C   0  0  0  0  0  0  0  0  0  0  0  0
   -1.8290   -1.6060   -0.5000 C   0  0  0  0  0  0  0  0  0  0  0  0
   -2.8130   -0.7590   -0.3090 C   0  0  0  0  0  0  0  0  0  0  0  0
   -3.1800   -0.0930    0.9510 C   0  0  0  0  0  0  0  0  0  0  0  0
   -2.3490    1.1740    1.2060 C   0  0  0  0  0  0  0  0  0  0  0  0
   -2.0890    1.8060   -0.0970 C   0  0  1  0  0  0  0  0  0  0  0  0
   -3.3240    2.4750   -0.6310 C   0  0  0  0  0  0  0  0  0  0  0  0
   -3.8470    3.5640    0.2690 C   0  0  0  0  0  0  0  0  0  0  0  0
   -5.0830    4.2220   -0.3350 C   0  0  0  0  0  0  0  0  0  0  0  0
   -4.7920    4.7850   -1.5630 O   0  0  0  0  0  0  0  0  0  0  0  0
   -1.0700    2.7250   -0.1320 O   0  0  0  0  0  0  0  0  0  0  0  0
    0.1200    2.3610    0.4450 C   0  0  0  0  0  0  0  0  0  0  0  0
    0.8370    1.3260   -0.3570 C   0  0  0  0  0  0  0  0  0  0  0  0
  2  1  1  1
  2  3  1  0
  2  9  1  0
  2 30  1  0
  3  4  1  1
  3  5  1  0
  3  8  1  0
  5  6  1  0
  6  7  1  0
  7  8  1  0
  9 10  1  0
 10 11  1  0
 11 12  2  0
 12 13  1  0
 12 18  1  0
 13 14  2  0
 13 17  1  0
 14 15  1  0
 15 16  1  0
 16 17  2  0
 18 19  1  0
 19 20  2  0
 20 21  1  0
 21 22  1  0
 22 23  1  0
 23 24  1  1
 23 28  1  0
 24 25  1  0
 25 26  1  0
 26 27  1  0
 28 29  1  0
 29 30  1  0
M  END
