
     RDKit          3D

 30 32  0  0  0  0  0  0  0  0999 V2000
   -7.5240    2.1110   -1.0450 C   0  0  0  0  0  0  0  0  0  0  0  0
   -6.5670    0.9940   -0.8320 C   0  0  0  0  0  0  0  0  0  0  0  0
   -5.2080    1.1420   -1.0490 C   0  0  0  0  0  0  0  0  0  0  0  0
   -4.3110    0.1030   -0.8520 C   0  0  0  0  0  0  0  0  0  0  0  0
   -4.7520   -1.1290   -0.4270 C   0  0  0  0  0  0  0  0  0  0  0  0
   -3.8540   -2.2870   -0.1900 C   0  0  0  0  0  0  0  0  0  0  0  0
   -2.4680   -1.8880   -0.3440 N   0  0  0  0  0  0  0  0  0  0  0  0
   -1.7760   -1.1410    0.6410 C   0  0  0  0  0  0  0  0  0  0  0  0
   -2.4310   -0.8230    1.6940 O   0  0  0  0  0  0  0  0  0  0  0  0
   -0.3650   -0.7140    0.5290 C   0  0  2  0  0  0  0  0  0  0  0  0
    0.5030   -1.9180    0.2890 C   0  0  0  0  0  0  0  0  0  0  0  0
    0.0610    0.0410    1.6900 N   0  0  0  0  0  0  0  0  0  0  0  0
    0.8450    1.0200    1.3570 C   0  0  0  0  0  0  0  0  0  0  0  0
    1.6110    2.2120    2.4440 S   0  0  0  0  0  0  0  0  0  0  0  0
    2.6270    3.3650    1.4930 C   0  0  0  0  0  0  0  0  0  0  0  0
    3.7960    2.5870    0.9350 C   0  0  0  0  0  0  0  0  0  0  0  0
    4.6050    3.2020    0.2090 O   0  0  0  0  0  0  0  0  0  0  0  0
    3.9810    1.2220    1.2140 N   0  0  0  0  0  0  0  0  0  0  0  0
    5.0350    0.4060    0.7400 C   0  0  0  0  0  0  0  0  0  0  0  0
    5.2000   -0.8680    1.3100 C   0  0  0  0  0  0  0  0  0  0  0  0
    6.2000   -1.7090    0.8850 C   0  0  0  0  0  0  0  0  0  0  0  0
    7.0920   -1.3710   -0.1070 C   0  0  0  0  0  0  0  0  0  0  0  0
    8.0990   -2.2240   -0.5320 O   0  0  0  0  0  0  0  0  0  0  0  0
    6.9410   -0.1290   -0.6720 C   0  0  0  0  0  0  0  0  0  0  0  0
    5.9190    0.7390   -0.2430 C   0  0  0  0  0  0  0  0  0  0  0  0
    1.0140    1.0020   -0.0650 N   0  0  0  0  0  0  0  0  0  0  0  0
   -0.1940    0.3300   -0.5680 C   0  0  1  0  0  0  0  0  0  0  0  0
    0.1570   -0.2830   -1.8950 C   0  0  0  0  0  0  0  0  0  0  0  0
   -6.1100   -1.3030   -0.2010 C   0  0  0  0  0  0  0  0  0  0  0  0
   -7.0030   -0.2450   -0.4050 C   0  0  0  0  0  0  0  0  0  0  0  0
  1  2  1  0
  2  3  2  0
  2 30  1  0
  3  4  1  0
  4  5  2  0
  5  6  1  0
  5 29  1  0
  6  7  1  0
  7  8  1  0
  8  9  2  0
  8 10  1  0
 10 11  1  6
 10 12  1  0
 10 27  1  0
 12 13  2  0
 13 14  1  0
 13 26  1  0
 14 15  1  0
 15 16  1  0
 16 17  2  0
 16 18  1  0
 18 19  1  0
 19 20  2  0
 19 25  1  0
 20 21  1  0
 21 22  2  0
 22 23  1  0
 22 24  1  0
 24 25  2  0
 26 27  1  0
 27 28  1  6
 29 30  2  0
M  CHG  1  12   1
M  END
