
     RDKit          3D

 30 32  0  0  0  0  0  0  0  0999 V2000
   -7.0510    0.9010    1.2760 C   0  0  0  0  0  0  0  0  0  0  0  0
   -5.8070    1.5280    1.5350 N   0  0  0  0  0  0  0  0  0  0  0  0
   -4.7700    1.3780    0.5320 C   0  0  0  0  0  0  0  0  0  0  0  0
   -5.1570    0.3880   -0.5170 C   0  0  0  0  0  0  0  0  0  0  0  0
   -6.3380    0.4830   -1.2050 C   0  0  0  0  0  0  0  0  0  0  0  0
   -6.6550   -0.5140   -2.1710 C   0  0  0  0  0  0  0  0  0  0  0  0
   -5.7580   -1.5480   -2.3900 C   0  0  0  0  0  0  0  0  0  0  0  0
   -4.5760   -1.5700   -1.6580 C   0  0  0  0  0  0  0  0  0  0  0  0
   -3.6450   -2.7780   -1.7150 C   0  0  0  0  0  0  0  0  0  0  0  0
   -4.2560   -0.6080   -0.7220 C   0  0  0  0  0  0  0  0  0  0  0  0
   -2.9440   -0.6900   -0.0510 N   0  0  0  0  0  0  0  0  0  0  0  0
   -1.9160    0.0900   -0.5000 C   0  0  0  0  0  0  0  0  0  0  0  0
   -2.2190    0.8690   -1.5500 O   0  0  0  0  0  0  0  0  0  0  0  0
   -0.5620    0.2680   -0.0720 C   0  0  0  0  0  0  0  0  0  0  0  0
   -0.3100    1.4440    0.6370 C   0  0  0  0  0  0  0  0  0  0  0  0
    0.9940    1.7930    0.9550 C   0  0  0  0  0  0  0  0  0  0  0  0
    2.0450    1.0140    0.5950 C   0  0  0  0  0  0  0  0  0  0  0  0
    1.8300   -0.1600   -0.0940 C   0  0  0  0  0  0  0  0  0  0  0  0
    2.9410   -1.0580   -0.4080 C   0  0  0  0  0  0  0  0  0  0  0  0
    4.5500   -0.2080   -0.6410 S   0  0  0  0  0  0  0  0  0  0  0  0
    5.2950    0.2580    0.9720 C   0  0  0  0  0  0  0  0  0  0  0  0
    6.7980    0.1770    0.7750 C   0  0  1  0  0  0  0  0  0  0  0  0
    7.5720    0.4540    2.0130 C   0  0  0  0  0  0  0  0  0  0  0  0
    7.1840   -0.9900    0.0910 N   0  0  0  0  0  0  0  0  0  0  0  0
    8.3080   -0.6550   -0.7040 C   0  0  0  0  0  0  0  0  0  0  0  0
    9.1670   -1.4790   -1.1600 O   0  0  0  0  0  0  0  0  0  0  0  0
    8.3080    0.7580   -0.8880 N   0  0  0  0  0  0  0  0  0  0  0  0
    7.1760    1.2810   -0.2080 C   0  0  0  0  0  0  0  0  0  0  0  0
    6.6010    2.3880   -0.3540 O   0  0  0  0  0  0  0  0  0  0  0  0
    0.4990   -0.5200   -0.4270 C   0  0  0  0  0  0  0  0  0  0  0  0
  1  2  1  0
  2  3  1  0
  3  4  1  0
  4  5  2  0
  4 10  1  0
  5  6  1  0
  6  7  2  0
  7  8  1  0
  8  9  1  0
  8 10  2  0
 10 11  1  0
 11 12  1  0
 12 13  2  0
 12 14  1  0
 14 15  2  0
 14 30  1  0
 15 16  1  0
 16 17  2  0
 17 18  1  0
 18 19  1  0
 18 30  2  0
 19 20  1  0
 20 21  1  0
 21 22  1  0
 22 23  1  1
 22 24  1  0
 22 28  1  0
 24 25  1  0
 25 26  2  0
 25 27  1  0
 27 28  1  0
 28 29  2  0
M  CHG  1   2   1
M  END
