
     RDKit          3D

 30 32  0  0  0  0  0  0  0  0999 V2000
    3.9590   -2.2210    0.6950 C   0  0  0  0  0  0  0  0  0  0  0  0
    4.9660   -1.1080    0.7400 C   0  0  1  0  0  0  0  0  0  0  0  0
    6.3530   -1.6940    0.5550 C   0  0  0  0  0  0  0  0  0  0  0  0
    7.3260   -0.5820    0.8640 C   0  0  0  0  0  0  0  0  0  0  0  0
    6.9450    0.7340    0.3040 C   0  0  0  0  0  0  0  0  0  0  0  0
    5.8770    0.6990   -0.7430 C   0  0  0  0  0  0  0  0  0  0  0  0
    4.7200   -0.1840   -0.4190 C   0  0  2  0  0  0  0  0  0  0  0  0
    3.5470    0.6670   -0.0900 C   0  0  0  0  0  0  0  0  0  0  0  0
    2.9330    0.5550    1.0010 O   0  0  0  0  0  0  0  0  0  0  0  0
    3.1180    1.6190   -1.0230 N   0  0  0  0  0  0  0  0  0  0  0  0
    2.0380    2.4810   -0.8500 N   0  0  0  0  0  0  0  0  0  0  0  0
    0.7230    2.0510   -0.5790 C   0  0  0  0  0  0  0  0  0  0  0  0
    0.5340    0.8090   -0.4910 O   0  0  0  0  0  0  0  0  0  0  0  0
   -0.4180    2.9830   -0.3970 C   0  0  0  0  0  0  0  0  0  0  0  0
   -1.7020    2.2720   -0.1190 C   0  0  2  0  0  0  0  0  0  0  0  0
   -1.6210    1.2700    1.3910 S   0  0  0  0  0  0  0  0  0  0  0  0
   -2.4470   -0.3160    0.9660 C   0  0  0  0  0  0  0  0  0  0  0  0
   -3.6320    0.0480    0.1060 C   0  0  2  0  0  0  0  0  0  0  0  0
   -4.2700    1.1580    0.6690 O   0  0  0  0  0  0  0  0  0  0  0  0
   -4.5880   -1.0800    0.0630 C   0  0  2  0  0  0  0  0  0  0  0  0
   -3.8320   -2.3250   -0.4300 C   0  0  0  0  0  0  0  0  0  0  0  0
   -5.6990   -0.9030   -0.9410 C   0  0  0  0  0  0  0  0  0  0  0  0
   -6.7750   -0.0610   -0.3810 C   0  0  0  0  0  0  0  0  0  0  0  0
   -6.7680   -0.5330    1.3310 S   0  0  1  0  0  0  0  0  0  0  0  0
   -6.7440    0.6480    2.2430 O   0  0  0  0  0  0  0  0  0  0  0  0
   -7.8790   -1.4620    1.6600 O   0  0  0  0  0  0  0  0  0  0  0  0
   -5.1920   -1.4120    1.3730 C   0  0  0  0  0  0  0  0  0  0  0  0
   -3.1930    0.4460   -1.2860 C   0  0  0  0  0  0  0  0  0  0  0  0
   -2.0620    1.4070   -1.2710 C   0  0  0  0  0  0  0  0  0  0  0  0
   -1.3860    1.4830   -2.2810 O   0  0  0  0  0  0  0  0  0  0  0  0
  2  1  1  6
  2  3  1  0
  2  7  1  0
  3  4  1  0
  4  5  1  0
  5  6  1  0
  6  7  1  0
  7  8  1  1
  8  9  2  0
  8 10  1  0
 10 11  1  0
 11 12  1  0
 12 13  2  0
 12 14  1  0
 15 14  1  6
 15 16  1  0
 15 29  1  0
 16 17  1  0
 17 18  1  0
 18 19  1  1
 18 20  1  0
 18 28  1  0
 20 21  1  6
 20 22  1  0
 20 27  1  0
 22 23  1  0
 24 23  1  6
 24 25  2  0
 24 26  2  0
 24 27  1  0
 28 29  1  0
 29 30  2  0
M  END
