
     RDKit          3D

 30 32  0  0  0  0  0  0  0  0999 V2000
   -7.3440    0.2430    1.4720 C   0  0  0  0  0  0  0  0  0  0  0  0
   -6.8220   -0.6270    0.3640 C   0  0  0  0  0  0  0  0  0  0  0  0
   -6.4000    0.1850   -0.8280 C   0  0  1  0  0  0  0  0  0  0  0  0
   -7.5030    0.8990   -1.3030 O   0  0  0  0  0  0  0  0  0  0  0  0
   -5.3150    1.1750   -0.5410 C   0  0  0  0  0  0  0  0  0  0  0  0
   -4.1070    0.5640   -0.0390 N   0  0  0  0  0  0  0  0  0  0  0  0
   -3.3730   -0.3970   -0.7720 C   0  0  0  0  0  0  0  0  0  0  0  0
   -3.7850   -0.7420   -1.9070 O   0  0  0  0  0  0  0  0  0  0  0  0
   -2.1270   -1.0280   -0.2680 C   0  0  1  0  0  0  0  0  0  0  0  0
   -1.5820   -2.0310   -1.2540 C   0  0  0  0  0  0  0  0  0  0  0  0
   -1.1730    0.0400    0.0980 C   0  0  0  0  0  0  0  0  0  0  0  0
   -0.6620   -0.0520    1.4390 C   0  0  0  0  0  0  0  0  0  0  0  0
    0.6560    1.0170    2.0390 S   0  0  0  0  0  0  0  0  0  0  0  0
    1.2280    2.2100    0.8580 C   0  0  0  0  0  0  0  0  0  0  0  0
    1.9270    1.5650   -0.2530 C   0  0  0  0  0  0  0  0  0  0  0  0
    1.5200    1.7240   -1.4220 O   0  0  0  0  0  0  0  0  0  0  0  0
    3.0490    0.7720   -0.0300 O   0  0  0  0  0  0  0  0  0  0  0  0
    3.7700    0.1210   -1.0500 C   0  0  1  0  0  0  0  0  0  0  0  0
    5.1880    0.6200   -0.9350 C   0  0  0  0  0  0  0  0  0  0  0  0
    5.8830    1.5820   -1.5050 C   0  0  0  0  0  0  0  0  0  0  0  0
    7.2970    1.8860   -1.2210 C   0  0  0  0  0  0  0  0  0  0  0  0
    7.8760    1.0420   -0.2620 O   0  0  0  0  0  0  0  0  0  0  0  0
    7.1260    0.0440    0.3190 C   0  0  0  0  0  0  0  0  0  0  0  0
    5.8610   -0.2120    0.0530 C   0  0  0  0  0  0  0  0  0  0  0  0
    4.8740   -1.1970    0.5300 C   0  0  2  0  0  0  0  0  0  0  0  0
    5.4570   -2.4330    0.9630 N   0  0  0  0  0  0  0  0  0  0  0  0
    3.9880   -1.3460   -0.6940 C   0  0  1  0  0  0  0  0  0  0  0  0
    2.8140   -2.0120   -0.4400 O   0  0  0  0  0  0  0  0  0  0  0  0
   -1.1910   -0.9370    2.2590 C   0  0  0  0  0  0  0  0  0  0  0  0
   -2.4710   -1.7830    1.3400 S   0  0  0  0  0  0  0  0  0  0  0  0
  1  2  1  0
  2  3  1  0
  3  4  1  1
  3  5  1  0
  5  6  1  0
  6  7  1  0
  7  8  2  0
  7  9  1  0
  9 10  1  6
  9 11  1  0
  9 30  1  0
 11 12  1  0
 12 13  1  0
 12 29  2  0
 13 14  1  0
 14 15  1  0
 15 16  2  0
 15 17  1  0
 18 17  1  1
 18 19  1  0
 18 27  1  0
 19 20  2  0
 19 24  1  0
 20 21  1  0
 21 22  1  0
 22 23  1  0
 23 24  2  0
 24 25  1  0
 25 26  1  6
 25 27  1  0
 27 28  1  1
 29 30  1  0
M  END
