
     RDKit          3D

 29 31  0  0  0  0  0  0  0  0999 V2000
   -6.3790   -3.5030   -2.0710 C   0  0  0  0  0  0  0  0  0  0  0  0
   -5.9030   -2.3250   -1.3380 N   0  0  0  0  0  0  0  0  0  0  0  0
   -5.5650   -1.3000   -2.2730 C   0  0  0  0  0  0  0  0  0  0  0  0
   -5.1130   -0.0110   -1.6400 C   0  0  0  0  0  0  0  0  0  0  0  0
   -3.9380   -0.0510   -0.8200 C   0  0  0  0  0  0  0  0  0  0  0  0
   -3.9300   -0.4710    0.5220 C   0  0  0  0  0  0  0  0  0  0  0  0
   -5.2200   -0.7770    1.1340 N   0  0  0  0  0  0  0  0  0  0  0  0
   -2.8220   -0.5250    1.2660 C   0  0  0  0  0  0  0  0  0  0  0  0
   -1.6040   -0.1640    0.7750 C   0  0  0  0  0  0  0  0  0  0  0  0
   -1.5860    0.2810   -0.5770 C   0  0  0  0  0  0  0  0  0  0  0  0
   -2.6590    0.3410   -1.3350 C   0  0  0  0  0  0  0  0  0  0  0  0
   -2.6070    0.7900   -2.7560 C   0  0  0  0  0  0  0  0  0  0  0  0
   -0.2970    0.6650   -1.0000 O   0  0  0  0  0  0  0  0  0  0  0  0
    0.8810    0.1050   -0.6080 C   0  0  1  0  0  0  0  0  0  0  0  0
    1.9210    1.0560   -0.0320 C   0  0  0  0  0  0  0  0  0  0  0  0
    1.7710    2.2620    0.1190 O   0  0  0  0  0  0  0  0  0  0  0  0
    3.1620    0.4640    0.3660 N   0  0  0  0  0  0  0  0  0  0  0  0
    4.2810    1.0250    0.9550 C   0  0  0  0  0  0  0  0  0  0  0  0
    5.2180    1.8380    0.3100 C   0  0  0  0  0  0  0  0  0  0  0  0
    6.3340    2.2710    0.9990 C   0  0  0  0  0  0  0  0  0  0  0  0
    6.5940    1.9530    2.3120 C   0  0  0  0  0  0  0  0  0  0  0  0
    8.1020    2.3750    3.1700 S   0  0  0  0  0  0  0  0  0  0  0  0
    9.2080    3.0920    1.8630 C   0  0  0  0  0  0  0  0  0  0  0  0
    9.3370    1.9770    0.8660 C   0  0  0  0  0  0  0  0  0  0  0  0
    9.4240    1.1180    0.1110 N   0  0  0  0  0  0  0  0  0  0  0  0
    5.6570    1.1320    2.9920 C   0  0  0  0  0  0  0  0  0  0  0  0
    4.6030    0.7530    2.2560 C   0  0  0  0  0  0  0  0  0  0  0  0
    0.6600   -0.9740    0.4770 C   0  0  0  0  0  0  0  0  0  0  0  0
   -0.3510   -0.3580    1.4900 C   0  0  0  0  0  0  0  0  0  0  0  0
  1  2  1  0
  2  3  1  0
  3  4  1  0
  4  5  1  0
  5  6  2  0
  5 11  1  0
  6  7  1  0
  6  8  1  0
  8  9  2  0
  9 10  1  0
  9 29  1  0
 10 11  2  0
 10 13  1  0
 11 12  1  0
 13 14  1  0
 14 15  1  1
 14 28  1  0
 15 16  2  0
 15 17  1  0
 17 18  1  0
 18 19  2  0
 18 27  1  0
 19 20  1  0
 20 21  2  0
 21 22  1  0
 21 26  1  0
 22 23  1  0
 23 24  1  0
 24 25  3  0
 26 27  2  0
 28 29  1  0
M  CHG  1   2   1
M  END
