
     RDKit          3D

 30 32  0  0  0  0  0  0  0  0999 V2000
   -0.3220    2.1940   -2.8820 O   0  0  0  0  0  0  0  0  0  0  0  0
   -0.6600    1.1300   -2.2250 C   0  0  0  0  0  0  0  0  0  0  0  0
   -1.8810    0.5830   -2.6600 N   0  0  0  0  0  0  0  0  0  0  0  0
   -2.9230   -0.0030   -1.8230 C   0  0  0  0  0  0  0  0  0  0  0  0
   -2.5900    0.1660   -0.3890 C   0  0  0  0  0  0  0  0  0  0  0  0
   -3.8400    0.4610    0.4380 C   0  0  0  0  0  0  0  0  0  0  0  0
   -4.3090    1.6750    0.3550 C   0  0  0  0  0  0  0  0  0  0  0  0
   -5.4760    2.2860    1.0070 C   0  0  0  0  0  0  0  0  0  0  0  0
   -6.2190    1.1530    2.1780 S   0  0  0  0  0  0  0  0  0  0  0  0
   -5.3720   -0.4010    2.0660 C   0  0  0  0  0  0  0  0  0  0  0  0
   -4.3380   -0.6230    1.2780 C   0  0  0  0  0  0  0  0  0  0  0  0
   -3.7510   -1.8840    1.2690 O   0  0  0  0  0  0  0  0  0  0  0  0
   -3.7020   -2.8280    0.2200 C   0  0  0  0  0  0  0  0  0  0  0  0
   -2.3530   -3.4410    0.1560 C   0  0  0  0  0  0  0  0  0  0  0  0
   -1.6240   -3.1270   -0.9720 O   0  0  0  0  0  0  0  0  0  0  0  0
   -0.3010   -2.8100   -0.7300 C   0  0  0  0  0  0  0  0  0  0  0  0
    0.2270   -1.7180   -1.6360 C   0  0  2  0  0  0  0  0  0  0  0  0
    1.2740   -2.2770   -2.3740 O   0  0  0  0  0  0  0  0  0  0  0  0
    0.7590   -0.5510   -0.8850 C   0  0  1  0  0  0  0  0  0  0  0  0
    2.2620   -0.6520   -0.8800 C   0  0  0  0  0  0  0  0  0  0  0  0
    2.9790    0.4760   -0.2130 C   0  0  2  0  0  0  0  0  0  0  0  0
    2.9220    0.3900    1.5770 S   0  0  0  0  0  0  0  0  0  0  0  0
    3.9210    1.6430    2.3340 C   0  0  0  0  0  0  0  0  0  0  0  0
    5.3690    1.3370    2.5090 C   0  0  2  0  0  0  0  0  0  0  0  0
    5.9470    2.5280    3.0590 O   0  0  0  0  0  0  0  0  0  0  0  0
    6.1080    0.8880    1.3360 C   0  0  0  0  0  0  0  0  0  0  0  0
    5.6930   -0.3640    0.9030 O   0  0  0  0  0  0  0  0  0  0  0  0
    2.3410    1.8230   -0.5900 C   0  0  0  0  0  0  0  0  0  0  0  0
    0.8760    1.7540   -0.3300 C   0  0  0  0  0  0  0  0  0  0  0  0
    0.2530    0.7550   -1.2330 N   0  0  0  0  0  0  0  0  0  0  0  0
  1  2  2  0
  2  3  1  0
  2 30  1  0
  3  4  1  0
  4  5  1  0
  5  6  1  0
  6  7  2  0
  6 11  1  0
  7  8  1  0
  8  9  1  0
  9 10  1  0
 10 11  2  0
 11 12  1  0
 12 13  1  0
 13 14  1  0
 14 15  1  0
 15 16  1  0
 16 17  1  0
 17 18  1  1
 17 19  1  0
 19 20  1  6
 19 30  1  0
 20 21  1  0
 21 22  1  1
 21 28  1  0
 22 23  1  0
 23 24  1  0
 24 25  1  6
 24 26  1  0
 26 27  1  0
 28 29  1  0
 29 30  1  0
M  END
