
     RDKit          3D

 30 32  0  0  0  0  0  0  0  0999 V2000
    7.5600   -0.4910    1.7920 C   0  0  0  0  0  0  0  0  0  0  0  0
    6.2530   -0.2470    1.1000 C   0  0  0  0  0  0  0  0  0  0  0  0
    5.2380   -1.1660    1.0460 C   0  0  0  0  0  0  0  0  0  0  0  0
    4.0360   -0.9240    0.4210 C   0  0  0  0  0  0  0  0  0  0  0  0
    3.7810    0.2850   -0.2020 C   0  0  0  0  0  0  0  0  0  0  0  0
    2.5550    0.5710   -0.9030 C   0  0  0  0  0  0  0  0  0  0  0  0
    2.5030    1.4650   -1.9620 C   0  0  0  0  0  0  0  0  0  0  0  0
    1.2840    1.6670   -2.6050 C   0  0  0  0  0  0  0  0  0  0  0  0
    0.1470    1.0410   -2.2630 C   0  0  0  0  0  0  0  0  0  0  0  0
   -1.1810    1.3000   -2.9480 C   0  0  0  0  0  0  0  0  0  0  0  0
    0.1970    0.1370   -1.1960 C   0  0  0  0  0  0  0  0  0  0  0  0
   -1.0480   -0.6480   -0.9700 C   0  0  0  0  0  0  0  0  0  0  0  0
   -1.0640   -1.5530    0.1150 N   0  0  0  0  0  0  0  0  0  0  0  0
   -1.8180   -1.1610    1.2510 C   0  0  0  0  0  0  0  0  0  0  0  0
   -2.7880   -0.1010    1.0920 C   0  0  0  0  0  0  0  0  0  0  0  0
   -2.5720    1.2570    1.1020 N   0  0  0  0  0  0  0  0  0  0  0  0
   -3.7550    1.8620    1.1610 N   0  0  0  0  0  0  0  0  0  0  0  0
   -4.7600    0.9790    1.1900 C   0  0  0  0  0  0  0  0  0  0  0  0
   -4.1630   -0.2360    1.1390 C   0  0  0  0  0  0  0  0  0  0  0  0
   -4.7600   -1.6070    1.0560 C   0  0  0  0  0  0  0  0  0  0  0  0
   -6.1900   -1.5240    0.9870 N   0  0  0  0  0  0  0  0  0  0  0  0
   -6.8150   -0.8470   -0.1360 C   0  0  0  0  0  0  0  0  0  0  0  0
   -6.1030   -0.3290   -1.0230 O   0  0  0  0  0  0  0  0  0  0  0  0
   -8.5760   -0.7900   -0.1980 S   0  0  1  0  0  0  0  0  0  0  0  0
   -9.0600    0.6110   -0.2540 O   0  0  0  0  0  0  0  0  0  0  0  0
   -9.1040   -1.5590   -1.3970 O   0  0  0  0  0  0  0  0  0  0  0  0
    1.3480   -0.0840   -0.5440 C   0  0  0  0  0  0  0  0  0  0  0  0
    4.8180    1.2090   -0.1380 C   0  0  0  0  0  0  0  0  0  0  0  0
    6.0120    0.9870    0.4740 C   0  0  0  0  0  0  0  0  0  0  0  0
    7.1420    1.9720    0.5160 C   0  0  0  0  0  0  0  0  0  0  0  0
  1  2  1  0
  2  3  2  0
  2 29  1  0
  3  4  1  0
  4  5  2  0
  5  6  1  0
  5 28  1  0
  6  7  2  0
  6 27  1  0
  7  8  1  0
  8  9  2  0
  9 10  1  0
  9 11  1  0
 11 12  1  0
 11 27  2  0
 12 13  1  0
 13 14  1  0
 14 15  1  0
 15 16  1  0
 15 19  2  0
 16 17  1  0
 17 18  2  0
 18 19  1  0
 19 20  1  0
 20 21  1  0
 21 22  1  0
 22 23  2  0
 24 22  1  6
 24 25  2  0
 24 26  2  0
 28 29  2  0
 29 30  1  0
M  CHG  1  13   1
M  END
