
     RDKit          3D

 29 31  0  0  0  0  0  0  0  0999 V2000
   -5.8570   -1.0320    1.0840 C   0  0  0  0  0  0  0  0  0  0  0  0
   -5.6040    0.2190    0.3150 C   0  0  1  0  0  0  0  0  0  0  0  0
   -6.3850    1.2700    0.8650 O   0  0  0  0  0  0  0  0  0  0  0  0
   -4.1790    0.6530    0.2370 C   0  0  2  0  0  0  0  0  0  0  0  0
   -4.1320    1.8470   -0.6210 N   0  0  0  0  0  0  0  0  0  0  0  0
   -3.2380   -0.3700   -0.2700 C   0  0  0  0  0  0  0  0  0  0  0  0
   -2.6850   -0.2050   -1.4110 O   0  0  0  0  0  0  0  0  0  0  0  0
   -2.8710   -1.5580    0.4030 N   0  0  0  0  0  0  0  0  0  0  0  0
   -1.7630   -2.6930   -0.2710 S   0  0  1  0  0  0  0  0  0  0  0  0
   -1.0760   -3.4020    0.8570 O   0  0  0  0  0  0  0  0  0  0  0  0
   -2.5180   -3.6830   -1.1330 O   0  0  0  0  0  0  0  0  0  0  0  0
   -0.5420   -1.8640   -1.1990 C   0  0  0  0  0  0  0  0  0  0  0  0
   -0.7000   -1.7140   -2.5640 C   0  0  0  0  0  0  0  0  0  0  0  0
    0.2950   -1.0470   -3.2440 C   0  0  0  0  0  0  0  0  0  0  0  0
    1.4080   -0.5490   -2.5850 C   0  0  0  0  0  0  0  0  0  0  0  0
    1.5740   -0.6940   -1.2220 C   0  0  0  0  0  0  0  0  0  0  0  0
    2.7510   -0.1610   -0.5430 C   0  0  0  0  0  0  0  0  0  0  0  0
    3.2840   -0.7690    0.5920 C   0  0  0  0  0  0  0  0  0  0  0  0
    4.4070   -0.2470    1.2270 C   0  0  0  0  0  0  0  0  0  0  0  0
    5.0000    0.8830    0.7320 C   0  0  0  0  0  0  0  0  0  0  0  0
    6.1200    1.4340    1.3380 C   0  0  0  0  0  0  0  0  0  0  0  0
    6.6130    0.7610    2.4880 N   0  0  0  0  0  0  0  0  0  0  0  0
    6.6930    2.5430    0.8450 N   0  0  0  0  0  0  0  0  0  0  0  0
    6.2070    3.1570   -0.2460 C   0  0  0  0  0  0  0  0  0  0  0  0
    6.9780    4.6200   -0.8800 Cl  0  0  0  0  0  0  0  0  0  0  0  0
    5.1220    2.6290   -0.8400 N   0  0  0  0  0  0  0  0  0  0  0  0
    4.5120    1.5210   -0.3850 C   0  0  0  0  0  0  0  0  0  0  0  0
    3.4000    0.9720   -0.9840 C   0  0  0  0  0  0  0  0  0  0  0  0
    0.5770   -1.3610   -0.5430 C   0  0  0  0  0  0  0  0  0  0  0  0
  2  1  1  1
  2  3  1  0
  2  4  1  0
  4  5  1  6
  4  6  1  0
  6  7  2  0
  6  8  1  0
  9  8  1  1
  9 10  2  0
  9 11  2  0
  9 12  1  0
 12 13  2  0
 12 29  1  0
 13 14  1  0
 14 15  2  0
 15 16  1  0
 16 17  1  0
 16 29  2  0
 17 18  2  0
 17 28  1  0
 18 19  1  0
 19 20  2  0
 20 21  1  0
 20 27  1  0
 21 22  1  0
 21 23  2  0
 23 24  1  0
 24 25  1  0
 24 26  2  0
 26 27  1  0
 27 28  2  0
M  CHG  1   5   1
M  END
