
     RDKit          3D

 13 13  0  0  0  0  0  0  0  0999 V2000
    3.0980   -0.2780   -0.4090 N   0  0  0  0  0  0  0  0  0  0  0  0
    2.3250   -0.7490    0.6840 C   0  0  0  0  0  0  0  0  0  0  0  0
    2.5420   -1.8950    1.1440 O   0  0  0  0  0  0  0  0  0  0  0  0
    1.2830    0.1460    1.2410 C   0  0  2  0  0  0  0  0  0  0  0  0
   -0.0620   -0.5320    1.1630 C   0  0  0  0  0  0  0  0  0  0  0  0
   -0.6940   -0.4170   -0.2000 C   0  0  1  0  0  0  0  0  0  0  0  0
    0.0520   -1.1990   -1.0890 O   0  0  0  0  0  0  0  0  0  0  0  0
   -2.0910   -0.9820   -0.1130 C   0  0  0  0  0  0  0  0  0  0  0  0
   -2.7460   -1.0120   -1.3190 O   0  0  0  0  0  0  0  0  0  0  0  0
   -0.6590    0.9330   -0.6830 N   0  0  0  0  0  0  0  0  0  0  0  0
   -0.0630    1.7900    0.3220 C   0  0  2  0  0  0  0  0  0  0  0  0
   -0.0200    3.0740   -0.1850 O   0  0  0  0  0  0  0  0  0  0  0  0
    1.2150    1.3550    0.5880 O   0  0  0  0  0  0  0  0  0  0  0  0
  1  2  1  0
  2  3  2  0
  4  2  1  6
  4  5  1  0
  4 13  1  0
  5  6  1  0
  6  7  1  6
  6  8  1  0
  6 10  1  0
  8  9  1  0
 10 11  1  0
 11 12  1  6
 11 13  1  0
M  END
