
     RDKit          3D

 22 24  0  0  0  0  0  0  0  0999 V2000
    3.2580    0.2210    3.2360 C   0  0  0  0  0  0  0  0  0  0  0  0
    3.3810    0.0840    1.7540 C   0  0  0  0  0  0  0  0  0  0  0  0
    4.6300    0.2260    1.1840 C   0  0  0  0  0  0  0  0  0  0  0  0
    4.8180    0.1140   -0.1630 C   0  0  0  0  0  0  0  0  0  0  0  0
    6.0490    0.2550   -0.7140 F   0  0  0  0  0  0  0  0  0  0  0  0
    3.7330   -0.1500   -0.9960 C   0  0  0  0  0  0  0  0  0  0  0  0
    3.8960   -0.2800   -2.4710 C   0  0  0  0  0  0  0  0  0  0  0  0
    2.5000   -0.2880   -0.4100 C   0  0  0  0  0  0  0  0  0  0  0  0
    1.3740   -0.5590   -1.2500 N   0  0  0  0  0  0  0  0  0  0  0  0
    0.0400   -0.7160   -0.6900 C   0  0  0  0  0  0  0  0  0  0  0  0
   -0.9480   -0.9900   -1.7720 C   0  0  0  0  0  0  0  0  0  0  0  0
   -2.2720   -1.1570   -1.3150 O   0  0  0  0  0  0  0  0  0  0  0  0
   -2.9260   -0.1410   -0.6380 C   0  0  0  0  0  0  0  0  0  0  0  0
   -2.3950    1.0610   -0.3570 N   0  0  0  0  0  0  0  0  0  0  0  0
   -3.0520    2.0330    0.3020 C   0  0  0  0  0  0  0  0  0  0  0  0
   -4.3470    1.8560    0.7450 C   0  0  0  0  0  0  0  0  0  0  0  0
   -4.9460    0.6270    0.4790 C   0  0  0  0  0  0  0  0  0  0  0  0
   -6.1750    0.1660    0.7790 N   0  0  0  0  0  0  0  0  0  0  0  0
   -6.2220   -1.0830    0.2860 C   0  0  0  0  0  0  0  0  0  0  0  0
   -5.0560   -1.3960   -0.3060 N   0  0  0  0  0  0  0  0  0  0  0  0
   -4.2340   -0.3420   -0.2010 C   0  0  0  0  0  0  0  0  0  0  0  0
    2.2950   -0.1770    0.9510 C   0  0  0  0  0  0  0  0  0  0  0  0
  1  2  1  0
  2  3  2  0
  2 22  1  0
  3  4  1  0
  4  5  1  0
  4  6  2  0
  6  7  1  0
  6  8  1  0
  8  9  1  0
  8 22  2  0
  9 10  1  0
 10 11  1  0
 11 12  1  0
 12 13  1  0
 13 14  2  0
 13 21  1  0
 14 15  1  0
 15 16  2  0
 16 17  1  0
 17 18  1  0
 17 21  2  0
 18 19  1  0
 19 20  2  0
 20 21  1  0
M  END
