
     RDKit          3D

 13 13  0  0  0  0  0  0  0  0999 V2000
    2.4190    0.1880    1.4820 N   0  0  0  0  0  0  0  0  0  0  0  0
    1.3060   -0.6460    1.1430 C   0  0  0  0  0  0  0  0  0  0  0  0
    1.0350   -1.5640    1.9610 O   0  0  0  0  0  0  0  0  0  0  0  0
    0.5110   -0.4490   -0.0980 C   0  0  2  0  0  0  0  0  0  0  0  0
    1.5000   -0.6150   -1.2620 C   0  0  0  0  0  0  0  0  0  0  0  0
    0.8660   -0.4940   -2.4850 O   0  0  0  0  0  0  0  0  0  0  0  0
    0.0420    0.9820   -0.2090 C   0  0  0  0  0  0  0  0  0  0  0  0
   -1.1660    1.1340    0.6780 C   0  0  1  0  0  0  0  0  0  0  0  0
   -1.6230    2.4480    0.5100 O   0  0  0  0  0  0  0  0  0  0  0  0
   -2.1660    0.2310    0.2520 N   0  0  0  0  0  0  0  0  0  0  0  0
   -1.7460   -1.0320   -0.2160 C   0  0  2  0  0  0  0  0  0  0  0  0
   -2.5060   -2.0050    0.4780 O   0  0  0  0  0  0  0  0  0  0  0  0
   -0.4600   -1.3770   -0.1420 O   0  0  0  0  0  0  0  0  0  0  0  0
  1  2  1  0
  2  3  2  0
  2  4  1  0
  4  5  1  6
  4  7  1  0
  4 13  1  0
  5  6  1  0
  7  8  1  0
  8  9  1  6
  8 10  1  0
 10 11  1  0
 11 12  1  1
 11 13  1  0
M  END
