
     RDKit          3D

 22 24  0  0  0  0  0  0  0  0999 V2000
    6.9690    0.3250   -0.5700 C   0  0  0  0  0  0  0  0  0  0  0  0
    6.0570    1.5210   -0.6440 C   0  0  0  0  0  0  0  0  0  0  0  0
    4.7370    1.1170   -0.8400 O   0  0  0  0  0  0  0  0  0  0  0  0
    4.0010    0.3150   -0.0060 C   0  0  0  0  0  0  0  0  0  0  0  0
    2.6960    0.0290   -0.3860 C   0  0  0  0  0  0  0  0  0  0  0  0
    1.8560   -0.7610    0.3600 C   0  0  0  0  0  0  0  0  0  0  0  0
    0.4610   -1.0620   -0.0530 C   0  0  0  0  0  0  0  0  0  0  0  0
   -0.4630   -0.0600    0.4810 N   0  0  0  0  0  0  0  0  0  0  0  0
   -1.8540   -0.1520    0.2100 C   0  0  0  0  0  0  0  0  0  0  0  0
   -2.2570   -1.1340   -0.4990 N   0  0  0  0  0  0  0  0  0  0  0  0
   -3.6140   -1.3980   -0.8790 C   0  0  0  0  0  0  0  0  0  0  0  0
   -4.5650   -0.3970   -0.3630 C   0  0  0  0  0  0  0  0  0  0  0  0
   -5.9040   -0.5770   -0.6850 C   0  0  0  0  0  0  0  0  0  0  0  0
   -6.3120   -1.6420   -1.4490 F   0  0  0  0  0  0  0  0  0  0  0  0
   -6.8400    0.3310   -0.2280 C   0  0  0  0  0  0  0  0  0  0  0  0
   -6.4050    1.3940    0.5390 C   0  0  0  0  0  0  0  0  0  0  0  0
   -5.0890    1.5920    0.8700 C   0  0  0  0  0  0  0  0  0  0  0  0
   -4.1690    0.6730    0.4030 C   0  0  0  0  0  0  0  0  0  0  0  0
   -2.7840    0.8010    0.6970 N   0  0  0  0  0  0  0  0  0  0  0  0
    2.3600   -1.2860    1.5460 C   0  0  0  0  0  0  0  0  0  0  0  0
    3.6520   -0.9880    1.8970 C   0  0  0  0  0  0  0  0  0  0  0  0
    4.4540   -0.2070    1.1400 N   0  0  0  0  0  0  0  0  0  0  0  0
  1  2  1  0
  2  3  1  0
  3  4  1  0
  4  5  2  0
  4 22  1  0
  5  6  1  0
  6  7  1  0
  6 20  2  0
  7  8  1  0
  8  9  1  0
  9 10  2  0
  9 19  1  0
 10 11  1  0
 11 12  1  0
 12 13  2  0
 12 18  1  0
 13 14  1  0
 13 15  1  0
 15 16  2  0
 16 17  1  0
 17 18  2  0
 18 19  1  0
 20 21  1  0
 21 22  2  0
M  END
