
     RDKit          3D

 30 35  0  0  0  0  0  0  0  0999 V2000
   -5.9240   -2.6080   -1.2420 C   0  0  0  0  0  0  0  0  0  0  0  0
   -5.1240   -2.5220    0.0390 C   0  0  0  0  0  0  0  0  0  0  0  0
   -3.9250   -1.6580   -0.1890 C   0  0  0  0  0  0  0  0  0  0  0  0
   -3.9110   -0.5900    0.6180 C   0  0  0  0  0  0  0  0  0  0  0  0
   -2.8620    0.4110    0.6090 C   0  0  0  0  0  0  0  0  0  0  0  0
   -3.3460    1.6370    0.7490 C   0  0  0  0  0  0  0  0  0  0  0  0
   -4.7890    1.9260    0.8770 C   0  0  0  0  0  0  0  0  0  0  0  0
   -5.2790    2.8100   -0.2640 C   0  0  0  0  0  0  0  0  0  0  0  0
   -2.3780    2.7280    0.9340 C   0  0  0  0  0  0  0  0  0  0  0  0
   -1.0790    2.5390    0.9950 C   0  0  0  0  0  0  0  0  0  0  0  0
   -0.5010    1.2070    0.9020 C   0  0  1  0  0  0  0  0  0  0  0  0
   -1.4190    0.2340    0.3020 C   0  0  0  0  0  0  0  0  0  0  0  0
   -0.9340   -0.7910   -0.4310 C   0  0  0  0  0  0  0  0  0  0  0  0
   -1.6230   -1.8920   -1.0360 N   0  0  0  0  0  0  0  0  0  0  0  0
   -3.0310   -2.1360   -1.2350 C   0  0  0  0  0  0  0  0  0  0  0  0
    0.4150   -0.8750   -0.7160 O   0  0  0  0  0  0  0  0  0  0  0  0
    1.3280    0.0660   -0.2820 C   0  0  0  0  0  0  0  0  0  0  0  0
    2.6410   -0.0040   -0.5710 N   0  0  0  0  0  0  0  0  0  0  0  0
    3.5450    0.9070   -0.1720 C   0  0  0  0  0  0  0  0  0  0  0  0
    4.9120    0.7440   -0.5300 N   0  0  0  0  0  0  0  0  0  0  0  0
    5.5350    1.5340   -1.3880 N   0  0  0  0  0  0  0  0  0  0  0  0
    6.8190    1.1490   -1.5380 C   0  0  0  0  0  0  0  0  0  0  0  0
    6.9900    0.0550   -0.7190 C   0  0  0  0  0  0  0  0  0  0  0  0
    5.7900   -0.1860   -0.0970 C   0  0  0  0  0  0  0  0  0  0  0  0
    5.8780   -1.3450    0.8040 C   0  0  0  0  0  0  0  0  0  0  0  0
    7.3320   -1.7320    0.7910 C   0  0  0  0  0  0  0  0  0  0  0  0
    8.0020   -0.9360   -0.2840 C   0  0  0  0  0  0  0  0  0  0  0  0
    3.0940    1.9400    0.5590 N   0  0  0  0  0  0  0  0  0  0  0  0
    1.7840    2.0660    0.8860 C   0  0  0  0  0  0  0  0  0  0  0  0
    0.8870    1.1370    0.4750 C   0  0  0  0  0  0  0  0  0  0  0  0
  1  2  1  0
  2  3  1  0
  3  4  2  0
  3 15  1  0
  4  5  1  0
  5  6  2  0
  5 12  1  0
  6  7  1  0
  6  9  1  0
  7  8  1  0
  9 10  2  0
 11 10  1  6
 11 12  1  0
 11 30  1  0
 12 13  2  0
 13 14  1  0
 13 16  1  0
 14 15  1  0
 16 17  1  0
 17 18  2  0
 17 30  1  0
 18 19  1  0
 19 20  1  0
 19 28  2  0
 20 21  1  0
 20 24  1  0
 21 22  2  0
 22 23  1  0
 23 24  2  0
 23 27  1  0
 24 25  1  0
 25 26  1  0
 26 27  1  0
 28 29  1  0
 29 30  2  0
M  END
