
     RDKit          3D

 31 33  0  0  0  0  0  0  0  0999 V2000
    6.6490    2.3550   -0.7390 C   0  0  0  0  0  0  0  0  0  0  0  0
    5.9840    1.1300   -0.6550 O   0  0  0  0  0  0  0  0  0  0  0  0
    6.4380   -0.0120   -1.2750 C   0  0  0  0  0  0  0  0  0  0  0  0
    7.5120    0.0820   -1.9470 O   0  0  0  0  0  0  0  0  0  0  0  0
    5.7110   -1.3020   -1.1700 C   0  0  0  0  0  0  0  0  0  0  0  0
    4.5630   -1.0960   -0.3600 O   0  0  0  0  0  0  0  0  0  0  0  0
    4.6390   -0.6690    0.9390 C   0  0  0  0  0  0  0  0  0  0  0  0
    5.7730   -0.4520    1.4350 O   0  0  0  0  0  0  0  0  0  0  0  0
    3.4170   -0.4750    1.7160 C   0  0  0  0  0  0  0  0  0  0  0  0
    3.3880    0.1020    3.4140 S   0  0  0  0  0  0  0  0  0  0  0  0
    1.6890    0.0860    3.6080 C   0  0  0  0  0  0  0  0  0  0  0  0
    1.1630   -0.3670    2.3500 C   0  0  0  0  0  0  0  0  0  0  0  0
   -0.3090   -0.4120    2.1590 C   0  0  0  0  0  0  0  0  0  0  0  0
   -0.9850   -0.7100    3.2040 O   0  0  0  0  0  0  0  0  0  0  0  0
   -0.9690   -0.1520    0.9450 N   0  0  0  0  0  0  0  0  0  0  0  0
   -2.3920   -0.2270    0.8450 C   0  0  0  0  0  0  0  0  0  0  0  0
   -2.9290    0.0780   -0.5170 C   0  0  2  0  0  0  0  0  0  0  0  0
   -2.5470    1.4490   -0.9290 C   0  0  0  0  0  0  0  0  0  0  0  0
   -3.0640    2.5320   -0.0750 C   0  0  0  0  0  0  0  0  0  0  0  0
   -3.7900    2.5920    0.9990 C   0  0  0  0  0  0  0  0  0  0  0  0
   -4.8530    1.8440    1.0700 C   0  0  0  0  0  0  0  0  0  0  0  0
   -6.0290    2.2750    2.3160 Cl  0  0  0  0  0  0  0  0  0  0  0  0
   -5.2380    0.6890    0.2660 C   0  0  0  0  0  0  0  0  0  0  0  0
   -4.4330   -0.0870   -0.4280 C   0  0  0  0  0  0  0  0  0  0  0  0
   -4.8510   -1.2010   -1.2160 C   0  0  0  0  0  0  0  0  0  0  0  0
   -6.0230   -1.5020   -1.6890 C   0  0  0  0  0  0  0  0  0  0  0  0
   -7.6490   -0.5700   -1.5190 Br  0  0  0  0  0  0  0  0  0  0  0  0
   -3.6030   -2.0220   -1.4670 C   0  0  0  0  0  0  0  0  0  0  0  0
   -2.5260   -0.9410   -1.5520 C   0  0  0  0  0  0  0  0  0  0  0  0
    2.0880   -0.6400    1.4250 C   0  0  0  0  0  0  0  0  0  0  0  0
    1.7100   -1.2120    0.0440 C   0  0  0  0  0  0  0  0  0  0  0  0
  1  2  1  0
  2  3  1  0
  3  4  2  0
  3  5  1  0
  5  6  1  0
  6  7  1  0
  7  8  2  0
  7  9  1  0
  9 10  1  0
  9 30  2  0
 10 11  1  0
 11 12  2  0
 12 13  1  0
 12 30  1  0
 13 14  2  0
 13 15  1  0
 15 16  1  0
 17 16  1  1
 17 18  1  0
 17 24  1  0
 17 29  1  0
 18 19  1  0
 19 20  2  0
 20 21  2  0
 21 22  1  0
 21 23  1  0
 23 24  2  0
 24 25  1  0
 25 26  2  3
 25 28  1  0
 26 27  1  0
 28 29  1  0
 30 31  1  0
M  END
