
     RDKit          3D

 29 33  0  0  0  0  0  0  0  0999 V2000
   -4.2770    4.5190    1.2310 C   0  0  0  0  0  0  0  0  0  0  0  0
   -3.0320    4.1050    2.0100 C   0  0  0  0  0  0  0  0  0  0  0  0
   -2.1980    3.2440    1.1370 C   0  0  0  0  0  0  0  0  0  0  0  0
   -1.0710    3.5710    0.4870 N   0  0  0  0  0  0  0  0  0  0  0  0
   -0.6220    2.4840   -0.2070 C   0  0  0  0  0  0  0  0  0  0  0  0
    0.4240    2.2700   -0.9840 N   0  0  0  0  0  0  0  0  0  0  0  0
    0.6450    1.0800   -1.5480 C   0  0  0  0  0  0  0  0  0  0  0  0
    2.0760    0.8960   -2.5830 S   0  0  0  0  0  0  0  0  0  0  0  0
    3.5160    0.3830   -1.6740 C   0  0  0  0  0  0  0  0  0  0  0  0
    4.3910    1.3050   -1.1010 C   0  0  0  0  0  0  0  0  0  0  0  0
    5.4870    0.8370   -0.4170 C   0  0  0  0  0  0  0  0  0  0  0  0
    5.7730   -0.4960   -0.2640 C   0  0  0  0  0  0  0  0  0  0  0  0
    4.8880   -1.3950   -0.8430 C   0  0  0  0  0  0  0  0  0  0  0  0
    3.7790   -0.9550   -1.5350 C   0  0  0  0  0  0  0  0  0  0  0  0
    5.3560   -2.7510   -0.5770 C   0  0  0  0  0  0  0  0  0  0  0  0
    4.7910   -3.8150   -0.9580 O   0  0  0  0  0  0  0  0  0  0  0  0
    6.5420   -2.6280    0.1750 N   0  0  0  0  0  0  0  0  0  0  0  0
    6.8670   -1.2410    0.4130 C   0  0  0  0  0  0  0  0  0  0  0  0
   -0.1900    0.0610   -1.3440 N   0  0  0  0  0  0  0  0  0  0  0  0
   -1.2870    0.2000   -0.5600 C   0  0  0  0  0  0  0  0  0  0  0  0
   -2.1920   -0.8850   -0.3770 N   0  0  0  0  0  0  0  0  0  0  0  0
   -3.4920   -1.1220   -0.9200 C   0  0  0  0  0  0  0  0  0  0  0  0
   -4.1770   -2.0740   -0.0170 C   0  0  0  0  0  0  0  0  0  0  0  0
   -3.0510   -2.8390    0.6380 C   0  0  1  0  0  0  0  0  0  0  0  0
   -2.9220   -4.1190   -0.0460 N   0  0  0  0  0  0  0  0  0  0  0  0
   -1.8370   -1.9930    0.4710 C   0  0  0  0  0  0  0  0  0  0  0  0
   -1.5080    1.4180    0.0150 C   0  0  0  0  0  0  0  0  0  0  0  0
   -2.4730    1.9250    0.8540 C   0  0  0  0  0  0  0  0  0  0  0  0
   -3.8380    1.0570    1.4980 Cl  0  0  0  0  0  0  0  0  0  0  0  0
  1  2  1  0
  2  3  1  0
  3  4  1  0
  3 28  2  0
  4  5  1  0
  5  6  2  0
  5 27  1  0
  6  7  1  0
  7  8  1  0
  7 19  2  0
  8  9  1  0
  9 10  2  0
  9 14  1  0
 10 11  1  0
 11 12  2  0
 12 13  1  0
 12 18  1  0
 13 14  2  0
 13 15  1  0
 15 16  2  0
 15 17  1  0
 17 18  1  0
 19 20  1  0
 20 21  1  0
 20 27  2  0
 21 22  1  0
 21 26  1  0
 22 23  1  0
 23 24  1  0
 24 25  1  6
 24 26  1  0
 27 28  1  0
 28 29  1  0
M  CHG  1  25   1
M  END
