
     RDKit          3D

 31 35  0  0  0  0  0  0  0  0999 V2000
   -4.4960    3.1900    1.0580 C   0  0  0  0  0  0  0  0  0  0  0  0
   -3.5990    2.1880    0.3950 C   0  0  0  0  0  0  0  0  0  0  0  0
   -4.1040    1.0180   -0.0190 C   0  0  0  0  0  0  0  0  0  0  0  0
   -5.5270    0.9930    0.3090 C   0  0  0  0  0  0  0  0  0  0  0  0
   -6.2540   -0.0000    0.7700 N   0  0  0  0  0  0  0  0  0  0  0  0
   -5.7400   -1.3220    1.0520 C   0  0  0  0  0  0  0  0  0  0  0  0
   -4.6800   -1.8940    0.4470 C   0  0  0  0  0  0  0  0  0  0  0  0
   -3.8170   -1.3600   -0.6030 C   0  0  0  0  0  0  0  0  0  0  0  0
   -3.5200   -2.1970   -1.5730 C   0  0  0  0  0  0  0  0  0  0  0  0
   -3.9490   -3.5810   -1.7300 C   0  0  0  0  0  0  0  0  0  0  0  0
   -4.7890   -4.0820   -0.7850 F   0  0  0  0  0  0  0  0  0  0  0  0
   -3.2970    0.0030   -0.6990 C   0  0  2  0  0  0  0  0  0  0  0  0
   -1.9240    0.1720   -0.2850 N   0  0  0  0  0  0  0  0  0  0  0  0
   -0.9670   -0.7170   -0.8180 C   0  0  0  0  0  0  0  0  0  0  0  0
    0.3650   -0.3920   -0.2310 C   0  0  0  0  0  0  0  0  0  0  0  0
    1.6030   -0.5900   -0.7210 N   0  0  0  0  0  0  0  0  0  0  0  0
    2.5150   -0.1400    0.1560 C   0  0  0  0  0  0  0  0  0  0  0  0
    3.9420   -0.1850   -0.0280 C   0  0  0  0  0  0  0  0  0  0  0  0
    4.4840   -0.7160   -1.1710 C   0  0  0  0  0  0  0  0  0  0  0  0
    5.8630   -0.7350   -1.2980 C   0  0  0  0  0  0  0  0  0  0  0  0
    6.7060   -0.2380   -0.3180 C   0  0  0  0  0  0  0  0  0  0  0  0
    8.0840   -0.2680   -0.4700 C   0  0  0  0  0  0  0  0  0  0  0  0
    8.8990    0.2320    0.5200 C   0  0  0  0  0  0  0  0  0  0  0  0
    8.2800    0.7520    1.6430 C   0  0  0  0  0  0  0  0  0  0  0  0
    6.9360    0.7710    1.7700 N   0  0  0  0  0  0  0  0  0  0  0  0
    6.1190    0.2870    0.8150 C   0  0  0  0  0  0  0  0  0  0  0  0
    4.7480    0.3200    0.9720 C   0  0  0  0  0  0  0  0  0  0  0  0
    1.8080    0.3360    1.1930 N   0  0  0  0  0  0  0  0  0  0  0  0
    0.5570    0.1740    0.9360 O   0  0  0  0  0  0  0  0  0  0  0  0
   -1.5100    1.5350   -0.6460 C   0  0  0  0  0  0  0  0  0  0  0  0
   -2.1760    2.4960    0.2520 C   0  0  0  0  0  0  0  0  0  0  0  0
  1  2  1  0
  2  3  2  0
  2 31  1  0
  3  4  1  0
  3 12  1  0
  4  5  2  0
  5  6  1  0
  6  7  2  0
  7  8  1  0
  8  9  2  3
  8 12  1  0
  9 10  1  0
 10 11  1  0
 12 13  1  1
 13 14  1  0
 13 30  1  0
 14 15  1  0
 15 16  2  0
 15 29  1  0
 16 17  1  0
 17 18  1  0
 17 28  2  0
 18 19  2  0
 18 27  1  0
 19 20  1  0
 20 21  2  0
 21 22  1  0
 21 26  1  0
 22 23  2  0
 23 24  1  0
 24 25  2  0
 25 26  1  0
 26 27  2  0
 28 29  1  0
 30 31  1  0
M  END
