
     RDKit          3D

 31 34  0  0  0  0  0  0  0  0999 V2000
    7.9490   -0.2590    0.2850 C   0  0  0  0  0  0  0  0  0  0  0  0
    7.1230   -1.0070   -0.7130 C   0  0  0  0  0  0  0  0  0  0  0  0
    5.6720   -1.0110   -0.3900 C   0  0  0  0  0  0  0  0  0  0  0  0
    4.8760   -0.1570   -1.1390 C   0  0  0  0  0  0  0  0  0  0  0  0
    3.5030   -0.0730   -0.9270 C   0  0  0  0  0  0  0  0  0  0  0  0
    2.5390    0.6300   -1.4760 O   0  0  0  0  0  0  0  0  0  0  0  0
    1.3800    0.3600   -0.9290 C   0  0  0  0  0  0  0  0  0  0  0  0
    0.0730    0.9600   -1.2890 C   0  0  0  0  0  0  0  0  0  0  0  0
    0.0510    1.8010   -2.1910 O   0  0  0  0  0  0  0  0  0  0  0  0
   -1.1100    0.5790   -0.6210 N   0  0  0  0  0  0  0  0  0  0  0  0
   -2.4130    1.0650   -0.8610 C   0  0  0  0  0  0  0  0  0  0  0  0
   -2.7140    2.0150   -1.8040 C   0  0  0  0  0  0  0  0  0  0  0  0
   -4.0260    2.4680   -2.0040 C   0  0  0  0  0  0  0  0  0  0  0  0
   -4.3540    3.7930   -3.3370 Br  0  0  0  0  0  0  0  0  0  0  0  0
   -5.0570    1.9740   -1.2610 C   0  0  0  0  0  0  0  0  0  0  0  0
   -6.4200    2.4680   -1.4950 C   0  0  0  0  0  0  0  0  0  0  0  0
   -7.2100    1.9550   -2.3070 O   0  0  0  0  0  0  0  0  0  0  0  0
   -4.7800    1.0170   -0.3060 C   0  0  0  0  0  0  0  0  0  0  0  0
   -5.8410    0.5520    0.4110 C   0  0  0  0  0  0  0  0  0  0  0  0
   -5.6060   -0.4030    1.3720 C   0  0  0  0  0  0  0  0  0  0  0  0
   -4.3500   -0.8920    1.6220 C   0  0  0  0  0  0  0  0  0  0  0  0
   -4.0080   -2.0900    2.8160 S   0  0  1  0  0  0  0  0  0  0  0  0
   -5.0500   -2.1060    3.8910 O   0  0  0  0  0  0  0  0  0  0  0  0
   -3.9210   -3.4630    2.2000 O   0  0  0  0  0  0  0  0  0  0  0  0
   -3.2880   -0.3850    0.8600 C   0  0  0  0  0  0  0  0  0  0  0  0
   -3.4660    0.5690   -0.1110 C   0  0  0  0  0  0  0  0  0  0  0  0
    1.6170   -0.5850    0.0430 C   0  0  0  0  0  0  0  0  0  0  0  0
    2.9690   -0.8800    0.0640 C   0  0  0  0  0  0  0  0  0  0  0  0
    3.7720   -1.7260    0.8030 C   0  0  0  0  0  0  0  0  0  0  0  0
    5.1330   -1.8110    0.5950 C   0  0  0  0  0  0  0  0  0  0  0  0
    6.1740   -2.8760    1.5180 Cl  0  0  0  0  0  0  0  0  0  0  0  0
  1  2  1  0
  2  3  1  0
  3  4  2  0
  3 30  1  0
  4  5  1  0
  5  6  1  0
  5 28  2  0
  6  7  1  0
  7  8  1  0
  7 27  2  0
  8  9  2  0
  8 10  1  0
 10 11  1  0
 11 12  2  0
 11 26  1  0
 12 13  1  0
 13 14  1  0
 13 15  2  0
 15 16  1  0
 15 18  1  0
 16 17  2  0
 18 19  2  0
 18 26  1  0
 19 20  1  0
 20 21  2  0
 22 21  1  6
 21 25  1  0
 22 23  2  0
 22 24  2  0
 25 26  2  0
 27 28  1  0
 28 29  1  0
 29 30  2  0
 30 31  1  0
M  END
