
     RDKit          3D

 31 34  0  0  0  0  0  0  0  0999 V2000
    1.3390    0.8600   -3.9500 C   0  0  0  0  0  0  0  0  0  0  0  0
    0.3890    1.3100   -2.9060 C   0  0  0  0  0  0  0  0  0  0  0  0
   -0.8600    1.8170   -3.2430 C   0  0  0  0  0  0  0  0  0  0  0  0
   -1.7370    2.2330   -2.2640 C   0  0  0  0  0  0  0  0  0  0  0  0
   -1.3360    2.1300   -0.9530 C   0  0  0  0  0  0  0  0  0  0  0  0
   -0.0780    1.6190   -0.6150 C   0  0  0  0  0  0  0  0  0  0  0  0
    0.8020    1.2020   -1.5930 C   0  0  0  0  0  0  0  0  0  0  0  0
    2.1220    0.6640   -1.2740 C   0  0  0  0  0  0  0  0  0  0  0  0
    3.1360    0.9000   -1.9900 O   0  0  0  0  0  0  0  0  0  0  0  0
    2.3350   -0.1580   -0.1320 N   0  0  0  0  0  0  0  0  0  0  0  0
    3.5940   -0.7170    0.2400 C   0  0  1  0  0  0  0  0  0  0  0  0
    4.0610   -0.3560    1.6060 C   0  0  0  0  0  0  0  0  0  0  0  0
    5.4090   -1.0360    1.8290 C   0  0  0  0  0  0  0  0  0  0  0  0
    5.2830   -2.5370    1.7460 C   0  0  0  0  0  0  0  0  0  0  0  0
    4.8160   -2.9000    0.3660 C   0  0  0  0  0  0  0  0  0  0  0  0
    3.4780   -2.2290    0.1370 C   0  0  0  0  0  0  0  0  0  0  0  0
   -2.4580    2.6370   -0.1330 C   0  0  2  0  0  0  0  0  0  0  0  0
   -3.3290    1.5030    0.1600 N   0  0  0  0  0  0  0  0  0  0  0  0
   -3.7040    1.1380    1.4500 C   0  0  0  0  0  0  0  0  0  0  0  0
   -3.2320    1.8700    2.3950 O   0  0  0  0  0  0  0  0  0  0  0  0
   -4.5730    0.0100    1.7780 C   0  0  0  0  0  0  0  0  0  0  0  0
   -4.9250   -0.3270    3.0270 O   0  0  0  0  0  0  0  0  0  0  0  0
   -5.7020   -1.3650    3.0380 C   0  0  0  0  0  0  0  0  0  0  0  0
   -6.2950   -2.0330    4.2100 C   0  0  0  0  0  0  0  0  0  0  0  0
   -7.0330   -3.0350    4.0700 O   0  0  0  0  0  0  0  0  0  0  0  0
   -5.9660   -1.4030    5.9790 Br  0  0  0  0  0  0  0  0  0  0  0  0
   -5.9180   -1.7920    1.7510 C   0  0  0  0  0  0  0  0  0  0  0  0
   -5.1830   -0.8940    0.9580 C   0  0  0  0  0  0  0  0  0  0  0  0
   -5.0890   -0.9560   -0.7900 Cl  0  0  0  0  0  0  0  0  0  0  0  0
   -3.1920    3.5380   -1.0980 C   0  0  0  0  0  0  0  0  0  0  0  0
   -3.0370    2.7770   -2.3090 O   0  0  0  0  0  0  0  0  0  0  0  0
  1  2  1  0
  2  3  2  0
  2  7  1  0
  3  4  1  0
  4  5  2  0
  4 31  1  0
  5  6  1  0
  5 17  1  0
  6  7  2  0
  7  8  1  0
  8  9  2  0
  8 10  1  0
 11 10  1  1
 11 12  1  0
 11 16  1  0
 12 13  1  0
 13 14  1  0
 14 15  1  0
 15 16  1  0
 17 18  1  6
 17 30  1  0
 18 19  1  0
 19 20  2  0
 19 21  1  0
 21 22  1  0
 21 28  2  0
 22 23  1  0
 23 24  1  0
 23 27  2  0
 24 25  2  0
 24 26  1  0
 27 28  1  0
 28 29  1  0
 30 31  1  0
M  END
