
     RDKit          3D

 31 35  0  0  0  0  0  0  0  0999 V2000
   -6.9220    0.1410   -3.3220 C   0  0  0  0  0  0  0  0  0  0  0  0
   -6.2610    0.5060   -2.2160 C   0  0  0  0  0  0  0  0  0  0  0  0
   -4.9000    0.0280   -2.0050 C   0  0  0  0  0  0  0  0  0  0  0  0
   -4.2330    0.3770   -0.9220 C   0  0  0  0  0  0  0  0  0  0  0  0
   -2.8640    0.0410   -0.4660 C   0  0  0  0  0  0  0  0  0  0  0  0
   -2.0130   -0.7260   -1.1220 C   0  0  0  0  0  0  0  0  0  0  0  0
   -2.6650    0.6940    0.7800 N   0  0  0  0  0  0  0  0  0  0  0  0
   -1.4640    0.6580    1.6140 C   0  0  0  0  0  0  0  0  0  0  0  0
   -1.6300   -0.5240    2.5550 C   0  0  0  0  0  0  0  0  0  0  0  0
   -0.4090   -0.5870    3.4270 C   0  0  0  0  0  0  0  0  0  0  0  0
    0.7830   -0.7700    2.5210 C   0  0  0  0  0  0  0  0  0  0  0  0
    1.3110   -1.9290    2.1110 N   0  0  0  0  0  0  0  0  0  0  0  0
    2.3830   -1.6630    1.3000 C   0  0  0  0  0  0  0  0  0  0  0  0
    2.4960   -0.3420    1.2210 N   0  0  0  0  0  0  0  0  0  0  0  0
    1.5240    0.1990    1.9660 N   0  0  0  0  0  0  0  0  0  0  0  0
    3.5030    0.2460    0.4000 C   0  0  0  0  0  0  0  0  0  0  0  0
    3.4810    1.5460    0.4650 C   0  0  0  0  0  0  0  0  0  0  0  0
    2.5510    2.1050    1.2600 F   0  0  0  0  0  0  0  0  0  0  0  0
    4.4020    2.4690   -0.2370 C   0  0  0  0  0  0  0  0  0  0  0  0
    5.5810    2.1840   -0.8210 C   0  0  0  0  0  0  0  0  0  0  0  0
    6.2220    0.8930   -0.8940 N   0  0  0  0  0  0  0  0  0  0  0  0
    5.5700   -0.3940   -0.9340 C   0  0  0  0  0  0  0  0  0  0  0  0
    6.3070   -1.4140   -1.6530 C   0  0  0  0  0  0  0  0  0  0  0  0
    4.4170   -0.6250   -0.3730 C   0  0  0  0  0  0  0  0  0  0  0  0
    3.9780   -2.0110   -0.6230 C   0  0  0  0  0  0  0  0  0  0  0  0
    3.3420   -2.5570    0.6180 C   0  0  0  0  0  0  0  0  0  0  0  0
   -3.8550    1.4250    1.1220 C   0  0  0  0  0  0  0  0  0  0  0  0
   -4.0640    2.1280    2.1510 O   0  0  0  0  0  0  0  0  0  0  0  0
   -4.8510    1.2410    0.0710 C   0  0  0  0  0  0  0  0  0  0  0  0
   -6.0800    1.7050   -0.0630 C   0  0  0  0  0  0  0  0  0  0  0  0
   -6.9160    1.3880   -1.2200 C   0  0  0  0  0  0  0  0  0  0  0  0
  1  2  2  0
  2  3  1  0
  2 31  1  0
  3  4  2  0
  4  5  1  0
  4 29  1  0
  5  6  2  0
  5  7  1  0
  7  8  1  0
  7 27  1  0
  8  9  1  0
  9 10  1  0
 10 11  1  0
 11 12  1  0
 11 15  2  0
 12 13  2  0
 13 14  1  0
 13 26  1  0
 14 15  1  0
 14 16  1  0
 16 17  2  0
 16 24  1  0
 17 18  1  0
 17 19  1  0
 19 20  2  0
 20 21  1  0
 21 22  1  0
 22 23  1  0
 22 24  2  0
 24 25  1  0
 25 26  1  0
 27 28  2  0
 27 29  1  0
 29 30  2  0
 30 31  1  0
M  END
