
     RDKit          3D

 30 32  0  0  0  0  0  0  0  0999 V2000
   -8.0370    2.5510   -0.8820 C   0  0  0  0  0  0  0  0  0  0  0  0
   -8.0360    1.8400    0.4290 C   0  0  0  0  0  0  0  0  0  0  0  0
   -7.0870    0.7960    0.5100 O   0  0  0  0  0  0  0  0  0  0  0  0
   -5.7290    0.9790    0.3630 C   0  0  0  0  0  0  0  0  0  0  0  0
   -5.3150    2.1370    0.1460 O   0  0  0  0  0  0  0  0  0  0  0  0
   -4.7340   -0.1300    0.4510 C   0  0  1  0  0  0  0  0  0  0  0  0
   -3.6450    0.1370    1.4390 C   0  0  0  0  0  0  0  0  0  0  0  0
   -2.5080   -0.7420    0.9590 N   0  0  0  0  0  0  0  0  0  0  0  0
   -1.2160   -0.2900    1.0490 C   0  0  0  0  0  0  0  0  0  0  0  0
   -1.0570    0.8740    1.5990 O   0  0  0  0  0  0  0  0  0  0  0  0
   -0.0350   -0.9230    0.6240 N   0  0  0  0  0  0  0  0  0  0  0  0
    0.0630   -2.1610   -0.0780 C   0  0  0  0  0  0  0  0  0  0  0  0
    1.2460   -2.3810   -0.9450 C   0  0  0  0  0  0  0  0  0  0  0  0
    2.4880   -1.5990   -0.6280 C   0  0  0  0  0  0  0  0  0  0  0  0
    2.0600   -0.1850   -0.2990 C   0  0  2  0  0  0  0  0  0  0  0  0
    3.1770    0.7340   -0.1610 N   0  0  0  0  0  0  0  0  0  0  0  0
    3.3180    1.7720   -1.0910 C   0  0  0  0  0  0  0  0  0  0  0  0
    2.4510    1.8460   -2.0430 O   0  0  0  0  0  0  0  0  0  0  0  0
    4.3450    2.8180   -1.1240 C   0  0  0  0  0  0  0  0  0  0  0  0
    5.5890    2.7610    0.1320 S   0  0  0  0  0  0  0  0  0  0  0  0
    6.7700    1.4300   -0.2080 C   0  0  0  0  0  0  0  0  0  0  0  0
    7.7620    1.2120    0.6000 C   0  0  0  0  0  0  0  0  0  0  0  0
    8.6980    0.1100    0.2650 C   0  0  0  0  0  0  0  0  0  0  0  0
    8.4820    0.1860   -1.5830 S   0  0  0  0  0  0  0  0  0  0  0  0
    6.6610    0.5650   -1.4050 C   0  0  1  0  0  0  0  0  0  0  0  0
    5.9000   -1.0030   -1.0240 Cl  0  0  0  0  0  0  0  0  0  0  0  0
    1.2670   -0.2820    0.9750 C   0  0  0  0  0  0  0  0  0  0  0  0
   -2.9940   -1.9990    0.4890 C   0  0  0  0  0  0  0  0  0  0  0  0
   -4.3960   -2.2740    1.0750 C   0  0  0  0  0  0  0  0  0  0  0  0
   -5.3250   -1.3360    0.6990 O   0  0  0  0  0  0  0  0  0  0  0  0
  1  2  1  0
  2  3  1  0
  3  4  1  0
  4  5  2  0
  6  4  1  1
  6  7  1  0
  6 30  1  0
  7  8  1  0
  8  9  1  0
  8 28  1  0
  9 10  2  0
  9 11  1  0
 11 12  1  0
 11 27  1  0
 12 13  1  0
 13 14  1  0
 14 15  1  0
 15 16  1  1
 15 27  1  0
 16 17  1  0
 17 18  2  0
 17 19  1  0
 19 20  1  0
 20 21  1  0
 21 22  2  0
 21 25  1  0
 22 23  1  0
 23 24  1  0
 24 25  1  0
 25 26  1  1
 28 29  1  0
 29 30  1  0
M  END
