
     RDKit          3D

 30 32  0  0  0  0  0  0  0  0999 V2000
    2.5040   -2.5300   -3.3100 C   0  0  0  0  0  0  0  0  0  0  0  0
    2.2780   -1.1580   -2.8550 N   0  0  0  0  0  0  0  0  0  0  0  0
    3.3220   -0.3000   -2.5010 C   0  0  0  0  0  0  0  0  0  0  0  0
    4.5060   -0.7760   -2.6040 O   0  0  0  0  0  0  0  0  0  0  0  0
    3.1920    1.1030   -2.0260 C   0  0  1  0  0  0  0  0  0  0  0  0
    2.9860    2.0080   -3.2330 C   0  0  0  0  0  0  0  0  0  0  0  0
    2.3480    3.2260   -2.6410 C   0  0  0  0  0  0  0  0  0  0  0  0
    1.7470    2.7630   -1.3460 C   0  0  0  0  0  0  0  0  0  0  0  0
    1.9690    1.3350   -1.2380 N   0  0  0  0  0  0  0  0  0  0  0  0
    1.2780    0.3110   -0.5730 C   0  0  0  0  0  0  0  0  0  0  0  0
    2.0930   -0.7350   -0.3020 O   0  0  0  0  0  0  0  0  0  0  0  0
   -0.0700    0.1370   -0.0960 C   0  0  0  0  0  0  0  0  0  0  0  0
   -0.1060   -0.7710    0.9330 C   0  0  0  0  0  0  0  0  0  0  0  0
    0.9980   -1.5110    1.5740 C   0  0  0  0  0  0  0  0  0  0  0  0
    0.4890   -2.0060    2.9370 C   0  0  0  0  0  0  0  0  0  0  0  0
   -0.7200   -2.8480    2.5880 C   0  0  1  0  0  0  0  0  0  0  0  0
   -1.6620   -3.2950    3.9960 S   0  0  2  0  0  0  0  0  0  0  0  0
   -0.7050   -4.3620    5.0150 C   0  0  0  0  0  0  0  0  0  0  0  0
   -2.8740   -4.0500    3.5320 O   0  0  0  0  0  0  0  0  0  0  0  0
   -2.1090   -2.0670    4.7280 O   0  0  0  0  0  0  0  0  0  0  0  0
   -1.5970   -1.5790    1.5850 S   0  0  0  0  0  0  0  0  0  0  0  0
   -1.2760    0.8610   -0.3370 C   0  0  0  0  0  0  0  0  0  0  0  0
   -1.6090    1.5120   -1.4460 C   0  0  0  0  0  0  0  0  0  0  0  0
   -0.5110    1.4830   -2.8070 Cl  0  0  0  0  0  0  0  0  0  0  0  0
   -2.8870    2.2720   -1.6390 C   0  0  0  0  0  0  0  0  0  0  0  0
   -3.2910    3.0190   -0.4010 C   0  0  0  0  0  0  0  0  0  0  0  0
   -3.3690    1.9760    0.6340 N   0  0  0  0  0  0  0  0  0  0  0  0
   -4.5510    1.8600    1.4310 C   0  0  0  0  0  0  0  0  0  0  0  0
   -2.2160    1.1130    0.7800 C   0  0  0  0  0  0  0  0  0  0  0  0
   -2.1040    0.6330    1.9200 O   0  0  0  0  0  0  0  0  0  0  0  0
  1  2  1  0
  2  3  1  0
  3  4  2  0
  5  3  1  6
  5  6  1  0
  5  9  1  0
  6  7  1  0
  7  8  1  0
  8  9  1  0
  9 10  1  0
 10 11  2  0
 10 12  1  0
 12 13  2  3
 12 22  1  0
 13 14  1  0
 13 21  1  0
 14 15  1  0
 16 15  1  1
 16 17  1  0
 16 21  1  0
 17 18  1  1
 17 19  2  0
 17 20  2  0
 22 23  2  0
 22 29  1  0
 23 24  1  0
 23 25  1  0
 25 26  1  0
 26 27  1  0
 27 28  1  0
 27 29  1  0
 29 30  2  0
M  END
