
     RDKit          3D

 30 34  0  0  0  0  0  0  0  0999 V2000
   -2.4790    4.5480   -0.9470 C   0  0  0  0  0  0  0  0  0  0  0  0
   -2.0100    4.1320    0.4290 C   0  0  0  0  0  0  0  0  0  0  0  0
   -1.4290    2.7730    0.3740 C   0  0  0  0  0  0  0  0  0  0  0  0
   -0.1360    2.4230    0.3980 N   0  0  0  0  0  0  0  0  0  0  0  0
   -0.0290    1.0880    0.3280 C   0  0  0  0  0  0  0  0  0  0  0  0
    1.0290    0.2550    0.3310 N   0  0  0  0  0  0  0  0  0  0  0  0
    0.9330   -1.0730    0.2670 C   0  0  0  0  0  0  0  0  0  0  0  0
    2.3280   -2.1880    0.2740 S   0  0  0  0  0  0  0  0  0  0  0  0
    3.8120   -1.2420    0.3790 C   0  0  0  0  0  0  0  0  0  0  0  0
    4.3040   -0.9510    1.6450 C   0  0  0  0  0  0  0  0  0  0  0  0
    5.4240   -0.2370    1.7330 N   0  0  0  0  0  0  0  0  0  0  0  0
    6.1050    0.2170    0.6640 C   0  0  0  0  0  0  0  0  0  0  0  0
    7.2360    0.9370    0.8090 N   0  0  0  0  0  0  0  0  0  0  0  0
    7.9390    1.4040   -0.2320 C   0  0  0  0  0  0  0  0  0  0  0  0
    7.4870    1.1380   -1.5080 C   0  0  0  0  0  0  0  0  0  0  0  0
    8.0830    1.5370   -2.5450 O   0  0  0  0  0  0  0  0  0  0  0  0
    6.3530    0.4170   -1.6610 N   0  0  0  0  0  0  0  0  0  0  0  0
    5.6410   -0.0560   -0.6130 C   0  0  0  0  0  0  0  0  0  0  0  0
    4.4930   -0.7870   -0.7430 C   0  0  0  0  0  0  0  0  0  0  0  0
   -0.3020   -1.5930    0.1950 N   0  0  0  0  0  0  0  0  0  0  0  0
   -1.4210   -0.8090    0.1870 C   0  0  0  0  0  0  0  0  0  0  0  0
   -2.6530   -1.4780    0.0560 N   0  0  0  0  0  0  0  0  0  0  0  0
   -3.3800   -1.6490   -1.1800 C   0  0  0  0  0  0  0  0  0  0  0  0
   -4.2910   -2.8560   -0.8780 C   0  0  0  0  0  0  0  0  0  0  0  0
   -4.6920   -2.4990    0.5370 C   0  0  1  0  0  0  0  0  0  0  0  0
   -5.2880   -3.6270    1.2260 N   0  0  0  0  0  0  0  0  0  0  0  0
   -3.3690   -2.1010    1.1500 C   0  0  0  0  0  0  0  0  0  0  0  0
   -1.2860    0.5400    0.2550 C   0  0  0  0  0  0  0  0  0  0  0  0
   -2.1690    1.5870    0.2850 C   0  0  0  0  0  0  0  0  0  0  0  0
   -3.9210    1.4640    0.2500 Cl  0  0  0  0  0  0  0  0  0  0  0  0
  1  2  1  0
  2  3  1  0
  3  4  1  0
  3 29  2  0
  4  5  1  0
  5  6  2  0
  5 28  1  0
  6  7  1  0
  7  8  1  0
  7 20  2  0
  8  9  1  0
  9 10  2  0
  9 19  1  0
 10 11  1  0
 11 12  2  0
 12 13  1  0
 12 18  1  0
 13 14  2  0
 14 15  1  0
 15 16  2  0
 15 17  1  0
 17 18  1  0
 18 19  2  0
 20 21  1  0
 21 22  1  0
 21 28  2  0
 22 23  1  0
 22 27  1  0
 23 24  1  0
 24 25  1  0
 25 26  1  1
 25 27  1  0
 28 29  1  0
 29 30  1  0
M  CHG  1  26   1
M  END
