
     RDKit          3D

 30 32  0  0  0  0  0  0  0  0999 V2000
   -4.6120   -3.1910   -2.4660 C   0  0  0  0  0  0  0  0  0  0  0  0
   -4.1190   -1.8150   -2.2920 C   0  0  0  0  0  0  0  0  0  0  0  0
   -3.7930   -1.1400   -1.2690 C   0  0  0  0  0  0  0  0  0  0  0  0
   -3.7440   -1.3430    0.1430 C   0  0  0  0  0  0  0  0  0  0  0  0
   -4.6440   -2.0020    0.8420 C   0  0  0  0  0  0  0  0  0  0  0  0
   -6.1090   -2.7680    0.2030 S   0  0  0  0  0  0  0  0  0  0  0  0
   -2.6170   -0.6100    0.7630 C   0  0  0  0  0  0  0  0  0  0  0  0
   -2.3820   -0.6600    1.9930 O   0  0  0  0  0  0  0  0  0  0  0  0
   -1.8630    0.1220   -0.1530 N   0  0  0  0  0  0  0  0  0  0  0  0
   -0.4800    0.5170   -0.1610 C   0  0  2  0  0  0  0  0  0  0  0  0
    0.3320   -0.7380    0.0550 C   0  0  0  0  0  0  0  0  0  0  0  0
    1.7770   -0.5820    0.0820 C   0  0  0  0  0  0  0  0  0  0  0  0
    2.3710    0.5120   -0.0710 O   0  0  0  0  0  0  0  0  0  0  0  0
    2.6690   -1.6970    0.2910 N   0  0  0  0  0  0  0  0  0  0  0  0
    4.0780   -1.5370    0.3150 C   0  0  0  0  0  0  0  0  0  0  0  0
    4.8350   -1.8440    1.3570 C   0  0  0  0  0  0  0  0  0  0  0  0
    6.2630   -1.5650    1.0790 C   0  0  0  0  0  0  0  0  0  0  0  0
    6.2270   -1.0420   -0.3020 C   0  0  0  0  0  0  0  0  0  0  0  0
    4.9710   -1.0340   -0.7170 C   0  0  0  0  0  0  0  0  0  0  0  0
    4.4580   -0.4970   -2.2830 Cl  0  0  0  0  0  0  0  0  0  0  0  0
   -0.2600    1.4400    1.0170 C   0  0  0  0  0  0  0  0  0  0  0  0
   -0.6330    1.1580    2.1800 O   0  0  0  0  0  0  0  0  0  0  0  0
    0.3900    2.6830    0.8170 N   0  0  0  0  0  0  0  0  0  0  0  0
    0.8630    3.2380   -0.3860 C   0  0  0  0  0  0  0  0  0  0  0  0
    1.1160    4.5200   -0.2660 C   0  0  0  0  0  0  0  0  0  0  0  0
    0.8060    4.9210    1.1130 C   0  0  0  0  0  0  0  0  0  0  0  0
    0.6900    3.6410    1.8720 C   0  0  0  0  0  0  0  0  0  0  0  0
   -3.0150    0.4850   -1.4360 S   0  0  1  0  0  0  0  0  0  0  0  0
   -2.3770    0.6250   -2.7500 O   0  0  0  0  0  0  0  0  0  0  0  0
   -3.9340    1.5640   -1.0820 O   0  0  0  0  0  0  0  0  0  0  0  0
  1  2  1  0
  2  3  2  3
  3  4  1  0
  3 28  1  0
  4  5  2  3
  4  7  1  0
  5  6  1  0
  7  8  2  0
  7  9  1  0
  9 10  1  0
 28  9  1  1
 10 11  1  1
 10 21  1  0
 11 12  1  0
 12 13  2  0
 12 14  1  0
 14 15  1  0
 15 16  2  0
 15 19  1  0
 16 17  1  0
 17 18  1  0
 18 19  2  0
 19 20  1  0
 21 22  2  0
 21 23  1  0
 23 24  1  0
 23 27  1  0
 24 25  2  0
 25 26  1  0
 26 27  1  0
 28 29  2  0
 28 30  2  0
M  END
