
     RDKit          3D

 30 33  0  0  0  0  0  0  0  0999 V2000
    4.4820   -4.2260   -0.3470 O   0  0  0  0  0  0  0  0  0  0  0  0
    5.2630   -3.3580    0.1130 C   0  0  0  0  0  0  0  0  0  0  0  0
    5.2080   -1.9880   -0.2570 N   0  0  0  0  0  0  0  0  0  0  0  0
    4.1740   -1.6090   -1.2260 C   0  0  0  0  0  0  0  0  0  0  0  0
    4.0960   -0.0790   -1.1130 C   0  0  0  0  0  0  0  0  0  0  0  0
    4.0940    0.2030    0.2840 N   0  0  0  0  0  0  0  0  0  0  0  0
    3.0410    0.4390    1.1140 C   0  0  0  0  0  0  0  0  0  0  0  0
    3.2860    0.7260    2.3680 O   0  0  0  0  0  0  0  0  0  0  0  0
    1.5860    0.4320    0.8500 C   0  0  0  0  0  0  0  0  0  0  0  0
    0.8530    0.1520   -0.2030 C   0  0  0  0  0  0  0  0  0  0  0  0
   -0.5150    0.2620   -0.1580 C   0  0  0  0  0  0  0  0  0  0  0  0
   -1.3330   -0.1490   -1.4000 C   0  0  0  0  0  0  0  0  0  0  0  0
   -0.9260   -0.0490   -2.6640 C   0  0  0  0  0  0  0  0  0  0  0  0
   -1.7460   -0.4160   -3.6720 C   0  0  0  0  0  0  0  0  0  0  0  0
   -2.9960   -0.8870   -3.3130 C   0  0  0  0  0  0  0  0  0  0  0  0
   -4.3580   -1.4620   -4.2620 Cl  0  0  0  0  0  0  0  0  0  0  0  0
   -2.9130   -0.7690   -1.4980 S   0  0  0  0  0  0  0  0  0  0  0  0
   -1.1020    0.6580    0.9440 C   0  0  0  0  0  0  0  0  0  0  0  0
   -2.3900    0.9460    1.5370 C   0  0  0  0  0  0  0  0  0  0  0  0
   -2.4830    1.0900    2.8230 O   0  0  0  0  0  0  0  0  0  0  0  0
   -3.6050    1.1120    0.8790 N   0  0  0  0  0  0  0  0  0  0  0  0
   -4.8270    1.3750    1.6220 C   0  0  2  0  0  0  0  0  0  0  0  0
   -5.9040    0.3760    1.3630 C   0  0  0  0  0  0  0  0  0  0  0  0
   -7.1500    1.1600    1.7200 C   0  0  0  0  0  0  0  0  0  0  0  0
   -6.7950    2.5300    1.6760 O   0  0  0  0  0  0  0  0  0  0  0  0
   -5.4650    2.6510    1.2270 C   0  0  0  0  0  0  0  0  0  0  0  0
   -5.0350    3.6530    0.6410 O   0  0  0  0  0  0  0  0  0  0  0  0
    0.3830    0.8990    2.0640 S   0  0  0  0  0  0  0  0  0  0  0  0
    5.4560    0.1760    0.9000 C   0  0  0  0  0  0  0  0  0  0  0  0
    6.1460   -1.0490    0.3200 C   0  0  0  0  0  0  0  0  0  0  0  0
  1  2  2  0
  2  3  1  0
  3  4  1  0
  3 30  1  0
  4  5  1  0
  5  6  1  0
  6  7  1  0
  6 29  1  0
  7  8  2  0
  7  9  1  0
  9 10  2  0
  9 28  1  0
 10 11  1  0
 11 12  1  0
 11 18  2  0
 12 13  2  0
 12 17  1  0
 13 14  1  0
 14 15  2  0
 15 16  1  0
 15 17  1  0
 18 19  1  0
 18 28  1  0
 19 20  2  0
 19 21  1  0
 22 21  1  6
 22 23  1  0
 22 26  1  0
 23 24  1  0
 24 25  1  0
 25 26  1  0
 26 27  2  0
 29 30  1  0
M  END
