
     RDKit          3D

 30 32  0  0  0  0  0  0  0  0999 V2000
   -5.5360    1.2040    0.0590 C   0  0  0  0  0  0  0  0  0  0  0  0
   -5.1560    0.2710   -1.0400 C   0  0  2  0  0  0  0  0  0  0  0  0
   -5.3540   -1.1880   -0.7220 C   0  0  0  0  0  0  0  0  0  0  0  0
   -6.7800   -1.5650   -0.4270 C   0  0  0  0  0  0  0  0  0  0  0  0
   -7.3940   -0.6780    0.9940 S   0  0  0  0  0  0  0  0  0  0  0  0
   -3.8850    0.5750   -1.7140 C   0  0  0  0  0  0  0  0  0  0  0  0
   -3.8970    0.7990   -2.9850 O   0  0  0  0  0  0  0  0  0  0  0  0
   -2.6090    0.6560   -1.1230 N   0  0  0  0  0  0  0  0  0  0  0  0
   -2.4300    0.4320    0.2870 C   0  0  0  0  0  0  0  0  0  0  0  0
   -1.0060    0.7340    0.7180 C   0  0  0  0  0  0  0  0  0  0  0  0
    0.0470    0.1730   -0.1660 C   0  0  2  0  0  0  0  0  0  0  0  0
   -0.3010    0.0390   -1.6080 C   0  0  0  0  0  0  0  0  0  0  0  0
   -1.4300    0.9710   -1.9420 C   0  0  0  0  0  0  0  0  0  0  0  0
    0.4670   -1.0780    0.3990 O   0  0  0  0  0  0  0  0  0  0  0  0
    1.2730   -0.8080    1.4930 C   0  0  0  0  0  0  0  0  0  0  0  0
    1.5090   -1.5230    2.5070 O   0  0  0  0  0  0  0  0  0  0  0  0
    1.8310    0.5030    1.2660 N   0  0  0  0  0  0  0  0  0  0  0  0
    2.7450    1.2260    2.1350 C   0  0  0  0  0  0  0  0  0  0  0  0
    4.1440    0.8930    1.7530 C   0  0  0  0  0  0  0  0  0  0  0  0
    5.1210    1.3960    2.3640 O   0  0  0  0  0  0  0  0  0  0  0  0
    4.3910   -0.0020    0.6850 N   0  0  0  0  0  0  0  0  0  0  0  0
    5.7430   -0.3600    0.2710 C   0  0  0  0  0  0  0  0  0  0  0  0
    6.0660   -1.6260    0.3310 C   0  0  0  0  0  0  0  0  0  0  0  0
    7.3340   -2.2860   -0.0130 C   0  0  0  0  0  0  0  0  0  0  0  0
    8.5360   -1.0820   -0.5850 S   0  0  0  0  0  0  0  0  0  0  0  0
    7.8090    0.5310   -0.5540 C   0  0  0  0  0  0  0  0  0  0  0  0
    6.5780    0.7330   -0.1610 C   0  0  0  0  0  0  0  0  0  0  0  0
    5.9540    2.4040   -0.1710 Cl  0  0  0  0  0  0  0  0  0  0  0  0
    1.3200    0.9640    0.0210 C   0  0  0  0  0  0  0  0  0  0  0  0
    1.8260    1.8300   -0.7340 O   0  0  0  0  0  0  0  0  0  0  0  0
  2  1  1  1
  2  3  1  0
  2  6  1  0
  3  4  1  0
  4  5  1  0
  6  7  2  0
  6  8  1  0
  8  9  1  0
  8 13  1  0
  9 10  1  0
 11 10  1  1
 11 12  1  0
 11 14  1  0
 11 29  1  0
 12 13  1  0
 14 15  1  0
 15 16  2  0
 15 17  1  0
 17 18  1  0
 17 29  1  0
 18 19  1  0
 19 20  2  0
 19 21  1  0
 21 22  1  0
 22 23  2  0
 22 27  1  0
 23 24  1  0
 24 25  1  0
 25 26  1  0
 26 27  2  0
 27 28  1  0
 29 30  2  0
M  END
