
     RDKit          3D

 30 33  0  0  0  0  0  0  0  0999 V2000
    0.7790    0.7560   -1.1480 O   0  0  0  0  0  0  0  0  0  0  0  0
    1.2160   -0.1120   -0.3760 C   0  0  0  0  0  0  0  0  0  0  0  0
    0.4110   -1.1480    0.1150 N   0  0  0  0  0  0  0  0  0  0  0  0
   -0.9890   -1.3360   -0.1900 C   0  0  0  0  0  0  0  0  0  0  0  0
   -1.6260   -0.3640   -1.1010 C   0  0  0  0  0  0  0  0  0  0  0  0
   -1.6800    0.9960   -0.5420 N   0  0  0  0  0  0  0  0  0  0  0  0
   -2.5930    0.9940    0.5900 C   0  0  0  0  0  0  0  0  0  0  0  0
   -3.9770    1.2130    0.0130 C   0  0  0  0  0  0  0  0  0  0  0  0
   -4.0660    2.5720   -0.2790 O   0  0  0  0  0  0  0  0  0  0  0  0
   -3.0260    2.9750   -1.1140 C   0  0  0  0  0  0  0  0  0  0  0  0
   -2.2080    1.8170   -1.6250 C   0  0  0  0  0  0  0  0  0  0  0  0
   -1.6130   -2.3580    0.3300 C   0  0  0  0  0  0  0  0  0  0  0  0
   -0.8270   -3.5560    1.4130 S   0  0  0  0  0  0  0  0  0  0  0  0
   -2.0420   -4.8640    1.0620 C   0  0  0  0  0  0  0  0  0  0  0  0
   -1.8640   -6.0970    1.1990 O   0  0  0  0  0  0  0  0  0  0  0  0
   -3.1770   -4.1490    0.6180 N   0  0  0  0  0  0  0  0  0  0  0  0
   -4.4980   -4.8060    0.5800 C   0  0  0  0  0  0  0  0  0  0  0  0
   -5.3640   -4.6070    2.0890 Cl  0  0  0  0  0  0  0  0  0  0  0  0
   -2.9610   -2.8200    0.2280 C   0  0  0  0  0  0  0  0  0  0  0  0
   -3.9230   -2.0730   -0.1920 O   0  0  0  0  0  0  0  0  0  0  0  0
    2.6750    0.0000    0.0130 C   0  0  2  0  0  0  0  0  0  0  0  0
    2.8650   -0.1910    1.4690 C   0  0  0  0  0  0  0  0  0  0  0  0
    3.4620    1.3780    2.1960 S   0  0  0  0  0  0  0  0  0  0  0  0
    4.6720    1.9740    1.0520 C   0  0  0  0  0  0  0  0  0  0  0  0
    5.7840    2.6120    1.4220 C   0  0  0  0  0  0  0  0  0  0  0  0
    6.6980    3.0520    0.4450 C   0  0  0  0  0  0  0  0  0  0  0  0
    6.4680    2.8360   -0.8950 C   0  0  0  0  0  0  0  0  0  0  0  0
    5.3130    2.1750   -1.2590 C   0  0  0  0  0  0  0  0  0  0  0  0
    4.4170    1.7440   -0.2970 C   0  0  0  0  0  0  0  0  0  0  0  0
    3.2670    1.0890   -0.5980 O   0  0  0  0  0  0  0  0  0  0  0  0
  1  2  2  0
  2  3  1  0
 21  2  1  1
  3  4  1  0
  4  5  1  0
  4 12  2  3
  5  6  1  0
  6  7  1  0
  6 11  1  0
  7  8  1  0
  8  9  1  0
  9 10  1  0
 10 11  1  0
 12 13  1  0
 12 19  1  0
 13 14  1  0
 14 15  2  0
 14 16  1  0
 16 17  1  0
 16 19  1  0
 17 18  1  0
 19 20  2  0
 21 22  1  0
 21 30  1  0
 22 23  1  0
 23 24  1  0
 24 25  2  0
 24 29  1  0
 25 26  1  0
 26 27  2  0
 27 28  1  0
 28 29  2  0
 29 30  1  0
M  END
