
     RDKit          3D

 30 30  0  0  0  0  0  0  0  0999 V2000
   -1.6550    1.3900   -3.7700 C   0  0  0  0  0  0  0  0  0  0  0  0
   -1.7120    1.6000   -2.4670 C   0  0  0  0  0  0  0  0  0  0  0  0
   -2.9520    1.9310   -1.8360 C   0  0  0  0  0  0  0  0  0  0  0  0
   -3.1360    2.1630   -0.5550 C   0  0  0  0  0  0  0  0  0  0  0  0
   -2.0790    2.0990    0.3450 N   0  0  0  0  0  0  0  0  0  0  0  0
   -1.1470    1.0600    0.4270 C   0  0  0  0  0  0  0  0  0  0  0  0
    0.2670    1.3570    0.5750 N   0  0  0  0  0  0  0  0  0  0  0  0
    1.2210    0.2810    0.6450 C   0  0  0  0  0  0  0  0  0  0  0  0
    2.6090    0.8190    0.7770 C   0  0  0  0  0  0  0  0  0  0  0  0
    2.8570    2.0280    0.8190 O   0  0  0  0  0  0  0  0  0  0  0  0
    3.6660   -0.1190    0.8570 N   0  0  0  0  0  0  0  0  0  0  0  0
    5.0340    0.1450    0.9860 C   0  0  0  0  0  0  0  0  0  0  0  0
    5.5770    1.3950    1.0760 C   0  0  0  0  0  0  0  0  0  0  0  0
    6.9520    1.5810    1.2110 C   0  0  0  0  0  0  0  0  0  0  0  0
    7.4420    2.8260    1.2920 F   0  0  0  0  0  0  0  0  0  0  0  0
    7.7830    0.5050    1.2560 C   0  0  0  0  0  0  0  0  0  0  0  0
    7.2790   -0.7780    1.1690 C   0  0  0  0  0  0  0  0  0  0  0  0
    5.9170   -0.9350    1.0360 C   0  0  0  0  0  0  0  0  0  0  0  0
    5.4560   -2.2430    0.9510 O   0  0  0  0  0  0  0  0  0  0  0  0
   -1.4700   -0.1470    0.4320 N   0  0  0  0  0  0  0  0  0  0  0  0
   -2.7570   -0.7830    0.3710 C   0  0  2  0  0  0  0  0  0  0  0  0
   -3.2150   -1.1930    1.7810 C   0  0  0  0  0  0  0  0  0  0  0  0
   -4.5070   -1.8290    1.7440 N   0  0  0  0  0  0  0  0  0  0  0  0
   -2.7190   -2.0160   -0.5180 C   0  0  1  0  0  0  0  0  0  0  0  0
   -2.3150   -1.6520   -1.9240 C   0  0  0  0  0  0  0  0  0  0  0  0
   -1.9220   -3.1490   -0.0080 C   0  0  0  0  0  0  0  0  0  0  0  0
   -4.5230    2.5820   -0.1400 C   0  0  1  0  0  0  0  0  0  0  0  0
   -4.4420    3.9820    0.0210 F   0  0  0  0  0  0  0  0  0  0  0  0
   -5.3790    2.3560   -1.1680 F   0  0  0  0  0  0  0  0  0  0  0  0
   -5.0210    1.9770    1.4260 Cl  0  0  0  0  0  0  0  0  0  0  0  0
  1  2  2  0
  2  3  1  0
  3  4  2  3
  4  5  1  0
  4 27  1  0
  5  6  1  0
  6  7  1  0
  6 20  2  3
  7  8  1  0
  8  9  1  0
  9 10  2  0
  9 11  1  0
 11 12  1  0
 12 13  2  0
 12 18  1  0
 13 14  1  0
 14 15  1  0
 14 16  2  0
 16 17  1  0
 17 18  2  0
 18 19  1  0
 20 21  1  0
 21 22  1  1
 21 24  1  0
 22 23  1  0
 24 25  1  6
 24 26  1  0
 27 28  1  1
 27 29  1  0
 27 30  1  0
M  CHG  1  20   1
M  END
