
     RDKit          3D

 15 14  0  0  0  0  0  0  0  0999 V2000
   -4.1880    1.4000   -0.7310 C   0  0  0  0  0  0  0  0  0  0  0  0
   -3.6580    0.1170   -1.2430 C   0  0  0  0  0  0  0  0  0  0  0  0
   -2.3780   -0.1750   -1.1960 N   0  0  0  0  0  0  0  0  0  0  0  0
   -2.0150   -1.3990   -1.7050 O   0  0  0  0  0  0  0  0  0  0  0  0
   -1.4220    0.7440   -0.6400 C   0  0  0  0  0  0  0  0  0  0  0  0
   -0.7460    0.3910    0.6070 C   0  0  1  0  0  0  0  0  0  0  0  0
   -1.7360    0.1770    1.6030 O   0  0  0  0  0  0  0  0  0  0  0  0
    0.2980   -0.6420    0.6680 C   0  0  1  0  0  0  0  0  0  0  0  0
    0.7870   -0.7040    2.1520 C   0  0  0  0  0  0  0  0  0  0  0  0
   -0.0470   -2.0410    0.3270 C   0  0  0  0  0  0  0  0  0  0  0  0
    1.5290   -0.2600   -0.0800 C   0  0  0  0  0  0  0  0  0  0  0  0
    1.8990   -0.9720   -1.0290 O   0  0  0  0  0  0  0  0  0  0  0  0
    2.2680    0.8660    0.2590 O   0  0  0  0  0  0  0  0  0  0  0  0
    3.4190    1.1530   -0.5010 C   0  0  0  0  0  0  0  0  0  0  0  0
    4.4200    0.0300   -0.4310 C   0  0  0  0  0  0  0  0  0  0  0  0
  1  2  1  0
  2  3  2  3
  3  4  1  0
  3  5  1  0
  5  6  1  0
  6  7  1  1
  6  8  1  0
  8  9  1  1
  8 10  1  0
  8 11  1  0
 11 12  2  0
 11 13  1  0
 13 14  1  0
 14 15  1  0
M  CHG  2   3   1   4  -1
M  END
