
     RDKit          3D

 24 25  0  0  0  0  0  0  0  0999 V2000
   -3.3950   -0.4900    1.4740 N   0  0  0  0  0  0  0  0  0  0  0  0
   -3.9720    0.7770    1.1500 C   0  0  0  0  0  0  0  0  0  0  0  0
   -4.2900    0.9420   -0.3190 C   0  0  1  0  0  0  0  0  0  0  0  0
   -4.9250    2.3210   -0.4670 C   0  0  0  0  0  0  0  0  0  0  0  0
   -6.0340    2.4600    0.3580 O   0  0  0  0  0  0  0  0  0  0  0  0
   -3.0540    0.9370   -1.1700 C   0  0  0  0  0  0  0  0  0  0  0  0
   -2.6390   -0.4080   -1.5220 N   0  0  0  0  0  0  0  0  0  0  0  0
   -1.3070   -0.8660   -1.3670 C   0  0  0  0  0  0  0  0  0  0  0  0
   -1.0450   -2.0470   -1.6990 O   0  0  0  0  0  0  0  0  0  0  0  0
   -0.2620    0.0070   -0.8360 C   0  0  0  0  0  0  0  0  0  0  0  0
    1.0000   -0.6310   -0.7580 O   0  0  0  0  0  0  0  0  0  0  0  0
    2.1320   -0.0200   -0.2940 C   0  0  0  0  0  0  0  0  0  0  0  0
    2.0160    1.1950    0.0830 O   0  0  0  0  0  0  0  0  0  0  0  0
    3.4580   -0.6630   -0.2020 C   0  0  2  0  0  0  0  0  0  0  0  0
    3.3330   -1.8710    0.7270 C   0  0  0  0  0  0  0  0  0  0  0  0
    3.2260   -1.4450    2.1610 C   0  0  0  0  0  0  0  0  0  0  0  0
    4.2900   -0.4790    2.5880 C   0  0  0  0  0  0  0  0  0  0  0  0
    5.2660   -0.3100    1.4540 C   0  0  2  0  0  0  0  0  0  0  0  0
    6.3550    0.4760    1.7790 O   0  0  0  0  0  0  0  0  0  0  0  0
    4.4920    0.2970    0.2840 C   0  0  1  0  0  0  0  0  0  0  0  0
    5.4890    0.6060   -0.7390 N   0  0  0  0  0  0  0  0  0  0  0  0
   -3.6820   -1.2790   -2.0520 C   0  0  0  0  0  0  0  0  0  0  0  0
   -4.9850   -0.5480   -1.9390 C   0  0  0  0  0  0  0  0  0  0  0  0
   -5.1960   -0.0600   -0.6530 O   0  0  0  0  0  0  0  0  0  0  0  0
  1  2  1  0
  3  2  1  1
  3  4  1  0
  3  6  1  0
  3 24  1  0
  4  5  1  0
  6  7  1  0
  7  8  1  0
  7 22  1  0
  8  9  2  0
  8 10  1  0
 10 11  1  0
 11 12  1  0
 12 13  2  0
 14 12  1  1
 14 15  1  0
 14 20  1  0
 15 16  1  0
 16 17  1  0
 17 18  1  0
 18 19  1  1
 18 20  1  0
 20 21  1  6
 22 23  1  0
 23 24  1  0
M  CHG  1  21   1
M  END
