
     RDKit          3D

 15 14  0  0  0  0  0  0  0  0999 V2000
    4.1860    0.1910    0.4760 C   0  0  0  0  0  0  0  0  0  0  0  0
    3.0440   -0.3760    0.1860 C   0  0  0  0  0  0  0  0  0  0  0  0
    2.4780   -0.1560   -1.0530 O   0  0  0  0  0  0  0  0  0  0  0  0
    2.3640   -1.2350    1.1590 C   0  0  0  0  0  0  0  0  0  0  0  0
    1.0090   -0.7280    1.5690 C   0  0  2  0  0  0  0  0  0  0  0  0
    0.1580   -0.6460    0.3360 C   0  0  0  0  0  0  0  0  0  0  0  0
    0.0450   -1.6830   -0.2860 O   0  0  0  0  0  0  0  0  0  0  0  0
   -0.4980    0.5970   -0.0940 C   0  0  0  0  0  0  0  0  0  0  0  0
   -1.9700    0.3420   -0.3340 C   0  0  2  0  0  0  0  0  0  0  0  0
   -2.6260   -0.1680    0.9580 C   0  0  0  0  0  0  0  0  0  0  0  0
   -2.2420   -0.5820   -1.4680 C   0  0  0  0  0  0  0  0  0  0  0  0
   -2.6920    1.6660   -0.6250 C   0  0  0  0  0  0  0  0  0  0  0  0
    1.0730    0.4960    2.3030 N   0  0  0  0  0  0  0  0  0  0  0  0
    2.1920    1.0520    2.5030 O   0  0  0  0  0  0  0  0  0  0  0  0
   -0.0220    1.1390    2.8250 O   0  0  0  0  0  0  0  0  0  0  0  0
  1  2  2  0
  2  3  1  0
  2  4  1  0
  5  4  1  6
  5  6  1  0
  5 13  1  0
  6  7  2  0
  6  8  1  0
  8  9  1  0
  9 10  1  1
  9 11  1  0
  9 12  1  0
 13 14  2  0
 13 15  1  0
M  CHG  2  13   1  15  -1
M  END
