
     RDKit          3D

 24 25  0  0  0  0  0  0  0  0999 V2000
    5.0270   -0.1480    1.5530 C   0  0  0  0  0  0  0  0  0  0  0  0
    4.4600   -0.2500    0.1120 C   0  0  2  0  0  0  0  0  0  0  0  0
    5.3870    0.6280   -0.7130 C   0  0  0  0  0  0  0  0  0  0  0  0
    3.0720    0.2790    0.1770 C   0  0  0  0  0  0  0  0  0  0  0  0
    2.2750    0.2740   -1.0770 C   0  0  1  0  0  0  0  0  0  0  0  0
    2.7910    1.0610   -2.2240 C   0  0  0  0  0  0  0  0  0  0  0  0
    1.8930   -1.0410   -1.4560 O   0  0  0  0  0  0  0  0  0  0  0  0
    0.8520   -1.4050   -0.6150 C   0  0  0  0  0  0  0  0  0  0  0  0
    0.5590   -2.6000   -0.3610 O   0  0  0  0  0  0  0  0  0  0  0  0
    0.1900   -0.2210   -0.1010 N   0  0  0  0  0  0  0  0  0  0  0  0
   -0.9050   -0.2170    0.8270 C   0  0  0  0  0  0  0  0  0  0  0  0
   -2.2900   -0.2970    0.3010 C   0  0  2  0  0  0  0  0  0  0  0  0
   -3.3000   -0.3060    1.4570 C   0  0  1  0  0  0  0  0  0  0  0  0
   -4.5620   -0.3780    0.8550 O   0  0  0  0  0  0  0  0  0  0  0  0
   -3.1190   -1.4130    2.4240 C   0  0  0  0  0  0  0  0  0  0  0  0
   -4.1670   -1.3080    3.4560 N   0  0  0  0  0  0  0  0  0  0  0  0
   -2.4710   -1.5820   -0.4710 C   0  0  0  0  0  0  0  0  0  0  0  0
   -1.9420   -1.4930   -1.7500 O   0  0  0  0  0  0  0  0  0  0  0  0
   -2.7240   -0.6460   -2.4490 N   0  0  0  0  0  0  0  0  0  0  0  0
   -2.4410    0.7000   -1.9940 C   0  0  0  0  0  0  0  0  0  0  0  0
   -2.6770    0.8900   -0.5330 C   0  0  2  0  0  0  0  0  0  0  0  0
   -2.2070    2.1060   -0.1140 O   0  0  0  0  0  0  0  0  0  0  0  0
    0.9230    0.8310   -0.7000 C   0  0  0  0  0  0  0  0  0  0  0  0
    0.6160    2.0150   -0.9190 O   0  0  0  0  0  0  0  0  0  0  0  0
  2  1  1  1
  2  3  1  0
  2  4  1  0
  4  5  1  0
  5  6  1  6
  5  7  1  0
  5 23  1  0
  7  8  1  0
  8  9  2  0
  8 10  1  0
 10 11  1  0
 10 23  1  0
 12 11  1  1
 12 13  1  0
 12 17  1  0
 12 21  1  0
 13 14  1  6
 13 15  1  0
 15 16  1  0
 17 18  1  0
 18 19  1  0
 19 20  1  0
 20 21  1  0
 21 22  1  1
 23 24  2  0
M  CHG  1  19   1
M  END
