
     RDKit          3D

 20 20  0  0  0  0  0  0  0  0999 V2000
    2.7510   -2.0790    1.1770 C   0  0  0  0  0  0  0  0  0  0  0  0
    2.5000   -1.1830    0.0090 C   0  0  0  0  0  0  0  0  0  0  0  0
    1.8500    0.1270    0.4040 C   0  0  2  0  0  0  0  0  0  0  0  0
    2.7860    0.8310    1.3680 C   0  0  0  0  0  0  0  0  0  0  0  0
    4.0880    1.0520    0.6250 C   0  0  0  0  0  0  0  0  0  0  0  0
    0.5800   -0.0090    0.8920 O   0  0  0  0  0  0  0  0  0  0  0  0
   -0.3040    0.6850    0.1140 C   0  0  2  0  0  0  0  0  0  0  0  0
   -0.9870    1.7840    0.8410 C   0  0  0  0  0  0  0  0  0  0  0  0
   -2.1030    2.2660    0.3430 C   0  0  0  0  0  0  0  0  0  0  0  0
   -2.7530    3.3480    1.0800 C   0  0  0  0  0  0  0  0  0  0  0  0
   -3.8170    3.8560    0.6690 O   0  0  0  0  0  0  0  0  0  0  0  0
   -2.2210    3.8540    2.2600 O   0  0  0  0  0  0  0  0  0  0  0  0
   -2.7570    1.8030   -0.9030 C   0  0  0  0  0  0  0  0  0  0  0  0
   -2.0190    0.6820   -1.5910 C   0  0  2  0  0  0  0  0  0  0  0  0
   -2.8810   -0.0880   -2.4410 N   0  0  0  0  0  0  0  0  0  0  0  0
   -1.3980   -0.1740   -0.4880 C   0  0  1  0  0  0  0  0  0  0  0  0
   -0.9350   -1.4330   -0.9850 N   0  0  0  0  0  0  0  0  0  0  0  0
   -1.4790   -2.6300   -0.4410 C   0  0  0  0  0  0  0  0  0  0  0  0
   -1.0380   -3.9800   -0.9170 C   0  0  0  0  0  0  0  0  0  0  0  0
   -2.3520   -2.5470    0.4630 O   0  0  0  0  0  0  0  0  0  0  0  0
  1  2  1  0
  3  2  1  1
  3  4  1  0
  3  6  1  0
  4  5  1  0
  7  6  1  1
  7  8  1  0
  7 16  1  0
  8  9  2  0
  9 10  1  0
  9 13  1  0
 10 11  2  0
 10 12  1  0
 13 14  1  0
 14 15  1  1
 14 16  1  0
 16 17  1  6
 17 18  1  0
 18 19  1  0
 18 20  2  0
M  END
