
     RDKit          3D

 15 14  0  0  0  0  0  0  0  0999 V2000
    1.6550   -1.5470    2.8480 C   0  0  0  0  0  0  0  0  0  0  0  0
    2.4090   -1.1610    1.8490 C   0  0  0  0  0  0  0  0  0  0  0  0
    2.0420   -0.1130    0.8700 C   0  0  0  0  0  0  0  0  0  0  0  0
    2.9340    0.1320   -0.0540 C   0  0  0  0  0  0  0  0  0  0  0  0
    2.7990    1.1210   -1.1370 C   0  0  0  0  0  0  0  0  0  0  0  0
    0.7470    0.5260    0.9510 C   0  0  2  0  0  0  0  0  0  0  0  0
   -0.4010   -0.2430    0.4140 C   0  0  0  0  0  0  0  0  0  0  0  0
   -0.4720   -1.4700    0.6400 O   0  0  0  0  0  0  0  0  0  0  0  0
   -1.4310    0.2960   -0.3370 O   0  0  0  0  0  0  0  0  0  0  0  0
   -2.5130   -0.4660   -0.8340 C   0  0  2  0  0  0  0  0  0  0  0  0
   -2.5750   -0.4780   -2.3370 C   0  0  0  0  0  0  0  0  0  0  0  0
   -3.8280   -0.0180   -0.2310 C   0  0  0  0  0  0  0  0  0  0  0  0
    0.7540    1.8940    0.5730 N   0  0  0  0  0  0  0  0  0  0  0  0
    0.1140    2.2930   -0.3980 O   0  0  0  0  0  0  0  0  0  0  0  0
    1.4650    2.8000    1.3160 O   0  0  0  0  0  0  0  0  0  0  0  0
  1  2  2  0
  2  3  1  0
  3  4  2  3
  6  3  1  6
  4  5  1  0
  6  7  1  0
  6 13  1  0
  7  8  2  0
  7  9  1  0
  9 10  1  0
 10 11  1  6
 10 12  1  0
 13 14  2  0
 13 15  1  0
M  CHG  2  13   1  15  -1
M  END
