
     RDKit          3D

 20 21  0  0  0  0  0  0  0  0999 V2000
   -0.8460   -0.0460    1.8030 O   0  0  0  0  0  0  0  0  0  0  0  0
   -1.7820    0.1320    1.0070 C   0  0  0  0  0  0  0  0  0  0  0  0
   -2.6420    1.2920    1.0340 N   0  0  0  0  0  0  0  0  0  0  0  0
   -3.9430    1.1990    0.3750 C   0  0  0  0  0  0  0  0  0  0  0  0
   -4.3800   -0.2650    0.5180 C   0  0  2  0  0  0  0  0  0  0  0  0
   -4.3620   -0.5330    1.8840 O   0  0  0  0  0  0  0  0  0  0  0  0
   -3.4780   -1.1500   -0.2410 C   0  0  0  0  0  0  0  0  0  0  0  0
   -2.0730   -0.8170    0.0020 N   0  0  0  0  0  0  0  0  0  0  0  0
   -1.0910   -1.4830   -0.7660 C   0  0  0  0  0  0  0  0  0  0  0  0
   -1.4510   -2.3870   -1.6060 O   0  0  0  0  0  0  0  0  0  0  0  0
    0.3060   -1.2070   -0.6680 C   0  0  0  0  0  0  0  0  0  0  0  0
    1.2780   -1.8280   -1.3760 C   0  0  0  0  0  0  0  0  0  0  0  0
    2.4890   -1.2900   -1.0060 O   0  0  0  0  0  0  0  0  0  0  0  0
    2.2840   -0.6460    0.2150 C   0  0  1  0  0  0  0  0  0  0  0  0
    3.1700    0.5720    0.3860 C   0  0  0  0  0  0  0  0  0  0  0  0
    4.4970    0.1490    0.3190 O   0  0  0  0  0  0  0  0  0  0  0  0
    5.4860    1.5410    0.5140 P   0  0  0  0  0  0  0  0  0  0  0  0
    7.0080    1.3970   -0.2770 O   0  0  0  0  0  0  0  0  0  0  0  0
    4.6660    3.0070    0.1360 O   0  0  0  0  0  0  0  0  0  0  0  0
    0.9360   -0.2760    0.1410 O   0  0  0  0  0  0  0  0  0  0  0  0
  1  2  2  0
  2  3  1  0
  2  8  1  0
  3  4  1  0
  4  5  1  0
  5  6  1  1
  5  7  1  0
  7  8  1  0
  8  9  1  0
  9 10  2  0
  9 11  1  0
 11 12  2  0
 11 20  1  0
 12 13  1  0
 13 14  1  0
 14 15  1  6
 14 20  1  0
 15 16  1  0
 16 17  1  0
 17 18  1  0
 17 19  1  0
M  END
