
     RDKit          3D

 20 21  0  0  0  0  0  0  0  0999 V2000
   -2.9790   -2.0140    0.5980 N   0  0  0  0  0  0  0  0  0  0  0  0
   -2.4450   -0.7390    0.1410 C   0  0  2  0  0  0  0  0  0  0  0  0
   -1.6050   -0.1020    1.1770 C   0  0  0  0  0  0  0  0  0  0  0  0
   -0.3530    0.2190    1.1440 C   0  0  0  0  0  0  0  0  0  0  0  0
    0.6240    0.0430    0.0570 C   0  0  0  0  0  0  0  0  0  0  0  0
    0.4060   -0.4620   -1.0470 O   0  0  0  0  0  0  0  0  0  0  0  0
    1.9820    0.4870    0.2500 N   0  0  0  0  0  0  0  0  0  0  0  0
    2.9790    0.3360   -0.7900 C   0  0  0  0  0  0  0  0  0  0  0  0
    4.1660    0.8500   -0.3080 O   0  0  0  0  0  0  0  0  0  0  0  0
    5.4750    0.7650   -1.3910 P   0  0  0  0  0  0  0  0  0  0  0  0
    5.2980    1.7260   -2.7940 O   0  0  0  0  0  0  0  0  0  0  0  0
    6.0410   -0.8240   -1.7030 O   0  0  0  0  0  0  0  0  0  0  0  0
   -0.0140    0.8480    2.4690 C   0  0  0  0  0  0  0  0  0  0  0  0
   -1.1610    0.7870    3.2190 O   0  0  0  0  0  0  0  0  0  0  0  0
   -2.1800    0.2490    2.5100 C   0  0  0  0  0  0  0  0  0  0  0  0
   -3.3810    0.0640    2.8650 O   0  0  0  0  0  0  0  0  0  0  0  0
   -3.6270    0.2310   -0.0870 C   0  0  0  0  0  0  0  0  0  0  0  0
   -3.6450    0.4600   -1.4550 O   0  0  0  0  0  0  0  0  0  0  0  0
   -2.9950   -0.6460   -1.9870 C   0  0  0  0  0  0  0  0  0  0  0  0
   -1.9460   -0.8960   -1.0970 O   0  0  0  0  0  0  0  0  0  0  0  0
  2  1  1  1
  2  3  1  0
  2 17  1  0
  2 20  1  0
  3  4  2  0
  3 15  1  0
  4  5  1  0
  4 13  1  0
  5  6  2  0
  5  7  1  0
  7  8  1  0
  8  9  1  0
  9 10  1  0
 10 11  1  0
 10 12  1  0
 13 14  1  0
 14 15  1  0
 15 16  2  0
 17 18  1  0
 18 19  1  0
 19 20  1  0
M  END
