
     RDKit          3D

 21 22  0  0  0  0  0  0  0  0999 V2000
    0.2560   -2.0820   -1.5060 O   0  0  0  0  0  0  0  0  0  0  0  0
    0.3780   -0.9600   -0.9960 C   0  0  0  0  0  0  0  0  0  0  0  0
    1.6090   -0.5790   -0.5140 O   0  0  0  0  0  0  0  0  0  0  0  0
    2.7440   -1.4530   -0.5900 C   0  0  0  0  0  0  0  0  0  0  0  0
    3.8930   -0.6650    0.0440 C   0  0  0  0  0  0  0  0  0  0  0  0
    3.4770   -0.4000    1.3650 O   0  0  0  0  0  0  0  0  0  0  0  0
    4.7530    0.4990    2.1350 P   0  0  0  0  0  0  0  0  0  0  0  0
    6.1770   -0.4650    2.0910 O   0  0  0  0  0  0  0  0  0  0  0  0
    5.0590    1.9360    1.1940 O   0  0  0  0  0  0  0  0  0  0  0  0
   -0.7110   -0.0300   -0.8840 N   0  0  0  0  0  0  0  0  0  0  0  0
   -0.5410    1.2720   -0.2850 C   0  0  0  0  0  0  0  0  0  0  0  0
   -1.3270    1.2880    1.0140 C   0  0  0  0  0  0  0  0  0  0  0  0
   -2.4680    0.2890    0.9440 C   0  0  1  0  0  0  0  0  0  0  0  0
   -3.3670    0.4840    1.9470 O   0  0  0  0  0  0  0  0  0  0  0  0
   -4.6090    0.5880    1.6220 O   0  0  0  0  0  0  0  0  0  0  0  0
   -5.0560   -0.3870    0.7940 N   0  0  0  0  0  0  0  0  0  0  0  0
   -4.2760   -0.5510   -0.4030 C   0  0  0  0  0  0  0  0  0  0  0  0
   -4.6370   -1.3150   -1.3130 O   0  0  0  0  0  0  0  0  0  0  0  0
   -3.0300    0.2610   -0.4430 C   0  0  1  0  0  0  0  0  0  0  0  0
   -3.2790    1.5510   -0.9130 O   0  0  0  0  0  0  0  0  0  0  0  0
   -2.0380   -0.3740   -1.3760 C   0  0  0  0  0  0  0  0  0  0  0  0
  1  2  2  0
  2  3  1  0
  2 10  1  0
  3  4  1  0
  4  5  1  0
  5  6  1  0
  6  7  1  0
  7  8  1  0
  7  9  1  0
 10 11  1  0
 10 21  1  0
 11 12  1  0
 13 12  1  6
 13 14  1  0
 13 19  1  0
 14 15  1  0
 15 16  1  0
 16 17  1  0
 17 18  2  0
 17 19  1  0
 19 20  1  6
 19 21  1  0
M  END
