
     RDKit          3D

 20 20  0  0  0  0  0  0  0  0999 V2000
   -2.2070   -1.9520   -0.4770 N   0  0  0  0  0  0  0  0  0  0  0  0
   -2.7130   -0.6520   -0.0680 C   0  0  2  0  0  0  0  0  0  0  0  0
   -2.8860    0.1840   -1.2670 C   0  0  0  0  0  0  0  0  0  0  0  0
   -3.9840    1.0380   -1.2350 O   0  0  0  0  0  0  0  0  0  0  0  0
   -3.8990    2.2270   -0.0080 P   0  0  0  0  0  0  0  0  0  0  0  0
   -5.3430    3.1440    0.0240 O   0  0  0  0  0  0  0  0  0  0  0  0
   -3.6270    1.3760    1.4980 O   0  0  0  0  0  0  0  0  0  0  0  0
   -2.2770    1.1690    1.6040 C   0  0  0  0  0  0  0  0  0  0  0  0
   -1.8100   -0.1390    1.0000 C   0  0  1  0  0  0  0  0  0  0  0  0
   -1.8560   -1.0730    2.0370 O   0  0  0  0  0  0  0  0  0  0  0  0
   -0.4140    0.0360    0.5980 C   0  0  0  0  0  0  0  0  0  0  0  0
   -0.0210    0.8070   -0.3100 O   0  0  0  0  0  0  0  0  0  0  0  0
    0.5920   -0.7070    1.2650 N   0  0  0  0  0  0  0  0  0  0  0  0
    2.0050   -0.6400    0.9720 C   0  0  0  0  0  0  0  0  0  0  0  0
    2.2160   -1.0790   -0.4570 C   0  0  0  0  0  0  0  0  0  0  0  0
    3.7190   -1.0140   -0.7680 C   0  0  0  0  0  0  0  0  0  0  0  0
    4.1420    0.3350   -0.5840 O   0  0  0  0  0  0  0  0  0  0  0  0
    5.4640    0.6990   -0.7950 C   0  0  0  0  0  0  0  0  0  0  0  0
    6.2700   -0.2100   -1.1550 O   0  0  0  0  0  0  0  0  0  0  0  0
    5.8930    2.0120   -0.6210 O   0  0  0  0  0  0  0  0  0  0  0  0
  2  1  1  6
  2  3  1  0
  2  9  1  0
  3  4  1  0
  4  5  1  0
  5  6  1  0
  5  7  1  0
  7  8  1  0
  8  9  1  0
  9 10  1  1
  9 11  1  0
 11 12  2  0
 11 13  1  0
 13 14  1  0
 14 15  1  0
 15 16  1  0
 16 17  1  0
 17 18  1  0
 18 19  2  0
 18 20  1  0
M  END
