
     RDKit          3D

 20 21  0  0  0  0  0  0  0  0999 V2000
   -2.7560   -3.0120    0.2250 N   0  0  0  0  0  0  0  0  0  0  0  0
   -2.4500   -1.7690    0.2910 C   0  0  0  0  0  0  0  0  0  0  0  0
   -1.0690   -1.4230    0.0630 N   0  0  0  0  0  0  0  0  0  0  0  0
   -0.6310   -0.2120   -0.1540 C   0  0  0  0  0  0  0  0  0  0  0  0
    0.7850    0.0080   -0.3910 C   0  0  0  0  0  0  0  0  0  0  0  0
    1.7370   -0.8930   -0.5300 C   0  0  0  0  0  0  0  0  0  0  0  0
    2.9930   -0.2750   -0.7630 O   0  0  0  0  0  0  0  0  0  0  0  0
    2.7900    1.0570   -0.2550 C   0  0  2  0  0  0  0  0  0  0  0  0
    3.1000    0.8850    1.2300 C   0  0  0  0  0  0  0  0  0  0  0  0
    4.4740    0.7120    1.3350 O   0  0  0  0  0  0  0  0  0  0  0  0
    4.9710   -0.8670    0.7470 P   0  0  0  0  0  0  0  0  0  0  0  0
    6.3340   -1.4230    1.6360 O   0  0  0  0  0  0  0  0  0  0  0  0
    5.5950   -0.5990   -0.9090 O   0  0  0  0  0  0  0  0  0  0  0  0
    1.4310    1.2360   -0.4930 O   0  0  0  0  0  0  0  0  0  0  0  0
   -1.4830    0.9500   -0.1910 O   0  0  0  0  0  0  0  0  0  0  0  0
   -2.7260    0.9260   -0.9090 C   0  0  0  0  0  0  0  0  0  0  0  0
   -3.8080    0.3910   -0.0090 C   0  0  1  0  0  0  0  0  0  0  0  0
   -5.0530    0.1950   -0.8350 C   0  0  0  0  0  0  0  0  0  0  0  0
   -6.0710   -0.1810    0.0850 O   0  0  0  0  0  0  0  0  0  0  0  0
   -3.4710   -0.8440    0.5710 O   0  0  0  0  0  0  0  0  0  0  0  0
  1  2  2  0
  2  3  1  0
  2 20  1  0
  3  4  2  0
  4  5  1  0
  4 15  1  0
  5  6  2  0
  5 14  1  0
  6  7  1  0
  7  8  1  0
  8  9  1  1
  8 14  1  0
  9 10  1  0
 10 11  1  0
 11 12  1  0
 11 13  1  0
 15 16  1  0
 16 17  1  0
 17 18  1  6
 17 20  1  0
 18 19  1  0
M  END
