
     RDKit          3D

 21 21  0  0  0  0  0  0  0  0999 V2000
    0.5990    0.1620   -1.4210 O   0  0  0  0  0  0  0  0  0  0  0  0
    0.8710   -0.0980   -0.2200 C   0  0  0  0  0  0  0  0  0  0  0  0
    2.2000   -0.4090    0.1020 N   0  0  0  0  0  0  0  0  0  0  0  0
    3.2260   -0.4240   -0.9500 C   0  0  0  0  0  0  0  0  0  0  0  0
    4.5730   -0.7780   -0.3960 C   0  0  0  0  0  0  0  0  0  0  0  0
    5.4830   -0.7730   -1.4350 O   0  0  0  0  0  0  0  0  0  0  0  0
    7.0660   -1.1770   -0.8540 P   0  0  0  0  0  0  0  0  0  0  0  0
    6.9990   -1.4150    0.8710 O   0  0  0  0  0  0  0  0  0  0  0  0
    8.1560    0.1140   -1.2540 O   0  0  0  0  0  0  0  0  0  0  0  0
   -0.1980   -0.0520    0.7000 N   0  0  0  0  0  0  0  0  0  0  0  0
   -1.5610    0.2670    0.3670 C   0  0  2  0  0  0  0  0  0  0  0  0
   -2.1100    1.3970    1.1950 C   0  0  0  0  0  0  0  0  0  0  0  0
   -3.4700    1.4950    1.0970 O   0  0  0  0  0  0  0  0  0  0  0  0
   -3.9600    1.4230   -0.1950 C   0  0  0  0  0  0  0  0  0  0  0  0
   -4.6070    0.0540   -0.3380 C   0  0  1  0  0  0  0  0  0  0  0  0
   -5.4520   -0.0810    0.7880 O   0  0  0  0  0  0  0  0  0  0  0  0
   -5.4220   -0.0370   -1.4480 O   0  0  0  0  0  0  0  0  0  0  0  0
   -6.3700    0.8640   -1.3330 O   0  0  0  0  0  0  0  0  0  0  0  0
   -3.5990   -1.0140   -0.2400 C   0  0  0  0  0  0  0  0  0  0  0  0
   -3.8000   -2.0000   -0.9050 O   0  0  0  0  0  0  0  0  0  0  0  0
   -2.3690   -1.0210    0.5780 C   0  0  0  0  0  0  0  0  0  0  0  0
  1  2  2  0
  2  3  1  0
  2 10  1  0
  3  4  1  0
  4  5  1  0
  5  6  1  0
  6  7  1  0
  7  8  1  0
  7  9  1  0
 11 10  1  1
 11 12  1  0
 11 21  1  0
 12 13  1  0
 13 14  1  0
 14 15  1  0
 15 16  1  1
 15 17  1  0
 15 19  1  0
 17 18  1  0
 19 20  2  0
 19 21  1  0
M  END
