
     RDKit          3D

 27 29  0  0  0  0  0  0  0  0999 V2000
   -7.4190    0.3730    1.3330 N   0  0  0  0  0  0  0  0  0  0  0  0
   -6.3550    0.2510    0.3990 C   0  0  0  0  0  0  0  0  0  0  0  0
   -6.5420    0.1040   -0.9040 N   0  0  0  0  0  0  0  0  0  0  0  0
   -5.4180   -0.0770   -1.7480 C   0  0  0  0  0  0  0  0  0  0  0  0
   -4.2000   -0.0920   -1.1830 N   0  0  0  0  0  0  0  0  0  0  0  0
   -4.0280    0.0670    0.0980 C   0  0  0  0  0  0  0  0  0  0  0  0
   -5.0880    0.2430    0.9230 C   0  0  0  0  0  0  0  0  0  0  0  0
   -4.5810    0.3240    2.1700 N   0  0  0  0  0  0  0  0  0  0  0  0
   -3.2530    0.1910    2.0730 C   0  0  0  0  0  0  0  0  0  0  0  0
   -2.8590    0.0210    0.8010 N   0  0  0  0  0  0  0  0  0  0  0  0
   -1.5630   -0.2990    0.3430 C   0  0  2  0  0  0  0  0  0  0  0  0
   -0.7150    0.7980    0.3810 O   0  0  0  0  0  0  0  0  0  0  0  0
    0.3300    0.3360   -0.5140 C   0  0  2  0  0  0  0  0  0  0  0  0
    1.4810    1.2130   -0.4780 C   0  0  0  0  0  0  0  0  0  0  0  0
    2.4680    0.5420   -1.2650 O   0  0  0  0  0  0  0  0  0  0  0  0
    3.7500    0.4390   -0.2520 P   0  0  0  0  0  0  0  0  0  0  0  0
    3.3170   -0.3640    1.2120 O   0  0  0  0  0  0  0  0  0  0  0  0
    3.6610    1.7820    0.3510 O   0  0  0  0  0  0  0  0  0  0  0  0
    5.3150    0.5700   -0.5960 O   0  0  0  0  0  0  0  0  0  0  0  0
    6.2340    0.0240    0.5370 P   0  0  0  0  0  0  0  0  0  0  0  0
    5.6390   -1.5020    0.2420 O   0  0  0  0  0  0  0  0  0  0  0  0
    7.5650    0.5350   -0.2660 O   0  0  0  0  0  0  0  0  0  0  0  0
    5.5210    1.0220    1.6270 O   0  0  0  0  0  0  0  0  0  0  0  0
   -0.4940    0.0990   -1.7060 C   0  0  1  0  0  0  0  0  0  0  0  0
    0.1080   -0.5060   -2.7530 O   0  0  0  0  0  0  0  0  0  0  0  0
   -1.4750   -0.9220   -1.0200 C   0  0  1  0  0  0  0  0  0  0  0  0
   -0.6740   -2.0890   -0.9630 O   0  0  0  0  0  0  0  0  0  0  0  0
  1  2  1  0
  2  3  2  0
  2  7  1  0
  3  4  1  0
  4  5  2  0
  5  6  1  0
  6  7  2  0
  6 10  1  0
  7  8  1  0
  8  9  2  0
  9 10  1  0
 11 10  1  6
 11 12  1  0
 11 26  1  0
 12 13  1  0
 13 14  1  6
 13 24  1  0
 14 15  1  0
 15 16  1  0
 16 17  1  0
 16 18  1  0
 16 19  1  0
 19 20  1  0
 20 21  1  0
 20 22  1  0
 20 23  1  0
 24 25  1  6
 24 26  1  0
 26 27  1  1
M  END
