
     RDKit          3D

 12 12  0  0  0  0  0  0  0  0999 V2000
    3.4340    1.1410    0.0190 N   0  0  0  0  0  0  0  0  0  0  0  0
    2.1350    0.7950   -0.4020 C   0  0  0  0  0  0  0  0  0  0  0  0
    1.5290    1.3690   -1.3400 O   0  0  0  0  0  0  0  0  0  0  0  0
    1.4250   -0.2620    0.2420 N   0  0  0  0  0  0  0  0  0  0  0  0
    0.1370   -0.6890   -0.0910 C   0  0  2  0  0  0  0  0  0  0  0  0
   -0.2890   -1.6950    0.7870 O   0  0  0  0  0  0  0  0  0  0  0  0
   -0.0970   -1.1920   -1.4740 C   0  0  0  0  0  0  0  0  0  0  0  0
   -1.4840   -1.2680   -1.5900 O   0  0  0  0  0  0  0  0  0  0  0  0
   -2.0480   -0.4710   -0.6280 C   0  0  0  0  0  0  0  0  0  0  0  0
   -0.9360    0.3810   -0.0290 C   0  0  1  0  0  0  0  0  0  0  0  0
   -1.2360    0.8010    1.3780 C   0  0  0  0  0  0  0  0  0  0  0  0
   -2.1980    1.7660    1.4820 O   0  0  0  0  0  0  0  0  0  0  0  0
  1  2  1  0
  2  3  2  0
  2  4  1  0
  4  5  1  0
  5  6  1  1
  5  7  1  0
  5 10  1  0
  7  8  1  0
  8  9  1  0
  9 10  1  0
 10 11  1  1
 11 12  1  0
M  END
