
     RDKit          3D

 12 12  0  0  0  0  0  0  0  0999 V2000
    1.8890    1.1370   -0.4310 N   0  0  0  0  0  0  0  0  0  0  0  0
    1.6730   -0.2950   -0.6210 C   0  0  1  0  0  0  0  0  0  0  0  0
    2.9460   -0.8800   -0.5700 O   0  0  0  0  0  0  0  0  0  0  0  0
    0.7900   -0.8050    0.4830 C   0  0  0  0  0  0  0  0  0  0  0  0
   -0.5320   -0.0730    0.4370 C   0  0  2  0  0  0  0  0  0  0  0  0
   -1.4630   -0.5500    1.5340 C   0  0  0  0  0  0  0  0  0  0  0  0
   -1.7500   -1.8940    1.3640 O   0  0  0  0  0  0  0  0  0  0  0  0
   -1.2370   -0.2320   -0.8670 C   0  0  0  0  0  0  0  0  0  0  0  0
   -1.3420    1.1290   -1.3600 N   0  0  0  0  0  0  0  0  0  0  0  0
   -1.0570    1.9930   -0.2600 C   0  0  0  0  0  0  0  0  0  0  0  0
   -1.4720    3.1670   -0.1200 O   0  0  0  0  0  0  0  0  0  0  0  0
   -0.2450    1.2970    0.6190 O   0  0  0  0  0  0  0  0  0  0  0  0
  2  1  1  1
  2  3  1  0
  2  4  1  0
  5  4  1  6
  5  6  1  0
  5  8  1  0
  5 12  1  0
  6  7  1  0
  8  9  1  0
  9 10  1  0
 10 11  2  0
 10 12  1  0
M  END
