
     RDKit          3D

 13 12  0  0  0  0  0  0  0  0999 V2000
   -2.6020    1.6240   -1.3800 N   0  0  0  0  0  0  0  0  0  0  0  0
   -1.7940    0.4610   -1.4810 C   0  0  0  0  0  0  0  0  0  0  0  0
   -1.0440    0.0240   -0.4790 C   0  0  0  0  0  0  0  0  0  0  0  0
   -1.0730    0.8020    0.7810 C   0  0  0  0  0  0  0  0  0  0  0  0
   -1.9220    1.9070    0.6910 O   0  0  0  0  0  0  0  0  0  0  0  0
   -0.2220   -1.1730   -0.5950 C   0  0  2  0  0  0  0  0  0  0  0  0
   -0.6400   -2.1940    0.2930 O   0  0  0  0  0  0  0  0  0  0  0  0
    1.2500   -0.9940   -0.4530 C   0  0  2  0  0  0  0  0  0  0  0  0
    1.9250   -2.2180   -0.7310 O   0  0  0  0  0  0  0  0  0  0  0  0
    1.7060   -0.6250    0.8620 N   0  0  0  0  0  0  0  0  0  0  0  0
    2.6710    0.4160    1.0030 C   0  0  0  0  0  0  0  0  0  0  0  0
    3.0940    0.9820   -0.0480 O   0  0  0  0  0  0  0  0  0  0  0  0
    3.1310    0.7960    2.2480 O   0  0  0  0  0  0  0  0  0  0  0  0
  1  2  1  0
  2  3  2  3
  3  4  1  0
  3  6  1  0
  4  5  1  0
  6  7  1  1
  6  8  1  0
  8  9  1  1
  8 10  1  0
 10 11  1  0
 11 12  2  0
 11 13  1  0
M  END
