
     RDKit          3D

 28 30  0  0  0  0  0  0  0  0999 V2000
   -3.0530   -3.6620    1.6430 N   0  0  0  0  0  0  0  0  0  0  0  0
   -3.2280   -2.7580    0.5380 C   0  0  0  0  0  0  0  0  0  0  0  0
   -4.4180   -2.4330    0.2070 N   0  0  0  0  0  0  0  0  0  0  0  0
   -2.1380   -2.1970   -0.1500 N   0  0  0  0  0  0  0  0  0  0  0  0
   -2.1090   -1.2670   -1.2080 C   0  0  0  0  0  0  0  0  0  0  0  0
   -2.3630    0.1500   -0.9820 C   0  0  1  0  0  0  0  0  0  0  0  0
   -3.6400    0.6440   -0.4110 C   0  0  0  0  0  0  0  0  0  0  0  0
   -3.2860    2.0790   -0.1910 C   0  0  0  0  0  0  0  0  0  0  0  0
   -4.0380    3.2230   -0.1790 C   0  0  0  0  0  0  0  0  0  0  0  0
   -3.4730    4.4770    0.0500 C   0  0  0  0  0  0  0  0  0  0  0  0
   -2.1230    4.5810    0.2710 C   0  0  0  0  0  0  0  0  0  0  0  0
   -1.3730    3.4160    0.2560 C   0  0  0  0  0  0  0  0  0  0  0  0
   -1.9270    2.1810    0.0310 C   0  0  0  0  0  0  0  0  0  0  0  0
   -1.3650    0.8140   -0.0330 C   0  0  2  0  0  0  0  0  0  0  0  0
   -0.0300    0.7670   -0.5300 N   0  0  0  0  0  0  0  0  0  0  0  0
    0.9760    0.1300    0.2500 C   0  0  0  0  0  0  0  0  0  0  0  0
    0.6450   -0.3610    1.3360 O   0  0  0  0  0  0  0  0  0  0  0  0
    2.3800    0.0350   -0.1870 C   0  0  0  0  0  0  0  0  0  0  0  0
    2.6320    0.5520   -1.2900 O   0  0  0  0  0  0  0  0  0  0  0  0
    3.2960   -0.6100    0.6470 N   0  0  0  0  0  0  0  0  0  0  0  0
    4.6570   -0.7430    0.3180 C   0  0  0  0  0  0  0  0  0  0  0  0
    5.2810   -0.0420   -0.6620 C   0  0  0  0  0  0  0  0  0  0  0  0
    6.6400   -0.2570   -0.9310 C   0  0  0  0  0  0  0  0  0  0  0  0
    7.3900   -1.1670   -0.2320 C   0  0  0  0  0  0  0  0  0  0  0  0
    9.0950   -1.4150   -0.5920 Cl  0  0  0  0  0  0  0  0  0  0  0  0
    6.7590   -1.8770    0.7610 C   0  0  0  0  0  0  0  0  0  0  0  0
    7.4940   -2.7770    1.4550 F   0  0  0  0  0  0  0  0  0  0  0  0
    5.4250   -1.6710    1.0300 C   0  0  0  0  0  0  0  0  0  0  0  0
  1  2  1  0
  2  3  2  0
  2  4  1  0
  4  5  1  0
  6  5  1  1
  6  7  1  0
  6 14  1  0
  7  8  1  0
  8  9  2  0
  8 13  1  0
  9 10  1  0
 10 11  2  0
 11 12  1  0
 12 13  2  0
 13 14  1  0
 14 15  1  6
 15 16  1  0
 16 17  2  0
 16 18  1  0
 18 19  2  0
 18 20  1  0
 20 21  1  0
 21 22  2  0
 21 28  1  0
 22 23  1  0
 23 24  2  0
 24 25  1  0
 24 26  1  0
 26 27  1  0
 26 28  2  0
M  CHG  1   3   1
M  END
