
     RDKit          3D

 13 13  0  0  0  0  0  0  0  0999 V2000
    4.2550    0.2000    0.0050 N   0  0  0  0  0  0  0  0  0  0  0  0
    3.1040   -0.5590    0.3140 C   0  0  0  0  0  0  0  0  0  0  0  0
    3.2130   -1.6120    1.0280 O   0  0  0  0  0  0  0  0  0  0  0  0
    1.7990   -0.2300   -0.1220 N   0  0  0  0  0  0  0  0  0  0  0  0
    0.6540   -1.0580    0.2340 C   0  0  2  0  0  0  0  0  0  0  0  0
   -0.1230   -1.4700   -0.9970 C   0  0  0  0  0  0  0  0  0  0  0  0
   -0.9950   -0.3990   -1.1480 O   0  0  0  0  0  0  0  0  0  0  0  0
   -1.2420    0.1240    0.0960 C   0  0  2  0  0  0  0  0  0  0  0  0
   -2.5320   -0.3790    0.7010 C   0  0  0  0  0  0  0  0  0  0  0  0
   -3.6380   -0.0610   -0.0820 O   0  0  0  0  0  0  0  0  0  0  0  0
   -1.2270    1.6420    0.0410 C   0  0  0  0  0  0  0  0  0  0  0  0
   -2.1930    2.1280   -0.8310 O   0  0  0  0  0  0  0  0  0  0  0  0
   -0.2170   -0.2750    0.9470 O   0  0  0  0  0  0  0  0  0  0  0  0
  1  2  1  0
  2  3  2  0
  2  4  1  0
  5  4  1  6
  5  6  1  0
  5 13  1  0
  6  7  1  0
  7  8  1  0
  8  9  1  1
  8 11  1  0
  8 13  1  0
  9 10  1  0
 11 12  1  0
M  END
