
     RDKit          3D

 13 13  0  0  0  0  0  0  0  0999 V2000
    3.9780   -0.3250   -1.1750 N   0  0  0  0  0  0  0  0  0  0  0  0
    3.0470    0.0860   -0.1910 C   0  0  0  0  0  0  0  0  0  0  0  0
    3.3460    1.0070    0.6310 O   0  0  0  0  0  0  0  0  0  0  0  0
    1.7490   -0.4770   -0.0460 N   0  0  0  0  0  0  0  0  0  0  0  0
    0.8610   -0.0100    0.9730 C   0  0  0  0  0  0  0  0  0  0  0  0
    1.1950    0.9060    1.7690 O   0  0  0  0  0  0  0  0  0  0  0  0
   -0.5070   -0.5750    1.1550 C   0  0  2  0  0  0  0  0  0  0  0  0
   -0.8050   -1.5620    0.2610 O   0  0  0  0  0  0  0  0  0  0  0  0
   -1.6680   -1.0930   -0.6870 C   0  0  0  0  0  0  0  0  0  0  0  0
   -2.0850    0.2930   -0.3440 C   0  0  1  0  0  0  0  0  0  0  0  0
   -3.4710    0.4350   -0.2330 O   0  0  0  0  0  0  0  0  0  0  0  0
   -1.4880    0.5410    1.0050 C   0  0  2  0  0  0  0  0  0  0  0  0
   -0.8650    1.7880    0.9720 O   0  0  0  0  0  0  0  0  0  0  0  0
  1  2  1  0
  2  3  2  0
  2  4  1  0
  4  5  1  0
  5  6  2  0
  7  5  1  6
  7  8  1  0
  7 12  1  0
  8  9  1  0
  9 10  1  0
 10 11  1  1
 10 12  1  0
 12 13  1  6
M  END
