
     RDKit          3D

 13 13  0  0  0  0  0  0  0  0999 V2000
   -3.3670    0.1250    0.6490 N   0  0  0  0  0  0  0  0  0  0  0  0
   -2.0200   -0.2380    0.8530 C   0  0  0  0  0  0  0  0  0  0  0  0
   -1.5210    0.0930    1.9820 O   0  0  0  0  0  0  0  0  0  0  0  0
   -1.2270   -0.9530   -0.1610 C   0  0  1  0  0  0  0  0  0  0  0  0
   -1.0650   -0.1800   -1.4420 C   0  0  0  0  0  0  0  0  0  0  0  0
    0.4430    0.0820   -1.4510 C   0  0  2  0  0  0  0  0  0  0  0  0
    1.0210   -1.0030   -2.0970 O   0  0  0  0  0  0  0  0  0  0  0  0
    0.6840    0.0280    0.0470 C   0  0  2  0  0  0  0  0  0  0  0  0
    2.0780    0.0540    0.3820 N   0  0  0  0  0  0  0  0  0  0  0  0
    2.6760    1.0070    1.2130 C   0  0  0  0  0  0  0  0  0  0  0  0
    1.9630    1.9160    1.7150 O   0  0  0  0  0  0  0  0  0  0  0  0
    4.0350    0.9650    1.4900 O   0  0  0  0  0  0  0  0  0  0  0  0
    0.0520   -1.1560    0.3560 O   0  0  0  0  0  0  0  0  0  0  0  0
  1  2  1  0
  2  3  2  0
  4  2  1  1
  4  5  1  0
  4 13  1  0
  5  6  1  0
  6  7  1  6
  6  8  1  0
  8  9  1  6
  8 13  1  0
  9 10  1  0
 10 11  2  0
 10 12  1  0
M  END
