
     RDKit          3D

 13 13  0  0  0  0  0  0  0  0999 V2000
    4.3410    0.8450   -0.4330 N   0  0  0  0  0  0  0  0  0  0  0  0
    2.9900    0.7900    0.0070 C   0  0  0  0  0  0  0  0  0  0  0  0
    2.6500    1.6710    0.8630 O   0  0  0  0  0  0  0  0  0  0  0  0
    2.0590   -0.1770   -0.4650 N   0  0  0  0  0  0  0  0  0  0  0  0
    0.7310   -0.1310    0.0520 C   0  0  2  0  0  0  0  0  0  0  0  0
    0.2770   -1.4250    0.6860 C   0  0  0  0  0  0  0  0  0  0  0  0
   -1.0750   -1.1110    0.8370 O   0  0  0  0  0  0  0  0  0  0  0  0
   -1.4110   -0.2610   -0.1990 C   0  0  2  0  0  0  0  0  0  0  0  0
   -1.9260    1.0750    0.2890 C   0  0  0  0  0  0  0  0  0  0  0  0
   -2.2370    1.8610   -0.8190 O   0  0  0  0  0  0  0  0  0  0  0  0
   -2.4540   -0.9700   -1.0390 C   0  0  0  0  0  0  0  0  0  0  0  0
   -3.5460   -1.2270   -0.2090 O   0  0  0  0  0  0  0  0  0  0  0  0
   -0.2500   -0.0060   -0.9270 O   0  0  0  0  0  0  0  0  0  0  0  0
  1  2  1  0
  2  3  2  0
  2  4  1  0
  5  4  1  6
  5  6  1  0
  5 13  1  0
  6  7  1  0
  7  8  1  0
  8  9  1  1
  8 11  1  0
  8 13  1  0
  9 10  1  0
 11 12  1  0
M  END
