
     RDKit          3D

 13 12  0  0  0  0  0  0  0  0999 V2000
   -3.5310   -0.3130    0.9270 N   0  0  0  0  0  0  0  0  0  0  0  0
   -2.2070   -0.7530    0.6450 C   0  0  0  0  0  0  0  0  0  0  0  0
   -1.3900   -0.0540   -0.1570 C   0  0  0  0  0  0  0  0  0  0  0  0
   -1.8960    1.1910   -0.7470 C   0  0  0  0  0  0  0  0  0  0  0  0
   -1.2130    2.3340   -0.4320 O   0  0  0  0  0  0  0  0  0  0  0  0
   -0.0580   -0.5620   -0.4220 C   0  0  2  0  0  0  0  0  0  0  0  0
    0.1540   -1.8000    0.2620 O   0  0  0  0  0  0  0  0  0  0  0  0
    1.0990    0.2910   -0.0340 C   0  0  2  0  0  0  0  0  0  0  0  0
    1.1880    1.5060   -0.7090 O   0  0  0  0  0  0  0  0  0  0  0  0
    2.3050   -0.4470   -0.4670 N   0  0  0  0  0  0  0  0  0  0  0  0
    3.2980   -0.7870    0.4680 C   0  0  0  0  0  0  0  0  0  0  0  0
    3.1510   -0.4610    1.6630 O   0  0  0  0  0  0  0  0  0  0  0  0
    4.4600   -1.4830    0.1240 O   0  0  0  0  0  0  0  0  0  0  0  0
  1  2  1  0
  2  3  2  3
  3  4  1  0
  3  6  1  0
  4  5  1  0
  6  7  1  1
  6  8  1  0
  8  9  1  6
  8 10  1  0
 10 11  1  0
 11 12  2  0
 11 13  1  0
M  END
