
     RDKit          3D

 12 12  0  0  0  0  0  0  0  0999 V2000
    2.9190   -0.2780   -0.8700 N   0  0  0  0  0  0  0  0  0  0  0  0
    1.7350   -0.5200   -0.0700 C   0  0  1  0  0  0  0  0  0  0  0  0
    1.9860    0.0070    1.1950 O   0  0  0  0  0  0  0  0  0  0  0  0
    0.5080    0.1300   -0.6750 C   0  0  0  0  0  0  0  0  0  0  0  0
   -0.6730   -0.1670    0.2110 C   0  0  2  0  0  0  0  0  0  0  0  0
   -0.9260   -1.6460    0.3450 C   0  0  0  0  0  0  0  0  0  0  0  0
   -1.1540   -2.1420   -0.9380 O   0  0  0  0  0  0  0  0  0  0  0  0
   -1.9110    0.5720   -0.2360 C   0  0  0  0  0  0  0  0  0  0  0  0
   -1.5430    1.9520    0.1140 N   0  0  0  0  0  0  0  0  0  0  0  0
   -0.6920    1.8110    1.2470 C   0  0  0  0  0  0  0  0  0  0  0  0
   -0.2800    2.8040    1.9030 O   0  0  0  0  0  0  0  0  0  0  0  0
   -0.4250    0.4500    1.4700 O   0  0  0  0  0  0  0  0  0  0  0  0
  2  1  1  6
  2  3  1  0
  2  4  1  0
  5  4  1  6
  5  6  1  0
  5  8  1  0
  5 12  1  0
  6  7  1  0
  8  9  1  0
  9 10  1  0
 10 11  2  0
 10 12  1  0
M  END
