
     RDKit          3D

 13 13  0  0  0  0  0  0  0  0999 V2000
    3.0390    1.1410   -1.0710 N   0  0  0  0  0  0  0  0  0  0  0  0
    2.2640    0.3860   -0.1040 C   0  0  0  0  0  0  0  0  0  0  0  0
    1.1490   -0.2100   -0.6910 O   0  0  0  0  0  0  0  0  0  0  0  0
    0.4670   -0.9030    0.2730 C   0  0  2  0  0  0  0  0  0  0  0  0
    0.4580   -2.2730   -0.0620 O   0  0  0  0  0  0  0  0  0  0  0  0
   -0.9690   -0.4890    0.4220 C   0  0  1  0  0  0  0  0  0  0  0  0
   -1.5890   -1.2260    1.4060 O   0  0  0  0  0  0  0  0  0  0  0  0
   -1.1450    0.9680    0.7190 C   0  0  0  0  0  0  0  0  0  0  0  0
   -2.5300    1.2200    0.2210 C   0  0  0  0  0  0  0  0  0  0  0  0
   -3.3210    2.1380    0.5560 O   0  0  0  0  0  0  0  0  0  0  0  0
   -2.8540    0.2230   -0.7390 N   0  0  0  0  0  0  0  0  0  0  0  0
   -1.7460   -0.6630   -0.8340 C   0  0  0  0  0  0  0  0  0  0  0  0
   -1.4210   -1.4580   -1.7530 O   0  0  0  0  0  0  0  0  0  0  0  0
  1  2  1  0
  2  3  1  0
  3  4  1  0
  4  5  1  6
  4  6  1  0
  6  7  1  1
  6  8  1  0
  6 12  1  0
  8  9  1  0
  9 10  2  0
  9 11  1  0
 11 12  1  0
 12 13  2  0
M  END
