
     RDKit          3D

 13 13  0  0  0  0  0  0  0  0999 V2000
    2.9030   -0.7460    0.2400 N   0  0  0  0  0  0  0  0  0  0  0  0
    1.5860   -0.9650   -0.2490 C   0  0  0  0  0  0  0  0  0  0  0  0
    1.4180   -1.8910   -1.0790 O   0  0  0  0  0  0  0  0  0  0  0  0
    0.4540   -0.1240    0.2110 C   0  0  2  0  0  0  0  0  0  0  0  0
    0.9450    0.8180    1.1290 O   0  0  0  0  0  0  0  0  0  0  0  0
   -0.4890   -0.9840    0.9280 C   0  0  0  0  0  0  0  0  0  0  0  0
   -0.0830   -1.6780    1.8850 O   0  0  0  0  0  0  0  0  0  0  0  0
   -1.8530   -1.0350    0.5480 N   0  0  0  0  0  0  0  0  0  0  0  0
   -2.4260    0.0900   -0.0970 C   0  0  0  0  0  0  0  0  0  0  0  0
   -3.6660    0.2430   -0.1690 O   0  0  0  0  0  0  0  0  0  0  0  0
   -1.5430    1.0970   -0.6910 C   0  0  0  0  0  0  0  0  0  0  0  0
   -0.1570    0.5740   -0.9780 C   0  0  1  0  0  0  0  0  0  0  0  0
    0.6410    1.6940   -1.2710 O   0  0  0  0  0  0  0  0  0  0  0  0
  1  2  1  0
  2  3  2  0
  2  4  1  0
  4  5  1  1
  4  6  1  0
  4 12  1  0
  6  7  2  0
  6  8  1  0
  8  9  1  0
  9 10  2  0
  9 11  1  0
 11 12  1  0
 12 13  1  1
M  END
