
     RDKit          3D

 28 30  0  0  0  0  0  0  0  0999 V2000
   -6.1450    0.4040   -2.6940 N   0  0  0  0  0  0  0  0  0  0  0  0
   -5.1430    0.7340   -1.7110 C   0  0  0  0  0  0  0  0  0  0  0  0
   -4.9910    1.9490   -1.3240 N   0  0  0  0  0  0  0  0  0  0  0  0
   -4.3590   -0.3330   -1.2530 N   0  0  0  0  0  0  0  0  0  0  0  0
   -3.2960   -0.2700   -0.3330 C   0  0  0  0  0  0  0  0  0  0  0  0
   -1.9470    0.1660   -0.7610 C   0  0  1  0  0  0  0  0  0  0  0  0
   -1.7640    1.5020   -1.3180 C   0  0  0  0  0  0  0  0  0  0  0  0
   -1.6310    2.3770   -0.1040 C   0  0  0  0  0  0  0  0  0  0  0  0
   -1.8570    3.7330   -0.0360 C   0  0  0  0  0  0  0  0  0  0  0  0
   -1.6870    4.3470    1.1900 C   0  0  0  0  0  0  0  0  0  0  0  0
   -1.3030    3.5900    2.2760 C   0  0  0  0  0  0  0  0  0  0  0  0
   -1.0820    2.2390    2.1900 C   0  0  0  0  0  0  0  0  0  0  0  0
   -1.2480    1.5960    0.9600 C   0  0  0  0  0  0  0  0  0  0  0  0
   -1.0900    0.1950    0.5200 C   0  0  2  0  0  0  0  0  0  0  0  0
    0.3090    0.0020    0.1910 N   0  0  0  0  0  0  0  0  0  0  0  0
    1.1090   -1.0320    0.7440 C   0  0  0  0  0  0  0  0  0  0  0  0
    0.5820   -1.8150    1.5550 O   0  0  0  0  0  0  0  0  0  0  0  0
    2.5380   -1.1770    0.3670 C   0  0  0  0  0  0  0  0  0  0  0  0
    3.0330   -0.3870   -0.4380 O   0  0  0  0  0  0  0  0  0  0  0  0
    3.3310   -2.2090    0.9210 N   0  0  0  0  0  0  0  0  0  0  0  0
    4.7030   -2.4540    0.6470 C   0  0  0  0  0  0  0  0  0  0  0  0
    5.2150   -3.6410    1.1950 C   0  0  0  0  0  0  0  0  0  0  0  0
    6.5150   -4.0390    1.0420 C   0  0  0  0  0  0  0  0  0  0  0  0
    7.3520   -3.2220    0.3120 C   0  0  0  0  0  0  0  0  0  0  0  0
    9.0290   -3.7220    0.1070 Cl  0  0  0  0  0  0  0  0  0  0  0  0
    6.8710   -2.0530   -0.2340 C   0  0  0  0  0  0  0  0  0  0  0  0
    7.6860   -1.2480   -0.9510 F   0  0  0  0  0  0  0  0  0  0  0  0
    5.5380   -1.6630   -0.0670 C   0  0  0  0  0  0  0  0  0  0  0  0
  1  2  1  0
  2  3  2  0
  2  4  1  0
  4  5  1  0
  6  5  1  1
  6  7  1  0
  6 14  1  0
  7  8  1  0
  8  9  2  0
  8 13  1  0
  9 10  1  0
 10 11  2  0
 11 12  1  0
 12 13  2  0
 13 14  1  0
 14 15  1  6
 15 16  1  0
 16 17  2  0
 16 18  1  0
 18 19  2  0
 18 20  1  0
 20 21  1  0
 21 22  2  0
 21 28  1  0
 22 23  1  0
 23 24  2  0
 24 25  1  0
 24 26  1  0
 26 27  1  0
 26 28  2  0
M  CHG  1   3   1
M  END
