
     RDKit          3D

 13 13  0  0  0  0  0  0  0  0999 V2000
    2.8060    0.4230   -1.0620 N   0  0  0  0  0  0  0  0  0  0  0  0
    2.8690   -0.1130    0.2290 C   0  0  0  0  0  0  0  0  0  0  0  0
    3.9590    0.0200    0.8520 O   0  0  0  0  0  0  0  0  0  0  0  0
    1.7900   -0.8010    0.9000 C   0  0  0  0  0  0  0  0  0  0  0  0
    0.6030   -0.9970    0.3220 O   0  0  0  0  0  0  0  0  0  0  0  0
   -0.1630    0.0470   -0.0950 C   0  0  1  0  0  0  0  0  0  0  0  0
   -0.5020   -0.0840   -1.5100 C   0  0  0  0  0  0  0  0  0  0  0  0
    0.1920   -0.1920   -2.5640 O   0  0  0  0  0  0  0  0  0  0  0  0
   -1.8870   -0.0770   -1.5940 O   0  0  0  0  0  0  0  0  0  0  0  0
   -2.4310    0.0480   -0.3270 C   0  0  0  0  0  0  0  0  0  0  0  0
   -3.8640    0.0860   -0.0880 N   0  0  0  0  0  0  0  0  0  0  0  0
   -1.4810    0.1230    0.5710 C   0  0  0  0  0  0  0  0  0  0  0  0
   -1.7710    0.2530    1.9270 O   0  0  0  0  0  0  0  0  0  0  0  0
  1  2  1  0
  2  3  2  0
  2  4  1  0
  4  5  1  0
  6  5  1  1
  6  7  1  0
  6 12  1  0
  7  8  2  0
  7  9  1  0
  9 10  1  0
 10 11  1  0
 10 12  2  0
 12 13  1  0
M  END
