
     RDKit          3D

 13 13  0  0  0  0  0  0  0  0999 V2000
    4.3040    0.4730   -0.0280 N   0  0  0  0  0  0  0  0  0  0  0  0
    3.2350   -0.2320   -0.6360 C   0  0  0  0  0  0  0  0  0  0  0  0
    3.4280   -0.9480   -1.6690 O   0  0  0  0  0  0  0  0  0  0  0  0
    1.9120   -0.1520   -0.0980 N   0  0  0  0  0  0  0  0  0  0  0  0
    0.8090   -0.8210   -0.6460 C   0  0  0  0  0  0  0  0  0  0  0  0
    0.9790   -1.5330   -1.6670 O   0  0  0  0  0  0  0  0  0  0  0  0
   -0.5070   -0.6920   -0.0440 C   0  0  2  0  0  0  0  0  0  0  0  0
   -1.5090   -1.4050   -0.6840 O   0  0  0  0  0  0  0  0  0  0  0  0
   -2.5890   -1.0870    0.1420 C   0  0  0  0  0  0  0  0  0  0  0  0
   -2.5010    0.4030    0.4030 C   0  0  1  0  0  0  0  0  0  0  0  0
   -2.5230    0.6620    1.7910 O   0  0  0  0  0  0  0  0  0  0  0  0
   -1.0780    0.7070   -0.0930 C   0  0  2  0  0  0  0  0  0  0  0  0
   -1.1820    1.1450   -1.3990 O   0  0  0  0  0  0  0  0  0  0  0  0
  1  2  1  0
  2  3  2  0
  2  4  1  0
  4  5  1  0
  5  6  2  0
  7  5  1  6
  7  8  1  0
  7 12  1  0
  8  9  1  0
  9 10  1  0
 10 11  1  1
 10 12  1  0
 12 13  1  6
M  END
