
     RDKit          3D

 10 10  0  0  0  0  0  0  0  0999 V2000
    3.8830   -0.0290   -0.0480 C   0  0  0  0  0  0  0  0  0  0  0  0
    2.5690    0.2180    0.3140 O   0  0  0  0  0  0  0  0  0  0  0  0
    1.7550   -0.0870   -0.7670 C   0  0  0  0  0  0  0  0  0  0  0  0
    0.2930    0.1530   -0.4650 C   0  0  1  0  0  0  0  0  0  0  0  0
   -0.2120   -0.8380    0.5630 C   0  0  0  0  0  0  0  0  0  0  0  0
   -1.5160   -1.3330    0.2290 N   0  0  0  0  0  0  0  0  0  0  0  0
   -2.5710   -0.3900    0.4140 C   0  0  0  0  0  0  0  0  0  0  0  0
   -2.3210    0.9430   -0.2250 C   0  0  0  0  0  0  0  0  0  0  0  0
   -1.1870    1.6160    0.4780 C   0  0  0  0  0  0  0  0  0  0  0  0
    0.0320    1.4610   -0.1370 O   0  0  0  0  0  0  0  0  0  0  0  0
  1  2  1  0
  2  3  1  0
  4  3  1  1
  4  5  1  0
  4 10  1  0
  5  6  1  0
  6  7  1  0
  7  8  1  0
  8  9  1  0
  9 10  1  0
M  CHG  1   6   1
M  END
