
     RDKit          3D

 10  9  0  0  0  0  0  0  0  0999 V2000
    2.8940    1.0880    0.3190 O   0  0  0  0  0  0  0  0  0  0  0  0
    2.7520   -0.3040    0.4270 C   0  0  0  0  0  0  0  0  0  0  0  0
    1.4340   -0.6910   -0.2000 C   0  0  0  0  0  0  0  0  0  0  0  0
    0.3880   -0.0450    0.4750 O   0  0  0  0  0  0  0  0  0  0  0  0
   -0.8200   -0.3960   -0.0950 C   0  0  1  0  0  0  0  0  0  0  0  0
   -1.6300   -1.1140    0.9680 C   0  0  0  0  0  0  0  0  0  0  0  0
   -1.8480   -0.3030    2.0550 F   0  0  0  0  0  0  0  0  0  0  0  0
   -1.6210    0.7770   -0.5770 C   0  0  2  0  0  0  0  0  0  0  0  0
   -0.9010    1.4810   -1.5440 O   0  0  0  0  0  0  0  0  0  0  0  0
   -1.8790    1.6790    0.4700 O   0  0  0  0  0  0  0  0  0  0  0  0
  1  2  1  0
  2  3  1  0
  3  4  1  0
  4  5  1  0
  5  6  1  1
  5  8  1  0
  6  7  1  0
  8  9  1  6
  8 10  1  0
M  END
