
     RDKit          3D

 10  9  0  0  0  0  0  0  0  0999 V2000
   -0.5920    1.6160   -0.7930 C   0  0  0  0  0  0  0  0  0  0  0  0
   -0.6230    0.2610    0.0180 C   0  0  1  0  0  0  0  0  0  0  0  0
   -1.0760    0.6660    1.2810 O   0  0  0  0  0  0  0  0  0  0  0  0
   -1.4840   -0.4950   -0.7020 O   0  0  0  0  0  0  0  0  0  0  0  0
   -1.9500   -1.6750   -0.2740 C   0  0  0  0  0  0  0  0  0  0  0  0
   -1.0380   -2.6770   -0.0750 F   0  0  0  0  0  0  0  0  0  0  0  0
    0.7410   -0.3120    0.0230 C   0  0  2  0  0  0  0  0  0  0  0  0
    0.8060   -1.3850    0.8950 O   0  0  0  0  0  0  0  0  0  0  0  0
    1.8260    0.6600    0.4090 C   0  0  0  0  0  0  0  0  0  0  0  0
    3.0380   -0.0430    0.2880 O   0  0  0  0  0  0  0  0  0  0  0  0
  2  1  1  6
  2  3  1  0
  2  4  1  0
  2  7  1  0
  4  5  1  0
  5  6  1  0
  7  8  1  1
  7  9  1  0
  9 10  1  0
M  END
