
     RDKit          3D

 23 26  0  0  0  0  0  0  0  0999 V2000
    5.7230    3.4600    0.6150 N   0  0  0  0  0  0  0  0  0  0  0  0
    5.1130    2.4830    0.6180 C   0  0  0  0  0  0  0  0  0  0  0  0
    4.3320    1.2490    0.6470 C   0  0  0  0  0  0  0  0  0  0  0  0
    2.9040    1.5290    0.2770 C   0  0  0  0  0  0  0  0  0  0  0  0
    2.5760    2.6950    0.0100 O   0  0  0  0  0  0  0  0  0  0  0  0
    1.9690    0.4670    0.2420 N   0  0  0  0  0  0  0  0  0  0  0  0
    2.3280   -0.9030    0.5510 C   0  0  0  0  0  0  0  0  0  0  0  0
    2.1670   -1.7140   -0.6880 C   0  0  0  0  0  0  0  0  0  0  0  0
    1.0700   -1.2960   -1.5930 C   0  0  0  0  0  0  0  0  0  0  0  0
    0.0290   -0.3950   -0.9870 C   0  0  1  0  0  0  0  0  0  0  0  0
   -0.8900   -1.1980   -0.2080 N   0  0  0  0  0  0  0  0  0  0  0  0
   -0.6400   -2.4310    0.2180 N   0  0  0  0  0  0  0  0  0  0  0  0
   -1.6550   -2.9070    0.8980 N   0  0  0  0  0  0  0  0  0  0  0  0
   -2.6170   -1.9790    0.9360 C   0  0  0  0  0  0  0  0  0  0  0  0
   -3.8830   -1.9210    1.4980 C   0  0  0  0  0  0  0  0  0  0  0  0
   -4.5930   -0.7990    1.3340 N   0  0  0  0  0  0  0  0  0  0  0  0
   -4.1380    0.2640    0.6560 C   0  0  0  0  0  0  0  0  0  0  0  0
   -4.6850    1.4870    0.3710 N   0  0  0  0  0  0  0  0  0  0  0  0
   -3.8020    2.2030   -0.3520 C   0  0  0  0  0  0  0  0  0  0  0  0
   -2.6530    1.4490   -0.5540 C   0  0  0  0  0  0  0  0  0  0  0  0
   -2.8810    0.2500    0.0790 C   0  0  0  0  0  0  0  0  0  0  0  0
   -2.1100   -0.8940    0.2240 C   0  0  0  0  0  0  0  0  0  0  0  0
    0.5840    0.6740   -0.1050 C   0  0  0  0  0  0  0  0  0  0  0  0
  1  2  3  0
  2  3  1  0
  3  4  1  0
  4  5  2  0
  4  6  1  0
  6  7  1  0
  6 23  1  0
  7  8  1  0
  8  9  1  0
  9 10  1  0
 10 11  1  1
 10 23  1  0
 11 12  1  0
 11 22  1  0
 12 13  2  0
 13 14  1  0
 14 15  2  0
 14 22  1  0
 15 16  1  0
 16 17  2  0
 17 18  1  0
 17 21  1  0
 18 19  1  0
 19 20  2  0
 20 21  1  0
 21 22  2  0
M  END
