
     RDKit          3D

 10 10  0  0  0  0  0  0  0  0999 V2000
   -3.1060    0.7090   -0.7280 C   0  0  0  0  0  0  0  0  0  0  0  0
   -1.9060    0.3000   -1.3310 O   0  0  0  0  0  0  0  0  0  0  0  0
   -0.9240    0.3100   -0.3730 C   0  0  2  0  0  0  0  0  0  0  0  0
    0.1900    1.0620   -0.7180 O   0  0  0  0  0  0  0  0  0  0  0  0
    1.2830    0.5360   -0.0850 C   0  0  2  0  0  0  0  0  0  0  0  0
    1.7860    1.5630    0.9120 C   0  0  0  0  0  0  0  0  0  0  0  0
    2.4380    0.2450   -1.0330 C   0  0  0  0  0  0  0  0  0  0  0  0
    0.9150   -0.7000    0.5410 N   0  0  0  0  0  0  0  0  0  0  0  0
   -0.2960   -1.0620   -0.1560 C   0  0  1  0  0  0  0  0  0  0  0  0
   -1.1480   -1.9600    0.6750 C   0  0  0  0  0  0  0  0  0  0  0  0
  1  2  1  0
  3  2  1  6
  3  4  1  0
  3  9  1  0
  4  5  1  0
  5  6  1  1
  5  7  1  0
  5  8  1  0
  8  9  1  0
  9 10  1  1
M  CHG  1   8   1
M  END
