
     RDKit          3D

 10  9  0  0  0  0  0  0  0  0999 V2000
   -2.0000    0.5700    1.3000 O   0  0  0  0  0  0  0  0  0  0  0  0
   -2.4760   -0.3790    0.4040 C   0  0  0  0  0  0  0  0  0  0  0  0
   -1.4940   -0.4880   -0.7640 C   0  0  2  0  0  0  0  0  0  0  0  0
   -1.9760   -1.4420   -1.6620 O   0  0  0  0  0  0  0  0  0  0  0  0
   -0.2850   -0.9350   -0.2890 O   0  0  0  0  0  0  0  0  0  0  0  0
    0.7450   -0.0560   -0.5990 C   0  0  2  0  0  0  0  0  0  0  0  0
    1.6560   -0.7140   -1.4340 O   0  0  0  0  0  0  0  0  0  0  0  0
    1.4460    0.3070    0.6760 C   0  0  0  0  0  0  0  0  0  0  0  0
    2.5890    1.2600    0.4730 C   0  0  0  0  0  0  0  0  0  0  0  0
    3.1340    1.5000    1.7410 F   0  0  0  0  0  0  0  0  0  0  0  0
  1  2  1  0
  2  3  1  0
  3  4  1  6
  3  5  1  0
  5  6  1  0
  6  7  1  6
  6  8  1  0
  8  9  1  0
  9 10  1  0
M  END
