
     RDKit          3D

 10 10  0  0  0  0  0  0  0  0999 V2000
   -0.3430    2.1000    0.0160 C   0  0  0  0  0  0  0  0  0  0  0  0
   -0.6050    0.8360    0.8040 C   0  0  1  0  0  0  0  0  0  0  0  0
   -2.0920    0.6200    0.8250 C   0  0  0  0  0  0  0  0  0  0  0  0
   -2.4770   -0.6870    1.0390 O   0  0  0  0  0  0  0  0  0  0  0  0
   -1.9460   -1.5190    0.0610 C   0  0  0  0  0  0  0  0  0  0  0  0
   -0.4680   -1.4280   -0.0680 C   0  0  0  0  0  0  0  0  0  0  0  0
    0.1650   -0.2620    0.3890 N   0  0  0  0  0  0  0  0  0  0  0  0
    1.3830    0.1150   -0.2320 C   0  0  0  0  0  0  0  0  0  0  0  0
    2.5450   -0.7980    0.0290 C   0  0  0  0  0  0  0  0  0  0  0  0
    2.8400   -0.8810    1.3820 O   0  0  0  0  0  0  0  0  0  0  0  0
  2  1  1  6
  2  3  1  0
  2  7  1  0
  3  4  1  0
  4  5  1  0
  5  6  1  0
  6  7  1  0
  7  8  1  0
  8  9  1  0
  9 10  1  0
M  END
