
     RDKit          3D

 10 10  0  0  0  0  0  0  0  0999 V2000
    3.1990    0.5810   -0.1000 C   0  0  0  0  0  0  0  0  0  0  0  0
    2.5320   -0.4690   -0.6810 O   0  0  0  0  0  0  0  0  0  0  0  0
    1.5230   -1.0420    0.0580 C   0  0  0  0  0  0  0  0  0  0  0  0
    0.4600   -0.0220    0.3520 C   0  0  2  0  0  0  0  0  0  0  0  0
   -0.7030   -0.6850    1.0830 C   0  0  0  0  0  0  0  0  0  0  0  0
   -1.9260   -0.0030    0.7280 N   0  0  0  0  0  0  0  0  0  0  0  0
   -1.8020    1.4230    0.6990 C   0  0  0  0  0  0  0  0  0  0  0  0
   -2.2620   -0.4560   -0.6310 C   0  0  0  0  0  0  0  0  0  0  0  0
   -0.9840   -0.3190   -1.4350 C   0  0  0  0  0  0  0  0  0  0  0  0
   -0.0700    0.5050   -0.8110 O   0  0  0  0  0  0  0  0  0  0  0  0
  1  2  1  0
  2  3  1  0
  4  3  1  6
  4  5  1  0
  4 10  1  0
  5  6  1  0
  6  7  1  0
  6  8  1  0
  8  9  1  0
  9 10  1  0
M  END
