
     RDKit          3D

 30 34  0  0  0  0  0  0  0  0999 V2000
    4.9270   -2.6420   -0.3170 C   0  0  0  0  0  0  0  0  0  0  0  0
    4.6100   -1.2320   -0.2400 N   0  0  0  0  0  0  0  0  0  0  0  0
    3.2740   -0.8440   -0.5950 C   0  0  0  0  0  0  0  0  0  0  0  0
    2.2880   -1.2900    0.1350 C   0  0  0  0  0  0  0  0  0  0  0  0
    0.8950   -0.9620   -0.1310 C   0  0  0  0  0  0  0  0  0  0  0  0
    0.5670   -0.1370   -1.2060 C   0  0  0  0  0  0  0  0  0  0  0  0
   -0.7610    0.1600   -1.4390 C   0  0  0  0  0  0  0  0  0  0  0  0
   -1.7760   -0.3280   -0.6480 C   0  0  0  0  0  0  0  0  0  0  0  0
   -3.1760    0.0630   -0.9990 C   0  0  1  0  0  0  0  0  0  0  0  0
   -4.1150   -0.9880   -0.9250 N   0  0  0  0  0  0  0  0  0  0  0  0
   -4.9630   -1.1220    0.1890 C   0  0  0  0  0  0  0  0  0  0  0  0
   -6.2640   -0.3030    0.0940 C   0  0  0  0  0  0  0  0  0  0  0  0
   -5.9090    1.0780    0.5240 C   0  0  0  0  0  0  0  0  0  0  0  0
   -4.7600    1.6500    0.2990 C   0  0  0  0  0  0  0  0  0  0  0  0
   -3.5130    1.3210   -0.3370 C   0  0  0  0  0  0  0  0  0  0  0  0
   -2.7780    2.4060   -0.1790 C   0  0  0  0  0  0  0  0  0  0  0  0
   -3.5160    3.4210    0.5400 N   0  0  0  0  0  0  0  0  0  0  0  0
   -4.6960    3.0030    0.8380 C   0  0  0  0  0  0  0  0  0  0  0  0
   -6.0230    3.1800    1.4460 C   0  0  0  0  0  0  0  0  0  0  0  0
   -6.7260    2.0430    1.2540 C   0  0  0  0  0  0  0  0  0  0  0  0
   -1.4470   -1.1240    0.3890 C   0  0  0  0  0  0  0  0  0  0  0  0
   -0.1270   -1.4540    0.6680 C   0  0  0  0  0  0  0  0  0  0  0  0
    0.1050   -2.2700    1.7440 O   0  0  0  0  0  0  0  0  0  0  0  0
    5.5730   -0.2820    0.1650 C   0  0  0  0  0  0  0  0  0  0  0  0
    6.8380   -0.7150    0.4950 C   0  0  0  0  0  0  0  0  0  0  0  0
    7.8240    0.1540    0.8980 C   0  0  0  0  0  0  0  0  0  0  0  0
    7.4940    1.4910    0.9590 C   0  0  0  0  0  0  0  0  0  0  0  0
    6.2760    1.9540    0.6460 N   0  0  0  0  0  0  0  0  0  0  0  0
    5.3240    1.0610    0.2510 C   0  0  0  0  0  0  0  0  0  0  0  0
    4.0300    1.5570   -0.0800 N   0  0  0  0  0  0  0  0  0  0  0  0
  1  2  1  0
  2  3  1  0
  2 24  1  0
  3  4  2  3
  4  5  1  0
  5  6  2  0
  5 22  1  0
  6  7  1  0
  7  8  2  0
  9  8  1  1
  8 21  1  0
  9 10  1  0
  9 15  1  0
 10 11  1  0
 11 12  1  0
 12 13  1  0
 13 14  2  0
 13 20  1  0
 14 15  1  0
 14 18  1  0
 15 16  2  0
 16 17  1  0
 17 18  2  0
 18 19  1  0
 19 20  2  0
 21 22  2  0
 22 23  1  0
 24 25  2  0
 24 29  1  0
 25 26  1  0
 26 27  2  0
 27 28  1  0
 28 29  2  0
 29 30  1  0
M  CHG  1  10   1
M  END
