
     RDKit          3D

 29 32  0  0  0  0  0  0  0  0999 V2000
   -3.3020    0.1660    1.3630 C   0  0  0  0  0  0  0  0  0  0  0  0
   -3.9440    0.3350    0.0290 C   0  0  0  0  0  0  0  0  0  0  0  0
   -3.6710    1.1330   -1.0090 C   0  0  0  0  0  0  0  0  0  0  0  0
   -2.6150    2.0460   -1.3270 C   0  0  0  0  0  0  0  0  0  0  0  0
   -1.3630    2.1050   -1.1390 C   0  0  0  0  0  0  0  0  0  0  0  0
   -0.4400    1.2180   -0.5070 C   0  0  0  0  0  0  0  0  0  0  0  0
   -0.7500    0.1000   -0.0350 O   0  0  0  0  0  0  0  0  0  0  0  0
    0.9480    1.6040   -0.3850 N   0  0  0  0  0  0  0  0  0  0  0  0
    1.8760    0.7490    0.2490 C   0  0  0  0  0  0  0  0  0  0  0  0
    1.5550   -0.1350    1.2220 C   0  0  0  0  0  0  0  0  0  0  0  0
    2.5200   -0.9620    1.7740 C   0  0  0  0  0  0  0  0  0  0  0  0
    3.8000   -0.8680    1.3190 C   0  0  0  0  0  0  0  0  0  0  0  0
    4.1970    0.0070    0.3350 C   0  0  0  0  0  0  0  0  0  0  0  0
    5.5580    0.1250   -0.1660 C   0  0  0  0  0  0  0  0  0  0  0  0
    5.8510    0.9560   -1.0780 O   0  0  0  0  0  0  0  0  0  0  0  0
    6.6510   -0.6580    0.3080 N   0  0  0  0  0  0  0  0  0  0  0  0
    7.9680   -0.5150   -0.2050 C   0  0  0  0  0  0  0  0  0  0  0  0
    8.4180    0.3000   -1.1460 N   0  0  0  0  0  0  0  0  0  0  0  0
    9.7460    0.1230   -1.3440 C   0  0  0  0  0  0  0  0  0  0  0  0
   10.1310   -0.8660   -0.4640 C   0  0  0  0  0  0  0  0  0  0  0  0
    9.0180   -1.2350    0.2180 N   0  0  0  0  0  0  0  0  0  0  0  0
    3.2230    0.8120   -0.1930 C   0  0  0  0  0  0  0  0  0  0  0  0
   -4.6740    0.9500   -1.9160 O   0  0  0  0  0  0  0  0  0  0  0  0
   -5.5340    0.0960   -1.5070 C   0  0  0  0  0  0  0  0  0  0  0  0
   -5.1390   -0.3430   -0.2770 C   0  0  0  0  0  0  0  0  0  0  0  0
   -5.9660   -1.3450    0.4240 C   0  0  0  0  0  0  0  0  0  0  0  0
   -7.3890   -0.8280    0.4040 C   0  0  0  0  0  0  0  0  0  0  0  0
   -7.8520   -0.4720   -0.9670 C   0  0  0  0  0  0  0  0  0  0  0  0
   -6.8030   -0.5020   -2.0330 C   0  0  0  0  0  0  0  0  0  0  0  0
  1  2  1  0
  2  3  2  0
  2 25  1  0
  3  4  1  0
  3 23  1  0
  4  5  2  3
  5  6  1  0
  6  7  2  0
  6  8  1  0
  8  9  1  0
  9 10  2  0
  9 22  1  0
 10 11  1  0
 11 12  2  0
 12 13  1  0
 13 14  1  0
 13 22  2  0
 14 15  2  0
 14 16  1  0
 16 17  1  0
 17 18  2  0
 17 21  1  0
 18 19  1  0
 19 20  2  0
 20 21  1  0
 23 24  1  0
 24 25  2  0
 24 29  1  0
 25 26  1  0
 26 27  1  0
 27 28  1  0
 28 29  1  0
M  END
