
     RDKit          3D

 29 32  0  0  0  0  0  0  0  0999 V2000
   -7.1260    2.1480   -1.2660 C   0  0  0  0  0  0  0  0  0  0  0  0
   -7.0340    0.6820   -1.1960 C   0  0  0  0  0  0  0  0  0  0  0  0
   -8.1420   -0.0910   -1.4540 C   0  0  0  0  0  0  0  0  0  0  0  0
   -8.0210   -1.4690   -1.3790 C   0  0  0  0  0  0  0  0  0  0  0  0
   -6.8110   -2.0310   -1.0520 C   0  0  0  0  0  0  0  0  0  0  0  0
   -6.6750   -3.4180   -0.9730 O   0  0  0  0  0  0  0  0  0  0  0  0
   -5.6900   -1.2820   -0.7890 C   0  0  0  0  0  0  0  0  0  0  0  0
   -4.4530   -1.5850   -0.4630 O   0  0  0  0  0  0  0  0  0  0  0  0
   -3.7330   -0.4910   -0.3140 C   0  0  0  0  0  0  0  0  0  0  0  0
   -2.3240   -0.4290    0.0440 C   0  0  0  0  0  0  0  0  0  0  0  0
   -1.5350   -1.5280    0.2810 C   0  0  0  0  0  0  0  0  0  0  0  0
   -0.2170   -1.4620    0.6160 C   0  0  0  0  0  0  0  0  0  0  0  0
    0.3930   -0.2190    0.7320 C   0  0  0  0  0  0  0  0  0  0  0  0
    1.7600   -0.1250    1.0920 N   0  0  0  0  0  0  0  0  0  0  0  0
    2.5980    0.9840    1.0640 C   0  0  0  0  0  0  0  0  0  0  0  0
    2.1650    2.0900    0.6700 O   0  0  0  0  0  0  0  0  0  0  0  0
    3.9840    0.9260    1.4780 N   0  0  0  0  0  0  0  0  0  0  0  0
    4.8240    2.1010    1.4340 C   0  0  0  0  0  0  0  0  0  0  0  0
    6.1940    1.7590    1.9130 C   0  0  0  0  0  0  0  0  0  0  0  0
    6.8120    0.6940    1.0500 C   0  0  0  0  0  0  0  0  0  0  0  0
    6.2720    0.0640   -0.0450 C   0  0  0  0  0  0  0  0  0  0  0  0
    7.1460   -0.8280   -0.5370 N   0  0  0  0  0  0  0  0  0  0  0  0
    6.9600   -1.7090   -1.7010 C   0  0  0  0  0  0  0  0  0  0  0  0
    8.2340   -0.7570    0.2500 C   0  0  0  0  0  0  0  0  0  0  0  0
    8.0370    0.1630    1.2120 N   0  0  0  0  0  0  0  0  0  0  0  0
   -0.3500    0.9070    0.5060 C   0  0  0  0  0  0  0  0  0  0  0  0
   -1.7070    0.7930    0.1630 C   0  0  0  0  0  0  0  0  0  0  0  0
   -4.5590    0.5840   -0.5600 C   0  0  0  0  0  0  0  0  0  0  0  0
   -5.8250    0.1090   -0.8680 C   0  0  0  0  0  0  0  0  0  0  0  0
  1  2  1  0
  2  3  2  0
  2 29  1  0
  3  4  1  0
  4  5  2  0
  5  6  1  0
  5  7  1  0
  7  8  1  0
  7 29  2  0
  8  9  1  0
  9 10  1  0
  9 28  2  0
 10 11  2  0
 10 27  1  0
 11 12  1  0
 12 13  2  0
 13 14  1  0
 13 26  1  0
 14 15  1  0
 15 16  2  0
 15 17  1  0
 17 18  1  0
 18 19  1  0
 19 20  1  0
 20 21  2  0
 20 25  1  0
 21 22  1  0
 22 23  1  0
 22 24  1  0
 24 25  2  0
 26 27  2  0
 28 29  1  0
M  END
