
     RDKit          3D

 29 32  0  0  0  0  0  0  0  0999 V2000
   -5.2270   -2.1830   -0.2830 C   0  0  0  0  0  0  0  0  0  0  0  0
   -4.3260   -1.1530    0.2440 O   0  0  0  0  0  0  0  0  0  0  0  0
   -4.8990    0.0810    0.2770 C   0  0  0  0  0  0  0  0  0  0  0  0
   -5.8850    0.7430    0.3170 C   0  0  0  0  0  0  0  0  0  0  0  0
   -6.2110    2.1190    0.2050 C   0  0  0  0  0  0  0  0  0  0  0  0
   -4.9010    2.8550   -0.0670 C   0  0  0  0  0  0  0  0  0  0  0  0
   -5.0310    4.2160    0.1470 C   0  0  0  0  0  0  0  0  0  0  0  0
   -5.1300    5.4110    0.3480 N   0  0  0  0  0  0  0  0  0  0  0  0
   -3.9280    2.0600   -0.0970 C   0  0  0  0  0  0  0  0  0  0  0  0
   -3.4250    0.9430   -0.0170 C   0  0  0  0  0  0  0  0  0  0  0  0
   -2.6260   -0.0460    0.0030 O   0  0  0  0  0  0  0  0  0  0  0  0
   -1.8150   -0.9520    0.0030 C   0  0  0  0  0  0  0  0  0  0  0  0
   -0.4550   -0.8580   -0.3490 C   0  0  0  0  0  0  0  0  0  0  0  0
    0.3780   -1.9410   -0.3060 C   0  0  0  0  0  0  0  0  0  0  0  0
    1.7280   -1.6630   -0.6840 C   0  0  0  0  0  0  0  0  0  0  0  0
    2.6500   -1.5950   -1.3210 O   0  0  0  0  0  0  0  0  0  0  0  0
    2.2930   -0.9800    0.7520 N   0  0  0  0  0  0  0  0  0  0  0  0
    3.4930   -0.3510    0.7900 C   0  0  0  0  0  0  0  0  0  0  0  0
    3.5490    0.9900    1.2930 C   0  0  0  0  0  0  0  0  0  0  0  0
    4.6050    1.8840    1.1290 C   0  0  0  0  0  0  0  0  0  0  0  0
    5.6880    1.3920    0.3810 C   0  0  0  0  0  0  0  0  0  0  0  0
    6.7840    1.9580   -0.2360 N   0  0  0  0  0  0  0  0  0  0  0  0
    7.3960    1.2450   -0.9290 C   0  0  0  0  0  0  0  0  0  0  0  0
    6.8290   -0.0300   -1.0270 C   0  0  0  0  0  0  0  0  0  0  0  0
    5.6480    0.0560   -0.1100 C   0  0  0  0  0  0  0  0  0  0  0  0
    4.6560   -0.7830    0.0670 C   0  0  0  0  0  0  0  0  0  0  0  0
   -0.0180   -3.1540    0.0570 C   0  0  0  0  0  0  0  0  0  0  0  0
   -1.4250   -3.3530    0.4910 C   0  0  0  0  0  0  0  0  0  0  0  0
   -2.1310   -2.2480    0.4050 N   0  0  0  0  0  0  0  0  0  0  0  0
  1  2  1  0
  2  3  1  0
  3  4  2  0
  3 10  1  0
  4  5  1  0
  5  6  2  0
  6  7  1  0
  6  9  1  0
  7  8  3  0
  9 10  2  0
 10 11  1  0
 11 12  1  0
 12 13  2  0
 12 29  1  0
 13 14  1  0
 14 15  1  0
 14 27  2  0
 15 16  2  0
 15 17  1  0
 17 18  1  0
 18 19  2  0
 18 26  1  0
 19 20  1  0
 20 21  2  0
 21 22  1  0
 21 25  1  0
 22 23  1  0
 23 24  2  0
 24 25  1  0
 25 26  2  0
 27 28  1  0
 28 29  2  0
M  END
