
     RDKit          3D

 12 12  0  0  0  0  0  0  0  0999 V2000
    3.8090    1.0540   -0.4890 C   0  0  0  0  0  0  0  0  0  0  0  0
    3.0610   -0.0040    0.0850 O   0  0  0  0  0  0  0  0  0  0  0  0
    1.8480   -0.4230   -0.4390 C   0  0  0  0  0  0  0  0  0  0  0  0
    1.3570    0.1150   -1.4430 O   0  0  0  0  0  0  0  0  0  0  0  0
    1.1630   -1.5420    0.2560 C   0  0  0  0  0  0  0  0  0  0  0  0
   -0.4110   -1.9730   -0.5360 S   0  0  0  0  0  0  0  0  0  0  0  0
   -1.5660   -0.6300   -0.3570 C   0  0  0  0  0  0  0  0  0  0  0  0
   -1.7630    0.4270   -1.2080 C   0  0  0  0  0  0  0  0  0  0  0  0
   -2.7290    1.1880   -0.6690 N   0  0  0  0  0  0  0  0  0  0  0  0
   -3.1590    0.6730    0.4800 C   0  0  0  0  0  0  0  0  0  0  0  0
   -2.4380   -0.4720    0.6940 C   0  0  0  0  0  0  0  0  0  0  0  0
   -2.5390   -1.3640    1.7840 O   0  0  0  0  0  0  0  0  0  0  0  0
  1  2  1  0
  2  3  1  0
  3  4  2  0
  3  5  1  0
  5  6  1  0
  6  7  1  0
  7  8  2  0
  7 11  1  0
  8  9  1  0
  9 10  1  0
 10 11  2  0
 11 12  1  0
M  END
