
     RDKit          3D

 12 12  0  0  0  0  0  0  0  0999 V2000
   -2.3310    1.3340    0.6280 C   0  0  0  0  0  0  0  0  0  0  0  0
   -1.5640    0.4170   -0.3010 C   0  0  2  0  0  0  0  0  0  0  0  0
   -2.5120   -0.7220   -0.6430 C   0  0  0  0  0  0  0  0  0  0  0  0
   -1.7110   -1.9620   -0.3050 C   0  0  0  0  0  0  0  0  0  0  0  0
   -0.3050   -1.4300   -0.4530 C   0  0  0  0  0  0  0  0  0  0  0  0
   -0.4290   -0.1970    0.2990 N   0  0  0  0  0  0  0  0  0  0  0  0
    0.7740    0.5950    0.2550 C   0  0  0  0  0  0  0  0  0  0  0  0
    1.8410   -0.1300    1.0400 C   0  0  0  0  0  0  0  0  0  0  0  0
    3.3930    0.7830    1.0230 S   0  0  1  0  0  0  0  0  0  0  0  0
    3.2590    2.1000    1.6990 O   0  0  0  0  0  0  0  0  0  0  0  0
    4.4110   -0.0920    1.7160 O   0  0  0  0  0  0  0  0  0  0  0  0
    3.8850    0.9300   -0.5890 O   0  0  0  0  0  0  0  0  0  0  0  0
  2  1  1  1
  2  3  1  0
  2  6  1  0
  3  4  1  0
  4  5  1  0
  5  6  1  0
  6  7  1  0
  7  8  1  0
  8  9  1  0
  9 10  2  0
  9 11  2  0
  9 12  1  6
M  END
