
     RDKit          3D

 12 12  0  0  0  0  0  0  0  0999 V2000
   -3.5330   -0.4530   -0.1270 C   0  0  0  0  0  0  0  0  0  0  0  0
   -2.4140    0.5050   -0.1940 C   0  0  0  0  0  0  0  0  0  0  0  0
   -1.1820    0.0710   -0.1160 C   0  0  0  0  0  0  0  0  0  0  0  0
   -1.0000   -1.3160    0.0300 O   0  0  0  0  0  0  0  0  0  0  0  0
   -0.0230    0.9610   -0.1750 C   0  0  0  0  0  0  0  0  0  0  0  0
    1.1850    0.4560   -0.0910 C   0  0  0  0  0  0  0  0  0  0  0  0
    1.5750   -1.2900    0.0980 S   0  0  0  0  0  0  0  0  0  0  0  0
    3.3340   -1.0670    0.2930 C   0  0  0  0  0  0  0  0  0  0  0  0
    4.1240   -1.9830    0.5650 O   0  0  0  0  0  0  0  0  0  0  0  0
    3.5850    0.2830    0.0820 N   0  0  0  0  0  0  0  0  0  0  0  0
    2.4810    1.0960   -0.1200 C   0  0  0  0  0  0  0  0  0  0  0  0
    2.5490    2.3640   -0.3280 O   0  0  0  0  0  0  0  0  0  0  0  0
  1  2  1  0
  2  3  2  3
  3  4  1  0
  3  5  1  0
  5  6  2  3
  6  7  1  0
  6 11  1  0
  7  8  1  0
  8  9  2  0
  8 10  1  0
 10 11  1  0
 11 12  2  0
M  END
