
     RDKit          3D

 12 12  0  0  0  0  0  0  0  0999 V2000
    3.0380    0.0950   -0.0570 C   0  0  0  0  0  0  0  0  0  0  0  0
    1.9190   -0.7660   -0.0480 O   0  0  0  0  0  0  0  0  0  0  0  0
    0.6100   -0.3180   -0.1130 C   0  0  0  0  0  0  0  0  0  0  0  0
    0.3560    1.0340   -0.1920 C   0  0  0  0  0  0  0  0  0  0  0  0
   -0.9650    1.4470   -0.2560 C   0  0  0  0  0  0  0  0  0  0  0  0
   -1.2960    2.7940   -0.3370 O   0  0  0  0  0  0  0  0  0  0  0  0
   -2.0040    0.5410   -0.2420 C   0  0  0  0  0  0  0  0  0  0  0  0
   -1.6830   -0.7970   -0.1620 C   0  0  0  0  0  0  0  0  0  0  0  0
   -2.7710   -1.7230   -0.1490 N   0  0  0  0  0  0  0  0  0  0  0  0
   -3.5170   -2.0910    1.2470 S   0  0  0  0  0  0  0  0  0  0  0  0
   -0.3850   -1.2700   -0.0960 C   0  0  0  0  0  0  0  0  0  0  0  0
   -0.0790   -2.6300   -0.0150 O   0  0  0  0  0  0  0  0  0  0  0  0
  1  2  1  0
  2  3  1  0
  3  4  2  0
  3 11  1  0
  4  5  1  0
  5  6  1  0
  5  7  2  0
  7  8  1  0
  8  9  1  0
  8 11  2  0
  9 10  2  0
 11 12  1  0
M  END
