
     RDKit          3D

 12 12  0  0  0  0  0  0  0  0999 V2000
    0.4730    0.3570   -0.9400 O   0  0  0  0  0  0  0  0  0  0  0  0
    0.6170    0.3600    0.3000 C   0  0  0  0  0  0  0  0  0  0  0  0
   -0.5130    0.1580    1.1150 N   0  0  0  0  0  0  0  0  0  0  0  0
   -1.7990   -0.0460    0.4630 C   0  0  0  0  0  0  0  0  0  0  0  0
   -2.7860    0.7530    0.6560 C   0  0  0  0  0  0  0  0  0  0  0  0
   -4.0570    0.4780   -0.0420 C   0  0  0  0  0  0  0  0  0  0  0  0
   -3.4760   -0.6530   -1.3590 S   0  0  0  0  0  0  0  0  0  0  0  0
   -1.9780   -1.1940   -0.4350 C   0  0  0  0  0  0  0  0  0  0  0  0
    1.8760    0.5610    0.8270 O   0  0  0  0  0  0  0  0  0  0  0  0
    3.0160    0.7610    0.0550 C   0  0  0  0  0  0  0  0  0  0  0  0
    3.3350   -0.3950   -0.8500 C   0  0  0  0  0  0  0  0  0  0  0  0
    3.5560   -1.5750   -0.1390 O   0  0  0  0  0  0  0  0  0  0  0  0
  1  2  2  0
  2  3  1  0
  2  9  1  0
  3  4  1  0
  4  5  2  0
  4  8  1  0
  5  6  1  0
  6  7  1  0
  7  8  1  0
  9 10  1  0
 10 11  1  0
 11 12  1  0
M  END
