
     RDKit          3D

 12 12  0  0  0  0  0  0  0  0999 V2000
   -3.4130    0.2420   -0.3270 C   0  0  0  0  0  0  0  0  0  0  0  0
   -2.0890    0.1440    0.3590 C   0  0  0  0  0  0  0  0  0  0  0  0
   -1.6160   -1.2230    0.4770 N   0  0  0  0  0  0  0  0  0  0  0  0
   -0.0950   -1.1770    1.2800 S   0  0  1  0  0  0  0  0  0  0  0  0
   -0.3270   -0.5600    2.6380 O   0  0  0  0  0  0  0  0  0  0  0  0
    0.3330   -2.6050    1.5250 O   0  0  0  0  0  0  0  0  0  0  0  0
    1.0940   -0.2810    0.3960 C   0  0  0  0  0  0  0  0  0  0  0  0
    1.9010   -0.8140   -0.5010 C   0  0  0  0  0  0  0  0  0  0  0  0
    2.9310   -0.0960   -1.2810 C   0  0  0  0  0  0  0  0  0  0  0  0
    2.9610    1.2400   -0.9650 O   0  0  0  0  0  0  0  0  0  0  0  0
    2.1460    1.8310   -0.0460 C   0  0  0  0  0  0  0  0  0  0  0  0
    1.2290    1.1510    0.6400 C   0  0  0  0  0  0  0  0  0  0  0  0
  1  2  1  0
  2  3  1  0
  4  3  1  6
  4  5  2  0
  4  6  2  0
  4  7  1  0
  7  8  2  0
  7 12  1  0
  8  9  1  0
  9 10  1  0
 10 11  1  0
 11 12  2  0
M  END
