
     RDKit          3D

 12 12  0  0  0  0  0  0  0  0999 V2000
    2.9750    0.7010    0.1830 O   0  0  0  0  0  0  0  0  0  0  0  0
    2.1650   -0.0150   -0.6980 C   0  0  0  0  0  0  0  0  0  0  0  0
    0.9260   -0.4830   -0.0130 C   0  0  2  0  0  0  0  0  0  0  0  0
    0.0720   -1.2590   -1.0180 C   0  0  0  0  0  0  0  0  0  0  0  0
   -1.0860   -0.5520   -1.2530 O   0  0  0  0  0  0  0  0  0  0  0  0
   -2.1150   -0.9060   -0.4370 C   0  0  0  0  0  0  0  0  0  0  0  0
   -1.9290   -0.7810    1.0190 C   0  0  0  0  0  0  0  0  0  0  0  0
   -0.9780    0.2640    1.4990 C   0  0  0  0  0  0  0  0  0  0  0  0
    0.0880    0.5460    0.5420 N   0  0  0  0  0  0  0  0  0  0  0  0
    0.2120    1.8910    0.2210 C   0  0  0  0  0  0  0  0  0  0  0  0
    1.1550    2.3480   -0.6610 O   0  0  0  0  0  0  0  0  0  0  0  0
   -0.7850    2.9830    0.9000 S   0  0  0  0  0  0  0  0  0  0  0  0
  1  2  1  0
  3  2  1  6
  3  4  1  0
  3  9  1  0
  4  5  1  0
  5  6  1  0
  6  7  1  0
  7  8  1  0
  8  9  1  0
  9 10  1  0
 10 11  1  0
 10 12  2  0
M  END
