
     RDKit          3D

 12 12  0  0  0  0  0  0  0  0999 V2000
    4.2670   -0.9000   -0.5170 C   0  0  0  0  0  0  0  0  0  0  0  0
    2.9290   -0.4540   -0.2820 O   0  0  0  0  0  0  0  0  0  0  0  0
    2.6100    0.2470    0.8790 C   0  0  0  0  0  0  0  0  0  0  0  0
    3.5540    0.4500    1.6760 O   0  0  0  0  0  0  0  0  0  0  0  0
    1.2690    0.7230    1.1640 C   0  0  0  0  0  0  0  0  0  0  0  0
    0.2500    0.5300    0.3550 C   0  0  0  0  0  0  0  0  0  0  0  0
    0.4910   -0.1790   -0.8520 N   0  0  0  0  0  0  0  0  0  0  0  0
   -1.3690    1.1370    0.7560 S   0  0  0  0  0  0  0  0  0  0  0  0
   -2.5890    0.7370   -0.4870 C   0  0  1  0  0  0  0  0  0  0  0  0
   -2.8960   -0.7370   -0.6100 C   0  0  0  0  0  0  0  0  0  0  0  0
   -3.7800   -0.5910    0.4770 O   0  0  0  0  0  0  0  0  0  0  0  0
   -3.9890    0.7180    0.0500 C   0  0  0  0  0  0  0  0  0  0  0  0
  1  2  1  0
  2  3  1  0
  3  4  2  0
  3  5  1  0
  5  6  2  3
  6  7  1  0
  6  8  1  0
  9  8  1  1
  9 10  1  0
  9 12  1  0
 10 11  1  0
 11 12  1  0
M  END
