
     RDKit          3D

 19 21  0  0  0  0  0  0  0  0999 V2000
    3.2140    1.5330   -1.1900 N   0  0  0  0  0  0  0  0  0  0  0  0
    1.8030    1.4930   -1.0610 C   0  0  0  0  0  0  0  0  0  0  0  0
    1.0220    2.5170   -1.5750 C   0  0  0  0  0  0  0  0  0  0  0  0
   -0.3340    2.4430   -1.4320 C   0  0  0  0  0  0  0  0  0  0  0  0
   -0.9210    1.3640   -0.7840 C   0  0  0  0  0  0  0  0  0  0  0  0
   -0.1370    0.3380   -0.2690 C   0  0  0  0  0  0  0  0  0  0  0  0
    1.2220    0.4080   -0.4110 C   0  0  0  0  0  0  0  0  0  0  0  0
    2.0980   -0.6410    0.1100 C   0  0  0  0  0  0  0  0  0  0  0  0
    3.4620   -0.6560    0.0150 N   0  0  0  0  0  0  0  0  0  0  0  0
    3.9610   -1.7290    0.5780 N   0  0  0  0  0  0  0  0  0  0  0  0
    2.9420   -2.4450    1.0550 C   0  0  0  0  0  0  0  0  0  0  0  0
    3.0220   -3.5330    1.6580 O   0  0  0  0  0  0  0  0  0  0  0  0
    1.8000   -1.7650    0.7620 N   0  0  0  0  0  0  0  0  0  0  0  0
   -0.7840   -0.7100    0.3660 O   0  0  0  0  0  0  0  0  0  0  0  0
   -2.1810   -0.8090    0.1620 C   0  0  1  0  0  0  0  0  0  0  0  0
   -2.8090   -1.8390    1.0760 C   0  0  0  0  0  0  0  0  0  0  0  0
   -2.5920   -1.4950    2.4030 O   0  0  0  0  0  0  0  0  0  0  0  0
   -2.7390    0.5750    0.4340 C   0  0  0  0  0  0  0  0  0  0  0  0
   -2.3410    1.3910   -0.6930 N   0  0  0  0  0  0  0  0  0  0  0  0
  1  2  1  0
  2  3  2  0
  2  7  1  0
  3  4  1  0
  4  5  2  0
  5  6  1  0
  5 19  1  0
  6  7  2  0
  6 14  1  0
  7  8  1  0
  8  9  2  0
  8 13  1  0
  9 10  1  0
 10 11  1  0
 11 12  2  0
 11 13  1  0
 14 15  1  0
 15 16  1  1
 15 18  1  0
 16 17  1  0
 18 19  1  0
M  CHG  1  19   1
M  END
