
     RDKit          3D

 19 20  0  0  0  0  0  0  0  0999 V2000
   -3.7410    0.7620   -0.2410 C   0  0  0  0  0  0  0  0  0  0  0  0
   -2.9890   -0.3540    0.3660 C   0  0  0  0  0  0  0  0  0  0  0  0
   -1.6840   -0.4270    0.1860 C   0  0  0  0  0  0  0  0  0  0  0  0
   -0.8550   -1.5070    0.7550 C   0  0  0  0  0  0  0  0  0  0  0  0
    0.4320   -1.5520    0.5610 C   0  0  0  0  0  0  0  0  0  0  0  0
    1.1660   -0.5670   -0.2180 C   0  0  2  0  0  0  0  0  0  0  0  0
    2.3820   -0.1330    0.4570 N   0  0  0  0  0  0  0  0  0  0  0  0
    3.6920   -0.4520    0.0370 C   0  0  0  0  0  0  0  0  0  0  0  0
    4.8530   -0.0110    0.7200 N   0  0  0  0  0  0  0  0  0  0  0  0
    3.7860   -1.1740   -1.0110 O   0  0  0  0  0  0  0  0  0  0  0  0
    0.3640    0.4990   -0.7840 C   0  0  0  0  0  0  0  0  0  0  0  0
    0.9470    1.5870   -1.6400 C   0  0  0  0  0  0  0  0  0  0  0  0
    1.8870    2.3350   -0.8650 N   0  0  0  0  0  0  0  0  0  0  0  0
   -0.9380    0.5560   -0.5960 C   0  0  0  0  0  0  0  0  0  0  0  0
   -1.6830    1.6070   -1.1620 O   0  0  0  0  0  0  0  0  0  0  0  0
   -1.5170   -2.5250    1.5450 N   0  0  0  0  0  0  0  0  0  0  0  0
   -2.9140   -2.4400    1.7330 C   0  0  0  0  0  0  0  0  0  0  0  0
   -3.4890   -3.3250    2.4200 O   0  0  0  0  0  0  0  0  0  0  0  0
   -3.6120   -1.3640    1.1440 N   0  0  0  0  0  0  0  0  0  0  0  0
  1  2  1  0
  2  3  2  0
  2 19  1  0
  3  4  1  0
  3 14  1  0
  4  5  2  0
  4 16  1  0
  5  6  1  0
  6  7  1  1
  6 11  1  0
  7  8  1  0
  8  9  1  0
  8 10  2  0
 11 12  1  0
 11 14  2  0
 12 13  1  0
 14 15  1  0
 16 17  1  0
 17 18  2  0
 17 19  1  0
M  CHG  1  13   1
M  END
