
     RDKit          3D

 18 19  0  0  0  0  0  0  0  0999 V2000
   -4.9170   -2.2390   -0.5410 N   0  0  0  0  0  0  0  0  0  0  0  0
   -4.8280   -0.8370   -0.4040 C   0  0  0  0  0  0  0  0  0  0  0  0
   -5.7930    0.0280   -0.4950 N   0  0  0  0  0  0  0  0  0  0  0  0
   -5.2780    1.3310   -0.2940 C   0  0  0  0  0  0  0  0  0  0  0  0
   -3.9650    1.2840   -0.0730 C   0  0  0  0  0  0  0  0  0  0  0  0
   -3.5640   -0.1200   -0.1260 C   0  0  0  0  0  0  0  0  0  0  0  0
   -2.3840   -0.6500    0.0300 C   0  0  0  0  0  0  0  0  0  0  0  0
   -1.1830    0.1010    0.3010 C   0  0  0  0  0  0  0  0  0  0  0  0
   -0.0460   -0.5160    0.4420 N   0  0  0  0  0  0  0  0  0  0  0  0
    1.1590    0.2430    0.7140 C   0  0  1  0  0  0  0  0  0  0  0  0
    2.3740   -0.5260    0.3980 C   0  0  0  0  0  0  0  0  0  0  0  0
    2.5460   -1.7190    1.0960 O   0  0  0  0  0  0  0  0  0  0  0  0
    3.2240   -0.0850   -0.4920 C   0  0  0  0  0  0  0  0  0  0  0  0
    4.4710   -0.7920   -0.8720 C   0  0  0  0  0  0  0  0  0  0  0  0
    5.6420    0.0460   -0.5980 N   0  0  0  0  0  0  0  0  0  0  0  0
    1.0730    1.4090   -0.0570 O   0  0  0  0  0  0  0  0  0  0  0  0
    0.0710    2.1860    0.5230 C   0  0  0  0  0  0  0  0  0  0  0  0
   -1.1360    1.4660    0.4270 O   0  0  0  0  0  0  0  0  0  0  0  0
  1  2  1  0
  2  3  2  0
  2  6  1  0
  3  4  1  0
  4  5  2  0
  5  6  1  0
  6  7  2  3
  7  8  1  0
  8  9  2  0
  8 18  1  0
  9 10  1  0
 10 11  1  6
 10 16  1  0
 11 12  1  0
 11 13  2  3
 13 14  1  0
 14 15  1  0
 16 17  1  0
 17 18  1  0
M  CHG  1  15   1
M  END
