
     RDKit          3D

 27 29  0  0  0  0  0  0  0  0999 V2000
   -3.9020   -2.0330    1.4760 C   0  0  0  0  0  0  0  0  0  0  0  0
   -3.7290   -0.9370    0.4740 C   0  0  0  0  0  0  0  0  0  0  0  0
   -2.5870   -0.9450   -0.3460 C   0  0  0  0  0  0  0  0  0  0  0  0
   -2.4610    0.0720   -1.2490 C   0  0  0  0  0  0  0  0  0  0  0  0
   -1.3570    0.1810   -2.1190 N   0  0  0  0  0  0  0  0  0  0  0  0
   -0.1930   -0.5990   -2.0890 C   0  0  0  0  0  0  0  0  0  0  0  0
   -0.0320   -1.4880   -1.2540 O   0  0  0  0  0  0  0  0  0  0  0  0
    0.9140   -0.3700   -3.0950 C   0  0  0  0  0  0  0  0  0  0  0  0
    2.0410   -1.2980   -2.7570 C   0  0  0  0  0  0  0  0  0  0  0  0
    2.5480   -0.9830   -1.3910 C   0  0  0  0  0  0  0  0  0  0  0  0
    2.0510   -0.0250   -0.7760 O   0  0  0  0  0  0  0  0  0  0  0  0
    3.5650   -1.7690   -0.8350 N   0  0  0  0  0  0  0  0  0  0  0  0
    4.1810   -1.6090    0.4390 C   0  0  0  0  0  0  0  0  0  0  0  0
    4.9610   -0.3680    0.6260 C   0  0  2  0  0  0  0  0  0  0  0  0
    6.0700   -0.3130   -0.4420 C   0  0  0  0  0  0  0  0  0  0  0  0
    5.6680   -0.4740    2.0130 C   0  0  0  0  0  0  0  0  0  0  0  0
    5.2750    0.8260    2.6600 C   0  0  0  0  0  0  0  0  0  0  0  0
    5.2330    1.7130    1.5110 N   0  0  0  0  0  0  0  0  0  0  0  0
    4.2500    0.9350    0.6840 C   0  0  0  0  0  0  0  0  0  0  0  0
   -3.4320    1.0630   -1.3400 C   0  0  0  0  0  0  0  0  0  0  0  0
   -4.5250    1.0470   -0.5360 C   0  0  0  0  0  0  0  0  0  0  0  0
   -4.6830    0.0410    0.3830 C   0  0  0  0  0  0  0  0  0  0  0  0
   -5.8220   -0.0210    1.2650 N   0  0  0  0  0  0  0  0  0  0  0  0
   -6.7940    1.0160    1.1480 C   0  0  0  0  0  0  0  0  0  0  0  0
   -8.0150    0.7980    1.4630 N   0  0  0  0  0  0  0  0  0  0  0  0
   -6.2850    2.3300    0.6460 C   0  0  0  0  0  0  0  0  0  0  0  0
   -5.5550    2.0960   -0.6380 C   0  0  0  0  0  0  0  0  0  0  0  0
  1  2  1  0
  2  3  2  0
  2 22  1  0
  3  4  1  0
  4  5  1  0
  4 20  2  0
  5  6  1  0
  6  7  2  0
  6  8  1  0
  8  9  1  0
  9 10  1  0
 10 11  2  0
 10 12  1  0
 12 13  1  0
 13 14  1  0
 14 15  1  6
 14 16  1  0
 14 19  1  0
 16 17  1  0
 17 18  1  0
 18 19  1  0
 20 21  1  0
 21 22  2  0
 21 27  1  0
 22 23  1  0
 23 24  1  0
 24 25  2  0
 24 26  1  0
 26 27  1  0
M  CHG  2  18   1  25   1
M  END
