
     RDKit          3D

 19 21  0  0  0  0  0  0  0  0999 V2000
    5.3070   -0.3710    0.6400 N   0  0  0  0  0  0  0  0  0  0  0  0
    4.0100    0.0160    1.0650 C   0  0  0  0  0  0  0  0  0  0  0  0
    3.7860    0.3760    2.3280 N   0  0  0  0  0  0  0  0  0  0  0  0
    2.5510    0.7480    2.7270 C   0  0  0  0  0  0  0  0  0  0  0  0
    1.5380    0.7570    1.8390 N   0  0  0  0  0  0  0  0  0  0  0  0
    1.6900    0.4060    0.5500 C   0  0  0  0  0  0  0  0  0  0  0  0
    0.8830    0.3110   -0.5530 C   0  0  0  0  0  0  0  0  0  0  0  0
   -0.5440    0.6430   -0.5820 C   0  0  2  0  0  0  0  0  0  0  0  0
   -1.2970    0.1830    0.5650 N   0  0  0  0  0  0  0  0  0  0  0  0
   -2.6360   -0.0880    0.0460 C   0  0  2  0  0  0  0  0  0  0  0  0
   -3.4810   -0.8680    0.9840 C   0  0  0  0  0  0  0  0  0  0  0  0
   -3.5920   -0.1020    2.1620 O   0  0  0  0  0  0  0  0  0  0  0  0
   -2.2700   -0.8120   -1.2330 C   0  0  1  0  0  0  0  0  0  0  0  0
   -3.3390   -1.0170   -2.0670 O   0  0  0  0  0  0  0  0  0  0  0  0
   -1.2640    0.1950   -1.8180 C   0  0  1  0  0  0  0  0  0  0  0  0
   -2.0460    1.2270   -2.3280 O   0  0  0  0  0  0  0  0  0  0  0  0
    1.6970   -0.1260   -1.5780 C   0  0  0  0  0  0  0  0  0  0  0  0
    2.9530   -0.2940   -1.1360 N   0  0  0  0  0  0  0  0  0  0  0  0
    2.9770    0.0260    0.1690 C   0  0  0  0  0  0  0  0  0  0  0  0
  1  2  1  0
  2  3  2  0
  2 19  1  0
  3  4  1  0
  4  5  2  0
  5  6  1  0
  6  7  1  0
  6 19  2  0
  8  7  1  1
  7 17  2  0
  8  9  1  0
  8 15  1  0
  9 10  1  0
 10 11  1  1
 10 13  1  0
 11 12  1  0
 13 14  1  6
 13 15  1  0
 15 16  1  1
 17 18  1  0
 18 19  1  0
M  CHG  1   9   1
M  END
