
     RDKit          3D

 19 20  0  0  0  0  0  0  0  0999 V2000
   -1.5400    3.3500    0.2870 C   0  0  0  0  0  0  0  0  0  0  0  0
   -1.0700    2.0840    0.5190 O   0  0  0  0  0  0  0  0  0  0  0  0
   -2.0970    1.1800    0.4920 C   0  0  0  0  0  0  0  0  0  0  0  0
   -1.6370   -0.2560    0.7450 C   0  0  2  0  0  0  0  0  0  0  0  0
   -0.6930   -0.5750   -0.3000 N   0  0  0  0  0  0  0  0  0  0  0  0
    0.0110   -1.7940   -0.1310 C   0  0  2  0  0  0  0  0  0  0  0  0
    1.4460   -1.5900   -0.3780 C   0  0  0  0  0  0  0  0  0  0  0  0
    2.0200   -2.5960   -0.9710 O   0  0  0  0  0  0  0  0  0  0  0  0
    2.2440   -0.4890   -0.0650 N   0  0  0  0  0  0  0  0  0  0  0  0
    2.0110    0.7260    0.6210 C   0  0  0  0  0  0  0  0  0  0  0  0
    2.9010    1.6440    0.2700 C   0  0  0  0  0  0  0  0  0  0  0  0
    2.9620    2.9720    0.7590 N   0  0  0  0  0  0  0  0  0  0  0  0
    3.8660    1.0860   -0.7170 C   0  0  0  0  0  0  0  0  0  0  0  0
    3.6640   -0.4040   -0.4880 C   0  0  0  0  0  0  0  0  0  0  0  0
   -0.4830   -2.8550   -1.1270 C   0  0  0  0  0  0  0  0  0  0  0  0
   -2.2150   -3.2690   -0.7730 S   0  0  0  0  0  0  0  0  0  0  0  0
   -2.6850   -2.5560    0.8350 C   0  0  0  0  0  0  0  0  0  0  0  0
   -2.9020   -1.0880    0.6300 C   0  0  2  0  0  0  0  0  0  0  0  0
   -3.5720   -0.8010   -0.5510 O   0  0  0  0  0  0  0  0  0  0  0  0
  1  2  1  0
  2  3  1  0
  4  3  1  6
  4  5  1  0
  4 18  1  0
  5  6  1  0
  6  7  1  6
  6 15  1  0
  7  8  2  0
  7  9  1  0
  9 10  1  0
  9 14  1  0
 10 11  2  0
 11 12  1  0
 11 13  1  0
 13 14  1  0
 15 16  1  0
 16 17  1  0
 17 18  1  0
 18 19  1  6
M  CHG  1   5   1
M  END
