
     RDKit          3D

 20 21  0  0  0  0  0  0  0  0999 V2000
    6.6610    0.4800    0.4970 C   0  0  0  0  0  0  0  0  0  0  0  0
    5.6150   -0.0950   -0.3010 O   0  0  0  0  0  0  0  0  0  0  0  0
    4.3340   -0.1410    0.2440 C   0  0  0  0  0  0  0  0  0  0  0  0
    4.1080    0.3050    1.3930 O   0  0  0  0  0  0  0  0  0  0  0  0
    3.2190   -0.6830   -0.4430 N   0  0  0  0  0  0  0  0  0  0  0  0
    1.9430   -0.7090    0.1460 C   0  0  2  0  0  0  0  0  0  0  0  0
    1.5290   -2.1720    0.3660 C   0  0  0  0  0  0  0  0  0  0  0  0
   -0.1890   -1.8740    0.9540 S   0  0  0  0  0  0  0  0  0  0  0  0
   -0.3790   -0.1940    0.2630 C   0  0  1  0  0  0  0  0  0  0  0  0
    0.8270   -0.1360   -0.6650 C   0  0  0  0  0  0  0  0  0  0  0  0
   -1.6040   -0.0650   -0.5710 C   0  0  0  0  0  0  0  0  0  0  0  0
   -2.8720    0.1630    0.2120 C   0  0  2  0  0  0  0  0  0  0  0  0
   -3.7700   -1.0830    0.1540 C   0  0  0  0  0  0  0  0  0  0  0  0
   -3.6710    1.2600   -0.3880 C   0  0  0  0  0  0  0  0  0  0  0  0
   -4.1810    1.2370   -1.7160 N   0  0  0  0  0  0  0  0  0  0  0  0
   -3.9110    2.2420    0.2850 O   0  0  0  0  0  0  0  0  0  0  0  0
   -2.6430    0.4590    1.6570 C   0  0  0  0  0  0  0  0  0  0  0  0
   -1.4190    1.3060    1.8850 C   0  0  0  0  0  0  0  0  0  0  0  0
   -1.4440    2.3530    2.5720 O   0  0  0  0  0  0  0  0  0  0  0  0
   -0.2310    0.8230    1.2560 N   0  0  0  0  0  0  0  0  0  0  0  0
  1  2  1  0
  2  3  1  0
  3  4  2  0
  3  5  1  0
  6  5  1  6
  6  7  1  0
  6 10  1  0
  7  8  1  0
  8  9  1  0
  9 10  1  6
  9 11  1  0
  9 20  1  0
 11 12  1  0
 12 13  1  1
 12 14  1  0
 12 17  1  0
 14 15  1  0
 14 16  2  0
 17 18  1  0
 18 19  2  0
 18 20  1  0
M  CHG  1  15   1
M  END
