
     RDKit          3D

 20 22  0  0  0  0  0  0  0  0999 V2000
    5.7950    0.1340   -0.9290 O   0  0  0  0  0  0  0  0  0  0  0  0
    4.6700    0.4470   -0.5190 C   0  0  0  0  0  0  0  0  0  0  0  0
    4.3760    1.7560   -0.2040 N   0  0  0  0  0  0  0  0  0  0  0  0
    3.1380    1.9720    0.2200 C   0  0  0  0  0  0  0  0  0  0  0  0
    2.2000    1.0640    0.3660 N   0  0  0  0  0  0  0  0  0  0  0  0
    2.4190   -0.2810    0.0660 C   0  0  0  0  0  0  0  0  0  0  0  0
    1.5080   -1.2670    0.1330 C   0  0  0  0  0  0  0  0  0  0  0  0
    0.1410   -1.0580    0.7830 C   0  0  0  0  0  0  0  0  0  0  0  0
   -0.6600   -0.1370    0.0810 N   0  0  1  0  0  0  0  0  0  0  0  0
   -1.3680   -0.4280   -1.0480 C   0  0  0  0  0  0  0  0  0  0  0  0
   -2.6090    0.4790   -1.0700 C   0  0  2  0  0  0  0  0  0  0  0  0
   -2.6830    1.3110   -2.1640 O   0  0  0  0  0  0  0  0  0  0  0  0
   -2.4720    1.2520    0.2260 C   0  0  2  0  0  0  0  0  0  0  0  0
   -1.6880    2.4070    0.0700 O   0  0  0  0  0  0  0  0  0  0  0  0
   -1.6950    0.2810    1.0410 C   0  0  1  0  0  0  0  0  0  0  0  0
   -2.5810   -0.8630    1.4380 C   0  0  0  0  0  0  0  0  0  0  0  0
   -1.9390   -1.9040    2.0940 O   0  0  0  0  0  0  0  0  0  0  0  0
    1.8700   -2.5300   -0.2610 C   0  0  0  0  0  0  0  0  0  0  0  0
    3.6420   -2.2710   -0.7460 S   0  0  0  0  0  0  0  0  0  0  0  0
    3.6700   -0.5060   -0.3690 C   0  0  0  0  0  0  0  0  0  0  0  0
  1  2  2  0
  2  3  1  0
  2 20  1  0
  3  4  1  0
  4  5  2  0
  5  6  1  0
  6  7  1  0
  6 20  2  0
  7  8  1  0
  7 18  2  0
  9  8  1  1
  9 10  1  0
  9 15  1  0
 10 11  1  0
 11 12  1  6
 11 13  1  0
 13 14  1  6
 13 15  1  0
 15 16  1  6
 16 17  1  0
 18 19  1  0
 19 20  1  0
M  CHG  1   9   1
M  END
