
     RDKit          3D

 20 21  0  0  0  0  0  0  0  0999 V2000
   -1.5820   -1.7840   -0.1890 C   0  0  0  0  0  0  0  0  0  0  0  0
   -1.6610   -0.8250   -1.2220 N   0  0  0  0  0  0  0  0  0  0  0  0
   -1.8540    0.5250   -0.9300 C   0  0  1  0  0  0  0  0  0  0  0  0
   -2.9300    0.8910    0.0580 C   0  0  1  0  0  0  0  0  0  0  0  0
   -4.1300    0.0330    0.0920 C   0  0  0  0  0  0  0  0  0  0  0  0
   -4.8020   -0.0050   -1.1390 O   0  0  0  0  0  0  0  0  0  0  0  0
   -2.2290    1.0940    1.3790 C   0  0  0  0  0  0  0  0  0  0  0  0
   -0.7320    1.1640    1.0710 C   0  0  0  0  0  0  0  0  0  0  0  0
   -0.7190    1.3590   -0.4460 C   0  0  1  0  0  0  0  0  0  0  0  0
    0.8470    1.0960   -1.1870 S   0  0  0  0  0  0  0  0  0  0  0  0
    1.7220   -0.3750   -0.8050 C   0  0  0  0  0  0  0  0  0  0  0  0
    3.0220   -0.3640   -0.4490 C   0  0  0  0  0  0  0  0  0  0  0  0
    3.7260    0.9000   -0.3770 C   0  0  0  0  0  0  0  0  0  0  0  0
    3.1420    1.9760   -0.6410 O   0  0  0  0  0  0  0  0  0  0  0  0
    5.1000    0.9060   -0.0020 N   0  0  0  0  0  0  0  0  0  0  0  0
    5.7860   -0.3120    0.3030 C   0  0  0  0  0  0  0  0  0  0  0  0
    7.0110   -0.2570    0.6330 O   0  0  0  0  0  0  0  0  0  0  0  0
    5.1230   -1.5590    0.2420 N   0  0  0  0  0  0  0  0  0  0  0  0
    3.7480   -1.5830   -0.1320 C   0  0  0  0  0  0  0  0  0  0  0  0
    3.1790   -2.7120   -0.1790 O   0  0  0  0  0  0  0  0  0  0  0  0
  1  2  1  0
  3  2  1  1
  3  4  1  0
  3  9  1  0
  4  5  1  1
  4  7  1  0
  5  6  1  0
  7  8  1  0
  8  9  1  0
  9 10  1  6
 10 11  1  0
 11 12  2  3
 12 13  1  0
 12 19  1  0
 13 14  2  0
 13 15  1  0
 15 16  1  0
 16 17  2  0
 16 18  1  0
 18 19  1  0
 19 20  2  0
M  CHG  1   2   1
M  END
