
     RDKit          3D

 19 20  0  0  0  0  0  0  0  0999 V2000
   -1.9120   -2.5560   -1.0410 C   0  0  0  0  0  0  0  0  0  0  0  0
   -1.3220   -1.9850    0.2220 C   0  0  2  0  0  0  0  0  0  0  0  0
   -2.4300   -1.9430    1.2390 C   0  0  0  0  0  0  0  0  0  0  0  0
   -0.6230   -0.6690    0.0020 C   0  0  1  0  0  0  0  0  0  0  0  0
    0.4700   -0.7880   -0.9300 N   0  0  0  0  0  0  0  0  0  0  0  0
    1.7050   -1.2250   -0.3940 C   0  0  2  0  0  0  0  0  0  0  0  0
    2.1510   -1.0750    0.9860 C   0  0  0  0  0  0  0  0  0  0  0  0
    2.7600   -0.2260   -0.0730 C   0  0  2  0  0  0  0  0  0  0  0  0
    2.4990    1.2450   -0.0990 C   0  0  0  0  0  0  0  0  0  0  0  0
    3.9180    1.8210   -0.0130 C   0  0  0  0  0  0  0  0  0  0  0  0
    4.7510    0.5910    0.1540 C   0  0  0  0  0  0  0  0  0  0  0  0
    4.0520   -0.3920   -0.5110 O   0  0  0  0  0  0  0  0  0  0  0  0
   -1.5950    0.2800   -0.6340 C   0  0  0  0  0  0  0  0  0  0  0  0
   -1.4990    0.6120   -1.8440 O   0  0  0  0  0  0  0  0  0  0  0  0
   -2.6520    0.8180    0.1490 N   0  0  0  0  0  0  0  0  0  0  0  0
   -3.5470    1.7030   -0.5040 N   0  0  0  0  0  0  0  0  0  0  0  0
   -3.3450    3.1150   -0.4220 C   0  0  0  0  0  0  0  0  0  0  0  0
   -2.3660    3.5660    0.2320 O   0  0  0  0  0  0  0  0  0  0  0  0
   -4.2040    4.0150   -1.0460 O   0  0  0  0  0  0  0  0  0  0  0  0
  2  1  1  6
  2  3  1  0
  2  4  1  0
  4  5  1  6
  4 13  1  0
  6  5  1  1
  6  7  1  0
  6  8  1  0
  8  7  1  1
  8  9  1  0
  8 12  1  0
  9 10  1  0
 10 11  1  0
 11 12  1  0
 13 14  2  0
 13 15  1  0
 15 16  1  0
 16 17  1  0
 17 18  2  0
 17 19  1  0
M  CHG  1   5   1
M  END
