
     RDKit          3D

 20 21  0  0  0  0  0  0  0  0999 V2000
   -2.9190    2.8730    1.1310 C   0  0  0  0  0  0  0  0  0  0  0  0
   -3.9800    1.9920    0.6000 C   0  0  0  0  0  0  0  0  0  0  0  0
   -5.1740    2.3600    0.6830 O   0  0  0  0  0  0  0  0  0  0  0  0
   -3.7030    0.7000   -0.0220 C   0  0  0  0  0  0  0  0  0  0  0  0
   -4.6760   -0.0340   -0.4710 C   0  0  0  0  0  0  0  0  0  0  0  0
   -4.5770   -1.2860   -1.0880 N   0  0  0  0  0  0  0  0  0  0  0  0
   -3.0270   -1.9810   -1.3060 S   0  0  1  0  0  0  0  0  0  0  0  0
   -2.8980   -3.3170   -0.6450 O   0  0  0  0  0  0  0  0  0  0  0  0
   -2.6710   -2.1140   -2.7750 O   0  0  0  0  0  0  0  0  0  0  0  0
   -1.8600   -0.8280   -0.6310 C   0  0  0  0  0  0  0  0  0  0  0  0
   -0.4660   -1.1690   -0.6840 C   0  0  0  0  0  0  0  0  0  0  0  0
   -0.0710   -2.2620   -1.1970 O   0  0  0  0  0  0  0  0  0  0  0  0
    0.5630   -0.3370   -0.1810 N   0  0  0  0  0  0  0  0  0  0  0  0
    1.9680   -0.7100   -0.2490 C   0  0  2  0  0  0  0  0  0  0  0  0
    2.5470   -0.5620    1.1280 C   0  0  0  0  0  0  0  0  0  0  0  0
    3.6650    0.4750    1.0150 C   0  0  0  0  0  0  0  0  0  0  0  0
    4.0650    0.3250   -0.4370 C   0  0  1  0  0  0  0  0  0  0  0  0
    4.6290   -0.9840   -0.6840 N   0  0  0  0  0  0  0  0  0  0  0  0
    2.6880    0.3300   -1.1130 C   0  0  0  0  0  0  0  0  0  0  0  0
   -2.3200    0.2710   -0.1200 C   0  0  0  0  0  0  0  0  0  0  0  0
  1  2  1  0
  2  3  2  0
  2  4  1  0
  4  5  2  0
  4 20  1  0
  5  6  1  0
  7  6  1  6
  7  8  2  0
  7  9  2  0
  7 10  1  0
 10 11  1  0
 10 20  2  0
 11 12  2  0
 11 13  1  0
 14 13  1  1
 14 15  1  0
 14 19  1  0
 15 16  1  0
 16 17  1  0
 17 18  1  1
 17 19  1  0
M  CHG  1  18   1
M  END
