
     RDKit          3D

 20 21  0  0  0  0  0  0  0  0999 V2000
    0.7280   -1.0570    1.3290 C   0  0  0  0  0  0  0  0  0  0  0  0
    0.5490   -0.9420   -0.1860 C   0  0  1  0  0  0  0  0  0  0  0  0
    2.1110   -1.4170   -0.9490 S   0  0  0  0  0  0  0  0  0  0  0  0
    3.4360   -0.3020   -0.5830 C   0  0  0  0  0  0  0  0  0  0  0  0
    3.4650    0.7770    0.1530 C   0  0  0  0  0  0  0  0  0  0  0  0
    4.7650    1.3780    0.1730 N   0  0  0  0  0  0  0  0  0  0  0  0
    5.5420    0.5390   -0.6380 C   0  0  0  0  0  0  0  0  0  0  0  0
    4.8100   -0.4500   -1.0980 C   0  0  0  0  0  0  0  0  0  0  0  0
   -0.4930   -1.9740   -0.5150 C   0  0  0  0  0  0  0  0  0  0  0  0
   -0.0500   -2.9810   -1.1850 N   0  0  0  0  0  0  0  0  0  0  0  0
   -1.8650   -1.9500   -0.1600 N   0  0  0  0  0  0  0  0  0  0  0  0
   -2.6300   -0.7960    0.2690 C   0  0  0  0  0  0  0  0  0  0  0  0
   -3.5090   -1.0700    1.1250 O   0  0  0  0  0  0  0  0  0  0  0  0
   -2.4080    0.5440   -0.2340 C   0  0  1  0  0  0  0  0  0  0  0  0
   -3.2100    1.6470    0.3730 C   0  0  0  0  0  0  0  0  0  0  0  0
   -4.6740    1.5770    0.2010 C   0  0  0  0  0  0  0  0  0  0  0  0
   -5.3000    0.4860    0.7420 O   0  0  0  0  0  0  0  0  0  0  0  0
   -1.0570    0.9860   -0.2250 O   0  0  0  0  0  0  0  0  0  0  0  0
    0.1290    0.4020   -0.6140 C   0  0  0  0  0  0  0  0  0  0  0  0
    0.9260    1.0250   -1.3810 O   0  0  0  0  0  0  0  0  0  0  0  0
  2  1  1  1
  2  3  1  0
  2  9  1  0
  2 19  1  0
  3  4  1  0
  4  5  2  0
  4  8  1  0
  5  6  1  0
  6  7  1  0
  7  8  2  0
  9 10  2  0
  9 11  1  0
 11 12  1  0
 12 13  2  0
 12 14  1  0
 14 15  1  1
 14 18  1  0
 15 16  1  0
 16 17  1  0
 18 19  1  0
 19 20  2  0
M  CHG  1   6   1
M  END
