
     RDKit          3D

 19 21  0  0  0  0  0  0  0  0999 V2000
    3.4400    1.8850   -1.9990 O   0  0  0  0  0  0  0  0  0  0  0  0
    3.1540    0.9030   -1.2950 C   0  0  0  0  0  0  0  0  0  0  0  0
    1.7970    0.2250   -1.3030 C   0  0  0  0  0  0  0  0  0  0  0  0
    1.3180    0.3610    0.0920 C   0  0  1  0  0  0  0  0  0  0  0  0
   -0.0190   -0.0430    0.3230 N   0  0  0  0  0  0  0  0  0  0  0  0
   -0.8910   -0.0340   -0.8020 C   0  0  2  0  0  0  0  0  0  0  0  0
   -1.4260    1.3820   -1.0300 C   0  0  0  0  0  0  0  0  0  0  0  0
   -2.1480    1.7150    0.1230 O   0  0  0  0  0  0  0  0  0  0  0  0
   -3.4810    1.3940    0.0200 C   0  0  0  0  0  0  0  0  0  0  0  0
   -3.8300    0.2050    0.7460 N   0  0  0  0  0  0  0  0  0  0  0  0
   -2.7490   -0.7670    0.7440 C   0  0  0  0  0  0  0  0  0  0  0  0
   -2.0890   -0.9250   -0.5800 C   0  0  2  0  0  0  0  0  0  0  0  0
   -1.7880   -2.2650   -0.8560 O   0  0  0  0  0  0  0  0  0  0  0  0
    2.2950   -0.3510    1.0270 C   0  0  0  0  0  0  0  0  0  0  0  0
    1.8400   -1.0120    2.1450 C   0  0  0  0  0  0  0  0  0  0  0  0
    3.3370   -1.6010    2.9310 S   0  0  0  0  0  0  0  0  0  0  0  0
    4.4510   -0.9130    1.6940 C   0  0  0  0  0  0  0  0  0  0  0  0
    3.5980   -0.2910    0.7830 C   0  0  0  0  0  0  0  0  0  0  0  0
    4.1290    0.3570   -0.4210 N   0  0  0  0  0  0  0  0  0  0  0  0
  1  2  2  0
  2  3  1  0
  2 19  1  0
  3  4  1  0
  4  5  1  6
  4 14  1  0
  6  5  1  1
  6  7  1  0
  6 12  1  0
  7  8  1  0
  8  9  1  0
  9 10  1  0
 10 11  1  0
 11 12  1  0
 12 13  1  1
 14 15  2  0
 14 18  1  0
 15 16  1  0
 16 17  1  0
 17 18  2  0
 18 19  1  0
M  CHG  1   5   1
M  END
