
     RDKit          3D

 20 21  0  0  0  0  0  0  0  0999 V2000
   -0.1690    0.5290    1.1430 C   0  0  0  0  0  0  0  0  0  0  0  0
    0.1520   -0.3800   -0.0170 C   0  0  1  0  0  0  0  0  0  0  0  0
    1.5380   -0.0080   -0.4940 C   0  0  0  0  0  0  0  0  0  0  0  0
    2.5590   -0.1700    0.5850 C   0  0  0  0  0  0  0  0  0  0  0  0
    3.8770    0.2000    0.0860 C   0  0  0  0  0  0  0  0  0  0  0  0
    4.6920    1.1280    0.5000 C   0  0  0  0  0  0  0  0  0  0  0  0
    5.8930    1.2380   -0.1920 N   0  0  0  0  0  0  0  0  0  0  0  0
    6.3080    0.1360   -0.8470 O   0  0  0  0  0  0  0  0  0  0  0  0
    4.7560   -0.5570   -1.2640 S   0  0  0  0  0  0  0  0  0  0  0  0
    0.0080   -1.8320    0.2570 C   0  0  0  0  0  0  0  0  0  0  0  0
   -0.9530   -2.1200    1.3090 N   0  0  0  0  0  0  0  0  0  0  0  0
   -2.3060   -2.1670    0.7750 C   0  0  0  0  0  0  0  0  0  0  0  0
   -2.7720   -0.9070    0.2060 C   0  0  0  0  0  0  0  0  0  0  0  0
   -3.9130   -0.5380    0.5770 O   0  0  0  0  0  0  0  0  0  0  0  0
   -2.1460   -0.0190   -0.7070 N   0  0  0  0  0  0  0  0  0  0  0  0
   -2.9920    1.0100   -1.3010 C   0  0  0  0  0  0  0  0  0  0  0  0
   -3.0230    2.2840   -0.5070 C   0  0  0  0  0  0  0  0  0  0  0  0
   -3.5120    2.0430    0.7600 O   0  0  0  0  0  0  0  0  0  0  0  0
   -0.7760    0.0420   -1.1690 C   0  0  2  0  0  0  0  0  0  0  0  0
   -0.5560   -0.7410   -2.2900 O   0  0  0  0  0  0  0  0  0  0  0  0
  2  1  1  1
  2  3  1  0
  2 10  1  0
  2 19  1  0
  3  4  1  0
  4  5  1  0
  5  6  2  0
  5  9  1  0
  6  7  1  0
  7  8  1  0
  8  9  1  0
 10 11  1  0
 11 12  1  0
 12 13  1  0
 13 14  2  0
 13 15  1  0
 15 16  1  0
 15 19  1  0
 16 17  1  0
 17 18  1  0
 19 20  1  6
M  CHG  1  11   1
M  END
