
     RDKit          3D

 10  9  0  0  0  0  0  0  0  0999 V2000
   -1.4850   -1.3660    0.8560 C   0  0  0  0  0  0  0  0  0  0  0  0
   -0.9130   -0.5750    0.0030 C   0  0  0  0  0  0  0  0  0  0  0  0
    0.3100   -0.9170   -0.5330 O   0  0  0  0  0  0  0  0  0  0  0  0
    1.8130   -0.4110    0.0520 P   0  0  2  0  0  0  0  0  0  0  0  0
    2.2730   -1.2030    1.2570 O   0  0  0  0  0  0  0  0  0  0  0  0
    1.8230    1.2270    0.4940 O   0  0  0  0  0  0  0  0  0  0  0  0
    2.9500   -0.5960   -1.2090 O   0  0  0  0  0  0  0  0  0  0  0  0
   -1.5440    0.6690   -0.3970 C   0  0  0  0  0  0  0  0  0  0  0  0
   -0.9820    1.4460   -1.2350 O   0  0  0  0  0  0  0  0  0  0  0  0
   -2.7620    1.0760    0.0950 O   0  0  0  0  0  0  0  0  0  0  0  0
  1  2  2  0
  2  3  1  0
  2  8  1  0
  3  4  1  0
  4  5  2  0
  4  6  1  1
  4  7  1  0
  8  9  2  0
  8 10  1  0
M  END
