
     RDKit          3D

 22 23  0  0  0  0  0  0  0  0999 V2000
    8.5280   -2.2970   -0.9970 O   0  0  0  0  0  0  0  0  0  0  0  0
    7.0080   -2.5780   -0.9220 P   0  0  0  0  0  0  0  0  0  0  0  0
    5.8600   -1.2300   -0.6530 N   0  0  0  0  0  0  0  0  0  0  0  0
    4.4660   -1.4920   -0.5440 C   0  0  0  0  0  0  0  0  0  0  0  0
    4.0910   -2.6880   -0.6430 O   0  0  0  0  0  0  0  0  0  0  0  0
    3.5650   -0.3620   -0.3250 C   0  0  0  0  0  0  0  0  0  0  0  0
    2.2030   -0.7660   -0.2350 O   0  0  0  0  0  0  0  0  0  0  0  0
    1.1730    0.1720   -0.0250 C   0  0  0  0  0  0  0  0  0  0  0  0
    1.5820    1.3540    0.0690 O   0  0  0  0  0  0  0  0  0  0  0  0
   -0.2130   -0.2270    0.0680 C   0  0  0  0  0  0  0  0  0  0  0  0
   -1.2080    0.5860    0.2640 C   0  0  0  0  0  0  0  0  0  0  0  0
   -1.0860    1.9870    0.4170 N   0  0  0  0  0  0  0  0  0  0  0  0
   -2.1700    2.8700    0.0520 C   0  0  0  0  0  0  0  0  0  0  0  0
   -2.0490    4.1110    0.1930 O   0  0  0  0  0  0  0  0  0  0  0  0
   -3.3430    2.2730   -0.4580 N   0  0  0  0  0  0  0  0  0  0  0  0
   -3.4200    0.8630   -0.6660 C   0  0  0  0  0  0  0  0  0  0  0  0
   -2.6170    0.0580    0.3340 C   0  0  2  0  0  0  0  0  0  0  0  0
   -3.1210    0.1770    1.7340 C   0  0  0  0  0  0  0  0  0  0  0  0
   -2.9140   -1.1220    2.2970 O   0  0  0  0  0  0  0  0  0  0  0  0
   -2.8180   -2.0370    1.2430 C   0  0  0  0  0  0  0  0  0  0  0  0
   -2.8450   -3.2670    1.4110 O   0  0  0  0  0  0  0  0  0  0  0  0
   -2.6910   -1.3330    0.0130 N   0  0  0  0  0  0  0  0  0  0  0  0
  1  2  2  0
  2  3  1  0
  3  4  1  0
  4  5  2  0
  4  6  1  0
  6  7  1  0
  7  8  1  0
  8  9  2  0
  8 10  1  0
 10 11  2  3
 11 12  1  0
 11 17  1  0
 12 13  1  0
 13 14  2  0
 13 15  1  0
 15 16  1  0
 17 16  1  6
 17 18  1  0
 17 22  1  0
 18 19  1  0
 19 20  1  0
 20 21  2  0
 20 22  1  0
M  END
