
     RDKit          3D

 22 24  0  0  0  0  0  0  0  0999 V2000
   -2.1250   -1.3300    1.7700 N   0  0  0  0  0  0  0  0  0  0  0  0
   -2.7390   -0.9270    0.5680 C   0  0  0  0  0  0  0  0  0  0  0  0
   -3.6260   -1.6700    0.0700 O   0  0  0  0  0  0  0  0  0  0  0  0
   -2.3890    0.3440   -0.1480 C   0  0  1  0  0  0  0  0  0  0  0  0
   -3.6490    1.1640   -0.2130 C   0  0  0  0  0  0  0  0  0  0  0  0
   -3.4460    2.5050   -0.3230 O   0  0  0  0  0  0  0  0  0  0  0  0
   -2.6680    3.0880    0.6280 C   0  0  0  0  0  0  0  0  0  0  0  0
   -1.7700    2.1760    1.3880 C   0  0  0  0  0  0  0  0  0  0  0  0
   -1.3570    1.0380    0.5920 N   0  0  0  0  0  0  0  0  0  0  0  0
   -0.0490    0.5820    0.4980 N   0  0  0  0  0  0  0  0  0  0  0  0
    0.3910   -0.1320   -0.4790 C   0  0  0  0  0  0  0  0  0  0  0  0
    1.8090   -0.5650   -0.4760 C   0  0  1  0  0  0  0  0  0  0  0  0
    2.5290   -0.0610    0.7460 C   0  0  0  0  0  0  0  0  0  0  0  0
    3.5330   -0.9990    0.9170 O   0  0  0  0  0  0  0  0  0  0  0  0
    3.2840   -2.0480    0.0520 C   0  0  2  0  0  0  0  0  0  0  0  0
    4.3040   -1.9540   -1.4960 P   0  0  0  0  0  0  0  0  0  0  0  0
    5.5160   -3.1680   -1.5510 O   0  0  0  0  0  0  0  0  0  0  0  0
    4.9720   -0.3660   -1.6990 O   0  0  0  0  0  0  0  0  0  0  0  0
    1.9440   -1.9470   -0.3380 O   0  0  0  0  0  0  0  0  0  0  0  0
   -0.4980   -0.4820   -1.5270 N   0  0  0  0  0  0  0  0  0  0  0  0
   -1.8580   -0.0270   -1.4620 C   0  0  0  0  0  0  0  0  0  0  0  0
   -2.5470    0.0450   -2.4950 O   0  0  0  0  0  0  0  0  0  0  0  0
  1  2  1  0
  2  3  2  0
  4  2  1  1
  4  5  1  0
  4  9  1  0
  4 21  1  0
  5  6  1  0
  6  7  1  0
  7  8  1  0
  8  9  1  0
  9 10  1  0
 10 11  2  0
 12 11  1  1
 11 20  1  0
 12 13  1  0
 12 19  1  0
 13 14  1  0
 14 15  1  0
 15 16  1  6
 15 19  1  0
 16 17  1  0
 16 18  1  0
 20 21  1  0
 21 22  2  0
M  END
