
     RDKit          3D

 23 25  0  0  0  0  0  0  0  0999 V2000
   -2.1420    4.6560    0.2130 C   0  0  0  0  0  0  0  0  0  0  0  0
   -2.0340    3.2490    0.1010 O   0  0  0  0  0  0  0  0  0  0  0  0
   -0.8490    2.5900   -0.1330 C   0  0  0  0  0  0  0  0  0  0  0  0
    0.1780    3.2720   -0.2510 O   0  0  0  0  0  0  0  0  0  0  0  0
   -0.7570    1.1720   -0.2430 N   0  0  0  0  0  0  0  0  0  0  0  0
    0.2870    0.3690   -0.4650 C   0  0  0  0  0  0  0  0  0  0  0  0
    1.5540    0.7780   -0.6500 C   0  0  0  0  0  0  0  0  0  0  0  0
    2.6410   -0.2150   -0.8920 C   0  0  2  0  0  0  0  0  0  0  0  0
    2.3520   -1.0320   -1.9800 O   0  0  0  0  0  0  0  0  0  0  0  0
    3.0240   -1.1770    0.6370 P   0  0  0  0  0  0  0  0  0  0  0  0
    3.7230   -2.7110    0.3060 O   0  0  0  0  0  0  0  0  0  0  0  0
    4.1220   -0.2940    1.6670 O   0  0  0  0  0  0  0  0  0  0  0  0
   -0.0730   -0.9620   -0.4880 C   0  0  0  0  0  0  0  0  0  0  0  0
   -1.4430   -0.9150   -0.2720 N   0  0  0  0  0  0  0  0  0  0  0  0
   -1.8190    0.3560   -0.1230 C   0  0  0  0  0  0  0  0  0  0  0  0
   -2.9850    0.7710    0.0990 O   0  0  0  0  0  0  0  0  0  0  0  0
   -1.9960   -2.1780   -0.5050 C   0  0  2  0  0  0  0  0  0  0  0  0
   -3.0810   -2.8190    0.1190 C   0  0  0  0  0  0  0  0  0  0  0  0
   -4.2530   -2.4070    0.3680 O   0  0  0  0  0  0  0  0  0  0  0  0
   -2.5960   -4.1190    0.4500 O   0  0  0  0  0  0  0  0  0  0  0  0
   -1.2360   -4.1650    0.1280 N   0  0  0  0  0  0  0  0  0  0  0  0
   -0.8410   -3.0610   -0.3890 C   0  0  0  0  0  0  0  0  0  0  0  0
    0.2720   -2.2030   -0.7740 N   0  0  0  0  0  0  0  0  0  0  0  0
  1  2  1  0
  2  3  1  0
  3  4  2  0
  3  5  1  0
  5  6  1  0
  5 15  1  0
  6  7  2  3
  6 13  1  0
  7  8  1  0
  8  9  1  6
  8 10  1  0
 10 11  1  0
 10 12  1  0
 13 14  1  0
 13 23  2  0
 14 15  1  0
 17 14  1  1
 15 16  2  0
 17 18  1  0
 17 22  1  0
 18 19  2  0
 18 20  1  0
 20 21  1  0
 21 22  2  0
 22 23  1  0
M  END
