
     RDKit          3D

 23 25  0  0  0  0  0  0  0  0999 V2000
   -2.3490    2.7440    0.4280 O   0  0  0  0  0  0  0  0  0  0  0  0
   -2.1630    1.5360    0.0650 C   0  0  0  0  0  0  0  0  0  0  0  0
   -0.8390    1.0360    0.1430 N   0  0  0  0  0  0  0  0  0  0  0  0
   -0.6530   -0.3710    0.1040 C   0  0  0  0  0  0  0  0  0  0  0  0
    0.7090   -0.9620    0.1800 C   0  0  2  0  0  0  0  0  0  0  0  0
    1.4130   -0.5770    1.4060 N   0  0  0  0  0  0  0  0  0  0  0  0
    2.8400   -0.5730    1.4500 C   0  0  0  0  0  0  0  0  0  0  0  0
    3.4590   -0.6850    2.5250 O   0  0  0  0  0  0  0  0  0  0  0  0
    3.5760   -0.4260    0.1450 C   0  0  2  0  0  0  0  0  0  0  0  0
    4.5240    0.5570    0.3110 O   0  0  0  0  0  0  0  0  0  0  0  0
    6.1150    0.0400   -0.1270 P   0  0  0  0  0  0  0  0  0  0  0  0
    6.8340    1.0730   -1.2980 O   0  0  0  0  0  0  0  0  0  0  0  0
    6.1200   -1.5900   -0.7110 O   0  0  0  0  0  0  0  0  0  0  0  0
    2.5110    0.1550   -0.8030 C   0  0  0  0  0  0  0  0  0  0  0  0
    1.4780   -0.7470   -0.9300 O   0  0  0  0  0  0  0  0  0  0  0  0
   -1.6750   -1.1410    0.0010 N   0  0  0  0  0  0  0  0  0  0  0  0
   -2.9990   -0.6830   -0.0790 N   0  0  0  0  0  0  0  0  0  0  0  0
   -4.1190   -1.5270    0.1540 C   0  0  0  0  0  0  0  0  0  0  0  0
   -3.9380   -2.6230    0.7450 O   0  0  0  0  0  0  0  0  0  0  0  0
   -5.3650   -1.1060   -0.2810 O   0  0  0  0  0  0  0  0  0  0  0  0
   -5.6680    0.2550   -0.5370 C   0  0  0  0  0  0  0  0  0  0  0  0
   -4.5990    1.0740    0.1990 C   0  0  0  0  0  0  0  0  0  0  0  0
   -3.2890    0.7090   -0.4120 C   0  0  1  0  0  0  0  0  0  0  0  0
  1  2  2  0
  2  3  1  0
  2 23  1  0
  3  4  1  0
  5  4  1  6
  4 16  2  0
  5  6  1  0
  5 15  1  0
  6  7  1  0
  7  8  2  0
  7  9  1  0
  9 10  1  1
  9 14  1  0
 10 11  1  0
 11 12  1  0
 11 13  1  0
 14 15  1  0
 16 17  1  0
 17 18  1  0
 17 23  1  0
 18 19  2  0
 18 20  1  0
 20 21  1  0
 21 22  1  0
 23 22  1  1
M  END
