
     RDKit          3D

 22 23  0  0  0  0  0  0  0  0999 V2000
    6.3150    2.2740    0.2650 N   0  0  0  0  0  0  0  0  0  0  0  0
    6.6690    0.9910    0.3430 O   0  0  0  0  0  0  0  0  0  0  0  0
    5.4910   -0.1090   -0.2420 P   0  0  0  0  0  0  0  0  0  0  0  0
    5.9130   -0.8640   -1.7170 O   0  0  0  0  0  0  0  0  0  0  0  0
    5.6840   -2.1950   -1.7200 N   0  0  0  0  0  0  0  0  0  0  0  0
    3.8750    0.6170   -0.3030 O   0  0  0  0  0  0  0  0  0  0  0  0
    2.8040    0.0570    0.3760 C   0  0  0  0  0  0  0  0  0  0  0  0
    3.0050   -0.9760    1.0350 O   0  0  0  0  0  0  0  0  0  0  0  0
    1.4930    0.5960    0.3620 N   0  0  0  0  0  0  0  0  0  0  0  0
    0.3730    0.0090    1.0730 C   0  0  1  0  0  0  0  0  0  0  0  0
   -0.0720    1.0140    2.1140 C   0  0  0  0  0  0  0  0  0  0  0  0
   -1.3330    1.5750    1.4930 C   0  0  0  0  0  0  0  0  0  0  0  0
   -1.8900    0.4210    0.8450 N   0  0  0  0  0  0  0  0  0  0  0  0
   -3.2410    0.0290    0.8610 C   0  0  0  0  0  0  0  0  0  0  0  0
   -4.0600    0.7590    1.5090 O   0  0  0  0  0  0  0  0  0  0  0  0
   -3.7310   -1.1910    0.1560 C   0  0  2  0  0  0  0  0  0  0  0  0
   -3.5890   -1.0330   -1.3540 C   0  0  0  0  0  0  0  0  0  0  0  0
   -4.9480   -0.5420   -1.8220 C   0  0  0  0  0  0  0  0  0  0  0  0
   -5.8410   -0.7450   -0.6680 C   0  0  0  0  0  0  0  0  0  0  0  0
   -7.0600   -0.4630   -0.6280 O   0  0  0  0  0  0  0  0  0  0  0  0
   -5.1070   -1.2980    0.3650 O   0  0  0  0  0  0  0  0  0  0  0  0
   -0.8060   -0.2540    0.1790 C   0  0  0  0  0  0  0  0  0  0  0  0
  1  2  1  0
  2  3  1  0
  3  4  1  0
  3  6  1  0
  4  5  1  0
  6  7  1  0
  7  8  2  0
  7  9  1  0
 10  9  1  6
 10 11  1  0
 10 22  1  0
 11 12  1  0
 12 13  1  0
 13 14  1  0
 13 22  1  0
 14 15  2  0
 16 14  1  1
 16 17  1  0
 16 21  1  0
 17 18  1  0
 18 19  1  0
 19 20  2  0
 19 21  1  0
M  END
