
     RDKit          3D

 22 24  0  0  0  0  0  0  0  0999 V2000
    4.2350    1.7590   -0.8550 O   0  0  0  0  0  0  0  0  0  0  0  0
    3.8330    0.8580   -0.0790 C   0  0  0  0  0  0  0  0  0  0  0  0
    4.7930   -0.1230    0.2890 N   0  0  0  0  0  0  0  0  0  0  0  0
    6.4710   -0.1350   -0.2680 P   0  0  0  0  0  0  0  0  0  0  0  0
    7.2670   -1.5470    0.3450 O   0  0  0  0  0  0  0  0  0  0  0  0
    6.6410   -0.0250   -1.9650 O   0  0  0  0  0  0  0  0  0  0  0  0
    2.4480    0.8400    0.4070 C   0  0  2  0  0  0  0  0  0  0  0  0
    1.7370   -0.4620    0.0400 C   0  0  0  0  0  0  0  0  0  0  0  0
    0.6300   -0.5830    0.8710 O   0  0  0  0  0  0  0  0  0  0  0  0
   -0.2060    0.5290    0.8050 C   0  0  2  0  0  0  0  0  0  0  0  0
   -1.5940    0.0770    0.6850 C   0  0  0  0  0  0  0  0  0  0  0  0
   -2.4910    0.4870   -0.2020 N   0  0  0  0  0  0  0  0  0  0  0  0
   -3.6260   -0.1790    0.0430 C   0  0  0  0  0  0  0  0  0  0  0  0
   -4.9430   -0.1380   -0.6330 C   0  0  1  0  0  0  0  0  0  0  0  0
   -5.5890   -1.4840   -0.6290 C   0  0  0  0  0  0  0  0  0  0  0  0
   -6.7920   -0.8560   -0.2930 O   0  0  0  0  0  0  0  0  0  0  0  0
   -6.0810    0.2220    0.2800 C   0  0  0  0  0  0  0  0  0  0  0  0
   -3.3720   -0.9790    1.0870 N   0  0  0  0  0  0  0  0  0  0  0  0
   -2.1540   -0.8070    1.4500 O   0  0  0  0  0  0  0  0  0  0  0  0
    0.2140    1.5420   -0.1890 C   0  0  0  0  0  0  0  0  0  0  0  0
   -0.5430    2.0770   -1.0400 O   0  0  0  0  0  0  0  0  0  0  0  0
    1.6160    1.9000   -0.1200 N   0  0  0  0  0  0  0  0  0  0  0  0
  1  2  2  0
  2  3  1  0
  7  2  1  6
  3  4  1  0
  4  5  1  0
  4  6  1  0
  7  8  1  0
  7 22  1  0
  8  9  1  0
  9 10  1  0
 10 11  1  6
 10 20  1  0
 11 12  2  0
 11 19  1  0
 12 13  1  0
 14 13  1  1
 13 18  2  0
 14 15  1  0
 14 17  1  0
 15 16  1  0
 16 17  1  0
 18 19  1  0
 20 21  2  0
 20 22  1  0
M  END
