
     RDKit          3D

 22 23  0  0  0  0  0  0  0  0999 V2000
   -2.3370    3.0590    1.9840 C   0  0  0  0  0  0  0  0  0  0  0  0
   -2.4060    1.7890    1.3980 O   0  0  0  0  0  0  0  0  0  0  0  0
   -1.3040    0.9930    1.1370 C   0  0  0  0  0  0  0  0  0  0  0  0
   -0.1820    1.4400    1.4440 O   0  0  0  0  0  0  0  0  0  0  0  0
   -1.5270   -0.3320    0.5120 C   0  0  1  0  0  0  0  0  0  0  0  0
   -2.8320   -0.5330    0.3010 O   0  0  0  0  0  0  0  0  0  0  0  0
   -3.2730   -1.1770   -0.7840 C   0  0  2  0  0  0  0  0  0  0  0  0
   -3.8250   -2.5500   -0.3800 C   0  0  0  0  0  0  0  0  0  0  0  0
   -2.4160   -1.3740   -1.8250 O   0  0  0  0  0  0  0  0  0  0  0  0
   -1.1140   -1.6390   -1.4870 C   0  0  0  0  0  0  0  0  0  0  0  0
   -0.6400   -0.4070   -0.7030 C   0  0  2  0  0  0  0  0  0  0  0  0
    0.7470   -0.4880   -0.3710 N   0  0  0  0  0  0  0  0  0  0  0  0
    1.2930   -1.5490    0.2240 N   0  0  0  0  0  0  0  0  0  0  0  0
    2.6010   -1.3630    0.4180 C   0  0  0  0  0  0  0  0  0  0  0  0
    3.6170   -2.2530    1.0370 C   0  0  0  0  0  0  0  0  0  0  0  0
    3.7380   -2.0540    2.4040 O   0  0  0  0  0  0  0  0  0  0  0  0
    2.8630   -0.1270   -0.0840 N   0  0  0  0  0  0  0  0  0  0  0  0
    1.7290    0.4080   -0.5670 C   0  0  0  0  0  0  0  0  0  0  0  0
    1.5470    1.6790   -1.1800 N   0  0  0  0  0  0  0  0  0  0  0  0
    2.8970    2.8350   -1.4150 P   0  0  0  0  0  0  0  0  0  0  0  0
    3.6900    3.2260    0.0650 O   0  0  0  0  0  0  0  0  0  0  0  0
    3.9970    2.3100   -2.6340 O   0  0  0  0  0  0  0  0  0  0  0  0
  1  2  1  0
  2  3  1  0
  3  4  2  0
  5  3  1  6
  5  6  1  0
  5 11  1  0
  6  7  1  0
  7  8  1  1
  7  9  1  0
  9 10  1  0
 10 11  1  0
 11 12  1  1
 12 13  1  0
 12 18  1  0
 13 14  2  0
 14 15  1  0
 14 17  1  0
 15 16  1  0
 17 18  2  0
 18 19  1  0
 19 20  1  0
 20 21  1  0
 20 22  1  0
M  END
