
     RDKit          3D

  6  6  0  0  0  0  0  0  0  0999 V2000
    0.8700    1.1010   -0.0260 C   0  0  0  0  0  0  0  0  0  0  0  0
    1.3420   -0.1950    0.0250 C   0  0  0  0  0  0  0  0  0  0  0  0
    0.4840   -1.2900    0.0510 C   0  0  0  0  0  0  0  0  0  0  0  0
   -0.8890   -1.0860    0.0250 C   0  0  0  0  0  0  0  0  0  0  0  0
   -1.3530    0.2180   -0.0260 C   0  0  0  0  0  0  0  0  0  0  0  0
   -0.5020    1.2950   -0.0510 C   0  0  0  0  0  0  0  0  0  0  0  0
  1  2  2  0
  1  6  1  0
  2  3  1  0
  3  4  2  0
  4  5  1  0
  5  6  2  0
M  END
