
     RDKit          3D

  6  7  0  0  0  0  0  0  0  0999 V2000
    1.3810   -0.9250   -0.2900 C   0  0  0  0  0  0  0  0  0  0  0  0
    1.7940    0.3420    0.3590 C   0  0  0  0  0  0  0  0  0  0  0  0
    0.6880    0.3210   -0.7170 C   0  0  2  0  0  0  0  0  0  0  0  0
   -0.6730    0.6780   -0.2230 C   0  0  1  0  0  0  0  0  0  0  0  0
   -1.8590   -0.1620   -0.4370 C   0  0  0  0  0  0  0  0  0  0  0  0
   -1.2330   -0.0180    0.9680 C   0  0  0  0  0  0  0  0  0  0  0  0
  1  2  1  0
  3  1  1  1
  2  3  1  0
  3  4  1  0
  4  5  1  6
  4  6  1  0
  5  6  1  0
M  END
