
     RDKit          3D

  6  5  0  0  0  0  0  0  0  0999 V2000
    2.2000   -0.0610    0.4940 C   0  0  0  0  0  0  0  0  0  0  0  0
    1.4070    0.4520   -0.6320 C   0  0  0  0  0  0  0  0  0  0  0  0
   -0.0780    0.3740   -0.4900 C   0  0  2  0  0  0  0  0  0  0  0  0
   -0.5710    1.1660    0.7200 C   0  0  0  0  0  0  0  0  0  0  0  0
   -0.6270   -1.0070   -0.3610 C   0  0  0  0  0  0  0  0  0  0  0  0
   -2.1350   -0.8980   -0.2270 C   0  0  0  0  0  0  0  0  0  0  0  0
  1  2  1  0
  2  3  1  0
  3  4  1  1
  3  5  1  0
  5  6  1  0
M  END
