
     RDKit          3D

  5  5  0  0  0  0  0  0  0  0999 V2000
    1.7790   -0.3190   -0.1350 C   0  0  0  0  0  0  0  0  0  0  0  0
    0.7690    0.5290    0.6300 C   0  0  0  0  0  0  0  0  0  0  0  0
   -0.4710    0.6020   -0.2250 C   0  0  1  0  0  0  0  0  0  0  0  0
   -1.0880   -0.7550   -0.5170 C   0  0  0  0  0  0  0  0  0  0  0  0
   -1.8010    0.2750    0.2700 C   0  0  0  0  0  0  0  0  0  0  0  0
  1  2  1  0
  3  2  1  1
  3  4  1  0
  3  5  1  0
  4  5  1  0
M  END
