
     RDKit          3D

  6  6  0  0  0  0  0  0  0  0999 V2000
    2.5160   -0.0260    0.5670 C   0  0  0  0  0  0  0  0  0  0  0  0
    1.1790   -0.4150    0.0480 C   0  0  0  0  0  0  0  0  0  0  0  0
    0.2470    0.7490   -0.1890 C   0  0  0  0  0  0  0  0  0  0  0  0
   -1.0530    0.1380   -0.7130 C   0  0  1  0  0  0  0  0  0  0  0  0
   -1.7790   -0.8350    0.1470 C   0  0  0  0  0  0  0  0  0  0  0  0
   -2.3440    0.5690   -0.1850 C   0  0  0  0  0  0  0  0  0  0  0  0
  1  2  1  0
  2  3  1  0
  4  3  1  1
  4  5  1  0
  4  6  1  0
  5  6  1  0
M  END
