
     RDKit          3D

  6  5  0  0  0  0  0  0  0  0999 V2000
    1.2100    0.6550   -0.9790 C   0  0  0  0  0  0  0  0  0  0  0  0
    0.6320    0.4520    0.3740 C   0  0  2  0  0  0  0  0  0  0  0  0
    1.5130   -0.4820    1.1620 C   0  0  0  0  0  0  0  0  0  0  0  0
   -0.7820   -0.0730    0.3710 C   0  0  2  0  0  0  0  0  0  0  0  0
   -0.9310   -1.3940   -0.3040 C   0  0  0  0  0  0  0  0  0  0  0  0
   -1.7140    0.9810   -0.2180 C   0  0  0  0  0  0  0  0  0  0  0  0
  2  1  1  6
  2  3  1  0
  2  4  1  0
  4  5  1  6
  4  6  1  0
M  END
