
     RDKit          3D

  7  7  0  0  0  0  0  0  0  0999 V2000
    2.4870   -0.3720    0.0090 C   0  0  0  0  0  0  0  0  0  0  0  0
    1.1750   -0.9120   -0.4700 C   0  0  0  0  0  0  0  0  0  0  0  0
   -0.0120   -0.1330    0.0130 C   0  0  2  0  0  0  0  0  0  0  0  0
   -1.3350   -0.6950   -0.4830 C   0  0  0  0  0  0  0  0  0  0  0  0
   -2.5170    0.0720   -0.0060 C   0  0  0  0  0  0  0  0  0  0  0  0
    0.0890    1.3630   -0.1300 C   0  0  0  0  0  0  0  0  0  0  0  0
    0.0620    0.6930    1.2290 C   0  0  0  0  0  0  0  0  0  0  0  0
  1  2  1  0
  3  2  1  6
  3  4  1  0
  3  6  1  0
  3  7  1  0
  4  5  1  0
  6  7  1  0
M  END
