
     RDKit          3D

  7  6  0  0  0  0  0  0  0  0999 V2000
    2.8120    0.1160    0.7580 C   0  0  0  0  0  0  0  0  0  0  0  0
    1.3090    0.3390    0.9760 C   0  0  0  0  0  0  0  0  0  0  0  0
    0.6470   -0.2300   -0.2360 C   0  0  0  0  0  0  0  0  0  0  0  0
   -0.8500   -0.1190   -0.2360 C   0  0  1  0  0  0  0  0  0  0  0  0
   -1.2780    1.3260   -0.1620 C   0  0  0  0  0  0  0  0  0  0  0  0
   -1.3460   -0.6720   -1.5580 C   0  0  0  0  0  0  0  0  0  0  0  0
   -1.4960   -0.8580    0.9040 C   0  0  0  0  0  0  0  0  0  0  0  0
  1  2  1  0
  2  3  1  0
  3  4  1  0
  4  5  1  1
  4  6  1  0
  4  7  1  0
M  END
