
     RDKit          3D

 19 20  0  0  0  0  0  0  0  0999 V2000
    1.2400   -1.6270   -0.3400 O   0  0  0  0  0  0  0  0  0  0  0  0
    2.2880   -0.7480   -0.1310 C   0  0  0  0  0  0  0  0  0  0  0  0
    3.5920   -1.1860   -0.1110 C   0  0  0  0  0  0  0  0  0  0  0  0
    4.6620   -0.3520    0.0860 C   0  0  0  0  0  0  0  0  0  0  0  0
    6.3120   -0.9540    0.0900 Cl  0  0  0  0  0  0  0  0  0  0  0  0
    4.4100    0.9850    0.2740 C   0  0  0  0  0  0  0  0  0  0  0  0
    5.7550    2.0710    0.5310 Cl  0  0  0  0  0  0  0  0  0  0  0  0
    3.0960    1.4370    0.2590 C   0  0  0  0  0  0  0  0  0  0  0  0
    2.9330    2.8190    0.4620 O   0  0  0  0  0  0  0  0  0  0  0  0
    2.0140    0.5990    0.0610 C   0  0  0  0  0  0  0  0  0  0  0  0
    0.4150    1.3090    0.1080 S   0  0  0  0  0  0  0  0  0  0  0  0
   -0.9700    0.2280    0.0400 C   0  0  1  0  0  0  0  0  0  0  0  0
   -1.9530    0.6190    1.1570 C   0  0  0  0  0  0  0  0  0  0  0  0
   -3.0560   -0.3850    1.1700 C   0  0  0  0  0  0  0  0  0  0  0  0
   -3.7190   -0.6400   -0.1320 C   0  0  1  0  0  0  0  0  0  0  0  0
   -4.4180   -2.3030   -0.0390 Cl  0  0  0  0  0  0  0  0  0  0  0  0
   -5.1230    0.4450   -0.3690 Cl  0  0  0  0  0  0  0  0  0  0  0  0
   -2.8220   -0.6440   -1.3330 C   0  0  0  0  0  0  0  0  0  0  0  0
   -1.7140    0.3710   -1.2520 C   0  0  0  0  0  0  0  0  0  0  0  0
  1  2  1  0
  2  3  2  0
  2 10  1  0
  3  4  1  0
  4  5  1  0
  4  6  2  0
  6  7  1  0
  6  8  1  0
  8  9  1  0
  8 10  2  0
 10 11  1  0
 12 11  1  6
 12 13  1  0
 12 19  1  0
 13 14  1  0
 14 15  1  0
 15 16  1  1
 15 17  1  0
 15 18  1  0
 18 19  1  0
M  END
