
     RDKit          3D

  7  6  0  0  0  0  0  0  0  0999 V2000
    1.9050   -1.3280    0.7260 C   0  0  0  0  0  0  0  0  0  0  0  0
    1.4100   -0.2060    0.2820 C   0  0  0  0  0  0  0  0  0  0  0  0
    2.1180    0.5440   -0.7850 C   0  0  0  0  0  0  0  0  0  0  0  0
    0.1410    0.3060    0.8510 C   0  0  0  0  0  0  0  0  0  0  0  0
   -0.9340    0.4430   -0.2220 C   0  0  2  0  0  0  0  0  0  0  0  0
   -2.2120    0.9680    0.3940 C   0  0  0  0  0  0  0  0  0  0  0  0
   -1.2730   -0.9370   -0.7910 C   0  0  0  0  0  0  0  0  0  0  0  0
  1  2  2  0
  2  3  1  0
  2  4  1  0
  4  5  1  0
  5  6  1  1
  5  7  1  0
M  END
