
     RDKit          3D

  7  6  0  0  0  0  0  0  0  0999 V2000
    3.4060    0.4420   -0.1430 C   0  0  0  0  0  0  0  0  0  0  0  0
    2.4670   -0.4060    0.2660 C   0  0  0  0  0  0  0  0  0  0  0  0
    1.1470   -0.5170   -0.4090 C   0  0  0  0  0  0  0  0  0  0  0  0
    0.0320   -0.2020    0.5370 C   0  0  0  0  0  0  0  0  0  0  0  0
   -1.3280   -0.2990   -0.0930 C   0  0  1  0  0  0  0  0  0  0  0  0
   -2.4320    0.0260    0.8910 C   0  0  0  0  0  0  0  0  0  0  0  0
   -1.4990    0.5700   -1.2940 C   0  0  0  0  0  0  0  0  0  0  0  0
  1  2  2  0
  2  3  1  0
  3  4  1  0
  4  5  1  0
  5  6  1  1
  5  7  1  0
M  END
