
     RDKit          3D

  7  7  0  0  0  0  0  0  0  0999 V2000
   -2.3770   -0.1460    0.2330 C   0  0  0  0  0  0  0  0  0  0  0  0
   -0.9040   -0.1080    0.3440 C   0  0  1  0  0  0  0  0  0  0  0  0
   -0.2060   -1.1800   -0.5000 C   0  0  0  0  0  0  0  0  0  0  0  0
    1.1870   -1.2310    0.0910 C   0  0  0  0  0  0  0  0  0  0  0  0
    1.9010    0.0620    0.0910 C   0  0  0  0  0  0  0  0  0  0  0  0
    1.1370    1.2930   -0.1080 C   0  0  0  0  0  0  0  0  0  0  0  0
   -0.3430    1.1840   -0.1890 C   0  0  0  0  0  0  0  0  0  0  0  0
  2  1  1  6
  2  3  1  0
  2  7  1  0
  3  4  1  0
  4  5  1  0
  5  6  1  0
  6  7  1  0
M  END
