
     RDKit          3D

  7  7  0  0  0  0  0  0  0  0999 V2000
    2.7580    1.0420    0.5640 O   0  0  0  0  0  0  0  0  0  0  0  0
    2.4920   -0.0100   -0.3070 C   0  0  0  0  0  0  0  0  0  0  0  0
    1.2570   -0.7310    0.2070 C   0  0  0  0  0  0  0  0  0  0  0  0
    0.1130    0.2540    0.2310 C   0  0  0  0  0  0  0  0  0  0  0  0
   -1.1560   -0.3670    0.7270 C   0  0  1  0  0  0  0  0  0  0  0  0
   -2.3410    0.5750    0.7730 C   0  0  0  0  0  0  0  0  0  0  0  0
   -2.3260   -0.5990   -0.1180 C   0  0  0  0  0  0  0  0  0  0  0  0
  1  2  1  0
  2  3  1  0
  3  4  1  0
  5  4  1  6
  5  6  1  0
  5  7  1  0
  6  7  1  0
M  END
