
     RDKit          3D

  7  7  0  0  0  0  0  0  0  0999 V2000
    2.6850    0.2480   -0.2740 C   0  0  0  0  0  0  0  0  0  0  0  0
    1.4430    0.1900   -0.9110 O   0  0  0  0  0  0  0  0  0  0  0  0
    0.4540    0.0350    0.0260 C   0  0  1  0  0  0  0  0  0  0  0  0
   -0.5850    1.1330   -0.0170 C   0  0  0  0  0  0  0  0  0  0  0  0
   -1.8890    0.4920    0.4120 C   0  0  0  0  0  0  0  0  0  0  0  0
   -1.5230   -0.9290    0.8010 C   0  0  0  0  0  0  0  0  0  0  0  0
   -0.4000   -1.1990   -0.1990 C   0  0  0  0  0  0  0  0  0  0  0  0
  1  2  1  0
  3  2  1  6
  3  4  1  0
  3  7  1  0
  4  5  1  0
  5  6  1  0
  6  7  1  0
M  END
