
     RDKit          3D

  7  6  0  0  0  0  0  0  0  0999 V2000
   -2.2130   -1.2970    0.3970 C   0  0  0  0  0  0  0  0  0  0  0  0
   -1.4550   -0.2210    0.3210 C   0  0  0  0  0  0  0  0  0  0  0  0
   -2.0190    1.0230   -0.2670 C   0  0  0  0  0  0  0  0  0  0  0  0
   -0.0660   -0.2180    0.8020 C   0  0  0  0  0  0  0  0  0  0  0  0
    0.9240    0.1090   -0.3020 C   0  0  0  0  0  0  0  0  0  0  0  0
    2.3270    0.0950    0.2580 C   0  0  0  0  0  0  0  0  0  0  0  0
    3.2730    0.3840   -0.6930 O   0  0  0  0  0  0  0  0  0  0  0  0
  1  2  2  0
  2  3  1  0
  2  4  1  0
  4  5  1  0
  5  6  1  0
  6  7  1  0
M  END
