
     RDKit          3D

  7  7  0  0  0  0  0  0  0  0999 V2000
    2.2170    0.2180   -0.0910 C   0  0  0  0  0  0  0  0  0  0  0  0
    1.3560   -1.0210   -0.2360 C   0  0  0  0  0  0  0  0  0  0  0  0
    0.1040   -0.8740    0.6090 C   0  0  0  0  0  0  0  0  0  0  0  0
   -0.7020    0.3160    0.1850 C   0  0  2  0  0  0  0  0  0  0  0  0
   -0.0300    1.5330    0.2850 O   0  0  0  0  0  0  0  0  0  0  0  0
   -2.1480    0.3040    0.7300 C   0  0  0  0  0  0  0  0  0  0  0  0
   -1.8220    0.2150   -0.7700 C   0  0  0  0  0  0  0  0  0  0  0  0
  1  2  1  0
  2  3  1  0
  3  4  1  0
  4  5  1  6
  4  6  1  0
  4  7  1  0
  6  7  1  0
M  END
