
     RDKit          3D

  6  5  0  0  0  0  0  0  0  0999 V2000
    2.5600    0.4750   -0.3680 C   0  0  0  0  0  0  0  0  0  0  0  0
    1.2930    0.3160   -0.6880 C   0  0  0  0  0  0  0  0  0  0  0  0
    0.5540   -0.8880   -0.2580 C   0  0  0  0  0  0  0  0  0  0  0  0
   -0.6330   -0.5760    0.6070 C   0  0  0  0  0  0  0  0  0  0  0  0
   -1.6410    0.3070   -0.1130 C   0  0  0  0  0  0  0  0  0  0  0  0
   -2.6870    0.5150    0.8080 O   0  0  0  0  0  0  0  0  0  0  0  0
  1  2  2  0
  2  3  1  0
  3  4  1  0
  4  5  1  0
  5  6  1  0
M  END
