
     RDKit          3D

  7  7  0  0  0  0  0  0  0  0999 V2000
    2.4300   -0.3480    0.3430 C   0  0  0  0  0  0  0  0  0  0  0  0
    1.4480    0.5430   -0.3260 C   0  0  0  0  0  0  0  0  0  0  0  0
    0.1160   -0.1020   -0.5920 C   0  0  1  0  0  0  0  0  0  0  0  0
   -0.5650   -0.5690    0.6680 C   0  0  0  0  0  0  0  0  0  0  0  0
   -2.0270   -0.4340    0.2140 C   0  0  0  0  0  0  0  0  0  0  0  0
   -1.8960    0.8730   -0.5420 C   0  0  0  0  0  0  0  0  0  0  0  0
   -0.7550    0.7000   -1.2810 O   0  0  0  0  0  0  0  0  0  0  0  0
  1  2  1  0
  3  2  1  1
  3  4  1  0
  3  7  1  0
  4  5  1  0
  5  6  1  0
  6  7  1  0
M  END
