
     RDKit          3D

  7  7  0  0  0  0  0  0  0  0999 V2000
    2.4970    0.7600    1.0510 O   0  0  0  0  0  0  0  0  0  0  0  0
    1.7910   -0.2420    0.3850 C   0  0  0  0  0  0  0  0  0  0  0  0
    0.5610    0.3060   -0.3020 C   0  0  2  0  0  0  0  0  0  0  0  0
   -0.4030    0.9440    0.6380 C   0  0  0  0  0  0  0  0  0  0  0  0
   -1.7070    0.1820    0.5330 C   0  0  0  0  0  0  0  0  0  0  0  0
   -1.6070   -0.7000   -0.6790 C   0  0  0  0  0  0  0  0  0  0  0  0
   -0.1400   -0.8070   -1.0170 C   0  0  0  0  0  0  0  0  0  0  0  0
  1  2  1  0
  3  2  1  1
  3  4  1  0
  3  7  1  0
  4  5  1  0
  5  6  1  0
  6  7  1  0
M  END
