
     RDKit          3D

 10 10  0  0  0  0  0  0  0  0999 V2000
    2.3240    0.3480    0.7450 C   0  0  0  0  0  0  0  0  0  0  0  0
    1.9520   -0.9250   -0.0080 C   0  0  0  0  0  0  0  0  0  0  0  0
    0.9300   -0.6360   -1.0830 C   0  0  0  0  0  0  0  0  0  0  0  0
   -0.3290   -0.0730   -0.5300 C   0  0  0  0  0  0  0  0  0  0  0  0
   -0.5550    1.3070   -0.6060 C   0  0  0  0  0  0  0  0  0  0  0  0
   -1.6880    1.8630   -0.0950 C   0  0  0  0  0  0  0  0  0  0  0  0
   -2.6620    1.1060    0.5190 C   0  0  0  0  0  0  0  0  0  0  0  0
   -2.4450   -0.2470    0.5960 C   0  0  0  0  0  0  0  0  0  0  0  0
   -1.3080   -0.8330    0.0860 C   0  0  0  0  0  0  0  0  0  0  0  0
   -1.1320   -2.2140    0.1850 O   0  0  0  0  0  0  0  0  0  0  0  0
  1  2  1  0
  2  3  1  0
  3  4  1  0
  4  5  2  0
  4  9  1  0
  5  6  1  0
  6  7  2  0
  7  8  1  0
  8  9  2  0
  9 10  1  0
M  END
