
     RDKit          3D

 19 21  0  0  0  0  0  0  0  0999 V2000
    6.1960    1.0660    0.8750 N   0  0  0  0  0  0  0  0  0  0  0  0
    4.8300    0.8040    0.6220 C   0  0  0  0  0  0  0  0  0  0  0  0
    3.9710    1.4400    1.2690 O   0  0  0  0  0  0  0  0  0  0  0  0
    4.4160   -0.1710   -0.3570 C   0  0  0  0  0  0  0  0  0  0  0  0
    3.1370   -0.4090   -0.5870 C   0  0  0  0  0  0  0  0  0  0  0  0
    2.0070    0.2570    0.0930 C   0  0  0  0  0  0  0  0  0  0  0  0
    0.8270   -0.3550   -0.5150 C   0  0  0  0  0  0  0  0  0  0  0  0
   -0.5580   -0.0670   -0.2130 C   0  0  0  0  0  0  0  0  0  0  0  0
   -1.6260   -0.6120   -0.7510 N   0  0  0  0  0  0  0  0  0  0  0  0
   -2.7820   -0.0180   -0.1410 C   0  0  0  0  0  0  0  0  0  0  0  0
   -4.0590   -0.0800    0.1650 C   0  0  0  0  0  0  0  0  0  0  0  0
   -4.9180   -1.1470   -0.1600 N   0  0  0  0  0  0  0  0  0  0  0  0
   -4.4140    1.1530    0.9290 C   0  0  0  0  0  0  0  0  0  0  0  0
   -3.1380    1.5480    1.4150 O   0  0  0  0  0  0  0  0  0  0  0  0
   -2.2780    1.3070    0.3800 C   0  0  1  0  0  0  0  0  0  0  0  0
   -0.9710    0.8890    0.7510 O   0  0  0  0  0  0  0  0  0  0  0  0
    1.2120   -1.2540   -1.4230 C   0  0  0  0  0  0  0  0  0  0  0  0
    0.3680   -2.0720   -2.2410 N   0  0  0  0  0  0  0  0  0  0  0  0
    2.5970   -1.3040   -1.4840 O   0  0  0  0  0  0  0  0  0  0  0  0
  1  2  1  0
  2  3  2  0
  2  4  1  0
  4  5  2  3
  5  6  1  0
  5 19  1  0
  6  7  1  0
  7  8  1  0
  7 17  2  0
  8  9  2  0
  8 16  1  0
  9 10  1  0
 10 11  2  0
 10 15  1  0
 11 12  1  0
 11 13  1  0
 13 14  1  0
 15 14  1  1
 15 16  1  0
 17 18  1  0
 17 19  1  0
M  CHG  1  12   1
M  END
