
     RDKit          3D

 19 20  0  0  0  0  0  0  0  0999 V2000
    3.7420    1.6650   -1.1580 N   0  0  0  0  0  0  0  0  0  0  0  0
    4.7730    0.7440   -0.9170 C   0  0  0  0  0  0  0  0  0  0  0  0
    5.9610    1.0900   -1.2820 O   0  0  0  0  0  0  0  0  0  0  0  0
    4.6250   -0.5300   -0.3090 C   0  0  0  0  0  0  0  0  0  0  0  0
    3.5330   -1.0950    0.1390 C   0  0  0  0  0  0  0  0  0  0  0  0
    2.2070   -0.5500    0.1210 C   0  0  0  0  0  0  0  0  0  0  0  0
    1.1070   -1.0930    0.5610 C   0  0  0  0  0  0  0  0  0  0  0  0
   -0.1200   -0.3960    0.4560 O   0  0  0  0  0  0  0  0  0  0  0  0
   -1.3220   -0.9030    0.8980 C   0  0  0  0  0  0  0  0  0  0  0  0
   -2.5980   -0.1900    0.7950 C   0  0  1  0  0  0  0  0  0  0  0  0
   -2.6200    1.0160    1.4690 O   0  0  0  0  0  0  0  0  0  0  0  0
   -3.4080    1.9010    0.7870 C   0  0  0  0  0  0  0  0  0  0  0  0
   -3.9430    1.2230   -0.4500 C   0  0  0  0  0  0  0  0  0  0  0  0
   -2.8320    0.1860   -0.6760 C   0  0  1  0  0  0  0  0  0  0  0  0
   -1.6680    0.8450   -1.2390 N   0  0  0  0  0  0  0  0  0  0  0  0
   -1.3170   -2.0730    1.4310 N   0  0  0  0  0  0  0  0  0  0  0  0
   -0.2220   -2.8790    1.6090 N   0  0  0  0  0  0  0  0  0  0  0  0
    1.0650   -2.3950    1.1630 C   0  0  0  0  0  0  0  0  0  0  0  0
    2.0160   -3.1610    1.3470 O   0  0  0  0  0  0  0  0  0  0  0  0
  1  2  1  0
  2  3  2  0
  2  4  1  0
  4  5  2  3
  5  6  1  0
  6  7  2  3
  7  8  1  0
  7 18  1  0
  8  9  1  0
 10  9  1  6
  9 16  2  0
 10 11  1  0
 10 14  1  0
 11 12  1  0
 12 13  1  0
 13 14  1  0
 14 15  1  1
 16 17  1  0
 17 18  1  0
 18 19  2  0
M  CHG  1  15   1
M  END
