
     RDKit          3D

 19 20  0  0  0  0  0  0  0  0999 V2000
   -1.6150    2.1860    0.7600 C   0  0  0  0  0  0  0  0  0  0  0  0
   -1.7180    0.7490    0.2940 C   0  0  1  0  0  0  0  0  0  0  0  0
   -2.7200    0.5950   -0.7860 C   0  0  0  0  0  0  0  0  0  0  0  0
   -4.0560    0.9480   -0.5120 N   0  0  0  0  0  0  0  0  0  0  0  0
   -2.4370    0.1660   -1.9310 O   0  0  0  0  0  0  0  0  0  0  0  0
   -0.3880    0.3460   -0.1140 N   0  0  0  0  0  0  0  0  0  0  0  0
   -0.0600   -0.8910   -0.2520 C   0  0  0  0  0  0  0  0  0  0  0  0
    1.2750   -1.2320   -0.6590 N   0  0  0  0  0  0  0  0  0  0  0  0
    2.3280   -0.2750   -0.6220 C   0  0  0  0  0  0  0  0  0  0  0  0
    2.4790    0.6130   -1.5590 C   0  0  0  0  0  0  0  0  0  0  0  0
    3.5650    1.6020   -1.5240 C   0  0  0  0  0  0  0  0  0  0  0  0
    4.4060    1.5090   -0.4170 O   0  0  0  0  0  0  0  0  0  0  0  0
    4.2190    0.5570    0.5600 C   0  0  0  0  0  0  0  0  0  0  0  0
    3.2270   -0.3280    0.5050 C   0  0  0  0  0  0  0  0  0  0  0  0
    3.1100   -1.2550    1.5330 O   0  0  0  0  0  0  0  0  0  0  0  0
   -1.0790   -1.9240    0.0150 C   0  0  1  0  0  0  0  0  0  0  0  0
   -0.4750   -3.0700    0.5440 O   0  0  0  0  0  0  0  0  0  0  0  0
   -2.1710   -1.4610    0.9150 C   0  0  0  0  0  0  0  0  0  0  0  0
   -2.0450   -0.1330    1.4260 N   0  0  0  0  0  0  0  0  0  0  0  0
  2  1  1  1
  2  3  1  0
  2  6  1  0
  2 19  1  0
  3  4  1  0
  3  5  2  0
  6  7  2  0
  7  8  1  0
  7 16  1  0
  8  9  1  0
  9 10  2  0
  9 14  1  0
 10 11  1  0
 11 12  1  0
 12 13  1  0
 13 14  2  0
 14 15  1  0
 16 17  1  1
 16 18  1  0
 18 19  1  0
M  CHG  1  19   1
M  END
