
     RDKit          3D

 24 25  0  0  0  0  0  0  0  0999 V2000
   -6.3710   -1.3170    0.1490 C   0  0  0  0  0  0  0  0  0  0  0  0
   -5.0080   -0.7220    0.2910 C   0  0  0  0  0  0  0  0  0  0  0  0
   -4.1090   -0.8180   -0.7500 C   0  0  0  0  0  0  0  0  0  0  0  0
   -2.8390   -0.2820   -0.6590 C   0  0  0  0  0  0  0  0  0  0  0  0
   -1.9830   -0.4110   -1.7330 C   0  0  0  0  0  0  0  0  0  0  0  0
   -2.3920   -1.1100   -2.9890 C   0  0  0  0  0  0  0  0  0  0  0  0
   -0.7300    0.1300   -1.6130 C   0  0  0  0  0  0  0  0  0  0  0  0
   -0.3510    0.7790   -0.4490 C   0  0  0  0  0  0  0  0  0  0  0  0
    0.9990    1.3140   -0.4220 C   0  0  0  0  0  0  0  0  0  0  0  0
    1.4540    1.9080    0.5810 O   0  0  0  0  0  0  0  0  0  0  0  0
    1.8380    1.1870   -1.5050 O   0  0  0  0  0  0  0  0  0  0  0  0
    3.1450    1.6420   -1.6240 C   0  0  0  0  0  0  0  0  0  0  0  0
    4.0100    0.9470   -0.5400 C   0  0  0  0  0  0  0  0  0  0  0  0
    3.9420   -0.3980   -0.7580 O   0  0  0  0  0  0  0  0  0  0  0  0
    4.5790   -1.2480    0.0840 C   0  0  0  0  0  0  0  0  0  0  0  0
    6.0630   -1.1430    0.2230 C   0  0  1  0  0  0  0  0  0  0  0  0
    6.5380    0.1350    0.8790 C   0  0  0  0  0  0  0  0  0  0  0  0
    6.4660   -2.2020    1.0910 O   0  0  0  0  0  0  0  0  0  0  0  0
   -1.2370    0.8960    0.6270 C   0  0  0  0  0  0  0  0  0  0  0  0
   -0.7770    1.5960    1.8280 C   0  0  0  0  0  0  0  0  0  0  0  0
   -2.5010    0.3610    0.5290 C   0  0  0  0  0  0  0  0  0  0  0  0
   -3.4190    0.4500    1.5720 C   0  0  0  0  0  0  0  0  0  0  0  0
   -4.6840   -0.0890    1.4690 C   0  0  0  0  0  0  0  0  0  0  0  0
   -5.6710    0.0100    2.5980 C   0  0  0  0  0  0  0  0  0  0  0  0
  1  2  1  0
  2  3  2  0
  2 23  1  0
  3  4  1  0
  4  5  2  0
  4 21  1  0
  5  6  1  0
  5  7  1  0
  7  8  2  0
  8  9  1  0
  8 19  1  0
  9 10  2  0
  9 11  1  0
 11 12  1  0
 12 13  1  0
 13 14  1  0
 14 15  1  0
 15 16  1  0
 16 17  1  1
 16 18  1  0
 19 20  1  0
 19 21  2  0
 21 22  1  0
 22 23  2  0
 23 24  1  0
M  END
