
     RDKit          3D

  8  8  0  0  0  0  0  0  0  0999 V2000
    2.7520    1.0090   -0.0830 O   0  0  0  0  0  0  0  0  0  0  0  0
    1.9830    0.0310   -0.2420 C   0  0  0  0  0  0  0  0  0  0  0  0
    2.5470   -1.1730   -0.6210 O   0  0  0  0  0  0  0  0  0  0  0  0
    0.5280    0.1150   -0.0440 C   0  0  0  0  0  0  0  0  0  0  0  0
   -0.3150   -0.8870   -0.2010 C   0  0  0  0  0  0  0  0  0  0  0  0
   -1.6670   -0.3750    0.0960 C   0  0  0  0  0  0  0  0  0  0  0  0
   -1.4490    1.0000    0.4240 N   0  0  0  0  0  0  0  0  0  0  0  0
   -0.2080    1.3080    0.3530 C   0  0  0  0  0  0  0  0  0  0  0  0
  1  2  2  0
  2  3  1  0
  2  4  1  0
  4  5  2  0
  4  8  1  0
  5  6  1  0
  6  7  1  0
  7  8  2  0
M  CHG  1   3  -1
M  END
