
     RDKit          3D

  8  8  0  0  0  0  0  0  0  0999 V2000
    2.7290   -0.0860    1.4220 O   0  0  0  0  0  0  0  0  0  0  0  0
    2.1480   -0.2070    0.2190 N   0  0  0  0  0  0  0  0  0  0  0  0
    0.7290   -0.0330    0.0680 C   0  0  0  0  0  0  0  0  0  0  0  0
   -0.0390   -1.0950   -0.0120 C   0  0  0  0  0  0  0  0  0  0  0  0
   -1.4950   -0.9670   -0.1670 C   0  0  0  0  0  0  0  0  0  0  0  0
   -1.9000    0.3640   -0.2110 O   0  0  0  0  0  0  0  0  0  0  0  0
   -1.1050    1.4580   -0.1280 C   0  0  0  0  0  0  0  0  0  0  0  0
    0.2020    1.3430    0.0110 C   0  0  0  0  0  0  0  0  0  0  0  0
  1  2  1  0
  2  3  1  0
  3  4  2  0
  3  8  1  0
  4  5  1  0
  5  6  1  0
  6  7  1  0
  7  8  2  0
M  CHG  1   1  -1
M  END
