
     RDKit          3D

  8  8  0  0  0  0  0  0  0  0999 V2000
    2.8580    1.1250   -0.0560 O   0  0  0  0  0  0  0  0  0  0  0  0
    2.1900    0.0950    0.1920 C   0  0  0  0  0  0  0  0  0  0  0  0
    2.8350   -1.0850    0.5340 O   0  0  0  0  0  0  0  0  0  0  0  0
    0.7290    0.1540    0.1150 C   0  0  0  0  0  0  0  0  0  0  0  0
    0.0000    1.2090   -0.1980 C   0  0  0  0  0  0  0  0  0  0  0  0
   -1.3830    0.8870   -0.1710 N   0  0  0  0  0  0  0  0  0  0  0  0
   -1.4200   -0.5460   -0.3910 C   0  0  0  0  0  0  0  0  0  0  0  0
   -0.1940   -0.9600    0.3880 C   0  0  0  0  0  0  0  0  0  0  0  0
  1  2  2  0
  2  3  1  0
  2  4  1  0
  4  5  2  0
  4  8  1  0
  5  6  1  0
  6  7  1  0
  7  8  1  0
M  CHG  1   3  -1
M  END
