
     RDKit          3D

  8  8  0  0  0  0  0  0  0  0999 V2000
    2.7540   -1.4370    0.3170 O   0  0  0  0  0  0  0  0  0  0  0  0
    2.1800   -0.3450    0.1820 C   0  0  0  0  0  0  0  0  0  0  0  0
    2.9200    0.8030    0.1260 O   0  0  0  0  0  0  0  0  0  0  0  0
    0.7070   -0.2250    0.0760 C   0  0  0  0  0  0  0  0  0  0  0  0
   -0.1320   -1.1960    0.1090 N   0  0  0  0  0  0  0  0  0  0  0  0
   -1.4690   -0.7050   -0.0210 C   0  0  0  0  0  0  0  0  0  0  0  0
   -1.3100    0.7420   -0.1420 C   0  0  0  0  0  0  0  0  0  0  0  0
   -0.0260    1.0150   -0.0830 C   0  0  0  0  0  0  0  0  0  0  0  0
  1  2  2  0
  2  3  1  0
  2  4  1  0
  4  5  2  0
  4  8  1  0
  5  6  1  0
  6  7  1  0
  7  8  2  0
M  CHG  1   3  -1
M  END
