
     RDKit          3D

 40 43  0  0  0  0  0  0  0  0999 V2000
    0.9830    3.5000   -2.0550 C   0  0  0  0  0  0  0  0  0  0  0  0
    2.0480    3.2810   -1.0180 C   0  0  1  0  0  0  0  0  0  0  0  0
    1.7570    4.2900    0.1030 C   0  0  0  0  0  0  0  0  0  0  0  0
    2.0550    1.9290   -0.3820 C   0  0  0  0  0  0  0  0  0  0  0  0
    2.2440    0.8130   -1.1950 N   0  0  0  0  0  0  0  0  0  0  0  0
    1.1670    0.3720   -1.9750 C   0  0  0  0  0  0  0  0  0  0  0  0
    0.5540   -0.9620   -1.5390 C   0  0  1  0  0  0  0  0  0  0  0  0
    1.6360   -1.8570   -1.6270 O   0  0  0  0  0  0  0  0  0  0  0  0
   -0.0380   -0.9380   -0.1620 C   0  0  2  0  0  0  0  0  0  0  0  0
   -0.3340   -2.3420    0.2630 C   0  0  0  0  0  0  0  0  0  0  0  0
   -1.2820   -3.1110   -0.5380 C   0  0  0  0  0  0  0  0  0  0  0  0
   -0.8710   -3.9420   -1.5520 C   0  0  0  0  0  0  0  0  0  0  0  0
   -1.7430   -4.6830   -2.3450 C   0  0  0  0  0  0  0  0  0  0  0  0
   -3.0920   -4.5980   -2.1240 C   0  0  0  0  0  0  0  0  0  0  0  0
   -3.5300   -3.7850   -1.1280 C   0  0  0  0  0  0  0  0  0  0  0  0
   -2.6560   -3.0610   -0.3560 C   0  0  0  0  0  0  0  0  0  0  0  0
   -1.1360   -0.0340   -0.0950 N   0  0  0  0  0  0  0  0  0  0  0  0
   -1.6500    0.2300    1.2210 C   0  0  1  0  0  0  0  0  0  0  0  0
   -0.7140    0.9000    2.0230 O   0  0  0  0  0  0  0  0  0  0  0  0
   -2.7760    1.0490    1.1720 O   0  0  0  0  0  0  0  0  0  0  0  0
   -3.8470    0.4910    1.8080 C   0  0  1  0  0  0  0  0  0  0  0  0
   -4.4910    1.3410    2.8500 C   0  0  0  0  0  0  0  0  0  0  0  0
   -5.8490    1.1520    2.8050 O   0  0  0  0  0  0  0  0  0  0  0  0
   -6.1420    0.1680    1.9020 C   0  0  1  0  0  0  0  0  0  0  0  0
   -7.2380    0.5400    1.1550 O   0  0  0  0  0  0  0  0  0  0  0  0
   -6.8130    1.7280    0.5610 C   0  0  0  0  0  0  0  0  0  0  0  0
   -5.4020    1.4480    0.0820 C   0  0  0  0  0  0  0  0  0  0  0  0
   -5.0110    0.2330    0.8710 C   0  0  1  0  0  0  0  0  0  0  0  0
    3.8080    0.3590   -1.6090 S   0  0  2  0  0  0  0  0  0  0  0  0
    4.4270    1.5080   -2.3990 O   0  0  0  0  0  0  0  0  0  0  0  0
    3.8490   -0.8160   -2.5750 O   0  0  0  0  0  0  0  0  0  0  0  0
    4.8230   -0.0710   -0.2650 C   0  0  0  0  0  0  0  0  0  0  0  0
    5.5310    0.9080    0.3790 C   0  0  0  0  0  0  0  0  0  0  0  0
    6.3630    0.6230    1.4580 C   0  0  0  0  0  0  0  0  0  0  0  0
    6.4460   -0.6980    1.8580 C   0  0  0  0  0  0  0  0  0  0  0  0
    7.3100   -1.0400    2.9890 C   0  0  0  0  0  0  0  0  0  0  0  0
    7.9480   -0.1300    3.5640 O   0  0  0  0  0  0  0  0  0  0  0  0
    7.3960   -2.3610    3.3900 O   0  0  0  0  0  0  0  0  0  0  0  0
    5.7350   -1.6770    1.2090 C   0  0  0  0  0  0  0  0  0  0  0  0
    4.9230   -1.3630    0.1470 C   0  0  0  0  0  0  0  0  0  0  0  0
  2  1  1  6
  2  3  1  0
  2  4  1  0
  4  5  1  0
  5  6  1  0
 29  5  1  1
  6  7  1  0
  7  8  1  1
  7  9  1  0
  9 10  1  6
  9 17  1  0
 10 11  1  0
 11 12  2  0
 11 16  1  0
 12 13  1  0
 13 14  2  0
 14 15  1  0
 15 16  2  0
 17 18  1  0
 18 19  1  1
 18 20  1  0
 21 20  1  6
 21 22  1  0
 21 28  1  0
 22 23  1  0
 24 23  1  1
 24 25  1  0
 24 28  1  0
 25 26  1  0
 26 27  1  0
 28 27  1  6
 29 30  2  0
 29 31  2  0
 29 32  1  0
 32 33  2  0
 32 40  1  0
 33 34  1  0
 34 35  2  0
 35 36  1  0
 35 39  1  0
 36 37  2  0
 36 38  1  0
 39 40  2  0
M  CHG  1  17   1
M  END
