
     RDKit          3D

 40 42  0  0  0  0  0  0  0  0999 V2000
    5.7000   -2.3470    1.1320 C   0  0  0  0  0  0  0  0  0  0  0  0
    5.3200   -2.3310   -0.3120 C   0  0  0  0  0  0  0  0  0  0  0  0
    4.8050   -0.9550   -0.7680 C   0  0  2  0  0  0  0  0  0  0  0  0
    4.4890   -1.1850   -2.2540 C   0  0  0  0  0  0  0  0  0  0  0  0
    5.9900   -0.0450   -0.7490 C   0  0  0  0  0  0  0  0  0  0  0  0
    3.6680   -0.5280   -0.0190 N   0  0  1  0  0  0  0  0  0  0  0  0
    3.9020    0.5930    0.8650 C   0  0  0  0  0  0  0  0  0  0  0  0
    2.6720    1.5110    0.8680 C   0  0  0  0  0  0  0  0  0  0  0  0
    1.5490    0.8740    0.9640 C   0  0  0  0  0  0  0  0  0  0  0  0
    1.2370   -0.0860   -0.1850 C   0  0  2  0  0  0  0  0  0  0  0  0
    0.6590   -1.3020    0.4230 C   0  0  0  0  0  0  0  0  0  0  0  0
    0.0480   -2.2410   -0.4710 N   0  0  0  0  0  0  0  0  0  0  0  0
   -0.9320   -2.0700   -1.4380 C   0  0  0  0  0  0  0  0  0  0  0  0
   -0.6980   -2.4850   -2.6110 O   0  0  0  0  0  0  0  0  0  0  0  0
   -2.2880   -1.4280   -1.2450 C   0  0  1  0  0  0  0  0  0  0  0  0
   -3.0860   -2.1870   -0.2590 C   0  0  0  0  0  0  0  0  0  0  0  0
   -3.1140   -3.5500   -0.3410 C   0  0  0  0  0  0  0  0  0  0  0  0
   -3.8460   -4.3340    0.5550 C   0  0  0  0  0  0  0  0  0  0  0  0
   -3.8800   -5.7990    0.4750 C   0  0  0  0  0  0  0  0  0  0  0  0
   -4.5630   -3.7040    1.5520 C   0  0  0  0  0  0  0  0  0  0  0  0
   -4.5270   -2.3190    1.6260 C   0  0  0  0  0  0  0  0  0  0  0  0
   -3.7950   -1.5750    0.7270 C   0  0  0  0  0  0  0  0  0  0  0  0
   -3.7840   -0.2000    0.8310 O   0  0  0  0  0  0  0  0  0  0  0  0
   -4.5250    0.4180    1.8620 C   0  0  0  0  0  0  0  0  0  0  0  0
   -2.1390   -0.0280   -0.9200 N   0  0  0  0  0  0  0  0  0  0  0  0
   -2.5550    1.0790   -1.6920 C   0  0  0  0  0  0  0  0  0  0  0  0
   -1.7260    1.9930   -2.0480 O   0  0  0  0  0  0  0  0  0  0  0  0
   -3.9290    1.3510   -2.1890 C   0  0  0  0  0  0  0  0  0  0  0  0
   -4.2250    2.7950   -1.7370 C   0  0  0  0  0  0  0  0  0  0  0  0
   -4.0080    2.9450   -0.3860 O   0  0  0  0  0  0  0  0  0  0  0  0
   -3.1160    3.9130   -0.0160 C   0  0  0  0  0  0  0  0  0  0  0  0
   -2.1650    3.3810    1.0680 C   0  0  2  0  0  0  0  0  0  0  0  0
   -2.6480    3.6960    2.3340 O   0  0  0  0  0  0  0  0  0  0  0  0
   -0.7540    3.8060    0.8510 C   0  0  0  0  0  0  0  0  0  0  0  0
    0.0460    3.5380    1.9940 N   0  0  0  0  0  0  0  0  0  0  0  0
    1.3740    4.0080    2.2610 C   0  0  0  0  0  0  0  0  0  0  0  0
    1.5630    4.4850    3.4500 O   0  0  0  0  0  0  0  0  0  0  0  0
    2.4780    3.9800    1.3080 C   0  0  0  0  0  0  0  0  0  0  0  0
    3.0090    2.9140    0.7320 C   0  0  0  0  0  0  0  0  0  0  0  0
    2.5420   -0.3010   -0.9050 C   0  0  0  0  0  0  0  0  0  0  0  0
  1  2  1  0
  2  3  1  0
  3  4  1  6
  3  5  1  0
  3  6  1  0
  6  7  1  6
  6 40  1  0
  7  8  1  0
  8  9  2  0
  8 39  1  0
  9 10  1  0
 10 11  1  1
 10 40  1  0
 11 12  1  0
 12 13  1  0
 13 14  2  0
 13 15  1  0
 15 16  1  1
 15 25  1  0
 16 17  2  0
 16 22  1  0
 17 18  1  0
 18 19  1  0
 18 20  2  0
 20 21  1  0
 21 22  2  0
 22 23  1  0
 23 24  1  0
 25 26  1  0
 26 27  2  0
 26 28  1  0
 28 29  1  0
 29 30  1  0
 30 31  1  0
 31 32  1  0
 32 33  1  1
 32 34  1  0
 34 35  1  0
 35 36  1  0
 36 37  2  0
 36 38  1  0
 38 39  2  0
M  CHG  1   6   1
M  END
