
     RDKit          3D

 40 43  0  0  0  0  0  0  0  0999 V2000
   -3.0300   -3.9260   -0.0870 C   0  0  0  0  0  0  0  0  0  0  0  0
   -2.4600   -2.9490   -0.7130 C   0  0  0  0  0  0  0  0  0  0  0  0
   -1.6190   -3.0640   -1.9720 C   0  0  0  0  0  0  0  0  0  0  0  0
   -1.7460   -1.8720   -2.8560 C   0  0  0  0  0  0  0  0  0  0  0  0
   -1.6320   -0.5130   -2.1860 C   0  0  0  0  0  0  0  0  0  0  0  0
   -1.3680   -0.8000   -0.6950 C   0  0  2  0  0  0  0  0  0  0  0  0
   -2.5700   -1.4830   -0.3000 C   0  0  0  0  0  0  0  0  0  0  0  0
   -3.6930   -1.1740    0.2530 C   0  0  0  0  0  0  0  0  0  0  0  0
   -4.2790    0.0430    0.7960 C   0  0  0  0  0  0  0  0  0  0  0  0
   -3.9870    0.3870    2.0850 O   0  0  0  0  0  0  0  0  0  0  0  0
   -4.7760    1.5470    2.3440 C   0  0  0  0  0  0  0  0  0  0  0  0
   -4.2400    2.6830    1.4610 C   0  0  0  0  0  0  0  0  0  0  0  0
   -2.8450    2.4510    1.3310 N   0  0  0  0  0  0  0  0  0  0  0  0
   -2.3460    2.8850    0.0660 C   0  0  0  0  0  0  0  0  0  0  0  0
   -3.1240    3.5100   -0.6870 O   0  0  0  0  0  0  0  0  0  0  0  0
   -0.9800    2.6380   -0.3920 C   0  0  0  0  0  0  0  0  0  0  0  0
   -0.2740    1.5000   -0.3680 C   0  0  0  0  0  0  0  0  0  0  0  0
    0.9820    1.7570   -0.8130 O   0  0  0  0  0  0  0  0  0  0  0  0
    1.0980    2.9990   -1.1190 C   0  0  0  0  0  0  0  0  0  0  0  0
   -0.1100    3.6250   -0.8810 C   0  0  0  0  0  0  0  0  0  0  0  0
   -0.4040    5.0760   -1.1280 C   0  0  0  0  0  0  0  0  0  0  0  0
    2.3530    3.5600   -1.6290 C   0  0  0  0  0  0  0  0  0  0  0  0
    2.3200    4.7700   -2.0730 O   0  0  0  0  0  0  0  0  0  0  0  0
    3.5960    2.8980   -1.6780 N   0  0  0  0  0  0  0  0  0  0  0  0
    3.8840    1.6240   -2.2850 C   0  0  0  0  0  0  0  0  0  0  0  0
    4.2710    0.5780   -1.3030 C   0  0  0  0  0  0  0  0  0  0  0  0
    5.5810    0.7260   -0.6710 C   0  0  0  0  0  0  0  0  0  0  0  0
    6.3600    1.7010   -0.8730 O   0  0  0  0  0  0  0  0  0  0  0  0
    6.0000   -0.2960    0.2260 N   0  0  0  0  0  0  0  0  0  0  0  0
    5.5710   -1.6690    0.0560 C   0  0  0  0  0  0  0  0  0  0  0  0
    4.6600   -2.1720    1.1220 C   0  0  0  0  0  0  0  0  0  0  0  0
    3.3650   -1.7420    1.0800 O   0  0  0  0  0  0  0  0  0  0  0  0
    2.6820   -2.2470    0.0200 C   0  0  0  0  0  0  0  0  0  0  0  0
    1.5380   -3.1120    0.2960 C   0  0  0  0  0  0  0  0  0  0  0  0
    0.4390   -2.8840    0.9310 C   0  0  0  0  0  0  0  0  0  0  0  0
   -0.0890   -1.7160    1.6070 C   0  0  0  0  0  0  0  0  0  0  0  0
   -0.7940   -1.9460    2.7270 C   0  0  0  0  0  0  0  0  0  0  0  0
   -1.4190   -0.9230    3.5750 C   0  0  0  0  0  0  0  0  0  0  0  0
    0.0560   -0.3130    1.2330 C   0  0  0  0  0  0  0  0  0  0  0  0
   -0.6030    0.1440    0.0150 N   0  0  0  0  0  0  0  0  0  0  0  0
  1  2  2  0
  2  3  1  0
  2  7  1  0
  3  4  1  0
  4  5  1  0
  6  5  1  6
  6  7  1  0
  6 40  1  0
  7  8  2  0
  8  9  1  0
  9 10  1  0
 10 11  1  0
 11 12  1  0
 12 13  1  0
 13 14  1  0
 14 15  2  0
 14 16  1  0
 16 17  2  0
 16 20  1  0
 17 18  1  0
 17 40  1  0
 18 19  1  0
 19 20  2  0
 19 22  1  0
 20 21  1  0
 22 23  2  0
 22 24  1  0
 24 25  1  0
 25 26  1  0
 26 27  1  0
 27 28  2  0
 27 29  1  0
 29 30  1  0
 30 31  1  0
 31 32  1  0
 32 33  1  0
 33 34  1  0
 34 35  2  0
 35 36  1  0
 36 37  2  3
 36 39  1  0
 37 38  1  0
 39 40  1  0
M  CHG  1  13   1
M  END
