
     RDKit          3D

 40 43  0  0  0  0  0  0  0  0999 V2000
    3.0140   -2.4950   -3.1440 C   0  0  0  0  0  0  0  0  0  0  0  0
    1.5180   -2.6460   -3.3610 C   0  0  0  0  0  0  0  0  0  0  0  0
    0.8380   -1.4260   -3.1450 O   0  0  0  0  0  0  0  0  0  0  0  0
    0.9400   -0.8520   -1.8860 C   0  0  0  0  0  0  0  0  0  0  0  0
    1.9980   -0.1160   -1.5890 C   0  0  0  0  0  0  0  0  0  0  0  0
    2.1370    0.5020   -0.2980 C   0  0  0  0  0  0  0  0  0  0  0  0
    3.2040    1.3320   -0.0260 C   0  0  0  0  0  0  0  0  0  0  0  0
    4.0640    1.4930   -1.0530 O   0  0  0  0  0  0  0  0  0  0  0  0
    3.3010    1.9350    1.2840 C   0  0  1  0  0  0  0  0  0  0  0  0
    4.1920    3.0690    1.5070 C   0  0  0  0  0  0  0  0  0  0  0  0
    5.6430    2.9930    1.3270 C   0  0  1  0  0  0  0  0  0  0  0  0
    6.3300    1.9380    2.1740 C   0  0  0  0  0  0  0  0  0  0  0  0
    6.2400    3.0380   -0.0280 C   0  0  0  0  0  0  0  0  0  0  0  0
    1.9270    2.3560    1.7900 C   0  0  0  0  0  0  0  0  0  0  0  0
    1.8570    3.3570    2.5040 O   0  0  0  0  0  0  0  0  0  0  0  0
    0.8160    1.5600    1.4020 N   0  0  0  0  0  0  0  0  0  0  0  0
    1.1490    0.2950    0.7730 C   0  0  1  0  0  0  0  0  0  0  0  0
    0.0220   -0.5090    0.3430 C   0  0  0  0  0  0  0  0  0  0  0  0
   -0.0860   -1.0400   -0.8600 C   0  0  0  0  0  0  0  0  0  0  0  0
   -1.2510   -1.8490   -1.2350 C   0  0  0  0  0  0  0  0  0  0  0  0
   -1.3090   -2.3310   -2.3850 O   0  0  0  0  0  0  0  0  0  0  0  0
   -2.3060   -2.1130   -0.3770 O   0  0  0  0  0  0  0  0  0  0  0  0
   -3.4240   -2.8860   -0.7230 C   0  0  2  0  0  0  0  0  0  0  0  0
   -4.7260   -2.2160   -0.4620 C   0  0  0  0  0  0  0  0  0  0  0  0
   -4.8600   -0.9370   -1.2320 N   0  0  0  0  0  0  0  0  0  0  0  0
   -5.3720   -1.0110   -2.4400 C   0  0  0  0  0  0  0  0  0  0  0  0
   -5.7900   -1.9360   -3.1280 O   0  0  0  0  0  0  0  0  0  0  0  0
   -5.3390    0.7280   -2.9610 S   0  0  0  0  0  0  0  0  0  0  0  0
   -4.6370    1.3450   -1.4810 C   0  0  0  0  0  0  0  0  0  0  0  0
   -4.2840    2.6270   -1.0640 C   0  0  0  0  0  0  0  0  0  0  0  0
   -3.7410    2.8140    0.1880 C   0  0  0  0  0  0  0  0  0  0  0  0
   -3.5670    1.7170    0.9880 C   0  0  0  0  0  0  0  0  0  0  0  0
   -3.0100    1.8710    2.2880 O   0  0  0  0  0  0  0  0  0  0  0  0
   -2.6530    3.1720    2.7250 C   0  0  0  0  0  0  0  0  0  0  0  0
   -3.9200    0.4770    0.5550 C   0  0  0  0  0  0  0  0  0  0  0  0
   -4.4820    0.2100   -0.7160 C   0  0  0  0  0  0  0  0  0  0  0  0
   -3.3900   -4.1130    0.1170 C   0  0  0  0  0  0  0  0  0  0  0  0
   -2.4860   -4.3380    0.9620 O   0  0  0  0  0  0  0  0  0  0  0  0
   -4.3870   -5.0830   -0.0050 O   0  0  0  0  0  0  0  0  0  0  0  0
   -4.3500   -6.2440    0.7950 C   0  0  0  0  0  0  0  0  0  0  0  0
  1  2  1  0
  2  3  1  0
  3  4  1  0
  4  5  2  0
  4 19  1  0
  5  6  1  0
  6  7  2  0
  6 17  1  0
  7  8  1  0
  7  9  1  0
  9 10  1  6
  9 14  1  0
 10 11  1  0
 11 12  1  6
 11 13  1  0
 14 15  2  0
 14 16  1  0
 17 16  1  6
 17 18  1  0
 18 19  2  0
 19 20  1  0
 20 21  2  0
 20 22  1  0
 22 23  1  0
 23 24  1  1
 23 37  1  0
 24 25  1  0
 25 26  1  0
 25 36  1  0
 26 27  2  0
 26 28  1  0
 28 29  1  0
 29 30  2  0
 29 36  1  0
 30 31  1  0
 31 32  2  0
 32 33  1  0
 32 35  1  0
 33 34  1  0
 35 36  2  0
 37 38  2  0
 37 39  1  0
 39 40  1  0
M  END
