
     RDKit          3D

 40 43  0  0  0  0  0  0  0  0999 V2000
   -6.8910   -1.5810   -2.8170 C   0  0  0  0  0  0  0  0  0  0  0  0
   -6.4190   -0.7700   -1.6410 C   0  0  0  0  0  0  0  0  0  0  0  0
   -5.0640   -0.7090   -1.3600 C   0  0  0  0  0  0  0  0  0  0  0  0
   -4.5850    0.0880   -0.3460 C   0  0  0  0  0  0  0  0  0  0  0  0
   -3.2170    0.0030    0.0250 N   0  0  0  0  0  0  0  0  0  0  0  0
   -2.4710    0.9520    0.6900 C   0  0  0  0  0  0  0  0  0  0  0  0
   -2.9960    2.0700    1.0080 O   0  0  0  0  0  0  0  0  0  0  0  0
   -1.0440    0.8290    1.1200 C   0  0  0  0  0  0  0  0  0  0  0  0
   -0.4770   -0.4130    0.9120 O   0  0  0  0  0  0  0  0  0  0  0  0
   -0.2340   -1.0420   -0.2640 C   0  0  0  0  0  0  0  0  0  0  0  0
   -0.5360   -0.4100   -1.3650 O   0  0  0  0  0  0  0  0  0  0  0  0
    0.3360   -2.3710   -0.4390 C   0  0  2  0  0  0  0  0  0  0  0  0
    0.5070   -3.2740    0.7190 C   0  0  0  0  0  0  0  0  0  0  0  0
    0.6130   -4.6920    0.1500 C   0  0  0  0  0  0  0  0  0  0  0  0
    0.8330   -4.7430   -1.3190 C   0  0  0  0  0  0  0  0  0  0  0  0
    1.7810   -3.6870   -1.8740 C   0  0  0  0  0  0  0  0  0  0  0  0
    1.6250   -2.3450   -1.2690 C   0  0  2  0  0  0  0  0  0  0  0  0
    2.7680   -2.1060   -0.4600 O   0  0  0  0  0  0  0  0  0  0  0  0
    3.3830   -0.8250   -0.5070 C   0  0  0  0  0  0  0  0  0  0  0  0
    2.7910    0.0100   -1.2530 O   0  0  0  0  0  0  0  0  0  0  0  0
    4.5340   -0.5140    0.1890 N   0  0  0  0  0  0  0  0  0  0  0  0
    5.3750   -1.3710    0.9810 C   0  0  0  0  0  0  0  0  0  0  0  0
    6.7710   -0.9340    0.4400 C   0  0  0  0  0  0  0  0  0  0  0  0
    6.5640    0.4040   -0.2130 C   0  0  2  0  0  0  0  0  0  0  0  0
    7.5790    1.3980    0.1410 C   0  0  0  0  0  0  0  0  0  0  0  0
    8.6400    1.0370    0.6740 O   0  0  0  0  0  0  0  0  0  0  0  0
    7.3630    2.7350   -0.1100 O   0  0  0  0  0  0  0  0  0  0  0  0
    8.2260    3.7770    0.1860 C   0  0  0  0  0  0  0  0  0  0  0  0
    9.5530    3.7400   -0.5100 C   0  0  0  0  0  0  0  0  0  0  0  0
   10.2650    4.8740   -0.0830 O   0  0  0  0  0  0  0  0  0  0  0  0
    5.1570    0.7870    0.2910 C   0  0  0  0  0  0  0  0  0  0  0  0
   -5.5240    0.8360    0.3800 C   0  0  0  0  0  0  0  0  0  0  0  0
   -6.8720    0.8070    0.1370 C   0  0  0  0  0  0  0  0  0  0  0  0
   -7.8500    1.4460    1.0140 C   0  0  2  0  0  0  0  0  0  0  0  0
   -7.9080    2.9190    1.1420 C   0  0  0  0  0  0  0  0  0  0  0  0
   -6.5800    3.4830    1.4600 C   0  0  0  0  0  0  0  0  0  0  0  0
   -6.2250    2.8840    2.8270 C   0  0  0  0  0  0  0  0  0  0  0  0
   -6.9710    1.2250    2.7200 S   0  0  0  0  0  0  0  0  0  0  0  0
   -7.2860   -0.0360   -0.9070 C   0  0  0  0  0  0  0  0  0  0  0  0
   -8.6630   -0.0600   -1.1240 O   0  0  0  0  0  0  0  0  0  0  0  0
  1  2  1  0
  2  3  2  0
  2 39  1  0
  3  4  1  0
  4  5  1  0
  4 32  2  0
  5  6  1  0
  6  7  2  0
  6  8  1  0
  8  9  1  0
  9 10  1  0
 10 11  2  0
 12 10  1  1
 12 13  1  0
 12 17  1  0
 13 14  1  0
 14 15  1  0
 15 16  1  0
 16 17  1  0
 17 18  1  1
 18 19  1  0
 19 20  2  0
 19 21  1  0
 21 22  1  0
 21 31  1  0
 22 23  1  0
 23 24  1  0
 24 25  1  1
 24 31  1  0
 25 26  2  0
 25 27  1  0
 27 28  1  0
 28 29  1  0
 29 30  1  0
 32 33  1  0
 34 33  1  6
 33 39  2  0
 34 35  1  0
 34 38  1  0
 35 36  1  0
 36 37  1  0
 37 38  1  0
 39 40  1  0
M  END
