
     RDKit          3D

 40 43  0  0  0  0  0  0  0  0999 V2000
   -8.5630   -2.0150   -0.4350 C   0  0  0  0  0  0  0  0  0  0  0  0
   -8.9390   -0.7010    0.1820 C   0  0  0  0  0  0  0  0  0  0  0  0
   -8.0310   -0.3010    1.3360 C   0  0  2  0  0  0  0  0  0  0  0  0
   -8.6010    1.3040    2.0090 S   0  0  0  0  0  0  0  0  0  0  0  0
   -7.5330    1.8130    3.3640 C   0  0  0  0  0  0  0  0  0  0  0  0
   -6.6130   -0.1790    0.9230 C   0  0  0  0  0  0  0  0  0  0  0  0
   -5.7960   -0.9230    1.4230 O   0  0  0  0  0  0  0  0  0  0  0  0
   -6.2060    0.8440   -0.0910 C   0  0  0  0  0  0  0  0  0  0  0  0
   -4.7550    0.8270   -0.3590 C   0  0  0  0  0  0  0  0  0  0  0  0
   -4.1610   -0.1180   -1.1540 C   0  0  0  0  0  0  0  0  0  0  0  0
   -4.9260   -1.1910   -1.8240 C   0  0  0  0  0  0  0  0  0  0  0  0
   -2.7850   -0.0490   -1.3330 C   0  0  0  0  0  0  0  0  0  0  0  0
   -2.0980   -0.9550   -2.1150 C   0  0  0  0  0  0  0  0  0  0  0  0
   -0.7480   -0.9160   -2.3130 C   0  0  0  0  0  0  0  0  0  0  0  0
   -0.0920   -1.8460   -3.1070 O   0  0  0  0  0  0  0  0  0  0  0  0
   -0.8650   -2.8590   -3.7230 C   0  0  0  0  0  0  0  0  0  0  0  0
    0.0150    0.0900   -1.6990 C   0  0  0  0  0  0  0  0  0  0  0  0
    1.3980    0.0960   -1.9230 O   0  0  0  0  0  0  0  0  0  0  0  0
    2.2600    1.0080   -1.3620 C   0  0  2  0  0  0  0  0  0  0  0  0
    3.0730    1.7910   -2.3820 C   0  0  0  0  0  0  0  0  0  0  0  0
    4.1620    2.3230   -1.5030 C   0  0  0  0  0  0  0  0  0  0  0  0
    4.7770    3.4050   -1.6360 O   0  0  0  0  0  0  0  0  0  0  0  0
    4.3770    1.3540   -0.4670 N   0  0  0  0  0  0  0  0  0  0  0  0
    5.3950    1.3820    0.5650 C   0  0  1  0  0  0  0  0  0  0  0  0
    4.8290    1.4600    1.9600 C   0  0  0  0  0  0  0  0  0  0  0  0
    6.3770    0.2820    0.3880 C   0  0  0  0  0  0  0  0  0  0  0  0
    6.2800   -0.4840   -0.6090 O   0  0  0  0  0  0  0  0  0  0  0  0
    7.4370    0.0400    1.2920 N   0  0  0  0  0  0  0  0  0  0  0  0
    8.3980   -1.0370    1.1090 C   0  0  1  0  0  0  0  0  0  0  0  0
    9.7800   -0.4210    1.2170 C   0  0  0  0  0  0  0  0  0  0  0  0
    9.9880   -0.3720    2.6940 C   0  0  0  0  0  0  0  0  0  0  0  0
    9.0760   -1.2040    3.3080 O   0  0  0  0  0  0  0  0  0  0  0  0
    8.3860   -1.8990    2.3560 C   0  0  0  0  0  0  0  0  0  0  0  0
    3.3910    0.3330   -0.6190 C   0  0  0  0  0  0  0  0  0  0  0  0
    3.4810   -0.8460   -0.2130 O   0  0  0  0  0  0  0  0  0  0  0  0
   -0.6410    1.0010   -0.9180 C   0  0  0  0  0  0  0  0  0  0  0  0
   -2.0160    0.9320   -0.7390 C   0  0  0  0  0  0  0  0  0  0  0  0
   -2.6460    1.8120    0.0150 O   0  0  0  0  0  0  0  0  0  0  0  0
   -3.9410    1.7910    0.2160 C   0  0  0  0  0  0  0  0  0  0  0  0
   -4.4310    2.6810    0.9530 O   0  0  0  0  0  0  0  0  0  0  0  0
  1  2  1  0
  3  2  1  6
  3  4  1  0
  3  6  1  0
  4  5  1  0
  6  7  2  0
  6  8  1  0
  8  9  1  0
  9 10  2  0
  9 39  1  0
 10 11  1  0
 10 12  1  0
 12 13  2  0
 12 37  1  0
 13 14  1  0
 14 15  1  0
 14 17  2  0
 15 16  1  0
 17 18  1  0
 17 36  1  0
 19 18  1  6
 19 20  1  0
 19 34  1  0
 20 21  1  0
 21 22  2  0
 21 23  1  0
 23 24  1  0
 23 34  1  0
 24 25  1  1
 24 26  1  0
 26 27  2  0
 26 28  1  0
 29 28  1  1
 29 30  1  0
 29 33  1  0
 30 31  1  0
 31 32  1  0
 32 33  1  0
 34 35  2  0
 36 37  2  0
 37 38  1  0
 38 39  1  0
 39 40  2  0
M  END
