
     RDKit          3D

 40 43  0  0  0  0  0  0  0  0999 V2000
   -4.1910   -1.2900    1.0990 C   0  0  0  0  0  0  0  0  0  0  0  0
   -3.6890   -1.0900   -0.3220 C   0  0  0  0  0  0  0  0  0  0  0  0
   -3.1240   -2.1450   -0.8840 C   0  0  0  0  0  0  0  0  0  0  0  0
   -2.5280   -2.4230   -2.1610 C   0  0  1  0  0  0  0  0  0  0  0  0
   -2.1210   -1.3770   -3.1080 C   0  0  0  0  0  0  0  0  0  0  0  0
   -1.3390   -3.3350   -1.9850 C   0  0  0  0  0  0  0  0  0  0  0  0
   -0.8690   -3.8080   -3.0810 O   0  0  0  0  0  0  0  0  0  0  0  0
   -0.7520   -3.6740   -0.7680 N   0  0  0  0  0  0  0  0  0  0  0  0
   -0.3840   -2.8860    0.3640 C   0  0  0  0  0  0  0  0  0  0  0  0
   -0.0580   -1.4540    0.1730 C   0  0  2  0  0  0  0  0  0  0  0  0
    1.2950   -1.1060    0.6300 N   0  0  0  0  0  0  0  0  0  0  0  0
    2.2990   -1.0880   -0.3310 C   0  0  0  0  0  0  0  0  0  0  0  0
    2.0490   -1.5130   -1.6100 C   0  0  0  0  0  0  0  0  0  0  0  0
    3.0440   -1.4720   -2.5540 C   0  0  0  0  0  0  0  0  0  0  0  0
    4.2850   -1.0110   -2.2320 C   0  0  0  0  0  0  0  0  0  0  0  0
    4.5590   -0.5710   -0.9220 C   0  0  0  0  0  0  0  0  0  0  0  0
    3.5820   -0.6030    0.0350 C   0  0  0  0  0  0  0  0  0  0  0  0
    3.8490   -0.2080    1.4050 C   0  0  0  0  0  0  0  0  0  0  0  0
    2.9170   -0.4020    2.2980 O   0  0  0  0  0  0  0  0  0  0  0  0
    4.9890    0.3720    1.9440 N   0  0  0  0  0  0  0  0  0  0  0  0
    5.0000    0.6420    3.4410 C   0  0  0  0  0  0  0  0  0  0  0  0
    5.0270    2.1680    3.5800 C   0  0  0  0  0  0  0  0  0  0  0  0
    6.3170    2.6020    3.1070 O   0  0  0  0  0  0  0  0  0  0  0  0
    6.9650    1.7350    2.2760 C   0  0  0  0  0  0  0  0  0  0  0  0
    8.2050    1.6660    2.2620 O   0  0  0  0  0  0  0  0  0  0  0  0
    6.2050    0.8200    1.3370 C   0  0  0  0  0  0  0  0  0  0  0  0
   -0.9170   -0.6680    1.1660 C   0  0  0  0  0  0  0  0  0  0  0  0
   -1.2390   -1.2960    2.2330 O   0  0  0  0  0  0  0  0  0  0  0  0
   -1.3490    0.6390    0.9960 N   0  0  0  0  0  0  0  0  0  0  0  0
   -1.7790    1.4220   -0.1120 C   0  0  0  0  0  0  0  0  0  0  0  0
   -0.9590    2.5570   -0.3500 C   0  0  0  0  0  0  0  0  0  0  0  0
    0.1850    2.9180    0.5700 C   0  0  0  0  0  0  0  0  0  0  0  0
   -1.1440    3.4490   -1.3760 C   0  0  0  0  0  0  0  0  0  0  0  0
   -2.1940    3.2290   -2.2270 C   0  0  0  0  0  0  0  0  0  0  0  0
   -2.9900    2.1430   -2.0050 C   0  0  0  0  0  0  0  0  0  0  0  0
   -2.8150    1.2150   -0.9520 C   0  0  0  0  0  0  0  0  0  0  0  0
   -3.9080    0.1950   -0.9340 C   0  0  2  0  0  0  0  0  0  0  0  0
   -5.2330    0.8590   -0.7290 C   0  0  0  0  0  0  0  0  0  0  0  0
   -5.6920    1.2400    0.6030 C   0  0  0  0  0  0  0  0  0  0  0  0
   -4.8090    2.1330    1.2580 O   0  0  0  0  0  0  0  0  0  0  0  0
  1  2  1  0
  2  3  2  0
  2 37  1  0
  3  4  1  0
  4  5  1  1
  4  6  1  0
  6  7  2  0
  6  8  1  0
  8  9  1  0
  9 10  1  0
 10 11  1  1
 10 27  1  0
 11 12  1  0
 12 13  2  0
 12 17  1  0
 13 14  1  0
 14 15  2  0
 15 16  1  0
 16 17  2  0
 17 18  1  0
 18 19  2  0
 18 20  1  0
 20 21  1  0
 20 26  1  0
 21 22  1  0
 22 23  1  0
 23 24  1  0
 24 25  2  0
 24 26  1  0
 27 28  2  0
 27 29  1  0
 29 30  1  0
 30 31  2  0
 30 36  1  0
 31 32  1  0
 31 33  1  0
 33 34  2  0
 34 35  1  0
 35 36  2  0
 36 37  1  0
 37 38  1  1
 38 39  1  0
 39 40  1  0
M  CHG  1  11   1
M  END
