
     RDKit          3D

 39 42  0  0  0  0  0  0  0  0999 V2000
   -7.6960   -0.8750   -2.0650 C   0  0  0  0  0  0  0  0  0  0  0  0
   -7.2580    0.3400   -2.8200 C   0  0  0  0  0  0  0  0  0  0  0  0
   -5.8640    0.4060   -3.1130 N   0  0  0  0  0  0  0  0  0  0  0  0
   -4.9180    0.5020   -2.2700 C   0  0  0  0  0  0  0  0  0  0  0  0
   -5.2050    0.5540   -0.8830 N   0  0  0  0  0  0  0  0  0  0  0  0
   -4.2010    0.7860    0.1020 C   0  0  1  0  0  0  0  0  0  0  0  0
   -4.7700    0.3730    1.4600 C   0  0  0  0  0  0  0  0  0  0  0  0
   -4.3230   -1.0240    1.7940 C   0  0  2  0  0  0  0  0  0  0  0  0
   -5.0870   -1.6660    2.8860 C   0  0  1  0  0  0  0  0  0  0  0  0
   -6.5230   -1.9140    2.8580 C   0  0  0  0  0  0  0  0  0  0  0  0
   -5.6160   -3.0700    2.5680 C   0  0  0  0  0  0  0  0  0  0  0  0
   -2.9250   -0.8950    2.1100 O   0  0  0  0  0  0  0  0  0  0  0  0
   -2.1760   -0.3640    1.0640 C   0  0  0  0  0  0  0  0  0  0  0  0
   -0.9150   -0.2770    1.0760 O   0  0  0  0  0  0  0  0  0  0  0  0
   -2.9100    0.1170   -0.1130 C   0  0  0  0  0  0  0  0  0  0  0  0
   -2.3140   -0.0830   -1.2740 C   0  0  0  0  0  0  0  0  0  0  0  0
   -1.0200   -0.7570   -1.4890 C   0  0  1  0  0  0  0  0  0  0  0  0
   -1.3190   -1.7350   -2.6720 C   0  0  0  0  0  0  0  0  0  0  0  0
    0.0210    0.0840   -1.8950 O   0  0  0  0  0  0  0  0  0  0  0  0
    1.3070    0.0470   -1.4630 C   0  0  0  0  0  0  0  0  0  0  0  0
    1.6150   -0.8280   -0.6120 O   0  0  0  0  0  0  0  0  0  0  0  0
    2.3730    0.9310   -1.8950 C   0  0  0  0  0  0  0  0  0  0  0  0
    2.0850    1.9150   -2.8100 C   0  0  0  0  0  0  0  0  0  0  0  0
    3.0520    2.7980   -3.2700 C   0  0  0  0  0  0  0  0  0  0  0  0
    4.3210    2.6860   -2.8030 C   0  0  0  0  0  0  0  0  0  0  0  0
    4.6600    1.7170   -1.8870 C   0  0  0  0  0  0  0  0  0  0  0  0
    6.0340    1.5780   -1.3670 C   0  0  0  0  0  0  0  0  0  0  0  0
    6.9300    2.3580   -1.7500 O   0  0  0  0  0  0  0  0  0  0  0  0
    6.3190    0.5930   -0.4660 O   0  0  0  0  0  0  0  0  0  0  0  0
    7.5670    0.3450    0.1080 C   0  0  2  0  0  0  0  0  0  0  0  0
    8.1270   -1.0090   -0.3240 C   0  0  0  0  0  0  0  0  0  0  0  0
    9.3710   -1.2370    0.2590 O   0  0  0  0  0  0  0  0  0  0  0  0
    7.5540    0.4560    1.5810 C   0  0  0  0  0  0  0  0  0  0  0  0
    8.6110    0.2550    2.2240 O   0  0  0  0  0  0  0  0  0  0  0  0
    6.3810    0.7820    2.2760 O   0  0  0  0  0  0  0  0  0  0  0  0
    6.4580    0.8660    3.6950 C   0  0  0  0  0  0  0  0  0  0  0  0
    5.0960    1.2240    4.2200 C   0  0  0  0  0  0  0  0  0  0  0  0
    3.6640    0.8480   -1.4450 C   0  0  0  0  0  0  0  0  0  0  0  0
   -3.1930    0.5760   -2.7230 S   0  0  0  0  0  0  0  0  0  0  0  0
  1  2  1  0
  2  3  1  0
  3  4  2  3
  4  5  1  0
  4 39  1  0
  5  6  1  0
  6  7  1  1
  6 15  1  0
  8  7  1  1
  8  9  1  0
  8 12  1  0
  9 10  1  6
  9 11  1  0
 10 11  1  0
 12 13  1  0
 13 14  2  0
 13 15  1  0
 15 16  2  0
 16 17  1  0
 16 39  1  0
 17 18  1  6
 17 19  1  0
 19 20  1  0
 20 21  2  0
 20 22  1  0
 22 23  2  0
 22 38  1  0
 23 24  1  0
 24 25  2  0
 25 26  1  0
 26 27  1  0
 26 38  2  0
 27 28  2  0
 27 29  1  0
 29 30  1  0
 30 31  1  1
 30 33  1  0
 31 32  1  0
 33 34  2  0
 33 35  1  0
 35 36  1  0
 36 37  1  0
M  END
