
     RDKit          3D

 40 42  0  0  0  0  0  0  0  0999 V2000
   -2.9180   -0.0440    3.5190 C   0  0  0  0  0  0  0  0  0  0  0  0
   -2.6950   -0.4070    2.0890 C   0  0  0  0  0  0  0  0  0  0  0  0
   -1.7550    0.0810    1.3900 C   0  0  0  0  0  0  0  0  0  0  0  0
   -1.3590   -0.1640   -0.0850 C   0  0  1  0  0  0  0  0  0  0  0  0
   -1.5930    1.1300   -0.6910 C   0  0  0  0  0  0  0  0  0  0  0  0
   -0.7370    1.9070   -1.5370 C   0  0  0  0  0  0  0  0  0  0  0  0
   -0.0010    1.4050   -2.4120 O   0  0  0  0  0  0  0  0  0  0  0  0
   -0.6130    3.3410   -1.4960 N   0  0  0  0  0  0  0  0  0  0  0  0
   -0.3010    4.1030   -2.7010 C   0  0  0  0  0  0  0  0  0  0  0  0
   -0.8010    4.0640   -0.2490 C   0  0  0  0  0  0  0  0  0  0  0  0
    0.2940    5.0580   -0.1760 C   0  0  0  0  0  0  0  0  0  0  0  0
    0.0690    6.2740   -0.2320 O   0  0  0  0  0  0  0  0  0  0  0  0
    1.5910    4.6020   -0.0420 O   0  0  0  0  0  0  0  0  0  0  0  0
    1.9150    3.2340   -0.1520 C   0  0  0  0  0  0  0  0  0  0  0  0
    3.2980    3.0800    0.3770 C   0  0  0  0  0  0  0  0  0  0  0  0
    4.1330    4.2010    0.0660 N   0  0  0  0  0  0  0  0  0  0  0  0
    3.7130    2.0360    1.0450 C   0  0  0  0  0  0  0  0  0  0  0  0
    3.0170    0.7780    1.4580 C   0  0  0  0  0  0  0  0  0  0  0  0
    3.9490   -0.2330    1.5970 C   0  0  0  0  0  0  0  0  0  0  0  0
    3.7780   -1.6110    1.9550 C   0  0  0  0  0  0  0  0  0  0  0  0
    3.8390   -2.7090    1.1950 C   0  0  0  0  0  0  0  0  0  0  0  0
    4.1120   -2.8090   -0.2450 C   0  0  1  0  0  0  0  0  0  0  0  0
    5.5200   -3.3520   -0.5000 C   0  0  0  0  0  0  0  0  0  0  0  0
    3.2440   -3.6210   -0.9810 O   0  0  0  0  0  0  0  0  0  0  0  0
    1.9240   -3.8650   -0.6480 C   0  0  0  0  0  0  0  0  0  0  0  0
    1.5320   -5.0790   -0.8150 O   0  0  0  0  0  0  0  0  0  0  0  0
    1.1110   -2.8520   -0.1710 N   0  0  0  0  0  0  0  0  0  0  0  0
    0.9290   -1.4710   -0.6390 C   0  0  1  0  0  0  0  0  0  0  0  0
    0.9650   -1.5290   -2.0870 C   0  0  0  0  0  0  0  0  0  0  0  0
   -0.0450   -0.7810    0.1870 C   0  0  1  0  0  0  0  0  0  0  0  0
    0.6590   -0.3420    1.4380 C   0  0  0  0  0  0  0  0  0  0  0  0
    0.2150   -1.0590    2.4870 O   0  0  0  0  0  0  0  0  0  0  0  0
    1.6390    0.6090    1.7680 N   0  0  0  0  0  0  0  0  0  0  0  0
   -2.4600   -1.1050   -0.5810 C   0  0  1  0  0  0  0  0  0  0  0  0
   -2.7820   -0.8790   -2.0480 C   0  0  0  0  0  0  0  0  0  0  0  0
   -2.1200   -2.5730   -0.4750 C   0  0  0  0  0  0  0  0  0  0  0  0
   -3.7820   -0.9990    0.0900 C   0  0  2  0  0  0  0  0  0  0  0  0
   -4.7750   -1.9820   -0.4820 C   0  0  0  0  0  0  0  0  0  0  0  0
   -4.4930    0.3220    0.0780 C   0  0  0  0  0  0  0  0  0  0  0  0
   -3.7100   -1.3770    1.5750 C   0  0  0  0  0  0  0  0  0  0  0  0
  1  2  1  0
  2  3  2  0
  2 40  1  0
  3  4  1  0
  4  5  1  6
  4 30  1  0
  4 34  1  0
  5  6  1  0
  6  7  2  0
  6  8  1  0
  8  9  1  0
  8 10  1  0
 10 11  1  0
 11 12  2  0
 11 13  1  0
 13 14  1  0
 14 15  1  0
 15 16  1  0
 15 17  2  0
 17 18  1  0
 18 19  2  0
 18 33  1  0
 19 20  1  0
 20 21  2  0
 21 22  1  0
 22 23  1  1
 22 24  1  0
 24 25  1  0
 25 26  2  0
 25 27  1  0
 27 28  1  0
 28 29  1  6
 28 30  1  0
 30 31  1  6
 31 32  2  0
 31 33  1  0
 34 35  1  6
 34 36  1  0
 34 37  1  0
 37 38  1  6
 37 39  1  0
 37 40  1  0
M  END
