
     RDKit          3D

 40 44  0  0  0  0  0  0  0  0999 V2000
    9.7370   -1.6750   -2.1720 C   0  0  0  0  0  0  0  0  0  0  0  0
    9.7090   -0.5960   -1.2590 O   0  0  0  0  0  0  0  0  0  0  0  0
    8.4980   -0.2700   -0.6720 C   0  0  0  0  0  0  0  0  0  0  0  0
    7.3470   -0.9650   -0.9580 C   0  0  0  0  0  0  0  0  0  0  0  0
    6.1490   -0.5960   -0.3380 C   0  0  0  0  0  0  0  0  0  0  0  0
    6.1280    0.4570    0.5510 C   0  0  0  0  0  0  0  0  0  0  0  0
    4.9480    0.8240    1.1640 O   0  0  0  0  0  0  0  0  0  0  0  0
    3.7160    0.1660    0.9330 C   0  0  0  0  0  0  0  0  0  0  0  0
    2.6840    0.8470    1.7720 C   0  0  0  0  0  0  0  0  0  0  0  0
    1.3890    0.3080    1.6600 O   0  0  0  0  0  0  0  0  0  0  0  0
    1.0460   -0.9770    1.9560 C   0  0  0  0  0  0  0  0  0  0  0  0
    1.9600   -1.7430    2.3600 O   0  0  0  0  0  0  0  0  0  0  0  0
   -0.3210   -1.5080    1.8290 C   0  0  0  0  0  0  0  0  0  0  0  0
   -1.3040   -0.5300    1.2940 C   0  0  0  0  0  0  0  0  0  0  0  0
   -0.9860   -0.0270   -0.0900 C   0  0  1  0  0  0  0  0  0  0  0  0
   -0.9680   -1.2470   -0.9790 C   0  0  0  0  0  0  0  0  0  0  0  0
    0.0550   -1.6000   -1.5970 O   0  0  0  0  0  0  0  0  0  0  0  0
   -2.1690   -1.9780   -1.0830 N   0  0  0  0  0  0  0  0  0  0  0  0
   -3.4120   -1.2900   -0.9230 C   0  0  0  0  0  0  0  0  0  0  0  0
   -4.5630   -1.9080   -1.0130 C   0  0  0  0  0  0  0  0  0  0  0  0
   -5.8750   -1.3160   -0.8710 C   0  0  1  0  0  0  0  0  0  0  0  0
   -6.7150   -1.9230    0.2550 C   0  0  0  0  0  0  0  0  0  0  0  0
   -8.1270   -1.9620   -0.2020 C   0  0  0  0  0  0  0  0  0  0  0  0
   -8.9150   -0.7260   -0.0480 C   0  0  0  0  0  0  0  0  0  0  0  0
   -8.3480    0.4790   -0.4120 O   0  0  0  0  0  0  0  0  0  0  0  0
   -7.0130    0.8860   -0.3860 C   0  0  0  0  0  0  0  0  0  0  0  0
   -6.9570    2.2490   -0.1180 C   0  0  0  0  0  0  0  0  0  0  0  0
   -5.7650    2.9060   -0.0350 C   0  0  0  0  0  0  0  0  0  0  0  0
   -5.7120    4.6550    0.3100 S   0  0  0  0  0  0  0  0  0  0  0  0
   -4.5460    5.2610   -0.4650 O   0  0  0  0  0  0  0  0  0  0  0  0
   -4.5820    2.1780   -0.2250 C   0  0  0  0  0  0  0  0  0  0  0  0
   -4.6300    0.8360   -0.4900 C   0  0  0  0  0  0  0  0  0  0  0  0
   -5.8520    0.1510   -0.5780 C   0  0  0  0  0  0  0  0  0  0  0  0
   -3.4010    0.1340   -0.6620 N   0  0  0  0  0  0  0  0  0  0  0  0
   -2.1390    0.8000   -0.5800 C   0  0  0  0  0  0  0  0  0  0  0  0
   -2.0230    1.9870   -0.9010 O   0  0  0  0  0  0  0  0  0  0  0  0
    7.3060    1.1250    0.8070 C   0  0  0  0  0  0  0  0  0  0  0  0
    8.5050    0.7990    0.2240 C   0  0  0  0  0  0  0  0  0  0  0  0
    9.6830    1.4830    0.4940 O   0  0  0  0  0  0  0  0  0  0  0  0
    9.6260    2.5590    1.4130 C   0  0  0  0  0  0  0  0  0  0  0  0
  1  2  1  0
  2  3  1  0
  3  4  2  0
  3 38  1  0
  4  5  1  0
  5  6  2  0
  6  7  1  0
  6 37  1  0
  7  8  1  0
  8  9  1  0
  9 10  1  0
 10 11  1  0
 11 12  2  0
 11 13  1  0
 13 14  1  0
 15 14  1  1
 15 16  1  0
 15 35  1  0
 16 17  2  0
 16 18  1  0
 18 19  1  0
 19 20  2  0
 19 34  1  0
 20 21  1  0
 21 22  1  1
 21 33  1  0
 22 23  1  0
 23 24  1  0
 24 25  1  0
 25 26  1  0
 26 27  2  0
 26 33  1  0
 27 28  1  0
 28 29  1  0
 28 31  2  0
 29 30  2  0
 31 32  1  0
 32 33  2  0
 32 34  1  0
 34 35  1  0
 35 36  2  0
 37 38  2  0
 38 39  1  0
 39 40  1  0
M  END
