
     RDKit          3D

 15 16  0  0  0  0  0  0  0  0999 V2000
    4.7840   -1.3860    0.6700 O   0  0  0  0  0  0  0  0  0  0  0  0
    4.2320   -0.3530    0.2190 C   0  0  0  0  0  0  0  0  0  0  0  0
    5.0550    0.6640   -0.2400 O   0  0  0  0  0  0  0  0  0  0  0  0
    2.7790   -0.2300    0.1800 C   0  0  0  0  0  0  0  0  0  0  0  0
    1.9820   -1.2540    0.6410 C   0  0  0  0  0  0  0  0  0  0  0  0
    0.5820   -1.1550    0.6120 C   0  0  0  0  0  0  0  0  0  0  0  0
    0.0070   -0.0130    0.1130 C   0  0  0  0  0  0  0  0  0  0  0  0
   -1.4320    0.1060    0.0750 C   0  0  0  0  0  0  0  0  0  0  0  0
   -1.9740    1.2840   -0.4410 C   0  0  0  0  0  0  0  0  0  0  0  0
   -3.3390    1.4640   -0.5060 C   0  0  0  0  0  0  0  0  0  0  0  0
   -4.2100    0.4830   -0.0630 C   0  0  0  0  0  0  0  0  0  0  0  0
   -3.6870   -0.6860    0.4490 C   0  0  0  0  0  0  0  0  0  0  0  0
   -2.3060   -0.8490    0.5060 C   0  0  0  0  0  0  0  0  0  0  0  0
    0.8000    0.9820   -0.3360 N   0  0  0  0  0  0  0  0  0  0  0  0
    2.1400    0.8870   -0.3080 C   0  0  0  0  0  0  0  0  0  0  0  0
  1  2  2  0
  2  3  1  0
  2  4  1  0
  4  5  2  0
  4 15  1  0
  5  6  1  0
  6  7  2  0
  7  8  1  0
  7 14  1  0
  8  9  2  0
  8 13  1  0
  9 10  1  0
 10 11  2  0
 11 12  1  0
 12 13  2  0
 14 15  2  0
M  END
