
     RDKit          3D

 24 27  0  0  0  0  0  0  0  0999 V2000
   -5.8240   -0.2540   -1.1610 C   0  0  0  0  0  0  0  0  0  0  0  0
   -4.8630    0.2200   -0.0940 C   0  0  2  0  0  0  0  0  0  0  0  0
   -5.1840    1.6450    0.3850 C   0  0  0  0  0  0  0  0  0  0  0  0
   -4.2820    1.8690    1.5870 C   0  0  0  0  0  0  0  0  0  0  0  0
   -3.2950    0.7900    1.7820 C   0  0  0  0  0  0  0  0  0  0  0  0
   -2.4700    0.6890    0.4720 C   0  0  1  0  0  0  0  0  0  0  0  0
   -1.4920   -0.4200    0.7100 C   0  0  0  0  0  0  0  0  0  0  0  0
   -0.5190   -0.6500   -0.2900 N   0  0  0  0  0  0  0  0  0  0  0  0
    0.1840   -1.8930   -0.0210 C   0  0  0  0  0  0  0  0  0  0  0  0
    1.6420   -1.6850   -0.3490 C   0  0  0  0  0  0  0  0  0  0  0  0
    2.2580   -0.5170    0.0790 N   0  0  0  0  0  0  0  0  0  0  0  0
    3.5270   -0.5950   -0.2080 N   0  0  0  0  0  0  0  0  0  0  0  0
    3.8030   -1.7690   -0.8160 C   0  0  0  0  0  0  0  0  0  0  0  0
    5.1020   -2.0720   -1.1530 C   0  0  0  0  0  0  0  0  0  0  0  0
    6.1670   -1.2240   -0.9020 C   0  0  0  0  0  0  0  0  0  0  0  0
    7.3420   -1.5170   -1.2240 O   0  0  0  0  0  0  0  0  0  0  0  0
    5.8640   -0.0200   -0.2820 C   0  0  0  0  0  0  0  0  0  0  0  0
    6.8980    0.8620    0.0090 C   0  0  0  0  0  0  0  0  0  0  0  0
    6.5400    2.0370    0.6500 C   0  0  0  0  0  0  0  0  0  0  0  0
    5.2430    2.3030    0.9690 N   0  0  0  0  0  0  0  0  0  0  0  0
    4.2900    1.4420    0.6760 C   0  0  0  0  0  0  0  0  0  0  0  0
    4.5670    0.2560    0.0460 C   0  0  0  0  0  0  0  0  0  0  0  0
    2.5910   -2.4130   -0.8820 N   0  0  0  0  0  0  0  0  0  0  0  0
   -3.4320    0.2950   -0.6430 C   0  0  0  0  0  0  0  0  0  0  0  0
  2  1  1  6
  2  3  1  0
  2 24  1  0
  3  4  1  0
  4  5  1  0
  5  6  1  0
  6  7  1  1
  6 24  1  0
  7  8  1  0
  8  9  1  0
  9 10  1  0
 10 11  2  0
 10 23  1  0
 11 12  1  0
 12 13  1  0
 12 22  1  0
 13 14  2  0
 13 23  1  0
 14 15  1  0
 15 16  2  0
 15 17  1  0
 17 18  2  0
 17 22  1  0
 18 19  1  0
 19 20  2  0
 20 21  1  0
 21 22  2  0
M  END
