
     RDKit          3D

 24 26  0  0  0  0  0  0  0  0999 V2000
   -2.7200    2.5880    0.9060 C   0  0  0  0  0  0  0  0  0  0  0  0
   -1.4310    2.4790    0.8520 N   0  0  0  0  0  0  0  0  0  0  0  0
   -0.6880    1.8510    1.9020 C   0  0  0  0  0  0  0  0  0  0  0  0
   -0.0740    2.6830    2.7620 C   0  0  0  0  0  0  0  0  0  0  0  0
   -0.5750    0.4620    2.0760 N   0  0  0  0  0  0  0  0  0  0  0  0
   -1.4970   -0.4050    1.4600 C   0  0  0  0  0  0  0  0  0  0  0  0
   -1.1220   -1.0030    0.3260 C   0  0  0  0  0  0  0  0  0  0  0  0
   -2.1120   -1.8880   -0.2690 C   0  0  0  0  0  0  0  0  0  0  0  0
   -1.8850   -2.4920   -1.3860 N   0  0  0  0  0  0  0  0  0  0  0  0
   -0.6450   -2.2770   -2.0290 C   0  0  0  0  0  0  0  0  0  0  0  0
    0.2990   -1.5150   -1.5700 C   0  0  0  0  0  0  0  0  0  0  0  0
    1.5540   -1.3850   -2.3870 C   0  0  0  0  0  0  0  0  0  0  0  0
    1.8790    0.0880   -2.5110 C   0  0  0  0  0  0  0  0  0  0  0  0
    0.9060    0.8910   -1.7250 C   0  0  0  0  0  0  0  0  0  0  0  0
    0.7630    0.4870   -0.3170 N   0  0  0  0  0  0  0  0  0  0  0  0
    2.1160    0.4530    0.2090 C   0  0  0  0  0  0  0  0  0  0  0  0
    2.7560    1.8180    0.2880 C   0  0  0  0  0  0  0  0  0  0  0  0
    4.0280    1.7600    0.7950 O   0  0  0  0  0  0  0  0  0  0  0  0
    4.9300    1.0060    0.0900 C   0  0  0  0  0  0  0  0  0  0  0  0
    0.1780   -0.8330   -0.2720 C   0  0  1  0  0  0  0  0  0  0  0  0
   -3.4440   -2.0990    0.3650 C   0  0  0  0  0  0  0  0  0  0  0  0
   -4.4020   -3.0140   -0.2940 C   0  0  0  0  0  0  0  0  0  0  0  0
   -3.7490   -1.4790    1.4840 C   0  0  0  0  0  0  0  0  0  0  0  0
   -2.7800   -0.6150    2.0590 N   0  0  0  0  0  0  0  0  0  0  0  0
  1  2  2  0
  2  3  1  0
  3  4  2  0
  3  5  1  0
  5  6  1  0
  6  7  2  0
  6 24  1  0
  7  8  1  0
  7 20  1  0
  8  9  2  0
  8 21  1  0
  9 10  1  0
 10 11  2  0
 11 12  1  0
 11 20  1  0
 12 13  1  0
 13 14  1  0
 14 15  1  0
 15 16  1  0
 20 15  1  6
 16 17  1  0
 17 18  1  0
 18 19  1  0
 21 22  1  0
 21 23  2  0
 23 24  1  0
M  END
