
     RDKit          3D

 24 26  0  0  0  0  0  0  0  0999 V2000
   -3.4090    2.8590    1.5980 C   0  0  0  0  0  0  0  0  0  0  0  0
   -3.6150    1.5200    1.0640 C   0  0  0  0  0  0  0  0  0  0  0  0
   -4.8050    0.9650    1.1400 N   0  0  0  0  0  0  0  0  0  0  0  0
   -5.3700   -0.2730    0.7470 C   0  0  0  0  0  0  0  0  0  0  0  0
   -4.4780   -1.2780    0.2770 N   0  0  0  0  0  0  0  0  0  0  0  0
   -5.0920   -2.5670    0.2110 C   0  0  0  0  0  0  0  0  0  0  0  0
   -3.7420   -0.9220   -0.9260 C   0  0  0  0  0  0  0  0  0  0  0  0
   -2.4940   -0.2500   -0.4340 C   0  0  0  0  0  0  0  0  0  0  0  0
   -1.3730   -0.7620   -0.9010 N   0  0  0  0  0  0  0  0  0  0  0  0
   -0.1760   -0.2130   -0.4940 C   0  0  0  0  0  0  0  0  0  0  0  0
    1.0020   -0.7920   -1.0200 N   0  0  0  0  0  0  0  0  0  0  0  0
    2.3340   -0.4120   -0.7580 C   0  0  0  0  0  0  0  0  0  0  0  0
    2.7010    0.6140    0.0800 C   0  0  0  0  0  0  0  0  0  0  0  0
    4.0360    0.9690    0.3220 C   0  0  0  0  0  0  0  0  0  0  0  0
    4.3000    2.0800    1.2340 C   0  0  0  0  0  0  0  0  0  0  0  0
    5.0090    0.2430   -0.3190 C   0  0  0  0  0  0  0  0  0  0  0  0
    6.4340    0.5990   -0.0800 C   0  0  0  0  0  0  0  0  0  0  0  0
    4.6680   -0.7870   -1.1610 C   0  0  0  0  0  0  0  0  0  0  0  0
    3.3630   -1.1330   -1.3970 C   0  0  0  0  0  0  0  0  0  0  0  0
    3.0420   -2.2660   -2.3250 C   0  0  0  0  0  0  0  0  0  0  0  0
   -0.1670    0.8120    0.3530 N   0  0  0  0  0  0  0  0  0  0  0  0
   -1.2900    1.3530    0.8450 C   0  0  0  0  0  0  0  0  0  0  0  0
   -1.3180    2.3080    1.6370 O   0  0  0  0  0  0  0  0  0  0  0  0
   -2.4860    0.8110    0.4430 C   0  0  0  0  0  0  0  0  0  0  0  0
  1  2  1  0
  2  3  2  0
  2 24  1  0
  3  4  1  0
  4  5  1  0
  5  6  1  0
  5  7  1  0
  7  8  1  0
  8  9  1  0
  8 24  2  0
  9 10  1  0
 10 11  1  0
 10 21  2  0
 11 12  1  0
 12 13  2  0
 12 19  1  0
 13 14  1  0
 14 15  1  0
 14 16  2  0
 16 17  1  0
 16 18  1  0
 18 19  2  0
 19 20  1  0
 21 22  1  0
 22 23  2  0
 22 24  1  0
M  END
