
     RDKit          3D

 24 27  0  0  0  0  0  0  0  0999 V2000
    0.8580   -2.6230    0.7760 C   0  0  0  0  0  0  0  0  0  0  0  0
    1.1500   -1.4510    1.6490 C   0  0  0  0  0  0  0  0  0  0  0  0
    1.2950   -0.2170    0.9170 N   0  0  0  0  0  0  0  0  0  0  0  0
    0.2070    0.6340    0.6850 C   0  0  0  0  0  0  0  0  0  0  0  0
    0.4070    1.7200    0.0480 O   0  0  0  0  0  0  0  0  0  0  0  0
   -1.1530    0.3600    1.1360 C   0  0  1  0  0  0  0  0  0  0  0  0
   -1.7130    1.6640    1.5060 N   0  0  0  0  0  0  0  0  0  0  0  0
   -2.7340    1.8870    0.8080 C   0  0  0  0  0  0  0  0  0  0  0  0
   -3.5450    3.1500    0.9440 C   0  0  0  0  0  0  0  0  0  0  0  0
   -2.9930    0.7870   -0.0970 C   0  0  0  0  0  0  0  0  0  0  0  0
   -2.0670   -0.1520    0.0710 C   0  0  0  0  0  0  0  0  0  0  0  0
   -2.0590   -1.4030   -0.6870 C   0  0  0  0  0  0  0  0  0  0  0  0
   -3.3810   -1.7490   -1.3360 C   0  0  0  0  0  0  0  0  0  0  0  0
   -4.5100   -0.8490   -0.9620 C   0  0  0  0  0  0  0  0  0  0  0  0
   -4.0560    0.5840   -1.1020 C   0  0  0  0  0  0  0  0  0  0  0  0
    2.6250    0.1300    0.4260 C   0  0  0  0  0  0  0  0  0  0  0  0
    3.5270    0.6530    1.3030 C   0  0  0  0  0  0  0  0  0  0  0  0
    4.7840    1.0070    0.9700 N   0  0  0  0  0  0  0  0  0  0  0  0
    5.1900    0.8400   -0.3040 C   0  0  0  0  0  0  0  0  0  0  0  0
    6.3360    1.0730   -0.9720 N   0  0  0  0  0  0  0  0  0  0  0  0
    6.1600    0.7040   -2.2520 C   0  0  0  0  0  0  0  0  0  0  0  0
    4.8920    0.2150   -2.4650 C   0  0  0  0  0  0  0  0  0  0  0  0
    4.2340    0.2820   -1.2490 C   0  0  0  0  0  0  0  0  0  0  0  0
    2.9740   -0.0580   -0.8550 N   0  0  0  0  0  0  0  0  0  0  0  0
  1  2  1  0
  2  3  1  0
  3  4  1  0
  3 16  1  0
  4  5  2  0
  6  4  1  6
  6  7  1  0
  6 11  1  0
  7  8  2  0
  8  9  1  0
  8 10  1  0
 10 11  2  0
 10 15  1  0
 11 12  1  0
 12 13  1  0
 13 14  1  0
 14 15  1  0
 16 17  2  0
 16 24  1  0
 17 18  1  0
 18 19  1  0
 19 20  2  0
 19 23  1  0
 20 21  1  0
 21 22  2  0
 22 23  1  0
 23 24  2  0
M  END
