
     RDKit          3D

 24 26  0  0  0  0  0  0  0  0999 V2000
    4.6690    2.7100    1.8520 C   0  0  0  0  0  0  0  0  0  0  0  0
    3.8440    2.5400    0.6600 N   0  0  0  0  0  0  0  0  0  0  0  0
    3.4420    1.3370    0.3330 C   0  0  0  0  0  0  0  0  0  0  0  0
    3.8060    0.1830    1.1370 C   0  0  0  0  0  0  0  0  0  0  0  0
    3.3810   -1.0110    0.7740 C   0  0  0  0  0  0  0  0  0  0  0  0
    2.5800   -1.1110   -0.3990 N   0  0  0  0  0  0  0  0  0  0  0  0
    3.1890   -1.5090   -1.6780 C   0  0  0  0  0  0  0  0  0  0  0  0
    2.0750   -1.5540   -2.6990 C   0  0  0  0  0  0  0  0  0  0  0  0
    1.2310   -0.3000   -2.6530 C   0  0  0  0  0  0  0  0  0  0  0  0
    0.4360   -0.1880   -1.3930 C   0  0  0  0  0  0  0  0  0  0  0  0
    1.1920   -0.8190   -0.2830 C   0  0  0  0  0  0  0  0  0  0  0  0
    0.5970   -1.1280    0.8450 N   0  0  0  0  0  0  0  0  0  0  0  0
   -0.7900   -0.8380    0.9660 C   0  0  0  0  0  0  0  0  0  0  0  0
   -1.6570   -1.7050    0.4560 C   0  0  0  0  0  0  0  0  0  0  0  0
   -3.0790   -1.6570    0.4400 N   0  0  0  0  0  0  0  0  0  0  0  0
   -3.9650   -0.5760    0.7100 C   0  0  0  0  0  0  0  0  0  0  0  0
   -5.2550   -0.8490    0.2850 C   0  0  0  0  0  0  0  0  0  0  0  0
   -6.2220    0.1150    0.4850 C   0  0  0  0  0  0  0  0  0  0  0  0
   -5.9470    1.3190    1.0830 C   0  0  0  0  0  0  0  0  0  0  0  0
   -4.6700    1.5890    1.5040 C   0  0  0  0  0  0  0  0  0  0  0  0
   -3.6980    0.6370    1.3110 C   0  0  0  0  0  0  0  0  0  0  0  0
   -2.4110    1.0620    1.8030 N   0  0  0  0  0  0  0  0  0  0  0  0
   -1.1600    0.4060    1.6490 C   0  0  0  0  0  0  0  0  0  0  0  0
   -0.1440    0.9560    2.1830 O   0  0  0  0  0  0  0  0  0  0  0  0
  1  2  1  0
  2  3  2  3
  3  4  1  0
  4  5  2  3
  5  6  1  0
  6  7  1  0
  6 11  1  0
  7  8  1  0
  8  9  1  0
  9 10  1  0
 10 11  1  0
 11 12  2  3
 12 13  1  0
 13 14  2  0
 13 23  1  0
 14 15  1  0
 15 16  1  0
 16 17  2  0
 16 21  1  0
 17 18  1  0
 18 19  2  0
 19 20  1  0
 20 21  2  0
 21 22  1  0
 22 23  1  0
 23 24  2  0
M  END
