
     RDKit          3D

 40 46  0  0  0  0  0  0  0  0999 V2000
   -2.3140   -0.8340    4.2630 O   0  0  0  0  0  0  0  0  0  0  0  0
   -2.5890   -0.2030    3.1450 C   0  0  0  0  0  0  0  0  0  0  0  0
   -3.9210    0.1470    3.0440 C   0  0  0  0  0  0  0  0  0  0  0  0
   -4.5360    0.9720    2.1630 C   0  0  0  0  0  0  0  0  0  0  0  0
   -4.2040    1.2680    0.8160 C   0  0  0  0  0  0  0  0  0  0  0  0
   -3.8420    2.5160    0.3340 C   0  0  0  0  0  0  0  0  0  0  0  0
   -3.5860    2.3580   -0.9920 C   0  0  0  0  0  0  0  0  0  0  0  0
   -3.7710    1.0740   -1.3550 C   0  0  0  0  0  0  0  0  0  0  0  0
   -4.1680    0.3600   -0.2150 C   0  0  0  0  0  0  0  0  0  0  0  0
   -4.5340   -0.9770   -0.0700 C   0  0  0  0  0  0  0  0  0  0  0  0
   -4.9660   -1.7670    0.9010 N   0  0  0  0  0  0  0  0  0  0  0  0
   -4.4590   -2.5690    1.8470 C   0  0  0  0  0  0  0  0  0  0  0  0
   -5.3320   -2.9330    2.8620 C   0  0  0  0  0  0  0  0  0  0  0  0
   -4.9780   -3.7920    3.8910 C   0  0  0  0  0  0  0  0  0  0  0  0
   -3.7140   -4.3150    3.9160 C   0  0  0  0  0  0  0  0  0  0  0  0
   -2.8200   -3.9760    2.9230 C   0  0  0  0  0  0  0  0  0  0  0  0
   -3.1300   -3.1110    1.8730 C   0  0  0  0  0  0  0  0  0  0  0  0
   -2.1250   -2.8530    0.9830 C   0  0  0  0  0  0  0  0  0  0  0  0
   -1.8170   -3.8320    0.0400 N   0  0  0  0  0  0  0  0  0  0  0  0
   -0.9040   -3.4160   -0.7650 N   0  0  0  0  0  0  0  0  0  0  0  0
   -0.5810   -2.1680   -0.3850 C   0  0  0  0  0  0  0  0  0  0  0  0
    0.3480   -1.3680   -0.9480 N   0  0  0  0  0  0  0  0  0  0  0  0
    0.5940   -0.1390   -0.4470 C   0  0  0  0  0  0  0  0  0  0  0  0
    1.5710    0.7030   -1.0150 N   0  0  0  0  0  0  0  0  0  0  0  0
    2.3830    0.2470   -2.1020 C   0  0  0  0  0  0  0  0  0  0  0  0
    3.8490    0.5690   -1.8660 C   0  0  0  0  0  0  0  0  0  0  0  0
    4.0170    2.0280   -1.5090 C   0  0  2  0  0  0  0  0  0  0  0  0
    5.4890    2.2520   -1.1920 C   0  0  0  0  0  0  0  0  0  0  0  0
    6.3300    1.9130   -2.3140 N   0  0  0  0  0  0  0  0  0  0  0  0
    6.6990    2.7400   -3.2940 C   0  0  0  0  0  0  0  0  0  0  0  0
    7.5120    2.0710   -4.2020 C   0  0  0  0  0  0  0  0  0  0  0  0
    7.6060    0.7860   -3.7010 C   0  0  0  0  0  0  0  0  0  0  0  0
    8.5050   -0.5250   -4.4290 Cl  0  0  0  0  0  0  0  0  0  0  0  0
    6.8720    0.7050   -2.5330 C   0  0  0  0  0  0  0  0  0  0  0  0
    3.2550    2.2890   -0.2400 C   0  0  0  0  0  0  0  0  0  0  0  0
    1.7780    2.0320   -0.5040 C   0  0  0  0  0  0  0  0  0  0  0  0
   -0.1350    0.2040    0.6190 N   0  0  0  0  0  0  0  0  0  0  0  0
   -1.0920   -0.6080    1.2070 C   0  0  0  0  0  0  0  0  0  0  0  0
   -1.5540   -0.0220    2.3370 N   0  0  0  0  0  0  0  0  0  0  0  0
   -1.3230   -1.8150    0.6910 N   0  0  0  0  0  0  0  0  0  0  0  0
  1  2  2  0
  2  3  1  0
  2 39  1  0
  3  4  2  0
  4  5  1  0
  5  6  2  0
  5  9  1  0
  6  7  1  0
  7  8  2  0
  8  9  1  0
  9 10  2  0
 10 11  1  0
 11 12  1  0
 12 13  2  0
 12 17  1  0
 13 14  1  0
 14 15  2  0
 15 16  1  0
 16 17  2  0
 17 18  1  0
 18 19  2  0
 18 40  1  0
 19 20  1  0
 20 21  2  0
 21 22  1  0
 21 40  1  0
 22 23  2  0
 23 24  1  0
 23 37  1  0
 24 25  1  0
 24 36  1  0
 25 26  1  0
 26 27  1  0
 27 28  1  1
 27 35  1  0
 28 29  1  0
 29 30  1  0
 29 34  1  0
 30 31  2  0
 31 32  1  0
 32 33  1  0
 32 34  2  0
 35 36  1  0
 37 38  2  0
 38 39  1  0
 38 40  1  0
M  END
