
     RDKit          3D

 40 43  0  0  0  0  0  0  0  0999 V2000
    3.0490    2.9730    1.1510 C   0  0  0  0  0  0  0  0  0  0  0  0
    3.5010    1.6140    1.6830 C   0  0  2  0  0  0  0  0  0  0  0  0
    4.8230    1.2460    1.1050 C   0  0  0  0  0  0  0  0  0  0  0  0
    2.4270    0.5760    1.6340 C   0  0  0  0  0  0  0  0  0  0  0  0
    1.8860    0.2660    0.3890 N   0  0  0  0  0  0  0  0  0  0  0  0
    0.6980    0.9550   -0.0180 C   0  0  0  0  0  0  0  0  0  0  0  0
   -0.5430    0.5650    0.6740 C   0  0  1  0  0  0  0  0  0  0  0  0
   -0.6180    0.7340    2.0250 O   0  0  0  0  0  0  0  0  0  0  0  0
   -1.8330    1.0160    0.0350 C   0  0  2  0  0  0  0  0  0  0  0  0
   -2.3060    2.3610    0.4210 C   0  0  0  0  0  0  0  0  0  0  0  0
   -1.5050    3.5260    0.1790 C   0  0  0  0  0  0  0  0  0  0  0  0
   -1.5290    4.1870   -1.0390 C   0  0  0  0  0  0  0  0  0  0  0  0
   -0.7700    5.3230   -1.2150 C   0  0  0  0  0  0  0  0  0  0  0  0
    0.0260    5.8220   -0.1880 C   0  0  0  0  0  0  0  0  0  0  0  0
    0.0440    5.1580    1.0210 C   0  0  0  0  0  0  0  0  0  0  0  0
   -0.7070    4.0220    1.2180 C   0  0  0  0  0  0  0  0  0  0  0  0
   -2.8490    0.0960    0.6110 N   0  0  0  0  0  0  0  0  0  0  0  0
   -3.5970   -0.7880   -0.1730 C   0  0  0  0  0  0  0  0  0  0  0  0
   -3.3940   -0.7970   -1.4160 O   0  0  0  0  0  0  0  0  0  0  0  0
   -4.5540   -1.6580    0.3500 O   0  0  0  0  0  0  0  0  0  0  0  0
   -5.2480   -2.5020   -0.5170 C   0  0  1  0  0  0  0  0  0  0  0  0
   -5.1650   -3.9530   -0.1090 C   0  0  0  0  0  0  0  0  0  0  0  0
   -6.3460   -4.5610   -0.4170 O   0  0  0  0  0  0  0  0  0  0  0  0
   -7.2430   -3.6500   -0.8990 C   0  0  1  0  0  0  0  0  0  0  0  0
   -8.4420   -3.7470   -0.1940 O   0  0  0  0  0  0  0  0  0  0  0  0
   -7.9760   -3.5440    1.1260 C   0  0  0  0  0  0  0  0  0  0  0  0
   -7.2460   -2.2210    0.9620 C   0  0  0  0  0  0  0  0  0  0  0  0
   -6.7570   -2.2710   -0.4500 C   0  0  1  0  0  0  0  0  0  0  0  0
    2.2140   -1.1640   -0.3880 S   0  0  2  0  0  0  0  0  0  0  0  0
    1.4810   -1.1890   -1.7080 O   0  0  0  0  0  0  0  0  0  0  0  0
    1.7960   -2.4010    0.4120 O   0  0  0  0  0  0  0  0  0  0  0  0
    3.8980   -1.3750   -0.7570 C   0  0  0  0  0  0  0  0  0  0  0  0
    4.6800   -2.0780    0.1420 C   0  0  0  0  0  0  0  0  0  0  0  0
    6.0190   -2.2910   -0.0910 C   0  0  0  0  0  0  0  0  0  0  0  0
    6.5840   -1.7910   -1.2460 C   0  0  0  0  0  0  0  0  0  0  0  0
    7.9890   -2.0010   -1.5150 C   0  0  0  0  0  0  0  0  0  0  0  0
    8.7830   -2.7170   -0.5940 N   0  0  0  0  0  0  0  0  0  0  0  0
    8.5050   -1.5550   -2.5550 O   0  0  0  0  0  0  0  0  0  0  0  0
    5.8050   -1.0800   -2.1610 C   0  0  0  0  0  0  0  0  0  0  0  0
    4.4680   -0.8720   -1.9180 C   0  0  0  0  0  0  0  0  0  0  0  0
  2  1  1  6
  2  3  1  0
  2  4  1  0
  4  5  1  0
  5  6  1  0
 29  5  1  1
  6  7  1  0
  7  8  1  1
  7  9  1  0
  9 10  1  1
  9 17  1  0
 10 11  1  0
 11 12  2  0
 11 16  1  0
 12 13  1  0
 13 14  2  0
 14 15  1  0
 15 16  2  0
 17 18  1  0
 18 19  2  0
 18 20  1  0
 21 20  1  1
 21 22  1  0
 21 28  1  0
 22 23  1  0
 24 23  1  1
 24 25  1  0
 24 28  1  0
 25 26  1  0
 26 27  1  0
 28 27  1  1
 29 30  2  0
 29 31  2  0
 29 32  1  0
 32 33  2  0
 32 40  1  0
 33 34  1  0
 34 35  2  0
 35 36  1  0
 35 39  1  0
 36 37  1  0
 36 38  2  0
 39 40  2  0
M  END
