
     RDKit          3D

 39 45  0  0  0  0  0  0  0  0999 V2000
    5.2010   -4.5230    0.8010 C   0  0  0  0  0  0  0  0  0  0  0  0
    3.8180   -4.5110    0.9380 C   0  0  0  0  0  0  0  0  0  0  0  0
    3.1120   -3.3430    0.7550 C   0  0  0  0  0  0  0  0  0  0  0  0
    3.7650   -2.1540    0.4300 C   0  0  0  0  0  0  0  0  0  0  0  0
    2.9360   -0.9570    0.2520 C   0  0  0  0  0  0  0  0  0  0  0  0
    1.5750   -0.9310    0.3820 N   0  0  0  0  0  0  0  0  0  0  0  0
    1.1430    0.3140    0.1550 C   0  0  0  0  0  0  0  0  0  0  0  0
   -0.2160    0.8310    0.1770 C   0  0  0  0  0  0  0  0  0  0  0  0
   -1.2970    0.0290    0.4590 C   0  0  0  0  0  0  0  0  0  0  0  0
   -2.5840    0.5250    0.4790 C   0  0  0  0  0  0  0  0  0  0  0  0
   -2.8320    1.8530    0.2150 C   0  0  0  0  0  0  0  0  0  0  0  0
   -4.1950    2.3980    0.2270 C   0  0  0  0  0  0  0  0  0  0  0  0
   -5.2310    1.3700    0.1510 N   0  0  0  0  0  0  0  0  0  0  0  0
   -6.4930    2.0940    0.2140 C   0  0  0  0  0  0  0  0  0  0  0  0
   -7.6560    1.1960    0.3410 C   0  0  0  0  0  0  0  0  0  0  0  0
   -8.6980    1.9020    0.8360 N   0  0  0  0  0  0  0  0  0  0  0  0
   -9.8950    1.3280    1.0550 C   0  0  0  0  0  0  0  0  0  0  0  0
  -10.0680   -0.0090    0.7700 C   0  0  0  0  0  0  0  0  0  0  0  0
   -9.0540   -0.7450    0.2760 N   0  0  0  0  0  0  0  0  0  0  0  0
   -7.8710   -0.1340    0.0710 C   0  0  0  0  0  0  0  0  0  0  0  0
   -6.8760   -1.0290   -0.4580 N   0  0  0  0  0  0  0  0  0  0  0  0
   -7.0240   -2.3620   -0.5120 C   0  0  0  0  0  0  0  0  0  0  0  0
   -5.8830   -2.8870   -1.0720 C   0  0  0  0  0  0  0  0  0  0  0  0
   -5.0480   -1.8700   -1.3560 N   0  0  0  0  0  0  0  0  0  0  0  0
   -5.6510   -0.7390   -0.9820 C   0  0  0  0  0  0  0  0  0  0  0  0
   -5.1130    0.6410   -1.0990 C   0  0  0  0  0  0  0  0  0  0  0  0
   -1.7310    2.6540   -0.0680 C   0  0  0  0  0  0  0  0  0  0  0  0
   -0.4520    2.1590   -0.0880 C   0  0  0  0  0  0  0  0  0  0  0  0
    2.2500    1.0300   -0.1110 N   0  0  0  0  0  0  0  0  0  0  0  0
    3.2710    0.2580   -0.0450 O   0  0  0  0  0  0  0  0  0  0  0  0
    5.1150   -2.1990    0.3030 C   0  0  0  0  0  0  0  0  0  0  0  0
    5.8510   -1.0400   -0.0230 N   0  0  0  0  0  0  0  0  0  0  0  0
    7.2820   -1.1070   -0.1550 C   0  0  0  0  0  0  0  0  0  0  0  0
    7.8830    0.2390   -0.5080 C   0  0  2  0  0  0  0  0  0  0  0  0
    7.5980    1.2800    0.5240 C   0  0  0  0  0  0  0  0  0  0  0  0
    7.2740    2.5300   -0.2690 C   0  0  0  0  0  0  0  0  0  0  0  0
    7.2580    2.1110   -1.7110 C   0  0  0  0  0  0  0  0  0  0  0  0
    7.3180    0.6750   -1.7490 N   0  0  0  0  0  0  0  0  0  0  0  0
    5.8360   -3.3680    0.4850 C   0  0  0  0  0  0  0  0  0  0  0  0
  1  2  2  0
  1 39  1  0
  2  3  1  0
  3  4  2  0
  4  5  1  0
  4 31  1  0
  5  6  2  0
  5 30  1  0
  6  7  1  0
  7  8  1  0
  7 29  2  0
  8  9  2  0
  8 28  1  0
  9 10  1  0
 10 11  2  0
 11 12  1  0
 11 27  1  0
 12 13  1  0
 13 14  1  0
 13 26  1  0
 14 15  1  0
 15 16  2  0
 15 20  1  0
 16 17  1  0
 17 18  2  0
 18 19  1  0
 19 20  2  0
 20 21  1  0
 21 22  1  0
 21 25  1  0
 22 23  2  0
 23 24  1  0
 24 25  2  0
 25 26  1  0
 27 28  2  0
 29 30  1  0
 31 32  1  0
 31 39  2  0
 32 33  1  0
 34 33  1  1
 34 35  1  0
 34 38  1  0
 35 36  1  0
 36 37  1  0
 37 38  1  0
M  END
