
     RDKit          3D

 39 45  0  0  0  0  0  0  0  0999 V2000
    5.3210   -0.3860    2.4220 C   0  0  0  0  0  0  0  0  0  0  0  0
    6.2890   -0.1010    1.3170 C   0  0  1  0  0  0  0  0  0  0  0  0
    7.5630   -0.9100    1.4420 C   0  0  0  0  0  0  0  0  0  0  0  0
    7.1820   -2.2140    0.8610 C   0  0  0  0  0  0  0  0  0  0  0  0
    7.6630   -3.3440    1.1180 O   0  0  0  0  0  0  0  0  0  0  0  0
    6.1320   -1.9450   -0.0760 N   0  0  0  0  0  0  0  0  0  0  0  0
    5.7730   -0.5730    0.0010 C   0  0  0  0  0  0  0  0  0  0  0  0
    5.1300    0.0890   -0.9090 N   0  0  0  0  0  0  0  0  0  0  0  0
    4.8140    1.4720   -0.7400 C   0  0  0  0  0  0  0  0  0  0  0  0
    5.7190    2.4470   -0.5530 N   0  0  0  0  0  0  0  0  0  0  0  0
    5.0580    3.6040   -0.4350 C   0  0  0  0  0  0  0  0  0  0  0  0
    5.4570    4.8980   -0.2350 N   0  0  0  0  0  0  0  0  0  0  0  0
    4.5750    5.9100   -0.1510 C   0  0  0  0  0  0  0  0  0  0  0  0
    3.2380    5.5920   -0.2760 C   0  0  0  0  0  0  0  0  0  0  0  0
    2.8400    4.3100   -0.4740 N   0  0  0  0  0  0  0  0  0  0  0  0
    3.7230    3.3110   -0.5560 C   0  0  0  0  0  0  0  0  0  0  0  0
    3.5950    1.9910   -0.7430 N   0  0  0  0  0  0  0  0  0  0  0  0
    2.3850    1.2270   -0.9200 C   0  0  0  0  0  0  0  0  0  0  0  0
    1.8030    0.7250    0.3760 C   0  0  0  0  0  0  0  0  0  0  0  0
    0.5690   -0.0370    0.0310 C   0  0  0  0  0  0  0  0  0  0  0  0
    0.6970   -1.3580   -0.2150 N   0  0  0  0  0  0  0  0  0  0  0  0
   -0.3270   -2.1520   -0.5330 C   0  0  0  0  0  0  0  0  0  0  0  0
   -0.2500   -3.5030   -0.7930 C   0  0  0  0  0  0  0  0  0  0  0  0
   -1.3730   -4.2700   -1.1220 C   0  0  0  0  0  0  0  0  0  0  0  0
   -2.6240   -3.6650   -1.1940 C   0  0  0  0  0  0  0  0  0  0  0  0
   -2.6590   -2.3190   -0.9280 C   0  0  0  0  0  0  0  0  0  0  0  0
   -4.0020   -1.7890   -1.0280 C   0  0  0  0  0  0  0  0  0  0  0  0
   -4.1750   -0.4830   -0.7910 C   0  0  0  0  0  0  0  0  0  0  0  0
   -5.5240    0.0840   -0.8860 C   0  0  0  0  0  0  0  0  0  0  0  0
   -6.0910    0.6600    0.3570 C   0  0  1  0  0  0  0  0  0  0  0  0
   -5.3450    1.7910    0.9760 C   0  0  0  0  0  0  0  0  0  0  0  0
   -7.4790    1.2060   -0.0100 C   0  0  0  0  0  0  0  0  0  0  0  0
   -6.3230   -0.3750    1.4410 C   0  0  0  0  0  0  0  0  0  0  0  0
   -3.0410    0.3210   -0.4550 N   0  0  0  0  0  0  0  0  0  0  0  0
   -1.7110   -0.1840   -0.3510 C   0  0  0  0  0  0  0  0  0  0  0  0
   -0.6390    0.5590   -0.0360 N   0  0  0  0  0  0  0  0  0  0  0  0
   -1.5690   -1.5490   -0.6040 C   0  0  0  0  0  0  0  0  0  0  0  0
   -4.8680   -2.9210   -1.3920 C   0  0  0  0  0  0  0  0  0  0  0  0
   -4.0020   -4.1480   -1.5050 C   0  0  0  0  0  0  0  0  0  0  0  0
  2  1  1  1
  2  3  1  0
  2  7  1  0
  3  4  1  0
  4  5  2  0
  4  6  1  0
  6  7  1  0
  7  8  2  3
  8  9  1  0
  9 10  2  0
  9 17  1  0
 10 11  1  0
 11 12  2  0
 11 16  1  0
 12 13  1  0
 13 14  2  0
 14 15  1  0
 15 16  2  0
 16 17  1  0
 17 18  1  0
 18 19  1  0
 19 20  1  0
 20 21  2  0
 20 36  1  0
 21 22  1  0
 22 23  2  0
 22 37  1  0
 23 24  1  0
 24 25  2  0
 25 26  1  0
 25 39  1  0
 26 27  1  0
 26 37  2  0
 27 28  2  0
 27 38  1  0
 28 29  1  0
 28 34  1  0
 29 30  1  0
 30 31  1  1
 30 32  1  0
 30 33  1  0
 34 35  1  0
 35 36  2  0
 35 37  1  0
 38 39  1  0
M  END
