
     RDKit          3D

 39 45  0  0  0  0  0  0  0  0999 V2000
    4.4550    4.3720   -0.9240 C   0  0  0  0  0  0  0  0  0  0  0  0
    4.3480    2.8660   -0.9080 C   0  0  0  0  0  0  0  0  0  0  0  0
    5.0790    2.1660   -0.1070 N   0  0  0  0  0  0  0  0  0  0  0  0
    4.9960    0.7550   -0.0760 C   0  0  0  0  0  0  0  0  0  0  0  0
    4.1220    0.1070   -0.9190 C   0  0  0  0  0  0  0  0  0  0  0  0
    4.1900   -1.2740   -0.6940 C   0  0  0  0  0  0  0  0  0  0  0  0
    3.6220   -2.4420   -1.1570 C   0  0  0  0  0  0  0  0  0  0  0  0
    4.0380   -3.6550   -0.5860 C   0  0  0  0  0  0  0  0  0  0  0  0
    5.0010   -3.6750    0.4210 C   0  0  0  0  0  0  0  0  0  0  0  0
    5.5130   -5.1760    1.1250 Cl  0  0  0  0  0  0  0  0  0  0  0  0
    5.5860   -2.4940    0.8990 C   0  0  0  0  0  0  0  0  0  0  0  0
    5.1230   -1.3760    0.2900 C   0  0  0  0  0  0  0  0  0  0  0  0
    5.6060   -0.2300    0.6670 N   0  0  0  0  0  0  0  0  0  0  0  0
    6.5760   -0.5050    1.7070 C   0  0  0  0  0  0  0  0  0  0  0  0
    6.5730   -2.0380    1.8730 C   0  0  0  0  0  0  0  0  0  0  0  0
    3.3080    0.8230   -1.8830 C   0  0  1  0  0  0  0  0  0  0  0  0
    1.8920    0.3270   -1.9110 C   0  0  0  0  0  0  0  0  0  0  0  0
    1.4360   -0.1070   -2.9820 O   0  0  0  0  0  0  0  0  0  0  0  0
    1.0720    0.3400   -0.7660 N   0  0  0  0  0  0  0  0  0  0  0  0
   -0.2640   -0.0860   -0.6490 C   0  0  0  0  0  0  0  0  0  0  0  0
   -0.8470   -0.2380    0.6170 C   0  0  0  0  0  0  0  0  0  0  0  0
   -2.1510   -0.6410    0.7680 C   0  0  0  0  0  0  0  0  0  0  0  0
   -2.9700   -0.9200   -0.2900 C   0  0  0  0  0  0  0  0  0  0  0  0
   -4.3630   -1.3370   -0.1990 C   0  0  0  0  0  0  0  0  0  0  0  0
   -5.2900   -0.5710    0.4090 C   0  0  0  0  0  0  0  0  0  0  0  0
   -4.9050    0.6790    0.9700 C   0  0  0  0  0  0  0  0  0  0  0  0
   -5.4270    1.6280    1.6020 C   0  0  0  0  0  0  0  0  0  0  0  0
   -6.6770    1.9960    2.1110 N   0  0  0  0  0  0  0  0  0  0  0  0
   -6.9470    3.1510    2.8120 C   0  0  0  0  0  0  0  0  0  0  0  0
   -8.2340    3.1830    3.1360 N   0  0  0  0  0  0  0  0  0  0  0  0
   -8.7750    2.0560    2.6440 C   0  0  0  0  0  0  0  0  0  0  0  0
   -7.8170    1.3720    2.0400 N   0  0  0  0  0  0  0  0  0  0  0  0
   -6.6190   -1.0810    0.4400 N   0  0  0  0  0  0  0  0  0  0  0  0
   -6.9690   -2.3270   -0.1350 N   0  0  0  0  0  0  0  0  0  0  0  0
   -5.9320   -3.0670   -0.7550 C   0  0  0  0  0  0  0  0  0  0  0  0
   -4.7450   -2.5910   -0.7710 N   0  0  0  0  0  0  0  0  0  0  0  0
   -2.4100   -0.7750   -1.5610 C   0  0  0  0  0  0  0  0  0  0  0  0
   -1.0790   -0.3640   -1.7110 C   0  0  0  0  0  0  0  0  0  0  0  0
    3.3620    2.2850   -1.8270 C   0  0  0  0  0  0  0  0  0  0  0  0
  1  2  1  0
  2  3  2  0
  2 39  1  0
  3  4  1  0
  4  5  2  0
  4 13  1  0
  5  6  1  0
  5 16  1  0
  6  7  2  0
  6 12  1  0
  7  8  1  0
  8  9  2  0
  9 10  1  0
  9 11  1  0
 11 12  2  0
 11 15  1  0
 12 13  1  0
 13 14  1  0
 14 15  1  0
 16 17  1  1
 16 39  1  0
 17 18  2  0
 17 19  1  0
 19 20  1  0
 20 21  2  0
 20 38  1  0
 21 22  1  0
 22 23  2  0
 23 24  1  0
 23 37  1  0
 24 25  2  0
 24 36  1  0
 25 26  1  0
 25 33  1  0
 26 27  2  3
 27 28  1  0
 28 29  1  0
 28 32  1  0
 29 30  2  0
 30 31  1  0
 31 32  2  0
 33 34  1  0
 34 35  1  0
 35 36  2  0
 37 38  2  0
M  END
