
     RDKit          3D

 32 35  0  0  0  0  0  0  0  0999 V2000
   -4.9470    0.1590    3.1910 C   0  0  0  0  0  0  0  0  0  0  0  0
   -4.1980   -0.1570    1.9510 C   0  0  0  0  0  0  0  0  0  0  0  0
   -3.8640   -1.4640    1.7120 C   0  0  0  0  0  0  0  0  0  0  0  0
   -3.1600   -1.8640    0.5860 C   0  0  0  0  0  0  0  0  0  0  0  0
   -2.7710   -0.8980   -0.3510 C   0  0  0  0  0  0  0  0  0  0  0  0
   -2.1170   -1.3010   -1.5910 C   0  0  0  0  0  0  0  0  0  0  0  0
   -0.7790   -1.0910   -2.0160 C   0  0  0  0  0  0  0  0  0  0  0  0
    0.2860   -0.5730   -1.5260 C   0  0  0  0  0  0  0  0  0  0  0  0
    0.5790    0.0460   -0.2430 C   0  0  0  0  0  0  0  0  0  0  0  0
   -0.3340    0.0820    0.5810 O   0  0  0  0  0  0  0  0  0  0  0  0
    1.9070    0.5780   -0.0180 N   0  0  0  0  0  0  0  0  0  0  0  0
    2.8990    0.2430   -1.0010 C   0  0  0  0  0  0  0  0  0  0  0  0
    4.2560    0.7020   -0.6680 C   0  0  0  0  0  0  0  0  0  0  0  0
    5.3970    0.3650   -1.6140 C   0  0  0  0  0  0  0  0  0  0  0  0
    5.5470   -1.1500   -1.6610 C   0  0  0  0  0  0  0  0  0  0  0  0
    5.8460   -1.6870   -0.3420 N   0  0  0  0  0  0  0  0  0  0  0  0
    4.5230    1.3900    0.4120 C   0  0  0  0  0  0  0  0  0  0  0  0
    3.4950    1.7480    1.3740 C   0  0  0  0  0  0  0  0  0  0  0  0
    3.8210    2.5020    2.5010 C   0  0  0  0  0  0  0  0  0  0  0  0
    2.8670    2.8640    3.4160 C   0  0  0  0  0  0  0  0  0  0  0  0
    1.5830    2.4600    3.1830 C   0  0  0  0  0  0  0  0  0  0  0  0
    1.2440    1.7050    2.0600 C   0  0  0  0  0  0  0  0  0  0  0  0
    2.1970    1.3390    1.1430 C   0  0  0  0  0  0  0  0  0  0  0  0
   -2.9410   -1.9610   -2.4530 C   0  0  0  0  0  0  0  0  0  0  0  0
   -4.3520   -2.2640   -2.2120 C   0  0  0  0  0  0  0  0  0  0  0  0
   -4.7880   -2.9210   -3.2950 C   0  0  0  0  0  0  0  0  0  0  0  0
   -3.7310   -3.0610   -4.2270 N   0  0  0  0  0  0  0  0  0  0  0  0
   -2.6500   -2.5080   -3.7530 C   0  0  0  0  0  0  0  0  0  0  0  0
   -3.1100    0.4300   -0.1100 C   0  0  0  0  0  0  0  0  0  0  0  0
   -2.7280    1.4520   -1.0250 N   0  0  0  0  0  0  0  0  0  0  0  0
   -3.8180    0.7850    1.0340 C   0  0  0  0  0  0  0  0  0  0  0  0
   -4.1700    2.2150    1.2720 C   0  0  0  0  0  0  0  0  0  0  0  0
  1  2  1  0
  2  3  2  0
  2 31  1  0
  3  4  1  0
  4  5  2  0
  5  6  1  0
  5 29  1  0
  6  7  1  0
  6 24  2  3
  7  8  2  3
  8  9  1  0
  9 10  2  0
  9 11  1  0
 11 12  1  0
 11 23  1  0
 12 13  1  0
 13 14  1  0
 13 17  2  0
 14 15  1  0
 15 16  1  0
 17 18  1  0
 18 19  2  0
 18 23  1  0
 19 20  1  0
 20 21  2  0
 21 22  1  0
 22 23  2  0
 24 25  1  0
 24 28  1  0
 25 26  2  0
 26 27  1  0
 27 28  2  0
 29 30  1  0
 29 31  2  0
 31 32  1  0
M  CHG  1  16   1
M  END
