
     RDKit          3D

 32 36  0  0  0  0  0  0  0  0999 V2000
   -9.9460    0.9680    0.0310 C   0  0  0  0  0  0  0  0  0  0  0  0
   -8.7530    0.1050   -0.1410 C   0  0  0  0  0  0  0  0  0  0  0  0
   -8.7020   -1.0840   -0.7040 N   0  0  0  0  0  0  0  0  0  0  0  0
   -7.4440   -1.5920   -0.6910 C   0  0  0  0  0  0  0  0  0  0  0  0
   -6.9980   -2.8950   -1.2280 C   0  0  0  0  0  0  0  0  0  0  0  0
   -6.6720   -0.6380   -0.0730 C   0  0  0  0  0  0  0  0  0  0  0  0
   -7.4810    0.4400    0.2810 C   0  0  0  0  0  0  0  0  0  0  0  0
   -6.9630    1.5440    0.9190 C   0  0  0  0  0  0  0  0  0  0  0  0
   -7.7640    2.4770    1.2050 O   0  0  0  0  0  0  0  0  0  0  0  0
   -5.6590    1.5900    1.2090 N   0  0  0  0  0  0  0  0  0  0  0  0
   -4.8170    0.5920    0.9000 C   0  0  0  0  0  0  0  0  0  0  0  0
   -3.4570    0.6880    1.2250 C   0  0  0  0  0  0  0  0  0  0  0  0
   -2.5960   -0.3340    0.9080 C   0  0  0  0  0  0  0  0  0  0  0  0
   -1.1740   -0.2310    1.2490 C   0  0  0  0  0  0  0  0  0  0  0  0
   -0.3520    0.4040    0.1540 C   0  0  0  0  0  0  0  0  0  0  0  0
    1.0690    0.5100    0.4900 C   0  0  0  0  0  0  0  0  0  0  0  0
    1.8990   -0.5490    0.1480 C   0  0  0  0  0  0  0  0  0  0  0  0
    3.2310   -0.5330    0.4220 C   0  0  0  0  0  0  0  0  0  0  0  0
    3.8100    0.5440    1.0560 C   0  0  0  0  0  0  0  0  0  0  0  0
    5.2630    0.5730    1.3610 C   0  0  0  0  0  0  0  0  0  0  0  0
    6.0130    1.1780    0.2640 N   0  0  0  0  0  0  0  0  0  0  0  0
    5.8380    0.4420   -0.9630 C   0  0  0  0  0  0  0  0  0  0  0  0
    6.9320    0.8690   -1.9360 C   0  0  0  0  0  0  0  0  0  0  0  0
    8.1810    0.0870   -1.5120 C   0  0  2  0  0  0  0  0  0  0  0  0
    8.0850   -1.2130   -2.1530 N   0  0  0  0  0  0  0  0  0  0  0  0
    8.1460   -0.0160   -0.0130 C   0  0  0  0  0  0  0  0  0  0  0  0
    7.4180    1.1600    0.6040 C   0  0  0  0  0  0  0  0  0  0  0  0
    2.9670    1.5900    1.3890 C   0  0  0  0  0  0  0  0  0  0  0  0
    1.6210    1.6030    1.1260 C   0  0  0  0  0  0  0  0  0  0  0  0
   -3.0980   -1.4220    0.2810 C   0  0  0  0  0  0  0  0  0  0  0  0
   -4.4660   -1.5330   -0.0530 C   0  0  0  0  0  0  0  0  0  0  0  0
   -5.3250   -0.5200    0.2600 C   0  0  0  0  0  0  0  0  0  0  0  0
  1  2  1  0
  2  3  1  0
  2  7  2  0
  3  4  1  0
  4  5  1  0
  4  6  2  0
  6  7  1  0
  6 32  1  0
  7  8  1  0
  8  9  2  0
  8 10  1  0
 10 11  1  0
 11 12  2  0
 11 32  1  0
 12 13  1  0
 13 14  1  0
 13 30  2  0
 14 15  1  0
 15 16  1  0
 16 17  2  0
 16 29  1  0
 17 18  1  0
 18 19  2  0
 19 20  1  0
 19 28  1  0
 20 21  1  0
 21 22  1  0
 21 27  1  0
 22 23  1  0
 23 24  1  0
 24 25  1  6
 24 26  1  0
 26 27  1  0
 28 29  2  0
 30 31  1  0
 31 32  2  0
M  CHG  1  25   1
M  END
