
     RDKit          3D

 32 35  0  0  0  0  0  0  0  0999 V2000
   -4.8960   -0.6420   -0.0060 C   0  0  0  0  0  0  0  0  0  0  0  0
   -4.1270   -1.6110    0.4690 C   0  0  0  0  0  0  0  0  0  0  0  0
   -4.3280   -2.9400   -0.1510 C   0  0  0  0  0  0  0  0  0  0  0  0
   -3.1440   -1.2690    1.4740 C   0  0  0  0  0  0  0  0  0  0  0  0
   -2.4010   -2.2050    2.0280 C   0  0  0  0  0  0  0  0  0  0  0  0
   -2.3340   -3.6390    1.8500 C   0  0  0  0  0  0  0  0  0  0  0  0
   -2.9610    0.1470    1.9370 C   0  0  0  0  0  0  0  0  0  0  0  0
   -2.4110    1.0790    0.9780 C   0  0  0  0  0  0  0  0  0  0  0  0
   -1.1490    0.9600    0.4040 N   0  0  0  0  0  0  0  0  0  0  0  0
   -0.9530   -0.0630   -0.5300 C   0  0  0  0  0  0  0  0  0  0  0  0
    0.5140   -0.3750   -0.4980 C   0  0  0  0  0  0  0  0  0  0  0  0
    1.2610   -1.2730   -1.2420 C   0  0  0  0  0  0  0  0  0  0  0  0
    2.6170   -1.3710   -1.0460 C   0  0  0  0  0  0  0  0  0  0  0  0
    3.4920   -2.2920   -1.7670 C   0  0  0  0  0  0  0  0  0  0  0  0
    3.0140   -3.1800   -2.7030 C   0  0  0  0  0  0  0  0  0  0  0  0
    3.8890   -4.0480   -3.3590 C   0  0  0  0  0  0  0  0  0  0  0  0
    5.2360   -4.0180   -3.0700 C   0  0  0  0  0  0  0  0  0  0  0  0
    6.0500   -4.7970   -3.6530 O   0  0  0  0  0  0  0  0  0  0  0  0
    5.6580   -3.1340   -2.1490 N   0  0  0  0  0  0  0  0  0  0  0  0
    4.8280   -2.3140   -1.5300 N   0  0  0  0  0  0  0  0  0  0  0  0
    3.1650   -0.5390   -0.0880 C   0  0  0  0  0  0  0  0  0  0  0  0
    2.4490    0.3530    0.6560 C   0  0  0  0  0  0  0  0  0  0  0  0
    1.0780    0.4360    0.4420 C   0  0  0  0  0  0  0  0  0  0  0  0
    0.0030    1.2460    1.0670 C   0  0  1  0  0  0  0  0  0  0  0  0
    0.4200    2.6060    1.3260 C   0  0  0  0  0  0  0  0  0  0  0  0
    0.6690    3.0680    2.5980 C   0  0  0  0  0  0  0  0  0  0  0  0
    1.0660    4.3750    2.8560 C   0  0  0  0  0  0  0  0  0  0  0  0
    1.2200    5.2510    1.8220 C   0  0  0  0  0  0  0  0  0  0  0  0
    0.9780    4.8140    0.5400 C   0  0  0  0  0  0  0  0  0  0  0  0
    0.5840    3.5120    0.2960 C   0  0  0  0  0  0  0  0  0  0  0  0
    0.3430    3.0900   -1.0580 C   0  0  0  0  0  0  0  0  0  0  0  0
    0.5630    4.2000   -1.9700 N   0  0  0  0  0  0  0  0  0  0  0  0
  1  2  2  0
  2  3  1  0
  2  4  1  0
  4  5  2  3
  4  7  1  0
  5  6  1  0
  7  8  1  0
  8  9  1  0
  9 10  1  0
  9 24  1  0
 10 11  1  0
 11 12  2  0
 11 23  1  0
 12 13  1  0
 13 14  1  0
 13 21  2  0
 14 15  1  0
 14 20  2  0
 15 16  2  0
 16 17  1  0
 17 18  2  0
 17 19  1  0
 19 20  1  0
 21 22  1  0
 22 23  2  0
 23 24  1  0
 24 25  1  6
 25 26  2  0
 25 30  1  0
 26 27  1  0
 27 28  2  0
 28 29  1  0
 29 30  2  0
 30 31  1  0
 31 32  1  0
M  CHG  1  32   1
M  END
