
     RDKit          3D

 28 31  0  0  0  0  0  0  0  0999 V2000
    8.6490   -1.1340    1.4530 C   0  0  0  0  0  0  0  0  0  0  0  0
    7.4900    0.2180    1.7330 S   0  0  0  0  0  0  0  0  0  0  0  0
    6.0310    0.0240    0.6960 C   0  0  0  0  0  0  0  0  0  0  0  0
    5.8810   -1.1420   -0.0110 C   0  0  0  0  0  0  0  0  0  0  0  0
    4.8390   -1.2780   -0.8290 N   0  0  0  0  0  0  0  0  0  0  0  0
    3.9150   -0.2680   -0.9760 C   0  0  0  0  0  0  0  0  0  0  0  0
    2.9110   -0.4890   -2.0080 C   0  0  0  0  0  0  0  0  0  0  0  0
    1.5840   -0.2710   -1.8130 N   0  0  0  0  0  0  0  0  0  0  0  0
    0.7370   -0.6460   -0.6700 C   0  0  0  0  0  0  0  0  0  0  0  0
    1.2730   -1.1390    0.2350 O   0  0  0  0  0  0  0  0  0  0  0  0
   -0.6470   -0.2590   -1.0300 N   0  0  0  0  0  0  0  0  0  0  0  0
   -1.2930   -0.6610    0.5630 C   0  0  0  0  0  0  0  0  0  0  0  0
   -0.4970   -1.0220    1.3060 O   0  0  0  0  0  0  0  0  0  0  0  0
   -2.6990   -0.4300    0.5330 C   0  0  0  0  0  0  0  0  0  0  0  0
   -3.4820   -0.4230    1.6850 N   0  0  0  0  0  0  0  0  0  0  0  0
   -4.7470   -0.2100    1.3490 C   0  0  0  0  0  0  0  0  0  0  0  0
   -5.9220   -0.1090    2.0980 C   0  0  0  0  0  0  0  0  0  0  0  0
   -7.1330    0.1160    1.5110 C   0  0  0  0  0  0  0  0  0  0  0  0
   -7.1940    0.2460    0.1360 C   0  0  0  0  0  0  0  0  0  0  0  0
   -6.0380    0.1480   -0.6030 C   0  0  0  0  0  0  0  0  0  0  0  0
   -4.8040   -0.0790   -0.0180 C   0  0  0  0  0  0  0  0  0  0  0  0
   -3.5480   -0.2170   -0.4790 N   0  0  0  0  0  0  0  0  0  0  0  0
   -8.5330    0.4690   -0.2440 O   0  0  0  0  0  0  0  0  0  0  0  0
   -9.2300    0.8360    0.9510 C   0  0  0  0  0  0  0  0  0  0  0  0
   -8.4270    0.2630    1.9890 O   0  0  0  0  0  0  0  0  0  0  0  0
    4.0810    0.8740   -0.2660 C   0  0  0  0  0  0  0  0  0  0  0  0
    3.0760    1.9650   -0.3970 C   0  0  0  0  0  0  0  0  0  0  0  0
    5.1380    1.0220    0.5710 N   0  0  0  0  0  0  0  0  0  0  0  0
  1  2  1  0
  2  3  1  0
  3  4  2  0
  3 28  1  0
  4  5  1  0
  5  6  2  0
  6  7  1  0
  6 26  1  0
  7  8  1  0
  8  9  1  0
  9 10  2  0
  9 11  1  0
 11 12  1  0
 12 13  2  0
 12 14  1  0
 14 15  2  0
 14 22  1  0
 15 16  1  0
 16 17  2  0
 16 21  1  0
 17 18  1  0
 18 19  2  0
 18 25  1  0
 19 20  1  0
 19 23  1  0
 20 21  2  0
 21 22  1  0
 23 24  1  0
 24 25  1  0
 26 27  1  0
 26 28  2  0
M  CHG  1  28   1
M  END
