
     RDKit          3D

 28 30  0  0  0  0  0  0  0  0999 V2000
    6.8900   -1.8880    0.7220 C   0  0  0  0  0  0  0  0  0  0  0  0
    5.7440   -2.1030    1.6790 C   0  0  0  0  0  0  0  0  0  0  0  0
    4.5500   -1.6810    1.0820 O   0  0  0  0  0  0  0  0  0  0  0  0
    4.3890   -0.3780    0.6700 C   0  0  0  0  0  0  0  0  0  0  0  0
    5.3550    0.4060    0.8540 O   0  0  0  0  0  0  0  0  0  0  0  0
    3.1790    0.1250    0.0450 C   0  0  0  0  0  0  0  0  0  0  0  0
    2.0740   -0.6290   -0.2010 N   0  0  0  0  0  0  0  0  0  0  0  0
    1.1630    0.1760   -0.7870 C   0  0  0  0  0  0  0  0  0  0  0  0
   -0.1690   -0.2470   -1.2120 C   0  0  0  0  0  0  0  0  0  0  0  0
   -0.9080    0.6290   -1.7510 O   0  0  0  0  0  0  0  0  0  0  0  0
   -0.6220   -1.5760   -1.0310 N   0  0  0  0  0  0  0  0  0  0  0  0
   -1.9390   -1.9830   -1.4520 C   0  0  0  0  0  0  0  0  0  0  0  0
   -3.0060   -1.2080   -0.7720 C   0  0  0  0  0  0  0  0  0  0  0  0
   -3.7480   -0.5180   -1.5260 N   0  0  0  0  0  0  0  0  0  0  0  0
   -4.8640    0.3430   -1.2340 C   0  0  0  0  0  0  0  0  0  0  0  0
   -5.0860    1.0350   -0.1560 C   0  0  0  0  0  0  0  0  0  0  0  0
   -6.2620    1.8670    0.0050 C   0  0  0  0  0  0  0  0  0  0  0  0
   -7.1460    1.9360   -0.9660 C   0  0  0  0  0  0  0  0  0  0  0  0
   -6.9550    1.1750   -2.2210 C   0  0  0  0  0  0  0  0  0  0  0  0
   -5.7810    0.4080   -2.2580 O   0  0  0  0  0  0  0  0  0  0  0  0
   -4.0370    1.1120    1.3090 S   0  0  0  0  0  0  0  0  0  0  0  0
   -3.4050   -0.5390    1.5520 C   0  0  0  0  0  0  0  0  0  0  0  0
   -3.3370   -0.9240    2.9190 N   0  0  0  0  0  0  0  0  0  0  0  0
   -3.0290   -1.3610    0.6350 N   0  0  0  0  0  0  0  0  0  0  0  0
    1.7090    1.4170   -0.9000 N   0  0  0  0  0  0  0  0  0  0  0  0
    2.9440    1.3980   -0.3930 C   0  0  0  0  0  0  0  0  0  0  0  0
    3.8730    2.5310   -0.3200 C   0  0  0  0  0  0  0  0  0  0  0  0
    3.9250    3.0580    1.0900 C   0  0  0  0  0  0  0  0  0  0  0  0
  1  2  1  0
  2  3  1  0
  3  4  1  0
  4  5  2  0
  4  6  1  0
  6  7  1  0
  6 26  2  0
  7  8  2  0
  8  9  1  0
  8 25  1  0
  9 10  2  0
  9 11  1  0
 11 12  1  0
 12 13  1  0
 13 14  2  0
 13 24  1  0
 14 15  1  0
 15 16  2  0
 15 20  1  0
 16 17  1  0
 16 21  1  0
 17 18  2  0
 18 19  1  0
 19 20  1  0
 21 22  1  0
 22 23  1  0
 22 24  2  0
 25 26  1  0
 26 27  1  0
 27 28  1  0
M  END
