
     RDKit          3D

 28 30  0  0  0  0  0  0  0  0999 V2000
    5.2930    0.4910    0.7790 C   0  0  0  0  0  0  0  0  0  0  0  0
    5.5260    0.6860   -0.6960 C   0  0  2  0  0  0  0  0  0  0  0  0
    7.0480    0.8000   -0.8600 C   0  0  0  0  0  0  0  0  0  0  0  0
    4.9120    1.9600   -1.2290 C   0  0  0  0  0  0  0  0  0  0  0  0
    5.0800   -0.4850   -1.3950 N   0  0  0  0  0  0  0  0  0  0  0  0
    3.6980   -0.7020   -1.1770 C   0  0  0  0  0  0  0  0  0  0  0  0
    2.8910    0.2610   -1.2860 O   0  0  0  0  0  0  0  0  0  0  0  0
    3.2190   -1.9930   -0.8410 N   0  0  0  0  0  0  0  0  0  0  0  0
    1.8880   -2.2150   -0.6380 N   0  0  0  0  0  0  0  0  0  0  0  0
    1.1470   -1.6110    0.4160 C   0  0  0  0  0  0  0  0  0  0  0  0
    1.6180   -0.7350    1.3820 C   0  0  0  0  0  0  0  0  0  0  0  0
    0.5460   -0.4130    2.1840 C   0  0  0  0  0  0  0  0  0  0  0  0
   -0.5400   -1.0770    1.7130 N   0  0  0  0  0  0  0  0  0  0  0  0
   -1.8830   -1.0690    2.2420 C   0  0  0  0  0  0  0  0  0  0  0  0
   -2.6970    0.0340    1.6640 C   0  0  0  0  0  0  0  0  0  0  0  0
   -2.8940    0.0510    0.2280 C   0  0  0  0  0  0  0  0  0  0  0  0
   -1.8630   -0.2120   -0.5060 O   0  0  0  0  0  0  0  0  0  0  0  0
   -4.0620    0.3290   -0.5170 N   0  0  0  0  0  0  0  0  0  0  0  0
   -4.0200    0.4690   -1.9640 C   0  0  0  0  0  0  0  0  0  0  0  0
   -4.8590    1.6120   -2.4520 C   0  0  0  0  0  0  0  0  0  0  0  0
   -5.7050    2.1920   -1.4830 O   0  0  0  0  0  0  0  0  0  0  0  0
   -6.2480    1.4650   -0.4290 C   0  0  0  0  0  0  0  0  0  0  0  0
   -7.4000    1.6100    0.0830 N   0  0  0  0  0  0  0  0  0  0  0  0
   -7.7610    0.7920    1.1240 O   0  0  0  0  0  0  0  0  0  0  0  0
   -7.0110   -0.2310    1.6910 C   0  0  0  0  0  0  0  0  0  0  0  0
   -5.6590   -0.3930    1.0730 C   0  0  0  0  0  0  0  0  0  0  0  0
   -5.3460    0.4340    0.1080 C   0  0  0  0  0  0  0  0  0  0  0  0
   -0.1590   -1.7760    0.6690 N   0  0  0  0  0  0  0  0  0  0  0  0
  2  1  1  1
  2  3  1  0
  2  4  1  0
  2  5  1  0
  5  6  1  0
  6  7  2  0
  6  8  1  0
  8  9  1  0
  9 10  1  0
 10 11  1  0
 10 28  2  0
 11 12  2  0
 12 13  1  0
 13 14  1  0
 13 28  1  0
 14 15  1  0
 15 16  1  0
 16 17  2  0
 16 18  1  0
 18 19  1  0
 18 27  1  0
 19 20  1  0
 20 21  1  0
 21 22  1  0
 22 23  2  0
 22 27  1  0
 23 24  1  0
 24 25  1  0
 25 26  1  0
 26 27  2  0
M  CHG  1   5   1
M  END
