
     RDKit          3D

 27 29  0  0  0  0  0  0  0  0999 V2000
    8.7260   -0.7700    0.5640 C   0  0  0  0  0  0  0  0  0  0  0  0
    7.1080   -0.8960    1.3460 S   0  0  0  0  0  0  0  0  0  0  0  0
    5.8210   -0.1080    0.2990 C   0  0  0  0  0  0  0  0  0  0  0  0
    6.2650    0.3520   -0.8220 C   0  0  0  0  0  0  0  0  0  0  0  0
    5.6640    0.9990   -1.8680 O   0  0  0  0  0  0  0  0  0  0  0  0
    4.4870   -0.1490    0.7950 C   0  0  0  0  0  0  0  0  0  0  0  0
    4.3530   -0.4440    2.1260 N   0  0  0  0  0  0  0  0  0  0  0  0
    3.1800   -0.5470    2.7050 C   0  0  0  0  0  0  0  0  0  0  0  0
    3.1300   -0.8260    3.9520 O   0  0  0  0  0  0  0  0  0  0  0  0
    1.9980   -0.3670    2.0330 C   0  0  0  0  0  0  0  0  0  0  0  0
    2.0620   -0.0740    0.7160 C   0  0  0  0  0  0  0  0  0  0  0  0
    0.8840    0.1310   -0.0860 C   0  0  0  0  0  0  0  0  0  0  0  0
   -0.3340    0.0210    0.4150 C   0  0  0  0  0  0  0  0  0  0  0  0
   -1.5240    0.2280   -0.3970 C   0  0  0  0  0  0  0  0  0  0  0  0
   -1.4740    0.5660   -1.6940 N   0  0  0  0  0  0  0  0  0  0  0  0
   -2.6110    0.7400   -2.4100 C   0  0  0  0  0  0  0  0  0  0  0  0
   -3.8270    0.5780   -1.8360 N   0  0  0  0  0  0  0  0  0  0  0  0
   -3.8660    0.2420   -0.5440 C   0  0  0  0  0  0  0  0  0  0  0  0
   -5.1090    0.0540    0.0900 N   0  0  0  0  0  0  0  0  0  0  0  0
   -5.6370   -1.3110    0.0910 C   0  0  0  0  0  0  0  0  0  0  0  0
   -6.9490   -1.3100    0.8110 C   0  0  0  0  0  0  0  0  0  0  0  0
   -7.7240   -0.2850    0.2900 O   0  0  0  0  0  0  0  0  0  0  0  0
   -7.3160    0.9760    0.7060 C   0  0  0  0  0  0  0  0  0  0  0  0
   -5.8260    1.1450    0.7050 C   0  0  0  0  0  0  0  0  0  0  0  0
   -2.7310    0.0700    0.1620 N   0  0  0  0  0  0  0  0  0  0  0  0
    3.3310    0.0300    0.1150 C   0  0  0  0  0  0  0  0  0  0  0  0
    3.3180    0.2820   -1.2730 N   0  0  0  0  0  0  0  0  0  0  0  0
  1  2  1  0
  2  3  1  0
  3  4  2  3
  3  6  1  0
  4  5  1  0
  6  7  1  0
  6 26  2  0
  7  8  1  0
  8  9  2  0
  8 10  1  0
 10 11  2  0
 11 12  1  0
 11 26  1  0
 12 13  2  3
 13 14  1  0
 14 15  2  0
 14 25  1  0
 15 16  1  0
 16 17  2  0
 17 18  1  0
 18 19  1  0
 18 25  2  0
 19 20  1  0
 19 24  1  0
 20 21  1  0
 21 22  1  0
 22 23  1  0
 23 24  1  0
 26 27  1  0
M  CHG  1  17   1
M  END
