
     RDKit          3D

 28 30  0  0  0  0  0  0  0  0999 V2000
    6.3520    2.3860    1.2320 C   0  0  0  0  0  0  0  0  0  0  0  0
    5.7490    1.6070    0.1660 N   0  0  0  0  0  0  0  0  0  0  0  0
    6.4510    1.0480   -0.8440 C   0  0  0  0  0  0  0  0  0  0  0  0
    5.5510    0.4030   -1.6380 C   0  0  0  0  0  0  0  0  0  0  0  0
    4.3300    0.5950   -1.0780 N   0  0  0  0  0  0  0  0  0  0  0  0
    4.4490    1.3350    0.0300 C   0  0  0  0  0  0  0  0  0  0  0  0
    3.4080    1.8060    0.9790 C   0  0  0  0  0  0  0  0  0  0  0  0
    2.0870    1.3640    0.5890 N   0  0  0  0  0  0  0  0  0  0  0  0
    1.8270   -0.0620    0.4930 C   0  0  0  0  0  0  0  0  0  0  0  0
    2.7410   -0.8580    0.7460 O   0  0  0  0  0  0  0  0  0  0  0  0
    0.5440   -0.4890    0.1140 N   0  0  0  0  0  0  0  0  0  0  0  0
    0.1760   -1.8530   -0.0290 C   0  0  0  0  0  0  0  0  0  0  0  0
    1.0760   -2.8890   -0.0600 C   0  0  0  0  0  0  0  0  0  0  0  0
    0.6740   -4.2140   -0.2630 C   0  0  0  0  0  0  0  0  0  0  0  0
   -0.6020   -4.5410   -0.4350 N   0  0  0  0  0  0  0  0  0  0  0  0
   -1.5120   -3.5330   -0.4070 C   0  0  0  0  0  0  0  0  0  0  0  0
   -1.1780   -2.2100   -0.2110 C   0  0  0  0  0  0  0  0  0  0  0  0
   -2.1420   -1.1980   -0.1330 N   0  0  0  0  0  0  0  0  0  0  0  0
   -3.5230   -1.2780   -0.4250 C   0  0  0  0  0  0  0  0  0  0  0  0
   -3.9650   -2.3870   -0.8100 O   0  0  0  0  0  0  0  0  0  0  0  0
   -4.4450   -0.1150   -0.2930 C   0  0  0  0  0  0  0  0  0  0  0  0
   -5.7010   -0.3400   -0.5990 C   0  0  0  0  0  0  0  0  0  0  0  0
   -6.8520    0.5750   -0.5790 C   0  0  0  0  0  0  0  0  0  0  0  0
   -6.4010    2.2130   -0.0520 S   0  0  0  0  0  0  0  0  0  0  0  0
   -7.2170    2.7230    1.1070 O   0  0  0  0  0  0  0  0  0  0  0  0
   -4.6910    2.2320    0.2880 C   0  0  0  0  0  0  0  0  0  0  0  0
   -4.1340    3.4240    0.7170 O   0  0  0  0  0  0  0  0  0  0  0  0
   -3.9250    1.1470    0.1470 C   0  0  0  0  0  0  0  0  0  0  0  0
  1  2  1  0
  2  3  1  0
  2  6  1  0
  3  4  2  0
  4  5  1  0
  5  6  2  0
  6  7  1  0
  7  8  1  0
  8  9  1  0
  9 10  2  0
  9 11  1  0
 11 12  1  0
 12 13  2  0
 12 17  1  0
 13 14  1  0
 14 15  2  0
 15 16  1  0
 16 17  2  0
 17 18  1  0
 18 19  1  0
 19 20  2  0
 19 21  1  0
 21 22  2  0
 21 28  1  0
 22 23  1  0
 24 23  1  1
 24 25  2  0
 24 26  1  0
 26 27  1  0
 26 28  2  0
M  CHG  1  15   1
M  END
