
     RDKit          3D

 28 30  0  0  0  0  0  0  0  0999 V2000
    8.8020    2.0130    0.5860 C   0  0  0  0  0  0  0  0  0  0  0  0
    7.5810    1.3530    0.7280 O   0  0  0  0  0  0  0  0  0  0  0  0
    7.0560    0.6620   -0.4070 C   0  0  0  0  0  0  0  0  0  0  0  0
    7.7750    0.6870   -1.5640 C   0  0  0  0  0  0  0  0  0  0  0  0
    6.7250   -0.3060   -2.6910 S   0  0  0  0  0  0  0  0  0  0  0  0
    5.4500   -0.6370   -1.4870 C   0  0  0  0  0  0  0  0  0  0  0  0
    5.8790    0.0060   -0.3270 C   0  0  0  0  0  0  0  0  0  0  0  0
    5.0920   -0.0410    0.8790 N   0  0  0  0  0  0  0  0  0  0  0  0
    3.8860   -0.7450    0.9250 C   0  0  0  0  0  0  0  0  0  0  0  0
    3.3690   -1.3790   -0.0090 O   0  0  0  0  0  0  0  0  0  0  0  0
    3.1170   -0.7710    2.1670 N   0  0  0  0  0  0  0  0  0  0  0  0
    1.8860   -1.4930    2.2120 C   0  0  0  0  0  0  0  0  0  0  0  0
    0.8450   -0.6870    1.5140 C   0  0  0  0  0  0  0  0  0  0  0  0
    0.9910    0.4740    0.8500 N   0  0  0  0  0  0  0  0  0  0  0  0
   -0.1410    0.8750    0.3770 O   0  0  0  0  0  0  0  0  0  0  0  0
   -1.0440   -0.0090    0.7200 C   0  0  0  0  0  0  0  0  0  0  0  0
   -2.4750    0.0420    0.3950 C   0  0  0  0  0  0  0  0  0  0  0  0
   -3.2010   -0.9500    0.8440 C   0  0  0  0  0  0  0  0  0  0  0  0
   -4.6080   -1.2950    0.7640 C   0  0  0  0  0  0  0  0  0  0  0  0
   -5.4430   -0.3440   -0.0460 C   0  0  0  0  0  0  0  0  0  0  0  0
   -6.7120   -0.3310    0.2850 C   0  0  0  0  0  0  0  0  0  0  0  0
   -7.7770    0.4910   -0.3070 C   0  0  0  0  0  0  0  0  0  0  0  0
   -8.7610   -0.3520   -0.8540 O   0  0  0  0  0  0  0  0  0  0  0  0
   -5.0440    0.5000   -1.1150 N   0  0  0  0  0  0  0  0  0  0  0  0
   -5.7440    0.4240   -2.3770 C   0  0  0  0  0  0  0  0  0  0  0  0
   -3.9770    1.4160   -1.0540 N   0  0  0  0  0  0  0  0  0  0  0  0
   -2.8700    1.2200   -0.4040 C   0  0  0  0  0  0  0  0  0  0  0  0
   -0.4450   -1.0000    1.4350 N   0  0  0  0  0  0  0  0  0  0  0  0
  1  2  1  0
  2  3  1  0
  3  4  2  0
  3  7  1  0
  4  5  1  0
  5  6  1  0
  6  7  2  0
  7  8  1  0
  8  9  1  0
  9 10  2  0
  9 11  1  0
 11 12  1  0
 12 13  1  0
 13 14  2  0
 13 28  1  0
 14 15  1  0
 15 16  1  0
 16 17  1  0
 16 28  2  0
 17 18  2  0
 17 27  1  0
 18 19  1  0
 19 20  1  0
 20 21  2  3
 20 24  1  0
 21 22  1  0
 22 23  1  0
 24 25  1  0
 24 26  1  0
 26 27  2  0
M  END
