
     RDKit          3D

 28 30  0  0  0  0  0  0  0  0999 V2000
   -4.7340    3.1760    1.1360 C   0  0  0  0  0  0  0  0  0  0  0  0
   -4.8040    1.8350    0.6930 O   0  0  0  0  0  0  0  0  0  0  0  0
   -5.8960    1.0290    0.8120 C   0  0  0  0  0  0  0  0  0  0  0  0
   -6.9040    1.6210    1.3870 O   0  0  0  0  0  0  0  0  0  0  0  0
   -6.0580   -0.3160    0.3910 C   0  0  0  0  0  0  0  0  0  0  0  0
   -5.3160   -1.2070   -0.1460 C   0  0  0  0  0  0  0  0  0  0  0  0
   -6.0640   -2.5630   -0.4170 C   0  0  0  0  0  0  0  0  0  0  0  0
   -3.9310   -1.2680   -0.3900 N   0  0  0  0  0  0  0  0  0  0  0  0
   -3.4610   -2.0640   -1.3940 N   0  0  0  0  0  0  0  0  0  0  0  0
   -2.1290   -2.0590   -1.4140 C   0  0  0  0  0  0  0  0  0  0  0  0
   -1.6870   -1.2510   -0.4110 C   0  0  0  0  0  0  0  0  0  0  0  0
   -0.3430   -0.8830    0.0230 C   0  0  0  0  0  0  0  0  0  0  0  0
    0.2090   -0.2030    0.8560 N   0  0  0  0  0  0  0  0  0  0  0  0
    1.4890   -0.0270    1.0530 C   0  0  0  0  0  0  0  0  0  0  0  0
    2.0600    0.8630    2.1450 C   0  0  0  0  0  0  0  0  0  0  0  0
    2.3340   -0.7070    0.1950 C   0  0  0  0  0  0  0  0  0  0  0  0
    3.7420   -0.8310    0.0200 C   0  0  0  0  0  0  0  0  0  0  0  0
    4.1390   -1.6030   -0.9410 O   0  0  0  0  0  0  0  0  0  0  0  0
    4.7840   -0.2290    0.7480 N   0  0  0  0  0  0  0  0  0  0  0  0
    6.1990   -0.4740    0.4240 C   0  0  0  0  0  0  0  0  0  0  0  0
    6.5630    0.3110   -0.8100 C   0  0  0  0  0  0  0  0  0  0  0  0
    5.7640    1.1560   -1.5430 C   0  0  0  0  0  0  0  0  0  0  0  0
    6.4850    1.6460   -2.5610 N   0  0  0  0  0  0  0  0  0  0  0  0
    7.6690    1.1360   -2.4700 O   0  0  0  0  0  0  0  0  0  0  0  0
    7.7860    0.3280   -1.4450 C   0  0  0  0  0  0  0  0  0  0  0  0
    1.1290   -1.5830   -0.8700 S   0  0  0  0  0  0  0  0  0  0  0  0
   -2.8540   -0.7780    0.2080 C   0  0  0  0  0  0  0  0  0  0  0  0
   -2.8480    0.0460    1.3760 N   0  0  0  0  0  0  0  0  0  0  0  0
  1  2  1  0
  2  3  1  0
  3  4  2  0
  3  5  1  0
  5  6  2  3
  6  7  1  0
  6  8  1  0
  8  9  1  0
  8 27  1  0
  9 10  2  0
 10 11  1  0
 11 12  1  0
 11 27  2  0
 12 13  2  0
 12 26  1  0
 13 14  1  0
 14 15  1  0
 14 16  2  0
 16 17  1  0
 16 26  1  0
 17 18  2  0
 17 19  1  0
 19 20  1  0
 20 21  1  0
 21 22  1  0
 21 25  2  0
 22 23  2  0
 23 24  1  0
 24 25  1  0
 27 28  1  0
M  CHG  1  23   1
M  END
