
     RDKit          3D

 28 30  0  0  0  0  0  0  0  0999 V2000
   -8.3610    2.3260   -0.5940 C   0  0  0  0  0  0  0  0  0  0  0  0
   -7.0190    1.6680   -0.5610 C   0  0  2  0  0  0  0  0  0  0  0  0
   -6.8660    0.4930   -1.4650 C   0  0  0  0  0  0  0  0  0  0  0  0
   -6.5560    1.1690    1.1320 S   0  0  0  0  0  0  0  0  0  0  0  0
   -4.9510    0.4040    1.0120 C   0  0  0  0  0  0  0  0  0  0  0  0
   -3.8100    1.1650    1.1320 C   0  0  0  0  0  0  0  0  0  0  0  0
   -2.5440    0.6020    1.0450 C   0  0  0  0  0  0  0  0  0  0  0  0
   -2.4040   -0.7450    0.8350 C   0  0  0  0  0  0  0  0  0  0  0  0
   -1.0710   -1.3480    0.7410 C   0  0  0  0  0  0  0  0  0  0  0  0
    0.1390   -0.6950    0.8440 C   0  0  0  0  0  0  0  0  0  0  0  0
    1.1580   -1.6260    0.6990 C   0  0  0  0  0  0  0  0  0  0  0  0
    2.5940   -1.4290    0.7280 C   0  0  0  0  0  0  0  0  0  0  0  0
    3.0780   -0.2980    0.8980 O   0  0  0  0  0  0  0  0  0  0  0  0
    3.4440   -2.5410    0.5600 N   0  0  0  0  0  0  0  0  0  0  0  0
    4.8470   -2.4660    0.5690 N   0  0  0  0  0  0  0  0  0  0  0  0
    5.4470   -1.5570   -0.3540 C   0  0  0  0  0  0  0  0  0  0  0  0
    4.7190   -0.8640   -1.1300 O   0  0  0  0  0  0  0  0  0  0  0  0
    6.8350   -1.3990   -0.4360 N   0  0  0  0  0  0  0  0  0  0  0  0
    7.5040   -0.4950   -1.3490 C   0  0  0  0  0  0  0  0  0  0  0  0
    7.3450    0.8780   -0.8010 C   0  0  0  0  0  0  0  0  0  0  0  0
    6.4460    1.8540   -1.1750 C   0  0  0  0  0  0  0  0  0  0  0  0
    6.6590    2.9240   -0.4140 N   0  0  0  0  0  0  0  0  0  0  0  0
    7.6310    2.6640    0.4010 O   0  0  0  0  0  0  0  0  0  0  0  0
    8.0650    1.4560    0.2000 N   0  0  0  0  0  0  0  0  0  0  0  0
    0.4910   -2.8050    0.5150 N   0  0  0  0  0  0  0  0  0  0  0  0
   -0.7910   -2.5970    0.5460 O   0  0  0  0  0  0  0  0  0  0  0  0
   -3.5300   -1.5180    0.7130 C   0  0  0  0  0  0  0  0  0  0  0  0
   -4.7830   -0.9470    0.8010 C   0  0  0  0  0  0  0  0  0  0  0  0
  2  1  1  1
  2  3  1  0
  2  4  1  0
  4  5  1  0
  5  6  2  0
  5 28  1  0
  6  7  1  0
  7  8  2  0
  8  9  1  0
  8 27  1  0
  9 10  2  0
  9 26  1  0
 10 11  1  0
 11 12  1  0
 11 25  2  0
 12 13  2  0
 12 14  1  0
 14 15  1  0
 15 16  1  0
 16 17  2  0
 16 18  1  0
 18 19  1  0
 19 20  1  0
 20 21  1  0
 20 24  2  0
 21 22  2  0
 22 23  1  0
 23 24  1  0
 25 26  1  0
 27 28  2  0
M  CHG  1  22   1
M  END
