
     RDKit          3D

 28 30  0  0  0  0  0  0  0  0999 V2000
   -3.6460   -0.6400   -1.0870 C   0  0  0  0  0  0  0  0  0  0  0  0
   -4.1320   -0.1320    0.2720 C   0  0  0  0  0  0  0  0  0  0  0  0
   -3.4470   -0.4170    1.3470 C   0  0  0  0  0  0  0  0  0  0  0  0
   -2.2200   -1.1800    1.4700 C   0  0  0  0  0  0  0  0  0  0  0  0
   -1.6650   -1.3860    2.5740 O   0  0  0  0  0  0  0  0  0  0  0  0
   -1.6290   -1.7040    0.3520 O   0  0  0  0  0  0  0  0  0  0  0  0
   -0.4580   -2.4550    0.3270 C   0  0  1  0  0  0  0  0  0  0  0  0
   -0.6450   -3.8190   -0.2970 C   0  0  0  0  0  0  0  0  0  0  0  0
    0.5990   -1.6790   -0.3830 C   0  0  0  0  0  0  0  0  0  0  0  0
    0.3250   -0.5590   -0.8480 O   0  0  0  0  0  0  0  0  0  0  0  0
    1.9120   -2.1740   -0.5500 N   0  0  0  0  0  0  0  0  0  0  0  0
    2.9490   -1.5070   -1.2000 N   0  0  0  0  0  0  0  0  0  0  0  0
    3.9100   -0.7220   -0.4860 C   0  0  0  0  0  0  0  0  0  0  0  0
    3.7890   -0.6440    0.7760 O   0  0  0  0  0  0  0  0  0  0  0  0
    4.9780   -0.0340   -1.1090 N   0  0  0  0  0  0  0  0  0  0  0  0
    5.8740    0.7170   -0.2940 C   0  0  0  0  0  0  0  0  0  0  0  0
    7.1640    0.4500   -0.2400 C   0  0  0  0  0  0  0  0  0  0  0  0
    8.1390    1.1790    0.5750 C   0  0  0  0  0  0  0  0  0  0  0  0
    7.5780    2.3130    1.3500 C   0  0  0  0  0  0  0  0  0  0  0  0
    6.1790    2.5060    1.2180 N   0  0  0  0  0  0  0  0  0  0  0  0
    5.3960    1.8330    0.5100 C   0  0  0  0  0  0  0  0  0  0  0  0
   -4.3080    0.2670    2.7360 S   0  0  0  0  0  0  0  0  0  0  0  0
   -5.5710    1.1060    1.7180 C   0  0  0  0  0  0  0  0  0  0  0  0
   -6.5030    1.8910    2.0320 N   0  0  0  0  0  0  0  0  0  0  0  0
   -7.3960    2.4500    1.0690 C   0  0  0  0  0  0  0  0  0  0  0  0
   -6.6780    2.4880   -0.2750 C   0  0  0  0  0  0  0  0  0  0  0  0
   -6.2120    1.1010   -0.6430 C   0  0  0  0  0  0  0  0  0  0  0  0
   -5.2730    0.6750    0.4300 N   0  0  0  0  0  0  0  0  0  0  0  0
  1  2  1  0
  2  3  2  0
  2 28  1  0
  3  4  1  0
  3 22  1  0
  4  5  2  0
  4  6  1  0
  6  7  1  0
  7  8  1  6
  7  9  1  0
  9 10  2  0
  9 11  1  0
 11 12  1  0
 12 13  1  0
 13 14  2  0
 13 15  1  0
 15 16  1  0
 16 17  2  0
 16 21  1  0
 17 18  1  0
 18 19  1  0
 19 20  1  0
 20 21  2  0
 22 23  1  0
 23 24  2  0
 23 28  1  0
 24 25  1  0
 25 26  1  0
 26 27  1  0
 27 28  1  0
M  END
