
     RDKit          3D

 32 34  0  0  0  0  0  0  0  0999 V2000
    9.4090   -0.7820   -1.0420 C   0  0  0  0  0  0  0  0  0  0  0  0
    9.4780   -0.6800    0.4620 C   0  0  0  0  0  0  0  0  0  0  0  0
    8.2970   -1.2490    1.0520 O   0  0  0  0  0  0  0  0  0  0  0  0
    7.0270   -0.6720    0.7060 C   0  0  0  0  0  0  0  0  0  0  0  0
    7.1290    0.2710   -0.0820 O   0  0  0  0  0  0  0  0  0  0  0  0
    5.8680   -1.2490    1.3010 C   0  0  0  0  0  0  0  0  0  0  0  0
    4.6160   -1.0410    1.2740 C   0  0  0  0  0  0  0  0  0  0  0  0
    3.7020   -0.1270    0.6460 C   0  0  0  0  0  0  0  0  0  0  0  0
    4.0370    0.9880   -0.0550 C   0  0  0  0  0  0  0  0  0  0  0  0
    3.0540    1.7670   -0.6600 C   0  0  0  0  0  0  0  0  0  0  0  0
    1.7300    1.4340   -0.5660 C   0  0  0  0  0  0  0  0  0  0  0  0
    0.7330    2.1980   -1.1630 O   0  0  0  0  0  0  0  0  0  0  0  0
    1.1080    3.3420   -1.8800 C   0  0  0  0  0  0  0  0  0  0  0  0
    1.3290    0.3090    0.1360 C   0  0  0  0  0  0  0  0  0  0  0  0
   -0.0020   -0.0520    0.2480 O   0  0  0  0  0  0  0  0  0  0  0  0
   -0.3650   -1.1700    0.9450 C   0  0  0  0  0  0  0  0  0  0  0  0
   -1.7550   -1.5430    1.0670 C   0  0  0  0  0  0  0  0  0  0  0  0
   -2.0840   -2.5980    1.7270 O   0  0  0  0  0  0  0  0  0  0  0  0
   -2.8720   -0.8110    0.4930 C   0  0  0  0  0  0  0  0  0  0  0  0
   -4.1820   -1.2840    0.6870 C   0  0  0  0  0  0  0  0  0  0  0  0
   -5.2570   -0.6260    0.1650 C   0  0  0  0  0  0  0  0  0  0  0  0
   -6.6410   -1.1260    0.3700 C   0  0  0  0  0  0  0  0  0  0  0  0
   -6.6100   -2.3510    1.1720 N   0  0  0  0  0  0  0  0  0  0  0  0
   -7.9420   -2.8430    1.3770 C   0  0  0  0  0  0  0  0  0  0  0  0
   -5.1040    0.5310   -0.5770 C   0  0  0  0  0  0  0  0  0  0  0  0
   -6.1700    1.2270   -1.1240 C   0  0  0  0  0  0  0  0  0  0  0  0
   -5.9540    2.3760   -1.8550 C   0  0  0  0  0  0  0  0  0  0  0  0
   -4.6860    2.8880   -2.0780 C   0  0  0  0  0  0  0  0  0  0  0  0
   -3.6320    2.1920   -1.5330 C   0  0  0  0  0  0  0  0  0  0  0  0
   -3.8510    1.0350   -0.7970 C   0  0  0  0  0  0  0  0  0  0  0  0
   -2.7770    0.3390   -0.2490 C   0  0  0  0  0  0  0  0  0  0  0  0
    2.3140   -0.4320    0.7160 C   0  0  0  0  0  0  0  0  0  0  0  0
  1  2  1  0
  2  3  1  0
  3  4  1  0
  4  5  2  0
  4  6  1  0
  6  7  2  3
  7  8  1  0
  8  9  2  0
  8 32  1  0
  9 10  1  0
 10 11  2  0
 11 12  1  0
 11 14  1  0
 12 13  1  0
 14 15  1  0
 14 32  2  0
 15 16  1  0
 16 17  1  0
 17 18  2  0
 17 19  1  0
 19 20  2  0
 19 31  1  0
 20 21  1  0
 21 22  1  0
 21 25  2  0
 22 23  1  0
 23 24  1  0
 25 26  1  0
 25 30  1  0
 26 27  2  0
 27 28  1  0
 28 29  2  0
 29 30  1  0
 30 31  2  0
M  END
