
     RDKit          3D

 32 35  0  0  0  0  0  0  0  0999 V2000
    4.0440   -1.6570   -0.5950 O   0  0  0  0  0  0  0  0  0  0  0  0
    3.6800   -0.5170   -0.9290 C   0  0  0  0  0  0  0  0  0  0  0  0
    4.7210    0.2970   -1.5110 N   0  0  0  0  0  0  0  0  0  0  0  0
    6.0440   -0.2230   -1.6620 C   0  0  0  0  0  0  0  0  0  0  0  0
    6.7110   -0.6320   -0.3700 C   0  0  1  0  0  0  0  0  0  0  0  0
    7.9920   -1.1090   -0.7430 O   0  0  0  0  0  0  0  0  0  0  0  0
    6.8260    0.5670    0.4720 C   0  0  0  0  0  0  0  0  0  0  0  0
    6.1260    0.8120    1.6240 C   0  0  0  0  0  0  0  0  0  0  0  0
    6.5460    2.0620    2.0950 C   0  0  0  0  0  0  0  0  0  0  0  0
    7.4790    2.4890    1.1850 C   0  0  0  0  0  0  0  0  0  0  0  0
    7.6090    1.5820    0.2550 O   0  0  0  0  0  0  0  0  0  0  0  0
    2.3760   -0.0630   -0.7570 N   0  0  0  0  0  0  0  0  0  0  0  0
    1.3250   -0.8180   -0.1850 C   0  0  0  0  0  0  0  0  0  0  0  0
    1.4800   -2.0030    0.4650 C   0  0  0  0  0  0  0  0  0  0  0  0
    0.4350   -2.7370    1.0080 C   0  0  0  0  0  0  0  0  0  0  0  0
   -0.8360   -2.2190    0.8730 C   0  0  0  0  0  0  0  0  0  0  0  0
   -2.0310   -2.6560    1.2640 N   0  0  0  0  0  0  0  0  0  0  0  0
   -3.0120   -1.8300    0.9180 C   0  0  0  0  0  0  0  0  0  0  0  0
   -2.4630   -0.7590    0.2480 C   0  0  0  0  0  0  0  0  0  0  0  0
   -1.0840   -1.0250    0.2300 C   0  0  0  0  0  0  0  0  0  0  0  0
    0.0040   -0.3540   -0.2830 C   0  0  0  0  0  0  0  0  0  0  0  0
   -2.7850    0.5570   -0.4410 C   0  0  2  0  0  0  0  0  0  0  0  0
   -2.8380    1.6510    0.6000 C   0  0  1  0  0  0  0  0  0  0  0  0
   -1.5430    1.6130    1.2740 O   0  0  0  0  0  0  0  0  0  0  0  0
   -2.8890    3.0460    0.1130 C   0  0  0  0  0  0  0  0  0  0  0  0
   -3.9830    3.5800   -0.6940 C   0  0  0  0  0  0  0  0  0  0  0  0
   -5.2500    3.5830   -0.0780 O   0  0  0  0  0  0  0  0  0  0  0  0
   -4.0970    0.4670   -1.2260 C   0  0  0  0  0  0  0  0  0  0  0  0
   -4.6550   -0.7770   -0.7950 C   0  0  0  0  0  0  0  0  0  0  0  0
   -5.7730   -1.6360   -0.8090 C   0  0  0  0  0  0  0  0  0  0  0  0
   -5.3200   -2.7300    0.2170 C   0  0  0  0  0  0  0  0  0  0  0  0
   -4.3830   -2.1900    1.2680 C   0  0  0  0  0  0  0  0  0  0  0  0
  1  2  2  0
  2  3  1  0
  2 12  1  0
  3  4  1  0
  4  5  1  0
  5  6  1  6
  5  7  1  0
  7  8  2  0
  7 11  1  0
  8  9  1  0
  9 10  2  0
 10 11  1  0
 12 13  1  0
 13 14  2  0
 13 21  1  0
 14 15  1  0
 15 16  2  0
 16 17  1  0
 16 20  1  0
 17 18  1  0
 18 19  2  0
 18 32  1  0
 19 20  1  0
 19 22  1  0
 20 21  2  0
 22 23  1  0
 22 28  1  1
 23 24  1  1
 23 25  1  0
 25 26  1  0
 26 27  1  0
 28 29  1  0
 29 30  1  0
 30 31  1  0
 31 32  1  0
M  END
