
     RDKit          3D

 32 35  0  0  0  0  0  0  0  0999 V2000
    6.0080   -3.2320    0.8830 C   0  0  0  0  0  0  0  0  0  0  0  0
    5.3130   -2.0360    0.2620 C   0  0  0  0  0  0  0  0  0  0  0  0
    5.9980   -1.5970   -1.0010 C   0  0  0  0  0  0  0  0  0  0  0  0
    5.3320   -0.3890   -1.6500 C   0  0  0  0  0  0  0  0  0  0  0  0
    5.4060    0.7590   -0.7020 C   0  0  0  0  0  0  0  0  0  0  0  0
    4.3540    1.3610   -0.1990 C   0  0  0  0  0  0  0  0  0  0  0  0
    2.9330    1.1070   -0.4050 C   0  0  0  0  0  0  0  0  0  0  0  0
    2.0920    1.0010    0.7170 C   0  0  0  0  0  0  0  0  0  0  0  0
    0.7470    0.7900    0.6330 C   0  0  0  0  0  0  0  0  0  0  0  0
    0.1980    0.6760   -0.6270 C   0  0  0  0  0  0  0  0  0  0  0  0
   -1.2800    0.4350   -0.8020 C   0  0  1  0  0  0  0  0  0  0  0  0
   -1.6640   -0.5610    0.0430 O   0  0  0  0  0  0  0  0  0  0  0  0
   -2.0000    1.7190   -0.5590 C   0  0  0  0  0  0  0  0  0  0  0  0
   -3.4190    1.6970   -0.7200 N   0  0  0  0  0  0  0  0  0  0  0  0
   -4.2910    0.9170    0.0430 C   0  0  0  0  0  0  0  0  0  0  0  0
   -3.8900    0.1640    0.9510 O   0  0  0  0  0  0  0  0  0  0  0  0
   -5.7440    0.9860   -0.2380 C   0  0  0  0  0  0  0  0  0  0  0  0
   -6.5880    0.0750    0.5910 C   0  0  2  0  0  0  0  0  0  0  0  0
   -6.5100    0.2900    2.0800 C   0  0  0  0  0  0  0  0  0  0  0  0
   -5.7320   -0.7400    2.5890 O   0  0  0  0  0  0  0  0  0  0  0  0
   -5.8350   -1.8160    1.7610 C   0  0  0  0  0  0  0  0  0  0  0  0
   -6.4400   -1.3870    0.4440 C   0  0  2  0  0  0  0  0  0  0  0  0
   -5.7030   -1.8920   -0.7750 C   0  0  0  0  0  0  0  0  0  0  0  0
   -7.8630   -1.5020    0.3720 N   0  0  0  0  0  0  0  0  0  0  0  0
   -7.9610   -0.1290    0.0710 C   0  0  0  0  0  0  0  0  0  0  0  0
   -8.8550    0.5950   -0.4300 O   0  0  0  0  0  0  0  0  0  0  0  0
    1.0120    0.7780   -1.7360 C   0  0  0  0  0  0  0  0  0  0  0  0
    2.3760    0.9930   -1.6510 C   0  0  0  0  0  0  0  0  0  0  0  0
    4.8190    2.4220    0.6650 N   0  0  0  0  0  0  0  0  0  0  0  0
    6.1860    2.7560    0.2450 C   0  0  0  0  0  0  0  0  0  0  0  0
    6.6710    1.4110   -0.2070 C   0  0  1  0  0  0  0  0  0  0  0  0
    7.1270    0.7350    0.8970 O   0  0  0  0  0  0  0  0  0  0  0  0
  1  2  1  0
  2  3  1  0
  3  4  1  0
  4  5  1  0
  5  6  2  0
  5 31  1  0
  6  7  1  0
  6 29  1  0
  7  8  2  0
  7 28  1  0
  8  9  1  0
  9 10  2  0
 10 11  1  0
 10 27  1  0
 11 12  1  1
 11 13  1  0
 13 14  1  0
 14 15  1  0
 15 16  2  0
 15 17  1  0
 18 17  1  6
 18 19  1  0
 18 22  1  0
 18 25  1  0
 19 20  1  0
 20 21  1  0
 21 22  1  0
 22 23  1  6
 22 24  1  0
 24 25  1  0
 25 26  2  0
 27 28  2  0
 29 30  1  0
 30 31  1  0
 31 32  1  1
M  END
