
     RDKit          3D

 32 34  0  0  0  0  0  0  0  0999 V2000
    5.2550   -0.3560    2.8530 C   0  0  0  0  0  0  0  0  0  0  0  0
    5.4120   -1.7100    2.5960 O   0  0  0  0  0  0  0  0  0  0  0  0
    5.8700   -1.9150    1.3090 C   0  0  0  0  0  0  0  0  0  0  0  0
    4.9190   -1.3680    0.2950 C   0  0  0  0  0  0  0  0  0  0  0  0
    3.8990   -2.1330   -0.2300 C   0  0  0  0  0  0  0  0  0  0  0  0
    3.0260   -1.6190   -1.1650 C   0  0  0  0  0  0  0  0  0  0  0  0
    3.1160   -0.3240   -1.6280 C   0  0  0  0  0  0  0  0  0  0  0  0
    2.1760    0.2370   -2.6310 C   0  0  0  0  0  0  0  0  0  0  0  0
    1.1540    1.0160   -2.0950 O   0  0  0  0  0  0  0  0  0  0  0  0
    0.2060    0.6010   -1.1950 C   0  0  0  0  0  0  0  0  0  0  0  0
    0.2120   -0.5740   -0.7860 O   0  0  0  0  0  0  0  0  0  0  0  0
   -0.8090    1.5510   -0.7230 C   0  0  0  0  0  0  0  0  0  0  0  0
   -0.8060    2.7830   -1.1590 C   0  0  0  0  0  0  0  0  0  0  0  0
   -1.7110    3.8470   -0.8060 C   0  0  0  0  0  0  0  0  0  0  0  0
   -1.9800    4.1610    0.5040 C   0  0  0  0  0  0  0  0  0  0  0  0
   -2.8720    5.1880    0.7610 C   0  0  0  0  0  0  0  0  0  0  0  0
   -3.4700    5.8720   -0.2830 C   0  0  0  0  0  0  0  0  0  0  0  0
   -3.1740    5.5290   -1.5640 N   0  0  0  0  0  0  0  0  0  0  0  0
   -2.3140    4.5390   -1.8560 C   0  0  0  0  0  0  0  0  0  0  0  0
   -2.1010    4.2900   -3.0550 O   0  0  0  0  0  0  0  0  0  0  0  0
   -1.8860    1.0970    0.2010 C   0  0  0  0  0  0  0  0  0  0  0  0
   -2.5640   -0.0990   -0.2800 C   0  0  0  0  0  0  0  0  0  0  0  0
   -2.5910   -1.2350    0.3790 C   0  0  0  0  0  0  0  0  0  0  0  0
   -1.9710   -1.5000    1.6620 C   0  0  0  0  0  0  0  0  0  0  0  0
   -2.0340   -2.6610    2.2710 C   0  0  0  0  0  0  0  0  0  0  0  0
   -2.7350   -3.8090    1.7190 C   0  0  0  0  0  0  0  0  0  0  0  0
   -3.3640   -3.5370    0.4130 C   0  0  0  0  0  0  0  0  0  0  0  0
   -4.1250   -4.6510   -0.2670 C   0  0  0  0  0  0  0  0  0  0  0  0
   -3.3120   -2.3990   -0.2000 C   0  0  0  0  0  0  0  0  0  0  0  0
   -3.9290   -2.2010   -1.4380 O   0  0  0  0  0  0  0  0  0  0  0  0
    4.1510    0.4430   -1.0920 C   0  0  0  0  0  0  0  0  0  0  0  0
    5.0250   -0.0690   -0.1570 C   0  0  0  0  0  0  0  0  0  0  0  0
  1  2  1  0
  2  3  1  0
  3  4  1  0
  4  5  2  0
  4 32  1  0
  5  6  1  0
  6  7  2  0
  7  8  1  0
  7 31  1  0
  8  9  1  0
  9 10  1  0
 10 11  2  0
 10 12  1  0
 12 13  2  3
 12 21  1  0
 13 14  1  0
 14 15  2  0
 14 19  1  0
 15 16  1  0
 16 17  2  0
 17 18  1  0
 18 19  1  0
 19 20  2  0
 21 22  1  0
 22 23  2  3
 23 24  1  0
 23 29  1  0
 24 25  2  0
 25 26  1  0
 26 27  1  0
 27 28  1  0
 27 29  2  0
 29 30  1  0
 31 32  2  0
M  END
