
     RDKit          3D

 32 35  0  0  0  0  0  0  0  0999 V2000
    5.2000    3.1280   -1.3000 C   0  0  0  0  0  0  0  0  0  0  0  0
    5.5370    1.8530   -0.5600 C   0  0  0  0  0  0  0  0  0  0  0  0
    5.3000    1.8500    0.7210 C   0  0  0  0  0  0  0  0  0  0  0  0
    5.5570    0.7260    1.5920 C   0  0  0  0  0  0  0  0  0  0  0  0
    5.2910    0.8090    2.8510 O   0  0  0  0  0  0  0  0  0  0  0  0
    6.1000    0.7110   -1.3070 C   0  0  0  0  0  0  0  0  0  0  0  0
    5.0700    0.3210   -2.3760 C   0  0  0  0  0  0  0  0  0  0  0  0
    3.7800   -0.0660   -1.7030 C   0  0  0  0  0  0  0  0  0  0  0  0
    3.9560   -1.1600   -0.8330 O   0  0  0  0  0  0  0  0  0  0  0  0
    2.8580   -1.6380   -0.1380 C   0  0  0  0  0  0  0  0  0  0  0  0
    1.6140   -1.0640   -0.2850 C   0  0  0  0  0  0  0  0  0  0  0  0
    0.4970   -1.5280    0.4040 C   0  0  0  0  0  0  0  0  0  0  0  0
   -0.7490   -0.9150    0.2250 N   0  0  0  0  0  0  0  0  0  0  0  0
   -1.9730   -1.2340    0.8190 C   0  0  0  0  0  0  0  0  0  0  0  0
   -2.0540   -2.1660    1.6180 O   0  0  0  0  0  0  0  0  0  0  0  0
   -3.1890   -0.5120    0.5430 N   0  0  0  0  0  0  0  0  0  0  0  0
   -4.4570   -0.8440    1.1590 C   0  0  1  0  0  0  0  0  0  0  0  0
   -4.7950    0.2910    2.0980 C   0  0  0  0  0  0  0  0  0  0  0  0
   -5.1450    1.4590    1.2180 C   0  0  0  0  0  0  0  0  0  0  0  0
   -4.9760    2.7590    1.1070 C   0  0  0  0  0  0  0  0  0  0  0  0
   -5.6760    3.2260   -0.1270 C   0  0  0  0  0  0  0  0  0  0  0  0
   -5.7500    4.3740   -0.5740 O   0  0  0  0  0  0  0  0  0  0  0  0
   -6.2790    2.0160   -0.7260 C   0  0  0  0  0  0  0  0  0  0  0  0
   -5.9340    1.0900    0.0900 C   0  0  0  0  0  0  0  0  0  0  0  0
   -6.4260   -0.2240   -0.2920 C   0  0  1  0  0  0  0  0  0  0  0  0
   -6.6350    0.0170   -1.7490 C   0  0  0  0  0  0  0  0  0  0  0  0
   -7.0430    1.4340   -1.7670 O   0  0  0  0  0  0  0  0  0  0  0  0
   -5.4880   -1.2800    0.1680 C   0  0  0  0  0  0  0  0  0  0  0  0
    0.7140   -2.5890    1.2340 C   0  0  0  0  0  0  0  0  0  0  0  0
    1.9580   -3.1830    1.3980 C   0  0  0  0  0  0  0  0  0  0  0  0
    3.0390   -2.7070    0.7090 C   0  0  0  0  0  0  0  0  0  0  0  0
    4.3090   -3.3240    0.8850 N   0  0  0  0  0  0  0  0  0  0  0  0
  1  2  1  0
  2  3  2  3
  2  6  1  0
  3  4  1  0
  4  5  2  0
  6  7  1  0
  7  8  1  0
  8  9  1  0
  9 10  1  0
 10 11  2  0
 10 31  1  0
 11 12  1  0
 12 13  1  0
 12 29  2  0
 13 14  1  0
 14 15  2  0
 14 16  1  0
 17 16  1  6
 17 18  1  0
 17 28  1  0
 18 19  1  0
 19 20  2  0
 19 24  1  0
 20 21  1  0
 21 22  2  0
 21 23  1  0
 23 24  2  0
 23 27  1  0
 24 25  1  0
 25 26  1  6
 25 28  1  0
 26 27  1  0
 29 30  1  0
 30 31  2  0
 31 32  1  0
M  END
