
     RDKit          3D

 32 34  0  0  0  0  0  0  0  0999 V2000
  -10.1800   -0.5570   -1.8440 C   0  0  0  0  0  0  0  0  0  0  0  0
   -9.1260   -0.3380   -1.0930 C   0  0  0  0  0  0  0  0  0  0  0  0
   -8.3680    0.8070   -1.0830 C   0  0  0  0  0  0  0  0  0  0  0  0
   -7.3550    0.6020   -0.1400 C   0  0  0  0  0  0  0  0  0  0  0  0
   -6.3410    1.5930    0.2030 C   0  0  0  0  0  0  0  0  0  0  0  0
   -5.0840    1.2860    0.3040 C   0  0  0  0  0  0  0  0  0  0  0  0
   -4.0380    2.3030    0.6610 C   0  0  0  0  0  0  0  0  0  0  0  0
   -2.9730    1.6770    1.5400 C   0  0  0  0  0  0  0  0  0  0  0  0
   -2.3260    0.4920    0.8500 C   0  0  2  0  0  0  0  0  0  0  0  0
   -0.9980    0.8650    0.3390 N   0  0  0  0  0  0  0  0  0  0  0  0
    0.1490    0.1850    0.8320 C   0  0  0  0  0  0  0  0  0  0  0  0
    0.0520   -0.7240    1.6890 O   0  0  0  0  0  0  0  0  0  0  0  0
    1.4730    0.6200    0.2670 C   0  0  0  0  0  0  0  0  0  0  0  0
    2.6210   -0.1280    0.8630 C   0  0  0  0  0  0  0  0  0  0  0  0
    3.8640    0.3990    0.2230 C   0  0  0  0  0  0  0  0  0  0  0  0
    3.8500    1.2870   -0.6670 O   0  0  0  0  0  0  0  0  0  0  0  0
    5.1290   -0.1110    0.6210 N   0  0  0  0  0  0  0  0  0  0  0  0
    6.3370    0.3900    0.0120 C   0  0  1  0  0  0  0  0  0  0  0  0
    7.2390    1.0670    1.0150 C   0  0  0  0  0  0  0  0  0  0  0  0
    8.6160    0.4970    1.0940 C   0  0  0  0  0  0  0  0  0  0  0  0
    9.2060    0.4040   -0.2830 C   0  0  0  0  0  0  0  0  0  0  0  0
    8.3250   -0.2660   -1.2870 C   0  0  0  0  0  0  0  0  0  0  0  0
    7.0440   -0.7770   -0.6360 C   0  0  1  0  0  0  0  0  0  0  0  0
    7.2970   -1.7520    0.2960 O   0  0  0  0  0  0  0  0  0  0  0  0
    6.7180   -2.9770   -0.0470 C   0  0  0  0  0  0  0  0  0  0  0  0
   -3.1260    0.0210   -0.3250 C   0  0  1  0  0  0  0  0  0  0  0  0
   -2.6510   -1.2030   -0.7820 O   0  0  0  0  0  0  0  0  0  0  0  0
   -4.6030   -0.0820    0.0460 C   0  0  2  0  0  0  0  0  0  0  0  0
   -5.2920   -0.6790   -1.0160 O   0  0  0  0  0  0  0  0  0  0  0  0
   -7.5500   -0.6210    0.3550 N   0  0  0  0  0  0  0  0  0  0  0  0
   -8.6130   -1.2420   -0.1860 C   0  0  0  0  0  0  0  0  0  0  0  0
   -9.0740   -2.4490    0.0820 C   0  0  0  0  0  0  0  0  0  0  0  0
  1  2  2  0
  2  3  1  0
  2 31  1  0
  3  4  2  0
  4  5  1  0
  4 30  1  0
  5  6  2  3
  6  7  1  0
  6 28  1  0
  7  8  1  0
  8  9  1  0
  9 10  1  6
  9 26  1  0
 10 11  1  0
 11 12  2  0
 11 13  1  0
 13 14  1  0
 14 15  1  0
 15 16  2  0
 15 17  1  0
 18 17  1  1
 18 19  1  0
 18 23  1  0
 19 20  1  0
 20 21  1  0
 21 22  1  0
 22 23  1  0
 23 24  1  1
 24 25  1  0
 26 27  1  1
 26 28  1  0
 28 29  1  6
 30 31  1  0
 31 32  2  0
M  END
