
     RDKit          3D

 32 35  0  0  0  0  0  0  0  0999 V2000
    0.3760   -2.0830   -1.6550 O   0  0  0  0  0  0  0  0  0  0  0  0
   -0.2730   -1.1170   -1.1330 C   0  0  0  0  0  0  0  0  0  0  0  0
    0.4720   -0.0910   -0.4910 N   0  0  0  0  0  0  0  0  0  0  0  0
    1.8660   -0.0070   -0.3570 C   0  0  0  0  0  0  0  0  0  0  0  0
    2.8150   -0.8180   -0.9070 C   0  0  0  0  0  0  0  0  0  0  0  0
    4.1830   -0.6470   -0.6940 C   0  0  0  0  0  0  0  0  0  0  0  0
    4.6300    0.3810    0.1050 C   0  0  0  0  0  0  0  0  0  0  0  0
    6.0570    0.5600    0.3330 C   0  0  0  0  0  0  0  0  0  0  0  0
    6.9370   -0.5000    0.3660 C   0  0  0  0  0  0  0  0  0  0  0  0
    8.2920   -0.3290    0.5820 C   0  0  0  0  0  0  0  0  0  0  0  0
    8.8020    0.9390    0.7730 C   0  0  0  0  0  0  0  0  0  0  0  0
   10.1710    1.1280    0.9920 O   0  0  0  0  0  0  0  0  0  0  0  0
    7.9390    1.9980    0.7420 C   0  0  0  0  0  0  0  0  0  0  0  0
    6.5670    1.8240    0.5230 C   0  0  0  0  0  0  0  0  0  0  0  0
    3.6860    1.2130    0.6700 C   0  0  0  0  0  0  0  0  0  0  0  0
    2.3430    1.0310    0.4510 C   0  0  0  0  0  0  0  0  0  0  0  0
   -1.6790   -1.1160   -1.2180 N   0  0  0  0  0  0  0  0  0  0  0  0
   -2.5550   -0.1060   -0.6810 C   0  0  0  0  0  0  0  0  0  0  0  0
   -3.8570   -0.8320   -0.3990 C   0  0  1  0  0  0  0  0  0  0  0  0
   -3.7500   -1.2970    1.0580 C   0  0  0  0  0  0  0  0  0  0  0  0
   -2.6550   -2.1380    1.1860 O   0  0  0  0  0  0  0  0  0  0  0  0
   -5.0500    0.0440   -0.5840 C   0  0  0  0  0  0  0  0  0  0  0  0
   -5.0870    1.2350    0.3010 C   0  0  0  0  0  0  0  0  0  0  0  0
   -6.0610    1.4710    1.1780 C   0  0  0  0  0  0  0  0  0  0  0  0
   -5.7520    2.7290    1.8600 C   0  0  1  0  0  0  0  0  0  0  0  0
   -5.5560    2.5170    3.2420 O   0  0  0  0  0  0  0  0  0  0  0  0
   -4.5220    3.1790    1.2890 N   0  0  0  0  0  0  0  0  0  0  0  0
   -4.1470    2.3310    0.4060 C   0  0  0  0  0  0  0  0  0  0  0  0
   -3.8850   -1.9960   -1.3300 C   0  0  0  0  0  0  0  0  0  0  0  0
   -2.4940   -2.1120   -1.8510 C   0  0  1  0  0  0  0  0  0  0  0  0
   -2.4240   -1.8460   -3.3550 C   0  0  0  0  0  0  0  0  0  0  0  0
   -1.1260   -1.9350   -3.8080 O   0  0  0  0  0  0  0  0  0  0  0  0
  1  2  2  0
  2  3  1  0
  2 17  1  0
  3  4  1  0
  4  5  2  0
  4 16  1  0
  5  6  1  0
  6  7  2  0
  7  8  1  0
  7 15  1  0
  8  9  2  0
  8 14  1  0
  9 10  1  0
 10 11  2  0
 11 12  1  0
 11 13  1  0
 13 14  2  0
 15 16  2  0
 17 18  1  0
 17 30  1  0
 18 19  1  0
 19 20  1  1
 19 22  1  0
 19 29  1  0
 20 21  1  0
 22 23  1  0
 23 24  2  0
 23 28  1  0
 24 25  1  0
 25 26  1  1
 25 27  1  0
 27 28  2  0
 29 30  1  0
 30 31  1  6
 31 32  1  0
M  END
