
     RDKit          3D

 33 36  0  0  0  0  0  0  0  0999 V2000
   -3.4940   -3.0530   -0.8750 C   0  0  0  0  0  0  0  0  0  0  0  0
   -2.4820   -1.9650   -0.6990 C   0  0  0  0  0  0  0  0  0  0  0  0
   -1.4210   -1.8250   -1.5860 C   0  0  0  0  0  0  0  0  0  0  0  0
   -0.4760   -0.8110   -1.4220 C   0  0  0  0  0  0  0  0  0  0  0  0
    0.6590   -0.6560   -2.3610 C   0  0  0  0  0  0  0  0  0  0  0  0
   -0.5930    0.0570   -0.3730 C   0  0  0  0  0  0  0  0  0  0  0  0
    0.3680    1.1870   -0.1280 C   0  0  1  0  0  0  0  0  0  0  0  0
   -0.5070    2.3400    0.2270 C   0  0  0  0  0  0  0  0  0  0  0  0
   -1.5490    2.8120   -0.7040 C   0  0  0  0  0  0  0  0  0  0  0  0
   -1.6180    2.1690   -1.8130 O   0  0  0  0  0  0  0  0  0  0  0  0
   -2.4570    3.8660   -0.5120 C   0  0  0  0  0  0  0  0  0  0  0  0
   -3.4610    4.3050   -1.3740 C   0  0  0  0  0  0  0  0  0  0  0  0
   -4.2220    5.3210   -1.0210 C   0  0  0  0  0  0  0  0  0  0  0  0
   -4.0560    5.9580    0.1670 C   0  0  0  0  0  0  0  0  0  0  0  0
   -2.6520    5.0040    0.8700 S   0  0  0  0  0  0  0  0  0  0  0  0
   -0.1960    2.7790    1.4070 C   0  0  0  0  0  0  0  0  0  0  0  0
   -0.7550    3.8460    2.1350 O   0  0  0  0  0  0  0  0  0  0  0  0
    0.8950    1.9650    1.9360 C   0  0  0  0  0  0  0  0  0  0  0  0
    1.4700    2.0950    3.0700 O   0  0  0  0  0  0  0  0  0  0  0  0
    1.2190    0.9960    0.9820 N   0  0  0  0  0  0  0  0  0  0  0  0
    2.2370   -0.0280    1.0790 C   0  0  0  0  0  0  0  0  0  0  0  0
    3.3410    0.0040    0.2600 C   0  0  0  0  0  0  0  0  0  0  0  0
    4.3200   -0.9520    0.3070 C   0  0  0  0  0  0  0  0  0  0  0  0
    4.2070   -1.9940    1.2060 C   0  0  0  0  0  0  0  0  0  0  0  0
    5.3100   -3.0070    1.1920 C   0  0  0  0  0  0  0  0  0  0  0  0
    5.0320   -4.0680    0.2020 C   0  0  0  0  0  0  0  0  0  0  0  0
    3.9920   -4.0370   -0.4780 O   0  0  0  0  0  0  0  0  0  0  0  0
    5.9330   -5.0950    0.0330 O   0  0  0  0  0  0  0  0  0  0  0  0
    3.1240   -2.0560    2.0330 C   0  0  0  0  0  0  0  0  0  0  0  0
    2.1380   -1.0750    1.9740 C   0  0  0  0  0  0  0  0  0  0  0  0
   -1.6570   -0.1080    0.4920 C   0  0  0  0  0  0  0  0  0  0  0  0
   -2.6100   -1.0960    0.3600 C   0  0  0  0  0  0  0  0  0  0  0  0
   -3.7260   -1.1740    1.3600 C   0  0  0  0  0  0  0  0  0  0  0  0
  1  2  1  0
  2  3  2  0
  2 32  1  0
  3  4  1  0
  4  5  1  0
  4  6  2  0
  7  6  1  1
  6 31  1  0
  7  8  1  0
  7 20  1  0
  8  9  1  0
  8 16  2  0
  9 10  2  0
  9 11  1  0
 11 12  2  0
 11 15  1  0
 12 13  1  0
 13 14  2  0
 14 15  1  0
 16 17  1  0
 16 18  1  0
 18 19  2  0
 18 20  1  0
 20 21  1  0
 21 22  2  0
 21 30  1  0
 22 23  1  0
 23 24  2  0
 24 25  1  0
 24 29  1  0
 25 26  1  0
 26 27  2  0
 26 28  1  0
 29 30  2  0
 31 32  2  0
 32 33  1  0
M  END
