
     RDKit          3D

 32 34  0  0  0  0  0  0  0  0999 V2000
    3.8270   -2.4050   -0.4050 C   0  0  0  0  0  0  0  0  0  0  0  0
    4.2470   -1.1030   -0.4880 C   0  0  0  0  0  0  0  0  0  0  0  0
    3.2080   -0.1130   -0.3250 C   0  0  0  0  0  0  0  0  0  0  0  0
    3.4200    1.1040   -0.3660 O   0  0  0  0  0  0  0  0  0  0  0  0
    1.8490   -0.4980   -0.1040 N   0  0  0  0  0  0  0  0  0  0  0  0
    0.8360    0.5640    0.0540 C   0  0  0  0  0  0  0  0  0  0  0  0
   -0.4610   -0.1090    0.2670 C   0  0  0  0  0  0  0  0  0  0  0  0
   -1.2590   -0.4320   -0.8020 C   0  0  0  0  0  0  0  0  0  0  0  0
   -2.4780   -1.0600   -0.6700 C   0  0  0  0  0  0  0  0  0  0  0  0
   -2.9380   -1.3870    0.5690 C   0  0  0  0  0  0  0  0  0  0  0  0
   -4.1640   -2.0240    0.7830 O   0  0  0  0  0  0  0  0  0  0  0  0
   -5.2610   -1.1770    0.9610 C   0  0  0  0  0  0  0  0  0  0  0  0
   -5.6480   -0.7160    2.2020 C   0  0  0  0  0  0  0  0  0  0  0  0
   -6.7330    0.1210    2.3720 C   0  0  0  0  0  0  0  0  0  0  0  0
   -7.4810    0.5320    1.2770 C   0  0  0  0  0  0  0  0  0  0  0  0
   -7.0820    0.0640    0.0420 C   0  0  0  0  0  0  0  0  0  0  0  0
   -5.9980   -0.7730   -0.1330 C   0  0  0  0  0  0  0  0  0  0  0  0
   -7.8640    0.4900   -1.1250 C   0  0  0  0  0  0  0  0  0  0  0  0
   -7.3870    0.3560   -2.2800 O   0  0  0  0  0  0  0  0  0  0  0  0
   -9.2040    1.0690   -0.8570 C   0  0  0  0  0  0  0  0  0  0  0  0
   -9.0360    2.0740    0.2820 C   0  0  0  0  0  0  0  0  0  0  0  0
   -8.5740    1.3720    1.4190 O   0  0  0  0  0  0  0  0  0  0  0  0
   -2.1680   -1.0800    1.6690 C   0  0  0  0  0  0  0  0  0  0  0  0
   -0.9390   -0.4460    1.5150 C   0  0  0  0  0  0  0  0  0  0  0  0
    5.6350   -0.8330   -0.6800 C   0  0  0  0  0  0  0  0  0  0  0  0
    6.3400    0.2120   -0.8260 C   0  0  0  0  0  0  0  0  0  0  0  0
    6.1740    1.6220   -0.8840 C   0  0  0  0  0  0  0  0  0  0  0  0
    7.2810    2.4010   -1.0620 C   0  0  0  0  0  0  0  0  0  0  0  0
    7.1460    3.8500   -1.1250 C   0  0  0  0  0  0  0  0  0  0  0  0
    6.5050   -2.1410   -0.6890 C   0  0  0  0  0  0  0  0  0  0  0  0
    6.2910   -2.7220    0.5420 O   0  0  0  0  0  0  0  0  0  0  0  0
    6.7090   -1.8090    1.5130 C   0  0  0  0  0  0  0  0  0  0  0  0
  1  2  2  0
  2  3  1  0
  2 25  1  0
  3  4  2  0
  3  5  1  0
  5  6  1  0
  6  7  1  0
  7  8  2  0
  7 24  1  0
  8  9  1  0
  9 10  2  0
 10 11  1  0
 10 23  1  0
 11 12  1  0
 12 13  2  0
 12 17  1  0
 13 14  1  0
 14 15  2  0
 15 16  1  0
 15 22  1  0
 16 17  2  0
 16 18  1  0
 18 19  2  0
 18 20  1  0
 20 21  1  0
 21 22  1  0
 23 24  2  0
 25 26  2  3
 25 30  1  0
 26 27  1  0
 27 28  2  3
 28 29  1  0
 30 31  1  0
 31 32  1  0
M  END
