
     RDKit          3D

 40 42  0  0  0  0  0  0  0  0999 V2000
    8.6450   -0.5410    5.4530 C   0  0  0  0  0  0  0  0  0  0  0  0
    8.7650    0.3980    4.3370 C   0  0  0  0  0  0  0  0  0  0  0  0
    7.9090    0.3870    3.3300 C   0  0  0  0  0  0  0  0  0  0  0  0
    6.8240   -0.5430    3.2810 C   0  0  0  0  0  0  0  0  0  0  0  0
    5.9460   -0.5760    2.2910 C   0  0  0  0  0  0  0  0  0  0  0  0
    4.8640   -1.5180    2.2320 N   0  0  0  0  0  0  0  0  0  0  0  0
    3.9340   -1.4400    1.1770 C   0  0  0  0  0  0  0  0  0  0  0  0
    3.0200   -2.3010    1.1890 O   0  0  0  0  0  0  0  0  0  0  0  0
    3.9990   -0.4010    0.0650 C   0  0  0  0  0  0  0  0  0  0  0  0
    2.7680   -0.2230   -0.5610 N   0  0  0  0  0  0  0  0  0  0  0  0
    2.0910    0.8800   -1.1290 C   0  0  0  0  0  0  0  0  0  0  0  0
    2.6120    2.0340   -0.9240 O   0  0  0  0  0  0  0  0  0  0  0  0
    0.8520    0.7670   -1.9240 C   0  0  1  0  0  0  0  0  0  0  0  0
    1.0990    0.5510   -3.4140 C   0  0  0  0  0  0  0  0  0  0  0  0
    0.8160   -0.8180   -3.9020 C   0  0  0  0  0  0  0  0  0  0  0  0
   -0.5500   -1.2140   -3.3840 C   0  0  0  0  0  0  0  0  0  0  0  0
   -0.6330   -1.0620   -1.9190 C   0  0  0  0  0  0  0  0  0  0  0  0
   -0.3750    0.3240   -1.4450 N   0  0  1  0  0  0  0  0  0  0  0  0
   -0.5770    0.2600   -0.0370 C   0  0  0  0  0  0  0  0  0  0  0  0
   -2.0170    0.0570    0.3590 C   0  0  0  0  0  0  0  0  0  0  0  0
   -2.2980   -0.1500    1.5760 O   0  0  0  0  0  0  0  0  0  0  0  0
   -3.0720    0.0790   -0.5630 N   0  0  0  0  0  0  0  0  0  0  0  0
   -4.4870   -0.1730   -0.2730 C   0  0  2  0  0  0  0  0  0  0  0  0
   -4.9500   -1.3600   -1.1100 C   0  0  0  0  0  0  0  0  0  0  0  0
   -5.2610    1.0150   -0.8290 C   0  0  0  0  0  0  0  0  0  0  0  0
   -6.6000    0.8830   -0.7850 O   0  0  0  0  0  0  0  0  0  0  0  0
   -7.6390    0.7000    0.0050 C   0  0  0  0  0  0  0  0  0  0  0  0
   -8.9360    0.6340   -0.5310 C   0  0  0  0  0  0  0  0  0  0  0  0
  -10.0510    0.4390    0.2330 C   0  0  0  0  0  0  0  0  0  0  0  0
  -11.4050    0.3610   -0.4160 C   0  0  0  0  0  0  0  0  0  0  0  0
   -9.9330    0.2970    1.6000 C   0  0  0  0  0  0  0  0  0  0  0  0
   -8.6700    0.3570    2.1680 C   0  0  0  0  0  0  0  0  0  0  0  0
   -8.5820    0.1980    3.6320 C   0  0  0  0  0  0  0  0  0  0  0  0
   -7.5610    0.5540    1.3700 C   0  0  0  0  0  0  0  0  0  0  0  0
    4.9910    0.3940    0.1810 C   0  0  0  0  0  0  0  0  0  0  0  0
    5.2540    1.4780   -0.8440 C   0  0  0  0  0  0  0  0  0  0  0  0
    6.4640    0.9760   -1.6970 C   0  0  1  0  0  0  0  0  0  0  0  0
    7.7100    0.7130   -0.9610 C   0  0  0  0  0  0  0  0  0  0  0  0
    6.0210   -0.3090   -2.3990 C   0  0  0  0  0  0  0  0  0  0  0  0
    5.9480    0.3560    1.2270 N   0  0  0  0  0  0  0  0  0  0  0  0
  1  2  1  0
  2  3  2  3
  3  4  1  0
  4  5  2  3
  5  6  1  0
  5 40  1  0
  6  7  1  0
  7  8  2  0
  7  9  1  0
  9 10  1  0
  9 35  2  0
 10 11  1  0
 11 12  2  0
 13 11  1  1
 13 14  1  0
 13 18  1  0
 14 15  1  0
 15 16  1  0
 16 17  1  0
 17 18  1  0
 18 19  1  1
 19 20  1  0
 20 21  2  0
 20 22  1  0
 22 23  1  0
 23 24  1  6
 23 25  1  0
 25 26  1  0
 26 27  1  0
 27 28  2  0
 27 34  1  0
 28 29  1  0
 29 30  1  0
 29 31  2  0
 31 32  1  0
 32 33  1  0
 32 34  2  0
 35 36  1  0
 35 40  1  0
 36 37  1  0
 37 38  1  1
 37 39  1  0
M  CHG  1  18   1
M  END
