
     RDKit          3D

 40 43  0  0  0  0  0  0  0  0999 V2000
   11.9210   -1.6720    0.3880 C   0  0  0  0  0  0  0  0  0  0  0  0
   10.5590   -2.3190    0.4800 C   0  0  0  0  0  0  0  0  0  0  0  0
    9.5360   -1.2530    0.6040 C   0  0  0  0  0  0  0  0  0  0  0  0
    9.1750   -0.8140    1.8600 C   0  0  0  0  0  0  0  0  0  0  0  0
    8.2200    0.1830    1.9940 C   0  0  0  0  0  0  0  0  0  0  0  0
    7.6390    0.7250    0.8400 C   0  0  0  0  0  0  0  0  0  0  0  0
    8.0210    0.2640   -0.3950 C   0  0  0  0  0  0  0  0  0  0  0  0
    7.4190    0.7940   -1.5610 N   0  0  0  0  0  0  0  0  0  0  0  0
    6.3420    1.7480   -1.5550 C   0  0  0  0  0  0  0  0  0  0  0  0
    5.0720    1.0640   -1.1770 C   0  0  2  0  0  0  0  0  0  0  0  0
    4.7540   -0.0870   -2.1320 C   0  0  0  0  0  0  0  0  0  0  0  0
    3.9800    1.9280   -1.1380 O   0  0  0  0  0  0  0  0  0  0  0  0
    3.3480    1.9520    0.0880 C   0  0  0  0  0  0  0  0  0  0  0  0
    2.1850    2.9410   -0.0480 C   0  0  2  0  0  0  0  0  0  0  0  0
    1.3820    2.8280    1.2310 C   0  0  0  0  0  0  0  0  0  0  0  0
    0.3060    1.8900    0.8940 C   0  0  0  0  0  0  0  0  0  0  0  0
   -0.5940    1.2100    1.7080 C   0  0  0  0  0  0  0  0  0  0  0  0
   -1.5090    0.3830    1.1170 C   0  0  0  0  0  0  0  0  0  0  0  0
   -1.5390    0.2250   -0.2500 C   0  0  0  0  0  0  0  0  0  0  0  0
   -2.4270   -0.5820   -0.8610 O   0  0  0  0  0  0  0  0  0  0  0  0
   -3.5740   -1.1730   -0.4620 C   0  0  0  0  0  0  0  0  0  0  0  0
   -3.5580   -2.5710   -0.3730 C   0  0  0  0  0  0  0  0  0  0  0  0
   -4.6520   -3.2690    0.0140 C   0  0  0  0  0  0  0  0  0  0  0  0
   -5.8430   -2.6090    0.3390 C   0  0  0  0  0  0  0  0  0  0  0  0
   -6.8750   -3.3580    0.7120 O   0  0  0  0  0  0  0  0  0  0  0  0
   -8.1470   -3.4000    1.0960 C   0  0  0  0  0  0  0  0  0  0  0  0
   -9.2250   -2.9270    0.1600 C   0  0  2  0  0  0  0  0  0  0  0  0
   -9.2040   -3.7290   -1.1240 C   0  0  0  0  0  0  0  0  0  0  0  0
   -9.2990   -1.4730   -0.0810 C   0  0  0  0  0  0  0  0  0  0  0  0
   -5.8300   -1.2270    0.2410 C   0  0  0  0  0  0  0  0  0  0  0  0
   -4.7340   -0.4930   -0.1500 C   0  0  0  0  0  0  0  0  0  0  0  0
   -4.7320    0.9670   -0.2940 C   0  0  0  0  0  0  0  0  0  0  0  0
   -5.9480    1.6490    0.0130 N   0  0  0  0  0  0  0  0  0  0  0  0
   -5.9180    3.0820   -0.1330 C   0  0  0  0  0  0  0  0  0  0  0  0
   -7.0880    3.8350    0.1530 N   0  0  0  0  0  0  0  0  0  0  0  0
   -4.8480    3.6840   -0.5190 N   0  0  0  0  0  0  0  0  0  0  0  0
   -0.6250    0.9180   -1.0490 C   0  0  0  0  0  0  0  0  0  0  0  0
    0.2990    1.7530   -0.4610 C   0  0  0  0  0  0  0  0  0  0  0  0
    1.2890    2.5290   -1.0520 O   0  0  0  0  0  0  0  0  0  0  0  0
    8.9620   -0.7150   -0.4800 N   0  0  0  0  0  0  0  0  0  0  0  0
  1  2  1  0
  2  3  1  0
  3  4  2  0
  3 40  1  0
  4  5  1  0
  5  6  2  0
  6  7  1  0
  7  8  1  0
  7 40  2  0
  8  9  1  0
  9 10  1  0
 10 11  1  6
 10 12  1  0
 12 13  1  0
 14 13  1  1
 14 15  1  0
 14 39  1  0
 15 16  1  0
 16 17  2  0
 16 38  1  0
 17 18  1  0
 18 19  2  0
 19 20  1  0
 19 37  1  0
 20 21  1  0
 21 22  2  0
 21 31  1  0
 22 23  1  0
 23 24  2  0
 24 25  1  0
 24 30  1  0
 25 26  1  0
 26 27  1  0
 27 28  1  6
 27 29  1  0
 30 31  2  0
 31 32  1  0
 32 33  1  0
 33 34  1  0
 34 35  1  0
 34 36  2  0
 37 38  2  0
 38 39  1  0
M  CHG  1  36   1
M  END
