
     RDKit          3D

 40 43  0  0  0  0  0  0  0  0999 V2000
   -7.7910   -3.5130   -1.0040 C   0  0  0  0  0  0  0  0  0  0  0  0
   -6.6900   -2.6130   -1.5080 C   0  0  0  0  0  0  0  0  0  0  0  0
   -6.5070   -1.4720   -0.5680 C   0  0  0  0  0  0  0  0  0  0  0  0
   -5.4820   -1.4230    0.2930 N   0  0  0  0  0  0  0  0  0  0  0  0
   -5.3270   -0.3780    1.1480 C   0  0  0  0  0  0  0  0  0  0  0  0
   -4.2680   -0.3790    2.0270 C   0  0  0  0  0  0  0  0  0  0  0  0
   -3.2490   -1.4460    2.0430 C   0  0  0  0  0  0  0  0  0  0  0  0
   -2.1370   -1.3260    1.0760 C   0  0  1  0  0  0  0  0  0  0  0  0
   -2.5540   -1.3030   -0.3570 C   0  0  0  0  0  0  0  0  0  0  0  0
   -1.4610   -0.0600    1.3390 N   0  0  0  0  0  0  0  0  0  0  0  0
   -0.2970    0.1410    0.5010 C   0  0  0  0  0  0  0  0  0  0  0  0
    0.8310    0.6120    1.3690 C   0  0  0  0  0  0  0  0  0  0  0  0
    2.0680    0.8680    0.7220 N   0  0  0  0  0  0  0  0  0  0  0  0
    2.4700    2.1700    0.2140 C   0  0  0  0  0  0  0  0  0  0  0  0
    2.0880    2.3860   -1.1990 C   0  0  0  0  0  0  0  0  0  0  0  0
    1.4910    1.5570   -1.9250 O   0  0  0  0  0  0  0  0  0  0  0  0
    2.4290    3.6140   -1.7450 O   0  0  0  0  0  0  0  0  0  0  0  0
    2.1360    3.9730   -3.0750 C   0  0  0  0  0  0  0  0  0  0  0  0
    2.6580    5.3460   -3.2970 C   0  0  0  0  0  0  0  0  0  0  0  0
    2.5350    5.9380   -4.4050 O   0  0  0  0  0  0  0  0  0  0  0  0
    3.3330    6.0860   -2.2760 N   0  0  0  0  0  0  0  0  0  0  0  0
    3.8390    7.4170   -2.4960 C   0  0  0  0  0  0  0  0  0  0  0  0
    3.0050   -0.1700    0.5490 C   0  0  0  0  0  0  0  0  0  0  0  0
    4.1390    0.0310   -0.0090 O   0  0  0  0  0  0  0  0  0  0  0  0
    2.7170   -1.4820    0.9890 N   0  0  0  0  0  0  0  0  0  0  0  0
    3.6280   -2.5870    0.8410 C   0  0  0  0  0  0  0  0  0  0  0  0
    4.9440   -2.3400    1.5310 C   0  0  1  0  0  0  0  0  0  0  0  0
    6.0200   -3.4410    1.4900 C   0  0  0  0  0  0  0  0  0  0  0  0
    6.1080   -2.2430    0.6210 C   0  0  1  0  0  0  0  0  0  0  0  0
    6.0530   -2.4830   -0.8480 C   0  0  0  0  0  0  0  0  0  0  0  0
    7.5400   -2.6430   -1.1780 C   0  0  0  0  0  0  0  0  0  0  0  0
    8.2570   -1.7370   -0.1990 C   0  0  0  0  0  0  0  0  0  0  0  0
    7.1970   -1.2390    0.7760 C   0  0  0  0  0  0  0  0  0  0  0  0
   -4.1560    0.7100    2.9080 C   0  0  0  0  0  0  0  0  0  0  0  0
   -5.0670    1.7200    2.8790 C   0  0  0  0  0  0  0  0  0  0  0  0
   -6.1320    1.7380    2.0050 C   0  0  0  0  0  0  0  0  0  0  0  0
   -6.2440    0.6690    1.1410 C   0  0  0  0  0  0  0  0  0  0  0  0
   -7.3240    0.6470    0.2530 C   0  0  0  0  0  0  0  0  0  0  0  0
   -7.4180   -0.4430   -0.5850 C   0  0  0  0  0  0  0  0  0  0  0  0
   -8.5600   -0.4790   -1.5340 C   0  0  0  0  0  0  0  0  0  0  0  0
  1  2  1  0
  2  3  1  0
  3  4  2  0
  3 39  1  0
  4  5  1  0
  5  6  2  0
  5 37  1  0
  6  7  1  0
  6 34  1  0
  7  8  1  0
  8  9  1  6
  8 10  1  0
 10 11  1  0
 11 12  1  0
 12 13  1  0
 13 14  1  0
 13 23  1  0
 14 15  1  0
 15 16  2  0
 15 17  1  0
 17 18  1  0
 18 19  1  0
 19 20  2  0
 19 21  1  0
 21 22  1  0
 23 24  2  0
 23 25  1  0
 25 26  1  0
 27 26  1  6
 27 28  1  0
 27 29  1  0
 29 28  1  1
 29 30  1  0
 29 33  1  0
 30 31  1  0
 31 32  1  0
 32 33  1  0
 34 35  2  0
 35 36  1  0
 36 37  2  0
 37 38  1  0
 38 39  2  0
 39 40  1  0
M  CHG  1  10   1
M  END
