
     RDKit          3D

 40 43  0  0  0  0  0  0  0  0999 V2000
  -11.0910    1.1710   -2.1180 C   0  0  0  0  0  0  0  0  0  0  0  0
  -10.1210    2.2840   -1.7860 C   0  0  0  0  0  0  0  0  0  0  0  0
   -9.3250    1.9750   -0.5430 C   0  0  0  0  0  0  0  0  0  0  0  0
   -8.5390    0.7920   -0.6260 N   0  0  0  0  0  0  0  0  0  0  0  0
   -7.4420    0.8410   -1.5350 C   0  0  0  0  0  0  0  0  0  0  0  0
   -6.3230    1.7710   -1.1150 C   0  0  0  0  0  0  0  0  0  0  0  0
   -5.8130    1.3300    0.2160 C   0  0  2  0  0  0  0  0  0  0  0  0
   -4.4030    0.9980    0.1720 N   0  0  1  0  0  0  0  0  0  0  0  0
   -3.6790    2.2420   -0.0660 C   0  0  0  0  0  0  0  0  0  0  0  0
   -2.3170    2.0930    0.5710 C   0  0  0  0  0  0  0  0  0  0  0  0
   -2.4560    0.9020    1.4760 C   0  0  2  0  0  0  0  0  0  0  0  0
   -1.7050   -0.2430    0.9920 N   0  0  0  0  0  0  0  0  0  0  0  0
   -0.7240   -0.8930    1.7850 C   0  0  0  0  0  0  0  0  0  0  0  0
   -0.4620   -0.4950    2.9690 O   0  0  0  0  0  0  0  0  0  0  0  0
   -0.0250   -2.0050    1.2520 N   0  0  0  0  0  0  0  0  0  0  0  0
    0.9790   -2.6920    2.0330 C   0  0  1  0  0  0  0  0  0  0  0  0
    0.6950   -4.1570    2.1470 C   0  0  0  0  0  0  0  0  0  0  0  0
    2.3170   -2.4850    1.3840 C   0  0  0  0  0  0  0  0  0  0  0  0
    2.3540   -1.7700    0.3590 O   0  0  0  0  0  0  0  0  0  0  0  0
    3.4490   -3.1130    1.9750 N   0  0  0  0  0  0  0  0  0  0  0  0
    4.7370   -2.9450    1.4130 C   0  0  0  0  0  0  0  0  0  0  0  0
    5.6830   -3.9080    1.7510 C   0  0  0  0  0  0  0  0  0  0  0  0
    6.9730   -3.8310    1.2790 C   0  0  0  0  0  0  0  0  0  0  0  0
    7.3480   -2.7780    0.4520 C   0  0  0  0  0  0  0  0  0  0  0  0
    8.6500   -2.7420    0.0040 O   0  0  0  0  0  0  0  0  0  0  0  0
    9.5560   -3.7400    0.3790 C   0  0  0  0  0  0  0  0  0  0  0  0
    6.4340   -1.8070    0.1000 C   0  0  0  0  0  0  0  0  0  0  0  0
    6.8660   -0.7230   -0.7570 C   0  0  0  0  0  0  0  0  0  0  0  0
    7.5640   -0.9370   -1.9200 C   0  0  0  0  0  0  0  0  0  0  0  0
    7.9810    0.0940   -2.7170 C   0  0  0  0  0  0  0  0  0  0  0  0
    7.7080    1.4200   -2.3700 C   0  0  0  0  0  0  0  0  0  0  0  0
    8.1370    2.4540   -3.1860 O   0  0  0  0  0  0  0  0  0  0  0  0
    7.9290    3.8130   -2.9180 C   0  0  0  0  0  0  0  0  0  0  0  0
    8.5930    4.2440   -1.6410 C   0  0  0  0  0  0  0  0  0  0  0  0
    7.0160    1.6550   -1.2200 C   0  0  0  0  0  0  0  0  0  0  0  0
    6.6080    0.5930   -0.4360 C   0  0  0  0  0  0  0  0  0  0  0  0
    5.1430   -1.9330    0.6040 C   0  0  0  0  0  0  0  0  0  0  0  0
   -3.9490    0.5680    1.4840 C   0  0  0  0  0  0  0  0  0  0  0  0
   -6.5990    0.1520    0.7530 C   0  0  0  0  0  0  0  0  0  0  0  0
   -8.0670    0.4390    0.6890 C   0  0  0  0  0  0  0  0  0  0  0  0
  1  2  1  0
  2  3  1  0
  3  4  1  0
  4  5  1  0
  4 40  1  0
  5  6  1  0
  7  6  1  6
  7  8  1  0
  7 39  1  0
  8  9  1  1
  8 38  1  0
  9 10  1  0
 10 11  1  0
 11 12  1  6
 11 38  1  0
 12 13  1  0
 13 14  2  0
 13 15  1  0
 15 16  1  0
 16 17  1  6
 16 18  1  0
 18 19  2  0
 18 20  1  0
 20 21  1  0
 21 22  2  0
 21 37  1  0
 22 23  1  0
 23 24  2  0
 24 25  1  0
 24 27  1  0
 25 26  1  0
 27 28  1  0
 27 37  2  0
 28 29  2  0
 28 36  1  0
 29 30  1  0
 30 31  2  0
 31 32  1  0
 31 35  1  0
 32 33  1  0
 33 34  1  0
 35 36  2  0
 39 40  1  0
M  CHG  1   8   1
M  END
