
     RDKit          3D

 40 42  0  0  0  0  0  0  0  0999 V2000
    8.8750    4.1710   -0.0650 C   0  0  0  0  0  0  0  0  0  0  0  0
    8.3730    3.7980   -1.4740 C   0  0  0  0  0  0  0  0  0  0  0  0
    8.4540    2.3730   -1.5940 C   0  0  0  0  0  0  0  0  0  0  0  0
    7.4000    1.5210   -1.6950 C   0  0  0  0  0  0  0  0  0  0  0  0
    6.0490    2.1170   -1.6720 C   0  0  0  0  0  0  0  0  0  0  0  0
    7.6580    0.1190   -1.7870 C   0  0  0  0  0  0  0  0  0  0  0  0
    7.0460   -0.9610   -1.9080 C   0  0  0  0  0  0  0  0  0  0  0  0
    5.7450   -1.5250   -2.0390 C   0  0  0  0  0  0  0  0  0  0  0  0
    5.6820   -2.8640   -2.0880 O   0  0  0  0  0  0  0  0  0  0  0  0
    4.5270   -0.8680   -2.1260 N   0  0  0  0  0  0  0  0  0  0  0  0
    3.2990   -1.6830   -2.2410 C   0  0  2  0  0  0  0  0  0  0  0  0
    2.5180   -1.2310   -3.4530 C   0  0  0  0  0  0  0  0  0  0  0  0
    1.3010   -0.5670   -2.8510 C   0  0  0  0  0  0  0  0  0  0  0  0
    1.1250   -1.3720   -1.6160 N   0  0  2  0  0  0  0  0  0  0  0  0
    0.1560   -0.7680   -0.7630 C   0  0  0  0  0  0  0  0  0  0  0  0
   -0.2740   -1.6770    0.2970 C   0  0  0  0  0  0  0  0  0  0  0  0
    0.2220   -2.9560    0.3850 C   0  0  0  0  0  0  0  0  0  0  0  0
   -0.1810   -3.8140    1.3850 C   0  0  0  0  0  0  0  0  0  0  0  0
   -1.0930   -3.3650    2.2990 C   0  0  0  0  0  0  0  0  0  0  0  0
   -1.5800   -4.2170    3.3960 C   0  0  0  0  0  0  0  0  0  0  0  0
   -2.8580   -4.8920    3.0740 C   0  0  0  0  0  0  0  0  0  0  0  0
   -3.3480   -4.6600    1.9320 O   0  0  0  0  0  0  0  0  0  0  0  0
   -3.4780   -5.7490    4.0150 N   0  0  0  0  0  0  0  0  0  0  0  0
   -4.7140   -6.4040    3.7100 C   0  0  0  0  0  0  0  0  0  0  0  0
   -1.5960   -2.0690    2.2110 C   0  0  0  0  0  0  0  0  0  0  0  0
   -1.2200   -1.1920    1.2340 C   0  0  0  0  0  0  0  0  0  0  0  0
   -1.6870    0.1300    1.0630 N   0  0  0  0  0  0  0  0  0  0  0  0
   -2.5670    0.8410    1.9040 C   0  0  0  0  0  0  0  0  0  0  0  0
   -3.0030    0.2940    2.9400 O   0  0  0  0  0  0  0  0  0  0  0  0
   -2.9690    2.1920    1.5830 N   0  0  0  0  0  0  0  0  0  0  0  0
   -3.8410    2.8920    2.4370 C   0  0  0  0  0  0  0  0  0  0  0  0
   -5.0130    3.3020    2.0300 C   0  0  0  0  0  0  0  0  0  0  0  0
   -5.4610    3.0430    0.6750 C   0  0  0  0  0  0  0  0  0  0  0  0
   -4.7360    2.4120   -0.1310 O   0  0  0  0  0  0  0  0  0  0  0  0
   -6.7670    3.5230    0.2350 C   0  0  0  0  0  0  0  0  0  0  0  0
   -7.1890    3.2830   -0.9860 C   0  0  0  0  0  0  0  0  0  0  0  0
   -8.5430    3.8030   -1.3800 C   0  0  2  0  0  0  0  0  0  0  0  0
   -9.7080    3.6260   -0.5070 C   0  0  0  0  0  0  0  0  0  0  0  0
   -9.5880    2.8580   -1.8010 C   0  0  0  0  0  0  0  0  0  0  0  0
    2.4490   -1.2260   -1.0570 C   0  0  0  0  0  0  0  0  0  0  0  0
  1  2  1  0
  2  3  1  0
  3  4  2  3
  4  5  1  0
  4  6  1  0
  6  7  2  3
  7  8  1  0
  8  9  2  0
  8 10  1  0
 11 10  1  1
 11 12  1  0
 11 40  1  0
 12 13  1  0
 13 14  1  0
 14 15  1  1
 14 40  1  0
 15 16  1  0
 16 17  2  0
 16 26  1  0
 17 18  1  0
 18 19  2  0
 19 20  1  0
 19 25  1  0
 20 21  1  0
 21 22  2  0
 21 23  1  0
 23 24  1  0
 25 26  2  0
 26 27  1  0
 27 28  1  0
 28 29  2  0
 28 30  1  0
 30 31  1  0
 31 32  2  3
 32 33  1  0
 33 34  2  0
 33 35  1  0
 35 36  2  3
 37 36  1  1
 37 38  1  0
 37 39  1  0
 38 39  1  0
M  CHG  1  14   1
M  END
