
     RDKit          3D

 40 43  0  0  0  0  0  0  0  0999 V2000
    1.5180   -2.3600    1.4200 C   0  0  0  0  0  0  0  0  0  0  0  0
    0.5570   -2.2370    0.3450 N   0  0  0  0  0  0  0  0  0  0  0  0
   -0.1290   -0.9510    0.3810 C   0  0  2  0  0  0  0  0  0  0  0  0
   -1.6020   -1.1380    0.2170 C   0  0  0  0  0  0  0  0  0  0  0  0
   -2.1110   -2.0140   -0.7180 C   0  0  0  0  0  0  0  0  0  0  0  0
   -3.4540   -2.2080   -0.8990 C   0  0  0  0  0  0  0  0  0  0  0  0
   -4.4130   -1.5120   -0.1280 C   0  0  0  0  0  0  0  0  0  0  0  0
   -5.8190   -1.8220   -0.3170 C   0  0  0  0  0  0  0  0  0  0  0  0
   -6.1570   -2.8890   -0.9460 O   0  0  0  0  0  0  0  0  0  0  0  0
   -6.8640   -1.0400    0.1390 N   0  0  0  0  0  0  0  0  0  0  0  0
   -8.1930   -1.6120    0.4200 C   0  0  0  0  0  0  0  0  0  0  0  0
   -8.6940   -1.2450    1.7710 C   0  0  0  0  0  0  0  0  0  0  0  0
   -8.2730    0.0470    2.3550 C   0  0  0  0  0  0  0  0  0  0  0  0
   -7.4310    0.9070    1.4960 C   0  0  0  0  0  0  0  0  0  0  0  0
   -7.3330    2.2560    1.7480 C   0  0  0  0  0  0  0  0  0  0  0  0
   -6.5600    3.0860    0.9430 C   0  0  0  0  0  0  0  0  0  0  0  0
   -5.8860    2.5310   -0.1210 C   0  0  0  0  0  0  0  0  0  0  0  0
   -5.9870    1.1840   -0.3660 C   0  0  0  0  0  0  0  0  0  0  0  0
   -6.7530    0.3470    0.4270 C   0  0  0  0  0  0  0  0  0  0  0  0
   -3.8970   -0.6460    0.7990 C   0  0  0  0  0  0  0  0  0  0  0  0
   -2.5220   -0.4550    0.9750 C   0  0  0  0  0  0  0  0  0  0  0  0
    0.3770    0.0020   -0.6350 C   0  0  0  0  0  0  0  0  0  0  0  0
   -0.4550    0.7960   -1.3940 C   0  0  0  0  0  0  0  0  0  0  0  0
    0.0810    1.6720   -2.3300 C   0  0  0  0  0  0  0  0  0  0  0  0
    1.4370    1.7960   -2.5530 C   0  0  0  0  0  0  0  0  0  0  0  0
    1.9660    2.6720   -3.4900 O   0  0  0  0  0  0  0  0  0  0  0  0
    1.1180    3.4880   -4.2700 C   0  0  0  0  0  0  0  0  0  0  0  0
    2.2620    0.9840   -1.7760 C   0  0  0  0  0  0  0  0  0  0  0  0
    3.6240    1.0990   -1.9900 O   0  0  0  0  0  0  0  0  0  0  0  0
    4.5830    0.3420   -1.2880 C   0  0  0  0  0  0  0  0  0  0  0  0
    5.9710    0.7100   -1.7600 C   0  0  1  0  0  0  0  0  0  0  0  0
    6.2060    2.0550   -1.5220 O   0  0  0  0  0  0  0  0  0  0  0  0
    7.0200   -0.2020   -1.1520 C   0  0  0  0  0  0  0  0  0  0  0  0
    7.0900   -0.0520    0.2830 N   0  0  0  0  0  0  0  0  0  0  0  0
    7.6180    1.2500    0.6170 C   0  0  0  0  0  0  0  0  0  0  0  0
    7.8780   -1.1280    0.8340 C   0  0  0  0  0  0  0  0  0  0  0  0
    8.0030   -1.0440    2.3040 C   0  0  0  0  0  0  0  0  0  0  0  0
    9.1530   -0.9480    2.9030 N   0  0  0  0  0  0  0  0  0  0  0  0
    6.8370   -1.0700    3.1060 N   0  0  0  0  0  0  0  0  0  0  0  0
    1.7290    0.1160   -0.8460 C   0  0  0  0  0  0  0  0  0  0  0  0
  1  2  1  0
  3  2  1  6
  3  4  1  0
  3 22  1  0
  4  5  2  0
  4 21  1  0
  5  6  1  0
  6  7  2  0
  7  8  1  0
  7 20  1  0
  8  9  2  0
  8 10  1  0
 10 11  1  0
 10 19  1  0
 11 12  1  0
 12 13  1  0
 13 14  1  0
 14 15  2  0
 14 19  1  0
 15 16  1  0
 16 17  2  0
 17 18  1  0
 18 19  2  0
 20 21  2  0
 22 23  2  0
 22 40  1  0
 23 24  1  0
 24 25  2  0
 25 26  1  0
 25 28  1  0
 26 27  1  0
 28 29  1  0
 28 40  2  0
 29 30  1  0
 30 31  1  0
 31 32  1  1
 31 33  1  0
 33 34  1  0
 34 35  1  0
 34 36  1  0
 36 37  1  0
 37 38  2  0
 37 39  1  0
M  CHG  1   2   1
M  END
