
     RDKit          3D

 30 31  0  0  0  0  0  0  0  0999 V2000
    3.4700   -1.7120   -0.9950 C   0  0  0  0  0  0  0  0  0  0  0  0
    3.8990   -0.6950   -0.2930 C   0  0  0  0  0  0  0  0  0  0  0  0
    2.9610    0.1180    0.4560 C   0  0  0  0  0  0  0  0  0  0  0  0
    3.3990    1.1150    1.1410 O   0  0  0  0  0  0  0  0  0  0  0  0
    1.5830   -0.1640    0.4450 N   0  0  0  0  0  0  0  0  0  0  0  0
    0.7160    0.6970    1.2200 C   0  0  0  0  0  0  0  0  0  0  0  0
   -0.6830    0.1940    1.0470 C   0  0  0  0  0  0  0  0  0  0  0  0
   -1.6480    0.4440    0.1230 C   0  0  0  0  0  0  0  0  0  0  0  0
   -2.8340   -0.1490    0.2060 C   0  0  0  0  0  0  0  0  0  0  0  0
   -3.9760    0.0600   -0.7710 C   0  0  0  0  0  0  0  0  0  0  0  0
   -4.7880    1.1490   -0.3290 N   0  0  0  0  0  0  0  0  0  0  0  0
   -6.1850    0.8750   -0.2750 C   0  0  1  0  0  0  0  0  0  0  0  0
   -6.6180    0.3080   -1.5750 C   0  0  0  0  0  0  0  0  0  0  0  0
   -5.8410    0.1180   -2.5450 O   0  0  0  0  0  0  0  0  0  0  0  0
   -7.9550   -0.0540   -1.7880 O   0  0  0  0  0  0  0  0  0  0  0  0
   -6.5900   -0.0530    0.8290 C   0  0  1  0  0  0  0  0  0  0  0  0
   -6.2580    0.4450    2.1950 C   0  0  0  0  0  0  0  0  0  0  0  0
   -8.0880   -0.2570    0.7480 C   0  0  0  0  0  0  0  0  0  0  0  0
   -3.0140   -1.0310    1.2920 C   0  0  0  0  0  0  0  0  0  0  0  0
   -1.4980   -0.9940    2.1610 S   0  0  0  0  0  0  0  0  0  0  0  0
    5.3270   -0.3210   -0.2200 C   0  0  0  0  0  0  0  0  0  0  0  0
    5.5970    0.6780    0.4920 O   0  0  0  0  0  0  0  0  0  0  0  0
    6.3430   -1.0090   -0.8870 N   0  0  0  0  0  0  0  0  0  0  0  0
    7.7160   -0.6700   -0.8380 C   0  0  0  0  0  0  0  0  0  0  0  0
    8.2240    0.4880   -0.3240 C   0  0  0  0  0  0  0  0  0  0  0  0
    9.5940    0.6810   -0.3300 C   0  0  0  0  0  0  0  0  0  0  0  0
   10.4410   -0.2530   -0.8350 C   0  0  0  0  0  0  0  0  0  0  0  0
   11.8080    0.0150   -0.8050 O   0  0  0  0  0  0  0  0  0  0  0  0
    9.9650   -1.3910   -1.3430 N   0  0  0  0  0  0  0  0  0  0  0  0
    8.6450   -1.5860   -1.3410 C   0  0  0  0  0  0  0  0  0  0  0  0
  1  2  2  0
  2  3  1  0
  2 21  1  0
  3  4  2  0
  3  5  1  0
  5  6  1  0
  6  7  1  0
  7  8  2  0
  7 20  1  0
  8  9  1  0
  9 10  1  0
  9 19  2  0
 10 11  1  0
 12 11  1  6
 12 13  1  0
 12 16  1  0
 13 14  2  0
 13 15  1  0
 16 17  1  1
 16 18  1  0
 19 20  1  0
 21 22  2  0
 21 23  1  0
 23 24  1  0
 24 25  2  0
 24 30  1  0
 25 26  1  0
 26 27  2  0
 27 28  1  0
 27 29  1  0
 29 30  2  0
M  CHG  1  11   1
M  END
