
     RDKit          3D

 30 33  0  0  0  0  0  0  0  0999 V2000
    5.4670    0.6190   -0.7880 C   0  0  0  0  0  0  0  0  0  0  0  0
    5.4720    0.3530    0.4890 C   0  0  0  0  0  0  0  0  0  0  0  0
    6.4440    0.8280    1.3310 O   0  0  0  0  0  0  0  0  0  0  0  0
    7.8210    0.5800    1.2040 C   0  0  0  0  0  0  0  0  0  0  0  0
    4.3910   -0.4930    1.0630 C   0  0  2  0  0  0  0  0  0  0  0  0
    4.9890   -1.7490    1.7040 C   0  0  0  0  0  0  0  0  0  0  0  0
    3.5470   -0.9210    0.0610 O   0  0  0  0  0  0  0  0  0  0  0  0
    2.2150   -0.6580   -0.0140 C   0  0  0  0  0  0  0  0  0  0  0  0
    1.5400    0.0780    0.9160 C   0  0  0  0  0  0  0  0  0  0  0  0
    0.1680    0.2960    0.7540 C   0  0  0  0  0  0  0  0  0  0  0  0
   -0.5100   -0.2140   -0.3180 C   0  0  0  0  0  0  0  0  0  0  0  0
    0.1680   -0.9590   -1.2610 C   0  0  0  0  0  0  0  0  0  0  0  0
    1.5200   -1.1860   -1.1210 C   0  0  0  0  0  0  0  0  0  0  0  0
   -0.4770   -1.4550   -2.2970 O   0  0  0  0  0  0  0  0  0  0  0  0
   -1.7810   -1.2700   -2.4870 C   0  0  0  0  0  0  0  0  0  0  0  0
   -2.3560   -1.7660   -3.4980 O   0  0  0  0  0  0  0  0  0  0  0  0
   -2.5230   -0.5480   -1.6050 C   0  0  0  0  0  0  0  0  0  0  0  0
   -1.8580   -0.0150   -0.5020 C   0  0  0  0  0  0  0  0  0  0  0  0
   -2.8020    0.6420    0.1990 N   0  0  0  0  0  0  0  0  0  0  0  0
   -4.0000    0.5470   -0.3990 C   0  0  0  0  0  0  0  0  0  0  0  0
   -3.8480   -0.2100   -1.5580 C   0  0  0  0  0  0  0  0  0  0  0  0
   -4.9650   -0.4320   -2.3320 C   0  0  0  0  0  0  0  0  0  0  0  0
   -4.8560   -1.1110   -3.3800 O   0  0  0  0  0  0  0  0  0  0  0  0
   -6.1460    0.0400   -2.0150 O   0  0  0  0  0  0  0  0  0  0  0  0
   -6.3010    0.7640   -0.9110 C   0  0  0  0  0  0  0  0  0  0  0  0
   -7.7540    1.3710   -0.4790 S   0  0  0  0  0  0  0  0  0  0  0  0
   -5.2400    1.0070   -0.1240 N   0  0  0  0  0  0  0  0  0  0  0  0
   -5.4130    1.7950    1.0750 C   0  0  0  0  0  0  0  0  0  0  0  0
   -5.7490    0.8170    2.1980 C   0  0  0  0  0  0  0  0  0  0  0  0
   -4.7250   -0.0950    2.3650 O   0  0  0  0  0  0  0  0  0  0  0  0
  1  2  2  0
  2  3  1  0
  2  5  1  0
  3  4  1  0
  5  6  1  6
  5  7  1  0
  7  8  1  0
  8  9  2  0
  8 13  1  0
  9 10  1  0
 10 11  2  0
 11 12  1  0
 11 18  1  0
 12 13  2  0
 12 14  1  0
 14 15  1  0
 15 16  2  0
 15 17  1  0
 17 18  2  0
 17 21  1  0
 18 19  1  0
 19 20  1  0
 20 21  2  0
 20 27  1  0
 21 22  1  0
 22 23  2  0
 22 24  1  0
 24 25  1  0
 25 26  2  0
 25 27  1  0
 27 28  1  0
 28 29  1  0
 29 30  1  0
M  END
