
     RDKit          3D

 30 31  0  0  0  0  0  0  0  0999 V2000
    8.7810    0.1230    1.4310 C   0  0  0  0  0  0  0  0  0  0  0  0
    7.6860    0.6740    0.9540 C   0  0  0  0  0  0  0  0  0  0  0  0
    7.6780    2.0730    0.4310 C   0  0  0  0  0  0  0  0  0  0  0  0
    6.7720    2.8750    1.1620 O   0  0  0  0  0  0  0  0  0  0  0  0
    6.4550   -0.1240    0.9460 C   0  0  0  0  0  0  0  0  0  0  0  0
    6.5130   -1.2890    1.3990 O   0  0  0  0  0  0  0  0  0  0  0  0
    5.2520    0.4230    0.4400 N   0  0  0  0  0  0  0  0  0  0  0  0
    4.0610   -0.2700    0.4030 N   0  0  0  0  0  0  0  0  0  0  0  0
    3.8160   -1.4780    0.8000 N   0  0  0  0  0  0  0  0  0  0  0  0
    2.5010   -1.8020    0.5930 C   0  0  0  0  0  0  0  0  0  0  0  0
    1.8780   -3.1060    0.9310 C   0  0  0  0  0  0  0  0  0  0  0  0
    1.9510   -0.6690    0.0260 C   0  0  0  0  0  0  0  0  0  0  0  0
    0.5250   -0.6230   -0.3470 C   0  0  0  0  0  0  0  0  0  0  0  0
   -0.4110   -0.4500    0.7950 C   0  0  0  0  0  0  0  0  0  0  0  0
   -1.7670   -0.4280    0.2610 N   0  0  0  0  0  0  0  0  0  0  0  0
   -2.8610   -0.2650    1.1790 C   0  0  0  0  0  0  0  0  0  0  0  0
   -2.5920   -0.1480    2.4100 O   0  0  0  0  0  0  0  0  0  0  0  0
   -4.2790   -0.2370    0.6780 C   0  0  1  0  0  0  0  0  0  0  0  0
   -4.4390    0.8870   -0.2360 C   0  0  0  0  0  0  0  0  0  0  0  0
   -5.2340    1.8300   -0.0200 O   0  0  0  0  0  0  0  0  0  0  0  0
   -3.6890    0.9300   -1.3940 O   0  0  0  0  0  0  0  0  0  0  0  0
   -3.8000    1.9810   -2.3060 C   0  0  0  0  0  0  0  0  0  0  0  0
   -5.2190    2.0470   -2.8130 C   0  0  0  0  0  0  0  0  0  0  0  0
   -4.5400   -1.5530    0.0200 C   0  0  0  0  0  0  0  0  0  0  0  0
   -5.8470   -1.7350   -0.6330 C   0  0  0  0  0  0  0  0  0  0  0  0
   -6.9430   -0.8050   -0.2890 C   0  0  0  0  0  0  0  0  0  0  0  0
   -6.8600   -0.0850    1.3490 S   0  0  0  0  0  0  0  0  0  0  0  0
   -5.1550   -0.1380    1.9080 C   0  0  0  0  0  0  0  0  0  0  0  0
    2.9120    0.2880   -0.0960 C   0  0  0  0  0  0  0  0  0  0  0  0
    2.7480    1.6300   -0.6450 C   0  0  0  0  0  0  0  0  0  0  0  0
  1  2  2  0
  2  3  1  0
  2  5  1  0
  3  4  1  0
  5  6  2  0
  5  7  1  0
  7  8  1  0
  8  9  1  0
  8 29  2  0
  9 10  1  0
 10 11  1  0
 10 12  2  0
 12 13  1  0
 12 29  1  0
 13 14  1  0
 14 15  1  0
 15 16  1  0
 16 17  2  0
 18 16  1  1
 18 19  1  0
 18 24  1  0
 18 28  1  0
 19 20  2  0
 19 21  1  0
 21 22  1  0
 22 23  1  0
 24 25  1  0
 25 26  1  0
 26 27  1  0
 27 28  1  0
 29 30  1  0
M  CHG  1   8   1
M  END
