
     RDKit          3D

 30 31  0  0  0  0  0  0  0  0999 V2000
   -8.7260   -0.5010   -0.9020 C   0  0  0  0  0  0  0  0  0  0  0  0
   -7.4030   -0.1660   -0.3540 C   0  0  0  0  0  0  0  0  0  0  0  0
   -7.3230    0.4810    0.8570 C   0  0  0  0  0  0  0  0  0  0  0  0
   -6.0640    0.8040    1.3860 C   0  0  0  0  0  0  0  0  0  0  0  0
   -4.8860    0.5050    0.7530 C   0  0  0  0  0  0  0  0  0  0  0  0
   -3.6160    0.8200    1.2680 N   0  0  0  0  0  0  0  0  0  0  0  0
   -3.3140    1.4630    2.4610 C   0  0  0  0  0  0  0  0  0  0  0  0
   -4.2360    1.8430    3.2240 O   0  0  0  0  0  0  0  0  0  0  0  0
   -1.9120    1.7450    2.9180 C   0  0  0  0  0  0  0  0  0  0  0  0
   -0.9250    1.2130    2.1070 O   0  0  0  0  0  0  0  0  0  0  0  0
   -0.8080   -0.1580    1.9460 C   0  0  0  0  0  0  0  0  0  0  0  0
   -1.5700   -0.9880    2.5160 O   0  0  0  0  0  0  0  0  0  0  0  0
    0.2420   -0.6770    1.0760 C   0  0  0  0  0  0  0  0  0  0  0  0
    1.1090    0.1860    0.4250 C   0  0  0  0  0  0  0  0  0  0  0  0
    2.1200   -0.2590   -0.4090 C   0  0  0  0  0  0  0  0  0  0  0  0
    2.2470   -1.6050   -0.5810 C   0  0  0  0  0  0  0  0  0  0  0  0
    3.5210   -2.2930   -1.6370 S   0  0  0  0  0  0  0  0  0  0  0  0
    4.5340   -0.9940   -2.3710 C   0  0  0  0  0  0  0  0  0  0  0  0
    5.3090   -0.3100   -1.2840 C   0  0  0  0  0  0  0  0  0  0  0  0
    5.1650   -0.6910   -0.1260 O   0  0  0  0  0  0  0  0  0  0  0  0
    6.1860    0.7520   -1.5980 N   0  0  0  0  0  0  0  0  0  0  0  0
    7.0070    1.5070   -0.7290 C   0  0  0  0  0  0  0  0  0  0  0  0
    8.1060    0.8520   -0.0030 C   0  0  0  0  0  0  0  0  0  0  0  0
    7.7870   -0.1910    0.9260 N   0  0  0  0  0  0  0  0  0  0  0  0
    1.3830   -2.4320    0.0710 C   0  0  0  0  0  0  0  0  0  0  0  0
    1.5110   -3.6720   -0.0960 O   0  0  0  0  0  0  0  0  0  0  0  0
    0.4030   -1.9970    0.8790 N   0  0  0  0  0  0  0  0  0  0  0  0
   -5.0080   -0.1480   -0.4660 C   0  0  0  0  0  0  0  0  0  0  0  0
   -3.7550   -0.4920   -1.1900 C   0  0  0  0  0  0  0  0  0  0  0  0
   -6.2150   -0.4630   -0.9840 C   0  0  0  0  0  0  0  0  0  0  0  0
  1  2  1  0
  2  3  2  0
  2 30  1  0
  3  4  1  0
  4  5  2  0
  5  6  1  0
  5 28  1  0
  6  7  1  0
  7  8  2  0
  7  9  1  0
  9 10  1  0
 10 11  1  0
 11 12  2  0
 11 13  1  0
 13 14  2  0
 13 27  1  0
 14 15  1  0
 15 16  2  0
 16 17  1  0
 16 25  1  0
 17 18  1  0
 18 19  1  0
 19 20  2  0
 19 21  1  0
 21 22  1  0
 22 23  1  0
 23 24  1  0
 25 26  2  0
 25 27  1  0
 28 29  1  0
 28 30  2  0
M  CHG  1  24   1
M  END
