
     RDKit          3D

 30 33  0  0  0  0  0  0  0  0999 V2000
   -5.2250    2.1850   -1.5890 C   0  0  0  0  0  0  0  0  0  0  0  0
   -5.2570    1.8750   -0.2180 O   0  0  0  0  0  0  0  0  0  0  0  0
   -4.2210    1.2170    0.4190 C   0  0  0  0  0  0  0  0  0  0  0  0
   -3.0740    0.8150   -0.2540 C   0  0  0  0  0  0  0  0  0  0  0  0
   -2.0500    0.1680    0.3480 C   0  0  0  0  0  0  0  0  0  0  0  0
   -0.8380   -0.3610   -0.3280 C   0  0  0  0  0  0  0  0  0  0  0  0
    0.3110   -0.4170    0.2860 O   0  0  0  0  0  0  0  0  0  0  0  0
    1.3070   -0.7460    0.0190 C   0  0  0  0  0  0  0  0  0  0  0  0
    2.5530   -0.8790    0.4810 N   0  0  0  0  0  0  0  0  0  0  0  0
    3.5920   -1.4030   -0.3120 C   0  0  0  0  0  0  0  0  0  0  0  0
    3.5260   -2.6300   -0.8510 C   0  0  0  0  0  0  0  0  0  0  0  0
    4.7390   -2.8820   -1.6090 C   0  0  0  0  0  0  0  0  0  0  0  0
    5.0670   -3.9170   -2.2650 O   0  0  0  0  0  0  0  0  0  0  0  0
    5.5450   -1.7270   -1.4940 N   0  0  0  0  0  0  0  0  0  0  0  0
    4.8330   -0.7750   -0.6740 C   0  0  0  0  0  0  0  0  0  0  0  0
    5.2860    0.4090   -0.3600 C   0  0  0  0  0  0  0  0  0  0  0  0
    4.5650    1.3680    0.4680 C   0  0  0  0  0  0  0  0  0  0  0  0
    5.4040    1.6920    1.7210 C   0  0  0  0  0  0  0  0  0  0  0  0
    5.6420    0.5430    2.4670 O   0  0  0  0  0  0  0  0  0  0  0  0
    1.0040   -1.2990   -1.7610 S   0  0  0  0  0  0  0  0  0  0  0  0
   -0.8350   -0.8160   -1.6050 C   0  0  0  0  0  0  0  0  0  0  0  0
   -1.6930   -1.1510   -2.6690 C   0  0  0  0  0  0  0  0  0  0  0  0
   -3.1510   -1.2440   -2.6450 C   0  0  0  0  0  0  0  0  0  0  0  0
   -1.1600   -1.4240   -3.8100 O   0  0  0  0  0  0  0  0  0  0  0  0
   -2.2170   -0.0740    1.7200 C   0  0  0  0  0  0  0  0  0  0  0  0
   -3.3260    0.3040    2.4190 C   0  0  0  0  0  0  0  0  0  0  0  0
   -4.3460    0.9580    1.7670 C   0  0  0  0  0  0  0  0  0  0  0  0
   -5.3340    1.2170    2.7140 O   0  0  0  0  0  0  0  0  0  0  0  0
   -5.0710    0.4590    3.8630 C   0  0  0  0  0  0  0  0  0  0  0  0
   -3.7090    0.1750    3.7620 O   0  0  0  0  0  0  0  0  0  0  0  0
  1  2  1  0
  2  3  1  0
  3  4  2  0
  3 27  1  0
  4  5  1  0
  5  6  1  0
  5 25  2  0
  6  7  1  0
  6 21  2  0
  7  8  1  0
  8  9  2  3
  8 20  1  0
  9 10  1  0
 10 11  2  0
 10 15  1  0
 11 12  1  0
 12 13  2  0
 12 14  1  0
 14 15  1  0
 15 16  2  3
 16 17  1  0
 17 18  1  0
 18 19  1  0
 20 21  1  0
 21 22  1  0
 22 23  1  0
 22 24  2  0
 25 26  1  0
 26 27  2  0
 26 30  1  0
 27 28  1  0
 28 29  1  0
 29 30  1  0
M  END
