
     RDKit          3D

 30 33  0  0  0  0  0  0  0  0999 V2000
   -1.1640   -2.8920   -0.5890 O   0  0  0  0  0  0  0  0  0  0  0  0
   -1.6660   -1.8240   -0.3090 C   0  0  0  0  0  0  0  0  0  0  0  0
   -0.8440   -0.6130   -0.1140 C   0  0  0  0  0  0  0  0  0  0  0  0
    0.5150   -0.9480   -0.3070 O   0  0  0  0  0  0  0  0  0  0  0  0
    1.5580   -0.0540   -0.2020 C   0  0  0  0  0  0  0  0  0  0  0  0
    1.3120    1.1330    0.0820 O   0  0  0  0  0  0  0  0  0  0  0  0
    2.9540   -0.4540   -0.4120 C   0  0  0  0  0  0  0  0  0  0  0  0
    3.1660   -1.6400   -0.6930 O   0  0  0  0  0  0  0  0  0  0  0  0
    3.9530    0.5390   -0.2810 N   0  0  0  0  0  0  0  0  0  0  0  0
    5.3300    0.2720   -0.4660 C   0  0  0  0  0  0  0  0  0  0  0  0
    5.8470   -0.8560   -1.0170 C   0  0  0  0  0  0  0  0  0  0  0  0
    7.2400   -1.0080   -1.1280 C   0  0  0  0  0  0  0  0  0  0  0  0
    8.1040   -0.0420   -0.6950 C   0  0  0  0  0  0  0  0  0  0  0  0
    9.4420    0.0860   -0.6720 N   0  0  0  0  0  0  0  0  0  0  0  0
    9.7630    1.2700   -0.1190 C   0  0  0  0  0  0  0  0  0  0  0  0
    8.6360    1.8490    0.1880 O   0  0  0  0  0  0  0  0  0  0  0  0
    7.5960    1.1000   -0.1380 C   0  0  0  0  0  0  0  0  0  0  0  0
    6.2440    1.2410   -0.0330 C   0  0  0  0  0  0  0  0  0  0  0  0
   -3.1270   -1.7350   -0.1610 C   0  0  0  0  0  0  0  0  0  0  0  0
   -3.5720   -0.4410    0.1630 O   0  0  0  0  0  0  0  0  0  0  0  0
   -4.9260   -0.2230    0.3250 C   0  0  0  0  0  0  0  0  0  0  0  0
   -5.7860   -1.2580    0.1650 C   0  0  0  0  0  0  0  0  0  0  0  0
   -7.1470   -1.1850    0.2950 C   0  0  0  0  0  0  0  0  0  0  0  0
   -7.6580    0.0590    0.6150 C   0  0  0  0  0  0  0  0  0  0  0  0
   -9.0260    0.2360    0.7690 O   0  0  0  0  0  0  0  0  0  0  0  0
   -6.7760    1.1320    0.7820 C   0  0  0  0  0  0  0  0  0  0  0  0
   -7.0840    2.8210    1.1850 S   0  0  0  0  0  0  0  0  0  0  0  0
   -5.3730    3.3380    1.1580 C   0  0  0  0  0  0  0  0  0  0  0  0
   -4.7090    2.1750    0.8430 C   0  0  0  0  0  0  0  0  0  0  0  0
   -5.4310    1.0600    0.6540 C   0  0  0  0  0  0  0  0  0  0  0  0
  1  2  2  0
  2  3  1  0
  2 19  1  0
  3  4  1  0
  4  5  1  0
  5  6  2  0
  5  7  1  0
  7  8  2  0
  7  9  1  0
  9 10  1  0
 10 11  2  0
 10 18  1  0
 11 12  1  0
 12 13  2  0
 13 14  1  0
 13 17  1  0
 14 15  2  0
 15 16  1  0
 16 17  1  0
 17 18  2  0
 19 20  1  0
 20 21  1  0
 21 22  2  0
 21 30  1  0
 22 23  1  0
 23 24  2  0
 24 25  1  0
 24 26  1  0
 26 27  1  0
 26 30  2  0
 27 28  1  0
 28 29  2  0
 29 30  1  0
M  END
