
     RDKit          3D

 30 31  0  0  0  0  0  0  0  0999 V2000
   10.4990   -0.2540    1.1030 C   0  0  0  0  0  0  0  0  0  0  0  0
    9.1360   -0.7190    0.7350 C   0  0  0  0  0  0  0  0  0  0  0  0
    8.8350   -2.0520    0.9040 C   0  0  0  0  0  0  0  0  0  0  0  0
    7.5810   -2.5170    0.5730 C   0  0  0  0  0  0  0  0  0  0  0  0
    6.6120   -1.6480    0.0680 C   0  0  0  0  0  0  0  0  0  0  0  0
    6.9060   -0.3250   -0.1000 C   0  0  0  0  0  0  0  0  0  0  0  0
    5.9540    0.5810   -0.5790 N   0  0  0  0  0  0  0  0  0  0  0  0
    4.5710    0.3840   -0.4170 C   0  0  0  0  0  0  0  0  0  0  0  0
    3.6810    0.9340   -1.3080 C   0  0  0  0  0  0  0  0  0  0  0  0
    2.3090    0.7900   -1.1650 C   0  0  0  0  0  0  0  0  0  0  0  0
    1.8090    0.0850   -0.1130 C   0  0  0  0  0  0  0  0  0  0  0  0
    0.4300   -0.0920    0.1290 N   0  0  0  0  0  0  0  0  0  0  0  0
   -0.5490    0.7390   -0.4140 C   0  0  0  0  0  0  0  0  0  0  0  0
   -0.3070    1.7140   -1.1520 O   0  0  0  0  0  0  0  0  0  0  0  0
   -1.9580    0.4560   -0.1020 C   0  0  0  0  0  0  0  0  0  0  0  0
   -2.2210   -0.5180    0.6370 O   0  0  0  0  0  0  0  0  0  0  0  0
   -2.9960    1.2640   -0.6220 N   0  0  0  0  0  0  0  0  0  0  0  0
   -4.3650    0.9700   -0.3050 C   0  0  0  0  0  0  0  0  0  0  0  0
   -5.2690    1.9600   -0.9690 C   0  0  2  0  0  0  0  0  0  0  0  0
   -4.9150    3.2310   -0.4840 O   0  0  0  0  0  0  0  0  0  0  0  0
   -6.7180    1.7510   -0.6510 C   0  0  0  0  0  0  0  0  0  0  0  0
   -7.2220    0.4840   -1.0920 N   0  0  0  0  0  0  0  0  0  0  0  0
   -7.1170   -0.5360   -0.0950 C   0  0  0  0  0  0  0  0  0  0  0  0
   -8.4810   -0.9480    0.4640 C   0  0  0  0  0  0  0  0  0  0  0  0
   -8.1480   -2.2180    1.6820 S   0  0  2  0  0  0  0  0  0  0  0  0
   -7.1980   -1.6310    2.6800 O   0  0  0  0  0  0  0  0  0  0  0  0
   -7.4060   -3.3150    0.9410 O   0  0  0  0  0  0  0  0  0  0  0  0
    2.6920   -0.4890    0.8140 C   0  0  0  0  0  0  0  0  0  0  0  0
    4.0360   -0.3210    0.6320 C   0  0  0  0  0  0  0  0  0  0  0  0
    8.1630    0.1230    0.2350 C   0  0  0  0  0  0  0  0  0  0  0  0
  1  2  1  0
  2  3  2  0
  2 30  1  0
  3  4  1  0
  4  5  2  0
  5  6  1  0
  6  7  1  0
  6 30  2  0
  7  8  1  0
  8  9  2  0
  8 29  1  0
  9 10  1  0
 10 11  2  0
 11 12  1  0
 11 28  1  0
 12 13  1  0
 13 14  2  0
 13 15  1  0
 15 16  2  0
 15 17  1  0
 17 18  1  0
 18 19  1  0
 19 20  1  1
 19 21  1  0
 21 22  1  0
 22 23  1  0
 23 24  1  0
 25 24  1  6
 25 26  2  0
 25 27  2  0
 28 29  2  0
M  CHG  1  22   1
M  END
