
     RDKit          3D

 30 31  0  0  0  0  0  0  0  0999 V2000
   -8.7790   -1.4380   -0.9150 C   0  0  0  0  0  0  0  0  0  0  0  0
   -7.3510   -1.1590   -0.5600 C   0  0  0  0  0  0  0  0  0  0  0  0
   -6.3830   -2.1190   -0.7910 C   0  0  0  0  0  0  0  0  0  0  0  0
   -5.0610   -1.9250   -0.4920 C   0  0  0  0  0  0  0  0  0  0  0  0
   -4.7070   -0.6960    0.0670 C   0  0  0  0  0  0  0  0  0  0  0  0
   -3.2880   -0.4880    0.3680 C   0  0  0  0  0  0  0  0  0  0  0  0
   -2.6860   -1.4610    0.8750 O   0  0  0  0  0  0  0  0  0  0  0  0
   -2.6410    0.7460    0.0920 N   0  0  0  0  0  0  0  0  0  0  0  0
   -1.2630    0.8560    0.3940 N   0  0  0  0  0  0  0  0  0  0  0  0
   -0.3210   -0.0800   -0.0430 C   0  0  0  0  0  0  0  0  0  0  0  0
   -0.6980   -1.0750   -0.7150 O   0  0  0  0  0  0  0  0  0  0  0  0
    1.0930   -0.0200    0.2040 N   0  0  0  0  0  0  0  0  0  0  0  0
    1.9650   -1.0450   -0.2830 C   0  0  0  0  0  0  0  0  0  0  0  0
    3.3920   -0.8500   -0.0890 C   0  0  0  0  0  0  0  0  0  0  0  0
    3.9770    0.2620    0.4630 C   0  0  0  0  0  0  0  0  0  0  0  0
    5.3710    0.4250    0.5910 C   0  0  0  0  0  0  0  0  0  0  0  0
    5.8190    1.5930    1.1680 O   0  0  0  0  0  0  0  0  0  0  0  0
    7.1620    1.9390    1.3190 C   0  0  0  0  0  0  0  0  0  0  0  0
    7.8170    2.1640   -0.0050 C   0  0  0  0  0  0  0  0  0  0  0  0
    9.5480    2.5420    0.1090 S   0  0  1  0  0  0  0  0  0  0  0  0
   10.1660    2.1180   -1.2190 O   0  0  0  0  0  0  0  0  0  0  0  0
    9.7680    3.9990    0.3240 O   0  0  0  0  0  0  0  0  0  0  0  0
    6.1590   -0.6010    0.1320 C   0  0  0  0  0  0  0  0  0  0  0  0
    5.5920   -1.7410   -0.4320 C   0  0  0  0  0  0  0  0  0  0  0  0
    4.2280   -1.8630   -0.5400 C   0  0  0  0  0  0  0  0  0  0  0  0
    3.6280   -3.0790   -1.1300 C   0  0  0  0  0  0  0  0  0  0  0  0
   -5.6210    0.2850    0.3170 C   0  0  0  0  0  0  0  0  0  0  0  0
   -6.9540    0.0500   -0.0000 C   0  0  0  0  0  0  0  0  0  0  0  0
   -7.9750    1.0970    0.2490 C   0  0  0  0  0  0  0  0  0  0  0  0
   -7.3740    2.2820    0.8580 N   0  0  0  0  0  0  0  0  0  0  0  0
  1  2  1  0
  2  3  2  0
  2 28  1  0
  3  4  1  0
  4  5  2  0
  5  6  1  0
  5 27  1  0
  6  7  2  0
  6  8  1  0
  8  9  1  0
  9 10  1  0
 10 11  2  0
 10 12  1  0
 12 13  1  0
 13 14  1  0
 14 15  2  0
 14 25  1  0
 15 16  1  0
 16 17  1  0
 16 23  2  0
 17 18  1  0
 18 19  1  0
 20 19  1  6
 20 21  2  0
 20 22  2  0
 23 24  1  0
 24 25  2  0
 25 26  1  0
 27 28  2  0
 28 29  1  0
 29 30  1  0
M  CHG  1  30   1
M  END
