
     RDKit          3D

 30 33  0  0  0  0  0  0  0  0999 V2000
   -2.5710   -3.4250    1.6590 C   0  0  0  0  0  0  0  0  0  0  0  0
   -3.5120   -2.3580    1.0940 C   0  0  0  0  0  0  0  0  0  0  0  0
   -2.7500   -1.2930    0.5750 O   0  0  0  0  0  0  0  0  0  0  0  0
   -3.3480   -0.1980    0.0040 C   0  0  0  0  0  0  0  0  0  0  0  0
   -4.7350   -0.0600   -0.1020 C   0  0  0  0  0  0  0  0  0  0  0  0
   -5.2690    1.0710   -0.6890 C   0  0  0  0  0  0  0  0  0  0  0  0
   -4.4670    2.0730   -1.1750 C   0  0  0  0  0  0  0  0  0  0  0  0
   -3.0780    1.9470   -1.0750 C   0  0  0  0  0  0  0  0  0  0  0  0
   -2.5630    0.8150   -0.4880 C   0  0  0  0  0  0  0  0  0  0  0  0
   -0.8120    0.6290   -0.3470 S   0  0  2  0  0  0  0  0  0  0  0  0
   -0.1340    1.8700   -0.8960 O   0  0  0  0  0  0  0  0  0  0  0  0
   -0.4450   -0.5940   -1.1360 O   0  0  0  0  0  0  0  0  0  0  0  0
   -0.3670    0.4810    1.3550 C   0  0  0  0  0  0  0  0  0  0  0  0
    1.0960    0.3180    1.5500 C   0  0  0  0  0  0  0  0  0  0  0  0
    1.5360    0.2150    2.7460 O   0  0  0  0  0  0  0  0  0  0  0  0
    1.9790    0.2760    0.4660 N   0  0  0  0  0  0  0  0  0  0  0  0
    3.3710    0.1330    0.5090 C   0  0  0  0  0  0  0  0  0  0  0  0
    4.1140    0.2680    1.6540 C   0  0  0  0  0  0  0  0  0  0  0  0
    5.4990    0.0860    1.5810 C   0  0  0  0  0  0  0  0  0  0  0  0
    6.1680   -0.2210    0.4280 C   0  0  0  0  0  0  0  0  0  0  0  0
    5.4110   -0.3540   -0.7230 C   0  0  0  0  0  0  0  0  0  0  0  0
    4.0550   -0.1810   -0.6800 C   0  0  0  0  0  0  0  0  0  0  0  0
    6.0380   -0.6840   -2.0260 C   0  0  0  0  0  0  0  0  0  0  0  0
    7.4070   -0.8450   -1.9980 O   0  0  0  0  0  0  0  0  0  0  0  0
    8.1760   -0.7180   -0.8730 C   0  0  0  0  0  0  0  0  0  0  0  0
    9.4340   -0.8700   -0.8740 O   0  0  0  0  0  0  0  0  0  0  0  0
    7.5750   -0.4030    0.3670 N   0  0  0  0  0  0  0  0  0  0  0  0
   -5.2470    3.0730   -1.7020 O   0  0  0  0  0  0  0  0  0  0  0  0
   -6.6080    2.8730   -1.3170 C   0  0  0  0  0  0  0  0  0  0  0  0
   -6.6950    1.4240   -0.9060 C   0  0  0  0  0  0  0  0  0  0  0  0
  1  2  1  0
  2  3  1  0
  3  4  1  0
  4  5  2  0
  4  9  1  0
  5  6  1  0
  6  7  2  0
  6 30  1  0
  7  8  1  0
  7 28  1  0
  8  9  2  0
  9 10  1  0
 10 11  2  0
 10 12  2  0
 10 13  1  1
 13 14  1  0
 14 15  2  0
 14 16  1  0
 16 17  1  0
 17 18  2  0
 17 22  1  0
 18 19  1  0
 19 20  2  0
 20 21  1  0
 20 27  1  0
 21 22  2  0
 21 23  1  0
 23 24  1  0
 24 25  1  0
 25 26  2  0
 25 27  1  0
 28 29  1  0
 29 30  1  0
M  END
