
     RDKit          3D

 31 36  0  0  0  0  0  0  0  0999 V2000
   -5.4160   -1.8890   -0.7020 C   0  0  0  0  0  0  0  0  0  0  0  0
   -5.9950   -0.6630   -0.0980 C   0  0  0  0  0  0  0  0  0  0  0  0
   -7.3610   -0.6120    0.0800 C   0  0  0  0  0  0  0  0  0  0  0  0
   -7.9160    0.5130    0.6310 C   0  0  0  0  0  0  0  0  0  0  0  0
   -7.1670    1.6070    1.0200 C   0  0  0  0  0  0  0  0  0  0  0  0
   -5.7810    1.5310    0.8290 C   0  0  0  0  0  0  0  0  0  0  0  0
   -5.2180    0.4070    0.2770 C   0  0  0  0  0  0  0  0  0  0  0  0
   -3.7840    0.3510    0.1030 C   0  0  0  0  0  0  0  0  0  0  0  0
   -3.0430   -0.6560    0.6540 N   0  0  0  0  0  0  0  0  0  0  0  0
   -1.7170   -0.7530    0.5080 C   0  0  0  0  0  0  0  0  0  0  0  0
   -0.7790   -1.6400    0.9480 N   0  0  0  0  0  0  0  0  0  0  0  0
    0.4230   -1.2360    0.4900 C   0  0  0  0  0  0  0  0  0  0  0  0
    1.7530   -1.9010    0.7230 C   0  0  0  0  0  0  0  0  0  0  0  0
    2.7320   -1.1760   -0.0300 N   0  0  0  0  0  0  0  0  0  0  0  0
    2.8630    0.1920    0.3310 C   0  0  0  0  0  0  0  0  0  0  0  0
    4.3170    0.5030    0.2000 C   0  0  0  0  0  0  0  0  0  0  0  0
    5.2180    1.4450    0.2170 O   0  0  0  0  0  0  0  0  0  0  0  0
    6.4200    0.9920    0.0140 C   0  0  0  0  0  0  0  0  0  0  0  0
    7.6670    1.5820   -0.0580 C   0  0  0  0  0  0  0  0  0  0  0  0
    7.7280    2.9130    0.1110 F   0  0  0  0  0  0  0  0  0  0  0  0
    8.7960    0.8420   -0.2900 C   0  0  0  0  0  0  0  0  0  0  0  0
    8.7170   -0.5350   -0.4630 C   0  0  0  0  0  0  0  0  0  0  0  0
    7.4830   -1.1370   -0.3940 C   0  0  0  0  0  0  0  0  0  0  0  0
    6.3540   -0.3860   -0.1600 C   0  0  0  0  0  0  0  0  0  0  0  0
    4.9910   -0.6750   -0.0360 C   0  0  0  0  0  0  0  0  0  0  0  0
    4.0220   -1.7780   -0.0660 C   0  0  0  0  0  0  0  0  0  0  0  0
    0.1810   -0.1200   -0.2130 N   0  0  0  0  0  0  0  0  0  0  0  0
   -1.1080    0.1960   -0.2190 N   0  0  0  0  0  0  0  0  0  0  0  0
   -1.7850    1.2180   -0.7890 C   0  0  0  0  0  0  0  0  0  0  0  0
   -3.1490    1.3220   -0.6420 C   0  0  0  0  0  0  0  0  0  0  0  0
   -3.9070    2.4480   -1.2750 C   0  0  0  0  0  0  0  0  0  0  0  0
  1  2  1  0
  2  3  2  0
  2  7  1  0
  3  4  1  0
  4  5  2  0
  5  6  1  0
  6  7  2  0
  7  8  1  0
  8  9  2  0
  8 30  1  0
  9 10  1  0
 10 11  2  0
 10 28  1  0
 11 12  1  0
 12 13  1  0
 12 27  2  0
 13 14  1  0
 14 15  1  0
 14 26  1  0
 15 16  1  0
 16 17  1  0
 16 25  2  0
 17 18  1  0
 18 19  2  0
 18 24  1  0
 19 20  1  0
 19 21  1  0
 21 22  2  0
 22 23  1  0
 23 24  2  0
 24 25  1  0
 25 26  1  0
 27 28  1  0
 28 29  1  0
 29 30  2  0
 30 31  1  0
M  END
