
     RDKit          3D

 31 35  0  0  0  0  0  0  0  0999 V2000
    7.3750    1.3710    0.4010 C   0  0  0  0  0  0  0  0  0  0  0  0
    7.4080   -0.0150   -0.2170 C   0  0  0  0  0  0  0  0  0  0  0  0
    6.5750   -0.0150   -1.3390 O   0  0  0  0  0  0  0  0  0  0  0  0
    5.2230    0.2760   -1.2140 C   0  0  0  0  0  0  0  0  0  0  0  0
    4.8080    0.5340   -0.0590 O   0  0  0  0  0  0  0  0  0  0  0  0
    4.3190    0.2830   -2.3810 C   0  0  0  0  0  0  0  0  0  0  0  0
    2.9870    0.6000   -1.9210 N   0  0  0  0  0  0  0  0  0  0  0  0
    2.2960   -0.2740   -1.0210 C   0  0  0  0  0  0  0  0  0  0  0  0
    2.8000   -1.4840   -0.6230 C   0  0  0  0  0  0  0  0  0  0  0  0
    2.1000   -2.3020    0.2580 C   0  0  0  0  0  0  0  0  0  0  0  0
    0.8790   -1.8680    0.7280 C   0  0  0  0  0  0  0  0  0  0  0  0
   -0.0220   -2.4480    1.5910 C   0  0  0  0  0  0  0  0  0  0  0  0
   -1.0730   -1.5750    1.7080 C   0  0  0  0  0  0  0  0  0  0  0  0
   -2.2770   -1.7870    2.5460 C   0  0  0  0  0  0  0  0  0  0  0  0
   -0.8530   -0.4670    0.9420 N   0  0  0  0  0  0  0  0  0  0  0  0
   -1.6350    0.7040    0.8590 C   0  0  0  0  0  0  0  0  0  0  0  0
   -1.1040    1.8260    1.5670 C   0  0  0  0  0  0  0  0  0  0  0  0
   -1.7710    2.9920    1.6980 C   0  0  0  0  0  0  0  0  0  0  0  0
   -3.0160    3.0920    1.1190 C   0  0  0  0  0  0  0  0  0  0  0  0
   -3.5840    2.0530    0.4220 C   0  0  0  0  0  0  0  0  0  0  0  0
   -2.8700    0.8590    0.3010 C   0  0  0  0  0  0  0  0  0  0  0  0
   -3.5320   -0.2660   -0.3700 C   0  0  0  0  0  0  0  0  0  0  0  0
   -2.8310   -1.2960   -0.7470 C   0  0  0  0  0  0  0  0  0  0  0  0
   -3.5130   -2.4600   -1.4180 C   0  0  0  0  0  0  0  0  0  0  0  0
   -4.6880   -2.0420   -2.0570 O   0  0  0  0  0  0  0  0  0  0  0  0
   -5.4360   -0.9690   -1.6620 C   0  0  0  0  0  0  0  0  0  0  0  0
   -4.9010   -0.0790   -0.8360 C   0  0  0  0  0  0  0  0  0  0  0  0
   -5.7020    1.0650   -0.3650 C   0  0  0  0  0  0  0  0  0  0  0  0
   -4.9140    2.3020   -0.1650 C   0  0  0  0  0  0  0  0  0  0  0  0
    0.3480   -0.6560    0.3440 C   0  0  0  0  0  0  0  0  0  0  0  0
    1.0600    0.1240   -0.5220 C   0  0  0  0  0  0  0  0  0  0  0  0
  1  2  1  0
  2  3  1  0
  3  4  1  0
  4  5  2  0
  4  6  1  0
  6  7  1  0
  7  8  1  0
  8  9  2  0
  8 31  1  0
  9 10  1  0
 10 11  2  0
 11 12  1  0
 11 30  1  0
 12 13  2  0
 13 14  1  0
 13 15  1  0
 15 16  1  0
 15 30  1  0
 16 17  2  0
 16 21  1  0
 17 18  1  0
 18 19  2  0
 19 20  1  0
 20 21  2  0
 20 29  1  0
 21 22  1  0
 22 23  2  0
 22 27  1  0
 23 24  1  0
 24 25  1  0
 25 26  1  0
 26 27  2  0
 27 28  1  0
 28 29  1  0
 30 31  2  0
M  END
