
     RDKit          3D

 31 34  0  0  0  0  0  0  0  0999 V2000
    2.2730    1.6480   -0.5310 O   0  0  0  0  0  0  0  0  0  0  0  0
    2.4590    0.3500   -0.4620 C   0  0  0  0  0  0  0  0  0  0  0  0
    1.2100   -0.3740   -0.5290 C   0  0  0  0  0  0  0  0  0  0  0  0
    0.9360   -1.6320   -0.5900 C   0  0  0  0  0  0  0  0  0  0  0  0
    1.8040   -2.7340   -0.6260 O   0  0  0  0  0  0  0  0  0  0  0  0
   -0.5090   -1.8400   -0.6140 C   0  0  0  0  0  0  0  0  0  0  0  0
   -1.0770   -2.9820   -0.6770 O   0  0  0  0  0  0  0  0  0  0  0  0
   -1.1130   -0.5820   -0.5550 N   0  0  0  0  0  0  0  0  0  0  0  0
   -2.5410   -0.4170   -0.4610 C   0  0  0  0  0  0  0  0  0  0  0  0
   -3.1510    0.4780   -1.3210 C   0  0  0  0  0  0  0  0  0  0  0  0
   -4.5190    0.6930   -1.2660 C   0  0  0  0  0  0  0  0  0  0  0  0
   -5.2760   -0.0040   -0.3330 C   0  0  0  0  0  0  0  0  0  0  0  0
   -7.0060    0.3330   -0.3300 Cl  0  0  0  0  0  0  0  0  0  0  0  0
   -4.6890   -0.8990    0.5320 C   0  0  0  0  0  0  0  0  0  0  0  0
   -5.5390   -1.5870    1.4840 C   0  0  0  0  0  0  0  0  0  0  0  0
   -5.8550   -0.9760    2.5400 O   0  0  0  0  0  0  0  0  0  0  0  0
   -6.0290   -2.8720    1.3120 O   0  0  0  0  0  0  0  0  0  0  0  0
   -3.3310   -1.0780    0.4400 C   0  0  0  0  0  0  0  0  0  0  0  0
   -0.1140    0.3880   -0.5940 C   0  0  1  0  0  0  0  0  0  0  0  0
   -0.1620    1.3980    0.4650 C   0  0  0  0  0  0  0  0  0  0  0  0
   -0.6320    2.6560    0.5220 C   0  0  0  0  0  0  0  0  0  0  0  0
   -0.5440    3.3910    1.6170 C   0  0  0  0  0  0  0  0  0  0  0  0
   -1.2350    5.2360    1.7260 Br  0  0  0  0  0  0  0  0  0  0  0  0
    0.0650    2.8280    2.7580 C   0  0  0  0  0  0  0  0  0  0  0  0
    0.5140    1.1500    2.1660 S   0  0  0  0  0  0  0  0  0  0  0  0
    3.8160   -0.0590   -0.3400 C   0  0  0  0  0  0  0  0  0  0  0  0
    4.8250    0.8660   -0.7140 C   0  0  0  0  0  0  0  0  0  0  0  0
    6.1300    0.5870   -0.5380 C   0  0  0  0  0  0  0  0  0  0  0  0
    6.5500   -0.5990    0.0080 C   0  0  0  0  0  0  0  0  0  0  0  0
    5.6090   -1.5010    0.3760 C   0  0  0  0  0  0  0  0  0  0  0  0
    4.2590   -1.2370    0.2070 C   0  0  0  0  0  0  0  0  0  0  0  0
  1  2  2  0
  2  3  1  0
  2 26  1  0
  3  4  2  0
  3 19  1  0
  4  5  1  0
  4  6  1  0
  6  7  2  0
  6  8  1  0
  8  9  1  0
  8 19  1  0
  9 10  2  0
  9 18  1  0
 10 11  1  0
 11 12  2  0
 12 13  1  0
 12 14  1  0
 14 15  1  0
 14 18  2  0
 15 16  2  0
 15 17  1  0
 19 20  1  1
 20 21  2  0
 20 25  1  0
 21 22  1  0
 22 23  1  0
 22 24  2  0
 24 25  1  0
 26 27  2  0
 26 31  1  0
 27 28  1  0
 28 29  2  0
 29 30  1  0
 30 31  2  0
M  END
