
     RDKit          3D

 31 35  0  0  0  0  0  0  0  0999 V2000
   -4.2220    4.1060   -0.2120 C   0  0  0  0  0  0  0  0  0  0  0  0
   -4.6670    2.8520    0.2170 O   0  0  0  0  0  0  0  0  0  0  0  0
   -3.8280    1.9220   -0.4400 C   0  0  0  0  0  0  0  0  0  0  0  0
   -4.2010    0.5290   -0.0650 C   0  0  0  0  0  0  0  0  0  0  0  0
   -5.1800    0.2730    0.7880 O   0  0  0  0  0  0  0  0  0  0  0  0
   -5.3420   -1.0030    0.9780 C   0  0  0  0  0  0  0  0  0  0  0  0
   -6.2310   -1.7120    1.7720 C   0  0  0  0  0  0  0  0  0  0  0  0
   -6.1600   -3.0870    1.7650 C   0  0  0  0  0  0  0  0  0  0  0  0
   -5.2280   -3.7570    0.9900 C   0  0  0  0  0  0  0  0  0  0  0  0
   -4.3600   -3.0080    0.2130 C   0  0  0  0  0  0  0  0  0  0  0  0
   -4.4010   -1.6300    0.1930 C   0  0  0  0  0  0  0  0  0  0  0  0
   -3.6590   -0.6430   -0.4850 C   0  0  0  0  0  0  0  0  0  0  0  0
   -2.5860   -0.9240   -1.4100 C   0  0  0  0  0  0  0  0  0  0  0  0
   -1.2420   -0.7350   -0.9590 N   0  0  0  0  0  0  0  0  0  0  0  0
   -0.5960   -1.6560   -0.2090 C   0  0  0  0  0  0  0  0  0  0  0  0
    0.6740   -1.4460    0.2480 C   0  0  0  0  0  0  0  0  0  0  0  0
    1.3830   -0.2780   -0.0270 C   0  0  0  0  0  0  0  0  0  0  0  0
    0.7190    0.6480   -0.7880 C   0  0  0  0  0  0  0  0  0  0  0  0
   -0.5830    0.3900   -1.2360 C   0  0  0  0  0  0  0  0  0  0  0  0
   -1.1150    1.3030   -1.9400 O   0  0  0  0  0  0  0  0  0  0  0  0
    1.4450    1.9050   -1.0910 C   0  0  0  0  0  0  0  0  0  0  0  0
    2.1480    2.4100    0.1450 C   0  0  0  0  0  0  0  0  0  0  0  0
    3.0610    1.3990    0.7640 C   0  0  0  0  0  0  0  0  0  0  0  0
    2.7600   -0.0330    0.4520 C   0  0  2  0  0  0  0  0  0  0  0  0
    3.7410   -0.5720   -0.5000 N   0  0  0  0  0  0  0  0  0  0  0  0
    5.1190   -0.5690   -0.1790 C   0  0  0  0  0  0  0  0  0  0  0  0
    6.0750   -0.8880   -1.1500 C   0  0  0  0  0  0  0  0  0  0  0  0
    7.4190   -0.9040   -0.8550 C   0  0  0  0  0  0  0  0  0  0  0  0
    7.8630   -0.6050    0.4090 C   0  0  0  0  0  0  0  0  0  0  0  0
    6.9460   -0.2890    1.3790 C   0  0  0  0  0  0  0  0  0  0  0  0
    5.6080   -0.2770    1.0730 C   0  0  0  0  0  0  0  0  0  0  0  0
  1  2  1  0
  2  3  1  0
  3  4  1  0
  4  5  1  0
  4 12  2  0
  5  6  1  0
  6  7  2  0
  6 11  1  0
  7  8  1  0
  8  9  2  0
  9 10  1  0
 10 11  2  0
 11 12  1  0
 12 13  1  0
 13 14  1  0
 14 15  1  0
 14 19  1  0
 15 16  2  0
 16 17  1  0
 17 18  2  0
 17 24  1  0
 18 19  1  0
 18 21  1  0
 19 20  2  0
 21 22  1  0
 22 23  1  0
 23 24  1  0
 24 25  1  6
 25 26  1  0
 26 27  2  0
 26 31  1  0
 27 28  1  0
 28 29  2  0
 29 30  1  0
 30 31  2  0
M  END
