
     RDKit          3D

 31 35  0  0  0  0  0  0  0  0999 V2000
    6.2490    3.3070    0.9010 C   0  0  0  0  0  0  0  0  0  0  0  0
    6.1210    1.8270    0.5100 C   0  0  0  0  0  0  0  0  0  0  0  0
    5.7730    1.0050    1.7190 C   0  0  0  0  0  0  0  0  0  0  0  0
    5.6200   -0.3440    1.5250 O   0  0  0  0  0  0  0  0  0  0  0  0
    4.7040   -1.0130    0.7810 C   0  0  0  0  0  0  0  0  0  0  0  0
    4.8100   -2.4190    0.7450 C   0  0  0  0  0  0  0  0  0  0  0  0
    3.9290   -3.1630    0.0230 C   0  0  0  0  0  0  0  0  0  0  0  0
    2.9010   -2.6010   -0.7010 C   0  0  0  0  0  0  0  0  0  0  0  0
    2.7830   -1.2260   -0.6760 C   0  0  0  0  0  0  0  0  0  0  0  0
    3.6820   -0.4820    0.0600 C   0  0  0  0  0  0  0  0  0  0  0  0
    1.7470   -0.6740   -1.4070 O   0  0  0  0  0  0  0  0  0  0  0  0
    0.6320   -1.4810   -1.8030 C   0  0  2  0  0  0  0  0  0  0  0  0
   -0.1090   -1.8320   -0.5410 C   0  0  0  0  0  0  0  0  0  0  0  0
   -0.5940   -0.6890    0.1930 N   0  0  0  0  0  0  0  0  0  0  0  0
   -1.6190    0.1850   -0.2220 C   0  0  0  0  0  0  0  0  0  0  0  0
   -1.3660    1.1330   -1.1200 C   0  0  0  0  0  0  0  0  0  0  0  0
   -2.2290    2.1490   -1.7130 C   0  0  0  0  0  0  0  0  0  0  0  0
   -1.6440    2.9490   -2.8490 C   0  0  0  0  0  0  0  0  0  0  0  0
   -3.4700    2.4490   -1.3660 C   0  0  0  0  0  0  0  0  0  0  0  0
   -4.3120    1.8820   -0.3350 N   0  0  0  0  0  0  0  0  0  0  0  0
   -5.5250    2.4370    0.1590 C   0  0  0  0  0  0  0  0  0  0  0  0
   -6.2580    1.2710    0.7700 C   0  0  0  0  0  0  0  0  0  0  0  0
   -5.1950    0.2730    1.0500 C   0  0  0  0  0  0  0  0  0  0  0  0
   -5.1530   -0.8760    1.8040 C   0  0  0  0  0  0  0  0  0  0  0  0
   -4.0270   -1.6630    1.9140 C   0  0  0  0  0  0  0  0  0  0  0  0
   -3.9950   -2.9110    2.7370 C   0  0  0  0  0  0  0  0  0  0  0  0
   -2.9020   -1.2380    1.2140 C   0  0  0  0  0  0  0  0  0  0  0  0
   -2.9060   -0.0930    0.4490 C   0  0  0  0  0  0  0  0  0  0  0  0
   -4.0670    0.6720    0.3680 C   0  0  0  0  0  0  0  0  0  0  0  0
    1.1420   -2.8110   -2.3770 C   0  0  0  0  0  0  0  0  0  0  0  0
    2.0100   -3.3750   -1.4330 O   0  0  0  0  0  0  0  0  0  0  0  0
  1  2  1  0
  2  3  1  0
  3  4  1  0
  4  5  1  0
  5  6  2  0
  5 10  1  0
  6  7  1  0
  7  8  2  0
  8  9  1  0
  8 31  1  0
  9 10  2  0
  9 11  1  0
 11 12  1  0
 12 13  1  1
 12 30  1  0
 13 14  1  0
 14 15  1  0
 15 16  2  0
 15 28  1  0
 16 17  1  0
 17 18  1  0
 17 19  2  0
 19 20  1  0
 20 21  1  0
 20 29  1  0
 21 22  1  0
 22 23  1  0
 23 24  1  0
 23 29  2  0
 24 25  2  0
 25 26  1  0
 25 27  1  0
 27 28  2  0
 28 29  1  0
 30 31  1  0
M  END
