
     RDKit          3D

 31 35  0  0  0  0  0  0  0  0999 V2000
    7.3890   -0.2800    1.3220 C   0  0  0  0  0  0  0  0  0  0  0  0
    6.4170   -0.8300    0.4190 N   0  0  0  0  0  0  0  0  0  0  0  0
    5.1810   -0.7730    0.6750 C   0  0  0  0  0  0  0  0  0  0  0  0
    4.1320   -1.3260   -0.2240 C   0  0  2  0  0  0  0  0  0  0  0  0
    4.0520   -0.6280   -1.5350 C   0  0  0  0  0  0  0  0  0  0  0  0
    4.1990    0.8560   -1.4940 C   0  0  0  0  0  0  0  0  0  0  0  0
    3.3390    1.5260   -0.4750 C   0  0  0  0  0  0  0  0  0  0  0  0
    1.9630    0.8480   -0.5310 C   0  0  0  0  0  0  0  0  0  0  0  0
    2.0120   -0.2570    0.4180 N   0  0  0  0  0  0  0  0  0  0  0  0
    1.0830   -0.1220    1.4810 C   0  0  0  0  0  0  0  0  0  0  0  0
    1.3510   -0.0410    2.8040 N   0  0  0  0  0  0  0  0  0  0  0  0
    0.2360    0.0790    3.4860 O   0  0  0  0  0  0  0  0  0  0  0  0
   -0.7840    0.0820    2.6720 C   0  0  0  0  0  0  0  0  0  0  0  0
   -2.0970    0.1890    3.0180 N   0  0  0  0  0  0  0  0  0  0  0  0
   -3.1480   -0.3490    2.3230 C   0  0  0  0  0  0  0  0  0  0  0  0
   -4.1320   -0.8340    3.1500 C   0  0  0  0  0  0  0  0  0  0  0  0
   -5.2300   -1.4250    2.5700 C   0  0  0  0  0  0  0  0  0  0  0  0
   -5.3170   -1.5180    1.1880 C   0  0  0  0  0  0  0  0  0  0  0  0
   -4.3330   -1.0340    0.3550 C   0  0  0  0  0  0  0  0  0  0  0  0
   -3.2370   -0.4410    0.9250 C   0  0  0  0  0  0  0  0  0  0  0  0
   -2.3450    0.0140   -0.0260 C   0  0  0  0  0  0  0  0  0  0  0  0
   -2.7440    0.5670   -1.0410 N   0  0  0  0  0  0  0  0  0  0  0  0
   -3.9470    0.9210   -1.5910 C   0  0  0  0  0  0  0  0  0  0  0  0
   -4.4220    0.7040   -2.8330 C   0  0  0  0  0  0  0  0  0  0  0  0
   -5.7650    1.2710   -2.9630 C   0  0  0  0  0  0  0  0  0  0  0  0
   -6.0430    1.8670   -1.6460 C   0  0  0  0  0  0  0  0  0  0  0  0
   -5.0100    1.6660   -0.8680 C   0  0  0  0  0  0  0  0  0  0  0  0
   -4.9310    2.0870    0.4100 F   0  0  0  0  0  0  0  0  0  0  0  0
   -0.9340   -0.0940    0.1760 C   0  0  0  0  0  0  0  0  0  0  0  0
   -0.2880   -0.0440    1.3950 C   0  0  0  0  0  0  0  0  0  0  0  0
    2.8090   -1.4380    0.4860 C   0  0  0  0  0  0  0  0  0  0  0  0
  1  2  1  0
  2  3  2  3
  4  3  1  1
  4  5  1  0
  4 31  1  0
  5  6  1  0
  6  7  1  0
  7  8  1  0
  8  9  1  0
  9 10  1  0
  9 31  1  0
 10 11  2  0
 10 30  1  0
 11 12  1  0
 12 13  1  0
 13 14  2  0
 13 30  1  0
 14 15  1  0
 15 16  2  0
 15 20  1  0
 16 17  1  0
 17 18  2  0
 18 19  1  0
 19 20  2  0
 20 21  1  0
 21 22  2  3
 21 29  1  0
 22 23  1  0
 23 24  2  0
 23 27  1  0
 24 25  1  0
 25 26  1  0
 26 27  2  0
 27 28  1  0
 29 30  2  0
M  END
