
     RDKit          3D

 30 33  0  0  0  0  0  0  0  0999 V2000
    5.7570   -3.3800    1.3560 C   0  0  0  0  0  0  0  0  0  0  0  0
    5.0540   -2.1620    1.2360 O   0  0  0  0  0  0  0  0  0  0  0  0
    5.4340   -1.1510    0.3780 C   0  0  0  0  0  0  0  0  0  0  0  0
    6.5580   -1.3690   -0.3840 C   0  0  0  0  0  0  0  0  0  0  0  0
    6.9950   -0.4090   -1.2580 C   0  0  0  0  0  0  0  0  0  0  0  0
    6.2810    0.7650   -1.3450 C   0  0  0  0  0  0  0  0  0  0  0  0
    6.6690    1.7810   -2.2110 O   0  0  0  0  0  0  0  0  0  0  0  0
    5.1370    0.9740   -0.5620 C   0  0  0  0  0  0  0  0  0  0  0  0
    4.6870    0.0290    0.3120 C   0  0  0  0  0  0  0  0  0  0  0  0
    3.5430    0.1110    1.2020 C   0  0  0  0  0  0  0  0  0  0  0  0
    2.7300    1.3060    1.1070 N   0  0  0  0  0  0  0  0  0  0  0  0
    1.8090    1.2450    2.1940 C   0  0  0  0  0  0  0  0  0  0  0  0
    0.4230    1.5880    1.9600 C   0  0  0  0  0  0  0  0  0  0  0  0
   -0.2680    2.2000    2.7800 O   0  0  0  0  0  0  0  0  0  0  0  0
   -0.1820    1.1830    0.6780 C   0  0  0  0  0  0  0  0  0  0  0  0
   -1.5160    0.9550    0.5350 C   0  0  0  0  0  0  0  0  0  0  0  0
   -2.0060    0.5680   -0.6980 C   0  0  0  0  0  0  0  0  0  0  0  0
   -3.3770    0.3280   -0.8680 O   0  0  0  0  0  0  0  0  0  0  0  0
   -4.2880    0.4730    0.2030 C   0  0  0  0  0  0  0  0  0  0  0  0
   -5.6400    0.1450   -0.3190 C   0  0  0  0  0  0  0  0  0  0  0  0
   -6.2970   -0.8610    0.2370 C   0  0  0  0  0  0  0  0  0  0  0  0
   -7.6620   -1.1620   -0.3200 C   0  0  1  0  0  0  0  0  0  0  0  0
   -8.4580   -1.7710    0.6290 O   0  0  0  0  0  0  0  0  0  0  0  0
   -8.2650    0.1790   -0.6760 C   0  0  0  0  0  0  0  0  0  0  0  0
   -7.5400    0.8710   -1.6040 O   0  0  0  0  0  0  0  0  0  0  0  0
   -6.1920    0.9310   -1.4170 C   0  0  0  0  0  0  0  0  0  0  0  0
   -1.1160    0.4280   -1.7390 C   0  0  0  0  0  0  0  0  0  0  0  0
    0.2450    0.6650   -1.5780 C   0  0  0  0  0  0  0  0  0  0  0  0
    0.7370    1.0530   -0.3410 C   0  0  0  0  0  0  0  0  0  0  0  0
    2.1650    1.3100   -0.2040 C   0  0  0  0  0  0  0  0  0  0  0  0
  1  2  1  0
  2  3  1  0
  3  4  2  0
  3  9  1  0
  4  5  1  0
  5  6  2  0
  6  7  1  0
  6  8  1  0
  8  9  2  0
  9 10  1  0
 10 11  1  0
 11 12  1  0
 11 30  1  0
 12 13  1  0
 13 14  2  0
 13 15  1  0
 15 16  2  0
 15 29  1  0
 16 17  1  0
 17 18  1  0
 17 27  2  0
 18 19  1  0
 19 20  1  0
 20 21  2  0
 20 26  1  0
 21 22  1  0
 22 23  1  1
 22 24  1  0
 24 25  1  0
 25 26  1  0
 27 28  1  0
 28 29  2  0
 29 30  1  0
M  END
