
     RDKit          3D

 31 34  0  0  0  0  0  0  0  0999 V2000
    6.1980   -1.0140    1.3050 O   0  0  0  0  0  0  0  0  0  0  0  0
    6.6050    0.0630    0.8100 C   0  0  0  0  0  0  0  0  0  0  0  0
    7.9730    0.2800    0.7730 O   0  0  0  0  0  0  0  0  0  0  0  0
    5.6720    1.0810    0.2770 C   0  0  0  0  0  0  0  0  0  0  0  0
    4.2490    0.6650    0.4030 C   0  0  0  0  0  0  0  0  0  0  0  0
    3.5340    1.0320    1.5190 C   0  0  0  0  0  0  0  0  0  0  0  0
    2.1970    0.6540    1.6620 C   0  0  0  0  0  0  0  0  0  0  0  0
    1.5670   -0.0880    0.6970 C   0  0  0  0  0  0  0  0  0  0  0  0
    0.1670   -0.4800    0.8410 N   0  0  0  0  0  0  0  0  0  0  0  0
   -0.2380   -1.7560    1.2400 C   0  0  0  0  0  0  0  0  0  0  0  0
    0.4810   -2.7360    1.6480 O   0  0  0  0  0  0  0  0  0  0  0  0
   -1.6890   -1.7510    1.0960 C   0  0  0  0  0  0  0  0  0  0  0  0
   -2.4810   -2.8760    1.3960 O   0  0  0  0  0  0  0  0  0  0  0  0
   -2.1400   -0.6080    0.6690 C   0  0  0  0  0  0  0  0  0  0  0  0
   -3.4660   -0.1040    0.3590 C   0  0  0  0  0  0  0  0  0  0  0  0
   -3.5770    1.1030   -0.0440 O   0  0  0  0  0  0  0  0  0  0  0  0
   -4.6930   -0.8630    0.4670 C   0  0  0  0  0  0  0  0  0  0  0  0
   -5.9620   -0.4150    0.1830 C   0  0  0  0  0  0  0  0  0  0  0  0
   -6.9790   -1.2510    0.3310 C   0  0  0  0  0  0  0  0  0  0  0  0
   -6.7730   -2.5120    0.7520 C   0  0  0  0  0  0  0  0  0  0  0  0
   -7.8000   -3.8930    1.0700 Cl  0  0  0  0  0  0  0  0  0  0  0  0
   -4.9450   -2.4940    0.9540 S   0  0  0  0  0  0  0  0  0  0  0  0
   -0.9510    0.3250    0.5910 C   0  0  2  0  0  0  0  0  0  0  0  0
   -0.9510    1.1300   -0.5590 C   0  0  0  0  0  0  0  0  0  0  0  0
   -0.6820    1.0550   -1.8650 C   0  0  0  0  0  0  0  0  0  0  0  0
   -0.7940    2.0880   -2.7070 C   0  0  0  0  0  0  0  0  0  0  0  0
   -0.4180    2.0480   -4.6320 Br  0  0  0  0  0  0  0  0  0  0  0  0
   -1.2140    3.3060   -2.1880 C   0  0  0  0  0  0  0  0  0  0  0  0
   -1.4430    2.8930   -0.4130 S   0  0  0  0  0  0  0  0  0  0  0  0
    2.2950   -0.4490   -0.4160 C   0  0  0  0  0  0  0  0  0  0  0  0
    3.6220   -0.0810   -0.5700 C   0  0  0  0  0  0  0  0  0  0  0  0
  1  2  2  0
  2  3  1  0
  2  4  1  0
  4  5  1  0
  5  6  2  0
  5 31  1  0
  6  7  1  0
  7  8  2  0
  8  9  1  0
  8 30  1  0
  9 10  1  0
  9 23  1  0
 10 11  2  0
 10 12  1  0
 12 13  1  0
 12 14  2  0
 14 15  1  0
 14 23  1  0
 15 16  2  0
 15 17  1  0
 17 18  2  0
 17 22  1  0
 18 19  1  0
 19 20  2  0
 20 21  1  0
 20 22  1  0
 23 24  1  6
 24 25  2  0
 24 29  1  0
 25 26  1  0
 26 27  1  0
 26 28  2  0
 28 29  1  0
 30 31  2  0
M  END
