
     RDKit          3D

 30 34  0  0  0  0  0  0  0  0999 V2000
   -3.7270   -2.3220   -0.0390 C   0  0  0  0  0  0  0  0  0  0  0  0
   -4.6810   -1.7280    0.9850 C   0  0  0  0  0  0  0  0  0  0  0  0
   -5.6970   -0.9770    0.2040 C   0  0  0  0  0  0  0  0  0  0  0  0
   -6.9100   -1.5070    0.1010 N   0  0  0  0  0  0  0  0  0  0  0  0
   -7.7110   -0.6600   -0.6790 C   0  0  0  0  0  0  0  0  0  0  0  0
   -6.8410    0.4360   -1.0690 C   0  0  0  0  0  0  0  0  0  0  0  0
   -5.5990    0.2490   -0.5190 C   0  0  0  0  0  0  0  0  0  0  0  0
   -4.5500    1.1730   -0.7710 C   0  0  0  0  0  0  0  0  0  0  0  0
   -4.8780    2.1360   -1.6860 O   0  0  0  0  0  0  0  0  0  0  0  0
   -3.2650    1.3280   -0.2950 N   0  0  0  0  0  0  0  0  0  0  0  0
   -2.4950    2.4280   -1.0210 C   0  0  0  0  0  0  0  0  0  0  0  0
   -1.2240    1.7010   -1.4380 C   0  0  0  0  0  0  0  0  0  0  0  0
   -0.3670    1.7220   -0.1770 C   0  0  2  0  0  0  0  0  0  0  0  0
    0.6090    0.6630   -0.3090 N   0  0  0  0  0  0  0  0  0  0  0  0
    0.3900   -0.5840   -0.7620 C   0  0  0  0  0  0  0  0  0  0  0  0
    1.5790   -1.3060   -0.7380 C   0  0  0  0  0  0  0  0  0  0  0  0
    2.5150   -0.4410   -0.2530 C   0  0  0  0  0  0  0  0  0  0  0  0
    3.9490   -0.7130   -0.0280 C   0  0  0  0  0  0  0  0  0  0  0  0
    4.5030   -1.9310   -0.3060 C   0  0  0  0  0  0  0  0  0  0  0  0
    5.8560   -2.1430   -0.0790 C   0  0  0  0  0  0  0  0  0  0  0  0
    6.6710   -1.1440    0.4260 C   0  0  0  0  0  0  0  0  0  0  0  0
    8.0290   -1.3670    0.6510 C   0  0  0  0  0  0  0  0  0  0  0  0
    8.8580   -0.3850    1.1540 C   0  0  0  0  0  0  0  0  0  0  0  0
    8.2820    0.8370    1.4280 C   0  0  0  0  0  0  0  0  0  0  0  0
    6.9330    1.0700    1.2090 C   0  0  0  0  0  0  0  0  0  0  0  0
    6.1170    0.0700    0.7030 C   0  0  0  0  0  0  0  0  0  0  0  0
    4.7750    0.2700    0.4740 C   0  0  0  0  0  0  0  0  0  0  0  0
    1.9100    0.7180   -0.0080 N   0  0  0  0  0  0  0  0  0  0  0  0
   -1.2180    1.5560    1.0450 C   0  0  0  0  0  0  0  0  0  0  0  0
   -2.5040    0.7920    0.7590 C   0  0  0  0  0  0  0  0  0  0  0  0
  1  2  1  0
  2  3  1  0
  3  4  2  0
  3  7  1  0
  4  5  1  0
  5  6  1  0
  6  7  2  0
  7  8  1  0
  8  9  2  0
  8 10  1  0
 10 11  1  0
 10 30  1  0
 11 12  1  0
 12 13  1  0
 13 14  1  6
 13 29  1  0
 14 15  1  0
 14 28  1  0
 15 16  2  0
 16 17  1  0
 17 18  1  0
 17 28  2  0
 18 19  2  0
 18 27  1  0
 19 20  1  0
 20 21  2  0
 21 22  1  0
 21 26  1  0
 22 23  2  0
 23 24  1  0
 24 25  2  0
 25 26  1  0
 26 27  2  0
 29 30  1  0
M  END
