
     RDKit          3D

 30 34  0  0  0  0  0  0  0  0999 V2000
   -0.3680   -3.8830    2.5330 N   0  0  0  0  0  0  0  0  0  0  0  0
   -0.0950   -2.8740    2.0340 C   0  0  0  0  0  0  0  0  0  0  0  0
    0.2210   -1.6190    1.4300 C   0  0  0  0  0  0  0  0  0  0  0  0
    1.4960   -1.0440    1.4580 C   0  0  0  0  0  0  0  0  0  0  0  0
    1.7340    0.2060    0.9400 C   0  0  0  0  0  0  0  0  0  0  0  0
    3.0990    0.7810    0.9980 C   0  0  0  0  0  0  0  0  0  0  0  0
    3.9970   -0.0900    0.2950 N   0  0  0  0  0  0  0  0  0  0  0  0
    3.6750   -0.2730   -1.0820 C   0  0  0  0  0  0  0  0  0  0  0  0
    4.9380   -0.3950   -1.9130 C   0  0  0  0  0  0  0  0  0  0  0  0
    5.7800    0.6760   -1.7320 O   0  0  0  0  0  0  0  0  0  0  0  0
    6.0480    0.9830   -0.4210 C   0  0  0  0  0  0  0  0  0  0  0  0
    5.3850    0.1060    0.5900 C   0  0  0  0  0  0  0  0  0  0  0  0
    0.7160    0.9310    0.3770 N   0  0  0  0  0  0  0  0  0  0  0  0
   -0.4940    0.4450    0.3210 C   0  0  0  0  0  0  0  0  0  0  0  0
   -0.7380   -0.8390    0.8490 C   0  0  0  0  0  0  0  0  0  0  0  0
   -2.0870   -1.3750    0.7270 C   0  0  0  0  0  0  0  0  0  0  0  0
   -2.3230   -2.5440    0.1350 C   0  0  0  0  0  0  0  0  0  0  0  0
   -3.7420   -2.9280    0.1410 C   0  0  0  0  0  0  0  0  0  0  0  0
   -4.2110   -3.9510   -0.5470 C   0  0  0  0  0  0  0  0  0  0  0  0
   -3.2780   -4.7310   -1.3390 C   0  0  0  0  0  0  0  0  0  0  0  0
   -2.0110   -4.4500   -1.3830 C   0  0  0  0  0  0  0  0  0  0  0  0
   -1.3860   -3.3290   -0.6430 C   0  0  0  0  0  0  0  0  0  0  0  0
   -3.2280   -0.4500    1.1360 C   0  0  0  0  0  0  0  0  0  0  0  0
   -2.7190    0.9700    1.0030 C   0  0  0  0  0  0  0  0  0  0  0  0
   -1.7620    1.0630   -0.1660 C   0  0  1  0  0  0  0  0  0  0  0  0
   -1.6060    2.3460   -0.7340 N   0  0  0  0  0  0  0  0  0  0  0  0
   -2.8210    2.8400   -1.2980 C   0  0  0  0  0  0  0  0  0  0  0  0
   -2.4620    4.2510   -1.7470 C   0  0  0  0  0  0  0  0  0  0  0  0
   -1.4840    4.6620   -0.6680 C   0  0  0  0  0  0  0  0  0  0  0  0
   -1.2060    3.3950    0.1480 C   0  0  0  0  0  0  0  0  0  0  0  0
  1  2  3  0
  2  3  1  0
  3  4  2  0
  3 15  1  0
  4  5  1  0
  5  6  1  0
  5 13  2  0
  6  7  1  0
  7  8  1  0
  7 12  1  0
  8  9  1  0
  9 10  1  0
 10 11  1  0
 11 12  1  0
 13 14  1  0
 14 15  2  0
 14 25  1  0
 15 16  1  0
 16 17  2  3
 16 23  1  0
 17 18  1  0
 17 22  1  0
 18 19  2  0
 19 20  1  0
 20 21  2  0
 21 22  1  0
 23 24  1  0
 24 25  1  0
 25 26  1  1
 26 27  1  0
 26 30  1  0
 27 28  1  0
 28 29  1  0
 29 30  1  0
M  END
