
     RDKit          3D

 30 33  0  0  0  0  0  0  0  0999 V2000
   -9.9480   -0.3780   -0.5500 C   0  0  0  0  0  0  0  0  0  0  0  0
   -8.6310    0.1570   -0.1120 C   0  0  0  0  0  0  0  0  0  0  0  0
   -8.5430    1.3780    0.5370 C   0  0  0  0  0  0  0  0  0  0  0  0
   -7.3170    1.8660    0.9400 C   0  0  0  0  0  0  0  0  0  0  0  0
   -6.1410    1.1670    0.7160 C   0  0  0  0  0  0  0  0  0  0  0  0
   -6.2130   -0.0420    0.0760 C   0  0  0  0  0  0  0  0  0  0  0  0
   -7.4580   -0.5260   -0.3270 C   0  0  0  0  0  0  0  0  0  0  0  0
   -5.0590   -0.7410   -0.1500 O   0  0  0  0  0  0  0  0  0  0  0  0
   -3.7510   -0.3180    0.2290 C   0  0  0  0  0  0  0  0  0  0  0  0
   -2.7630   -1.1210   -0.0720 C   0  0  0  0  0  0  0  0  0  0  0  0
   -1.3790   -0.9340    0.1930 C   0  0  0  0  0  0  0  0  0  0  0  0
   -0.8970    0.0660    0.7740 O   0  0  0  0  0  0  0  0  0  0  0  0
   -0.4590   -1.9760   -0.2400 N   0  0  0  0  0  0  0  0  0  0  0  0
    0.9390   -1.7950    0.0160 C   0  0  0  0  0  0  0  0  0  0  0  0
    1.4530   -0.5880   -0.6860 C   0  0  2  0  0  0  0  0  0  0  0  0
    1.2250   -0.7980   -2.0640 O   0  0  0  0  0  0  0  0  0  0  0  0
    2.9400   -0.4800   -0.5630 C   0  0  0  0  0  0  0  0  0  0  0  0
    3.4740    0.6030   -0.0300 C   0  0  0  0  0  0  0  0  0  0  0  0
    4.9000    0.7960    0.1290 C   0  0  0  0  0  0  0  0  0  0  0  0
    5.3770    1.9560    0.6950 C   0  0  0  0  0  0  0  0  0  0  0  0
    6.7360    2.1840    0.8670 C   0  0  0  0  0  0  0  0  0  0  0  0
    7.6380    1.2190    0.4580 C   0  0  0  0  0  0  0  0  0  0  0  0
    7.1870    0.0510   -0.1100 C   0  0  0  0  0  0  0  0  0  0  0  0
    5.8240   -0.1410   -0.2660 C   0  0  0  0  0  0  0  0  0  0  0  0
    8.3830   -0.7650   -0.4350 C   0  0  0  0  0  0  0  0  0  0  0  0
    9.4140   -0.1790    0.5270 C   0  0  0  0  0  0  0  0  0  0  0  0
    9.0450    1.1950    0.5150 O   0  0  0  0  0  0  0  0  0  0  0  0
   -3.7050    0.9530    0.8980 C   0  0  0  0  0  0  0  0  0  0  0  0
   -2.6430    1.4580    1.2900 O   0  0  0  0  0  0  0  0  0  0  0  0
   -4.9090    1.6580    1.1220 O   0  0  0  0  0  0  0  0  0  0  0  0
  1  2  1  0
  2  3  2  0
  2  7  1  0
  3  4  1  0
  4  5  2  0
  5  6  1  0
  5 30  1  0
  6  7  2  0
  6  8  1  0
  8  9  1  0
  9 10  2  3
  9 28  1  0
 10 11  1  0
 11 12  2  0
 11 13  1  0
 13 14  1  0
 14 15  1  0
 15 16  1  6
 15 17  1  0
 17 18  2  3
 18 19  1  0
 19 20  2  0
 19 24  1  0
 20 21  1  0
 21 22  2  0
 22 23  1  0
 22 27  1  0
 23 24  2  0
 23 25  1  0
 25 26  1  0
 26 27  1  0
 28 29  2  0
 28 30  1  0
M  END
