
     RDKit          3D

 30 33  0  0  0  0  0  0  0  0999 V2000
    2.9820   -2.9420   -3.9460 C   0  0  0  0  0  0  0  0  0  0  0  0
    3.4080   -2.4760   -2.8750 C   0  0  0  0  0  0  0  0  0  0  0  0
    3.9230   -1.9000   -1.6090 C   0  0  0  0  0  0  0  0  0  0  0  0
    2.8450   -1.6990   -0.6790 N   0  0  0  0  0  0  0  0  0  0  0  0
    2.1260   -2.8480   -0.1580 C   0  0  0  0  0  0  0  0  0  0  0  0
    0.6370   -2.5750   -0.1780 C   0  0  0  0  0  0  0  0  0  0  0  0
    0.2820   -1.2870    0.4200 N   0  0  0  0  0  0  0  0  0  0  0  0
   -1.1480   -1.1770    0.1620 C   0  0  0  0  0  0  0  0  0  0  0  0
   -1.7960   -0.0200    0.7730 C   0  0  0  0  0  0  0  0  0  0  0  0
   -1.2270    0.8830    1.5470 N   0  0  0  0  0  0  0  0  0  0  0  0
   -1.9260    1.8890    2.0710 C   0  0  0  0  0  0  0  0  0  0  0  0
   -3.2820    2.0410    1.8310 C   0  0  0  0  0  0  0  0  0  0  0  0
   -3.9210    1.1360    1.0390 C   0  0  0  0  0  0  0  0  0  0  0  0
   -3.1580    0.1070    0.5140 C   0  0  0  0  0  0  0  0  0  0  0  0
   -3.8520   -0.8070   -0.3780 C   0  0  0  0  0  0  0  0  0  0  0  0
   -5.1090   -0.7360   -0.7220 C   0  0  0  0  0  0  0  0  0  0  0  0
   -5.7070   -1.7680   -1.6660 C   0  0  0  0  0  0  0  0  0  0  0  0
   -6.0020    0.3380   -0.2630 C   0  0  0  0  0  0  0  0  0  0  0  0
   -5.3540    1.1760    0.7610 C   0  0  0  0  0  0  0  0  0  0  0  0
   -6.1040    2.0100    1.4910 C   0  0  0  0  0  0  0  0  0  0  0  0
    0.9540   -0.1740   -0.2560 C   0  0  0  0  0  0  0  0  0  0  0  0
    2.4320   -0.4250   -0.2360 C   0  0  0  0  0  0  0  0  0  0  0  0
    3.2680    0.5070    0.2520 C   0  0  0  0  0  0  0  0  0  0  0  0
    4.6760    0.3450    0.4070 C   0  0  0  0  0  0  0  0  0  0  0  0
    5.5540    1.1700    0.8370 C   0  0  0  0  0  0  0  0  0  0  0  0
    5.5110    2.5240    1.3160 C   0  0  0  0  0  0  0  0  0  0  0  0
    4.4820    3.4060    1.4260 C   0  0  0  0  0  0  0  0  0  0  0  0
    4.9780    4.5590    1.9430 N   0  0  0  0  0  0  0  0  0  0  0  0
    6.2830    4.3570    2.1350 C   0  0  0  0  0  0  0  0  0  0  0  0
    6.5920    3.1610    1.7650 O   0  0  0  0  0  0  0  0  0  0  0  0
  1  2  3  0
  2  3  1  0
  3  4  1  0
  4  5  1  0
  4 22  1  0
  5  6  1  0
  6  7  1  0
  7  8  1  0
  7 21  1  0
  8  9  1  0
  9 10  2  0
  9 14  1  0
 10 11  1  0
 11 12  2  0
 12 13  1  0
 13 14  2  0
 13 19  1  0
 14 15  1  0
 15 16  2  0
 16 17  1  0
 16 18  1  0
 18 19  1  0
 19 20  2  0
 21 22  1  0
 22 23  2  3
 23 24  1  0
 24 25  2  3
 25 26  1  0
 26 27  2  0
 26 30  1  0
 27 28  1  0
 28 29  2  0
 29 30  1  0
M  END
