
     RDKit          3D

 29 33  0  0  0  0  0  0  0  0999 V2000
    7.3990    1.7710    1.1870 C   0  0  0  0  0  0  0  0  0  0  0  0
    6.0890    1.8590    0.5950 N   0  0  0  0  0  0  0  0  0  0  0  0
    5.0140    2.4710    1.0950 N   0  0  0  0  0  0  0  0  0  0  0  0
    3.9980    2.3230    0.2420 C   0  0  0  0  0  0  0  0  0  0  0  0
    4.4110    1.6090   -0.8230 N   0  0  0  0  0  0  0  0  0  0  0  0
    3.5650    1.2680   -1.9310 C   0  0  0  0  0  0  0  0  0  0  0  0
    2.8600   -0.0080   -1.7660 C   0  0  0  0  0  0  0  0  0  0  0  0
    3.3490   -1.2300   -2.1710 C   0  0  0  0  0  0  0  0  0  0  0  0
    2.6290   -2.4040   -1.9840 C   0  0  0  0  0  0  0  0  0  0  0  0
    1.3950   -2.3510   -1.3800 C   0  0  0  0  0  0  0  0  0  0  0  0
    0.8590   -1.1280   -0.9520 C   0  0  0  0  0  0  0  0  0  0  0  0
    1.6050   -0.0080   -1.1580 C   0  0  0  0  0  0  0  0  0  0  0  0
   -0.3830   -0.8680   -0.3120 N   0  0  0  0  0  0  0  0  0  0  0  0
   -0.7170    0.5220   -0.0680 C   0  0  0  0  0  0  0  0  0  0  0  0
   -2.0770    0.5900    0.5730 C   0  0  0  0  0  0  0  0  0  0  0  0
   -2.2430    0.5130    1.9490 C   0  0  0  0  0  0  0  0  0  0  0  0
   -3.4870    0.5770    2.5340 C   0  0  0  0  0  0  0  0  0  0  0  0
   -4.6280    0.7220    1.7820 C   0  0  0  0  0  0  0  0  0  0  0  0
   -4.4830    0.8000    0.4120 C   0  0  0  0  0  0  0  0  0  0  0  0
   -3.2340    0.7360   -0.1700 C   0  0  0  0  0  0  0  0  0  0  0  0
   -5.8300    0.9520   -0.1940 C   0  0  0  0  0  0  0  0  0  0  0  0
   -6.5880    1.6300    0.9300 C   0  0  0  0  0  0  0  0  0  0  0  0
   -6.0910    0.8200    2.1240 C   0  0  0  0  0  0  0  0  0  0  0  0
   -1.3330   -1.8810    0.1160 C   0  0  0  0  0  0  0  0  0  0  0  0
   -1.6260   -2.8880   -0.9810 C   0  0  0  0  0  0  0  0  0  0  0  0
   -0.5380   -3.8950   -1.0900 C   0  0  0  0  0  0  0  0  0  0  0  0
    0.7710   -3.6560   -1.2620 C   0  0  0  0  0  0  0  0  0  0  0  0
    5.7040    1.3350   -0.5820 C   0  0  0  0  0  0  0  0  0  0  0  0
    6.4300    0.6700   -1.3790 O   0  0  0  0  0  0  0  0  0  0  0  0
  1  2  1  0
  2  3  1  0
  2 28  1  0
  3  4  2  0
  4  5  1  0
  5  6  1  0
  5 28  1  0
  6  7  1  0
  7  8  2  0
  7 12  1  0
  8  9  1  0
  9 10  2  0
 10 11  1  0
 10 27  1  0
 11 12  2  0
 11 13  1  0
 13 14  1  0
 13 24  1  0
 14 15  1  0
 15 16  2  0
 15 20  1  0
 16 17  1  0
 17 18  2  0
 18 19  1  0
 18 23  1  0
 19 20  2  0
 19 21  1  0
 21 22  1  0
 22 23  1  0
 24 25  1  0
 25 26  1  0
 26 27  2  0
 28 29  2  0
M  END
