
     RDKit          3D

 36 40  0  0  0  0  0  0  0  0999 V2000
    6.5140   -1.8260   -3.1430 N   0  0  0  0  0  0  0  0  0  0  0  0
    5.7370   -1.2920   -2.0860 C   0  0  0  0  0  0  0  0  0  0  0  0
    4.3720   -1.5860   -2.0220 C   0  0  0  0  0  0  0  0  0  0  0  0
    3.6200   -1.0650   -0.9930 C   0  0  0  0  0  0  0  0  0  0  0  0
    2.1980   -1.3510   -0.8960 C   0  0  0  0  0  0  0  0  0  0  0  0
    1.4250   -0.8930    0.0500 C   0  0  0  0  0  0  0  0  0  0  0  0
    0.0300   -1.1840    0.1300 N   0  0  0  0  0  0  0  0  0  0  0  0
   -0.9690   -0.2010    0.0960 C   0  0  0  0  0  0  0  0  0  0  0  0
   -0.5970    1.0000   -0.0100 O   0  0  0  0  0  0  0  0  0  0  0  0
   -2.4120   -0.5210    0.1800 C   0  0  0  0  0  0  0  0  0  0  0  0
   -2.8650   -1.7970    0.3100 C   0  0  0  0  0  0  0  0  0  0  0  0
   -4.2040   -2.0890    0.3880 C   0  0  0  0  0  0  0  0  0  0  0  0
   -5.1050   -1.0390    0.3320 C   0  0  0  0  0  0  0  0  0  0  0  0
   -4.6990    0.2700    0.2010 C   0  0  0  0  0  0  0  0  0  0  0  0
   -5.6590    1.3780    0.0660 C   0  0  0  0  0  0  0  0  0  0  0  0
   -5.1750    2.6030    0.2500 C   0  0  0  0  0  0  0  0  0  0  0  0
   -5.8960    3.8510    0.1700 C   0  0  0  0  0  0  0  0  0  0  0  0
   -5.3260    5.0920    0.3780 O   0  0  0  0  0  0  0  0  0  0  0  0
   -7.4830    3.7160   -0.1920 S   0  0  0  0  0  0  0  0  0  0  0  0
   -8.0040    2.0120   -0.4190 C   0  0  0  0  0  0  0  0  0  0  0  0
   -7.0380    1.1060   -0.2620 C   0  0  0  0  0  0  0  0  0  0  0  0
   -3.3210    0.5260    0.1240 C   0  0  0  0  0  0  0  0  0  0  0  0
   -6.4360   -1.3910    0.4220 O   0  0  0  0  0  0  0  0  0  0  0  0
   -6.7790   -2.5470    1.1600 C   0  0  0  0  0  0  0  0  0  0  0  0
   -6.0680   -3.6420    0.5320 N   0  0  0  0  0  0  0  0  0  0  0  0
   -4.6570   -3.4650    0.5270 C   0  0  0  0  0  0  0  0  0  0  0  0
    4.2090   -0.2970   -0.0870 N   0  0  0  0  0  0  0  0  0  0  0  0
    5.5440    0.0150   -0.1160 C   0  0  0  0  0  0  0  0  0  0  0  0
    6.0620    0.8400    0.9000 N   0  0  0  0  0  0  0  0  0  0  0  0
    7.4030    1.2730    1.0460 C   0  0  0  0  0  0  0  0  0  0  0  0
    8.4270    0.9690    0.1860 C   0  0  0  0  0  0  0  0  0  0  0  0
    9.7270    1.4440    0.4150 C   0  0  0  0  0  0  0  0  0  0  0  0
   10.0270    2.2270    1.5010 C   0  0  0  0  0  0  0  0  0  0  0  0
    9.0140    2.5130    2.3320 N   0  0  0  0  0  0  0  0  0  0  0  0
    7.7640    2.0740    2.1380 C   0  0  0  0  0  0  0  0  0  0  0  0
    6.2240   -0.5120   -1.1270 N   0  0  0  0  0  0  0  0  0  0  0  0
  1  2  1  0
  2  3  2  0
  2 36  1  0
  3  4  1  0
  4  5  1  0
  4 27  2  0
  5  6  2  3
  6  7  1  0
  7  8  1  0
  8  9  2  0
  8 10  1  0
 10 11  2  0
 10 22  1  0
 11 12  1  0
 12 13  2  0
 12 26  1  0
 13 14  1  0
 13 23  1  0
 14 15  1  0
 14 22  2  0
 15 16  2  0
 15 21  1  0
 16 17  1  0
 17 18  1  0
 17 19  2  0
 19 20  1  0
 20 21  2  0
 23 24  1  0
 24 25  1  0
 25 26  1  0
 27 28  1  0
 28 29  1  0
 28 36  2  0
 29 30  1  0
 30 31  2  0
 30 35  1  0
 31 32  1  0
 32 33  2  0
 33 34  1  0
 34 35  2  0
M  END
