
     RDKit          3D

 36 40  0  0  0  0  0  0  0  0999 V2000
   -1.4100    5.9910   -3.8350 C   0  0  0  0  0  0  0  0  0  0  0  0
   -0.9860    4.6930   -3.1880 C   0  0  0  0  0  0  0  0  0  0  0  0
   -1.4550    3.5220   -4.0270 C   0  0  0  0  0  0  0  0  0  0  0  0
   -1.0590    2.2270   -3.4260 C   0  0  0  0  0  0  0  0  0  0  0  0
    0.1570    1.6860   -3.7890 C   0  0  0  0  0  0  0  0  0  0  0  0
    0.6090    0.4850   -3.2790 C   0  0  0  0  0  0  0  0  0  0  0  0
   -0.2100   -0.1870   -2.3670 C   0  0  0  0  0  0  0  0  0  0  0  0
    0.2350   -1.4150   -1.8670 N   0  0  0  0  0  0  0  0  0  0  0  0
   -0.0640   -2.5760   -2.5000 N   0  0  0  0  0  0  0  0  0  0  0  0
    0.4900   -3.5790   -1.8010 C   0  0  0  0  0  0  0  0  0  0  0  0
    1.1130   -3.0120   -0.7590 N   0  0  0  0  0  0  0  0  0  0  0  0
    0.9580   -1.6500   -0.7920 C   0  0  0  0  0  0  0  0  0  0  0  0
    1.5310   -0.7820    0.2190 C   0  0  0  0  0  0  0  0  0  0  0  0
    2.2720   -1.3470    1.2710 C   0  0  0  0  0  0  0  0  0  0  0  0
    2.8310   -0.5690    2.2460 C   0  0  0  0  0  0  0  0  0  0  0  0
    2.6920    0.8050    2.2400 C   0  0  0  0  0  0  0  0  0  0  0  0
    1.9660    1.3450    1.2060 C   0  0  0  0  0  0  0  0  0  0  0  0
    1.7750    2.5790    1.0980 O   0  0  0  0  0  0  0  0  0  0  0  0
    1.4140    0.5480    0.2390 N   0  0  0  0  0  0  0  0  0  0  0  0
    3.1960    1.8510    3.1700 C   0  0  0  0  0  0  0  0  0  0  0  0
    3.4910    1.3360    4.5410 C   0  0  0  0  0  0  0  0  0  0  0  0
    4.7570    0.5130    4.6090 C   0  0  0  0  0  0  0  0  0  0  0  0
    4.5330   -0.8590    4.2220 N   0  0  0  0  0  0  0  0  0  0  0  0
    3.5650   -1.3190    3.2560 C   0  0  0  0  0  0  0  0  0  0  0  0
    3.3150   -2.5310    3.2830 O   0  0  0  0  0  0  0  0  0  0  0  0
   -1.4380    0.3280   -1.9800 C   0  0  0  0  0  0  0  0  0  0  0  0
   -2.2870   -0.3790   -1.0280 C   0  0  0  0  0  0  0  0  0  0  0  0
   -3.3920    0.1250   -0.7050 O   0  0  0  0  0  0  0  0  0  0  0  0
   -1.9590   -1.5740   -0.4510 O   0  0  0  0  0  0  0  0  0  0  0  0
   -2.7020   -2.3000    0.4500 C   0  0  2  0  0  0  0  0  0  0  0  0
   -2.0410   -2.5880    1.7690 C   0  0  0  0  0  0  0  0  0  0  0  0
   -2.8460   -3.7930    2.2260 C   0  0  0  0  0  0  0  0  0  0  0  0
   -3.3520   -4.4240    1.1260 O   0  0  0  0  0  0  0  0  0  0  0  0
   -3.0880   -3.6820   -0.0040 C   0  0  1  0  0  0  0  0  0  0  0  0
   -4.2630   -3.5570   -0.9350 C   0  0  0  0  0  0  0  0  0  0  0  0
   -1.8350    1.5310   -2.5230 C   0  0  0  0  0  0  0  0  0  0  0  0
  1  2  1  0
  2  3  1  0
  3  4  1  0
  4  5  2  0
  4 36  1  0
  5  6  1  0
  6  7  2  0
  7  8  1  0
  7 26  1  0
  8  9  1  0
  8 12  1  0
  9 10  2  0
 10 11  1  0
 11 12  2  0
 12 13  1  0
 13 14  2  0
 13 19  1  0
 14 15  1  0
 15 16  2  0
 15 24  1  0
 16 17  1  0
 16 20  1  0
 17 18  2  0
 17 19  1  0
 20 21  1  0
 21 22  1  0
 22 23  1  0
 23 24  1  0
 24 25  2  0
 26 27  1  0
 26 36  2  0
 27 28  2  0
 27 29  1  0
 30 29  1  6
 30 31  1  0
 30 34  1  0
 31 32  1  0
 32 33  1  0
 33 34  1  0
 34 35  1  6
M  END
