
     RDKit          3D

 36 40  0  0  0  0  0  0  0  0999 V2000
   -7.2230    2.3510    0.7980 C   0  0  0  0  0  0  0  0  0  0  0  0
   -5.9720    1.6500    0.5560 C   0  0  0  0  0  0  0  0  0  0  0  0
   -4.8060    2.3230    0.8390 C   0  0  0  0  0  0  0  0  0  0  0  0
   -3.5840    1.7640    0.6360 C   0  0  0  0  0  0  0  0  0  0  0  0
   -2.4030    2.4520    0.9250 C   0  0  0  0  0  0  0  0  0  0  0  0
   -2.5300    3.7640    1.4430 N   0  0  0  0  0  0  0  0  0  0  0  0
   -1.1970    1.9030    0.7260 N   0  0  0  0  0  0  0  0  0  0  0  0
   -1.1470    0.6460    0.2290 C   0  0  0  0  0  0  0  0  0  0  0  0
    0.0970    0.0210   -0.0000 N   0  0  0  0  0  0  0  0  0  0  0  0
    0.1490   -1.2860   -0.5180 C   0  0  0  0  0  0  0  0  0  0  0  0
   -0.9110   -2.0640   -0.8430 N   0  0  0  0  0  0  0  0  0  0  0  0
   -0.4880   -3.2530   -1.3070 C   0  0  0  0  0  0  0  0  0  0  0  0
   -1.1430   -4.2470   -1.7120 O   0  0  0  0  0  0  0  0  0  0  0  0
    0.8470   -3.2030   -1.2670 N   0  0  0  0  0  0  0  0  0  0  0  0
    1.2280   -2.0400   -0.8000 N   0  0  0  0  0  0  0  0  0  0  0  0
    2.5620   -1.5820   -0.5970 C   0  0  0  0  0  0  0  0  0  0  0  0
    3.4760   -1.6280   -1.6280 C   0  0  0  0  0  0  0  0  0  0  0  0
    4.7650   -1.1960   -1.4680 C   0  0  0  0  0  0  0  0  0  0  0  0
    5.1860   -0.6990   -0.2550 C   0  0  0  0  0  0  0  0  0  0  0  0
    6.4700   -0.2780   -0.1260 O   0  0  0  0  0  0  0  0  0  0  0  0
    7.0950    0.2500    0.9870 C   0  0  1  0  0  0  0  0  0  0  0  0
    8.3260   -0.5430    1.4040 C   0  0  0  0  0  0  0  0  0  0  0  0
    9.2950   -0.2360    0.2710 C   0  0  0  0  0  0  0  0  0  0  0  0
    9.0500    1.2080   -0.0340 C   0  0  0  0  0  0  0  0  0  0  0  0
    7.7460    1.5840    0.6340 C   0  0  0  0  0  0  0  0  0  0  0  0
    4.3030   -0.6410    0.7850 C   0  0  0  0  0  0  0  0  0  0  0  0
    2.9890   -1.0820    0.6200 C   0  0  0  0  0  0  0  0  0  0  0  0
   -2.2850   -0.0280   -0.0550 N   0  0  0  0  0  0  0  0  0  0  0  0
   -3.5010    0.4980    0.1360 C   0  0  0  0  0  0  0  0  0  0  0  0
   -4.6860   -0.2110   -0.1630 C   0  0  0  0  0  0  0  0  0  0  0  0
   -4.4550   -1.5540   -0.7150 C   0  0  0  0  0  0  0  0  0  0  0  0
   -5.5430   -2.2940   -1.0470 O   0  0  0  0  0  0  0  0  0  0  0  0
   -5.9180    0.3430    0.0400 C   0  0  0  0  0  0  0  0  0  0  0  0
   -7.2240   -0.2690   -0.2080 C   0  0  0  0  0  0  0  0  0  0  0  0
   -7.8650    0.2360   -1.4940 C   0  0  0  0  0  0  0  0  0  0  0  0
   -9.4840   -0.5670   -1.7370 S   0  0  0  0  0  0  0  0  0  0  0  0
  1  2  1  0
  2  3  2  0
  2 33  1  0
  3  4  1  0
  4  5  2  0
  4 29  1  0
  5  6  1  0
  5  7  1  0
  7  8  2  0
  8  9  1  0
  8 28  1  0
  9 10  1  0
 10 11  2  0
 10 15  1  0
 11 12  1  0
 12 13  2  0
 12 14  1  0
 14 15  1  0
 15 16  1  0
 16 17  2  0
 16 27  1  0
 17 18  1  0
 18 19  2  0
 19 20  1  0
 19 26  1  0
 21 20  1  6
 21 22  1  0
 21 25  1  0
 22 23  1  0
 23 24  1  0
 24 25  1  0
 26 27  2  0
 28 29  2  0
 29 30  1  0
 30 31  1  0
 30 33  2  0
 31 32  1  0
 33 34  1  0
 34 35  1  0
 35 36  1  0
M  END
