
     RDKit          3D

 36 40  0  0  0  0  0  0  0  0999 V2000
    2.6610    0.2910   -3.2120 C   0  0  0  0  0  0  0  0  0  0  0  0
    2.4410   -0.8380   -2.2340 C   0  0  0  0  0  0  0  0  0  0  0  0
    1.8440   -0.3370   -0.9390 C   0  0  0  0  0  0  0  0  0  0  0  0
    1.5740   -1.3760    0.0700 C   0  0  1  0  0  0  0  0  0  0  0  0
    0.6300   -2.4690   -0.2000 C   0  0  0  0  0  0  0  0  0  0  0  0
   -0.7340   -2.2400   -0.4390 N   0  0  0  0  0  0  0  0  0  0  0  0
   -1.4230   -1.5520   -1.4560 C   0  0  0  0  0  0  0  0  0  0  0  0
   -0.7300   -1.0290   -2.3550 O   0  0  0  0  0  0  0  0  0  0  0  0
   -2.8860   -1.4110   -1.5240 C   0  0  0  0  0  0  0  0  0  0  0  0
   -3.8340   -1.8970   -0.6400 C   0  0  0  0  0  0  0  0  0  0  0  0
   -5.1000   -1.5180   -1.0960 C   0  0  0  0  0  0  0  0  0  0  0  0
   -4.8590   -0.8250   -2.2280 N   0  0  0  0  0  0  0  0  0  0  0  0
   -3.5670   -0.7640   -2.4760 N   0  0  0  0  0  0  0  0  0  0  0  0
   -2.9960   -0.0980   -3.6200 C   0  0  0  0  0  0  0  0  0  0  0  0
   -2.6810    1.3280   -3.2480 C   0  0  0  0  0  0  0  0  0  0  0  0
   -2.1830    2.1300   -4.0580 O   0  0  0  0  0  0  0  0  0  0  0  0
   -2.9470    1.7920   -1.9600 O   0  0  0  0  0  0  0  0  0  0  0  0
   -2.6660    3.1230   -1.5690 C   0  0  0  0  0  0  0  0  0  0  0  0
   -1.1950    3.4490   -1.7120 C   0  0  0  0  0  0  0  0  0  0  0  0
   -6.1430   -2.0150   -0.1820 C   0  0  0  0  0  0  0  0  0  0  0  0
   -5.4320   -2.7370    0.9010 C   0  0  0  0  0  0  0  0  0  0  0  0
   -3.9570   -2.6750    0.6080 C   0  0  0  0  0  0  0  0  0  0  0  0
    2.9230   -2.0380    0.3480 C   0  0  0  0  0  0  0  0  0  0  0  0
    3.1560   -3.2200   -0.0010 O   0  0  0  0  0  0  0  0  0  0  0  0
    3.9440   -1.3210    1.0140 N   0  0  0  0  0  0  0  0  0  0  0  0
    3.5600   -0.2360    1.8670 C   0  0  0  0  0  0  0  0  0  0  0  0
    4.5520    0.4000    2.4630 C   0  0  0  0  0  0  0  0  0  0  0  0
    4.2930    1.5120    3.3480 C   0  0  0  0  0  0  0  0  0  0  0  0
    5.1140    2.2960    4.0500 C   0  0  0  0  0  0  0  0  0  0  0  0
    4.2790    3.2760    4.7830 C   0  0  0  0  0  0  0  0  0  0  0  0
    2.9040    2.9590    4.4160 C   0  0  0  0  0  0  0  0  0  0  0  0
    2.9230    1.9190    3.5700 C   0  0  0  0  0  0  0  0  0  0  0  0
    1.8170    1.2100    2.9050 C   0  0  0  0  0  0  0  0  0  0  0  0
    2.2190    0.1230    2.0530 N   0  0  0  0  0  0  0  0  0  0  0  0
    1.2290   -0.6470    1.3480 C   0  0  0  0  0  0  0  0  0  0  0  0
    0.0740   -0.7190    1.7890 O   0  0  0  0  0  0  0  0  0  0  0  0
  1  2  1  0
  2  3  1  0
  4  3  1  6
  4  5  1  0
  4 23  1  0
  4 35  1  0
  5  6  1  0
  6  7  1  0
  7  8  2  0
  7  9  1  0
  9 10  2  0
  9 13  1  0
 10 11  1  0
 10 22  1  0
 11 12  2  0
 11 20  1  0
 12 13  1  0
 13 14  1  0
 14 15  1  0
 15 16  2  0
 15 17  1  0
 17 18  1  0
 18 19  1  0
 20 21  1  0
 21 22  1  0
 23 24  2  0
 23 25  1  0
 25 26  1  0
 26 27  2  0
 26 34  1  0
 27 28  1  0
 28 29  2  0
 28 32  1  0
 29 30  1  0
 30 31  1  0
 31 32  2  0
 32 33  1  0
 33 34  1  0
 34 35  1  0
 35 36  2  0
M  END
