
     RDKit          3D

 36 40  0  0  0  0  0  0  0  0999 V2000
   -7.1560    1.0020   -0.8020 C   0  0  0  0  0  0  0  0  0  0  0  0
   -7.2100    0.7580    0.6640 C   0  0  0  0  0  0  0  0  0  0  0  0
   -8.1250    1.2800    1.4540 C   0  0  0  0  0  0  0  0  0  0  0  0
   -7.8710    0.8260    2.8240 C   0  0  0  0  0  0  0  0  0  0  0  0
   -6.6690   -0.0320    2.6660 C   0  0  0  0  0  0  0  0  0  0  0  0
   -6.2820   -0.0710    1.3990 C   0  0  0  0  0  0  0  0  0  0  0  0
   -5.1540   -0.8190    0.9560 N   0  0  0  0  0  0  0  0  0  0  0  0
   -4.0810   -0.1350    0.3290 C   0  0  0  0  0  0  0  0  0  0  0  0
   -4.1470    1.0980    0.1810 O   0  0  0  0  0  0  0  0  0  0  0  0
   -2.9020   -0.9340   -0.1320 C   0  0  1  0  0  0  0  0  0  0  0  0
   -3.3380   -1.9340   -1.1720 C   0  0  0  0  0  0  0  0  0  0  0  0
   -3.7450   -1.2670   -2.4660 C   0  0  0  0  0  0  0  0  0  0  0  0
   -2.6210   -0.4380   -3.0190 C   0  0  0  0  0  0  0  0  0  0  0  0
   -2.2530    0.6070   -1.9870 C   0  0  0  0  0  0  0  0  0  0  0  0
   -1.9020   -0.0850   -0.7450 N   0  0  0  0  0  0  0  0  0  0  0  0
   -0.6020    0.1250   -0.2090 C   0  0  0  0  0  0  0  0  0  0  0  0
    0.2230    0.8880   -0.7570 O   0  0  0  0  0  0  0  0  0  0  0  0
   -0.1940   -0.5730    1.0350 C   0  0  1  0  0  0  0  0  0  0  0  0
   -0.0590   -2.0460    0.8670 C   0  0  0  0  0  0  0  0  0  0  0  0
    1.3930   -2.3240    1.0100 C   0  0  0  0  0  0  0  0  0  0  0  0
    1.8840   -3.4790    0.9080 O   0  0  0  0  0  0  0  0  0  0  0  0
    2.0690   -1.1130    1.2670 N   0  0  0  0  0  0  0  0  0  0  0  0
    3.5290   -0.9680    1.2690 C   0  0  0  0  0  0  0  0  0  0  0  0
    3.9600   -0.6020   -0.1500 C   0  0  0  0  0  0  0  0  0  0  0  0
    5.4360   -0.4410   -0.2190 C   0  0  0  0  0  0  0  0  0  0  0  0
    6.1670    0.6930   -0.0190 N   0  0  0  0  0  0  0  0  0  0  0  0
    7.4680    0.4080   -0.1750 C   0  0  0  0  0  0  0  0  0  0  0  0
    8.6320    1.3110   -0.0550 C   0  0  0  0  0  0  0  0  0  0  0  0
    8.5780    2.5950    0.2370 C   0  0  0  0  0  0  0  0  0  0  0  0
    9.9380    3.1780    0.2700 C   0  0  0  0  0  0  0  0  0  0  0  0
   10.8050    2.0150   -0.0530 C   0  0  0  0  0  0  0  0  0  0  0  0
   10.0300    0.9650   -0.2330 C   0  0  0  0  0  0  0  0  0  0  0  0
    7.5280   -0.9000   -0.4700 N   0  0  0  0  0  0  0  0  0  0  0  0
    6.3050   -1.3850   -0.4910 O   0  0  0  0  0  0  0  0  0  0  0  0
    1.1130   -0.1050    1.5150 C   0  0  0  0  0  0  0  0  0  0  0  0
    1.4020    1.0000    2.0650 O   0  0  0  0  0  0  0  0  0  0  0  0
  1  2  1  0
  2  3  2  0
  2  6  1  0
  3  4  1  0
  4  5  1  0
  5  6  2  0
  6  7  1  0
  7  8  1  0
  8  9  2  0
 10  8  1  6
 10 11  1  0
 10 15  1  0
 11 12  1  0
 12 13  1  0
 13 14  1  0
 14 15  1  0
 15 16  1  0
 16 17  2  0
 18 16  1  6
 18 19  1  0
 18 35  1  0
 19 20  1  0
 20 21  2  0
 20 22  1  0
 22 23  1  0
 22 35  1  0
 23 24  1  0
 24 25  1  0
 25 26  2  0
 25 34  1  0
 26 27  1  0
 27 28  1  0
 27 33  2  0
 28 29  2  0
 28 32  1  0
 29 30  1  0
 30 31  1  0
 31 32  2  0
 33 34  1  0
 35 36  2  0
M  END
