
     RDKit          3D

 36 40  0  0  0  0  0  0  0  0999 V2000
   -4.1720    2.2100    1.7640 N   0  0  0  0  0  0  0  0  0  0  0  0
   -2.9610    1.9170    2.4470 C   0  0  0  0  0  0  0  0  0  0  0  0
   -2.0490    2.7670    2.4860 O   0  0  0  0  0  0  0  0  0  0  0  0
   -2.7620    0.6190    3.1160 C   0  0  0  0  0  0  0  0  0  0  0  0
   -1.9850   -0.6010    2.0470 S   0  0  0  0  0  0  0  0  0  0  0  0
   -3.1310   -0.9770    0.7070 C   0  0  0  0  0  0  0  0  0  0  0  0
   -4.0400   -1.9460    0.8250 N   0  0  0  0  0  0  0  0  0  0  0  0
   -4.8670   -2.1830   -0.2150 C   0  0  0  0  0  0  0  0  0  0  0  0
   -5.7990   -3.1730   -0.0970 N   0  0  0  0  0  0  0  0  0  0  0  0
   -6.6410   -3.4410   -1.1070 C   0  0  0  0  0  0  0  0  0  0  0  0
   -7.5920   -4.4750   -0.9460 N   0  0  0  0  0  0  0  0  0  0  0  0
   -6.5850   -2.7170   -2.2970 C   0  0  0  0  0  0  0  0  0  0  0  0
   -5.6640   -1.7080   -2.4650 C   0  0  0  0  0  0  0  0  0  0  0  0
   -4.8050   -1.4620   -1.3880 C   0  0  0  0  0  0  0  0  0  0  0  0
   -3.8480   -0.4720   -1.4590 C   0  0  0  0  0  0  0  0  0  0  0  0
   -3.7850    0.1910   -2.5270 O   0  0  0  0  0  0  0  0  0  0  0  0
   -3.0220   -0.2410   -0.4110 N   0  0  0  0  0  0  0  0  0  0  0  0
   -2.0620    0.7940   -0.5690 C   0  0  0  0  0  0  0  0  0  0  0  0
   -2.4770    2.0410   -1.0490 C   0  0  0  0  0  0  0  0  0  0  0  0
   -1.5780    3.0710   -1.2180 C   0  0  0  0  0  0  0  0  0  0  0  0
   -0.2450    2.8910   -0.9160 C   0  0  0  0  0  0  0  0  0  0  0  0
    0.2060    1.6610   -0.4350 C   0  0  0  0  0  0  0  0  0  0  0  0
    1.5780    1.4860   -0.1260 N   0  0  0  0  0  0  0  0  0  0  0  0
    2.0470    0.2150    0.3730 C   0  0  0  0  0  0  0  0  0  0  0  0
    3.5090    0.2660    0.6350 C   0  0  0  0  0  0  0  0  0  0  0  0
    4.1120    0.6200    1.8420 C   0  0  0  0  0  0  0  0  0  0  0  0
    5.4090    0.5460    1.6760 O   0  0  0  0  0  0  0  0  0  0  0  0
    5.7160    0.1710    0.4580 C   0  0  0  0  0  0  0  0  0  0  0  0
    7.0730   -0.0240   -0.1060 C   0  0  0  0  0  0  0  0  0  0  0  0
    8.1930    0.1800    0.6380 C   0  0  0  0  0  0  0  0  0  0  0  0
    9.4300   -0.0140    0.0710 C   0  0  0  0  0  0  0  0  0  0  0  0
    9.6060   -0.4120   -1.2350 C   0  0  0  0  0  0  0  0  0  0  0  0
    8.4280   -0.6100   -1.9600 C   0  0  0  0  0  0  0  0  0  0  0  0
    7.1860   -0.4220   -1.4150 C   0  0  0  0  0  0  0  0  0  0  0  0
    4.5460    0.0000   -0.1800 N   0  0  0  0  0  0  0  0  0  0  0  0
   -0.7260    0.6560   -0.2800 C   0  0  0  0  0  0  0  0  0  0  0  0
  1  2  1  0
  2  3  2  0
  2  4  1  0
  4  5  1  0
  5  6  1  0
  6  7  2  0
  6 17  1  0
  7  8  1  0
  8  9  2  0
  8 14  1  0
  9 10  1  0
 10 11  1  0
 10 12  2  0
 12 13  1  0
 13 14  2  0
 14 15  1  0
 15 16  2  0
 15 17  1  0
 17 18  1  0
 18 19  2  0
 18 36  1  0
 19 20  1  0
 20 21  2  0
 21 22  1  0
 22 23  1  0
 22 36  2  0
 23 24  1  0
 24 25  1  0
 25 26  2  0
 25 35  1  0
 26 27  1  0
 27 28  1  0
 28 29  1  0
 28 35  2  0
 29 30  2  0
 29 34  1  0
 30 31  1  0
 31 32  2  0
 32 33  1  0
 33 34  2  0
M  END
