
     RDKit          3D

 36 40  0  0  0  0  0  0  0  0999 V2000
   -8.5450   -0.7370    3.4190 N   0  0  0  0  0  0  0  0  0  0  0  0
   -8.1640   -1.5040    2.2930 C   0  0  0  0  0  0  0  0  0  0  0  0
   -8.7720   -2.5730    2.0640 O   0  0  0  0  0  0  0  0  0  0  0  0
   -7.0870   -1.0230    1.4520 C   0  0  0  0  0  0  0  0  0  0  0  0
   -6.6340   -1.7260    0.3560 C   0  0  0  0  0  0  0  0  0  0  0  0
   -5.6130   -1.2930   -0.4600 C   0  0  0  0  0  0  0  0  0  0  0  0
   -4.9670   -0.0770   -0.2020 C   0  0  0  0  0  0  0  0  0  0  0  0
   -3.9930    0.3080   -1.0040 N   0  0  0  0  0  0  0  0  0  0  0  0
   -3.3160    1.4850   -0.8150 C   0  0  0  0  0  0  0  0  0  0  0  0
   -2.3480    1.9910   -1.5100 N   0  0  0  0  0  0  0  0  0  0  0  0
   -1.7450    3.0380   -1.3440 C   0  0  0  0  0  0  0  0  0  0  0  0
   -0.6670    3.8640   -1.8890 C   0  0  0  0  0  0  0  0  0  0  0  0
    0.0710    3.0730   -2.8220 N   0  0  0  0  0  0  0  0  0  0  0  0
    0.7110    1.8640   -2.3520 C   0  0  0  0  0  0  0  0  0  0  0  0
    0.5430    1.6290   -1.1360 O   0  0  0  0  0  0  0  0  0  0  0  0
    1.4500    1.0510   -3.2250 N   0  0  0  0  0  0  0  0  0  0  0  0
    2.0950   -0.1340   -2.8120 C   0  0  0  0  0  0  0  0  0  0  0  0
    2.7170   -0.9330   -3.7840 C   0  0  0  0  0  0  0  0  0  0  0  0
    3.3770   -2.0960   -3.5070 C   0  0  0  0  0  0  0  0  0  0  0  0
    3.4430   -2.5250   -2.1770 C   0  0  0  0  0  0  0  0  0  0  0  0
    2.8530   -1.7840   -1.1800 C   0  0  0  0  0  0  0  0  0  0  0  0
    2.9010   -2.2020    0.2560 C   0  0  0  0  0  0  0  0  0  0  0  0
    3.8910   -1.4150    0.9280 N   0  0  0  0  0  0  0  0  0  0  0  0
    5.2730   -1.6850    0.7600 C   0  0  0  0  0  0  0  0  0  0  0  0
    5.6760   -2.6210    0.0160 O   0  0  0  0  0  0  0  0  0  0  0  0
    6.2660   -0.8510    1.4700 C   0  0  0  0  0  0  0  0  0  0  0  0
    7.5620   -0.9830    1.4100 C   0  0  0  0  0  0  0  0  0  0  0  0
    8.1900    0.0520    2.2710 C   0  0  0  0  0  0  0  0  0  0  0  0
    7.0210    0.7740    2.8140 C   0  0  0  0  0  0  0  0  0  0  0  0
    5.9700    0.2240    2.3310 N   0  0  0  0  0  0  0  0  0  0  0  0
    2.1900   -0.5990   -1.5310 C   0  0  0  0  0  0  0  0  0  0  0  0
   -2.6650    3.6410    0.2060 S   0  0  0  0  0  0  0  0  0  0  0  0
   -3.7550    2.2070    0.2800 C   0  0  0  0  0  0  0  0  0  0  0  0
   -4.7690    1.8220    1.1280 C   0  0  0  0  0  0  0  0  0  0  0  0
   -5.4250    0.6200    0.8950 C   0  0  0  0  0  0  0  0  0  0  0  0
   -6.4370    0.1820    1.6970 C   0  0  0  0  0  0  0  0  0  0  0  0
  1  2  1  0
  2  3  2  0
  2  4  1  0
  4  5  2  0
  4 36  1  0
  5  6  1  0
  6  7  2  0
  7  8  1  0
  7 35  1  0
  8  9  2  0
  9 10  1  0
  9 33  1  0
 10 11  2  0
 11 12  1  0
 11 32  1  0
 12 13  1  0
 13 14  1  0
 14 15  2  0
 14 16  1  0
 16 17  1  0
 17 18  2  0
 17 31  1  0
 18 19  1  0
 19 20  2  0
 20 21  1  0
 21 22  1  0
 21 31  2  0
 22 23  1  0
 23 24  1  0
 24 25  2  0
 24 26  1  0
 26 27  2  0
 26 30  1  0
 27 28  1  0
 28 29  1  0
 29 30  2  0
 32 33  1  0
 33 34  2  0
 34 35  1  0
 35 36  2  0
M  END
