
     RDKit          3D

 36 40  0  0  0  0  0  0  0  0999 V2000
    7.3870   -1.0470   -1.2310 C   0  0  0  0  0  0  0  0  0  0  0  0
    6.2360   -1.3380   -0.3110 C   0  0  0  0  0  0  0  0  0  0  0  0
    6.4960   -2.0630    0.8150 C   0  0  0  0  0  0  0  0  0  0  0  0
    5.4580   -2.3270    1.6630 C   0  0  0  0  0  0  0  0  0  0  0  0
    4.1620   -1.8560    1.3670 C   0  0  0  0  0  0  0  0  0  0  0  0
    3.8640   -1.1330    0.2520 C   0  0  0  0  0  0  0  0  0  0  0  0
    2.5910   -0.7120   -0.1900 C   0  0  0  0  0  0  0  0  0  0  0  0
    2.6410    0.2910   -1.0540 O   0  0  0  0  0  0  0  0  0  0  0  0
    1.2390   -1.1610    0.1140 C   0  0  0  0  0  0  0  0  0  0  0  0
    0.8480   -2.1700    0.8280 C   0  0  0  0  0  0  0  0  0  0  0  0
    1.5440   -3.1600    1.5350 O   0  0  0  0  0  0  0  0  0  0  0  0
   -0.6450   -2.2090    0.8480 C   0  0  0  0  0  0  0  0  0  0  0  0
   -1.3720   -3.0480    1.4410 O   0  0  0  0  0  0  0  0  0  0  0  0
   -1.1130   -1.1390    0.0840 N   0  0  0  0  0  0  0  0  0  0  0  0
   -2.4710   -0.8150   -0.1730 C   0  0  0  0  0  0  0  0  0  0  0  0
   -3.1720    0.1180    0.5700 C   0  0  0  0  0  0  0  0  0  0  0  0
   -4.5040    0.4230    0.2620 C   0  0  0  0  0  0  0  0  0  0  0  0
   -5.1400   -0.1980   -0.7820 C   0  0  0  0  0  0  0  0  0  0  0  0
   -6.5340    0.1520   -1.1110 C   0  0  0  0  0  0  0  0  0  0  0  0
   -7.4480   -0.7380   -0.3830 C   0  0  0  0  0  0  0  0  0  0  0  0
   -6.9740   -1.6310    0.3590 O   0  0  0  0  0  0  0  0  0  0  0  0
   -8.8110   -0.6310   -0.4840 O   0  0  0  0  0  0  0  0  0  0  0  0
   -4.4690   -1.1220   -1.5280 C   0  0  0  0  0  0  0  0  0  0  0  0
   -3.1580   -1.4110   -1.2120 C   0  0  0  0  0  0  0  0  0  0  0  0
    0.0210   -0.4250   -0.4070 C   0  0  1  0  0  0  0  0  0  0  0  0
    0.0500    0.9890    0.0620 C   0  0  0  0  0  0  0  0  0  0  0  0
    0.0460    1.3430    1.3990 C   0  0  0  0  0  0  0  0  0  0  0  0
    0.0370    2.6790    1.7730 C   0  0  0  0  0  0  0  0  0  0  0  0
    0.0360    3.1200    3.4690 Cl  0  0  0  0  0  0  0  0  0  0  0  0
    0.0310    3.6950    0.8300 C   0  0  0  0  0  0  0  0  0  0  0  0
    0.0350    3.3540   -0.4940 C   0  0  0  0  0  0  0  0  0  0  0  0
    0.0440    2.0080   -0.8690 C   0  0  0  0  0  0  0  0  0  0  0  0
    0.0260    4.5400   -1.2130 O   0  0  0  0  0  0  0  0  0  0  0  0
    0.1180    5.6670   -0.3690 C   0  0  0  0  0  0  0  0  0  0  0  0
    0.0210    5.0950    0.9180 O   0  0  0  0  0  0  0  0  0  0  0  0
    4.9820   -0.8900   -0.5880 C   0  0  0  0  0  0  0  0  0  0  0  0
  1  2  1  0
  2  3  2  0
  2 36  1  0
  3  4  1  0
  4  5  2  0
  5  6  1  0
  6  7  1  0
  6 36  2  0
  7  8  2  0
  7  9  1  0
  9 10  2  0
  9 25  1  0
 10 11  1  0
 10 12  1  0
 12 13  2  0
 12 14  1  0
 14 15  1  0
 14 25  1  0
 15 16  2  0
 15 24  1  0
 16 17  1  0
 17 18  2  0
 18 19  1  0
 18 23  1  0
 19 20  1  0
 20 21  2  0
 20 22  1  0
 23 24  2  0
 25 26  1  1
 26 27  2  0
 26 32  1  0
 27 28  1  0
 28 29  1  0
 28 30  2  0
 30 31  1  0
 30 35  1  0
 31 32  2  0
 31 33  1  0
 33 34  1  0
 34 35  1  0
M  END
