
     RDKit          3D

 41 45  0  0  0  0  0  0  0  0999 V2000
   -0.5020   -2.7120    2.0510 C   0  0  0  0  0  0  0  0  0  0  0  0
   -1.2650   -1.9360    1.0570 C   0  0  0  0  0  0  0  0  0  0  0  0
   -1.8600   -2.5910    0.0470 C   0  0  0  0  0  0  0  0  0  0  0  0
   -2.6500   -1.8630   -0.9970 C   0  0  0  0  0  0  0  0  0  0  0  0
   -2.3140   -2.4170   -2.3450 C   0  0  0  0  0  0  0  0  0  0  0  0
   -2.5570   -3.8840   -2.4880 C   0  0  1  0  0  0  0  0  0  0  0  0
   -1.3580   -4.4380   -3.2760 C   0  0  0  0  0  0  0  0  0  0  0  0
   -2.5940   -4.6390   -1.1980 C   0  0  0  0  0  0  0  0  0  0  0  0
   -1.8060   -4.0360   -0.1170 C   0  0  0  0  0  0  0  0  0  0  0  0
   -1.1200   -4.7540    0.6250 O   0  0  0  0  0  0  0  0  0  0  0  0
   -1.5400   -0.5120    1.1340 C   0  0  0  0  0  0  0  0  0  0  0  0
   -2.9030   -0.1410    1.3260 C   0  0  0  0  0  0  0  0  0  0  0  0
   -3.2850    1.1630    1.4200 C   0  0  0  0  0  0  0  0  0  0  0  0
   -2.3210    2.1400    1.3260 C   0  0  0  0  0  0  0  0  0  0  0  0
   -2.7580    3.5670    1.4340 C   0  0  2  0  0  0  0  0  0  0  0  0
   -3.6480    3.7500    2.5010 O   0  0  0  0  0  0  0  0  0  0  0  0
   -3.4540    4.0270    0.1870 C   0  0  0  0  0  0  0  0  0  0  0  0
   -3.8350    5.4920    0.4570 C   0  0  0  0  0  0  0  0  0  0  0  0
   -4.9920    5.8970    1.0080 C   0  0  0  0  0  0  0  0  0  0  0  0
   -5.2590    7.1750    1.2130 C   0  0  0  0  0  0  0  0  0  0  0  0
   -3.7430    7.9980    0.5810 S   0  0  0  0  0  0  0  0  0  0  0  0
   -2.9220    6.4560    0.1080 C   0  0  0  0  0  0  0  0  0  0  0  0
   -1.0070    1.8290    1.1410 C   0  0  0  0  0  0  0  0  0  0  0  0
   -0.6150    0.4760    1.0420 C   0  0  0  0  0  0  0  0  0  0  0  0
    0.7780    0.2610    0.7550 C   0  0  0  0  0  0  0  0  0  0  0  0
    1.5560    1.2940    0.7510 O   0  0  0  0  0  0  0  0  0  0  0  0
    1.4640   -1.0010    0.4490 C   0  0  0  0  0  0  0  0  0  0  0  0
    2.7250   -0.7310   -0.2980 N   0  0  0  0  0  0  0  0  0  0  0  0
    3.8600   -0.4420    0.4560 C   0  0  0  0  0  0  0  0  0  0  0  0
    4.9610   -0.2400   -0.1010 O   0  0  0  0  0  0  0  0  0  0  0  0
    3.8260   -0.3630    1.8630 N   0  0  0  0  0  0  0  0  0  0  0  0
    5.0530   -0.0600    2.6230 C   0  0  2  0  0  0  0  0  0  0  0  0
    5.2760   -0.7880    3.9000 C   0  0  0  0  0  0  0  0  0  0  0  0
    4.9940    0.6690    3.8910 C   0  0  0  0  0  0  0  0  0  0  0  0
    2.6070   -0.8490   -1.7160 C   0  0  2  0  0  0  0  0  0  0  0  0
    3.4890   -2.0490   -2.1080 C   0  0  0  0  0  0  0  0  0  0  0  0
    4.6570   -1.3910   -2.7560 C   0  0  0  0  0  0  0  0  0  0  0  0
    4.5340   -0.0270   -2.5670 O   0  0  0  0  0  0  0  0  0  0  0  0
    3.1900    0.2230   -2.5690 C   0  0  2  0  0  0  0  0  0  0  0  0
    2.8270    1.6290   -2.1970 C   0  0  0  0  0  0  0  0  0  0  0  0
    1.4520    1.8280   -2.2460 O   0  0  0  0  0  0  0  0  0  0  0  0
  1  2  1  0
  2  3  2  3
  2 11  1  0
  3  4  1  0
  3  9  1  0
  4  5  1  0
  5  6  1  0
  6  7  1  6
  6  8  1  0
  8  9  1  0
  9 10  2  0
 11 12  2  0
 11 24  1  0
 12 13  1  0
 13 14  2  0
 14 15  1  0
 14 23  1  0
 15 16  1  1
 15 17  1  0
 17 18  1  0
 18 19  1  0
 18 22  2  0
 19 20  2  0
 20 21  1  0
 21 22  1  0
 23 24  2  0
 24 25  1  0
 25 26  2  0
 25 27  1  0
 27 28  1  0
 28 29  1  0
 35 28  1  1
 29 30  2  0
 29 31  1  0
 32 31  1  1
 32 33  1  0
 32 34  1  0
 33 34  1  0
 35 36  1  0
 35 39  1  0
 36 37  1  0
 37 38  1  0
 38 39  1  0
 39 40  1  1
 40 41  1  0
M  END
