
     RDKit          3D

 41 45  0  0  0  0  0  0  0  0999 V2000
    9.2300    1.4560    2.0750 C   0  0  0  0  0  0  0  0  0  0  0  0
    9.2430    0.8770    0.7680 N   0  0  0  0  0  0  0  0  0  0  0  0
    9.1420    1.8230   -0.2950 C   0  0  0  0  0  0  0  0  0  0  0  0
    7.7800    1.9080   -0.8700 C   0  0  0  0  0  0  0  0  0  0  0  0
    7.5880    2.6150   -1.9020 O   0  0  0  0  0  0  0  0  0  0  0  0
    6.6550    1.2000   -0.2780 C   0  0  0  0  0  0  0  0  0  0  0  0
    5.3420    1.5980   -0.4980 C   0  0  0  0  0  0  0  0  0  0  0  0
    4.2940    0.9140    0.0790 C   0  0  0  0  0  0  0  0  0  0  0  0
    2.9640    1.2550   -0.0980 O   0  0  0  0  0  0  0  0  0  0  0  0
    2.2690    0.5140   -1.0760 C   0  0  0  0  0  0  0  0  0  0  0  0
    2.8850   -0.3960   -1.7160 O   0  0  0  0  0  0  0  0  0  0  0  0
    0.8470    0.7540   -1.3890 C   0  0  0  0  0  0  0  0  0  0  0  0
    0.4220   -0.2680   -2.4300 C   0  0  1  0  0  0  0  0  0  0  0  0
    0.6050   -1.9540   -1.8640 S   0  0  0  0  0  0  0  0  0  0  0  0
   -0.4580   -2.4210   -0.5460 C   0  0  0  0  0  0  0  0  0  0  0  0
   -1.6840   -2.9910   -0.8230 C   0  0  0  0  0  0  0  0  0  0  0  0
   -2.5420   -3.3680    0.2190 C   0  0  0  0  0  0  0  0  0  0  0  0
   -2.1720   -3.1750    1.5120 C   0  0  0  0  0  0  0  0  0  0  0  0
   -0.9570   -2.6090    1.8050 C   0  0  0  0  0  0  0  0  0  0  0  0
   -0.1210   -2.2420    0.7730 C   0  0  0  0  0  0  0  0  0  0  0  0
   -0.9180    0.1050   -2.8870 C   0  0  0  0  0  0  0  0  0  0  0  0
   -1.1030    0.2150   -4.1480 O   0  0  0  0  0  0  0  0  0  0  0  0
   -1.9990    0.3450   -2.0090 N   0  0  0  0  0  0  0  0  0  0  0  0
   -3.2720    0.7010   -2.5350 C   0  0  0  0  0  0  0  0  0  0  0  0
   -4.3240    0.9450   -1.4700 C   0  0  1  0  0  0  0  0  0  0  0  0
   -5.6340    1.3990   -2.1160 C   0  0  0  0  0  0  0  0  0  0  0  0
   -4.5130   -0.2190   -0.5780 C   0  0  0  0  0  0  0  0  0  0  0  0
   -4.7580    0.2950    0.7710 C   0  0  2  0  0  0  0  0  0  0  0  0
   -5.9980   -0.0550    1.4420 C   0  0  0  0  0  0  0  0  0  0  0  0
   -5.9590   -0.3190    2.8150 C   0  0  0  0  0  0  0  0  0  0  0  0
   -7.0930   -0.6630    3.5200 C   0  0  0  0  0  0  0  0  0  0  0  0
   -8.3160   -0.7570    2.8880 C   0  0  0  0  0  0  0  0  0  0  0  0
   -8.3810   -0.5040    1.5450 C   0  0  0  0  0  0  0  0  0  0  0  0
   -7.2380   -0.1620    0.8520 C   0  0  0  0  0  0  0  0  0  0  0  0
   -4.6470    1.7890    0.5680 C   0  0  0  0  0  0  0  0  0  0  0  0
   -5.0860    2.7160    1.2970 O   0  0  0  0  0  0  0  0  0  0  0  0
   -3.9480    1.9990   -0.6100 O   0  0  0  0  0  0  0  0  0  0  0  0
    4.5880   -0.1760    0.8810 C   0  0  0  0  0  0  0  0  0  0  0  0
    5.9010   -0.5940    1.1150 C   0  0  0  0  0  0  0  0  0  0  0  0
    6.9280    0.1140    0.5210 C   0  0  0  0  0  0  0  0  0  0  0  0
    8.3600   -0.2440    0.6950 C   0  0  0  0  0  0  0  0  0  0  0  0
  1  2  1  0
  2  3  1  0
  2 41  1  0
  3  4  1  0
  4  5  2  0
  4  6  1  0
  6  7  2  0
  6 40  1  0
  7  8  1  0
  8  9  1  0
  8 38  2  0
  9 10  1  0
 10 11  2  0
 10 12  1  0
 13 12  1  1
 13 14  1  0
 13 21  1  0
 14 15  1  0
 15 16  2  0
 15 20  1  0
 16 17  1  0
 17 18  2  0
 18 19  1  0
 19 20  2  0
 21 22  2  0
 21 23  1  0
 23 24  1  0
 24 25  1  0
 25 26  1  6
 25 27  1  0
 25 37  1  0
 27 28  1  0
 28 29  1  6
 28 35  1  0
 29 30  2  0
 29 34  1  0
 30 31  1  0
 31 32  2  0
 32 33  1  0
 33 34  2  0
 35 36  2  0
 35 37  1  0
 38 39  1  0
 39 40  2  0
 40 41  1  0
M  END
