
     RDKit          3D

 41 45  0  0  0  0  0  0  0  0999 V2000
    2.4630    6.9280   -0.0970 C   0  0  0  0  0  0  0  0  0  0  0  0
    1.6300    5.7510   -0.6400 C   0  0  2  0  0  0  0  0  0  0  0  0
    1.0440    6.1810   -1.9190 C   0  0  0  0  0  0  0  0  0  0  0  0
    0.7550    5.2610    0.4300 C   0  0  0  0  0  0  0  0  0  0  0  0
   -0.1680    4.1340    0.2140 C   0  0  1  0  0  0  0  0  0  0  0  0
   -1.1920    4.3760   -0.8800 C   0  0  0  0  0  0  0  0  0  0  0  0
    0.4830    2.7860    0.0190 C   0  0  0  0  0  0  0  0  0  0  0  0
   -0.3990    1.7440    0.6750 C   0  0  1  0  0  0  0  0  0  0  0  0
   -0.1900    0.3980    0.2240 N   0  0  0  0  0  0  0  0  0  0  0  0
    1.0730   -0.2130   -0.0380 C   0  0  0  0  0  0  0  0  0  0  0  0
    1.9840   -0.4790    1.0900 C   0  0  2  0  0  0  0  0  0  0  0  0
    2.4090    0.6600    1.7880 O   0  0  0  0  0  0  0  0  0  0  0  0
    3.2450   -1.0970    0.5740 C   0  0  0  0  0  0  0  0  0  0  0  0
    4.1510   -0.2760   -0.0720 C   0  0  0  0  0  0  0  0  0  0  0  0
    5.3510   -0.7580   -0.5580 C   0  0  0  0  0  0  0  0  0  0  0  0
    5.6590   -2.1000   -0.3980 C   0  0  0  0  0  0  0  0  0  0  0  0
    4.7850   -2.9440    0.2370 C   0  0  0  0  0  0  0  0  0  0  0  0
    3.5840   -2.4040    0.7100 C   0  0  0  0  0  0  0  0  0  0  0  0
    4.8900   -4.3680    0.5240 C   0  0  0  0  0  0  0  0  0  0  0  0
    5.6480   -5.2640    0.0360 N   0  0  0  0  0  0  0  0  0  0  0  0
    6.6530   -5.2540   -0.9400 C   0  0  0  0  0  0  0  0  0  0  0  0
    7.0110   -6.5040   -1.4820 O   0  0  0  0  0  0  0  0  0  0  0  0
    7.3200   -4.2450   -1.4290 C   0  0  0  0  0  0  0  0  0  0  0  0
    7.2690   -2.4960   -1.1060 S   0  0  0  0  0  0  0  0  0  0  0  0
   -1.3980   -0.3740    0.0550 C   0  0  0  0  0  0  0  0  0  0  0  0
   -2.5270    0.0710   -0.5810 C   0  0  0  0  0  0  0  0  0  0  0  0
   -3.6670   -0.6940   -0.6770 C   0  0  0  0  0  0  0  0  0  0  0  0
   -3.7270   -1.9590   -0.1330 C   0  0  0  0  0  0  0  0  0  0  0  0
   -4.8950   -2.6990   -0.2480 O   0  0  0  0  0  0  0  0  0  0  0  0
   -5.1490   -3.9690    0.2390 C   0  0  2  0  0  0  0  0  0  0  0  0
   -5.6270   -4.8540   -0.9010 C   0  0  0  0  0  0  0  0  0  0  0  0
   -7.0810   -5.1900   -0.7120 C   0  0  0  0  0  0  0  0  0  0  0  0
   -7.8350   -3.8960   -0.4540 C   0  0  0  0  0  0  0  0  0  0  0  0
   -7.5560   -3.5820    0.9220 O   0  0  0  0  0  0  0  0  0  0  0  0
   -6.2220   -3.8200    1.2890 C   0  0  0  0  0  0  0  0  0  0  0  0
   -5.9510   -3.9030    2.4980 O   0  0  0  0  0  0  0  0  0  0  0  0
   -2.6060   -2.4210    0.5070 C   0  0  0  0  0  0  0  0  0  0  0  0
   -1.4520   -1.6340    0.5990 C   0  0  0  0  0  0  0  0  0  0  0  0
   -0.5460    1.9000    2.1670 C   0  0  0  0  0  0  0  0  0  0  0  0
   -0.2820    3.3950    2.4240 C   0  0  0  0  0  0  0  0  0  0  0  0
   -0.9240    4.0440    1.4060 O   0  0  0  0  0  0  0  0  0  0  0  0
  2  1  1  1
  2  3  1  0
  2  4  1  0
  4  5  1  0
  5  6  1  6
  5  7  1  0
  5 41  1  0
  7  8  1  0
  8  9  1  1
  8 39  1  0
  9 10  1  0
  9 25  1  0
 10 11  1  0
 11 12  1  6
 11 13  1  0
 13 14  2  0
 13 18  1  0
 14 15  1  0
 15 16  2  0
 16 17  1  0
 16 24  1  0
 17 18  2  0
 17 19  1  0
 19 20  2  0
 20 21  1  0
 21 22  1  0
 21 23  2  0
 23 24  1  0
 25 26  2  0
 25 38  1  0
 26 27  1  0
 27 28  2  0
 28 29  1  0
 28 37  1  0
 30 29  1  6
 30 31  1  0
 30 35  1  0
 31 32  1  0
 32 33  1  0
 33 34  1  0
 34 35  1  0
 35 36  2  0
 37 38  2  0
 39 40  1  0
 40 41  1  0
M  END
