
     RDKit          3D

 38 42  0  0  0  0  0  0  0  0999 V2000
   -6.3340   -1.6240    2.1050 O   0  0  0  0  0  0  0  0  0  0  0  0
   -6.2940   -2.1510    0.9710 C   0  0  0  0  0  0  0  0  0  0  0  0
   -7.4420   -2.7530    0.4860 O   0  0  0  0  0  0  0  0  0  0  0  0
   -5.0630   -2.1250    0.1920 C   0  0  0  0  0  0  0  0  0  0  0  0
   -5.0320   -2.6820   -1.0560 C   0  0  0  0  0  0  0  0  0  0  0  0
   -3.8780   -2.6760   -1.8000 C   0  0  0  0  0  0  0  0  0  0  0  0
   -2.7500   -2.0950   -1.2630 C   0  0  0  0  0  0  0  0  0  0  0  0
   -2.7390   -1.5200   -0.0050 C   0  0  0  0  0  0  0  0  0  0  0  0
   -1.5060   -1.0110    0.4640 N   0  0  0  0  0  0  0  0  0  0  0  0
   -1.0040   -1.1520    1.8120 C   0  0  0  0  0  0  0  0  0  0  0  0
   -1.6950   -1.3850    2.8090 O   0  0  0  0  0  0  0  0  0  0  0  0
    0.4780   -0.9640    1.7320 C   0  0  0  0  0  0  0  0  0  0  0  0
    1.2220   -1.0760    2.9230 O   0  0  0  0  0  0  0  0  0  0  0  0
    0.8320   -0.7090    0.5170 C   0  0  0  0  0  0  0  0  0  0  0  0
    2.0680   -0.4830   -0.1670 C   0  0  0  0  0  0  0  0  0  0  0  0
    1.8690   -0.1400   -1.4370 O   0  0  0  0  0  0  0  0  0  0  0  0
    3.4470   -0.5390    0.1700 C   0  0  0  0  0  0  0  0  0  0  0  0
    3.9570   -0.9410    1.3770 C   0  0  0  0  0  0  0  0  0  0  0  0
    5.3360   -1.0210    1.5480 C   0  0  0  0  0  0  0  0  0  0  0  0
    6.2190   -0.7120    0.5580 C   0  0  0  0  0  0  0  0  0  0  0  0
    5.7500   -0.2980   -0.6780 C   0  0  0  0  0  0  0  0  0  0  0  0
    6.6920    0.0430   -1.7850 C   0  0  2  0  0  0  0  0  0  0  0  0
    6.4470   -0.7420   -2.8990 F   0  0  0  0  0  0  0  0  0  0  0  0
    7.9910   -0.3030   -1.3830 F   0  0  0  0  0  0  0  0  0  0  0  0
    6.7170    1.3720   -2.0850 F   0  0  0  0  0  0  0  0  0  0  0  0
    4.3920   -0.2260   -0.8260 C   0  0  0  0  0  0  0  0  0  0  0  0
   -0.4750   -0.3670   -0.2390 C   0  0  2  0  0  0  0  0  0  0  0  0
   -0.6440    1.0930   -0.3490 C   0  0  0  0  0  0  0  0  0  0  0  0
   -1.3490    1.5440   -1.4720 C   0  0  0  0  0  0  0  0  0  0  0  0
   -1.5780    2.8670   -1.6740 C   0  0  0  0  0  0  0  0  0  0  0  0
   -2.4690    3.4460   -3.0830 Cl  0  0  0  0  0  0  0  0  0  0  0  0
   -1.1290    3.8370   -0.7890 C   0  0  0  0  0  0  0  0  0  0  0  0
   -0.4270    3.3870    0.3250 C   0  0  0  0  0  0  0  0  0  0  0  0
   -0.1950    2.0330    0.5310 C   0  0  0  0  0  0  0  0  0  0  0  0
   -0.0930    4.5370    1.0340 O   0  0  0  0  0  0  0  0  0  0  0  0
   -0.7630    5.6480    0.4900 C   0  0  0  0  0  0  0  0  0  0  0  0
   -1.2350    5.2240   -0.7720 O   0  0  0  0  0  0  0  0  0  0  0  0
   -3.9080   -1.5520    0.6920 C   0  0  0  0  0  0  0  0  0  0  0  0
  1  2  2  0
  2  3  1  0
  2  4  1  0
  4  5  2  0
  4 38  1  0
  5  6  1  0
  6  7  2  0
  7  8  1  0
  8  9  1  0
  8 38  2  0
  9 10  1  0
  9 27  1  0
 10 11  2  0
 10 12  1  0
 12 13  1  0
 12 14  2  0
 14 15  1  0
 14 27  1  0
 15 16  2  0
 15 17  1  0
 17 18  2  0
 17 26  1  0
 18 19  1  0
 19 20  2  0
 20 21  1  0
 21 22  1  0
 21 26  2  0
 22 23  1  6
 22 24  1  0
 22 25  1  0
 27 28  1  1
 28 29  2  0
 28 34  1  0
 29 30  1  0
 30 31  1  0
 30 32  2  0
 32 33  1  0
 32 37  1  0
 33 34  2  0
 33 35  1  0
 35 36  1  0
 36 37  1  0
M  END
