
     RDKit          3D

 41 45  0  0  0  0  0  0  0  0999 V2000
    9.0520    5.6380    1.8630 C   0  0  0  0  0  0  0  0  0  0  0  0
    8.5390    4.3060    1.6460 C   0  0  0  0  0  0  0  0  0  0  0  0
    9.0390    3.0300    1.6390 C   0  0  0  0  0  0  0  0  0  0  0  0
    8.2530    1.9870    1.4100 C   0  0  0  0  0  0  0  0  0  0  0  0
    6.9290    2.2170    1.1810 C   0  0  0  0  0  0  0  0  0  0  0  0
    5.8550    1.1920    0.8000 C   0  0  0  0  0  0  0  0  0  0  0  0
    5.9620    1.1480   -0.6930 C   0  0  1  0  0  0  0  0  0  0  0  0
    7.2200    0.7500   -1.1630 O   0  0  0  0  0  0  0  0  0  0  0  0
    4.9510    0.4390   -1.4790 C   0  0  0  0  0  0  0  0  0  0  0  0
    3.7130    0.5240   -1.2420 O   0  0  0  0  0  0  0  0  0  0  0  0
    2.7630    0.0970   -0.4960 C   0  0  0  0  0  0  0  0  0  0  0  0
    2.4580   -1.3850   -0.7380 C   0  0  0  0  0  0  0  0  0  0  0  0
    2.9870   -2.4690   -0.4300 O   0  0  0  0  0  0  0  0  0  0  0  0
    2.2350   -3.5000   -0.8810 C   0  0  0  0  0  0  0  0  0  0  0  0
    2.5540   -4.9620   -0.6980 C   0  0  1  0  0  0  0  0  0  0  0  0
    1.6700   -5.7430    0.1640 C   0  0  0  0  0  0  0  0  0  0  0  0
    1.4580   -7.0670   -0.5720 C   0  0  0  0  0  0  0  0  0  0  0  0
    1.8400   -6.6990   -1.9800 C   0  0  0  0  0  0  0  0  0  0  0  0
    2.5420   -5.5660   -1.9680 O   0  0  0  0  0  0  0  0  0  0  0  0
    1.1480   -2.9230   -1.5270 C   0  0  0  0  0  0  0  0  0  0  0  0
    1.2470   -1.5730   -1.4750 C   0  0  0  0  0  0  0  0  0  0  0  0
    0.6410   -0.4910   -2.1570 C   0  0  0  0  0  0  0  0  0  0  0  0
   -0.5220    0.0580   -2.1630 C   0  0  0  0  0  0  0  0  0  0  0  0
   -1.5920   -0.4280   -1.3080 C   0  0  0  0  0  0  0  0  0  0  0  0
   -1.4140   -1.5150   -0.6620 O   0  0  0  0  0  0  0  0  0  0  0  0
   -2.7820    0.3070   -1.1610 O   0  0  0  0  0  0  0  0  0  0  0  0
   -3.6660   -0.2930   -0.2040 C   0  0  1  0  0  0  0  0  0  0  0  0
   -2.8630    0.2410    1.1260 C   0  0  0  0  0  0  0  0  0  0  0  0
   -4.9970    0.3040   -0.0900 C   0  0  0  0  0  0  0  0  0  0  0  0
   -6.1450   -0.3440   -0.4790 C   0  0  0  0  0  0  0  0  0  0  0  0
   -7.3990    0.1820   -0.2650 C   0  0  0  0  0  0  0  0  0  0  0  0
   -8.6310   -0.5130   -0.7700 C   0  0  0  0  0  0  0  0  0  0  0  0
   -7.5840    1.3940    0.3540 C   0  0  0  0  0  0  0  0  0  0  0  0
   -6.4630    2.0560    0.7350 C   0  0  0  0  0  0  0  0  0  0  0  0
   -5.1980    1.5370    0.5280 C   0  0  0  0  0  0  0  0  0  0  0  0
   -6.6320    3.4250    1.3500 C   0  0  0  0  0  0  0  0  0  0  0  0
   -7.7840    3.3980    2.2980 C   0  0  0  0  0  0  0  0  0  0  0  0
   -9.0200    3.0140    1.5390 C   0  0  0  0  0  0  0  0  0  0  0  0
  -10.1320    3.6800    1.6470 N   0  0  0  0  0  0  0  0  0  0  0  0
   -8.9110    1.8490    0.7330 N   0  0  0  0  0  0  0  0  0  0  0  0
    6.7650    3.9330    1.2920 S   0  0  0  0  0  0  0  0  0  0  0  0
  1  2  1  0
  2  3  2  0
  2 41  1  0
  3  4  1  0
  4  5  2  0
  5  6  1  0
  5 41  1  0
  6  7  1  0
  7  8  1  1
  7  9  1  0
  9 10  1  0
 10 11  1  0
 11 12  1  0
 12 13  1  0
 12 21  2  0
 13 14  1  0
 15 14  1  6
 14 20  2  0
 15 16  1  0
 15 19  1  0
 16 17  1  0
 17 18  1  0
 18 19  1  0
 20 21  1  0
 21 22  1  0
 22 23  2  3
 23 24  1  0
 24 25  2  0
 24 26  1  0
 26 27  1  0
 27 28  1  1
 27 29  1  0
 29 30  2  0
 29 35  1  0
 30 31  1  0
 31 32  1  0
 31 33  2  0
 33 34  1  0
 33 40  1  0
 34 35  2  0
 34 36  1  0
 36 37  1  0
 37 38  1  0
 38 39  2  0
 38 40  1  0
M  END
