
     RDKit          3D

 41 45  0  0  0  0  0  0  0  0999 V2000
   -8.5500    5.0590    1.0510 C   0  0  0  0  0  0  0  0  0  0  0  0
   -8.5930    4.9040   -0.4670 C   0  0  0  0  0  0  0  0  0  0  0  0
   -7.3690    4.1290   -0.8390 C   0  0  0  0  0  0  0  0  0  0  0  0
   -6.9410    3.7230   -2.0740 C   0  0  0  0  0  0  0  0  0  0  0  0
   -5.7950    3.0170   -2.1300 C   0  0  0  0  0  0  0  0  0  0  0  0
   -5.1280    2.7400   -1.0150 C   0  0  0  0  0  0  0  0  0  0  0  0
   -3.8700    1.9750   -0.7610 C   0  0  0  0  0  0  0  0  0  0  0  0
   -4.2900    0.6970   -0.3580 O   0  0  0  0  0  0  0  0  0  0  0  0
   -3.4730   -0.3440   -0.0350 C   0  0  0  0  0  0  0  0  0  0  0  0
   -2.1080   -0.3070   -0.0490 C   0  0  0  0  0  0  0  0  0  0  0  0
   -1.2990   -1.4070    0.2900 C   0  0  0  0  0  0  0  0  0  0  0  0
    0.1190   -1.2160    0.2440 N   0  0  0  0  0  0  0  0  0  0  0  0
    1.0480   -2.1680    0.6860 C   0  0  0  0  0  0  0  0  0  0  0  0
    0.6240   -3.2820    1.1520 O   0  0  0  0  0  0  0  0  0  0  0  0
    2.4850   -1.9420    0.6420 C   0  0  0  0  0  0  0  0  0  0  0  0
    3.3250   -2.8550    1.0550 C   0  0  0  0  0  0  0  0  0  0  0  0
    3.1570   -4.1630    1.6030 C   0  0  0  0  0  0  0  0  0  0  0  0
    2.1370   -4.7860    1.8370 O   0  0  0  0  0  0  0  0  0  0  0  0
    3.0830   -0.6570    0.2160 C   0  0  0  0  0  0  0  0  0  0  0  0
    2.3550    0.2650   -0.2490 O   0  0  0  0  0  0  0  0  0  0  0  0
    4.4450   -0.3520    0.2920 N   0  0  0  0  0  0  0  0  0  0  0  0
    4.9730    0.9510   -0.1470 C   0  0  1  0  0  0  0  0  0  0  0  0
    5.3630    1.7800    1.0420 C   0  0  0  0  0  0  0  0  0  0  0  0
    6.4830    2.4570    0.6660 O   0  0  0  0  0  0  0  0  0  0  0  0
    7.2440    1.5930   -0.1240 C   0  0  1  0  0  0  0  0  0  0  0  0
    8.0180    2.4630   -1.0720 C   0  0  0  0  0  0  0  0  0  0  0  0
    9.3410    1.8120   -1.4340 C   0  0  0  0  0  0  0  0  0  0  0  0
   10.1400    1.8300   -0.1240 C   0  0  0  0  0  0  0  0  0  0  0  0
    9.5070    0.8420    0.7900 C   0  0  0  0  0  0  0  0  0  0  0  0
    8.0380    0.7240    0.7710 C   0  0  0  0  0  0  0  0  0  0  0  0
    6.2210    0.8050   -0.9330 C   0  0  0  0  0  0  0  0  0  0  0  0
   -1.9160   -2.5600    0.6480 C   0  0  0  0  0  0  0  0  0  0  0  0
   -3.3150   -2.6030    0.6640 C   0  0  0  0  0  0  0  0  0  0  0  0
   -4.1060   -1.5350    0.3350 C   0  0  0  0  0  0  0  0  0  0  0  0
   -5.5000   -1.4150    0.3020 O   0  0  0  0  0  0  0  0  0  0  0  0
   -6.3860   -2.5230    0.4130 C   0  0  0  0  0  0  0  0  0  0  0  0
   -5.8260   -3.6100   -0.4490 C   0  0  2  0  0  0  0  0  0  0  0  0
   -6.9640   -4.4260   -1.0410 C   0  0  0  0  0  0  0  0  0  0  0  0
   -4.8740   -4.5210    0.2170 C   0  0  0  0  0  0  0  0  0  0  0  0
   -3.8320   -3.9350    1.0850 C   0  0  0  0  0  0  0  0  0  0  0  0
   -6.1280    3.5020    0.2670 S   0  0  0  0  0  0  0  0  0  0  0  0
  1  2  1  0
  2  3  1  0
  3  4  2  0
  3 41  1  0
  4  5  1  0
  5  6  2  0
  6  7  1  0
  6 41  1  0
  7  8  1  0
  8  9  1  0
  9 10  2  0
  9 34  1  0
 10 11  1  0
 11 12  1  0
 11 32  2  0
 12 13  1  0
 13 14  2  0
 13 15  1  0
 15 16  2  3
 15 19  1  0
 16 17  1  0
 17 18  2  0
 19 20  2  0
 19 21  1  0
 22 21  1  1
 22 23  1  0
 22 31  1  0
 23 24  1  0
 24 25  1  0
 25 26  1  6
 25 30  1  0
 25 31  1  0
 26 27  1  0
 27 28  1  0
 28 29  1  0
 29 30  1  0
 32 33  1  0
 33 34  2  0
 33 40  1  0
 34 35  1  0
 35 36  1  0
 36 37  1  0
 37 38  1  1
 37 39  1  0
 39 40  1  0
M  END
