
     RDKit          3D

 41 45  0  0  0  0  0  0  0  0999 V2000
   -4.8540   -4.3850    0.2440 C   0  0  0  0  0  0  0  0  0  0  0  0
   -4.6580   -4.2030   -1.0380 C   0  0  0  0  0  0  0  0  0  0  0  0
   -3.5700   -3.3410   -1.5530 C   0  0  0  0  0  0  0  0  0  0  0  0
   -3.5150   -3.2670   -2.8780 C   0  0  0  0  0  0  0  0  0  0  0  0
   -4.5080   -4.0240   -3.6940 C   0  0  0  0  0  0  0  0  0  0  0  0
   -2.7050   -2.6870   -0.6570 N   0  0  0  0  0  0  0  0  0  0  0  0
   -1.6260   -1.8350   -0.9990 C   0  0  0  0  0  0  0  0  0  0  0  0
   -1.3770   -1.6110   -2.1940 O   0  0  0  0  0  0  0  0  0  0  0  0
   -0.7850   -1.2050    0.0980 C   0  0  1  0  0  0  0  0  0  0  0  0
   -0.1520   -2.4140    0.7780 C   0  0  0  0  0  0  0  0  0  0  0  0
    0.0980   -0.3370   -0.5200 O   0  0  0  0  0  0  0  0  0  0  0  0
    0.4780    0.9270   -0.1600 C   0  0  0  0  0  0  0  0  0  0  0  0
   -0.2960    2.0690   -0.4720 C   0  0  0  0  0  0  0  0  0  0  0  0
   -1.4190    1.8510   -1.1280 O   0  0  0  0  0  0  0  0  0  0  0  0
   -2.5180    2.3270   -1.6540 C   0  0  0  0  0  0  0  0  0  0  0  0
   -3.3160    1.4540   -2.4430 C   0  0  0  0  0  0  0  0  0  0  0  0
   -4.4830    1.8870   -3.0250 C   0  0  0  0  0  0  0  0  0  0  0  0
   -4.9220    3.1810   -2.8640 C   0  0  0  0  0  0  0  0  0  0  0  0
   -4.1850    4.0620   -2.1110 C   0  0  0  0  0  0  0  0  0  0  0  0
   -2.9920    3.5920   -1.5260 C   0  0  0  0  0  0  0  0  0  0  0  0
   -4.8420    5.2850   -2.1100 O   0  0  0  0  0  0  0  0  0  0  0  0
   -5.7880    5.2820   -3.1640 C   0  0  0  0  0  0  0  0  0  0  0  0
   -6.0390    3.8960   -3.3200 O   0  0  0  0  0  0  0  0  0  0  0  0
    0.1210    3.3200   -0.0960 C   0  0  0  0  0  0  0  0  0  0  0  0
    1.3240    3.4540    0.6000 C   0  0  0  0  0  0  0  0  0  0  0  0
    2.1130    2.3630    0.9230 C   0  0  0  0  0  0  0  0  0  0  0  0
    1.6500    1.1290    0.5260 C   0  0  0  0  0  0  0  0  0  0  0  0
    2.4790   -0.0170    0.9600 C   0  0  0  0  0  0  0  0  0  0  0  0
    3.5720    0.0960    1.6870 C   0  0  0  0  0  0  0  0  0  0  0  0
    4.3340   -1.0870    2.0620 C   0  0  0  0  0  0  0  0  0  0  0  0
    5.3710   -0.9430    2.7510 O   0  0  0  0  0  0  0  0  0  0  0  0
    3.9510   -2.3850    1.6800 N   0  0  0  0  0  0  0  0  0  0  0  0
    4.7310   -3.5310    2.0700 C   0  0  0  0  0  0  0  0  0  0  0  0
    4.3540   -4.7210    1.7040 C   0  0  0  0  0  0  0  0  0  0  0  0
    6.1860   -3.2680    3.0410 S   0  0  0  0  0  0  0  0  0  0  0  0
    7.0340   -4.8040    3.4340 C   0  0  0  0  0  0  0  0  0  0  0  0
    4.0370    1.4110    2.2340 C   0  0  0  0  0  0  0  0  0  0  0  0
    3.4330    2.5450    1.5700 C   0  0  2  0  0  0  0  0  0  0  0  0
    3.3710    3.8070    2.4330 C   0  0  0  0  0  0  0  0  0  0  0  0
    3.1010    4.9270    1.4350 C   0  0  0  0  0  0  0  0  0  0  0  0
    1.6910    4.8460    0.9850 C   0  0  0  0  0  0  0  0  0  0  0  0
  1  2  2  0
  2  3  1  0
  3  4  2  3
  3  6  1  0
  4  5  1  0
  6  7  1  0
  7  8  2  0
  7  9  1  0
  9 10  1  6
  9 11  1  0
 11 12  1  0
 12 13  2  0
 12 27  1  0
 13 14  1  0
 13 24  1  0
 14 15  1  0
 15 16  2  0
 15 20  1  0
 16 17  1  0
 17 18  2  0
 18 19  1  0
 18 23  1  0
 19 20  2  0
 19 21  1  0
 21 22  1  0
 22 23  1  0
 24 25  2  0
 25 26  1  0
 25 41  1  0
 26 27  2  0
 26 38  1  0
 27 28  1  0
 28 29  2  0
 29 30  1  0
 29 37  1  0
 30 31  2  0
 30 32  1  0
 32 33  1  0
 33 34  2  0
 33 35  1  0
 35 36  1  0
 38 37  1  1
 38 39  1  0
 39 40  1  0
 40 41  1  0
M  END
