
     RDKit          3D

 41 45  0  0  0  0  0  0  0  0999 V2000
    2.6880   -1.7380   -0.1740 C   0  0  0  0  0  0  0  0  0  0  0  0
    3.7030   -2.7390   -0.6480 C   0  0  0  0  0  0  0  0  0  0  0  0
    4.1590   -3.6310    0.3660 C   0  0  0  0  0  0  0  0  0  0  0  0
    5.0480   -4.5970    0.0060 C   0  0  0  0  0  0  0  0  0  0  0  0
    5.5170   -4.7460   -1.2790 C   0  0  0  0  0  0  0  0  0  0  0  0
    5.0590   -3.8710   -2.2330 C   0  0  0  0  0  0  0  0  0  0  0  0
    4.1440   -2.8540   -1.9200 C   0  0  0  0  0  0  0  0  0  0  0  0
    3.7310   -1.9190   -2.9890 C   0  0  0  0  0  0  0  0  0  0  0  0
    4.5070   -0.6700   -3.1390 C   0  0  0  0  0  0  0  0  0  0  0  0
    4.4540    0.2220   -1.9820 C   0  0  0  0  0  0  0  0  0  0  0  0
    5.3480    0.3040   -1.0340 O   0  0  0  0  0  0  0  0  0  0  0  0
    5.0790    1.1640   -0.1230 C   0  0  0  0  0  0  0  0  0  0  0  0
    3.8930    1.7280   -0.4690 C   0  0  0  0  0  0  0  0  0  0  0  0
    3.4650    1.1570   -1.6430 C   0  0  0  0  0  0  0  0  0  0  0  0
    2.2560    1.4010   -2.4630 C   0  0  2  0  0  0  0  0  0  0  0  0
    2.6760    1.6490   -3.7650 O   0  0  0  0  0  0  0  0  0  0  0  0
    3.3840    2.8090   -3.9180 C   0  0  0  0  0  0  0  0  0  0  0  0
    3.2540    3.8100   -2.8440 C   0  0  0  0  0  0  0  0  0  0  0  0
    1.9840    3.8230   -2.0650 C   0  0  0  0  0  0  0  0  0  0  0  0
    1.3500    2.4890   -2.0580 C   0  0  2  0  0  0  0  0  0  0  0  0
    0.6020    2.1910   -0.8510 N   0  0  0  0  0  0  0  0  0  0  0  0
   -0.8130    2.2440   -0.7850 C   0  0  0  0  0  0  0  0  0  0  0  0
   -1.4640    2.5970   -1.8140 O   0  0  0  0  0  0  0  0  0  0  0  0
   -1.5490    1.9190    0.3720 N   0  0  0  0  0  0  0  0  0  0  0  0
   -2.9900    1.9870    0.4630 C   0  0  0  0  0  0  0  0  0  0  0  0
   -3.4730    1.5150    1.8250 C   0  0  1  0  0  0  0  0  0  0  0  0
   -4.8340    1.6040    1.9580 O   0  0  0  0  0  0  0  0  0  0  0  0
   -5.2610    2.3110    3.0520 C   0  0  0  0  0  0  0  0  0  0  0  0
   -6.7820    2.3630    3.1330 C   0  0  0  0  0  0  0  0  0  0  0  0
   -7.3040    3.2840    4.5600 S   0  0  2  0  0  0  0  0  0  0  0  0
   -6.1700    4.1770    4.9860 O   0  0  0  0  0  0  0  0  0  0  0  0
   -7.5470    2.3300    5.6970 O   0  0  0  0  0  0  0  0  0  0  0  0
   -3.1620    0.0360    1.9590 C   0  0  0  0  0  0  0  0  0  0  0  0
   -2.1330   -0.4390    2.7290 C   0  0  0  0  0  0  0  0  0  0  0  0
   -1.9050   -1.8190    2.7910 C   0  0  0  0  0  0  0  0  0  0  0  0
   -2.7410   -2.6720    2.0590 C   0  0  0  0  0  0  0  0  0  0  0  0
   -3.7670   -2.1730    1.2940 C   0  0  0  0  0  0  0  0  0  0  0  0
   -3.9910   -0.8150    1.2330 C   0  0  0  0  0  0  0  0  0  0  0  0
   -4.4980   -3.3050    0.6250 C   0  0  0  0  0  0  0  0  0  0  0  0
   -4.1490   -4.4980    1.4480 C   0  0  0  0  0  0  0  0  0  0  0  0
   -2.7390   -4.1630    1.9310 C   0  0  0  0  0  0  0  0  0  0  0  0
  1  2  1  0
  2  3  2  0
  2  7  1  0
  3  4  1  0
  4  5  2  0
  5  6  1  0
  6  7  2  0
  7  8  1  0
  8  9  1  0
  9 10  1  0
 10 11  1  0
 10 14  2  0
 11 12  1  0
 12 13  2  0
 13 14  1  0
 15 14  1  1
 15 16  1  0
 15 20  1  0
 16 17  1  0
 17 18  1  0
 18 19  1  0
 19 20  1  0
 20 21  1  1
 21 22  1  0
 22 23  2  0
 22 24  1  0
 24 25  1  0
 26 25  1  6
 26 27  1  0
 26 33  1  0
 27 28  1  0
 28 29  1  0
 30 29  1  6
 30 31  2  0
 30 32  2  0
 33 34  2  0
 33 38  1  0
 34 35  1  0
 35 36  2  0
 36 37  1  0
 36 41  1  0
 37 38  2  0
 37 39  1  0
 39 40  1  0
 40 41  1  0
M  END
