
     RDKit          3D

 38 42  0  0  0  0  0  0  0  0999 V2000
   -6.0520    3.3180    1.7110 C   0  0  0  0  0  0  0  0  0  0  0  0
   -5.1760    2.2310    2.0090 O   0  0  0  0  0  0  0  0  0  0  0  0
   -4.2300    1.8740    1.0690 C   0  0  0  0  0  0  0  0  0  0  0  0
   -4.1150    2.5340   -0.1330 C   0  0  0  0  0  0  0  0  0  0  0  0
   -3.1730    2.1740   -1.0630 C   0  0  0  0  0  0  0  0  0  0  0  0
   -2.8170    2.6180   -2.3120 C   0  0  0  0  0  0  0  0  0  0  0  0
   -3.3780    3.5720   -2.9020 O   0  0  0  0  0  0  0  0  0  0  0  0
   -1.8030    1.8720   -2.7560 N   0  0  0  0  0  0  0  0  0  0  0  0
   -1.4570    0.9360   -1.8550 N   0  0  0  0  0  0  0  0  0  0  0  0
   -0.4100    0.0180   -2.0850 C   0  0  0  0  0  0  0  0  0  0  0  0
    0.2060    0.1300   -3.2240 O   0  0  0  0  0  0  0  0  0  0  0  0
    0.1000   -1.0450   -1.2520 C   0  0  2  0  0  0  0  0  0  0  0  0
    0.8910   -0.7380   -0.0750 C   0  0  0  0  0  0  0  0  0  0  0  0
    1.4680    0.3490    0.3320 C   0  0  0  0  0  0  0  0  0  0  0  0
    1.5240    1.6830   -0.2770 C   0  0  0  0  0  0  0  0  0  0  0  0
    2.9610    2.1180   -0.5510 C   0  0  0  0  0  0  0  0  0  0  0  0
    3.7710    2.1750    0.6830 C   0  0  0  0  0  0  0  0  0  0  0  0
    4.8650    1.4720    0.9160 C   0  0  0  0  0  0  0  0  0  0  0  0
    5.3660    1.8250    2.2640 C   0  0  0  0  0  0  0  0  0  0  0  0
    4.4210    2.8200    2.7720 C   0  0  0  0  0  0  0  0  0  0  0  0
    3.5020    3.0130    1.8480 C   0  0  0  0  0  0  0  0  0  0  0  0
    2.1640    4.1210    2.0160 Cl  0  0  0  0  0  0  0  0  0  0  0  0
    0.8700   -2.1120   -2.0670 C   0  0  2  0  0  0  0  0  0  0  0  0
   -0.0720   -2.7220   -3.0910 C   0  0  0  0  0  0  0  0  0  0  0  0
   -1.2190   -3.3250   -2.3400 C   0  0  0  0  0  0  0  0  0  0  0  0
   -2.3700   -2.9100   -2.5680 O   0  0  0  0  0  0  0  0  0  0  0  0
   -0.8780   -4.3180   -1.4340 O   0  0  0  0  0  0  0  0  0  0  0  0
    0.3910   -4.2220   -0.8210 C   0  0  0  0  0  0  0  0  0  0  0  0
    0.7550   -5.2010    0.0790 C   0  0  0  0  0  0  0  0  0  0  0  0
    1.9660   -5.1760    0.7060 C   0  0  0  0  0  0  0  0  0  0  0  0
    2.8550   -4.1440    0.4350 C   0  0  0  0  0  0  0  0  0  0  0  0
    2.4830   -3.1720   -0.4640 C   0  0  0  0  0  0  0  0  0  0  0  0
    1.2520   -3.1780   -1.1130 C   0  0  0  0  0  0  0  0  0  0  0  0
   -2.2950    1.1140   -0.8090 C   0  0  0  0  0  0  0  0  0  0  0  0
   -2.4000    0.4510    0.3830 C   0  0  0  0  0  0  0  0  0  0  0  0
   -3.3630    0.8320    1.3130 C   0  0  0  0  0  0  0  0  0  0  0  0
   -3.4890    0.1750    2.5290 O   0  0  0  0  0  0  0  0  0  0  0  0
   -2.6280   -0.9050    2.8400 C   0  0  0  0  0  0  0  0  0  0  0  0
  1  2  1  0
  2  3  1  0
  3  4  2  0
  3 36  1  0
  4  5  1  0
  5  6  1  0
  5 34  2  0
  6  7  2  0
  6  8  1  0
  8  9  1  0
  9 10  1  0
  9 34  1  0
 10 11  2  0
 10 12  1  0
 12 13  1  1
 12 23  1  0
 13 14  2  3
 14 15  1  0
 15 16  1  0
 16 17  1  0
 17 18  2  0
 17 21  1  0
 18 19  1  0
 19 20  1  0
 20 21  2  0
 21 22  1  0
 23 24  1  6
 23 33  1  0
 24 25  1  0
 25 26  2  0
 25 27  1  0
 27 28  1  0
 28 29  2  0
 28 33  1  0
 29 30  1  0
 30 31  2  0
 31 32  1  0
 32 33  2  0
 34 35  1  0
 35 36  2  0
 36 37  1  0
 37 38  1  0
M  END
