
     RDKit          3D

 38 42  0  0  0  0  0  0  0  0999 V2000
    0.4130   -0.7550   -3.5390 C   0  0  0  0  0  0  0  0  0  0  0  0
   -0.2440   -1.1760   -2.3670 O   0  0  0  0  0  0  0  0  0  0  0  0
   -0.8670   -0.0070   -1.8560 C   0  0  0  0  0  0  0  0  0  0  0  0
   -1.6140   -0.3370   -0.5860 C   0  0  0  0  0  0  0  0  0  0  0  0
   -2.2780    0.7720    0.0310 N   0  0  0  0  0  0  0  0  0  0  0  0
   -1.8120    1.6870    0.9310 C   0  0  0  0  0  0  0  0  0  0  0  0
   -2.7510    2.6050    1.2310 O   0  0  0  0  0  0  0  0  0  0  0  0
   -0.5820    1.9270    1.6420 C   0  0  0  0  0  0  0  0  0  0  0  0
   -0.5350    3.0590    2.4180 O   0  0  0  0  0  0  0  0  0  0  0  0
    0.5890    3.1920    3.0130 C   0  0  0  0  0  0  0  0  0  0  0  0
    1.3830    2.1230    2.6590 C   0  0  0  0  0  0  0  0  0  0  0  0
    0.6390    1.3410    1.8030 C   0  0  0  0  0  0  0  0  0  0  0  0
    1.1850    0.1090    1.2610 C   0  0  0  0  0  0  0  0  0  0  0  0
    2.6130   -0.2120    1.5540 C   0  0  1  0  0  0  0  0  0  0  0  0
    3.5160    0.1760    0.4170 C   0  0  0  0  0  0  0  0  0  0  0  0
    2.9920    0.7590   -0.5430 O   0  0  0  0  0  0  0  0  0  0  0  0
    4.8870   -0.1180    0.4650 N   0  0  0  0  0  0  0  0  0  0  0  0
    5.8370    0.1880   -0.5220 C   0  0  0  0  0  0  0  0  0  0  0  0
    5.5760    0.8360   -1.6910 C   0  0  0  0  0  0  0  0  0  0  0  0
    6.5850    1.1040   -2.6250 C   0  0  0  0  0  0  0  0  0  0  0  0
    7.8840    0.7190   -2.3910 C   0  0  0  0  0  0  0  0  0  0  0  0
    8.1640    0.0650   -1.2160 C   0  0  0  0  0  0  0  0  0  0  0  0
    7.1590   -0.1970   -0.2960 C   0  0  0  0  0  0  0  0  0  0  0  0
    7.5720   -1.0360    1.1890 Cl  0  0  0  0  0  0  0  0  0  0  0  0
    3.1610    0.3560    2.8050 C   0  0  0  0  0  0  0  0  0  0  0  0
    2.7240    1.7550    3.0240 C   0  0  0  0  0  0  0  0  0  0  0  0
    3.4700    2.6390    3.5140 O   0  0  0  0  0  0  0  0  0  0  0  0
   -3.7370    0.9160   -0.2990 C   0  0  1  0  0  0  0  0  0  0  0  0
   -4.0380    1.1950   -1.6970 C   0  0  0  0  0  0  0  0  0  0  0  0
   -4.4520    0.0360   -2.5610 C   0  0  0  0  0  0  0  0  0  0  0  0
   -5.4470   -0.7510   -1.8980 O   0  0  0  0  0  0  0  0  0  0  0  0
   -5.2050   -1.1010   -0.5670 C   0  0  0  0  0  0  0  0  0  0  0  0
   -5.7960   -2.2500   -0.0330 C   0  0  0  0  0  0  0  0  0  0  0  0
   -5.5980   -2.6460    1.2640 C   0  0  0  0  0  0  0  0  0  0  0  0
   -6.2270   -3.8670    1.8250 C   0  0  0  0  0  0  0  0  0  0  0  0
   -4.7760   -1.8510    2.0350 C   0  0  0  0  0  0  0  0  0  0  0  0
   -4.1890   -0.7230    1.5290 C   0  0  0  0  0  0  0  0  0  0  0  0
   -4.3890   -0.3120    0.2010 C   0  0  0  0  0  0  0  0  0  0  0  0
  1  2  1  0
  2  3  1  0
  3  4  1  0
  4  5  1  0
  5  6  1  0
 28  5  1  6
  6  7  2  0
  6  8  1  0
  8  9  1  0
  8 12  2  0
  9 10  1  0
 10 11  2  0
 11 12  1  0
 11 26  1  0
 12 13  1  0
 13 14  1  0
 14 15  1  6
 14 25  1  0
 15 16  2  0
 15 17  1  0
 17 18  1  0
 18 19  2  0
 18 23  1  0
 19 20  1  0
 20 21  2  0
 21 22  1  0
 22 23  2  0
 23 24  1  0
 25 26  1  0
 26 27  2  0
 28 29  1  0
 28 38  1  0
 29 30  1  0
 30 31  1  0
 31 32  1  0
 32 33  2  0
 32 38  1  0
 33 34  1  0
 34 35  1  0
 34 36  2  0
 36 37  1  0
 37 38  2  0
M  END
