
     RDKit          3D

 38 42  0  0  0  0  0  0  0  0999 V2000
  -10.3620   -2.2240   -0.4760 C   0  0  0  0  0  0  0  0  0  0  0  0
   -8.9150   -2.0470   -0.0690 C   0  0  0  0  0  0  0  0  0  0  0  0
   -8.5990   -0.6410   -0.2050 N   0  0  0  0  0  0  0  0  0  0  0  0
   -7.2570   -0.2390    0.1470 C   0  0  0  0  0  0  0  0  0  0  0  0
   -6.7700    1.0110    0.0830 N   0  0  0  0  0  0  0  0  0  0  0  0
   -5.4820    1.0320    0.4850 C   0  0  0  0  0  0  0  0  0  0  0  0
   -4.5140    1.9890    0.6230 C   0  0  0  0  0  0  0  0  0  0  0  0
   -3.2260    1.7210    1.0760 C   0  0  0  0  0  0  0  0  0  0  0  0
   -2.9460    0.4000    1.3940 C   0  0  0  0  0  0  0  0  0  0  0  0
   -3.9050   -0.5780    1.2620 C   0  0  0  0  0  0  0  0  0  0  0  0
   -5.1900   -0.2980    0.8080 C   0  0  0  0  0  0  0  0  0  0  0  0
   -6.2800   -0.9890    0.5840 O   0  0  0  0  0  0  0  0  0  0  0  0
   -1.5920    0.0640    1.8720 C   0  0  0  0  0  0  0  0  0  0  0  0
   -1.4170   -0.9830    2.5090 O   0  0  0  0  0  0  0  0  0  0  0  0
   -0.5270    1.0450    1.5330 C   0  0  1  0  0  0  0  0  0  0  0  0
   -0.2660    1.1010    0.1630 O   0  0  0  0  0  0  0  0  0  0  0  0
    0.9630    1.0310   -0.4240 C   0  0  0  0  0  0  0  0  0  0  0  0
    1.9840    0.9240    0.2840 O   0  0  0  0  0  0  0  0  0  0  0  0
    1.1520    1.0780   -1.9390 C   0  0  1  0  0  0  0  0  0  0  0  0
    0.2900    2.0910   -2.5830 C   0  0  0  0  0  0  0  0  0  0  0  0
    2.5060    1.1090   -2.2500 O   0  0  0  0  0  0  0  0  0  0  0  0
    3.1850    0.0080   -2.6910 C   0  0  0  0  0  0  0  0  0  0  0  0
    2.5040   -1.0680   -2.7980 O   0  0  0  0  0  0  0  0  0  0  0  0
    4.6280   -0.0510   -3.0510 C   0  0  0  0  0  0  0  0  0  0  0  0
    5.3130   -0.8430   -1.9860 C   0  0  0  0  0  0  0  0  0  0  0  0
    5.5620   -2.1770   -2.1790 C   0  0  0  0  0  0  0  0  0  0  0  0
    6.1630   -2.9130   -1.1600 C   0  0  0  0  0  0  0  0  0  0  0  0
    6.4830   -4.6250   -1.4010 Cl  0  0  0  0  0  0  0  0  0  0  0  0
    6.5010   -2.2990    0.0260 C   0  0  0  0  0  0  0  0  0  0  0  0
    7.1330   -3.0750    1.1090 C   0  0  0  0  0  0  0  0  0  0  0  0
    6.2620   -0.9450    0.2520 C   0  0  0  0  0  0  0  0  0  0  0  0
    6.6110   -0.3360    1.4330 C   0  0  0  0  0  0  0  0  0  0  0  0
    6.3730    1.0220    1.6330 C   0  0  0  0  0  0  0  0  0  0  0  0
    5.7820    1.7360    0.6230 C   0  0  0  0  0  0  0  0  0  0  0  0
    5.4340    1.0920   -0.5740 C   0  0  0  0  0  0  0  0  0  0  0  0
    5.6620   -0.2480   -0.7860 C   0  0  0  0  0  0  0  0  0  0  0  0
   -1.0030    2.4050    1.9870 C   0  0  0  0  0  0  0  0  0  0  0  0
   -2.2200    2.7950    1.2110 C   0  0  0  0  0  0  0  0  0  0  0  0
  1  2  1  0
  2  3  1  0
  3  4  1  0
  4  5  2  0
  4 12  1  0
  5  6  1  0
  6  7  2  0
  6 11  1  0
  7  8  1  0
  8  9  2  0
  8 38  1  0
  9 10  1  0
  9 13  1  0
 10 11  2  0
 11 12  1  0
 13 14  2  0
 13 15  1  0
 15 16  1  6
 15 37  1  0
 16 17  1  0
 17 18  2  0
 17 19  1  0
 19 20  1  1
 19 21  1  0
 21 22  1  0
 22 23  2  0
 22 24  1  0
 24 25  1  0
 25 26  2  0
 25 36  1  0
 26 27  1  0
 27 28  1  0
 27 29  2  0
 29 30  1  0
 29 31  1  0
 31 32  2  0
 31 36  1  0
 32 33  1  0
 33 34  2  0
 34 35  1  0
 35 36  2  0
 37 38  1  0
M  END
