
     RDKit          3D

 38 41  0  0  0  0  0  0  0  0999 V2000
   -3.2760   -5.2220   -0.1730 O   0  0  0  0  0  0  0  0  0  0  0  0
   -4.3550   -4.5600   -0.1640 C   0  0  0  0  0  0  0  0  0  0  0  0
   -5.5290   -5.2430   -0.3390 O   0  0  0  0  0  0  0  0  0  0  0  0
   -4.2350   -3.1120    0.0330 C   0  0  0  0  0  0  0  0  0  0  0  0
   -5.3450   -2.3110    0.0540 C   0  0  0  0  0  0  0  0  0  0  0  0
   -5.1800   -0.9400    0.2410 C   0  0  0  0  0  0  0  0  0  0  0  0
   -3.8970   -0.3920    0.4030 C   0  0  0  0  0  0  0  0  0  0  0  0
   -2.8080   -1.1950    0.3800 C   0  0  0  0  0  0  0  0  0  0  0  0
   -1.4840   -0.7130    0.5230 N   0  0  0  0  0  0  0  0  0  0  0  0
   -0.8080   -0.6690    1.7720 C   0  0  0  0  0  0  0  0  0  0  0  0
   -1.2740   -0.7130    2.9390 O   0  0  0  0  0  0  0  0  0  0  0  0
    0.6380   -0.5410    1.4580 C   0  0  0  0  0  0  0  0  0  0  0  0
    1.5830   -0.4890    2.5180 O   0  0  0  0  0  0  0  0  0  0  0  0
    0.7940   -0.4780    0.1810 C   0  0  0  0  0  0  0  0  0  0  0  0
    2.0360   -0.3930   -0.5870 C   0  0  0  0  0  0  0  0  0  0  0  0
    1.8930   -0.1430   -1.8410 O   0  0  0  0  0  0  0  0  0  0  0  0
    3.3910   -0.5510   -0.1240 C   0  0  0  0  0  0  0  0  0  0  0  0
    3.7250   -1.3100    0.9680 C   0  0  0  0  0  0  0  0  0  0  0  0
    5.0300   -1.3390    1.3820 C   0  0  0  0  0  0  0  0  0  0  0  0
    6.0310   -0.6330    0.7490 C   0  0  0  0  0  0  0  0  0  0  0  0
    5.7310    0.1400   -0.3560 C   0  0  0  0  0  0  0  0  0  0  0  0
    6.8380    0.9200   -0.9960 C   0  0  1  0  0  0  0  0  0  0  0  0
    6.6600    2.2510   -0.7530 F   0  0  0  0  0  0  0  0  0  0  0  0
    8.0730    0.5510   -0.4100 F   0  0  0  0  0  0  0  0  0  0  0  0
    6.9650    0.6290   -2.3390 F   0  0  0  0  0  0  0  0  0  0  0  0
    4.4230    0.1700   -0.7730 C   0  0  0  0  0  0  0  0  0  0  0  0
   -0.5700   -0.2670   -0.4850 C   0  0  2  0  0  0  0  0  0  0  0  0
   -0.7760    1.2140   -0.7380 C   0  0  0  0  0  0  0  0  0  0  0  0
   -0.5210    1.8010   -1.9580 C   0  0  0  0  0  0  0  0  0  0  0  0
   -0.7350    3.1500   -2.1780 C   0  0  0  0  0  0  0  0  0  0  0  0
   -1.2120    3.9530   -1.1830 C   0  0  0  0  0  0  0  0  0  0  0  0
   -1.4880    3.3990    0.0490 C   0  0  0  0  0  0  0  0  0  0  0  0
   -2.0780    4.2970    1.1030 C   0  0  2  0  0  0  0  0  0  0  0  0
   -2.7150    3.5560    2.1110 F   0  0  0  0  0  0  0  0  0  0  0  0
   -3.0900    5.0590    0.5020 F   0  0  0  0  0  0  0  0  0  0  0  0
   -1.1520    5.1430    1.6330 F   0  0  0  0  0  0  0  0  0  0  0  0
   -1.2670    2.0520    0.2540 C   0  0  0  0  0  0  0  0  0  0  0  0
   -2.9720   -2.5620    0.1930 C   0  0  0  0  0  0  0  0  0  0  0  0
  1  2  2  0
  2  3  1  0
  2  4  1  0
  4  5  2  0
  4 38  1  0
  5  6  1  0
  6  7  2  0
  7  8  1  0
  8  9  1  0
  8 38  2  0
  9 10  1  0
  9 27  1  0
 10 11  2  0
 10 12  1  0
 12 13  1  0
 12 14  2  0
 14 15  1  0
 14 27  1  0
 15 16  2  0
 15 17  1  0
 17 18  2  0
 17 26  1  0
 18 19  1  0
 19 20  2  0
 20 21  1  0
 21 22  1  0
 21 26  2  0
 22 23  1  6
 22 24  1  0
 22 25  1  0
 27 28  1  1
 28 29  2  0
 28 37  1  0
 29 30  1  0
 30 31  2  0
 31 32  1  0
 32 33  1  0
 32 37  2  0
 33 34  1  1
 33 35  1  0
 33 36  1  0
M  END
