
     RDKit          3D

 38 42  0  0  0  0  0  0  0  0999 V2000
    8.5810    2.6760   -2.9650 C   0  0  0  0  0  0  0  0  0  0  0  0
    8.7350    2.9310   -1.4890 C   0  0  0  0  0  0  0  0  0  0  0  0
    7.5300    2.7000   -0.7810 O   0  0  0  0  0  0  0  0  0  0  0  0
    6.9190    1.4550   -0.7870 C   0  0  0  0  0  0  0  0  0  0  0  0
    7.4820    0.5500   -1.4450 O   0  0  0  0  0  0  0  0  0  0  0  0
    5.6660    1.2120   -0.0520 C   0  0  0  0  0  0  0  0  0  0  0  0
    4.9880    0.0150    0.0010 C   0  0  0  0  0  0  0  0  0  0  0  0
    3.8560    0.2130    0.7990 C   0  0  0  0  0  0  0  0  0  0  0  0
    2.9100   -0.8340    1.0730 C   0  0  0  0  0  0  0  0  0  0  0  0
    3.0360   -1.5970    2.0710 O   0  0  0  0  0  0  0  0  0  0  0  0
    1.8000   -1.0350    0.2150 N   0  0  0  0  0  0  0  0  0  0  0  0
    1.6190   -0.1950   -0.9250 C   0  0  0  0  0  0  0  0  0  0  0  0
    0.2800    0.4230   -0.9260 C   0  0  0  0  0  0  0  0  0  0  0  0
   -0.8040   -0.3620   -0.2950 C   0  0  0  0  0  0  0  0  0  0  0  0
   -2.1860    0.1390   -0.4720 C   0  0  0  0  0  0  0  0  0  0  0  0
   -3.1640   -0.5110   -0.0820 O   0  0  0  0  0  0  0  0  0  0  0  0
   -2.4450    1.3770   -1.0880 N   0  0  0  0  0  0  0  0  0  0  0  0
   -3.6930    2.0090   -1.3440 C   0  0  0  0  0  0  0  0  0  0  0  0
   -3.8040    3.2040   -1.9460 C   0  0  0  0  0  0  0  0  0  0  0  0
   -2.6580    4.0170   -2.4220 C   0  0  0  0  0  0  0  0  0  0  0  0
   -5.2000    3.5650   -2.0560 C   0  0  0  0  0  0  0  0  0  0  0  0
   -5.9420    2.4520   -1.4500 C   0  0  0  0  0  0  0  0  0  0  0  0
   -5.0170    1.5640   -1.0470 C   0  0  0  0  0  0  0  0  0  0  0  0
   -5.5770    0.0890   -0.2670 Cl  0  0  0  0  0  0  0  0  0  0  0  0
   -0.5800   -1.4850    0.3150 C   0  0  0  0  0  0  0  0  0  0  0  0
   -1.6160   -2.2740    0.9510 C   0  0  0  0  0  0  0  0  0  0  0  0
   -2.4880   -1.9250    1.9510 C   0  0  0  0  0  0  0  0  0  0  0  0
   -3.2750   -3.0050    2.2110 C   0  0  0  0  0  0  0  0  0  0  0  0
   -2.8640   -4.0060    1.3550 C   0  0  0  0  0  0  0  0  0  0  0  0
   -1.8990   -3.5280    0.6470 O   0  0  0  0  0  0  0  0  0  0  0  0
   -3.5980   -5.3050    1.4640 C   0  0  0  0  0  0  0  0  0  0  0  0
   -5.0860   -5.1020    1.4900 C   0  0  0  0  0  0  0  0  0  0  0  0
   -5.5270   -4.0280    2.4260 C   0  0  0  0  0  0  0  0  0  0  0  0
   -4.3930   -3.3390    3.1310 C   0  0  0  0  0  0  0  0  0  0  0  0
    0.8080   -2.0710    0.4260 C   0  0  0  0  0  0  0  0  0  0  0  0
    3.9210    1.5260    1.1820 C   0  0  0  0  0  0  0  0  0  0  0  0
    2.9160    2.1830    2.0450 C   0  0  0  0  0  0  0  0  0  0  0  0
    4.9840    2.0620    0.6650 O   0  0  0  0  0  0  0  0  0  0  0  0
  1  2  1  0
  2  3  1  0
  3  4  1  0
  4  5  2  0
  4  6  1  0
  6  7  2  0
  6 38  1  0
  7  8  1  0
  8  9  1  0
  8 36  2  0
  9 10  2  0
  9 11  1  0
 11 12  1  0
 11 35  1  0
 12 13  1  0
 13 14  1  0
 14 15  1  0
 14 25  2  0
 15 16  2  0
 15 17  1  0
 17 18  1  0
 18 19  2  0
 18 23  1  0
 19 20  1  0
 19 21  1  0
 21 22  1  0
 22 23  2  0
 23 24  1  0
 25 26  1  0
 25 35  1  0
 26 27  2  0
 26 30  1  0
 27 28  1  0
 28 29  2  0
 28 34  1  0
 29 30  1  0
 29 31  1  0
 31 32  1  0
 32 33  1  0
 33 34  1  0
 36 37  1  0
 36 38  1  0
M  END
