
     RDKit          3D

 38 42  0  0  0  0  0  0  0  0999 V2000
    4.5440    1.8020    1.7350 C   0  0  0  0  0  0  0  0  0  0  0  0
    3.7630    1.8630    0.5590 O   0  0  0  0  0  0  0  0  0  0  0  0
    3.0460    0.7750    0.0780 C   0  0  0  0  0  0  0  0  0  0  0  0
    1.9880    0.3840    0.7100 C   0  0  0  0  0  0  0  0  0  0  0  0
    1.1720   -0.7670    0.2580 C   0  0  0  0  0  0  0  0  0  0  0  0
    0.1130   -1.1050    0.9520 C   0  0  0  0  0  0  0  0  0  0  0  0
   -0.8260   -2.1480    0.7460 C   0  0  0  0  0  0  0  0  0  0  0  0
   -0.7840   -2.9400   -0.2200 O   0  0  0  0  0  0  0  0  0  0  0  0
   -1.9070   -2.3710    1.6350 N   0  0  0  0  0  0  0  0  0  0  0  0
   -3.1140   -3.2100    1.4340 C   0  0  0  0  0  0  0  0  0  0  0  0
   -4.1460   -2.1900    1.8940 C   0  0  2  0  0  0  0  0  0  0  0  0
   -4.4510   -1.1910    0.8760 C   0  0  0  0  0  0  0  0  0  0  0  0
   -5.7300   -1.0460    0.5110 C   0  0  0  0  0  0  0  0  0  0  0  0
   -6.1210   -0.0680   -0.5020 C   0  0  0  0  0  0  0  0  0  0  0  0
   -7.3520    0.1470   -0.9260 C   0  0  0  0  0  0  0  0  0  0  0  0
   -7.3680    1.2180   -1.9630 C   0  0  2  0  0  0  0  0  0  0  0  0
   -7.9100    0.8050   -3.1580 O   0  0  0  0  0  0  0  0  0  0  0  0
   -5.9320    1.5990   -2.0790 C   0  0  0  0  0  0  0  0  0  0  0  0
   -5.2460    0.8520   -1.2380 C   0  0  0  0  0  0  0  0  0  0  0  0
   -3.4870   -1.6300    3.1110 C   0  0  0  0  0  0  0  0  0  0  0  0
   -4.0150   -1.0860    4.2530 C   0  0  0  0  0  0  0  0  0  0  0  0
   -3.1250   -0.6830    5.2310 C   0  0  0  0  0  0  0  0  0  0  0  0
   -3.7680    0.0150    6.6970 Cl  0  0  0  0  0  0  0  0  0  0  0  0
   -1.7580   -0.8240    5.0660 C   0  0  0  0  0  0  0  0  0  0  0  0
   -1.2490   -1.3740    3.9100 C   0  0  0  0  0  0  0  0  0  0  0  0
   -2.1180   -1.7860    2.9100 C   0  0  0  0  0  0  0  0  0  0  0  0
    1.6430   -1.4210   -0.9380 C   0  0  0  0  0  0  0  0  0  0  0  0
    1.0470   -2.3970   -1.4180 O   0  0  0  0  0  0  0  0  0  0  0  0
    2.8620   -0.9240   -1.6160 C   0  0  0  0  0  0  0  0  0  0  0  0
    3.5020    0.1060   -1.1210 C   0  0  0  0  0  0  0  0  0  0  0  0
    4.6450    0.5750   -1.7530 O   0  0  0  0  0  0  0  0  0  0  0  0
    4.8620    0.3460   -3.1300 C   0  0  0  0  0  0  0  0  0  0  0  0
    6.1550    0.9590   -3.5270 C   0  0  0  0  0  0  0  0  0  0  0  0
    7.0220    1.6450   -2.7120 C   0  0  0  0  0  0  0  0  0  0  0  0
    8.0760    2.0190   -3.5270 C   0  0  0  0  0  0  0  0  0  0  0  0
    9.2700    2.7810   -3.1240 C   0  0  0  0  0  0  0  0  0  0  0  0
    7.7880    1.5460   -4.7630 N   0  0  0  0  0  0  0  0  0  0  0  0
    6.6430    0.9190   -4.7430 O   0  0  0  0  0  0  0  0  0  0  0  0
  1  2  1  0
  2  3  1  0
  3  4  2  0
  3 30  1  0
  4  5  1  0
  5  6  2  3
  5 27  1  0
  6  7  1  0
  7  8  2  0
  7  9  1  0
  9 10  1  0
  9 26  1  0
 10 11  1  0
 11 12  1  6
 11 20  1  0
 12 13  2  3
 13 14  1  0
 14 15  2  0
 14 19  1  0
 15 16  1  0
 16 17  1  6
 16 18  1  0
 18 19  2  0
 20 21  2  0
 20 26  1  0
 21 22  1  0
 22 23  1  0
 22 24  2  0
 24 25  1  0
 25 26  2  0
 27 28  2  0
 27 29  1  0
 29 30  2  0
 30 31  1  0
 31 32  1  0
 32 33  1  0
 33 34  2  0
 33 38  1  0
 34 35  1  0
 35 36  1  0
 35 37  2  0
 37 38  1  0
M  END
