
     RDKit          3D

 38 42  0  0  0  0  0  0  0  0999 V2000
   -2.9700   -3.0210    1.9520 C   0  0  0  0  0  0  0  0  0  0  0  0
   -4.2170   -2.7040    1.2510 C   0  0  0  0  0  0  0  0  0  0  0  0
   -5.1870   -3.4670    1.2950 O   0  0  0  0  0  0  0  0  0  0  0  0
   -4.3140   -1.4550    0.4820 C   0  0  0  0  0  0  0  0  0  0  0  0
   -3.2240   -0.6070    0.4120 C   0  0  0  0  0  0  0  0  0  0  0  0
   -3.2180    0.5510   -0.2690 C   0  0  0  0  0  0  0  0  0  0  0  0
   -2.1040    1.4260   -0.3640 N   0  0  0  0  0  0  0  0  0  0  0  0
   -0.7870    1.1950    0.0440 C   0  0  0  0  0  0  0  0  0  0  0  0
   -0.4850    0.1030    0.5590 O   0  0  0  0  0  0  0  0  0  0  0  0
    0.3040    2.1870   -0.0980 C   0  0  0  0  0  0  0  0  0  0  0  0
    0.0910    3.5030   -0.3990 C   0  0  0  0  0  0  0  0  0  0  0  0
    1.1150    4.4110   -0.5340 C   0  0  0  0  0  0  0  0  0  0  0  0
    2.4330    3.9940   -0.3620 C   0  0  0  0  0  0  0  0  0  0  0  0
    2.6860    2.6480   -0.0530 C   0  0  0  0  0  0  0  0  0  0  0  0
    1.6290    1.7690    0.0750 C   0  0  0  0  0  0  0  0  0  0  0  0
    4.0500    2.1720    0.1370 C   0  0  0  0  0  0  0  0  0  0  0  0
    4.3490    0.7810    0.4590 C   0  0  0  0  0  0  0  0  0  0  0  0
    3.5770   -0.1670    0.6150 O   0  0  0  0  0  0  0  0  0  0  0  0
    5.7130    0.4290    0.6220 O   0  0  0  0  0  0  0  0  0  0  0  0
    6.1040   -0.8950    0.9340 C   0  0  0  0  0  0  0  0  0  0  0  0
    7.6020   -0.9370    1.0390 C   0  0  1  0  0  0  0  0  0  0  0  0
    8.0190   -2.3950    1.2250 C   0  0  0  0  0  0  0  0  0  0  0  0
    8.0670   -2.8780   -0.2050 C   0  0  0  0  0  0  0  0  0  0  0  0
    7.9940   -1.6210   -1.0160 C   0  0  0  0  0  0  0  0  0  0  0  0
    8.2310   -0.5600   -0.1380 O   0  0  0  0  0  0  0  0  0  0  0  0
    5.0440    3.0410    0.0100 C   0  0  0  0  0  0  0  0  0  0  0  0
    6.6850    2.4290    0.2460 Cl  0  0  0  0  0  0  0  0  0  0  0  0
    4.9100    4.4600   -0.3060 C   0  0  0  0  0  0  0  0  0  0  0  0
    3.5270    4.9110   -0.4970 C   0  0  0  0  0  0  0  0  0  0  0  0
    3.2360    6.1100   -0.7860 O   0  0  0  0  0  0  0  0  0  0  0  0
   -4.4060    0.8960   -0.9410 C   0  0  0  0  0  0  0  0  0  0  0  0
   -5.4960    0.0690   -0.8830 C   0  0  0  0  0  0  0  0  0  0  0  0
   -5.4710   -1.1140   -0.1750 C   0  0  0  0  0  0  0  0  0  0  0  0
   -6.6720   -2.0030   -0.1200 C   0  0  0  0  0  0  0  0  0  0  0  0
   -7.7670   -1.4350   -0.8930 N   0  0  0  0  0  0  0  0  0  0  0  0
   -8.9160   -2.3180   -0.8220 C   0  0  0  0  0  0  0  0  0  0  0  0
   -9.6660   -1.3740    0.0920 C   0  0  0  0  0  0  0  0  0  0  0  0
   -8.5300   -0.4270   -0.2280 C   0  0  0  0  0  0  0  0  0  0  0  0
  1  2  1  0
  2  3  2  0
  2  4  1  0
  4  5  2  0
  4 33  1  0
  5  6  1  0
  6  7  1  0
  6 31  2  0
  7  8  1  0
  8  9  2  0
  8 10  1  0
 10 11  2  0
 10 15  1  0
 11 12  1  0
 12 13  2  0
 13 14  1  0
 13 29  1  0
 14 15  2  0
 14 16  1  0
 16 17  1  0
 16 26  2  0
 17 18  2  0
 17 19  1  0
 19 20  1  0
 21 20  1  6
 21 22  1  0
 21 25  1  0
 22 23  1  0
 23 24  1  0
 24 25  1  0
 26 27  1  0
 26 28  1  0
 28 29  1  0
 29 30  2  0
 31 32  1  0
 32 33  2  0
 33 34  1  0
 34 35  1  0
 35 36  1  0
 35 38  1  0
 36 37  1  0
 37 38  1  0
M  END
