
     RDKit          3D

 35 38  0  0  0  0  0  0  0  0999 V2000
    4.2190   -1.4130    0.5050 C   0  0  0  0  0  0  0  0  0  0  0  0
    3.5280   -0.0890    0.5270 C   0  0  1  0  0  0  0  0  0  0  0  0
    3.8200    0.6560   -0.6950 N   0  0  0  0  0  0  0  0  0  0  0  0
    4.4040   -0.0740   -1.7300 C   0  0  0  0  0  0  0  0  0  0  0  0
    5.8160   -0.0740   -1.9890 C   0  0  0  0  0  0  0  0  0  0  0  0
    6.2090   -0.8010   -3.0450 O   0  0  0  0  0  0  0  0  0  0  0  0
    6.9140    0.5370   -1.3680 N   0  0  0  0  0  0  0  0  0  0  0  0
    6.8300    1.3060   -0.1860 C   0  0  0  0  0  0  0  0  0  0  0  0
    8.1330    1.5290    0.5310 C   0  0  0  0  0  0  0  0  0  0  0  0
    9.1820    1.7120   -0.3190 O   0  0  0  0  0  0  0  0  0  0  0  0
    9.3320    0.4870   -1.0120 C   0  0  0  0  0  0  0  0  0  0  0  0
    8.2410    0.3980   -2.0190 C   0  0  0  0  0  0  0  0  0  0  0  0
    2.0710   -0.2980    0.7170 C   0  0  0  0  0  0  0  0  0  0  0  0
    1.4710   -0.0900    1.9340 C   0  0  0  0  0  0  0  0  0  0  0  0
    0.1300   -0.2790    2.1090 C   0  0  0  0  0  0  0  0  0  0  0  0
   -0.7370   -0.6980    1.0650 C   0  0  0  0  0  0  0  0  0  0  0  0
   -2.1050   -0.9820    1.3680 C   0  0  0  0  0  0  0  0  0  0  0  0
   -2.1890   -1.4680    2.6370 O   0  0  0  0  0  0  0  0  0  0  0  0
   -3.3450   -0.9210    0.8040 N   0  0  0  0  0  0  0  0  0  0  0  0
   -4.3930   -1.5820    1.7030 C   0  0  0  0  0  0  0  0  0  0  0  0
   -4.9810   -0.6020    2.6470 C   0  0  0  0  0  0  0  0  0  0  0  0
   -6.1900    0.1070    2.0670 C   0  0  2  0  0  0  0  0  0  0  0  0
   -6.5770    1.1950    3.0470 C   0  0  0  0  0  0  0  0  0  0  0  0
   -7.3760   -0.8230    1.9390 C   0  0  0  0  0  0  0  0  0  0  0  0
   -5.8690    0.7570    0.8470 O   0  0  0  0  0  0  0  0  0  0  0  0
   -4.7190    0.8720    0.1370 C   0  0  0  0  0  0  0  0  0  0  0  0
   -4.3170    2.0140   -0.1530 O   0  0  0  0  0  0  0  0  0  0  0  0
   -3.8460   -0.2590   -0.3530 C   0  0  1  0  0  0  0  0  0  0  0  0
   -2.8320    0.2930   -1.3090 C   0  0  0  0  0  0  0  0  0  0  0  0
   -3.4780    1.0860   -2.4390 C   0  0  0  0  0  0  0  0  0  0  0  0
   -4.6720    0.4540   -3.0450 C   0  0  0  0  0  0  0  0  0  0  0  0
   -5.5190   -0.3900   -2.1670 C   0  0  0  0  0  0  0  0  0  0  0  0
   -4.6810   -1.2080   -1.1960 C   0  0  0  0  0  0  0  0  0  0  0  0
   -0.1030   -0.8970   -0.1280 C   0  0  0  0  0  0  0  0  0  0  0  0
    1.2790   -0.7020   -0.3130 C   0  0  0  0  0  0  0  0  0  0  0  0
  2  1  1  6
  2  3  1  0
  2 13  1  0
  3  4  1  0
  4  5  1  0
  5  6  2  0
  5  7  1  0
  7  8  1  0
  7 12  1  0
  8  9  1  0
  9 10  1  0
 10 11  1  0
 11 12  1  0
 13 14  2  0
 13 35  1  0
 14 15  1  0
 15 16  2  0
 16 17  1  0
 16 34  1  0
 17 18  2  0
 17 19  1  0
 19 20  1  0
 19 28  1  0
 20 21  1  0
 21 22  1  0
 22 23  1  1
 22 24  1  0
 22 25  1  0
 25 26  1  0
 26 27  2  0
 26 28  1  0
 28 29  1  6
 28 33  1  0
 29 30  1  0
 30 31  1  0
 31 32  1  0
 32 33  1  0
 34 35  2  0
M  CHG  1   3   1
M  END
