
     RDKit          3D

 34 38  0  0  0  0  0  0  0  0999 V2000
   -6.3570   -1.4430    0.7550 O   0  0  0  0  0  0  0  0  0  0  0  0
   -5.1550   -1.0960    0.8520 C   0  0  0  0  0  0  0  0  0  0  0  0
   -4.8370   -0.1070    1.7660 O   0  0  0  0  0  0  0  0  0  0  0  0
   -4.1500   -1.7270    0.0240 C   0  0  0  0  0  0  0  0  0  0  0  0
   -4.5120   -2.6970   -0.8770 C   0  0  0  0  0  0  0  0  0  0  0  0
   -3.5700   -3.3060   -1.6630 C   0  0  0  0  0  0  0  0  0  0  0  0
   -2.2470   -2.9500   -1.5560 C   0  0  0  0  0  0  0  0  0  0  0  0
   -1.8430   -1.9660   -0.6470 C   0  0  0  0  0  0  0  0  0  0  0  0
   -0.4710   -1.6160   -0.5180 N   0  0  0  0  0  0  0  0  0  0  0  0
    0.4440   -2.5560    0.0160 C   0  0  0  0  0  0  0  0  0  0  0  0
    0.2000   -3.7330    0.4510 O   0  0  0  0  0  0  0  0  0  0  0  0
    1.7700   -1.9540   -0.0080 C   0  0  0  0  0  0  0  0  0  0  0  0
    2.9090   -2.6630    0.4680 O   0  0  0  0  0  0  0  0  0  0  0  0
    1.6830   -0.7590   -0.5050 C   0  0  0  0  0  0  0  0  0  0  0  0
    2.7240    0.2260   -0.7300 C   0  0  0  0  0  0  0  0  0  0  0  0
    2.3670    1.3290   -1.2320 O   0  0  0  0  0  0  0  0  0  0  0  0
    4.1270    0.0850   -0.4420 C   0  0  0  0  0  0  0  0  0  0  0  0
    5.1280    1.0040   -0.6020 C   0  0  0  0  0  0  0  0  0  0  0  0
    6.3630    0.6750   -0.2860 C   0  0  0  0  0  0  0  0  0  0  0  0
    6.6950   -0.5380    0.1910 C   0  0  0  0  0  0  0  0  0  0  0  0
    8.1180   -1.3100    0.6920 Cl  0  0  0  0  0  0  0  0  0  0  0  0
    5.0150   -1.3300    0.1970 S   0  0  0  0  0  0  0  0  0  0  0  0
    0.2300   -0.4590   -0.8460 C   0  0  2  0  0  0  0  0  0  0  0  0
   -0.0600    0.7730   -0.1120 C   0  0  0  0  0  0  0  0  0  0  0  0
   -0.1090    0.7910    1.2550 C   0  0  0  0  0  0  0  0  0  0  0  0
   -0.3690    1.9420    1.9550 C   0  0  0  0  0  0  0  0  0  0  0  0
   -0.4320    1.9600    3.7200 Cl  0  0  0  0  0  0  0  0  0  0  0  0
   -0.5890    3.1200    1.2530 C   0  0  0  0  0  0  0  0  0  0  0  0
   -0.5480    3.1340   -0.1200 C   0  0  0  0  0  0  0  0  0  0  0  0
   -0.2810    1.9460   -0.7890 C   0  0  0  0  0  0  0  0  0  0  0  0
   -0.8010    4.4310   -0.5130 O   0  0  0  0  0  0  0  0  0  0  0  0
   -1.1560    5.2220    0.6020 C   0  0  0  0  0  0  0  0  0  0  0  0
   -0.8670    4.4010    1.7020 O   0  0  0  0  0  0  0  0  0  0  0  0
   -2.7950   -1.3700    0.1260 C   0  0  0  0  0  0  0  0  0  0  0  0
  1  2  2  0
  2  3  1  0
  2  4  1  0
  4  5  2  0
  4 34  1  0
  5  6  1  0
  6  7  2  0
  7  8  1  0
  8  9  1  0
  8 34  2  0
  9 10  1  0
  9 23  1  0
 10 11  2  0
 10 12  1  0
 12 13  1  0
 12 14  2  0
 14 15  1  0
 14 23  1  0
 15 16  2  0
 15 17  1  0
 17 18  2  0
 17 22  1  0
 18 19  1  0
 19 20  2  0
 20 21  1  0
 20 22  1  0
 23 24  1  1
 24 25  2  0
 24 30  1  0
 25 26  1  0
 26 27  1  0
 26 28  2  0
 28 29  1  0
 28 33  1  0
 29 30  2  0
 29 31  1  0
 31 32  1  0
 32 33  1  0
M  END
