
     RDKit          3D

 35 39  0  0  0  0  0  0  0  0999 V2000
   -5.7280    2.2460   -2.1240 C   0  0  0  0  0  0  0  0  0  0  0  0
   -5.3610    1.0140   -2.0740 C   0  0  0  0  0  0  0  0  0  0  0  0
   -6.0570    0.2150   -3.0010 F   0  0  0  0  0  0  0  0  0  0  0  0
   -4.3410    0.3180   -1.3120 C   0  0  0  0  0  0  0  0  0  0  0  0
   -4.2900   -1.0180   -1.4950 C   0  0  0  0  0  0  0  0  0  0  0  0
   -5.4500   -1.7200   -2.6540 Cl  0  0  0  0  0  0  0  0  0  0  0  0
   -3.4720   -1.9590   -0.7030 C   0  0  2  0  0  0  0  0  0  0  0  0
   -2.4650   -2.5020   -1.4230 F   0  0  0  0  0  0  0  0  0  0  0  0
   -4.4050   -3.0550   -0.4380 F   0  0  0  0  0  0  0  0  0  0  0  0
   -3.3540    0.9310   -0.4040 C   0  0  2  0  0  0  0  0  0  0  0  0
   -2.8680    2.2810   -0.9630 C   0  0  0  0  0  0  0  0  0  0  0  0
   -2.3530    1.8810   -2.3170 C   0  0  0  0  0  0  0  0  0  0  0  0
   -1.7700    0.4900   -2.0340 C   0  0  0  0  0  0  0  0  0  0  0  0
   -1.9990    0.3160   -0.5910 N   0  0  0  0  0  0  0  0  0  0  0  0
   -1.1180   -0.2050    0.3390 C   0  0  0  0  0  0  0  0  0  0  0  0
    0.0770   -0.7940   -0.0930 C   0  0  0  0  0  0  0  0  0  0  0  0
    1.0120   -1.3250    0.7800 C   0  0  0  0  0  0  0  0  0  0  0  0
    2.1670   -1.9390    0.2750 N   0  0  0  0  0  0  0  0  0  0  0  0
    2.2420   -2.6130   -1.0310 C   0  0  0  0  0  0  0  0  0  0  0  0
    3.0520   -3.8620   -1.0030 C   0  0  0  0  0  0  0  0  0  0  0  0
    3.5450   -4.2890    0.3600 C   0  0  0  0  0  0  0  0  0  0  0  0
    4.0740   -3.0990    1.0900 C   0  0  0  0  0  0  0  0  0  0  0  0
    3.3640   -1.9480    1.0240 C   0  0  0  0  0  0  0  0  0  0  0  0
    3.8550   -0.8070    1.7220 C   0  0  0  0  0  0  0  0  0  0  0  0
    4.9240   -0.9350    2.4180 O   0  0  0  0  0  0  0  0  0  0  0  0
    3.3030    0.4950    1.7450 N   0  0  0  0  0  0  0  0  0  0  0  0
    3.8980    1.5740    2.5050 C   0  0  0  0  0  0  0  0  0  0  0  0
    3.1470    2.8350    2.3800 C   0  0  0  0  0  0  0  0  0  0  0  0
    2.0250    3.0950    1.6360 C   0  0  0  0  0  0  0  0  0  0  0  0
    1.6800    4.4170    1.8330 C   0  0  0  0  0  0  0  0  0  0  0  0
    2.6350    4.9000    2.7070 C   0  0  0  0  0  0  0  0  0  0  0  0
    3.4730    3.9680    3.0090 O   0  0  0  0  0  0  0  0  0  0  0  0
    0.6890   -1.2360    2.1150 C   0  0  0  0  0  0  0  0  0  0  0  0
   -0.4870   -0.6580    2.5500 C   0  0  0  0  0  0  0  0  0  0  0  0
   -1.3730   -0.1520    1.6770 N   0  0  0  0  0  0  0  0  0  0  0  0
  1  2  2  0
  2  3  1  0
  2  4  1  0
  4  5  2  0
 10  4  1  6
  5  6  1  0
  5  7  1  0
  7  8  1  6
  7  9  1  0
 10 11  1  0
 10 14  1  0
 11 12  1  0
 12 13  1  0
 13 14  1  0
 14 15  1  0
 15 16  2  0
 15 35  1  0
 16 17  1  0
 17 18  1  0
 17 33  2  0
 18 19  1  0
 18 23  1  0
 19 20  1  0
 20 21  1  0
 21 22  1  0
 22 23  2  0
 23 24  1  0
 24 25  2  0
 24 26  1  0
 26 27  1  0
 27 28  1  0
 28 29  2  0
 28 32  1  0
 29 30  1  0
 30 31  2  0
 31 32  1  0
 33 34  1  0
 34 35  2  0
  6  3  1  0
M  END
