
     RDKit          3D

 35 38  0  0  0  0  0  0  0  0999 V2000
    1.7510    1.8760    2.8690 C   0  0  0  0  0  0  0  0  0  0  0  0
    1.5170    0.4800    3.1900 N   0  0  0  0  0  0  0  0  0  0  0  0
    1.6210   -0.3640    1.9910 C   0  0  1  0  0  0  0  0  0  0  0  0
    0.5200    0.1730    1.1010 C   0  0  0  0  0  0  0  0  0  0  0  0
    0.5820    0.7970   -0.0400 C   0  0  0  0  0  0  0  0  0  0  0  0
   -0.7710    1.1330   -0.5400 C   0  0  0  0  0  0  0  0  0  0  0  0
   -1.0360    1.7330   -1.6140 O   0  0  0  0  0  0  0  0  0  0  0  0
   -1.6890    0.6480    0.4230 N   0  0  0  0  0  0  0  0  0  0  0  0
   -3.1630    0.7660    0.3350 C   0  0  0  0  0  0  0  0  0  0  0  0
   -3.7490   -0.3750   -0.3440 C   0  0  0  0  0  0  0  0  0  0  0  0
   -2.8880   -1.2550   -0.7570 O   0  0  0  0  0  0  0  0  0  0  0  0
   -5.0750   -0.7140   -0.6290 N   0  0  0  0  0  0  0  0  0  0  0  0
   -6.1690    0.1730   -0.4680 C   0  0  0  0  0  0  0  0  0  0  0  0
   -6.0300    1.4860   -0.8650 C   0  0  0  0  0  0  0  0  0  0  0  0
   -7.1010    2.3380   -0.6760 C   0  0  0  0  0  0  0  0  0  0  0  0
   -8.2580    1.8500   -0.1050 C   0  0  0  0  0  0  0  0  0  0  0  0
   -8.3900    0.5150    0.2930 C   0  0  0  0  0  0  0  0  0  0  0  0
   -7.3320   -0.3340    0.1090 C   0  0  0  0  0  0  0  0  0  0  0  0
   -7.2960   -1.6680    0.4400 O   0  0  0  0  0  0  0  0  0  0  0  0
   -6.3450   -2.6170    0.0380 C   0  0  0  0  0  0  0  0  0  0  0  0
   -5.4530   -2.0830   -1.0560 C   0  0  1  0  0  0  0  0  0  0  0  0
   -6.2000   -2.0930   -2.3570 C   0  0  0  0  0  0  0  0  0  0  0  0
   -0.9040    0.0550    1.4390 C   0  0  0  0  0  0  0  0  0  0  0  0
   -1.3940   -0.4820    2.4630 O   0  0  0  0  0  0  0  0  0  0  0  0
    2.9380   -0.2250    1.3670 C   0  0  0  0  0  0  0  0  0  0  0  0
    4.0280    0.2770    2.0460 C   0  0  0  0  0  0  0  0  0  0  0  0
    5.2600    0.3750    1.4630 C   0  0  0  0  0  0  0  0  0  0  0  0
    5.5000   -0.0320    0.1240 C   0  0  0  0  0  0  0  0  0  0  0  0
    6.7610    0.1160   -0.3370 O   0  0  0  0  0  0  0  0  0  0  0  0
    7.5210   -0.0680   -1.4140 C   0  0  1  0  0  0  0  0  0  0  0  0
    8.2800    1.2300   -1.8260 C   0  0  0  0  0  0  0  0  0  0  0  0
    8.6990   -1.0010   -1.0040 C   0  0  0  0  0  0  0  0  0  0  0  0
    4.4050   -0.5290   -0.5400 C   0  0  0  0  0  0  0  0  0  0  0  0
    4.5760   -0.9770   -1.9460 C   0  0  0  0  0  0  0  0  0  0  0  0
    3.1520   -0.6200    0.0810 C   0  0  0  0  0  0  0  0  0  0  0  0
  1  2  1  0
  3  2  1  1
  3  4  1  0
  3 25  1  0
  4  5  2  0
  4 23  1  0
  5  6  1  0
  6  7  2  0
  6  8  1  0
  8  9  1  0
  8 23  1  0
  9 10  1  0
 10 11  2  0
 10 12  1  0
 12 13  1  0
 12 21  1  0
 13 14  2  0
 13 18  1  0
 14 15  1  0
 15 16  2  0
 16 17  1  0
 17 18  2  0
 18 19  1  0
 19 20  1  0
 20 21  1  0
 21 22  1  6
 23 24  2  0
 25 26  2  0
 25 35  1  0
 26 27  1  0
 27 28  2  0
 28 29  1  0
 28 33  1  0
 29 30  1  0
 30 31  1  1
 30 32  1  0
 33 34  1  0
 33 35  2  0
M  CHG  1   2   1
M  END
