
     RDKit          3D

 35 38  0  0  0  0  0  0  0  0999 V2000
    4.1680    0.6680    2.0080 C   0  0  0  0  0  0  0  0  0  0  0  0
    3.8830    0.1890    0.6200 C   0  0  0  0  0  0  0  0  0  0  0  0
    2.6260   -0.3590    0.2790 C   0  0  0  0  0  0  0  0  0  0  0  0
    2.6450   -0.6290   -1.0330 C   0  0  0  0  0  0  0  0  0  0  0  0
    1.6400   -1.1440   -1.9390 C   0  0  2  0  0  0  0  0  0  0  0  0
    1.2070   -0.1070   -2.8020 O   0  0  0  0  0  0  0  0  0  0  0  0
    0.5450   -1.9400   -1.4300 C   0  0  0  0  0  0  0  0  0  0  0  0
   -0.3910   -1.5410   -0.4410 N   0  0  0  0  0  0  0  0  0  0  0  0
   -0.4070   -1.9010    0.8770 C   0  0  0  0  0  0  0  0  0  0  0  0
    0.5200   -2.8410    1.5560 C   0  0  0  0  0  0  0  0  0  0  0  0
   -1.4250   -1.3110    1.5220 N   0  0  0  0  0  0  0  0  0  0  0  0
   -2.1020   -0.5540    0.6500 C   0  0  0  0  0  0  0  0  0  0  0  0
   -3.2320    0.2610    0.7930 C   0  0  0  0  0  0  0  0  0  0  0  0
   -3.7460    0.9500   -0.2790 C   0  0  0  0  0  0  0  0  0  0  0  0
   -4.9590    1.8350   -0.1160 C   0  0  0  0  0  0  0  0  0  0  0  0
   -5.9640    1.1060    0.5770 N   0  0  0  0  0  0  0  0  0  0  0  0
   -7.1390    1.9210    0.7410 C   0  0  0  0  0  0  0  0  0  0  0  0
   -8.1760    1.0880    1.4590 C   0  0  0  0  0  0  0  0  0  0  0  0
   -8.5740    0.0040    0.7250 O   0  0  0  0  0  0  0  0  0  0  0  0
   -7.6970   -0.4540   -0.2180 C   0  0  0  0  0  0  0  0  0  0  0  0
   -6.2490   -0.2010    0.0720 C   0  0  0  0  0  0  0  0  0  0  0  0
   -3.1110    0.8070   -1.4900 C   0  0  0  0  0  0  0  0  0  0  0  0
   -1.9840   -0.0050   -1.6310 C   0  0  0  0  0  0  0  0  0  0  0  0
   -1.4660   -0.6960   -0.5570 C   0  0  0  0  0  0  0  0  0  0  0  0
    3.9410   -0.2360   -1.5000 C   0  0  0  0  0  0  0  0  0  0  0  0
    4.4010   -0.4010   -2.8990 C   0  0  0  0  0  0  0  0  0  0  0  0
    4.6450    0.2450   -0.4780 N   0  0  0  0  0  0  0  0  0  0  0  0
    6.0510    0.6330   -0.4230 C   0  0  0  0  0  0  0  0  0  0  0  0
    6.7070    0.2110    0.6470 C   0  0  0  0  0  0  0  0  0  0  0  0
    8.1130    0.4470    0.9660 C   0  0  0  0  0  0  0  0  0  0  0  0
    8.6650   -0.8670    1.1130 F   0  0  0  0  0  0  0  0  0  0  0  0
    6.6580    1.5290   -1.4280 C   0  0  2  0  0  0  0  0  0  0  0  0
    6.9680    0.9950   -2.6230 F   0  0  0  0  0  0  0  0  0  0  0  0
    7.7170    2.2710   -0.9150 F   0  0  0  0  0  0  0  0  0  0  0  0
    5.3510    2.7690   -1.7540 Cl  0  0  0  0  0  0  0  0  0  0  0  0
  1  2  1  0
  2  3  2  0
  2 27  1  0
  3  4  1  0
  4  5  1  0
  4 25  2  0
  5  6  1  1
  5  7  1  0
  7  8  1  0
  8  9  1  0
  8 24  1  0
  9 10  1  0
  9 11  2  0
 11 12  1  0
 12 13  2  0
 12 24  1  0
 13 14  1  0
 14 15  1  0
 14 22  2  0
 15 16  1  0
 16 17  1  0
 16 21  1  0
 17 18  1  0
 18 19  1  0
 19 20  1  0
 20 21  1  0
 22 23  1  0
 23 24  2  0
 25 26  1  0
 25 27  1  0
 27 28  1  0
 28 29  2  3
 28 32  1  0
 29 30  1  0
 30 31  1  0
 32 33  1  6
 32 34  1  0
 32 35  1  0
M  END
