
     RDKit          3D

 35 38  0  0  0  0  0  0  0  0999 V2000
   -5.4900   -2.5180   -1.0220 C   0  0  0  0  0  0  0  0  0  0  0  0
   -4.3310   -2.2430   -1.9390 C   0  0  0  0  0  0  0  0  0  0  0  0
   -3.3320   -1.2570   -1.4960 C   0  0  0  0  0  0  0  0  0  0  0  0
   -3.7030    0.1410   -1.2530 C   0  0  2  0  0  0  0  0  0  0  0  0
   -4.2900    0.8340   -2.4680 C   0  0  0  0  0  0  0  0  0  0  0  0
   -4.8940    2.0900   -2.1680 N   0  0  0  0  0  0  0  0  0  0  0  0
   -6.1890    1.9820   -1.5130 C   0  0  0  0  0  0  0  0  0  0  0  0
   -6.0140    2.1570    0.0060 C   0  0  0  0  0  0  0  0  0  0  0  0
   -4.6690    1.6740    0.2650 N   0  0  1  0  0  0  0  0  0  0  0  0
   -4.2400    1.8000    1.6040 C   0  0  0  0  0  0  0  0  0  0  0  0
   -2.7420    1.6480    1.6490 C   0  0  0  0  0  0  0  0  0  0  0  0
   -2.1630    0.9340    0.5380 N   0  0  0  0  0  0  0  0  0  0  0  0
   -1.0850    0.0940    0.9420 C   0  0  0  0  0  0  0  0  0  0  0  0
   -0.4670   -0.5800    0.0800 O   0  0  0  0  0  0  0  0  0  0  0  0
   -0.6330   -0.0380    2.3490 C   0  0  0  0  0  0  0  0  0  0  0  0
    0.4970   -0.8390    2.4590 O   0  0  0  0  0  0  0  0  0  0  0  0
    1.7400   -0.6310    1.9140 C   0  0  0  0  0  0  0  0  0  0  0  0
    2.1040    0.4550    1.1450 C   0  0  0  0  0  0  0  0  0  0  0  0
    3.3790    0.5820    0.6350 C   0  0  0  0  0  0  0  0  0  0  0  0
    4.3710   -0.3750    0.8660 C   0  0  0  0  0  0  0  0  0  0  0  0
    5.7090   -0.1700    0.3250 C   0  0  0  0  0  0  0  0  0  0  0  0
    6.8360   -0.2080    1.1120 C   0  0  0  0  0  0  0  0  0  0  0  0
    8.1030   -0.0280    0.5900 C   0  0  0  0  0  0  0  0  0  0  0  0
    8.2760    0.1980   -0.7520 C   0  0  0  0  0  0  0  0  0  0  0  0
    9.5660    0.3750   -1.2470 O   0  0  0  0  0  0  0  0  0  0  0  0
    9.7490    0.6060   -2.6180 C   0  0  0  0  0  0  0  0  0  0  0  0
    7.1680    0.2430   -1.5740 C   0  0  0  0  0  0  0  0  0  0  0  0
    5.9120    0.0610   -1.0350 C   0  0  0  0  0  0  0  0  0  0  0  0
    4.0170   -1.4600    1.6300 C   0  0  0  0  0  0  0  0  0  0  0  0
    4.9490   -2.4470    1.8930 O   0  0  0  0  0  0  0  0  0  0  0  0
    2.7180   -1.5760    2.1410 C   0  0  0  0  0  0  0  0  0  0  0  0
    2.4090   -2.6980    2.9130 O   0  0  0  0  0  0  0  0  0  0  0  0
    2.6070   -2.6300    4.2930 C   0  0  0  0  0  0  0  0  0  0  0  0
   -2.4370    0.9030   -0.8770 C   0  0  0  0  0  0  0  0  0  0  0  0
   -4.6450    0.2660   -0.0960 C   0  0  0  0  0  0  0  0  0  0  0  0
  1  2  1  0
  2  3  1  0
  4  3  1  6
  4  5  1  0
  4 34  1  0
  4 35  1  0
  5  6  1  0
  6  7  1  0
  7  8  1  0
  9  8  1  1
  9 10  1  0
  9 35  1  0
 10 11  1  0
 11 12  1  0
 12 13  1  0
 12 34  1  0
 13 14  2  0
 13 15  1  0
 15 16  1  0
 16 17  1  0
 17 18  2  0
 17 31  1  0
 18 19  1  0
 19 20  2  0
 20 21  1  0
 20 29  1  0
 21 22  2  0
 21 28  1  0
 22 23  1  0
 23 24  2  0
 24 25  1  0
 24 27  1  0
 25 26  1  0
 27 28  2  0
 29 30  1  0
 29 31  2  0
 31 32  1  0
 32 33  1  0
M  CHG  1   9   1
M  END
