
     RDKit          3D

 35 38  0  0  0  0  0  0  0  0999 V2000
    5.4900   -2.0990   -1.2730 C   0  0  0  0  0  0  0  0  0  0  0  0
    6.2090   -1.4250   -2.4130 C   0  0  0  0  0  0  0  0  0  0  0  0
    7.2190   -0.5460   -2.0100 O   0  0  0  0  0  0  0  0  0  0  0  0
    6.9620    0.5760   -1.2480 C   0  0  0  0  0  0  0  0  0  0  0  0
    8.0210    1.3960   -0.8750 C   0  0  0  0  0  0  0  0  0  0  0  0
    7.8170    2.5150   -0.1240 C   0  0  0  0  0  0  0  0  0  0  0  0
    6.5470    2.9170    0.3230 C   0  0  0  0  0  0  0  0  0  0  0  0
    6.4540    4.0590    1.0810 O   0  0  0  0  0  0  0  0  0  0  0  0
    5.4780    2.1110   -0.0400 C   0  0  0  0  0  0  0  0  0  0  0  0
    4.1340    2.5000    0.2850 C   0  0  0  0  0  0  0  0  0  0  0  0
    3.9430    3.7630    0.4580 O   0  0  0  0  0  0  0  0  0  0  0  0
    2.9990    1.7110    0.4460 N   0  0  0  0  0  0  0  0  0  0  0  0
    2.9810    0.2800    0.3670 C   0  0  0  0  0  0  0  0  0  0  0  0
    1.8230   -0.2490    1.2800 C   0  0  0  0  0  0  0  0  0  0  0  0
    0.6250    0.1850    0.5970 N   0  0  0  0  0  0  0  0  0  0  0  0
   -0.5210   -0.6850    0.4290 C   0  0  0  0  0  0  0  0  0  0  0  0
   -0.4740   -1.8280    0.9000 O   0  0  0  0  0  0  0  0  0  0  0  0
   -1.6580   -0.1380   -0.2940 C   0  0  0  0  0  0  0  0  0  0  0  0
   -2.6870   -0.9740   -0.6150 O   0  0  0  0  0  0  0  0  0  0  0  0
   -3.4530   -1.7720    0.1460 C   0  0  0  0  0  0  0  0  0  0  0  0
   -3.1430   -3.1280    0.1800 C   0  0  0  0  0  0  0  0  0  0  0  0
   -2.0790   -3.7490   -0.6820 C   0  0  0  0  0  0  0  0  0  0  0  0
   -3.8640   -3.9890    0.9430 C   0  0  0  0  0  0  0  0  0  0  0  0
   -4.9220   -3.5410    1.6990 C   0  0  0  0  0  0  0  0  0  0  0  0
   -5.2310   -2.1760    1.6560 C   0  0  0  0  0  0  0  0  0  0  0  0
   -4.5200   -1.2770    0.8930 C   0  0  0  0  0  0  0  0  0  0  0  0
   -4.9390    0.1030    0.8570 C   0  0  2  0  0  0  0  0  0  0  0  0
   -5.8710    0.4790    2.0210 C   0  0  0  0  0  0  0  0  0  0  0  0
   -6.2290    1.9020    1.5350 C   0  0  0  0  0  0  0  0  0  0  0  0
   -6.0260    1.8480    0.0110 C   0  0  0  0  0  0  0  0  0  0  0  0
   -5.8990    0.4210   -0.2200 N   0  0  1  0  0  0  0  0  0  0  0  0
   -5.4840    0.0390   -1.5140 C   0  0  0  0  0  0  0  0  0  0  0  0
    0.5850    1.5160    0.0810 C   0  0  0  0  0  0  0  0  0  0  0  0
    1.7000    2.3720    0.7080 C   0  0  0  0  0  0  0  0  0  0  0  0
    5.7150    0.9670   -0.8130 C   0  0  0  0  0  0  0  0  0  0  0  0
  1  2  1  0
  2  3  1  0
  3  4  1  0
  4  5  2  0
  4 35  1  0
  5  6  1  0
  6  7  2  0
  7  8  1  0
  7  9  1  0
  9 10  1  0
  9 35  2  0
 10 11  2  0
 10 12  1  0
 12 13  1  0
 12 34  1  0
 13 14  1  0
 14 15  1  0
 15 16  1  0
 15 33  1  0
 16 17  2  0
 16 18  1  0
 18 19  1  0
 19 20  1  0
 20 21  2  0
 20 26  1  0
 21 22  1  0
 21 23  1  0
 23 24  2  0
 24 25  1  0
 25 26  2  0
 27 26  1  1
 27 28  1  0
 27 31  1  0
 28 29  1  0
 29 30  1  0
 30 31  1  0
 31 32  1  6
 33 34  1  0
M  CHG  1  31   1
M  END
