
     RDKit          3D

 35 38  0  0  0  0  0  0  0  0999 V2000
    6.9790    0.1080   -2.0670 C   0  0  0  0  0  0  0  0  0  0  0  0
    6.1760    0.5090   -0.9280 N   0  0  0  0  0  0  0  0  0  0  0  0
    4.9270    1.1120   -1.2250 C   0  0  0  0  0  0  0  0  0  0  0  0
    4.2010    1.4730   -0.2670 O   0  0  0  0  0  0  0  0  0  0  0  0
    4.4610    1.3270   -2.4930 O   0  0  0  0  0  0  0  0  0  0  0  0
    3.2090    1.9330   -2.7190 C   0  0  0  0  0  0  0  0  0  0  0  0
    2.1070    1.1530   -2.1230 C   0  0  0  0  0  0  0  0  0  0  0  0
    1.7280   -0.0570   -2.7200 C   0  0  0  0  0  0  0  0  0  0  0  0
    0.7060   -0.8330   -2.2190 C   0  0  0  0  0  0  0  0  0  0  0  0
    0.0100   -0.4410   -1.0960 C   0  0  0  0  0  0  0  0  0  0  0  0
   -1.0420   -1.2680   -0.6020 N   0  0  0  0  0  0  0  0  0  0  0  0
   -0.7230   -2.3560    0.3090 C   0  0  0  0  0  0  0  0  0  0  0  0
   -1.8670   -3.3640    0.1090 C   0  0  0  0  0  0  0  0  0  0  0  0
   -3.1230   -2.7110    0.6750 C   0  0  0  0  0  0  0  0  0  0  0  0
   -3.4460   -1.3930    0.0220 C   0  0  1  0  0  0  0  0  0  0  0  0
   -3.5220   -0.3070    0.9490 N   0  0  0  0  0  0  0  0  0  0  0  0
   -4.7920    0.0510    1.4530 C   0  0  1  0  0  0  0  0  0  0  0  0
   -5.7140   -1.1450    1.4990 C   0  0  0  0  0  0  0  0  0  0  0  0
   -4.5900    0.4430    2.9280 C   0  0  0  0  0  0  0  0  0  0  0  0
   -5.4390    1.2110    0.7200 C   0  0  2  0  0  0  0  0  0  0  0  0
   -6.7910    1.5520    1.3010 C   0  0  0  0  0  0  0  0  0  0  0  0
   -7.9350    1.1370    0.4010 C   0  0  0  0  0  0  0  0  0  0  0  0
   -7.8630    1.8830   -0.7620 O   0  0  0  0  0  0  0  0  0  0  0  0
   -6.5950    2.0050   -1.2770 C   0  0  0  0  0  0  0  0  0  0  0  0
   -5.6610    0.9110   -0.7450 C   0  0  0  0  0  0  0  0  0  0  0  0
   -2.3930   -1.0840   -0.9600 C   0  0  0  0  0  0  0  0  0  0  0  0
   -2.6680   -0.6620   -2.1020 O   0  0  0  0  0  0  0  0  0  0  0  0
    0.3740    0.7480   -0.5010 C   0  0  0  0  0  0  0  0  0  0  0  0
    1.4070    1.5390   -1.0010 C   0  0  0  0  0  0  0  0  0  0  0  0
    6.5520    0.3360    0.4460 C   0  0  1  0  0  0  0  0  0  0  0  0
    6.8940   -1.0810    0.8110 C   0  0  0  0  0  0  0  0  0  0  0  0
    8.2980   -1.1290    1.4240 C   0  0  0  0  0  0  0  0  0  0  0  0
    9.1930   -0.7120    0.4600 O   0  0  0  0  0  0  0  0  0  0  0  0
    9.0590    0.6540    0.2790 C   0  0  0  0  0  0  0  0  0  0  0  0
    7.7470    1.2140    0.7300 C   0  0  0  0  0  0  0  0  0  0  0  0
  1  2  1  0
  2  3  1  0
 30  2  1  6
  3  4  2  0
  3  5  1  0
  5  6  1  0
  6  7  1  0
  7  8  2  0
  7 29  1  0
  8  9  1  0
  9 10  2  0
 10 11  1  0
 10 28  1  0
 11 12  1  0
 11 26  1  0
 12 13  1  0
 13 14  1  0
 14 15  1  0
 15 16  1  1
 15 26  1  0
 16 17  1  0
 17 18  1  1
 17 19  1  0
 17 20  1  0
 20 21  1  1
 20 25  1  0
 21 22  1  0
 22 23  1  0
 23 24  1  0
 24 25  1  0
 26 27  2  0
 28 29  2  0
 30 31  1  0
 30 35  1  0
 31 32  1  0
 32 33  1  0
 33 34  1  0
 34 35  1  0
M  CHG  1  16   1
M  END
