
     RDKit          3D

 30 31  0  0  0  0  0  0  0  0999 V2000
    6.0720   -0.5600    2.2380 N   0  0  0  0  0  0  0  0  0  0  0  0
    5.6130   -0.9950    1.0060 O   0  0  0  0  0  0  0  0  0  0  0  0
    4.2630   -1.2790    0.9150 C   0  0  0  0  0  0  0  0  0  0  0  0
    3.5320   -0.9500   -0.1630 C   0  0  0  0  0  0  0  0  0  0  0  0
    2.1490   -1.1870   -0.3700 N   0  0  0  0  0  0  0  0  0  0  0  0
    1.7900   -0.7350   -1.5200 C   0  0  0  0  0  0  0  0  0  0  0  0
    0.4890   -0.8380   -1.9710 O   0  0  0  0  0  0  0  0  0  0  0  0
   -0.6380   -0.7640   -1.1330 C   0  0  1  0  0  0  0  0  0  0  0  0
   -1.7440   -0.9540   -2.0120 O   0  0  0  0  0  0  0  0  0  0  0  0
   -1.8490    0.2050   -3.2510 P   0  0  0  0  0  0  0  0  0  0  0  0
   -0.7980   -2.3240   -0.0700 P   0  0  0  0  0  0  0  0  0  0  0  0
   -1.3700   -2.3060    1.4840 C   0  0  0  0  0  0  0  0  0  0  0  0
   -1.4830   -3.4340    2.2400 O   0  0  0  0  0  0  0  0  0  0  0  0
   -1.8130   -0.6050    2.0190 P   0  0  0  0  0  0  0  0  0  0  0  0
   -3.4520   -0.3280    1.5170 O   0  0  0  0  0  0  0  0  0  0  0  0
   -4.2710   -1.8490    1.3580 P   0  0  0  0  0  0  0  0  0  0  0  0
   -5.0020   -2.2610    2.8690 O   0  0  0  0  0  0  0  0  0  0  0  0
   -5.5310   -1.7330    0.1410 O   0  0  0  0  0  0  0  0  0  0  0  0
   -0.7230    0.4860    1.0470 C   0  0  0  0  0  0  0  0  0  0  0  0
    0.1010    1.1730    1.5880 O   0  0  0  0  0  0  0  0  0  0  0  0
   -0.8630    0.5170   -0.4280 C   0  0  2  0  0  0  0  0  0  0  0  0
   -2.2060    0.9510   -0.6350 O   0  0  0  0  0  0  0  0  0  0  0  0
   -0.0140    1.6340   -1.0150 C   0  0  0  0  0  0  0  0  0  0  0  0
   -0.3910    3.2190   -0.0530 P   0  0  0  0  0  0  0  0  0  0  0  0
   -2.0930    3.5330   -0.1310 O   0  0  0  0  0  0  0  0  0  0  0  0
    0.5460    4.5250   -0.6440 O   0  0  0  0  0  0  0  0  0  0  0  0
    0.6740    5.4640    0.2560 O   0  0  0  0  0  0  0  0  0  0  0  0
    2.8880   -0.1590   -2.1820 O   0  0  0  0  0  0  0  0  0  0  0  0
    4.0000   -0.2730   -1.3640 C   0  0  0  0  0  0  0  0  0  0  0  0
    5.1680    0.1200   -1.5990 O   0  0  0  0  0  0  0  0  0  0  0  0
  1  2  1  0
  2  3  1  0
  3  4  2  3
  4  5  1  0
  4 29  1  0
  5  6  2  0
  6  7  1  0
  6 28  1  0
  8  7  1  6
  8  9  1  0
  8 11  1  0
  8 21  1  0
  9 10  1  0
 11 12  2  0
 12 13  1  0
 12 14  1  0
 14 15  1  0
 14 19  1  0
 15 16  1  0
 16 17  1  0
 16 18  1  0
 19 20  2  0
 19 21  1  0
 21 22  1  1
 21 23  1  0
 23 24  1  0
 24 25  1  0
 24 26  1  0
 26 27  1  0
 28 29  1  0
 29 30  2  0
M  END
