
     RDKit          3D

 32 33  0  0  0  0  0  0  0  0999 V2000
    5.9240    0.4640    0.2330 C   0  0  0  0  0  0  0  0  0  0  0  0
    4.6100    0.8010    0.5620 O   0  0  0  0  0  0  0  0  0  0  0  0
    3.7870   -0.0910   -0.1340 C   0  0  0  0  0  0  0  0  0  0  0  0
    2.3480    0.3120    0.2520 C   0  0  0  0  0  0  0  0  0  0  0  0
    1.3740   -0.4680   -0.3480 N   0  0  0  0  0  0  0  0  0  0  0  0
    1.3140   -1.8480    0.0590 C   0  0  0  0  0  0  0  0  0  0  0  0
    0.5050   -1.9320    1.2890 C   0  0  0  0  0  0  0  0  0  0  0  0
    0.7030   -2.7980    2.1940 O   0  0  0  0  0  0  0  0  0  0  0  0
   -0.5050   -1.0050    1.4200 O   0  0  0  0  0  0  0  0  0  0  0  0
   -0.9420   -0.1370    0.3920 C   0  0  2  0  0  0  0  0  0  0  0  0
   -1.1870    1.0770    0.9970 O   0  0  0  0  0  0  0  0  0  0  0  0
   -2.1330    1.0720    1.9930 C   0  0  1  0  0  0  0  0  0  0  0  0
   -1.5790    1.5010    3.2450 O   0  0  0  0  0  0  0  0  0  0  0  0
   -1.9840    2.7410    2.9520 O   0  0  0  0  0  0  0  0  0  0  0  0
   -2.9390    2.2960    2.0550 C   0  0  0  0  0  0  0  0  0  0  0  0
   -3.9720    2.7690    1.5730 O   0  0  0  0  0  0  0  0  0  0  0  0
   -2.5240   -0.8040   -0.2790 P   0  0  0  0  0  0  0  0  0  0  0  0
   -2.6330   -2.5140   -0.2220 O   0  0  0  0  0  0  0  0  0  0  0  0
   -2.6890   -3.1130    1.4000 P   0  0  0  0  0  0  0  0  0  0  0  0
   -2.1520   -4.5740    1.6230 O   0  0  0  0  0  0  0  0  0  0  0  0
   -3.9130    0.0030    0.2820 O   0  0  0  0  0  0  0  0  0  0  0  0
   -5.3060   -1.0080   -0.0180 P   0  0  0  0  0  0  0  0  0  0  0  0
   -5.2400   -1.4760   -1.7020 O   0  0  0  0  0  0  0  0  0  0  0  0
    0.1080    0.0070   -0.7150 C   0  0  2  0  0  0  0  0  0  0  0  0
   -0.4800   -1.2160   -2.0450 P   0  0  0  0  0  0  0  0  0  0  0  0
    0.2990   -1.2330   -3.3960 O   0  0  0  0  0  0  0  0  0  0  0  0
    0.0040    1.3260   -1.3940 C   0  0  1  0  0  0  0  0  0  0  0  0
    0.7690    1.3290   -2.5540 O   0  0  0  0  0  0  0  0  0  0  0  0
   -1.3570    1.3960   -1.8770 O   0  0  0  0  0  0  0  0  0  0  0  0
   -1.5540    2.5250   -2.4930 O   0  0  0  0  0  0  0  0  0  0  0  0
    0.2490    2.8300   -0.4180 P   0  0  0  0  0  0  0  0  0  0  0  0
    0.7900    4.1210   -1.0700 O   0  0  0  0  0  0  0  0  0  0  0  0
  1  2  1  0
  2  3  1  0
  3  4  1  0
  4  5  1  0
  5  6  1  0
  5 24  1  0
  6  7  1  0
  7  8  2  0
  7  9  1  0
  9 10  1  0
 10 11  1  1
 10 17  1  0
 10 24  1  0
 12 11  1  6
 12 13  1  0
 12 15  1  0
 13 14  1  0
 14 15  1  0
 15 16  2  0
 17 18  1  0
 17 21  1  0
 18 19  1  0
 19 20  2  0
 21 22  1  0
 22 23  1  0
 24 25  1  6
 24 27  1  0
 25 26  2  0
 27 28  1  6
 27 29  1  0
 27 31  1  0
 29 30  1  0
 31 32  2  0
M  END
