
     RDKit          3D

 32 33  0  0  0  0  0  0  0  0999 V2000
    4.0810   -3.2590   -1.4870 O   0  0  0  0  0  0  0  0  0  0  0  0
    2.6320   -3.7740   -1.6800 P   0  0  0  0  0  0  0  0  0  0  0  0
    1.2950   -2.9580   -0.6160 C   0  0  0  0  0  0  0  0  0  0  0  0
    0.7900   -1.8930   -1.3420 N   0  0  0  0  0  0  0  0  0  0  0  0
    0.0210   -2.3120   -2.8260 S   0  0  0  0  0  0  0  0  0  0  0  0
   -1.6450   -2.6180   -2.5220 O   0  0  0  0  0  0  0  0  0  0  0  0
   -2.2360   -1.3870   -1.4650 P   0  0  0  0  0  0  0  0  0  0  0  0
   -3.0290   -0.1220   -2.2840 O   0  0  0  0  0  0  0  0  0  0  0  0
   -3.1600    0.9180   -1.5380 O   0  0  0  0  0  0  0  0  0  0  0  0
   -3.5830    2.3520   -2.3990 P   0  0  0  0  0  0  0  0  0  0  0  0
   -1.0450   -0.8990   -0.1730 C   0  0  2  0  0  0  0  0  0  0  0  0
   -0.9500   -2.3710    1.0230 P   0  0  0  0  0  0  0  0  0  0  0  0
   -0.6210   -2.1650    2.5050 O   0  0  0  0  0  0  0  0  0  0  0  0
   -1.5830    0.1360    0.6300 N   0  0  0  0  0  0  0  0  0  0  0  0
   -0.9250    1.3340    1.0650 C   0  0  0  0  0  0  0  0  0  0  0  0
   -1.8590    2.5000    0.9630 C   0  0  0  0  0  0  0  0  0  0  0  0
   -1.4710    3.6150    0.4620 O   0  0  0  0  0  0  0  0  0  0  0  0
   -3.1450    2.3440    1.4210 O   0  0  0  0  0  0  0  0  0  0  0  0
   -3.6740    1.1040    1.4910 O   0  0  0  0  0  0  0  0  0  0  0  0
   -2.9250   -0.0240    1.1040 C   0  0  0  0  0  0  0  0  0  0  0  0
   -3.5180   -1.1210    1.2100 O   0  0  0  0  0  0  0  0  0  0  0  0
    0.3560   -0.6800   -0.7140 C   0  0  1  0  0  0  0  0  0  0  0  0
    1.1860   -0.3370    0.2860 O   0  0  0  0  0  0  0  0  0  0  0  0
    2.4990   -0.1110    0.0590 C   0  0  0  0  0  0  0  0  0  0  0  0
    3.2460    0.2330    1.3310 C   0  0  0  0  0  0  0  0  0  0  0  0
    4.4400    0.4640    1.2960 O   0  0  0  0  0  0  0  0  0  0  0  0
    2.4180    0.3200    2.9600 P   0  0  0  0  0  0  0  0  0  0  0  0
    3.5540   -0.1790    4.1720 O   0  0  0  0  0  0  0  0  0  0  0  0
    2.0080    1.9780    3.2680 O   0  0  0  0  0  0  0  0  0  0  0  0
    0.3030    0.3180   -1.8120 C   0  0  0  0  0  0  0  0  0  0  0  0
   -0.4700    0.0670   -2.8040 O   0  0  0  0  0  0  0  0  0  0  0  0
    0.9830    1.4980   -1.9120 O   0  0  0  0  0  0  0  0  0  0  0  0
  1  2  2  0
  2  3  1  0
  3  4  1  0
  4  5  1  0
  4 22  1  0
  5  6  1  0
  6  7  1  0
  7  8  1  0
  7 11  1  0
  8  9  1  0
  9 10  1  0
 11 12  1  0
 11 14  1  1
 11 22  1  0
 12 13  2  0
 14 15  1  0
 14 20  1  0
 15 16  1  0
 16 17  2  0
 16 18  1  0
 18 19  1  0
 19 20  1  0
 20 21  2  0
 22 23  1  1
 22 30  1  0
 23 24  1  0
 24 25  1  0
 25 26  2  0
 25 27  1  0
 27 28  1  0
 27 29  1  0
 30 31  2  0
 30 32  1  0
M  END
