
     RDKit          3D

 32 34  0  0  0  0  0  0  0  0999 V2000
    4.7100    2.8670   -1.9430 N   0  0  0  0  0  0  0  0  0  0  0  0
    5.3000    1.7700   -1.2610 C   0  0  0  0  0  0  0  0  0  0  0  0
    4.5360    0.8760   -0.6120 N   0  0  0  0  0  0  0  0  0  0  0  0
    5.0530   -0.1870    0.0530 C   0  0  0  0  0  0  0  0  0  0  0  0
    6.4210   -0.3630    0.0640 C   0  0  0  0  0  0  0  0  0  0  0  0
    6.6600   -1.4700    0.7790 N   0  0  0  0  0  0  0  0  0  0  0  0
    5.5080   -2.0050    1.2200 C   0  0  0  0  0  0  0  0  0  0  0  0
    4.5150   -1.1910    0.7580 N   0  0  0  0  0  0  0  0  0  0  0  0
    3.1140   -1.3850    0.9930 C   0  0  2  0  0  0  0  0  0  0  0  0
    2.3100   -0.9570   -0.0680 O   0  0  0  0  0  0  0  0  0  0  0  0
    1.0490   -1.1190    0.5150 C   0  0  2  0  0  0  0  0  0  0  0  0
   -0.0670   -0.7090   -0.3680 C   0  0  0  0  0  0  0  0  0  0  0  0
   -1.2620   -0.9190    0.3290 O   0  0  0  0  0  0  0  0  0  0  0  0
   -2.5680   -0.5570   -0.4180 P   0  0  0  0  0  0  0  0  0  0  0  0
   -2.0400    0.9840   -0.6670 O   0  0  0  0  0  0  0  0  0  0  0  0
   -2.1590   -1.7040   -1.5590 O   0  0  0  0  0  0  0  0  0  0  0  0
   -3.8560   -0.2930   -1.2100 O   0  0  0  0  0  0  0  0  0  0  0  0
   -5.2100   -0.9570   -0.9880 P   0  0  0  0  0  0  0  0  0  0  0  0
   -5.5820   -0.8050   -2.5790 O   0  0  0  0  0  0  0  0  0  0  0  0
   -4.5860   -2.3410   -0.4040 O   0  0  0  0  0  0  0  0  0  0  0  0
   -5.6170    0.2780    0.1370 N   0  0  0  0  0  0  0  0  0  0  0  0
   -6.2770    1.6700   -0.3670 P   0  0  0  0  0  0  0  0  0  0  0  0
   -5.6740    2.6270    0.6700 O   0  0  0  0  0  0  0  0  0  0  0  0
   -7.8290    2.1370    0.1590 O   0  0  0  0  0  0  0  0  0  0  0  0
   -5.6160    2.6100   -1.5920 O   0  0  0  0  0  0  0  0  0  0  0  0
    1.1860   -0.2840    1.7600 C   0  0  1  0  0  0  0  0  0  0  0  0
    0.2350   -0.6020    2.7260 O   0  0  0  0  0  0  0  0  0  0  0  0
    2.5990   -0.6770    2.2180 C   0  0  1  0  0  0  0  0  0  0  0  0
    2.4760   -1.5760    3.2580 O   0  0  0  0  0  0  0  0  0  0  0  0
    7.2150    0.5580   -0.6060 C   0  0  0  0  0  0  0  0  0  0  0  0
    8.4520    0.3810   -0.5820 O   0  0  0  0  0  0  0  0  0  0  0  0
    6.6320    1.5800   -1.2370 N   0  0  0  0  0  0  0  0  0  0  0  0
  1  2  1  0
  2  3  1  0
  2 32  2  0
  3  4  1  0
  4  5  2  0
  4  8  1  0
  5  6  1  0
  5 30  1  0
  6  7  2  0
  7  8  1  0
  9  8  1  6
  9 10  1  0
  9 28  1  0
 10 11  1  0
 11 12  1  6
 11 26  1  0
 12 13  1  0
 13 14  1  0
 14 15  1  0
 14 16  1  0
 14 17  1  0
 17 18  1  0
 18 19  1  0
 18 20  1  0
 18 21  1  0
 21 22  1  0
 22 23  1  0
 22 24  1  0
 22 25  1  0
 26 27  1  1
 26 28  1  0
 28 29  1  1
 30 31  2  0
 30 32  1  0
M  CHG  1  32   1
M  END
