
     RDKit          3D

 32 33  0  0  0  0  0  0  0  0999 V2000
    6.4260   -2.8620   -0.7170 C   0  0  0  0  0  0  0  0  0  0  0  0
    5.9050   -1.3890   -1.7480 P   0  0  0  0  0  0  0  0  0  0  0  0
    4.2840   -1.6430   -2.3640 O   0  0  0  0  0  0  0  0  0  0  0  0
    5.8790    0.0140   -0.6940 O   0  0  0  0  0  0  0  0  0  0  0  0
    4.8390   -0.4010    0.6310 P   0  0  0  0  0  0  0  0  0  0  0  0
    3.3140    0.5850    0.4720 C   0  0  0  0  0  0  0  0  0  0  0  0
    3.1840    1.5920    1.2260 O   0  0  0  0  0  0  0  0  0  0  0  0
    2.2940    0.3100   -0.4080 O   0  0  0  0  0  0  0  0  0  0  0  0
    1.1400    1.1690   -0.4310 C   0  0  1  0  0  0  0  0  0  0  0  0
    1.5890    2.4100   -0.7490 O   0  0  0  0  0  0  0  0  0  0  0  0
    0.4500    3.6650   -0.8580 P   0  0  0  0  0  0  0  0  0  0  0  0
    1.3540    5.1690   -0.9880 O   0  0  0  0  0  0  0  0  0  0  0  0
   -0.6330    3.7830    0.4800 O   0  0  0  0  0  0  0  0  0  0  0  0
   -0.6710    5.0230    0.9430 O   0  0  0  0  0  0  0  0  0  0  0  0
   -1.2930    6.0370    0.2450 C   0  0  0  0  0  0  0  0  0  0  0  0
   -1.8400    5.7960   -0.8540 O   0  0  0  0  0  0  0  0  0  0  0  0
    0.1190    0.6370   -1.2260 O   0  0  0  0  0  0  0  0  0  0  0  0
   -0.7860    0.0190   -0.3770 C   0  0  0  0  0  0  0  0  0  0  0  0
   -2.0350   -0.3880   -0.4140 C   0  0  0  0  0  0  0  0  0  0  0  0
   -2.7730   -0.2170   -1.6000 O   0  0  0  0  0  0  0  0  0  0  0  0
   -2.6870   -0.9760    0.6920 N   0  0  0  0  0  0  0  0  0  0  0  0
   -4.0100   -1.4570    0.7050 C   0  0  0  0  0  0  0  0  0  0  0  0
   -4.4630   -1.9540    1.7920 O   0  0  0  0  0  0  0  0  0  0  0  0
   -4.9250   -1.4600   -0.3660 N   0  0  0  0  0  0  0  0  0  0  0  0
   -6.6050   -2.1310   -0.1420 P   0  0  0  0  0  0  0  0  0  0  0  0
   -6.7120   -4.1660   -0.9890 P   0  0  0  0  0  0  0  0  0  0  0  0
   -1.9070   -1.1000    1.9090 C   0  0  0  0  0  0  0  0  0  0  0  0
   -2.4550   -1.6360    2.9370 O   0  0  0  0  0  0  0  0  0  0  0  0
   -0.6230   -0.6450    1.9230 O   0  0  0  0  0  0  0  0  0  0  0  0
    0.0670   -0.1750    0.8610 C   0  0  1  0  0  0  0  0  0  0  0  0
    1.0740   -1.1220    0.5580 O   0  0  0  0  0  0  0  0  0  0  0  0
    0.6360    1.0850    0.8900 O   0  0  0  0  0  0  0  0  0  0  0  0
  1  2  1  0
  2  3  1  0
  2  4  1  0
  4  5  1  0
  5  6  1  0
  6  7  2  0
  6  8  1  0
  9  8  1  1
  9 10  1  0
  9 17  1  0
  9 32  1  0
 10 11  1  0
 11 12  1  0
 11 13  1  0
 13 14  1  0
 14 15  1  0
 15 16  2  0
 17 18  1  0
 18 19  2  0
 18 30  1  0
 19 20  1  0
 19 21  1  0
 21 22  1  0
 21 27  1  0
 22 23  2  0
 22 24  1  0
 24 25  1  0
 25 26  1  0
 27 28  2  0
 27 29  1  0
 29 30  1  0
 30 31  1  6
 30 32  1  0
M  END
