
     RDKit          3D

 31 33  0  0  0  0  0  0  0  0999 V2000
    6.8110    4.0540   -0.7860 O   0  0  0  0  0  0  0  0  0  0  0  0
    7.2640    2.6460   -0.3050 P   0  0  0  0  0  0  0  0  0  0  0  0
    6.9520    1.1950   -1.2510 O   0  0  0  0  0  0  0  0  0  0  0  0
    6.4500    0.0410   -0.6620 C   0  0  0  0  0  0  0  0  0  0  0  0
    5.4990    0.0070    0.2470 C   0  0  0  0  0  0  0  0  0  0  0  0
    4.8230    1.1000    0.7840 O   0  0  0  0  0  0  0  0  0  0  0  0
    4.3120    2.0150   -0.0160 O   0  0  0  0  0  0  0  0  0  0  0  0
    2.8330    1.4240   -0.7150 P   0  0  0  0  0  0  0  0  0  0  0  0
    3.1770    0.3140   -2.0200 O   0  0  0  0  0  0  0  0  0  0  0  0
    1.6190    0.4740    0.8450 P   0  0  0  0  0  0  0  0  0  0  0  0
   -0.0330    0.9850    0.6520 O   0  0  0  0  0  0  0  0  0  0  0  0
   -0.8030   -0.0660   -0.4560 P   0  0  0  0  0  0  0  0  0  0  0  0
   -1.6420   -1.5080    0.4240 C   0  0  0  0  0  0  0  0  0  0  0  0
   -2.9650   -1.3470   -0.1900 N   0  0  0  0  0  0  0  0  0  0  0  0
   -3.2200    0.0600   -0.2720 C   0  0  2  0  0  0  0  0  0  0  0  0
   -3.2080    0.7080    1.1190 C   0  0  0  0  0  0  0  0  0  0  0  0
   -3.5950    2.0210    1.0420 O   0  0  0  0  0  0  0  0  0  0  0  0
   -4.8700    2.2550    0.5980 C   0  0  0  0  0  0  0  0  0  0  0  0
   -5.4840    1.1450   -0.1020 N   0  0  0  0  0  0  0  0  0  0  0  0
   -6.9080    0.9760   -0.1280 C   0  0  0  0  0  0  0  0  0  0  0  0
   -7.6000    1.8290    0.4800 O   0  0  0  0  0  0  0  0  0  0  0  0
   -7.5280   -0.0540   -0.7750 O   0  0  0  0  0  0  0  0  0  0  0  0
   -4.6120    0.2310   -0.7630 C   0  0  0  0  0  0  0  0  0  0  0  0
   -5.0380   -0.4150   -1.7490 O   0  0  0  0  0  0  0  0  0  0  0  0
   -2.2790    0.6380   -1.1080 O   0  0  0  0  0  0  0  0  0  0  0  0
    1.8140   -1.7090    0.6240 P   0  0  0  0  0  0  0  0  0  0  0  0
    0.9600   -2.5350    1.8680 O   0  0  0  0  0  0  0  0  0  0  0  0
    1.3190   -2.1900   -0.9540 O   0  0  0  0  0  0  0  0  0  0  0  0
    5.2960   -1.3290    0.5680 O   0  0  0  0  0  0  0  0  0  0  0  0
    6.4330   -2.0340    0.1490 C   0  0  0  0  0  0  0  0  0  0  0  0
    6.8790   -1.2540   -0.9460 O   0  0  0  0  0  0  0  0  0  0  0  0
  1  2  2  0
  2  3  1  0
  3  4  1  0
  4  5  2  0
  4 31  1  0
  5  6  1  0
  5 29  1  0
  6  7  1  0
  7  8  1  0
  8  9  1  0
  8 10  1  0
 10 11  1  0
 10 26  1  0
 11 12  1  0
 12 13  1  0
 12 25  1  0
 13 14  1  0
 14 15  1  0
 15 16  1  1
 15 23  1  0
 15 25  1  0
 16 17  1  0
 17 18  1  0
 18 19  1  0
 19 20  1  0
 19 23  1  0
 20 21  2  0
 20 22  1  0
 23 24  2  0
 26 27  1  0
 26 28  1  0
 29 30  1  0
 30 31  1  0
M  END
