
     RDKit          3D

 13 13  0  0  0  0  0  0  0  0999 V2000
    0.9410    1.5580   -0.9930 C   0  0  0  0  0  0  0  0  0  0  0  0
    0.7400    0.4800   -0.2920 C   0  0  0  0  0  0  0  0  0  0  0  0
    1.8920   -0.2060    0.2430 N   0  0  0  0  0  0  0  0  0  0  0  0
    2.9050   -0.4920   -0.4970 C   0  0  0  0  0  0  0  0  0  0  0  0
    4.0940   -1.1950    0.0330 C   0  0  0  0  0  0  0  0  0  0  0  0
   -0.5630   -0.0800    0.0250 C   0  0  0  0  0  0  0  0  0  0  0  0
   -0.6320   -1.4260   -0.0220 N   0  0  0  0  0  0  0  0  0  0  0  0
   -1.6350   -2.1750    0.2200 O   0  0  0  0  0  0  0  0  0  0  0  0
   -3.0490   -1.3950    0.6500 P   0  0  0  0  0  0  0  0  0  0  0  0
   -4.6430   -2.0450    0.4460 O   0  0  0  0  0  0  0  0  0  0  0  0
   -2.8550    0.2880    0.6790 N   0  0  0  0  0  0  0  0  0  0  0  0
   -1.5970    0.7360    0.3530 C   0  0  0  0  0  0  0  0  0  0  0  0
   -1.4750    2.2230    0.4380 C   0  0  0  0  0  0  0  0  0  0  0  0
  1  2  2  0
  2  3  1  0
  2  6  1  0
  3  4  2  3
  4  5  1  0
  6  7  1  0
  6 12  2  0
  7  8  1  0
  8  9  1  0
  9 10  1  0
  9 11  1  0
 11 12  1  0
 12 13  1  0
M  END
