
     RDKit          3D

 11 11  0  0  0  0  0  0  0  0999 V2000
    3.8980    0.7320   -0.1520 O   0  0  0  0  0  0  0  0  0  0  0  0
    3.2470   -0.3840   -0.2440 O   0  0  0  0  0  0  0  0  0  0  0  0
    2.5050   -0.4840   -1.3240 O   0  0  0  0  0  0  0  0  0  0  0  0
    1.3120   -0.9590   -1.0870 O   0  0  0  0  0  0  0  0  0  0  0  0
    0.5280   -0.0980   -0.3240 C   0  0  2  0  0  0  0  0  0  0  0  0
    0.0290   -0.8370    0.8960 C   0  0  0  0  0  0  0  0  0  0  0  0
   -0.9460   -0.1250    1.5590 O   0  0  0  0  0  0  0  0  0  0  0  0
   -2.1260   -0.2290    0.8210 C   0  0  0  0  0  0  0  0  0  0  0  0
   -2.3200    1.0440    0.0610 C   0  0  0  0  0  0  0  0  0  0  0  0
   -1.1840    1.3030   -0.6850 O   0  0  0  0  0  0  0  0  0  0  0  0
   -0.5940    0.2030   -1.0990 O   0  0  0  0  0  0  0  0  0  0  0  0
  1  2  1  0
  2  3  1  0
  3  4  1  0
  5  4  1  6
  5  6  1  0
  5 11  1  0
  6  7  1  0
  7  8  1  0
  8  9  1  0
  9 10  1  0
 10 11  1  0
M  END
