
     RDKit          3D

 13 13  0  0  0  0  0  0  0  0999 V2000
    4.9460    0.5820   -0.1730 C   0  0  0  0  0  0  0  0  0  0  0  0
    4.0190   -0.1930   -0.5850 N   0  0  0  0  0  0  0  0  0  0  0  0
    2.6610   -0.0710   -0.4340 C   0  0  0  0  0  0  0  0  0  0  0  0
    1.8820    0.1860   -1.3890 N   0  0  0  0  0  0  0  0  0  0  0  0
    0.5650    0.3310   -1.3890 O   0  0  0  0  0  0  0  0  0  0  0  0
   -0.2540    0.2300   -0.3300 C   0  0  0  0  0  0  0  0  0  0  0  0
   -1.7110    0.4280   -0.5390 C   0  0  0  0  0  0  0  0  0  0  0  0
   -2.1750    0.6940   -1.7390 C   0  0  0  0  0  0  0  0  0  0  0  0
   -2.6360    0.3360    0.5350 N   0  0  0  0  0  0  0  0  0  0  0  0
   -3.9030   -0.3580    0.4130 C   0  0  0  0  0  0  0  0  0  0  0  0
    0.1220   -0.0300    0.8850 C   0  0  0  0  0  0  0  0  0  0  0  0
    1.9010   -0.2840    1.2160 P   0  0  0  0  0  0  0  0  0  0  0  0
    2.0760   -1.9690    1.6500 O   0  0  0  0  0  0  0  0  0  0  0  0
  1  2  2  0
  2  3  1  0
  3  4  2  0
  3 12  1  0
  4  5  1  0
  5  6  1  0
  6  7  1  0
  6 11  2  0
  7  8  2  0
  7  9  1  0
  9 10  1  0
 11 12  1  0
 12 13  1  0
M  END
