
     RDKit          3D

 28 30  0  0  0  0  0  0  0  0999 V2000
   -5.0790    3.1430    0.1050 N   0  0  0  0  0  0  0  0  0  0  0  0
   -5.0380    1.7330   -0.0760 C   0  0  0  0  0  0  0  0  0  0  0  0
   -3.9420    0.9880    0.3010 N   0  0  0  0  0  0  0  0  0  0  0  0
   -3.9280   -0.3560    0.0770 C   0  0  0  0  0  0  0  0  0  0  0  0
   -5.0230   -0.9160   -0.5090 C   0  0  0  0  0  0  0  0  0  0  0  0
   -4.8040   -2.2270   -0.6920 N   0  0  0  0  0  0  0  0  0  0  0  0
   -3.5600   -2.4560   -0.2080 C   0  0  0  0  0  0  0  0  0  0  0  0
   -3.0150   -1.3430    0.2620 N   0  0  0  0  0  0  0  0  0  0  0  0
   -1.7010   -1.1340    0.7800 C   0  0  2  0  0  0  0  0  0  0  0  0
   -0.9850   -0.1450    0.0040 O   0  0  0  0  0  0  0  0  0  0  0  0
    0.2660   -0.5590    0.0320 C   0  0  2  0  0  0  0  0  0  0  0  0
    1.4860    0.0010   -0.5160 C   0  0  0  0  0  0  0  0  0  0  0  0
    1.7610    1.2960    0.0190 O   0  0  0  0  0  0  0  0  0  0  0  0
    3.2890    1.0460    0.6510 P   0  0  0  0  0  0  0  0  0  0  0  0
    3.8170   -0.4900    0.7480 O   0  0  0  0  0  0  0  0  0  0  0  0
    4.0760    2.2780    1.4020 O   0  0  0  0  0  0  0  0  0  0  0  0
    4.0410    1.3110   -0.6090 O   0  0  0  0  0  0  0  0  0  0  0  0
    5.6690    1.1660   -0.6750 P   0  0  0  0  0  0  0  0  0  0  0  0
    6.6960    2.2700    0.0310 O   0  0  0  0  0  0  0  0  0  0  0  0
    6.3370    0.0030   -1.6700 O   0  0  0  0  0  0  0  0  0  0  0  0
    5.7660    0.2070    0.5150 O   0  0  0  0  0  0  0  0  0  0  0  0
    0.1040   -2.0270   -0.4180 C   0  0  1  0  0  0  0  0  0  0  0  0
    1.2900   -2.6980   -0.3270 O   0  0  0  0  0  0  0  0  0  0  0  0
   -0.8760   -2.3900    0.7320 C   0  0  1  0  0  0  0  0  0  0  0  0
   -0.0890   -2.4150    1.8450 O   0  0  0  0  0  0  0  0  0  0  0  0
   -6.1410   -0.1750   -0.8860 C   0  0  0  0  0  0  0  0  0  0  0  0
   -7.1130   -0.7740   -1.4120 O   0  0  0  0  0  0  0  0  0  0  0  0
   -6.0950    1.1320   -0.6460 N   0  0  0  0  0  0  0  0  0  0  0  0
  1  2  1  0
  2  3  1  0
  2 28  2  0
  3  4  1  0
  4  5  2  0
  4  8  1  0
  5  6  1  0
  5 26  1  0
  6  7  2  0
  7  8  1  0
  9  8  1  6
  9 10  1  0
  9 24  1  0
 10 11  1  0
 11 12  1  6
 11 22  1  0
 12 13  1  0
 13 14  1  0
 14 15  1  0
 14 16  1  0
 14 17  1  0
 17 18  1  0
 18 19  1  0
 18 20  1  0
 18 21  1  0
 22 23  1  1
 22 24  1  0
 24 25  1  1
 26 27  2  0
 26 28  1  0
M  CHG  1  28   1
M  END
