
     RDKit          3D

 11 10  0  0  0  0  0  0  0  0999 V2000
    2.1340   -1.3510   -0.6580 O   0  0  0  0  0  0  0  0  0  0  0  0
    2.4970   -0.4170    0.0710 C   0  0  0  0  0  0  0  0  0  0  0  0
    3.7590   -0.5920    0.6850 O   0  0  0  0  0  0  0  0  0  0  0  0
    1.7380    0.6820    0.2580 O   0  0  0  0  0  0  0  0  0  0  0  0
    0.5030    0.9400   -0.2730 C   0  0  0  0  0  0  0  0  0  0  0  0
   -0.6800    0.1660    0.1530 C   0  0  2  0  0  0  0  0  0  0  0  0
   -0.6880   -1.3030   -0.0210 C   0  0  0  0  0  0  0  0  0  0  0  0
   -1.9770   -1.7870    0.3850 O   0  0  0  0  0  0  0  0  0  0  0  0
   -1.7640    0.6830   -0.6260 O   0  0  0  0  0  0  0  0  0  0  0  0
   -2.6280    1.2540    0.1610 O   0  0  0  0  0  0  0  0  0  0  0  0
   -2.6220    2.5620   -0.0410 O   0  0  0  0  0  0  0  0  0  0  0  0
  1  2  2  0
  2  3  1  0
  2  4  1  0
  4  5  1  0
  6  5  1  6
  6  7  1  0
  6  9  1  0
  7  8  1  0
  9 10  1  0
 10 11  1  0
M  END
