
     RDKit          3D

 11 10  0  0  0  0  0  0  0  0999 V2000
   -3.4520    0.2850    0.0150 C   0  0  0  0  0  0  0  0  0  0  0  0
   -2.2640   -0.4020    0.2880 O   0  0  0  0  0  0  0  0  0  0  0  0
   -1.2570    0.2200   -0.4350 C   0  0  0  0  0  0  0  0  0  0  0  0
    0.0620   -0.4820   -0.1800 C   0  0  1  0  0  0  0  0  0  0  0  0
    0.0280   -1.8120   -0.5550 O   0  0  0  0  0  0  0  0  0  0  0  0
    0.2250   -2.6050    0.4520 O   0  0  0  0  0  0  0  0  0  0  0  0
    1.0750    0.1400   -0.9060 O   0  0  0  0  0  0  0  0  0  0  0  0
    1.9720    0.6020   -0.0490 O   0  0  0  0  0  0  0  0  0  0  0  0
    3.2660    0.7960   -0.4510 C   0  0  0  0  0  0  0  0  0  0  0  0
    3.6220    0.5420   -1.6290 O   0  0  0  0  0  0  0  0  0  0  0  0
    4.2310    1.2810    0.4270 O   0  0  0  0  0  0  0  0  0  0  0  0
  1  2  1  0
  2  3  1  0
  4  3  1  6
  4  5  1  0
  4  7  1  0
  5  6  1  0
  7  8  1  0
  8  9  1  0
  9 10  2  0
  9 11  1  0
M  END
