
     RDKit          3D

 13 14  0  0  0  0  0  0  0  0999 V2000
   -1.8960    0.6720    1.2310 C   0  0  0  0  0  0  0  0  0  0  0  0
   -1.1030   -0.0040    0.0700 C   0  0  2  0  0  0  0  0  0  0  0  0
   -1.8000   -1.3490   -0.0740 C   0  0  0  0  0  0  0  0  0  0  0  0
   -1.3410   -1.9990    1.2030 C   0  0  0  0  0  0  0  0  0  0  0  0
   -0.1760   -1.4630    1.5840 C   0  0  0  0  0  0  0  0  0  0  0  0
    0.2070   -0.4140    0.5640 C   0  0  0  0  0  0  0  0  0  0  0  0
    1.3580   -0.0590    0.1850 N   0  0  0  0  0  0  0  0  0  0  0  0
    1.7000    0.8200   -0.8230 N   0  0  0  0  0  0  0  0  0  0  0  0
    3.0350    1.1890   -1.2030 C   0  0  0  0  0  0  0  0  0  0  0  0
    3.8020    0.0350   -1.6260 N   0  0  0  0  0  0  0  0  0  0  0  0
    0.2380    1.4960   -1.6610 P   0  0  0  0  0  0  0  0  0  0  0  0
   -1.1830    0.9180   -1.0280 C   0  0  0  0  0  0  0  0  0  0  0  0
   -2.4120    1.3400   -1.5770 O   0  0  0  0  0  0  0  0  0  0  0  0
  2  1  1  1
  2  3  1  0
  2  6  1  0
  2 12  1  0
  3  4  1  0
  4  5  2  0
  5  6  1  0
  6  7  2  0
  7  8  1  0
  8  9  1  0
  8 11  1  0
  9 10  1  0
 11 12  2  0
 12 13  1  0
M  END
