
     RDKit          3D

 12 12  0  0  0  0  0  0  0  0999 V2000
   -4.4100    0.9860   -0.5180 N   0  0  0  0  0  0  0  0  0  0  0  0
   -3.7260   -0.2380   -0.3870 C   0  0  0  0  0  0  0  0  0  0  0  0
   -4.3080   -1.3340   -0.1750 O   0  0  0  0  0  0  0  0  0  0  0  0
   -2.3340   -0.2070   -0.5040 O   0  0  0  0  0  0  0  0  0  0  0  0
   -1.5890   -1.3830   -0.3860 C   0  0  0  0  0  0  0  0  0  0  0  0
   -0.1190   -1.0840   -0.5490 C   0  0  0  0  0  0  0  0  0  0  0  0
    0.2840   -0.1690    0.4580 O   0  0  0  0  0  0  0  0  0  0  0  0
    1.5720    0.3010    0.5760 C   0  0  0  0  0  0  0  0  0  0  0  0
    2.0430    1.5130    0.3460 C   0  0  0  0  0  0  0  0  0  0  0  0
    3.5020    1.4990    0.6230 C   0  0  0  0  0  0  0  0  0  0  0  0
    3.6160    0.4770    1.5580 O   0  0  0  0  0  0  0  0  0  0  0  0
    2.7500   -0.4920    1.0060 C   0  0  0  0  0  0  0  0  0  0  0  0
  1  2  1  0
  2  3  2  0
  2  4  1  0
  4  5  1  0
  5  6  1  0
  6  7  1  0
  7  8  1  0
  8  9  2  0
  8 12  1  0
  9 10  1  0
 10 11  1  0
 11 12  1  0
M  END
