
     RDKit          3D

 11 11  0  0  0  0  0  0  0  0999 V2000
    2.5670    0.6860    1.1380 O   0  0  0  0  0  0  0  0  0  0  0  0
    2.6280    0.0140   -0.1130 C   0  0  0  0  0  0  0  0  0  0  0  0
    1.3500    0.2960   -0.8750 C   0  0  0  0  0  0  0  0  0  0  0  0
    0.2090   -0.1630   -0.1650 N   0  0  0  0  0  0  0  0  0  0  0  0
    0.1450   -1.5960   -0.1950 C   0  0  0  0  0  0  0  0  0  0  0  0
   -0.8600   -2.0470    0.8430 C   0  0  0  0  0  0  0  0  0  0  0  0
   -1.7320   -1.0770    1.2620 O   0  0  0  0  0  0  0  0  0  0  0  0
   -2.1620   -0.2130    0.2960 C   0  0  0  0  0  0  0  0  0  0  0  0
   -1.0490    0.3870   -0.5220 C   0  0  1  0  0  0  0  0  0  0  0  0
   -1.1240    1.8950   -0.3000 C   0  0  0  0  0  0  0  0  0  0  0  0
   -0.8960    2.1650    1.0530 O   0  0  0  0  0  0  0  0  0  0  0  0
  1  2  1  0
  2  3  1  0
  3  4  1  0
  4  5  1  0
  4  9  1  0
  5  6  1  0
  6  7  1  0
  7  8  1  0
  8  9  1  0
  9 10  1  1
 10 11  1  0
M  END
