
     RDKit          3D

 12 12  0  0  0  0  0  0  0  0999 V2000
   -4.3030    0.1880   -0.0320 N   0  0  0  0  0  0  0  0  0  0  0  0
   -2.9030    0.2490    0.2080 C   0  0  0  0  0  0  0  0  0  0  0  0
   -2.4760   -0.3440    1.2280 O   0  0  0  0  0  0  0  0  0  0  0  0
   -2.0790    0.9990   -0.7590 C   0  0  0  0  0  0  0  0  0  0  0  0
   -0.7110    1.0000   -0.4370 O   0  0  0  0  0  0  0  0  0  0  0  0
    0.0010   -0.1720   -0.3440 C   0  0  0  0  0  0  0  0  0  0  0  0
   -0.6480   -1.2430   -0.5650 O   0  0  0  0  0  0  0  0  0  0  0  0
    1.4200   -0.2360   -0.0130 C   0  0  0  0  0  0  0  0  0  0  0  0
    2.2640    0.7480    0.2480 C   0  0  0  0  0  0  0  0  0  0  0  0
    3.6080    0.1220    0.5250 C   0  0  0  0  0  0  0  0  0  0  0  0
    3.2090   -1.1150    1.0380 O   0  0  0  0  0  0  0  0  0  0  0  0
    2.2330   -1.4740    0.0990 C   0  0  0  0  0  0  0  0  0  0  0  0
  1  2  1  0
  2  3  2  0
  2  4  1  0
  4  5  1  0
  5  6  1  0
  6  7  2  0
  6  8  1  0
  8  9  2  0
  8 12  1  0
  9 10  1  0
 10 11  1  0
 11 12  1  0
M  END
