
     RDKit          3D

 21 24  0  0  0  0  0  0  0  0999 V2000
    3.8920    2.5540   -0.8020 C   0  0  0  0  0  0  0  0  0  0  0  0
    2.9860    2.1660    0.3620 C   0  0  0  0  0  0  0  0  0  0  0  0
    2.9890    0.7320    0.5720 C   0  0  0  0  0  0  0  0  0  0  0  0
    2.0880   -0.1880    0.4540 C   0  0  0  0  0  0  0  0  0  0  0  0
    2.4220   -1.5770    0.7660 N   0  0  0  0  0  0  0  0  0  0  0  0
    1.4230   -2.5830    0.7220 C   0  0  0  0  0  0  0  0  0  0  0  0
    0.1660   -2.3460    0.4560 C   0  0  0  0  0  0  0  0  0  0  0  0
   -0.5070   -3.6630    0.4810 C   0  0  0  0  0  0  0  0  0  0  0  0
   -1.7470   -3.8200    0.2640 O   0  0  0  0  0  0  0  0  0  0  0  0
    0.4200   -4.6310    0.7680 O   0  0  0  0  0  0  0  0  0  0  0  0
    1.6510   -4.0470    0.9710 C   0  0  0  0  0  0  0  0  0  0  0  0
   -0.3260   -0.9680    0.4120 C   0  0  2  0  0  0  0  0  0  0  0  0
   -1.5810   -0.8460   -0.4640 C   0  0  0  0  0  0  0  0  0  0  0  0
   -1.9100    0.6530   -0.3310 C   0  0  2  0  0  0  0  0  0  0  0  0
   -1.7610    0.9540    1.0070 O   0  0  0  0  0  0  0  0  0  0  0  0
   -3.2860    0.9510   -0.8530 C   0  0  1  0  0  0  0  0  0  0  0  0
   -4.4870    0.3140   -0.2630 C   0  0  0  0  0  0  0  0  0  0  0  0
   -4.1660    1.7440    0.0480 C   0  0  0  0  0  0  0  0  0  0  0  0
   -0.9030    1.3260   -1.2230 C   0  0  0  0  0  0  0  0  0  0  0  0
    0.4470    1.0250   -0.7620 C   0  0  0  0  0  0  0  0  0  0  0  0
    0.7060   -0.0030    0.0650 C   0  0  0  0  0  0  0  0  0  0  0  0
  1  2  1  0
  2  3  1  0
  3  4  2  3
  4  5  1  0
  4 21  1  0
  5  6  1  0
  6  7  2  0
  6 11  1  0
  7  8  1  0
  7 12  1  0
  8  9  2  0
  8 10  1  0
 10 11  1  0
 12 13  1  6
 12 21  1  0
 13 14  1  0
 14 15  1  1
 14 16  1  0
 14 19  1  0
 16 17  1  1
 16 18  1  0
 17 18  1  0
 19 20  1  0
 20 21  2  0
M  END
