
     RDKit          3D

 11 11  0  0  0  0  0  0  0  0999 V2000
    1.0090   -1.0110    1.1890 O   0  0  0  0  0  0  0  0  0  0  0  0
    0.3440   -0.5980    0.2090 C   0  0  0  0  0  0  0  0  0  0  0  0
    0.9530   -0.4750   -1.0110 O   0  0  0  0  0  0  0  0  0  0  0  0
    2.2720   -0.7420   -1.3630 C   0  0  0  0  0  0  0  0  0  0  0  0
    3.3030    0.1080   -0.6980 C   0  0  0  0  0  0  0  0  0  0  0  0
    3.2690   -0.0300    0.6530 O   0  0  0  0  0  0  0  0  0  0  0  0
   -1.0800   -0.2590    0.4090 C   0  0  0  0  0  0  0  0  0  0  0  0
   -1.7440   -0.3460    1.5380 C   0  0  0  0  0  0  0  0  0  0  0  0
   -3.1550    0.0900    1.3130 C   0  0  0  0  0  0  0  0  0  0  0  0
   -3.3070   -0.1020   -0.1350 N   0  0  0  0  0  0  0  0  0  0  0  0
   -2.0100    0.2440   -0.6250 C   0  0  0  0  0  0  0  0  0  0  0  0
  1  2  2  0
  2  3  1  0
  2  7  1  0
  3  4  1  0
  4  5  1  0
  5  6  1  0
  7  8  2  0
  7 11  1  0
  8  9  1  0
  9 10  1  0
 10 11  1  0
M  END
