
     RDKit          3D

 12 12  0  0  0  0  0  0  0  0999 V2000
    0.0070    0.3500    1.3740 O   0  0  0  0  0  0  0  0  0  0  0  0
    0.3150    0.1290    0.1710 C   0  0  0  0  0  0  0  0  0  0  0  0
    1.6780    0.2120   -0.2440 N   0  0  0  0  0  0  0  0  0  0  0  0
    2.6680    0.5550    0.7620 C   0  0  0  0  0  0  0  0  0  0  0  0
    4.0480    0.5890    0.1100 C   0  0  0  0  0  0  0  0  0  0  0  0
    4.3370   -0.6650   -0.4260 O   0  0  0  0  0  0  0  0  0  0  0  0
   -0.6980   -0.1890   -0.7030 O   0  0  0  0  0  0  0  0  0  0  0  0
   -2.0250   -0.2710   -0.3020 C   0  0  0  0  0  0  0  0  0  0  0  0
   -2.6680   -1.3320    0.1510 C   0  0  0  0  0  0  0  0  0  0  0  0
   -4.0720   -0.9890    0.4670 C   0  0  0  0  0  0  0  0  0  0  0  0
   -4.2720    0.2640   -0.1090 O   0  0  0  0  0  0  0  0  0  0  0  0
   -3.0360    0.8310   -0.2900 C   0  0  0  0  0  0  0  0  0  0  0  0
  1  2  2  0
  2  3  1  0
  2  7  1  0
  3  4  1  0
  4  5  1  0
  5  6  1  0
  7  8  1  0
  8  9  2  0
  8 12  1  0
  9 10  1  0
 10 11  1  0
 11 12  1  0
M  END
