
     RDKit          3D

 17 19  0  0  0  0  0  0  0  0999 V2000
   -4.4130    0.9630    0.2820 C   0  0  0  0  0  0  0  0  0  0  0  0
   -2.9640    1.2700    0.2800 C   0  0  0  0  0  0  0  0  0  0  0  0
   -2.4080    2.4840    0.4520 N   0  0  0  0  0  0  0  0  0  0  0  0
   -1.1060    2.4440    0.4010 N   0  0  0  0  0  0  0  0  0  0  0  0
   -0.7660    1.1490    0.1860 C   0  0  0  0  0  0  0  0  0  0  0  0
    0.4180    0.5310    0.0480 N   0  0  0  0  0  0  0  0  0  0  0  0
    0.5700   -0.7800   -0.1630 C   0  0  0  0  0  0  0  0  0  0  0  0
    1.8410   -1.4010   -0.3040 N   0  0  0  0  0  0  0  0  0  0  0  0
    3.0650   -0.7020   -0.2360 C   0  0  0  0  0  0  0  0  0  0  0  0
    4.3160   -1.2700   -0.3680 C   0  0  0  0  0  0  0  0  0  0  0  0
    5.2800   -0.3110   -0.2510 C   0  0  0  0  0  0  0  0  0  0  0  0
    4.6230    0.8410   -0.0470 N   0  0  0  0  0  0  0  0  0  0  0  0
    3.2840    0.6410   -0.0330 C   0  0  0  0  0  0  0  0  0  0  0  0
   -0.5730   -1.5190   -0.2400 N   0  0  0  0  0  0  0  0  0  0  0  0
   -1.7980   -0.9570   -0.1100 C   0  0  0  0  0  0  0  0  0  0  0  0
   -3.0400   -1.7470   -0.1910 C   0  0  0  0  0  0  0  0  0  0  0  0
   -1.9140    0.3960    0.1070 C   0  0  0  0  0  0  0  0  0  0  0  0
  1  2  1  0
  2  3  2  0
  2 17  1  0
  3  4  1  0
  4  5  1  0
  5  6  2  0
  5 17  1  0
  6  7  1  0
  7  8  1  0
  7 14  2  0
  8  9  1  0
  9 10  1  0
  9 13  2  0
 10 11  2  0
 11 12  1  0
 12 13  1  0
 14 15  1  0
 15 16  1  0
 15 17  2  0
M  END
