
     RDKit          3D

 17 19  0  0  0  0  0  0  0  0999 V2000
   -5.1170   -0.1130   -0.9730 C   0  0  0  0  0  0  0  0  0  0  0  0
   -4.0210   -0.6590   -1.4380 C   0  0  0  0  0  0  0  0  0  0  0  0
   -2.8440   -0.0050   -0.8960 C   0  0  0  0  0  0  0  0  0  0  0  0
   -1.5040   -0.2160   -1.0780 N   0  0  0  0  0  0  0  0  0  0  0  0
   -0.5700    0.5210   -0.4610 C   0  0  0  0  0  0  0  0  0  0  0  0
    0.8300    0.3380   -0.5830 N   0  0  0  0  0  0  0  0  0  0  0  0
    1.5970   -0.0280    0.5390 N   0  0  0  0  0  0  0  0  0  0  0  0
    2.9710   -0.1980    0.5620 C   0  0  0  0  0  0  0  0  0  0  0  0
    3.7630   -0.0890   -0.5430 C   0  0  0  0  0  0  0  0  0  0  0  0
    5.1250   -0.2440   -0.4860 N   0  0  0  0  0  0  0  0  0  0  0  0
    5.7050   -0.5140    0.7030 C   0  0  0  0  0  0  0  0  0  0  0  0
    4.9100   -0.6260    1.8310 C   0  0  0  0  0  0  0  0  0  0  0  0
    3.5880   -0.4700    1.7460 N   0  0  0  0  0  0  0  0  0  0  0  0
   -1.0440    1.5230    0.3820 C   0  0  0  0  0  0  0  0  0  0  0  0
   -2.3510    1.7430    0.5720 N   0  0  0  0  0  0  0  0  0  0  0  0
   -3.2800    0.9870   -0.0600 C   0  0  0  0  0  0  0  0  0  0  0  0
   -4.7600    0.9760   -0.0570 C   0  0  0  0  0  0  0  0  0  0  0  0
  1  2  2  0
  1 17  1  0
  2  3  1  0
  3  4  2  0
  3 16  1  0
  4  5  1  0
  5  6  1  0
  5 14  2  0
  6  7  1  0
  7  8  1  0
  8  9  2  0
  8 13  1  0
  9 10  1  0
 10 11  2  0
 11 12  1  0
 12 13  2  0
 14 15  1  0
 15 16  2  0
 16 17  1  0
M  END
