
     RDKit          3D

 17 19  0  0  0  0  0  0  0  0999 V2000
    4.8050    1.3810    0.6740 C   0  0  0  0  0  0  0  0  0  0  0  0
    3.7500    0.4520    0.1440 C   0  0  0  0  0  0  0  0  0  0  0  0
    4.0340   -0.6730   -0.5960 C   0  0  0  0  0  0  0  0  0  0  0  0
    2.8650   -1.2540   -0.8960 N   0  0  0  0  0  0  0  0  0  0  0  0
    1.8700   -0.5250   -0.3650 C   0  0  0  0  0  0  0  0  0  0  0  0
    0.4460   -0.8370   -0.4750 C   0  0  0  0  0  0  0  0  0  0  0  0
   -0.1850   -1.8810   -1.1060 C   0  0  0  0  0  0  0  0  0  0  0  0
   -1.5140   -1.7750   -0.9540 N   0  0  0  0  0  0  0  0  0  0  0  0
   -1.7430   -0.6800   -0.2360 N   0  0  0  0  0  0  0  0  0  0  0  0
   -3.0810   -0.2700    0.1120 C   0  0  0  0  0  0  0  0  0  0  0  0
   -3.3880    0.8000    0.8180 C   0  0  0  0  0  0  0  0  0  0  0  0
   -4.8590    0.8390    0.9350 C   0  0  0  0  0  0  0  0  0  0  0  0
   -5.2950   -0.3240    0.2160 N   0  0  0  0  0  0  0  0  0  0  0  0
   -4.3010   -0.9740   -0.2640 C   0  0  0  0  0  0  0  0  0  0  0  0
   -0.5780   -0.0840    0.0730 C   0  0  0  0  0  0  0  0  0  0  0  0
   -0.3980    1.1120    0.8300 N   0  0  0  0  0  0  0  0  0  0  0  0
    2.4320    0.5240    0.2740 N   0  0  0  0  0  0  0  0  0  0  0  0
  1  2  1  0
  2  3  2  0
  2 17  1  0
  3  4  1  0
  4  5  1  0
  5  6  1  0
  5 17  2  0
  6  7  1  0
  6 15  2  0
  7  8  2  0
  8  9  1  0
  9 10  1  0
  9 15  1  0
 10 11  2  0
 10 14  1  0
 11 12  1  0
 12 13  1  0
 13 14  2  0
 15 16  1  0
M  END
