
     RDKit          3D

 17 19  0  0  0  0  0  0  0  0999 V2000
    5.2250    1.1190    0.2040 C   0  0  0  0  0  0  0  0  0  0  0  0
    4.9960   -0.0890   -0.5780 C   0  0  0  0  0  0  0  0  0  0  0  0
    3.9840   -0.8500   -0.4430 N   0  0  0  0  0  0  0  0  0  0  0  0
    3.0050   -0.5460    0.4970 N   0  0  0  0  0  0  0  0  0  0  0  0
    1.6280   -0.8560    0.2200 C   0  0  0  0  0  0  0  0  0  0  0  0
    1.4250   -2.0940   -0.3240 N   0  0  0  0  0  0  0  0  0  0  0  0
    0.1830   -2.4910   -0.6380 C   0  0  0  0  0  0  0  0  0  0  0  0
   -0.8460   -1.6110   -0.3900 C   0  0  0  0  0  0  0  0  0  0  0  0
   -2.1730   -1.6830   -0.5800 N   0  0  0  0  0  0  0  0  0  0  0  0
   -2.7790   -0.5330   -0.1710 C   0  0  0  0  0  0  0  0  0  0  0  0
   -1.8160    0.3080    0.2960 C   0  0  0  0  0  0  0  0  0  0  0  0
   -0.6170   -0.3560    0.1640 C   0  0  0  0  0  0  0  0  0  0  0  0
    0.6320    0.0040    0.4640 N   0  0  0  0  0  0  0  0  0  0  0  0
   -2.2420    1.6220    0.7600 C   0  0  0  0  0  0  0  0  0  0  0  0
   -3.5090    1.9990    0.7310 C   0  0  0  0  0  0  0  0  0  0  0  0
   -4.6120    1.1540    0.2370 C   0  0  0  0  0  0  0  0  0  0  0  0
   -4.1410   -0.1570   -0.1510 N   0  0  0  0  0  0  0  0  0  0  0  0
  1  2  1  0
  2  3  2  3
  3  4  1  0
  4  5  1  0
  5  6  2  0
  5 13  1  0
  6  7  1  0
  7  8  2  0
  8  9  1  0
  8 12  1  0
  9 10  1  0
 10 11  2  0
 10 17  1  0
 11 12  1  0
 11 14  1  0
 12 13  2  0
 14 15  2  0
 15 16  1  0
 16 17  1  0
M  END
