
     RDKit          3D

 17 19  0  0  0  0  0  0  0  0999 V2000
    4.4700    0.3530   -0.5790 C   0  0  0  0  0  0  0  0  0  0  0  0
    3.9820    0.0730    0.6810 C   0  0  0  0  0  0  0  0  0  0  0  0
    2.6820   -0.3380    0.8560 C   0  0  0  0  0  0  0  0  0  0  0  0
    1.8840   -0.4590   -0.2800 C   0  0  0  0  0  0  0  0  0  0  0  0
    0.5270   -0.8950   -0.0920 N   0  0  0  0  0  0  0  0  0  0  0  0
   -0.2910   -0.0360    0.6250 N   0  0  0  0  0  0  0  0  0  0  0  0
   -1.4690    0.5840    0.1750 C   0  0  0  0  0  0  0  0  0  0  0  0
   -1.5250    1.8040   -0.3610 N   0  0  0  0  0  0  0  0  0  0  0  0
   -2.6630    2.3960   -0.7730 C   0  0  0  0  0  0  0  0  0  0  0  0
   -3.8030    1.6980   -0.6270 N   0  0  0  0  0  0  0  0  0  0  0  0
   -3.8310    0.4640   -0.0970 C   0  0  0  0  0  0  0  0  0  0  0  0
   -4.8090   -0.4310    0.1600 N   0  0  0  0  0  0  0  0  0  0  0  0
   -4.2670   -1.5290    0.7100 N   0  0  0  0  0  0  0  0  0  0  0  0
   -2.9350   -1.3780    0.8250 C   0  0  0  0  0  0  0  0  0  0  0  0
   -2.6570   -0.1280    0.3200 C   0  0  0  0  0  0  0  0  0  0  0  0
    2.3580   -0.1860   -1.5250 C   0  0  0  0  0  0  0  0  0  0  0  0
    3.6710    0.2310   -1.7140 C   0  0  0  0  0  0  0  0  0  0  0  0
  1  2  2  0
  1 17  1  0
  2  3  1  0
  3  4  2  0
  4  5  1  0
  4 16  1  0
  5  6  1  0
  6  7  1  0
  7  8  2  0
  7 15  1  0
  8  9  1  0
  9 10  2  0
 10 11  1  0
 11 12  2  0
 11 15  1  0
 12 13  1  0
 13 14  1  0
 14 15  2  0
 16 17  2  0
M  END
