
     RDKit          3D

 17 19  0  0  0  0  0  0  0  0999 V2000
   -4.0820   -0.3200   -0.8120 C   0  0  0  0  0  0  0  0  0  0  0  0
   -3.0990   -0.5550    0.2790 C   0  0  0  0  0  0  0  0  0  0  0  0
   -3.0990   -1.5240    1.2130 N   0  0  0  0  0  0  0  0  0  0  0  0
   -2.0490   -1.3790    1.9970 N   0  0  0  0  0  0  0  0  0  0  0  0
   -1.3500   -0.2930    1.5660 C   0  0  0  0  0  0  0  0  0  0  0  0
   -1.9970    0.2480    0.4750 C   0  0  0  0  0  0  0  0  0  0  0  0
   -1.5770    1.4490   -0.3010 C   0  0  0  0  0  0  0  0  0  0  0  0
   -0.3530    2.0170    0.2100 N   0  0  0  0  0  0  0  0  0  0  0  0
    0.8770    1.3210    0.1980 C   0  0  0  0  0  0  0  0  0  0  0  0
    2.0830    1.7220    0.6390 N   0  0  0  0  0  0  0  0  0  0  0  0
    3.0120    0.7720    0.4420 C   0  0  0  0  0  0  0  0  0  0  0  0
    4.3600    0.6460    0.6910 C   0  0  0  0  0  0  0  0  0  0  0  0
    5.0660   -0.4520    0.3810 N   0  0  0  0  0  0  0  0  0  0  0  0
    4.4260   -1.4990   -0.2090 C   0  0  0  0  0  0  0  0  0  0  0  0
    3.0600   -1.4290   -0.4850 C   0  0  0  0  0  0  0  0  0  0  0  0
    2.3710   -0.2780   -0.1490 C   0  0  0  0  0  0  0  0  0  0  0  0
    1.0660    0.0720   -0.2930 N   0  0  0  0  0  0  0  0  0  0  0  0
  1  2  1  0
  2  3  1  0
  2  6  2  0
  3  4  1  0
  4  5  2  0
  5  6  1  0
  6  7  1  0
  7  8  1  0
  8  9  1  0
  9 10  2  0
  9 17  1  0
 10 11  1  0
 11 12  2  0
 11 16  1  0
 12 13  1  0
 13 14  2  0
 14 15  1  0
 15 16  2  0
 16 17  1  0
M  END
