
     RDKit          3D

 17 19  0  0  0  0  0  0  0  0999 V2000
    4.2260   -1.5660   -0.9920 C   0  0  0  0  0  0  0  0  0  0  0  0
    3.0910   -0.7590   -0.4530 C   0  0  0  0  0  0  0  0  0  0  0  0
    1.7710   -0.9820   -0.5950 N   0  0  0  0  0  0  0  0  0  0  0  0
    1.0730   -0.0320    0.0370 N   0  0  0  0  0  0  0  0  0  0  0  0
   -0.2460    0.1800    0.1820 C   0  0  0  0  0  0  0  0  0  0  0  0
   -1.2100   -0.6900   -0.3900 N   0  0  0  0  0  0  0  0  0  0  0  0
   -2.6190   -0.4400   -0.2200 C   0  0  0  0  0  0  0  0  0  0  0  0
   -3.5450   -1.3780   -0.1300 C   0  0  0  0  0  0  0  0  0  0  0  0
   -4.8760   -0.7580    0.0390 C   0  0  0  0  0  0  0  0  0  0  0  0
   -4.5810    0.6940    0.0340 C   0  0  0  0  0  0  0  0  0  0  0  0
   -3.2820    0.8340   -0.1160 C   0  0  0  0  0  0  0  0  0  0  0  0
   -0.6940    1.2340    0.8830 N   0  0  0  0  0  0  0  0  0  0  0  0
    0.1340    2.1220    1.4680 C   0  0  0  0  0  0  0  0  0  0  0  0
    1.4530    1.9000    1.3160 N   0  0  0  0  0  0  0  0  0  0  0  0
    1.9100    0.8460    0.6150 C   0  0  0  0  0  0  0  0  0  0  0  0
    3.1810    0.3960    0.3130 C   0  0  0  0  0  0  0  0  0  0  0  0
    4.3950    1.0300    0.7280 N   0  0  0  0  0  0  0  0  0  0  0  0
  1  2  1  0
  2  3  2  0
  2 16  1  0
  3  4  1  0
  4  5  1  0
  4 15  1  0
  5  6  1  0
  5 12  2  0
  6  7  1  0
  7  8  2  0
  7 11  1  0
  8  9  1  0
  9 10  1  0
 10 11  2  0
 12 13  1  0
 13 14  2  0
 14 15  1  0
 15 16  2  0
 16 17  1  0
M  END
