
     RDKit          3D

 21 22  0  0  0  0  0  0  0  0999 V2000
    2.0220    0.8620    0.9080 C   0  0  0  0  0  0  0  0  0  0  0  0
    2.5340   -0.0770    0.1640 C   0  0  0  0  0  0  0  0  0  0  0  0
    3.9380   -0.5130    0.5560 C   0  0  0  0  0  0  0  0  0  0  0  0
    1.9060   -0.7260   -0.9720 C   0  0  0  0  0  0  0  0  0  0  0  0
    2.6410   -1.6750   -1.5860 C   0  0  0  0  0  0  0  0  0  0  0  0
    1.8900   -2.5680   -3.0770 Br  0  0  0  0  0  0  0  0  0  0  0  0
    0.6320   -0.4890   -1.5070 N   0  0  0  0  0  0  0  0  0  0  0  0
   -0.3530    0.4280   -1.0810 C   0  0  0  0  0  0  0  0  0  0  0  0
   -1.3100    0.0320   -0.1270 C   0  0  0  0  0  0  0  0  0  0  0  0
   -2.2690    0.8600    0.2850 N   0  0  0  0  0  0  0  0  0  0  0  0
   -2.3230    2.1340   -0.2380 C   0  0  0  0  0  0  0  0  0  0  0  0
   -3.2490    2.8920    0.1780 O   0  0  0  0  0  0  0  0  0  0  0  0
   -1.4220    2.5250   -1.1440 N   0  0  0  0  0  0  0  0  0  0  0  0
   -0.4400    1.7020   -1.5760 C   0  0  0  0  0  0  0  0  0  0  0  0
    0.4050    2.1050   -2.4420 O   0  0  0  0  0  0  0  0  0  0  0  0
   -3.2780    0.4950    1.2670 C   0  0  0  0  0  0  0  0  0  0  0  0
   -3.1110   -0.8790    1.7430 C   0  0  0  0  0  0  0  0  0  0  0  0
   -3.9270   -1.3250    2.6050 O   0  0  0  0  0  0  0  0  0  0  0  0
   -2.0600   -1.7710    1.2850 C   0  0  0  0  0  0  0  0  0  0  0  0
   -1.9090   -3.5540    1.9560 Br  0  0  0  0  0  0  0  0  0  0  0  0
   -1.2080   -1.3460    0.4040 C   0  0  0  0  0  0  0  0  0  0  0  0
  1  2  2  0
  2  3  1  0
  2  4  1  0
  4  5  2  3
  4  7  1  0
  5  6  1  0
  7  8  1  0
  8  9  2  0
  8 14  1  0
  9 10  1  0
  9 21  1  0
 10 11  1  0
 10 16  1  0
 11 12  2  0
 11 13  1  0
 13 14  1  0
 14 15  2  0
 16 17  1  0
 17 18  2  0
 17 19  1  0
 19 20  1  0
 19 21  2  0
M  END
