
     RDKit          3D

 27 28  0  0  0  0  0  0  0  0999 V2000
    4.7670   -3.0850   -2.6980 C   0  0  0  0  0  0  0  0  0  0  0  0
    3.9290   -2.7710   -1.4700 C   0  0  0  0  0  0  0  0  0  0  0  0
    3.4040   -1.3580   -1.6210 C   0  0  0  0  0  0  0  0  0  0  0  0
    2.5900   -1.0060   -0.4620 C   0  0  0  0  0  0  0  0  0  0  0  0
    2.4010   -1.8540    0.4400 O   0  0  0  0  0  0  0  0  0  0  0  0
    1.9820    0.2810   -0.2910 N   0  0  0  0  0  0  0  0  0  0  0  0
    2.1990    1.2470   -1.3190 C   0  0  0  0  0  0  0  0  0  0  0  0
    0.8990    1.8760   -1.6630 C   0  0  0  0  0  0  0  0  0  0  0  0
    0.0560    2.3560   -0.5590 C   0  0  0  0  0  0  0  0  0  0  0  0
    0.1610    1.6230    0.7380 C   0  0  1  0  0  0  0  0  0  0  0  0
    0.1080    2.5070    1.9420 C   0  0  0  0  0  0  0  0  0  0  0  0
    1.0930    3.5720    2.1110 C   0  0  0  0  0  0  0  0  0  0  0  0
    2.5450    3.1980    2.2080 C   0  0  0  0  0  0  0  0  0  0  0  0
    3.3420    4.4330    2.4060 N   0  0  0  0  0  0  0  0  0  0  0  0
   -1.1720    0.8490    0.8100 C   0  0  0  0  0  0  0  0  0  0  0  0
   -1.9520    1.1710    1.6750 O   0  0  0  0  0  0  0  0  0  0  0  0
   -1.4330   -0.1650   -0.0980 N   0  0  0  0  0  0  0  0  0  0  0  0
   -2.6070   -1.0110   -0.2230 C   0  0  0  0  0  0  0  0  0  0  0  0
   -3.7480   -0.8930    0.6690 C   0  0  0  0  0  0  0  0  0  0  0  0
   -3.7120   -0.0190    1.6090 N   0  0  0  0  0  0  0  0  0  0  0  0
   -5.0070   -1.6780    0.5900 C   0  0  2  0  0  0  0  0  0  0  0  0
   -6.0550   -1.5020    1.6460 C   0  0  0  0  0  0  0  0  0  0  0  0
   -5.2150   -2.7490    1.5800 C   0  0  0  0  0  0  0  0  0  0  0  0
   -2.5650   -1.8970   -1.1950 C   0  0  0  0  0  0  0  0  0  0  0  0
   -3.5800   -2.8620   -1.5470 C   0  0  0  0  0  0  0  0  0  0  0  0
   -1.3160   -1.9340   -2.0790 C   0  0  0  0  0  0  0  0  0  0  0  0
    1.2000    0.5950    0.8470 C   0  0  0  0  0  0  0  0  0  0  0  0
  1  2  1  0
  2  3  1  0
  3  4  1  0
  4  5  2  0
  4  6  1  0
  6  7  1  0
  6 27  1  0
  7  8  1  0
  8  9  1  0
  9 10  1  0
 10 11  1  1
 10 15  1  0
 10 27  1  0
 11 12  1  0
 12 13  1  0
 13 14  1  0
 15 16  2  0
 15 17  1  0
 17 18  1  0
 18 19  1  0
 18 24  2  3
 19 20  2  0
 21 19  1  1
 21 22  1  0
 21 23  1  0
 22 23  1  0
 24 25  1  0
 24 26  1  0
M  CHG  1  14   1
M  END
