
     RDKit          3D

 21 22  0  0  0  0  0  0  0  0999 V2000
    3.9220    2.2970    0.8740 C   0  0  0  0  0  0  0  0  0  0  0  0
    2.7890    1.7760    0.0750 C   0  0  0  0  0  0  0  0  0  0  0  0
    2.5890    0.4970   -0.1410 C   0  0  0  0  0  0  0  0  0  0  0  0
    3.5040   -0.4690    0.4170 C   0  0  0  0  0  0  0  0  0  0  0  0
    3.3620   -1.7760    0.2380 C   0  0  0  0  0  0  0  0  0  0  0  0
    1.9620   -2.5550   -0.7580 Br  0  0  0  0  0  0  0  0  0  0  0  0
    4.6430   -2.9480    1.0300 Br  0  0  0  0  0  0  0  0  0  0  0  0
    1.5190    0.0780   -0.8920 O   0  0  0  0  0  0  0  0  0  0  0  0
    0.2190    0.0100   -0.4060 C   0  0  0  0  0  0  0  0  0  0  0  0
   -0.2080    0.3200    0.8230 N   0  0  0  0  0  0  0  0  0  0  0  0
   -1.5530    0.1210    0.9180 C   0  0  0  0  0  0  0  0  0  0  0  0
   -2.4230    0.3050    1.9840 C   0  0  0  0  0  0  0  0  0  0  0  0
   -1.9380    0.7650    3.1950 O   0  0  0  0  0  0  0  0  0  0  0  0
   -3.7560    0.0200    1.7930 C   0  0  0  0  0  0  0  0  0  0  0  0
   -4.1230   -0.4320    0.5390 C   0  0  0  0  0  0  0  0  0  0  0  0
   -3.2450   -0.6060   -0.4980 C   0  0  0  0  0  0  0  0  0  0  0  0
   -1.9330   -0.3190   -0.2900 N   0  0  0  0  0  0  0  0  0  0  0  0
   -0.8860   -0.4060   -1.1410 C   0  0  0  0  0  0  0  0  0  0  0  0
   -0.9030   -0.8360   -2.5330 C   0  0  0  0  0  0  0  0  0  0  0  0
   -2.0570   -1.2640   -3.2290 N   0  0  0  0  0  0  0  0  0  0  0  0
    0.2050   -0.8220   -3.1520 O   0  0  0  0  0  0  0  0  0  0  0  0
  1  2  1  0
  2  3  2  3
  3  4  1  0
  3  8  1  0
  4  5  2  3
  5  6  1  0
  5  7  1  0
  8  9  1  0
  9 10  1  0
  9 18  2  0
 10 11  2  0
 11 12  1  0
 11 17  1  0
 12 13  1  0
 12 14  2  0
 14 15  1  0
 15 16  2  0
 16 17  1  0
 17 18  1  0
 18 19  1  0
 19 20  1  0
 19 21  2  0
M  END
