
     RDKit          3D

 21 22  0  0  0  0  0  0  0  0999 V2000
   -1.9150    1.2170    1.0730 C   0  0  0  0  0  0  0  0  0  0  0  0
   -1.5070    1.1200   -0.3330 C   0  0  0  0  0  0  0  0  0  0  0  0
   -2.2360    1.3560   -1.3900 C   0  0  0  0  0  0  0  0  0  0  0  0
   -3.5390    1.7480   -1.9450 C   0  0  0  0  0  0  0  0  0  0  0  0
   -3.3210    1.6670   -3.3510 O   0  0  0  0  0  0  0  0  0  0  0  0
   -1.9850    1.4590   -3.6060 C   0  0  0  0  0  0  0  0  0  0  0  0
   -1.2660    1.4140   -4.9090 C   0  0  0  0  0  0  0  0  0  0  0  0
   -1.3990    3.0740   -5.8540 Br  0  0  0  0  0  0  0  0  0  0  0  0
   -1.3210    1.2770   -2.4950 C   0  0  0  0  0  0  0  0  0  0  0  0
   -0.0640    0.9870   -1.9580 N   0  0  0  0  0  0  0  0  0  0  0  0
   -0.0650    0.8650   -0.7520 C   0  0  0  0  0  0  0  0  0  0  0  0
    1.1180    0.9900    0.0230 N   0  0  0  0  0  0  0  0  0  0  0  0
    1.3780   -0.0210    0.9620 C   0  0  0  0  0  0  0  0  0  0  0  0
    0.4620   -0.9520    0.8450 O   0  0  0  0  0  0  0  0  0  0  0  0
    2.4700   -0.0190    1.8810 C   0  0  0  0  0  0  0  0  0  0  0  0
    2.4050   -1.2690    2.6760 N   0  0  0  0  0  0  0  0  0  0  0  0
    2.4980   -2.5280    2.0450 C   0  0  0  0  0  0  0  0  0  0  0  0
    2.6400   -2.4630    0.7580 O   0  0  0  0  0  0  0  0  0  0  0  0
    2.4560   -3.8170    2.6470 C   0  0  0  0  0  0  0  0  0  0  0  0
    2.3270   -4.1350    3.8710 C   0  0  0  0  0  0  0  0  0  0  0  0
    2.1440   -2.9710    5.3360 Br  0  0  0  0  0  0  0  0  0  0  0  0
  1  2  1  0
  2  3  2  0
  2 11  1  0
  3  4  1  0
  3  9  1  0
  4  5  1  0
  5  6  1  0
  6  7  1  0
  6  9  2  0
  7  8  1  0
  9 10  1  0
 10 11  2  0
 11 12  1  0
 12 13  1  0
 13 14  2  0
 13 15  1  0
 15 16  1  0
 16 17  1  0
 17 18  2  0
 17 19  1  0
 19 20  2  3
 20 21  1  0
M  END
