
     RDKit          3D

 21 22  0  0  0  0  0  0  0  0999 V2000
   -2.5460    2.9160   -1.5520 C   0  0  0  0  0  0  0  0  0  0  0  0
   -2.3570    1.8240   -0.5520 C   0  0  0  0  0  0  0  0  0  0  0  0
   -1.4580    0.8480   -0.6410 C   0  0  0  0  0  0  0  0  0  0  0  0
   -0.3950    0.3360   -1.4870 C   0  0  0  0  0  0  0  0  0  0  0  0
   -0.0430    0.8900   -2.5800 O   0  0  0  0  0  0  0  0  0  0  0  0
    0.1500   -0.8230   -0.9150 N   0  0  0  0  0  0  0  0  0  0  0  0
    1.2270   -1.6040   -1.4760 C   0  0  0  0  0  0  0  0  0  0  0  0
    2.5590   -1.1190   -0.9910 C   0  0  0  0  0  0  0  0  0  0  0  0
    3.6030   -1.6950   -1.3880 O   0  0  0  0  0  0  0  0  0  0  0  0
    2.6710   -0.0240   -0.0920 N   0  0  0  0  0  0  0  0  0  0  0  0
    3.9670    0.3950    0.3380 C   0  0  0  0  0  0  0  0  0  0  0  0
    4.1040    1.4770    1.2280 N   0  0  0  0  0  0  0  0  0  0  0  0
    4.9920   -0.2070   -0.0820 O   0  0  0  0  0  0  0  0  0  0  0  0
   -0.5410   -1.1180    0.3420 C   0  0  0  0  0  0  0  0  0  0  0  0
   -0.2740   -2.1390    1.0850 C   0  0  0  0  0  0  0  0  0  0  0  0
   -0.7330   -2.7030    2.3330 C   0  0  0  0  0  0  0  0  0  0  0  0
   -1.5310   -4.4680    2.0890 Br  0  0  0  0  0  0  0  0  0  0  0  0
   -1.5550   -0.0620    0.5090 C   0  0  0  0  0  0  0  0  0  0  0  0
   -2.5280    0.3980    1.2730 C   0  0  0  0  0  0  0  0  0  0  0  0
   -3.1540   -0.3530    2.9310 Br  0  0  0  0  0  0  0  0  0  0  0  0
   -3.1160    1.6360    0.6780 C   0  0  0  0  0  0  0  0  0  0  0  0
  1  2  1  0
  2  3  2  0
  2 21  1  0
  3  4  1  0
  3 18  1  0
  4  5  2  0
  4  6  1  0
  6  7  1  0
  6 14  1  0
  7  8  1  0
  8  9  2  0
  8 10  1  0
 10 11  1  0
 11 12  1  0
 11 13  2  0
 14 15  2  3
 14 18  1  0
 15 16  1  0
 16 17  1  0
 18 19  2  0
 19 20  1  0
 19 21  1  0
M  END
