
     RDKit          3D

 12 12  0  0  0  0  0  0  0  0999 V2000
    2.6250    2.0140    0.5130 C   0  0  0  0  0  0  0  0  0  0  0  0
    2.5420    0.5410    0.2140 C   0  0  0  0  0  0  0  0  0  0  0  0
    3.5730   -0.2890    0.1990 C   0  0  0  0  0  0  0  0  0  0  0  0
    3.0830   -1.6280   -0.1320 C   0  0  0  0  0  0  0  0  0  0  0  0
    1.6260   -1.4260   -0.2990 C   0  0  0  0  0  0  0  0  0  0  0  0
    1.3060   -0.1630   -0.0990 C   0  0  0  0  0  0  0  0  0  0  0  0
    0.0170    0.4070   -0.1710 O   0  0  0  0  0  0  0  0  0  0  0  0
   -1.0450   -0.4630    0.1670 C   0  0  0  0  0  0  0  0  0  0  0  0
   -2.3840    0.2060    0.0700 C   0  0  2  0  0  0  0  0  0  0  0  0
   -3.4270   -0.7850    0.5720 C   0  0  0  0  0  0  0  0  0  0  0  0
   -2.7020    0.6690   -1.3330 C   0  0  0  0  0  0  0  0  0  0  0  0
   -2.4230    1.3010    0.9460 O   0  0  0  0  0  0  0  0  0  0  0  0
  1  2  1  0
  2  3  2  0
  2  6  1  0
  3  4  1  0
  4  5  1  0
  5  6  2  0
  6  7  1  0
  7  8  1  0
  8  9  1  0
  9 10  1  1
  9 11  1  0
  9 12  1  0
M  END
