
     RDKit          3D

 17 18  0  0  0  0  0  0  0  0999 V2000
   -2.5050    1.3560   -1.1770 C   0  0  0  0  0  0  0  0  0  0  0  0
   -2.4400    0.4970    0.0660 C   0  0  2  0  0  0  0  0  0  0  0  0
   -3.7400   -0.2600    0.1690 C   0  0  0  0  0  0  0  0  0  0  0  0
   -2.3830    1.4300    1.2740 C   0  0  0  0  0  0  0  0  0  0  0  0
   -1.2940   -0.4320    0.0600 C   0  0  0  0  0  0  0  0  0  0  0  0
   -1.4310   -1.7990    0.2980 C   0  0  0  0  0  0  0  0  0  0  0  0
   -0.3360   -2.6300    0.2750 C   0  0  0  0  0  0  0  0  0  0  0  0
    0.9490   -2.1270    0.0130 C   0  0  0  0  0  0  0  0  0  0  0  0
    1.0920   -0.7910   -0.2230 C   0  0  0  0  0  0  0  0  0  0  0  0
    2.3530   -0.1380   -0.5430 C   0  0  1  0  0  0  0  0  0  0  0  0
    2.7580    0.9660    0.3250 C   0  0  0  0  0  0  0  0  0  0  0  0
    4.0240    1.2480    0.5440 C   0  0  0  0  0  0  0  0  0  0  0  0
    5.0920    0.4510   -0.0570 C   0  0  0  0  0  0  0  0  0  0  0  0
    4.7970   -0.5570   -0.7950 N   0  0  0  0  0  0  0  0  0  0  0  0
    3.4530   -0.9320   -1.0300 C   0  0  0  0  0  0  0  0  0  0  0  0
    3.3140   -2.0130   -1.6920 O   0  0  0  0  0  0  0  0  0  0  0  0
   -0.0290    0.0410   -0.1980 C   0  0  0  0  0  0  0  0  0  0  0  0
  2  1  1  6
  2  3  1  0
  2  4  1  0
  2  5  1  0
  5  6  2  0
  5 17  1  0
  6  7  1  0
  7  8  2  0
  8  9  1  0
 10  9  1  1
  9 17  2  0
 10 11  1  0
 10 15  1  0
 11 12  2  0
 12 13  1  0
 13 14  2  0
 14 15  1  0
 15 16  2  0
M  END
