
     RDKit          3D

 17 18  0  0  0  0  0  0  0  0999 V2000
    0.2290   -1.5080    0.6470 N   0  0  0  0  0  0  0  0  0  0  0  0
   -0.1550   -0.2100    0.2530 C   0  0  0  0  0  0  0  0  0  0  0  0
   -1.5170    0.1320    0.2740 N   0  0  0  0  0  0  0  0  0  0  0  0
   -2.5820   -0.8040    0.0400 C   0  0  0  0  0  0  0  0  0  0  0  0
   -3.9200   -0.1830    0.1200 C   0  0  0  0  0  0  0  0  0  0  0  0
   -4.2900    1.1050    0.3740 C   0  0  0  0  0  0  0  0  0  0  0  0
   -5.6670    1.2220    0.3480 C   0  0  0  0  0  0  0  0  0  0  0  0
   -6.1170   -0.0510    0.0670 C   0  0  0  0  0  0  0  0  0  0  0  0
   -5.0650   -0.8750   -0.0660 N   0  0  0  0  0  0  0  0  0  0  0  0
    0.7830    0.6430   -0.1240 C   0  0  0  0  0  0  0  0  0  0  0  0
    0.2800    2.2660   -0.6150 Cl  0  0  0  0  0  0  0  0  0  0  0  0
    2.1820    0.2740   -0.1390 C   0  0  0  0  0  0  0  0  0  0  0  0
    2.6080   -0.8820    0.2040 N   0  0  0  0  0  0  0  0  0  0  0  0
    3.9800   -1.3130    0.2110 C   0  0  0  0  0  0  0  0  0  0  0  0
    4.9840   -0.2140    0.1510 C   0  0  0  0  0  0  0  0  0  0  0  0
    4.3620    1.1200    0.4150 C   0  0  0  0  0  0  0  0  0  0  0  0
    3.1920    1.2620   -0.5680 C   0  0  0  0  0  0  0  0  0  0  0  0
  1  2  1  0
  2  3  1  0
  2 10  2  3
  3  4  1  0
  4  5  1  0
  5  6  2  0
  5  9  1  0
  6  7  1  0
  7  8  2  0
  8  9  1  0
 10 11  1  0
 10 12  1  0
 12 13  2  0
 12 17  1  0
 13 14  1  0
 14 15  1  0
 15 16  1  0
 16 17  1  0
M  END
