
     RDKit          3D

 12 12  0  0  0  0  0  0  0  0999 V2000
    0.2900   -1.6650   -0.6770 C   0  0  0  0  0  0  0  0  0  0  0  0
    0.0920   -0.4660   -0.2130 C   0  0  0  0  0  0  0  0  0  0  0  0
   -1.3100   -0.1240    0.0890 C   0  0  0  0  0  0  0  0  0  0  0  0
   -2.2170   -1.1890    0.5100 C   0  0  0  0  0  0  0  0  0  0  0  0
   -3.4840   -0.6270    0.7540 O   0  0  0  0  0  0  0  0  0  0  0  0
   -1.8620    1.0830    0.0290 C   0  0  0  0  0  0  0  0  0  0  0  0
   -1.2080    2.3400   -0.3500 C   0  0  0  0  0  0  0  0  0  0  0  0
    0.0920    2.6070   -0.4180 C   0  0  0  0  0  0  0  0  0  0  0  0
    1.2190    1.7300   -0.1370 C   0  0  0  0  0  0  0  0  0  0  0  0
    1.2690    0.3810   -0.0360 C   0  0  0  0  0  0  0  0  0  0  0  0
    2.4710   -0.1170    0.2410 O   0  0  0  0  0  0  0  0  0  0  0  0
    3.2820   -1.1640    0.0960 C   0  0  0  0  0  0  0  0  0  0  0  0
  1  2  2  0
  2  3  1  0
  2 10  1  0
  3  4  1  0
  3  6  2  0
  4  5  1  0
  6  7  1  0
  7  8  2  0
  8  9  1  0
  9 10  2  0
 10 11  1  0
 11 12  1  0
M  END
