
     RDKit          3D

 17 18  0  0  0  0  0  0  0  0999 V2000
    1.7150    0.6840   -2.4840 N   0  0  0  0  0  0  0  0  0  0  0  0
    1.1430    0.3490   -1.2370 C   0  0  0  0  0  0  0  0  0  0  0  0
   -0.2360    0.3180   -1.1510 C   0  0  0  0  0  0  0  0  0  0  0  0
   -0.7980   -0.0050    0.0550 C   0  0  0  0  0  0  0  0  0  0  0  0
   -2.2640   -0.0530    0.2030 C   0  0  0  0  0  0  0  0  0  0  0  0
   -3.0820    0.2190   -0.8400 C   0  0  0  0  0  0  0  0  0  0  0  0
   -4.4700    0.1580   -0.6420 C   0  0  0  0  0  0  0  0  0  0  0  0
   -4.9730   -0.1640    0.5590 N   0  0  0  0  0  0  0  0  0  0  0  0
   -4.1930   -0.4410    1.6200 C   0  0  0  0  0  0  0  0  0  0  0  0
   -2.8370   -0.3800    1.4190 C   0  0  0  0  0  0  0  0  0  0  0  0
   -0.0050   -0.2790    1.1050 N   0  0  0  0  0  0  0  0  0  0  0  0
    1.3600   -0.2570    1.0490 C   0  0  0  0  0  0  0  0  0  0  0  0
    2.0740   -0.5750    2.2630 N   0  0  0  0  0  0  0  0  0  0  0  0
    1.9610    0.0600   -0.1290 C   0  0  0  0  0  0  0  0  0  0  0  0
    3.3720    0.1140   -0.3010 C   0  0  0  0  0  0  0  0  0  0  0  0
    4.2880   -0.1150    0.5790 C   0  0  0  0  0  0  0  0  0  0  0  0
    6.0230    0.0170    0.1230 Cl  0  0  0  0  0  0  0  0  0  0  0  0
  1  2  1  0
  2  3  2  0
  2 14  1  0
  3  4  1  0
  4  5  1  0
  4 11  2  0
  5  6  2  0
  5 10  1  0
  6  7  1  0
  7  8  2  0
  8  9  1  0
  9 10  2  0
 11 12  1  0
 12 13  1  0
 12 14  2  0
 14 15  1  0
 15 16  2  3
 16 17  1  0
M  END
