
     RDKit          3D

 22 22  0  0  0  0  0  0  0  0999 V2000
   -3.3950   -1.9780    0.6900 C   0  0  0  0  0  0  0  0  0  0  0  0
   -2.5820   -1.8760   -0.3770 C   0  0  0  0  0  0  0  0  0  0  0  0
   -3.0460   -2.6770   -1.5470 C   0  0  0  0  0  0  0  0  0  0  0  0
   -1.4220   -1.0430   -0.3950 C   0  0  0  0  0  0  0  0  0  0  0  0
   -0.5640   -0.9620   -1.3850 C   0  0  0  0  0  0  0  0  0  0  0  0
   -0.5980   -1.6840   -2.6500 C   0  0  0  0  0  0  0  0  0  0  0  0
   -1.1230   -0.2550    0.8650 C   0  0  2  0  0  0  0  0  0  0  0  0
   -1.8360    1.0480    0.8830 C   0  0  0  0  0  0  0  0  0  0  0  0
   -3.3400    1.1890    0.8380 C   0  0  0  0  0  0  0  0  0  0  0  0
   -0.9610    2.0160    0.8930 C   0  0  0  0  0  0  0  0  0  0  0  0
   -1.2170    3.4530    0.9200 C   0  0  0  0  0  0  0  0  0  0  0  0
   -2.4940    4.1710    0.9620 C   0  0  0  0  0  0  0  0  0  0  0  0
   -0.2020    4.2610    0.9120 O   0  0  0  0  0  0  0  0  0  0  0  0
    0.4130    1.4220    0.8670 C   0  0  0  0  0  0  0  0  0  0  0  0
    1.6730    2.2600    0.7970 C   0  0  0  0  0  0  0  0  0  0  0  0
    0.3160    0.1450    0.8540 C   0  0  0  0  0  0  0  0  0  0  0  0
    1.4050   -0.8430    0.9240 C   0  0  0  0  0  0  0  0  0  0  0  0
    1.0250   -2.0770    0.8260 O   0  0  0  0  0  0  0  0  0  0  0  0
    2.8170   -0.6230    1.0920 C   0  0  0  0  0  0  0  0  0  0  0  0
    3.6700   -1.2450    0.0120 C   0  0  1  0  0  0  0  0  0  0  0  0
    3.4040   -0.7620   -1.3690 C   0  0  0  0  0  0  0  0  0  0  0  0
    5.1180   -0.8790    0.3510 C   0  0  0  0  0  0  0  0  0  0  0  0
  1  2  2  0
  2  3  1  0
  2  4  1  0
  4  5  2  3
  7  4  1  6
  5  6  1  0
  7  8  1  0
  7 16  1  0
  8  9  1  0
  8 10  2  0
 10 11  1  0
 10 14  1  0
 11 12  1  0
 11 13  2  0
 14 15  1  0
 14 16  2  0
 16 17  1  0
 17 18  2  0
 17 19  1  0
 19 20  1  0
 20 21  1  6
 20 22  1  0
M  END
