
     RDKit          3D

  9  9  0  0  0  0  0  0  0  0999 V2000
    3.5870   -0.0610   -0.4400 O   0  0  0  0  0  0  0  0  0  0  0  0
    2.3260   -0.4690   -0.0120 C   0  0  0  0  0  0  0  0  0  0  0  0
    1.3710    0.6680   -0.2310 C   0  0  0  0  0  0  0  0  0  0  0  0
    0.0110    0.2350    0.2270 C   0  0  2  0  0  0  0  0  0  0  0  0
    0.0280   -0.0950    1.5580 O   0  0  0  0  0  0  0  0  0  0  0  0
   -0.6090   -0.8260   -0.6250 C   0  0  0  0  0  0  0  0  0  0  0  0
   -2.0670   -0.7290   -0.1910 C   0  0  0  0  0  0  0  0  0  0  0  0
   -2.2430    0.5870    0.3690 N   0  0  0  0  0  0  0  0  0  0  0  0
   -1.0280    1.3410    0.0400 C   0  0  0  0  0  0  0  0  0  0  0  0
  1  2  1  0
  2  3  1  0
  3  4  1  0
  4  5  1  1
  4  6  1  0
  4  9  1  0
  6  7  1  0
  7  8  1  0
  8  9  1  0
M  CHG  1   8   1
M  END
