
     RDKit          3D

 10 10  0  0  0  0  0  0  0  0999 V2000
   -0.1340    1.6220    0.1320 N   0  0  0  0  0  0  0  0  0  0  0  0
   -0.3770    0.2150    0.1260 C   0  0  2  0  0  0  0  0  0  0  0  0
   -1.6730   -0.0380   -0.6160 C   0  0  0  0  0  0  0  0  0  0  0  0
   -1.5960    0.4210   -1.9270 O   0  0  0  0  0  0  0  0  0  0  0  0
   -0.6290   -0.1930    1.5850 C   0  0  0  0  0  0  0  0  0  0  0  0
    0.2610   -1.4320    1.6740 C   0  0  0  0  0  0  0  0  0  0  0  0
    1.3700   -1.0050    0.9090 O   0  0  0  0  0  0  0  0  0  0  0  0
    0.7290   -0.6530   -0.2820 C   0  0  2  0  0  0  0  0  0  0  0  0
    1.6660   -0.1100   -1.3090 C   0  0  0  0  0  0  0  0  0  0  0  0
    2.3430    1.0200   -0.9310 O   0  0  0  0  0  0  0  0  0  0  0  0
  2  1  1  1
  2  3  1  0
  2  5  1  0
  2  8  1  0
  3  4  1  0
  5  6  1  0
  6  7  1  0
  7  8  1  0
  8  9  1  6
  9 10  1  0
M  CHG  1   1   1
M  END
