
     RDKit          3D

 10 10  0  0  0  0  0  0  0  0999 V2000
   -2.7690    0.8850   -0.3930 O   0  0  0  0  0  0  0  0  0  0  0  0
   -2.0370   -0.2960   -0.3780 C   0  0  0  0  0  0  0  0  0  0  0  0
   -0.8880   -0.1730    0.6270 C   0  0  1  0  0  0  0  0  0  0  0  0
   -0.1200   -1.4430    0.6260 C   0  0  0  0  0  0  0  0  0  0  0  0
    0.8470   -1.4270   -0.4470 N   0  0  0  0  0  0  0  0  0  0  0  0
    1.8580   -0.4440   -0.0270 C   0  0  0  0  0  0  0  0  0  0  0  0
    1.2210    0.9030   -0.2270 C   0  0  1  0  0  0  0  0  0  0  0  0
    1.1480    1.1580   -1.6140 O   0  0  0  0  0  0  0  0  0  0  0  0
   -0.1090    1.0600    0.3980 C   0  0  2  0  0  0  0  0  0  0  0  0
    0.0350    1.7950    1.5940 O   0  0  0  0  0  0  0  0  0  0  0  0
  1  2  1  0
  3  2  1  6
  3  4  1  0
  3  9  1  0
  4  5  1  0
  5  6  1  0
  6  7  1  0
  7  8  1  6
  7  9  1  0
  9 10  1  1
M  CHG  1   5   1
M  END
