
     RDKit          3D

 12 12  0  0  0  0  0  0  0  0999 V2000
   -0.7820    1.4220    0.4170 O   0  0  0  0  0  0  0  0  0  0  0  0
   -0.3130    0.5310   -0.3300 C   0  0  0  0  0  0  0  0  0  0  0  0
   -1.0620    0.0360   -1.3490 O   0  0  0  0  0  0  0  0  0  0  0  0
   -2.3440    0.3830   -1.6930 C   0  0  0  0  0  0  0  0  0  0  0  0
   -3.3550    0.0040   -0.6620 C   0  0  0  0  0  0  0  0  0  0  0  0
   -3.1030    0.6180    0.5410 O   0  0  0  0  0  0  0  0  0  0  0  0
    1.0580    0.0580   -0.0570 C   0  0  0  0  0  0  0  0  0  0  0  0
    1.7450    0.5670    0.9400 C   0  0  0  0  0  0  0  0  0  0  0  0
    3.1150    0.1650    1.2950 C   0  0  0  0  0  0  0  0  0  0  0  0
    3.6430   -0.8350    0.4550 O   0  0  0  0  0  0  0  0  0  0  0  0
    2.9220   -1.3720   -0.5940 C   0  0  0  0  0  0  0  0  0  0  0  0
    1.6730   -0.9700   -0.8760 C   0  0  0  0  0  0  0  0  0  0  0  0
  1  2  2  0
  2  3  1  0
  2  7  1  0
  3  4  1  0
  4  5  1  0
  5  6  1  0
  7  8  2  0
  7 12  1  0
  8  9  1  0
  9 10  1  0
 10 11  1  0
 11 12  2  0
M  END
