
     RDKit          3D

 11 11  0  0  0  0  0  0  0  0999 V2000
   -0.5040   -1.7600   -1.3170 C   0  0  0  0  0  0  0  0  0  0  0  0
   -0.9530   -1.0560   -0.1290 C   0  0  1  0  0  0  0  0  0  0  0  0
   -0.6090   -1.6130    1.1010 O   0  0  0  0  0  0  0  0  0  0  0  0
   -0.8220   -0.7350    2.0190 O   0  0  0  0  0  0  0  0  0  0  0  0
   -1.1260    0.4940    1.4620 C   0  0  1  0  0  0  0  0  0  0  0  0
   -0.6490    1.5700    2.1610 O   0  0  0  0  0  0  0  0  0  0  0  0
   -0.4160    0.3330    0.0990 C   0  0  2  0  0  0  0  0  0  0  0  0
   -0.8940    1.2950   -0.8460 N   0  0  0  0  0  0  0  0  0  0  0  0
    1.0210    0.4200    0.4260 C   0  0  0  0  0  0  0  0  0  0  0  0
    1.9880   -0.1000   -0.5570 C   0  0  0  0  0  0  0  0  0  0  0  0
    3.2820    0.1030   -0.0110 O   0  0  0  0  0  0  0  0  0  0  0  0
  2  1  1  6
  2  3  1  0
  2  7  1  0
  3  4  1  0
  4  5  1  0
  5  6  1  1
  5  7  1  0
  7  8  1  6
  7  9  1  0
  9 10  1  0
 10 11  1  0
M  CHG  1   8   1
M  END
