
     RDKit          3D

 11 11  0  0  0  0  0  0  0  0999 V2000
   -1.0850    1.4860   -0.4170 N   0  0  0  0  0  0  0  0  0  0  0  0
   -1.1110    0.3650    0.4730 C   0  0  1  0  0  0  0  0  0  0  0  0
   -2.1390   -0.6210   -0.0400 C   0  0  0  0  0  0  0  0  0  0  0  0
   -1.8380   -1.0670   -1.3160 O   0  0  0  0  0  0  0  0  0  0  0  0
    0.2060   -0.3250    0.6240 C   0  0  1  0  0  0  0  0  0  0  0  0
    0.0040   -1.3960    1.5270 O   0  0  0  0  0  0  0  0  0  0  0  0
    0.6650   -0.9700   -0.6730 C   0  0  0  0  0  0  0  0  0  0  0  0
    2.0400   -1.1580   -0.5570 O   0  0  0  0  0  0  0  0  0  0  0  0
    2.7560    0.0070   -0.4890 C   0  0  0  0  0  0  0  0  0  0  0  0
    2.1940    0.9970    0.2800 O   0  0  0  0  0  0  0  0  0  0  0  0
    1.2710    0.5410    1.2060 C   0  0  0  0  0  0  0  0  0  0  0  0
  2  1  1  6
  2  3  1  0
  2  5  1  0
  3  4  1  0
  5  6  1  1
  5  7  1  0
  5 11  1  0
  7  8  1  0
  8  9  1  0
  9 10  1  0
 10 11  1  0
M  CHG  1   1   1
M  END
