
     RDKit          3D

 11 11  0  0  0  0  0  0  0  0999 V2000
   -0.8690   -1.5100    0.3140 N   0  0  0  0  0  0  0  0  0  0  0  0
   -0.6970   -0.1180    0.0110 C   0  0  2  0  0  0  0  0  0  0  0  0
   -2.0230    0.5700    0.0790 C   0  0  0  0  0  0  0  0  0  0  0  0
   -2.8740   -0.0150   -0.8470 O   0  0  0  0  0  0  0  0  0  0  0  0
   -0.1020    0.1350   -1.3460 C   0  0  0  0  0  0  0  0  0  0  0  0
    0.6060    1.4570   -1.1280 C   0  0  0  0  0  0  0  0  0  0  0  0
    0.4960    1.7700    0.2030 O   0  0  0  0  0  0  0  0  0  0  0  0
    0.3330    0.5550    0.8920 C   0  0  2  0  0  0  0  0  0  0  0  0
    1.6490   -0.1430    0.8850 C   0  0  1  0  0  0  0  0  0  0  0  0
    2.5720    0.6880    1.5320 O   0  0  0  0  0  0  0  0  0  0  0  0
    1.6710   -1.3570    1.5180 O   0  0  0  0  0  0  0  0  0  0  0  0
  2  1  1  1
  2  3  1  0
  2  5  1  0
  2  8  1  0
  3  4  1  0
  5  6  1  0
  6  7  1  0
  8  7  1  6
  8  9  1  0
  9 10  1  1
  9 11  1  0
M  CHG  1   1   1
M  END
