
     RDKit          3D

 11 11  0  0  0  0  0  0  0  0999 V2000
    2.8210   -0.5830    0.9710 O   0  0  0  0  0  0  0  0  0  0  0  0
    2.3930   -0.6020   -0.3540 C   0  0  0  0  0  0  0  0  0  0  0  0
    0.9080   -0.3940   -0.4740 C   0  0  1  0  0  0  0  0  0  0  0  0
    0.2170   -1.4250    0.2230 N   0  0  0  0  0  0  0  0  0  0  0  0
   -1.1920   -1.2900    0.3030 C   0  0  0  0  0  0  0  0  0  0  0  0
   -1.7380    0.0740    0.3900 C   0  0  2  0  0  0  0  0  0  0  0  0
   -3.0330    0.0690   -0.1760 O   0  0  0  0  0  0  0  0  0  0  0  0
   -0.9570    1.1330   -0.3210 C   0  0  1  0  0  0  0  0  0  0  0  0
   -1.4100    2.3850    0.0940 O   0  0  0  0  0  0  0  0  0  0  0  0
    0.5120    0.9470    0.0870 C   0  0  2  0  0  0  0  0  0  0  0  0
    1.2870    1.9820   -0.4010 O   0  0  0  0  0  0  0  0  0  0  0  0
  1  2  1  0
  3  2  1  1
  3  4  1  0
  3 10  1  0
  4  5  1  0
  5  6  1  0
  6  7  1  6
  6  8  1  0
  8  9  1  1
  8 10  1  0
 10 11  1  6
M  CHG  1   4   1
M  END
