
     RDKit          3D

 11 11  0  0  0  0  0  0  0  0999 V2000
    3.5830    0.1320    0.2590 N   0  0  0  0  0  0  0  0  0  0  0  0
    2.2770   -0.3070   -0.2040 C   0  0  0  0  0  0  0  0  0  0  0  0
    1.4470    0.9180   -0.5180 C   0  0  0  0  0  0  0  0  0  0  0  0
    0.1830    0.6160   -0.9680 O   0  0  0  0  0  0  0  0  0  0  0  0
   -0.5910   -0.1030   -0.0940 C   0  0  2  0  0  0  0  0  0  0  0  0
   -1.0750   -1.4140   -0.6710 C   0  0  0  0  0  0  0  0  0  0  0  0
   -2.3090   -1.6800   -0.1470 O   0  0  0  0  0  0  0  0  0  0  0  0
   -2.9050   -0.5100    0.2460 C   0  0  2  0  0  0  0  0  0  0  0  0
   -3.9980   -0.1440   -0.5370 O   0  0  0  0  0  0  0  0  0  0  0  0
   -1.8910    0.5800    0.2550 C   0  0  1  0  0  0  0  0  0  0  0  0
   -1.8220    1.1180    1.5560 O   0  0  0  0  0  0  0  0  0  0  0  0
  1  2  1  0
  2  3  1  0
  3  4  1  0
  5  4  1  6
  5  6  1  0
  5 10  1  0
  6  7  1  0
  7  8  1  0
  8  9  1  6
  8 10  1  0
 10 11  1  1
M  CHG  1   1   1
M  END
