
     RDKit          3D

 11 11  0  0  0  0  0  0  0  0999 V2000
   -0.9650   -0.2580    1.6700 N   0  0  0  0  0  0  0  0  0  0  0  0
   -0.2870   -0.1870    0.3640 C   0  0  2  0  0  0  0  0  0  0  0  0
   -1.3550   -0.6360   -0.6420 C   0  0  1  0  0  0  0  0  0  0  0  0
   -2.4500    0.1920   -0.6020 O   0  0  0  0  0  0  0  0  0  0  0  0
   -0.8370   -0.8400   -1.8960 O   0  0  0  0  0  0  0  0  0  0  0  0
    0.8230   -1.1510    0.3800 C   0  0  0  0  0  0  0  0  0  0  0  0
    2.0790   -0.7420   -0.2880 C   0  0  0  0  0  0  0  0  0  0  0  0
    2.0060    0.4550   -0.9820 O   0  0  0  0  0  0  0  0  0  0  0  0
    1.5090    1.4750   -0.2090 C   0  0  0  0  0  0  0  0  0  0  0  0
    0.0670    1.2390    0.1310 C   0  0  1  0  0  0  0  0  0  0  0  0
   -0.6950    1.7800   -0.9200 O   0  0  0  0  0  0  0  0  0  0  0  0
  2  1  1  1
  2  3  1  0
  2  6  1  0
  2 10  1  0
  3  4  1  6
  3  5  1  0
  6  7  1  0
  7  8  1  0
  8  9  1  0
  9 10  1  0
 10 11  1  6
M  CHG  1   1   1
M  END
