
     RDKit          3D

 11 11  0  0  0  0  0  0  0  0999 V2000
   -2.0720   -1.5770   -0.0250 N   0  0  0  0  0  0  0  0  0  0  0  0
   -1.2790   -0.4110   -0.2890 C   0  0  1  0  0  0  0  0  0  0  0  0
   -1.8600    0.8230    0.3740 C   0  0  0  0  0  0  0  0  0  0  0  0
   -1.1060    1.9040   -0.1460 O   0  0  0  0  0  0  0  0  0  0  0  0
    0.1040    1.8950    0.4820 C   0  0  0  0  0  0  0  0  0  0  0  0
    0.8900    0.6630    0.3070 C   0  0  2  0  0  0  0  0  0  0  0  0
    1.8380    0.6790   -0.8890 C   0  0  0  0  0  0  0  0  0  0  0  0
    2.5040   -0.5340   -0.7730 O   0  0  0  0  0  0  0  0  0  0  0  0
    3.3480   -0.4540    0.2730 O   0  0  0  0  0  0  0  0  0  0  0  0
    0.1260   -0.6080    0.2740 C   0  0  2  0  0  0  0  0  0  0  0  0
    0.7040   -1.6440   -0.4320 O   0  0  0  0  0  0  0  0  0  0  0  0
  2  1  1  1
  2  3  1  0
  2 10  1  0
  3  4  1  0
  4  5  1  0
  5  6  1  0
  6  7  1  6
  6 10  1  0
  7  8  1  0
  8  9  1  0
 10 11  1  6
M  CHG  1   1   1
M  END
