
     RDKit          3D

 10 10  0  0  0  0  0  0  0  0999 V2000
    2.6190    0.4370   -0.9580 O   0  0  0  0  0  0  0  0  0  0  0  0
    2.3460   -0.3900    0.1430 C   0  0  0  0  0  0  0  0  0  0  0  0
    1.1650    0.2280    0.8700 C   0  0  2  0  0  0  0  0  0  0  0  0
    0.7870   -0.4840    1.9790 O   0  0  0  0  0  0  0  0  0  0  0  0
    0.0600    0.3960   -0.1420 C   0  0  2  0  0  0  0  0  0  0  0  0
    0.5380    1.1270   -1.2210 O   0  0  0  0  0  0  0  0  0  0  0  0
   -1.1270    1.1530    0.4210 C   0  0  0  0  0  0  0  0  0  0  0  0
   -2.2710    0.4180   -0.2920 C   0  0  0  0  0  0  0  0  0  0  0  0
   -1.8530   -0.9580   -0.0590 N   0  0  0  0  0  0  0  0  0  0  0  0
   -0.5040   -0.9300   -0.6000 C   0  0  0  0  0  0  0  0  0  0  0  0
  1  2  1  0
  2  3  1  0
  3  4  1  1
  3  5  1  0
  5  6  1  6
  5  7  1  0
  5 10  1  0
  7  8  1  0
  8  9  1  0
  9 10  1  0
M  CHG  1   9   1
M  END
