
     RDKit          3D

 22 22  0  0  0  0  0  0  0  0999 V2000
   -2.3910   -3.3020   -0.6380 C   0  0  0  0  0  0  0  0  0  0  0  0
   -2.8380   -1.9590   -1.2390 C   0  0  0  0  0  0  0  0  0  0  0  0
   -2.3520   -0.9050   -0.3150 C   0  0  2  0  0  0  0  0  0  0  0  0
   -2.6250    0.4990   -0.6390 C   0  0  0  0  0  0  0  0  0  0  0  0
   -4.0160    0.9750   -0.7730 C   0  0  1  0  0  0  0  0  0  0  0  0
   -4.8320    0.3120   -1.8540 C   0  0  0  0  0  0  0  0  0  0  0  0
   -4.7670    1.0180    0.5450 C   0  0  0  0  0  0  0  0  0  0  0  0
   -3.9180    2.3390   -1.1610 O   0  0  0  0  0  0  0  0  0  0  0  0
   -0.8510   -1.0500   -0.2450 C   0  0  0  0  0  0  0  0  0  0  0  0
   -0.2310   -1.9090   -0.9420 O   0  0  0  0  0  0  0  0  0  0  0  0
   -0.0500   -0.2380    0.5980 N   0  0  0  0  0  0  0  0  0  0  0  0
    1.4260   -0.4110    0.6360 C   0  0  2  0  0  0  0  0  0  0  0  0
    1.7330   -0.8960    2.0650 C   0  0  0  0  0  0  0  0  0  0  0  0
    1.2750    0.0500    2.9940 O   0  0  0  0  0  0  0  0  0  0  0  0
    2.1040    0.8680    0.3380 C   0  0  0  0  0  0  0  0  0  0  0  0
    3.5770    0.7660    0.2360 C   0  0  0  0  0  0  0  0  0  0  0  0
    4.2230   -0.3780    0.2690 C   0  0  0  0  0  0  0  0  0  0  0  0
    5.7000   -0.5190    0.1770 C   0  0  0  0  0  0  0  0  0  0  0  0
    6.3600    0.7480    0.0310 N   0  0  0  0  0  0  0  0  0  0  0  0
    5.6620    1.9820   -0.0050 C   0  0  0  0  0  0  0  0  0  0  0  0
    4.3650    1.9960    0.0910 C   0  0  0  0  0  0  0  0  0  0  0  0
    3.6850    3.1990    0.0570 O   0  0  0  0  0  0  0  0  0  0  0  0
  1  2  1  0
  3  2  1  6
  3  4  1  0
  3  9  1  0
  4  5  1  0
  5  6  1  6
  5  7  1  0
  5  8  1  0
  9 10  2  0
  9 11  1  0
 11 12  1  0
 12 13  1  1
 12 15  1  0
 13 14  1  0
 15 16  1  0
 16 17  2  0
 16 21  1  0
 17 18  1  0
 18 19  1  0
 19 20  1  0
 20 21  2  0
 21 22  1  0
M  END
