
     RDKit          3D

 22 22  0  0  0  0  0  0  0  0999 V2000
   -2.6900    1.1840   -1.5070 C   0  0  0  0  0  0  0  0  0  0  0  0
   -1.6950    0.1540   -1.1650 C   0  0  0  0  0  0  0  0  0  0  0  0
   -1.0800   -0.5870   -2.1010 C   0  0  0  0  0  0  0  0  0  0  0  0
   -0.1070   -1.5780   -1.5980 C   0  0  0  0  0  0  0  0  0  0  0  0
    0.8730   -0.9240   -0.6100 C   0  0  1  0  0  0  0  0  0  0  0  0
    1.6790   -2.0750   -0.0350 C   0  0  0  0  0  0  0  0  0  0  0  0
    0.8590   -2.9920    0.6150 O   0  0  0  0  0  0  0  0  0  0  0  0
    1.7020    0.0200   -1.4070 C   0  0  0  0  0  0  0  0  0  0  0  0
    2.7160    0.7500   -0.6230 C   0  0  0  0  0  0  0  0  0  0  0  0
    2.8130    0.5280    0.6080 O   0  0  0  0  0  0  0  0  0  0  0  0
    3.6020    1.7020   -1.1800 N   0  0  0  0  0  0  0  0  0  0  0  0
    4.5600    2.3580   -0.3220 C   0  0  0  0  0  0  0  0  0  0  0  0
    5.4490    1.3490    0.2710 C   0  0  0  0  0  0  0  0  0  0  0  0
    5.3310   -0.0330   -0.0070 N   0  0  0  0  0  0  0  0  0  0  0  0
    6.3480    1.7490    1.0580 O   0  0  0  0  0  0  0  0  0  0  0  0
    0.1380   -0.2650    0.5180 C   0  0  0  0  0  0  0  0  0  0  0  0
   -1.3380   -0.0950    0.2200 C   0  0  0  0  0  0  0  0  0  0  0  0
   -2.2310   -0.1990    1.1850 C   0  0  0  0  0  0  0  0  0  0  0  0
   -3.6740   -0.1050    1.1220 C   0  0  1  0  0  0  0  0  0  0  0  0
   -4.2310   -1.3650    1.8210 C   0  0  0  0  0  0  0  0  0  0  0  0
   -4.0980    1.0800    2.0030 C   0  0  0  0  0  0  0  0  0  0  0  0
   -5.4940    1.1340    1.9130 O   0  0  0  0  0  0  0  0  0  0  0  0
  1  2  1  0
  2  3  2  0
  2 17  1  0
  3  4  1  0
  4  5  1  0
  5  6  1  1
  5  8  1  0
  5 16  1  0
  6  7  1  0
  8  9  1  0
  9 10  2  0
  9 11  1  0
 11 12  1  0
 12 13  1  0
 13 14  1  0
 13 15  2  0
 16 17  1  0
 17 18  2  3
 18 19  1  0
 19 20  1  1
 19 21  1  0
 21 22  1  0
M  END
