
     RDKit          3D

 22 22  0  0  0  0  0  0  0  0999 V2000
    6.0760    0.6030    1.6460 C   0  0  0  0  0  0  0  0  0  0  0  0
    4.6410    0.7550    1.1710 C   0  0  0  0  0  0  0  0  0  0  0  0
    4.4600   -0.0180   -0.1480 C   0  0  1  0  0  0  0  0  0  0  0  0
    3.0810    0.1450   -0.5770 C   0  0  0  0  0  0  0  0  0  0  0  0
    2.1920   -0.7700   -0.8390 C   0  0  0  0  0  0  0  0  0  0  0  0
    0.8320   -0.2530   -1.2670 C   0  0  0  0  0  0  0  0  0  0  0  0
   -0.2040   -0.7030   -0.2700 C   0  0  0  0  0  0  0  0  0  0  0  0
   -1.4220   -0.1840   -0.7210 O   0  0  0  0  0  0  0  0  0  0  0  0
   -2.4810   -0.5290    0.1200 C   0  0  2  0  0  0  0  0  0  0  0  0
   -3.4020   -1.4120   -0.6760 C   0  0  0  0  0  0  0  0  0  0  0  0
   -4.7290   -1.6390   -0.0510 C   0  0  0  0  0  0  0  0  0  0  0  0
   -5.1600   -0.5540    0.8940 C   0  0  0  0  0  0  0  0  0  0  0  0
   -4.6030    0.7520    0.3680 C   0  0  1  0  0  0  0  0  0  0  0  0
   -4.8090    0.8540   -0.9990 O   0  0  0  0  0  0  0  0  0  0  0  0
   -5.2350    1.9280    1.0760 C   0  0  0  0  0  0  0  0  0  0  0  0
   -4.6990    3.1850    0.6550 N   0  0  0  0  0  0  0  0  0  0  0  0
   -3.1110    0.7260    0.6110 C   0  0  0  0  0  0  0  0  0  0  0  0
    2.3510   -2.1850   -0.7900 C   0  0  0  0  0  0  0  0  0  0  0  0
    3.5480   -2.8300   -0.4250 N   0  0  0  0  0  0  0  0  0  0  0  0
    1.3700   -2.9510   -1.0910 O   0  0  0  0  0  0  0  0  0  0  0  0
    5.3410    0.6380   -1.2230 C   0  0  0  0  0  0  0  0  0  0  0  0
    4.9900    1.9550   -1.4230 O   0  0  0  0  0  0  0  0  0  0  0  0
  1  2  1  0
  3  2  1  1
  3  4  1  0
  3 21  1  0
  4  5  2  3
  5  6  1  0
  5 18  1  0
  6  7  1  0
  7  8  1  0
  9  8  1  6
  9 10  1  0
  9 17  1  0
 10 11  1  0
 11 12  1  0
 12 13  1  0
 13 14  1  6
 13 15  1  0
 13 17  1  0
 15 16  1  0
 18 19  1  0
 18 20  2  0
 21 22  1  0
M  END
