
     RDKit          3D

  9  9  0  0  0  0  0  0  0  0999 V2000
    3.1580   -2.1180   -1.3790 O   0  0  0  0  0  0  0  0  0  0  0  0
    2.0480   -2.5340   -0.6500 C   0  0  0  0  0  0  0  0  0  0  0  0
    1.0540   -1.4950   -0.4740 C   0  0  0  0  0  0  0  0  0  0  0  0
    0.2270   -0.6080   -0.3370 C   0  0  0  0  0  0  0  0  0  0  0  0
   -0.7760    0.4370   -0.1600 C   0  0  0  0  0  0  0  0  0  0  0  0
   -1.4750    0.8470   -1.1860 C   0  0  0  0  0  0  0  0  0  0  0  0
   -2.5830    2.1140   -0.5920 S   0  0  0  0  0  0  0  0  0  0  0  0
   -1.7360    2.3360    1.0260 C   0  0  0  0  0  0  0  0  0  0  0  0
   -1.0310    1.0380    1.1250 C   0  0  0  0  0  0  0  0  0  0  0  0
  1  2  1  0
  2  3  1  0
  3  4  3  0
  4  5  1  0
  5  6  2  0
  5  9  1  0
  6  7  1  0
  7  8  1  0
  8  9  1  0
M  END
