
     RDKit          3D

  9  9  0  0  0  0  0  0  0  0999 V2000
    1.0600    2.0660    0.7150 O   0  0  0  0  0  0  0  0  0  0  0  0
    0.2390    1.0380    0.2740 C   0  0  0  0  0  0  0  0  0  0  0  0
   -1.0660    1.2380    0.3100 C   0  0  0  0  0  0  0  0  0  0  0  0
   -1.9630    0.1700   -0.1500 C   0  0  0  0  0  0  0  0  0  0  0  0
   -1.4820   -1.2210    0.1540 C   0  0  0  0  0  0  0  0  0  0  0  0
   -0.0400   -1.4470   -0.1820 C   0  0  0  0  0  0  0  0  0  0  0  0
    0.7670   -0.2290   -0.2170 C   0  0  0  0  0  0  0  0  0  0  0  0
    1.9880   -0.2930   -0.7000 C   0  0  0  0  0  0  0  0  0  0  0  0
    2.9950    1.1770   -0.7530 S   0  0  0  0  0  0  0  0  0  0  0  0
  1  2  1  0
  2  3  2  0
  2  7  1  0
  3  4  1  0
  4  5  1  0
  5  6  1  0
  6  7  1  0
  7  8  2  3
  8  9  1  0
M  END
