
     RDKit          3D

  9 12  0  0  0  0  0  0  0  0999 V2000
    1.1900    1.0000   -0.8080 O   0  0  0  0  0  0  0  0  0  0  0  0
    0.6530    0.1370    0.0990 C   0  0  0  0  0  0  0  0  0  0  0  0
    1.3360   -1.1600    0.2140 C   0  0  0  0  0  0  0  0  0  0  0  0
    1.2290   -2.1690   -1.2400 S   0  0  0  0  0  0  0  0  0  0  0  0
    0.4670    0.6910    1.6290 C   0  0  0  0  0  0  0  0  0  0  0  0
   -0.6210    1.1240    0.7270 C   0  0  0  0  0  0  0  0  0  0  0  0
   -1.2070    1.3430    0.2480 C   0  0  0  0  0  0  0  0  0  0  0  0
   -1.9560    1.6060   -0.3500 C   0  0  0  0  0  0  0  0  0  0  0  0
   -0.7980   -0.1570   -0.5960 C   0  0  1  0  0  0  0  0  0  0  0  0
  1  2  1  0
  2  3  1  0
  2  5  1  0
  2  9  1  0
  3  4  1  0
  5  6  1  0
  6  7  3  0
  7  8  1  0
  9  8  1  6
  6  2  1  0
  8  6  1  0
  9  7  1  0
M  END
