
     RDKit          3D

  9  9  0  0  0  0  0  0  0  0999 V2000
   -2.0860   -0.3710    0.5260 C   0  0  0  0  0  0  0  0  0  0  0  0
   -0.9310   -0.3400   -0.3080 C   0  0  2  0  0  0  0  0  0  0  0  0
   -1.0290   -1.0900   -1.4490 O   0  0  0  0  0  0  0  0  0  0  0  0
    0.3540   -0.7400    0.3320 C   0  0  0  0  0  0  0  0  0  0  0  0
    1.0120   -0.9370    0.6530 C   0  0  0  0  0  0  0  0  0  0  0  0
    2.1110   -1.2510    1.1720 C   0  0  0  0  0  0  0  0  0  0  0  0
    2.4630    0.7860    0.0590 S   0  0  0  0  0  0  0  0  0  0  0  0
    0.8060    1.4940    0.1270 C   0  0  0  0  0  0  0  0  0  0  0  0
   -0.3950    1.0850   -0.6110 C   0  0  0  0  0  0  0  0  0  0  0  0
  2  1  1  1
  2  3  1  0
  2  4  1  0
  2  9  1  0
  4  5  3  0
  5  6  1  0
  6  7  1  0
  7  8  1  0
  8  9  1  0
M  END
