
     RDKit          3D

  9  9  0  0  0  0  0  0  0  0999 V2000
    2.7610   -0.9210   -0.8060 C   0  0  0  0  0  0  0  0  0  0  0  0
    1.8860   -0.3460   -0.2080 C   0  0  0  0  0  0  0  0  0  0  0  0
    0.8290    0.3640    0.5110 C   0  0  1  0  0  0  0  0  0  0  0  0
    1.2060    1.6450    0.8860 O   0  0  0  0  0  0  0  0  0  0  0  0
   -0.4140    0.3660   -0.3010 C   0  0  0  0  0  0  0  0  0  0  0  0
   -0.3700    1.1270   -1.9140 S   0  0  0  0  0  0  0  0  0  0  0  0
   -1.5420   -0.1700    0.1210 C   0  0  0  0  0  0  0  0  0  0  0  0
   -2.9450   -0.5080   -0.0640 C   0  0  0  0  0  0  0  0  0  0  0  0
   -2.3680   -0.8550    1.0600 C   0  0  0  0  0  0  0  0  0  0  0  0
  1  2  3  0
  2  3  1  0
  3  4  1  6
  3  5  1  0
  5  6  1  0
  5  7  2  3
  7  8  1  0
  7  9  1  0
  8  9  2  0
M  END
