
     RDKit          3D

  9  9  0  0  0  0  0  0  0  0999 V2000
   -1.4110    0.9360   -0.8570 C   0  0  0  0  0  0  0  0  0  0  0  0
   -0.9280   -0.1790    0.0690 C   0  0  1  0  0  0  0  0  0  0  0  0
   -2.0700   -0.7210    0.6900 O   0  0  0  0  0  0  0  0  0  0  0  0
   -0.2670   -1.2700   -0.6920 C   0  0  0  0  0  0  0  0  0  0  0  0
    1.1880   -1.4590   -0.3770 C   0  0  0  0  0  0  0  0  0  0  0  0
    1.8810   -0.1790   -0.0840 C   0  0  0  0  0  0  0  0  0  0  0  0
    1.2790    0.7460    0.6420 C   0  0  0  0  0  0  0  0  0  0  0  0
    2.1250    2.2830    0.9890 S   0  0  0  0  0  0  0  0  0  0  0  0
   -0.0920    0.4460    1.1350 C   0  0  0  0  0  0  0  0  0  0  0  0
  2  1  1  6
  2  3  1  0
  2  4  1  0
  2  9  1  0
  4  5  1  0
  5  6  1  0
  6  7  2  0
  7  8  1  0
  7  9  1  0
M  END
