
     RDKit          3D

  9  9  0  0  0  0  0  0  0  0999 V2000
    2.0630    1.1500   -0.1760 C   0  0  0  0  0  0  0  0  0  0  0  0
    0.9990    0.2920    0.4820 C   0  0  2  0  0  0  0  0  0  0  0  0
    1.1370    0.3380    1.8630 O   0  0  0  0  0  0  0  0  0  0  0  0
    1.0900   -1.0920   -0.0650 C   0  0  0  0  0  0  0  0  0  0  0  0
   -0.2230   -1.4510   -0.6810 C   0  0  0  0  0  0  0  0  0  0  0  0
   -1.1750   -0.4210   -0.2240 C   0  0  0  0  0  0  0  0  0  0  0  0
   -2.5000   -0.5750   -0.1260 C   0  0  0  0  0  0  0  0  0  0  0  0
   -3.5060    0.7690    0.4420 S   0  0  0  0  0  0  0  0  0  0  0  0
   -0.3700    0.7830    0.0910 C   0  0  0  0  0  0  0  0  0  0  0  0
  2  1  1  6
  2  3  1  0
  2  4  1  0
  2  9  1  0
  4  5  1  0
  5  6  1  0
  6  7  2  3
  6  9  1  0
  7  8  1  0
M  END
