
     RDKit          3D

 13 14  0  0  0  0  0  0  0  0999 V2000
    3.4480    0.0530   -0.3410 O   0  0  0  0  0  0  0  0  0  0  0  0
    2.0930    0.2780   -0.5900 C   0  0  1  0  0  0  0  0  0  0  0  0
    1.3230   -0.9990   -0.6680 C   0  0  0  0  0  0  0  0  0  0  0  0
   -0.0850   -0.7120   -0.7390 N   0  0  1  0  0  0  0  0  0  0  0  0
   -0.9250   -1.8610   -0.7700 C   0  0  0  0  0  0  0  0  0  0  0  0
   -2.2250   -1.4550   -0.1070 C   0  0  0  0  0  0  0  0  0  0  0  0
   -1.9100   -0.1950    0.6920 C   0  0  2  0  0  0  0  0  0  0  0  0
   -2.5670    0.9130    0.2190 O   0  0  0  0  0  0  0  0  0  0  0  0
   -0.4340   -0.0850    0.5470 C   0  0  2  0  0  0  0  0  0  0  0  0
    0.0670    1.3360    0.4420 C   0  0  1  0  0  0  0  0  0  0  0  0
   -0.3520    2.1310    1.4770 O   0  0  0  0  0  0  0  0  0  0  0  0
    1.5930    1.2460    0.4280 C   0  0  2  0  0  0  0  0  0  0  0  0
    2.1760    2.4820    0.1790 O   0  0  0  0  0  0  0  0  0  0  0  0
  2  1  1  1
  2  3  1  0
  2 12  1  0
  4  3  1  1
  4  5  1  0
  4  9  1  0
  5  6  1  0
  6  7  1  0
  7  8  1  6
  9  7  1  6
  9 10  1  0
 10 11  1  1
 10 12  1  0
 12 13  1  6
M  CHG  1   4   1
M  END
