
     RDKit          3D

 26 26  0  0  0  0  0  0  0  0999 V2000
   -5.9600    0.0960   -1.0230 C   0  0  0  0  0  0  0  0  0  0  0  0
   -4.3370    0.4450   -1.2760 S   0  0  2  0  0  0  0  0  0  0  0  0
   -4.4020    1.6490   -2.0630 O   0  0  0  0  0  0  0  0  0  0  0  0
   -3.9790   -0.5310   -2.2630 O   0  0  0  0  0  0  0  0  0  0  0  0
   -3.2910    0.5330    0.2020 S   0  0  0  0  0  0  0  0  0  0  0  0
   -4.1670    1.1150    1.3020 O   0  0  0  0  0  0  0  0  0  0  0  0
   -2.6170    1.9420    0.1290 C   0  0  2  0  0  0  0  0  0  0  0  0
   -3.4430    3.1100   -0.1800 O   0  0  0  0  0  0  0  0  0  0  0  0
   -1.7530    2.1200   -0.9920 O   0  0  0  0  0  0  0  0  0  0  0  0
   -3.7110   -0.6890    0.9900 O   0  0  0  0  0  0  0  0  0  0  0  0
   -3.8560   -1.9250    0.4720 C   0  0  0  0  0  0  0  0  0  0  0  0
   -2.5070   -2.6170    0.7250 C   0  0  0  0  0  0  0  0  0  0  0  0
   -1.5250   -1.4680    0.8280 C   0  0  1  0  0  0  0  0  0  0  0  0
   -0.3240   -2.0370    0.3270 O   0  0  0  0  0  0  0  0  0  0  0  0
   -1.9500   -0.2880   -0.0980 C   0  0  2  0  0  0  0  0  0  0  0  0
   -0.3140    0.4710   -0.2960 S   0  0  0  0  0  0  0  0  0  0  0  0
    0.3760    0.9740    1.2550 C   0  0  0  0  0  0  0  0  0  0  0  0
    2.0350    1.7090    0.9830 S   0  0  0  0  0  0  0  0  0  0  0  0
    3.2360    0.5170    0.4250 C   0  0  1  0  0  0  0  0  0  0  0  0
    2.7570   -0.8930    0.3180 C   0  0  0  0  0  0  0  0  0  0  0  0
    3.9400   -1.7460   -0.1470 C   0  0  0  0  0  0  0  0  0  0  0  0
    3.6050   -3.0710   -0.2690 O   0  0  0  0  0  0  0  0  0  0  0  0
    4.0270    0.9940   -1.1100 S   0  0  0  0  0  0  0  0  0  0  0  0
    5.7960    1.1930   -1.0200 C   0  0  0  0  0  0  0  0  0  0  0  0
    6.3130    2.2050   -0.0560 C   0  0  0  0  0  0  0  0  0  0  0  0
    5.9530    1.9050    1.2680 O   0  0  0  0  0  0  0  0  0  0  0  0
  2  1  1  1
  2  3  2  0
  2  4  2  0
  2  5  1  0
  5  6  2  0
  5  7  1  0
  5 10  1  0
  5 15  1  0
  7  8  1  6
  7  9  1  0
 10 11  1  0
 11 12  1  0
 12 13  1  0
 13 14  1  6
 13 15  1  0
 15 16  1  1
 16 17  1  0
 17 18  1  0
 18 19  1  0
 19 20  1  6
 19 23  1  0
 20 21  1  0
 21 22  1  0
 23 24  1  0
 24 25  1  0
 25 26  1  0
M  END
