
     RDKit          3D

 19 20  0  0  0  0  0  0  0  0999 V2000
   -1.3210   -1.6510    2.4060 O   0  0  0  0  0  0  0  0  0  0  0  0
   -2.3590   -1.3800    1.7730 C   0  0  0  0  0  0  0  0  0  0  0  0
   -3.5740   -1.8910    2.2740 O   0  0  0  0  0  0  0  0  0  0  0  0
   -2.3620   -0.5710    0.5620 C   0  0  0  0  0  0  0  0  0  0  0  0
   -3.5770   -0.3610   -0.1140 C   0  0  0  0  0  0  0  0  0  0  0  0
   -3.6670    0.3560   -1.2810 C   0  0  0  0  0  0  0  0  0  0  0  0
   -2.5350    0.9030   -1.8340 C   0  0  0  0  0  0  0  0  0  0  0  0
   -1.3260    0.7180   -1.1980 C   0  0  0  0  0  0  0  0  0  0  0  0
   -1.2450   -0.0170   -0.0050 C   0  0  0  0  0  0  0  0  0  0  0  0
    0.0080   -0.0590    0.6480 N   0  0  0  0  0  0  0  0  0  0  0  0
    1.2270    0.0180   -0.0810 C   0  0  0  0  0  0  0  0  0  0  0  0
    1.2650   -0.4970   -1.3820 C   0  0  0  0  0  0  0  0  0  0  0  0
    2.4540   -0.5410   -2.0670 C   0  0  0  0  0  0  0  0  0  0  0  0
    3.6420   -0.0970   -1.5290 C   0  0  0  0  0  0  0  0  0  0  0  0
    3.6230    0.4100   -0.2540 C   0  0  0  0  0  0  0  0  0  0  0  0
    2.4070    0.4630    0.4630 C   0  0  0  0  0  0  0  0  0  0  0  0
    2.4360    1.0540    1.8010 C   0  0  0  0  0  0  0  0  0  0  0  0
    1.4280    1.2000    2.5150 O   0  0  0  0  0  0  0  0  0  0  0  0
    3.6520    1.4910    2.3380 O   0  0  0  0  0  0  0  0  0  0  0  0
  1  2  2  0
  2  3  1  0
  2  4  1  0
  4  5  2  0
  4  9  1  0
  5  6  1  0
  6  7  2  0
  7  8  1  0
  8  9  2  0
  9 10  1  0
 10 11  1  0
 11 12  2  0
 11 16  1  0
 12 13  1  0
 13 14  2  0
 14 15  1  0
 15 16  2  0
 16 17  1  0
 17 18  2  0
 17 19  1  0
M  END
