
     RDKit          3D

 26 26  0  0  0  0  0  0  0  0999 V2000
    2.0040   -0.2820   -0.0340 O   0  0  0  0  0  0  0  0  0  0  0  0
    1.2910   -1.2630    0.0480 C   0  0  0  0  0  0  0  0  0  0  0  0
   -0.1310   -1.1260    0.4930 C   0  0  0  0  0  0  0  0  0  0  0  0
   -0.4060    0.2970    0.7710 C   0  0  1  0  0  0  0  0  0  0  0  0
   -2.0460    0.6940    1.3170 S   0  0  0  0  0  0  0  0  0  0  0  0
   -3.3830    0.2960   -0.2850 S   0  0  0  0  0  0  0  0  0  0  0  0
   -3.9170   -1.4190   -0.0740 C   0  0  1  0  0  0  0  0  0  0  0  0
   -4.7350   -1.4810    1.2120 C   0  0  0  0  0  0  0  0  0  0  0  0
   -5.7280   -0.5090    1.1000 O   0  0  0  0  0  0  0  0  0  0  0  0
   -4.7960   -1.6870   -1.1450 O   0  0  0  0  0  0  0  0  0  0  0  0
   -4.3500   -2.7740   -1.8840 C   0  0  0  0  0  0  0  0  0  0  0  0
   -4.2990   -3.8830   -1.0190 O   0  0  0  0  0  0  0  0  0  0  0  0
    0.8590    0.8680    1.9890 S   0  0  0  0  0  0  0  0  0  0  0  0
    0.9850    2.5900    1.5360 C   0  0  0  0  0  0  0  0  0  0  0  0
    0.5870    2.8590    0.3110 C   0  0  0  0  0  0  0  0  0  0  0  0
    0.5870    4.2340   -0.3220 C   0  0  1  0  0  0  0  0  0  0  0  0
   -0.7060    4.5320   -0.7150 O   0  0  0  0  0  0  0  0  0  0  0  0
    0.9900    5.2070    0.5820 O   0  0  0  0  0  0  0  0  0  0  0  0
    1.5780    4.1980   -1.4500 C   0  0  0  0  0  0  0  0  0  0  0  0
    1.6000    5.4550   -2.0640 O   0  0  0  0  0  0  0  0  0  0  0  0
    0.0460    1.4220   -0.5760 S   0  0  0  0  0  0  0  0  0  0  0  0
    1.9680   -2.8600   -0.3710 S   0  0  0  0  0  0  0  0  0  0  0  0
    3.6000   -2.6570   -0.8470 O   0  0  0  0  0  0  0  0  0  0  0  0
    4.3920   -2.6990    0.2830 C   0  0  0  0  0  0  0  0  0  0  0  0
    5.8280   -2.5170   -0.1850 C   0  0  0  0  0  0  0  0  0  0  0  0
    6.7120   -2.5460    0.9000 O   0  0  0  0  0  0  0  0  0  0  0  0
  1  2  2  0
  2  3  1  0
  2 22  1  0
  4  3  1  6
  4  5  1  0
  4 13  1  0
  4 21  1  0
  5  6  1  0
  6  7  1  0
  7  8  1  1
  7 10  1  0
  8  9  1  0
 10 11  1  0
 11 12  1  0
 13 14  1  0
 14 15  2  0
 15 16  1  0
 15 21  1  0
 16 17  1  6
 16 18  1  0
 16 19  1  0
 19 20  1  0
 22 23  1  0
 23 24  1  0
 24 25  1  0
 25 26  1  0
M  END
