
     RDKit          3D

 20 22  0  0  0  0  0  0  0  0999 V2000
   -5.2760    1.3690   -0.0050 C   0  0  0  0  0  0  0  0  0  0  0  0
   -4.9690   -0.0510    0.3560 C   0  0  0  0  0  0  0  0  0  0  0  0
   -5.8770   -1.0130    0.6320 N   0  0  0  0  0  0  0  0  0  0  0  0
   -5.2730   -2.1550    0.9120 N   0  0  0  0  0  0  0  0  0  0  0  0
   -3.9400   -1.9370    0.8190 C   0  0  0  0  0  0  0  0  0  0  0  0
   -3.7320   -0.6270    0.4720 C   0  0  0  0  0  0  0  0  0  0  0  0
   -2.4670    0.0800    0.2520 C   0  0  0  0  0  0  0  0  0  0  0  0
   -2.3000    1.2810    0.5950 O   0  0  0  0  0  0  0  0  0  0  0  0
   -1.3610   -0.5740   -0.3670 N   0  0  0  0  0  0  0  0  0  0  0  0
   -0.1350    0.0580   -0.5980 N   0  0  0  0  0  0  0  0  0  0  0  0
    1.0260   -0.4450    0.0350 C   0  0  0  0  0  0  0  0  0  0  0  0
    0.9150   -1.4480    0.7860 O   0  0  0  0  0  0  0  0  0  0  0  0
    2.3620    0.1600   -0.1520 C   0  0  0  0  0  0  0  0  0  0  0  0
    3.4050   -0.3360    0.4510 C   0  0  0  0  0  0  0  0  0  0  0  0
    4.7780    0.1260    0.3830 C   0  0  1  0  0  0  0  0  0  0  0  0
    5.5890   -0.5370   -0.7630 C   0  0  0  0  0  0  0  0  0  0  0  0
    5.2380    0.8970   -0.7390 C   0  0  1  0  0  0  0  0  0  0  0  0
    3.9760    1.5730   -1.8090 S   0  0  0  0  0  0  0  0  0  0  0  0
    4.1640    3.0870   -1.9780 O   0  0  0  0  0  0  0  0  0  0  0  0
    2.4370    1.2820   -1.0010 N   0  0  0  0  0  0  0  0  0  0  0  0
  1  2  1  0
  2  3  2  0
  2  6  1  0
  3  4  1  0
  4  5  1  0
  5  6  2  0
  6  7  1  0
  7  8  2  0
  7  9  1  0
  9 10  1  0
 10 11  1  0
 11 12  2  0
 11 13  1  0
 13 14  2  0
 13 20  1  0
 14 15  1  0
 15 16  1  6
 15 17  1  0
 17 16  1  6
 17 18  1  0
 18 19  2  0
 18 20  1  1
M  END
