
     RDKit          3D

 27 26  0  0  0  0  0  0  0  0999 V2000
    0.0910   -1.8180   -0.6720 C   0  0  0  0  0  0  0  0  0  0  0  0
    0.2670   -0.3420   -0.9290 C   0  0  1  0  0  0  0  0  0  0  0  0
   -0.2290   -0.0630   -2.6480 S   0  0  0  0  0  0  0  0  0  0  0  0
   -0.5990    0.6140    0.2510 S   0  0  0  0  0  0  0  0  0  0  0  0
   -2.3450    0.6540    0.2910 C   0  0  2  0  0  0  0  0  0  0  0  0
   -2.8160    1.2880   -0.8790 O   0  0  0  0  0  0  0  0  0  0  0  0
   -2.7240    1.5970    1.4580 C   0  0  0  0  0  0  0  0  0  0  0  0
   -2.0490    2.8070    1.1670 O   0  0  0  0  0  0  0  0  0  0  0  0
   -3.0940   -0.6020    0.5180 C   0  0  1  0  0  0  0  0  0  0  0  0
   -2.5960   -1.2620    1.6670 O   0  0  0  0  0  0  0  0  0  0  0  0
   -4.5640   -0.3880    0.8150 C   0  0  0  0  0  0  0  0  0  0  0  0
   -5.3250    0.3010   -0.2640 C   0  0  1  0  0  0  0  0  0  0  0  0
   -5.2310   -0.4830   -1.4380 O   0  0  0  0  0  0  0  0  0  0  0  0
   -6.8330    0.2990    0.0500 C   0  0  0  0  0  0  0  0  0  0  0  0
   -7.0950    1.0390    1.1960 O   0  0  0  0  0  0  0  0  0  0  0  0
    1.7450   -0.0160   -0.8400 C   0  0  2  0  0  0  0  0  0  0  0  0
    1.9180    1.7760   -1.1720 S   0  0  0  0  0  0  0  0  0  0  0  0
    3.5730    2.2080   -1.0840 O   0  0  0  0  0  0  0  0  0  0  0  0
    2.6680   -0.8710   -2.1400 S   0  0  0  0  0  0  0  0  0  0  0  0
    2.6230   -2.5630   -1.9270 O   0  0  0  0  0  0  0  0  0  0  0  0
    2.4780   -0.3350    0.7390 S   0  0  2  0  0  0  0  0  0  0  0  0
    1.7450    0.5350    1.9990 O   0  0  0  0  0  0  0  0  0  0  0  0
    4.1360    0.1260    0.7420 O   0  0  0  0  0  0  0  0  0  0  0  0
    4.9510   -0.9650    0.4120 C   0  0  0  0  0  0  0  0  0  0  0  0
    6.4100   -0.5790    0.4200 C   0  0  0  0  0  0  0  0  0  0  0  0
    6.6520    0.5190   -0.5870 C   0  0  0  0  0  0  0  0  0  0  0  0
    8.0080    0.8500   -0.5540 O   0  0  0  0  0  0  0  0  0  0  0  0
  2  1  1  1
  2  3  1  0
  2  4  1  0
  2 16  1  0
  4  5  1  0
  5  6  1  6
  5  7  1  0
  5  9  1  0
  7  8  1  0
  9 10  1  1
  9 11  1  0
 11 12  1  0
 12 13  1  6
 12 14  1  0
 14 15  1  0
 16 17  1  6
 16 19  1  0
 16 21  1  0
 17 18  1  0
 19 20  1  0
 21 22  1  1
 21 23  1  0
 23 24  1  0
 24 25  1  0
 25 26  1  0
 26 27  1  0
M  END
