
     RDKit          3D

 23 23  0  0  0  0  0  0  0  0999 V2000
    6.4390   -1.1890   -0.4160 C   0  0  0  0  0  0  0  0  0  0  0  0
    5.0310   -0.6290   -0.3100 C   0  0  0  0  0  0  0  0  0  0  0  0
    4.7740   -0.4420    1.0640 O   0  0  0  0  0  0  0  0  0  0  0  0
    3.2020    0.1910    1.3140 S   0  0  0  0  0  0  0  0  0  0  0  0
    2.0120   -1.0470    1.2860 O   0  0  0  0  0  0  0  0  0  0  0  0
    0.5230   -0.3630    1.8140 S   0  0  0  0  0  0  0  0  0  0  0  0
   -0.1780    0.4940    0.3170 C   0  0  2  0  0  0  0  0  0  0  0  0
   -1.3640    1.0690    0.6400 O   0  0  0  0  0  0  0  0  0  0  0  0
   -1.5520    2.3810    0.5990 C   0  0  1  0  0  0  0  0  0  0  0  0
   -2.8880    2.6770    0.9810 O   0  0  0  0  0  0  0  0  0  0  0  0
   -0.7060    3.2060    1.5570 C   0  0  0  0  0  0  0  0  0  0  0  0
   -0.9960    4.5880    0.9980 C   0  0  0  0  0  0  0  0  0  0  0  0
   -1.2590    4.4750   -0.3420 O   0  0  0  0  0  0  0  0  0  0  0  0
   -1.2360    3.1210   -0.6760 C   0  0  0  0  0  0  0  0  0  0  0  0
   -0.4140   -0.6230   -0.6630 C   0  0  2  0  0  0  0  0  0  0  0  0
   -0.9760   -0.1040   -1.9610 C   0  0  0  0  0  0  0  0  0  0  0  0
   -0.1550    0.7880   -2.6120 O   0  0  0  0  0  0  0  0  0  0  0  0
   -1.4190   -1.5670   -0.0030 C   0  0  2  0  0  0  0  0  0  0  0  0
   -0.9310   -2.0740    1.1850 O   0  0  0  0  0  0  0  0  0  0  0  0
   -1.8210   -2.6980   -0.8890 C   0  0  0  0  0  0  0  0  0  0  0  0
   -2.8190   -3.5390   -0.0820 C   0  0  2  0  0  0  0  0  0  0  0  0
   -2.2320   -4.0100    1.0690 O   0  0  0  0  0  0  0  0  0  0  0  0
   -3.3100   -4.5640   -0.8580 O   0  0  0  0  0  0  0  0  0  0  0  0
  1  2  1  0
  2  3  1  0
  3  4  1  0
  4  5  1  0
  5  6  1  0
  6  7  1  0
  7  8  1  1
  7 15  1  0
  8  9  1  0
  9 10  1  1
  9 11  1  0
  9 14  1  0
 11 12  1  0
 12 13  1  0
 13 14  1  0
 15 16  1  6
 15 18  1  0
 16 17  1  0
 18 19  1  1
 18 20  1  0
 20 21  1  0
 21 22  1  1
 21 23  1  0
M  END
