
     RDKit          3D

 26 25  0  0  0  0  0  0  0  0999 V2000
    1.8700    5.5590    1.4920 C   0  0  0  0  0  0  0  0  0  0  0  0
    1.4190    4.2350    1.2770 O   0  0  0  0  0  0  0  0  0  0  0  0
    1.0670    3.3910    2.3200 C   0  0  0  0  0  0  0  0  0  0  0  0
    1.1930    3.9340    3.4770 O   0  0  0  0  0  0  0  0  0  0  0  0
    0.5070    1.7750    2.2610 S   0  0  0  0  0  0  0  0  0  0  0  0
    0.3060    0.7910    0.4880 S   0  0  1  0  0  0  0  0  0  0  0  0
    1.5100   -0.8340    0.8940 S   0  0  0  0  0  0  0  0  0  0  0  0
    0.8920   -2.3300    0.8030 O   0  0  0  0  0  0  0  0  0  0  0  0
    1.7920   -3.2640    0.7600 O   0  0  0  0  0  0  0  0  0  0  0  0
    3.0570   -2.7920    0.4140 C   0  0  0  0  0  0  0  0  0  0  0  0
    4.0350   -3.9500    0.3900 C   0  0  0  0  0  0  0  0  0  0  0  0
    3.6430   -4.9160   -0.5420 O   0  0  0  0  0  0  0  0  0  0  0  0
   -1.7110    0.7750    0.3100 S   0  0  0  0  0  0  0  0  0  0  0  0
   -2.6060   -0.6700    0.5080 C   0  0  2  0  0  0  0  0  0  0  0  0
   -2.5350   -1.7740   -0.4990 C   0  0  0  0  0  0  0  0  0  0  0  0
   -2.9670   -1.4580   -1.7630 O   0  0  0  0  0  0  0  0  0  0  0  0
   -4.0920   -0.3190    0.7320 C   0  0  0  0  0  0  0  0  0  0  0  0
   -4.9030   -1.5670    0.9020 C   0  0  0  0  0  0  0  0  0  0  0  0
   -4.3090   -2.5220    2.3230 S   0  0  0  0  0  0  0  0  0  0  0  0
   -5.2350   -3.9420    2.5140 O   0  0  0  0  0  0  0  0  0  0  0  0
    0.8960    1.4070   -1.0210 C   0  0  2  0  0  0  0  0  0  0  0  0
    0.2440    2.7580   -1.3040 C   0  0  0  0  0  0  0  0  0  0  0  0
    0.6380    0.5220   -2.1820 C   0  0  0  0  0  0  0  0  0  0  0  0
   -0.6640    0.2520   -2.4740 O   0  0  0  0  0  0  0  0  0  0  0  0
    2.4090    1.6500   -0.9950 C   0  0  0  0  0  0  0  0  0  0  0  0
    3.0660    0.4470   -0.7280 O   0  0  0  0  0  0  0  0  0  0  0  0
  1  2  1  0
  2  3  1  0
  3  4  2  0
  3  5  1  0
  6  5  1  1
  6  7  1  0
  6 13  1  0
  6 21  1  0
  7  8  1  0
  8  9  1  0
  9 10  1  0
 10 11  1  0
 11 12  1  0
 13 14  1  0
 14 15  1  6
 14 17  1  0
 15 16  1  0
 17 18  1  0
 18 19  1  0
 19 20  1  0
 21 22  1  6
 21 23  1  0
 21 25  1  0
 23 24  1  0
 25 26  1  0
M  END
