
     RDKit          3D

 18 19  0  0  0  0  0  0  0  0999 V2000
   -3.5460   -1.4910    1.2410 N   0  0  0  0  0  0  0  0  0  0  0  0
   -3.7660   -0.1690    0.8240 C   0  0  0  0  0  0  0  0  0  0  0  0
   -5.3980    0.3150    0.9810 S   0  0  0  0  0  0  0  0  0  0  0  0
   -2.7050    1.0220    0.1980 S   0  0  0  0  0  0  0  0  0  0  0  0
   -1.0360    0.6560   -0.0080 C   0  0  0  0  0  0  0  0  0  0  0  0
   -0.2330    1.7010   -0.5320 C   0  0  0  0  0  0  0  0  0  0  0  0
   -0.8890    2.9570   -0.8390 C   0  0  0  0  0  0  0  0  0  0  0  0
   -0.2000    3.8960   -1.3030 O   0  0  0  0  0  0  0  0  0  0  0  0
   -2.2410    3.2060   -0.6560 O   0  0  0  0  0  0  0  0  0  0  0  0
    1.1040    1.5730   -0.7540 C   0  0  0  0  0  0  0  0  0  0  0  0
    1.7460    0.3750   -0.4650 C   0  0  0  0  0  0  0  0  0  0  0  0
    1.0080   -0.6690    0.0460 C   0  0  0  0  0  0  0  0  0  0  0  0
   -0.3700   -0.5190    0.2690 C   0  0  0  0  0  0  0  0  0  0  0  0
   -1.0660   -1.5710    0.7740 O   0  0  0  0  0  0  0  0  0  0  0  0
    1.6600   -1.8590    0.3310 O   0  0  0  0  0  0  0  0  0  0  0  0
    2.9100   -2.0950   -0.3350 C   0  0  0  0  0  0  0  0  0  0  0  0
    3.7630   -0.8670   -0.0990 C   0  0  0  0  0  0  0  0  0  0  0  0
    3.1100    0.2570   -0.6960 O   0  0  0  0  0  0  0  0  0  0  0  0
  1  2  1  0
  2  3  2  0
  2  4  1  0
  4  5  1  0
  5  6  2  0
  5 13  1  0
  6  7  1  0
  6 10  1  0
  7  8  2  0
  7  9  1  0
 10 11  2  0
 11 12  1  0
 11 18  1  0
 12 13  2  0
 12 15  1  0
 13 14  1  0
 15 16  1  0
 16 17  1  0
 17 18  1  0
M  END
