
     RDKit          3D

 25 26  0  0  0  0  0  0  0  0999 V2000
    1.2210    2.3540   -2.0440 C   0  0  0  0  0  0  0  0  0  0  0  0
    2.0400    1.4810   -1.1840 C   0  0  0  0  0  0  0  0  0  0  0  0
    3.4310    1.6510   -1.2390 C   0  0  0  0  0  0  0  0  0  0  0  0
    4.2310    0.8460   -0.4430 C   0  0  0  0  0  0  0  0  0  0  0  0
    3.6760   -0.1020    0.3860 C   0  0  0  0  0  0  0  0  0  0  0  0
    4.7140   -1.0960    1.3730 S   0  0  1  0  0  0  0  0  0  0  0  0
    5.9710   -0.2970    1.6540 O   0  0  0  0  0  0  0  0  0  0  0  0
    4.0080   -1.3890    2.6500 O   0  0  0  0  0  0  0  0  0  0  0  0
    5.1220   -2.4740    0.5160 O   0  0  0  0  0  0  0  0  0  0  0  0
    2.2960   -0.2400    0.4140 C   0  0  0  0  0  0  0  0  0  0  0  0
    1.4700    0.5410   -0.3620 C   0  0  0  0  0  0  0  0  0  0  0  0
    0.0340    0.4180   -0.3520 N   0  0  0  0  0  0  0  0  0  0  0  0
   -0.6470   -0.5250    0.4630 C   0  0  0  0  0  0  0  0  0  0  0  0
   -2.1100   -0.4310    0.2730 C   0  0  0  0  0  0  0  0  0  0  0  0
   -2.8510    0.3920   -0.5350 C   0  0  0  0  0  0  0  0  0  0  0  0
   -4.1890    0.1000   -0.3630 C   0  0  0  0  0  0  0  0  0  0  0  0
   -5.2760    0.8060   -1.0880 C   0  0  2  0  0  0  0  0  0  0  0  0
   -5.0950    0.7450   -2.4550 F   0  0  0  0  0  0  0  0  0  0  0  0
   -5.2260    2.1360   -0.6540 F   0  0  0  0  0  0  0  0  0  0  0  0
   -4.2610   -0.8730    0.5240 N   0  0  0  0  0  0  0  0  0  0  0  0
   -3.0480   -1.2410    0.9480 C   0  0  0  0  0  0  0  0  0  0  0  0
   -2.6760   -2.2900    1.9360 C   0  0  2  0  0  0  0  0  0  0  0  0
   -3.8580   -2.8700    2.3830 F   0  0  0  0  0  0  0  0  0  0  0  0
   -2.0330   -1.7810    3.0320 F   0  0  0  0  0  0  0  0  0  0  0  0
   -1.9210   -3.2910    1.3350 F   0  0  0  0  0  0  0  0  0  0  0  0
  1  2  1  0
  2  3  2  0
  2 11  1  0
  3  4  1  0
  4  5  2  0
  5  6  1  0
  5 10  1  0
  6  7  2  0
  6  8  2  0
  6  9  1  6
 10 11  2  0
 11 12  1  0
 12 13  1  0
 13 14  1  0
 14 15  1  0
 14 21  2  0
 15 16  2  0
 16 17  1  0
 16 20  1  0
 17 18  1  6
 17 19  1  0
 20 21  1  0
 21 22  1  0
 22 23  1  1
 22 24  1  0
 22 25  1  0
M  END
