
     RDKit          3D

 25 25  0  0  0  0  0  0  0  0999 V2000
   -1.2030    0.7620    0.5950 O   0  0  0  0  0  0  0  0  0  0  0  0
   -1.5010    0.0340   -0.3940 C   0  0  0  0  0  0  0  0  0  0  0  0
   -0.4450    0.0390   -1.3900 N   0  0  0  0  0  0  0  0  0  0  0  0
    0.7170    0.7760   -1.2240 N   0  0  0  0  0  0  0  0  0  0  0  0
    1.8180    0.5390   -2.0920 C   0  0  0  0  0  0  0  0  0  0  0  0
    1.7530   -0.5900   -3.2750 S   0  0  0  0  0  0  0  0  0  0  0  0
    2.9910    1.2460   -1.9790 O   0  0  0  0  0  0  0  0  0  0  0  0
    3.9250    1.0240   -0.9980 C   0  0  0  0  0  0  0  0  0  0  0  0
    3.7970    0.0700   -0.0140 C   0  0  0  0  0  0  0  0  0  0  0  0
    4.7930   -0.0980    0.9540 C   0  0  0  0  0  0  0  0  0  0  0  0
    4.6650   -1.0460    1.9380 F   0  0  0  0  0  0  0  0  0  0  0  0
    5.9300    0.6770    0.9590 C   0  0  0  0  0  0  0  0  0  0  0  0
    6.0630    1.6340   -0.0240 C   0  0  0  0  0  0  0  0  0  0  0  0
    5.0860    1.8050   -0.9800 C   0  0  0  0  0  0  0  0  0  0  0  0
    5.2400    2.7550   -1.9400 F   0  0  0  0  0  0  0  0  0  0  0  0
   -2.7140   -0.7220   -0.5650 C   0  0  0  0  0  0  0  0  0  0  0  0
   -3.7250   -0.8420    0.1810 C   0  0  0  0  0  0  0  0  0  0  0  0
   -4.1290   -0.3350    1.4460 C   0  0  0  0  0  0  0  0  0  0  0  0
   -3.3880    0.5770    2.3470 C   0  0  0  0  0  0  0  0  0  0  0  0
   -4.2200    0.7800    3.4950 F   0  0  0  0  0  0  0  0  0  0  0  0
   -5.3740   -0.7620    1.8730 C   0  0  0  0  0  0  0  0  0  0  0  0
   -6.0210   -1.5900    1.0340 F   0  0  0  0  0  0  0  0  0  0  0  0
   -5.8320   -0.3390    3.0380 F   0  0  0  0  0  0  0  0  0  0  0  0
   -2.7190   -1.4810   -1.9300 C   0  0  0  0  0  0  0  0  0  0  0  0
   -3.9150   -2.1720   -2.0420 O   0  0  0  0  0  0  0  0  0  0  0  0
  1  2  2  0
  2  3  1  0
  2 16  1  0
  3  4  1  0
  4  5  1  0
  5  6  2  0
  5  7  1  0
  7  8  1  0
  8  9  2  0
  8 14  1  0
  9 10  1  0
 10 11  1  0
 10 12  2  0
 12 13  1  0
 13 14  2  0
 14 15  1  0
 16 17  2  3
 16 24  1  0
 17 18  1  0
 18 19  1  0
 18 21  2  3
 19 20  1  0
 21 22  1  0
 21 23  1  0
 24 25  1  0
M  END
