
     RDKit          3D

 24 25  0  0  0  0  0  0  0  0999 V2000
   -4.9020   -2.4420   -0.0680 N   0  0  0  0  0  0  0  0  0  0  0  0
   -3.6710   -1.6800   -0.1260 C   0  0  0  0  0  0  0  0  0  0  0  0
   -2.6260   -2.3340   -0.1800 O   0  0  0  0  0  0  0  0  0  0  0  0
   -3.7130   -0.2390   -0.1180 C   0  0  0  0  0  0  0  0  0  0  0  0
   -4.9860    0.3500   -0.1320 C   0  0  0  0  0  0  0  0  0  0  0  0
   -5.1490    1.7020   -0.1690 C   0  0  0  0  0  0  0  0  0  0  0  0
   -6.4050    2.2520   -0.1820 F   0  0  0  0  0  0  0  0  0  0  0  0
   -4.0710    2.5210   -0.1940 C   0  0  0  0  0  0  0  0  0  0  0  0
   -2.8010    1.9230   -0.1790 C   0  0  0  0  0  0  0  0  0  0  0  0
   -2.5940    0.5680   -0.1410 C   0  0  0  0  0  0  0  0  0  0  0  0
   -1.3160    0.0090   -0.0610 N   0  0  0  0  0  0  0  0  0  0  0  0
   -0.1120    0.7170   -0.3040 C   0  0  0  0  0  0  0  0  0  0  0  0
   -0.1070    1.9100   -0.6200 O   0  0  0  0  0  0  0  0  0  0  0  0
    1.2040   -0.0110   -0.1730 C   0  0  0  0  0  0  0  0  0  0  0  0
    2.5580    1.1400   -0.5410 S   0  0  0  0  0  0  0  0  0  0  0  0
    4.0890    0.2340   -0.3720 C   0  0  0  0  0  0  0  0  0  0  0  0
    5.2310    0.8610   -0.5910 C   0  0  0  0  0  0  0  0  0  0  0  0
    6.5570    0.1850   -0.4740 C   0  0  2  0  0  0  0  0  0  0  0  0
    7.2610    0.8470    0.5330 F   0  0  0  0  0  0  0  0  0  0  0  0
    7.2570    0.3150   -1.6490 F   0  0  0  0  0  0  0  0  0  0  0  0
    6.4530   -1.1580   -0.1130 O   0  0  0  0  0  0  0  0  0  0  0  0
    5.2740   -1.8370    0.1220 C   0  0  0  0  0  0  0  0  0  0  0  0
    5.3180   -3.1480    0.4660 F   0  0  0  0  0  0  0  0  0  0  0  0
    4.1370   -1.1750   -0.0010 C   0  0  0  0  0  0  0  0  0  0  0  0
  1  2  1  0
  2  3  2  0
  2  4  1  0
  4  5  2  0
  4 10  1  0
  5  6  1  0
  6  7  1  0
  6  8  2  0
  8  9  1  0
  9 10  2  0
 10 11  1  0
 11 12  1  0
 12 13  2  0
 12 14  1  0
 14 15  1  0
 15 16  1  0
 16 17  2  0
 16 24  1  0
 17 18  1  0
 18 19  1  1
 18 20  1  0
 18 21  1  0
 21 22  1  0
 22 23  1  0
 22 24  2  0
M  END
