
     RDKit          3D

 18 19  0  0  0  0  0  0  0  0999 V2000
   -3.5420    0.0400    1.5920 N   0  0  0  0  0  0  0  0  0  0  0  0
   -2.9790    0.2070    0.2400 C   0  0  0  0  0  0  0  0  0  0  0  0
   -3.7970    0.6500   -0.7300 C   0  0  0  0  0  0  0  0  0  0  0  0
   -5.2430    1.0210   -0.6790 C   0  0  0  0  0  0  0  0  0  0  0  0
   -5.6400    1.4270   -1.9650 O   0  0  0  0  0  0  0  0  0  0  0  0
   -2.7910    0.7210   -2.1740 S   0  0  0  0  0  0  0  0  0  0  0  0
   -1.2880    0.1390   -1.3830 C   0  0  0  0  0  0  0  0  0  0  0  0
   -1.6800   -0.0680   -0.0550 C   0  0  0  0  0  0  0  0  0  0  0  0
   -0.6980   -0.5430    0.8620 O   0  0  0  0  0  0  0  0  0  0  0  0
    0.5860   -0.8260    0.6210 C   0  0  0  0  0  0  0  0  0  0  0  0
    1.3140   -1.2470    1.5970 O   0  0  0  0  0  0  0  0  0  0  0  0
    1.2940   -0.7210   -0.6330 C   0  0  0  0  0  0  0  0  0  0  0  0
    2.5310   -1.0120   -0.7880 C   0  0  0  0  0  0  0  0  0  0  0  0
    3.3100   -1.4660    0.2730 O   0  0  0  0  0  0  0  0  0  0  0  0
    4.6130   -0.9590    0.4890 C   0  0  0  0  0  0  0  0  0  0  0  0
    4.5470    0.5310    0.7180 C   0  0  0  0  0  0  0  0  0  0  0  0
    5.8410    1.0210    0.9300 O   0  0  0  0  0  0  0  0  0  0  0  0
    0.3350   -0.1420   -2.0220 S   0  0  0  0  0  0  0  0  0  0  0  0
  1  2  1  0
  2  3  2  0
  2  8  1  0
  3  4  1  0
  3  6  1  0
  4  5  1  0
  6  7  1  0
  7  8  2  0
  7 18  1  0
  8  9  1  0
  9 10  1  0
 10 11  2  0
 10 12  1  0
 12 13  2  3
 12 18  1  0
 13 14  1  0
 14 15  1  0
 15 16  1  0
 16 17  1  0
M  END
