
     RDKit          3D

 25 25  0  0  0  0  0  0  0  0999 V2000
   -0.2620    1.0920    0.4580 O   0  0  0  0  0  0  0  0  0  0  0  0
    0.2670    0.3860   -0.4740 C   0  0  0  0  0  0  0  0  0  0  0  0
   -0.5800   -0.0560   -1.4900 N   0  0  0  0  0  0  0  0  0  0  0  0
   -1.9650    0.1320   -1.6990 C   0  0  0  0  0  0  0  0  0  0  0  0
   -2.8470   -0.1480   -0.5640 C   0  0  0  0  0  0  0  0  0  0  0  0
   -3.7790    0.8190   -0.2320 C   0  0  0  0  0  0  0  0  0  0  0  0
   -4.7530    0.7140    0.7320 C   0  0  0  0  0  0  0  0  0  0  0  0
   -5.9510    2.0020    1.0910 S   0  0  0  0  0  0  0  0  0  0  0  0
   -4.7880   -0.5050    1.4410 C   0  0  0  0  0  0  0  0  0  0  0  0
   -3.8630   -1.4860    1.1260 C   0  0  0  0  0  0  0  0  0  0  0  0
   -2.8970   -1.3360    0.1450 C   0  0  0  0  0  0  0  0  0  0  0  0
   -1.9650   -2.3190   -0.1670 O   0  0  0  0  0  0  0  0  0  0  0  0
    1.6890    0.0980   -0.4220 C   0  0  0  0  0  0  0  0  0  0  0  0
    2.1680   -0.5670   -1.4040 O   0  0  0  0  0  0  0  0  0  0  0  0
    2.5620    0.5070    0.6410 N   0  0  0  0  0  0  0  0  0  0  0  0
    3.9320    0.1030    0.4600 C   0  0  0  0  0  0  0  0  0  0  0  0
    4.3300   -1.2700    0.6330 C   0  0  0  0  0  0  0  0  0  0  0  0
    3.4980   -2.2570    0.9470 C   0  0  0  0  0  0  0  0  0  0  0  0
    2.1620   -2.0600    1.1410 F   0  0  0  0  0  0  0  0  0  0  0  0
    3.9200   -3.5490    1.1220 F   0  0  0  0  0  0  0  0  0  0  0  0
    4.8760    0.9900    0.1640 C   0  0  0  0  0  0  0  0  0  0  0  0
    4.5110    2.4400    0.0160 C   0  0  2  0  0  0  0  0  0  0  0  0
    3.3000    2.6590    0.5820 F   0  0  0  0  0  0  0  0  0  0  0  0
    4.5180    2.8230   -1.3170 F   0  0  0  0  0  0  0  0  0  0  0  0
    5.5220    3.1790    0.6570 F   0  0  0  0  0  0  0  0  0  0  0  0
  1  2  2  0
  2  3  1  0
  2 13  1  0
  3  4  1  0
  4  5  1  0
  5  6  2  0
  5 11  1  0
  6  7  1  0
  7  8  1  0
  7  9  2  0
  9 10  1  0
 10 11  2  0
 11 12  1  0
 13 14  2  0
 13 15  1  0
 15 16  1  0
 16 17  1  0
 16 21  2  3
 17 18  2  3
 18 19  1  0
 18 20  1  0
 21 22  1  0
 22 23  1  1
 22 24  1  0
 22 25  1  0
M  END
