
     RDKit          3D

 23 25  0  0  0  0  0  0  0  0999 V2000
    2.6980   -4.0300    0.1770 C   0  0  0  0  0  0  0  0  0  0  0  0
    2.2660   -2.5930    0.1400 C   0  0  0  0  0  0  0  0  0  0  0  0
    3.1820   -1.6210    0.0030 N   0  0  0  0  0  0  0  0  0  0  0  0
    2.7870   -0.3180   -0.0300 C   0  0  0  0  0  0  0  0  0  0  0  0
    3.7630    0.7530   -0.1780 C   0  0  0  0  0  0  0  0  0  0  0  0
    5.1050    0.4690   -0.2880 C   0  0  0  0  0  0  0  0  0  0  0  0
    6.0390    1.4920   -0.4290 C   0  0  0  0  0  0  0  0  0  0  0  0
    5.6060    2.7930   -0.4580 C   0  0  0  0  0  0  0  0  0  0  0  0
    4.2550    3.0520   -0.3460 C   0  0  0  0  0  0  0  0  0  0  0  0
    3.3810    2.0250   -0.2100 N   0  0  0  0  0  0  0  0  0  0  0  0
    1.4900   -0.0640    0.0770 N   0  0  0  0  0  0  0  0  0  0  0  0
    0.5180   -0.9950    0.2170 C   0  0  0  0  0  0  0  0  0  0  0  0
   -0.8240   -0.5880    0.3210 N   0  0  0  0  0  0  0  0  0  0  0  0
   -1.1460    0.8480    0.2680 C   0  0  0  0  0  0  0  0  0  0  0  0
   -2.1300    1.0000   -0.8700 C   0  0  0  0  0  0  0  0  0  0  0  0
   -3.3620    0.3590   -0.4560 N   0  0  0  0  0  0  0  0  0  0  0  0
   -4.2540    1.4170   -0.0200 C   0  0  0  0  0  0  0  0  0  0  0  0
   -5.5760    0.7920    0.4300 C   0  0  0  0  0  0  0  0  0  0  0  0
   -6.4650    1.7750    0.8560 O   0  0  0  0  0  0  0  0  0  0  0  0
   -3.2020   -0.5690    0.6170 C   0  0  0  0  0  0  0  0  0  0  0  0
   -1.9570   -1.4470    0.4790 C   0  0  0  0  0  0  0  0  0  0  0  0
    0.9250   -2.2900    0.2490 C   0  0  0  0  0  0  0  0  0  0  0  0
   -0.2210   -3.5670    0.4230 Cl  0  0  0  0  0  0  0  0  0  0  0  0
  1  2  1  0
  2  3  2  0
  2 22  1  0
  3  4  1  0
  4  5  1  0
  4 11  2  0
  5  6  2  0
  5 10  1  0
  6  7  1  0
  7  8  2  0
  8  9  1  0
  9 10  2  0
 11 12  1  0
 12 13  1  0
 12 22  2  0
 13 14  1  0
 13 21  1  0
 14 15  1  0
 15 16  1  0
 16 17  1  0
 16 20  1  0
 17 18  1  0
 18 19  1  0
 20 21  1  0
 22 23  1  0
M  END
