
     RDKit          3D

 18 19  0  0  0  0  0  0  0  0999 V2000
    4.3890    0.1540   -1.7010 O   0  0  0  0  0  0  0  0  0  0  0  0
    4.8000    0.5310   -0.5730 C   0  0  0  0  0  0  0  0  0  0  0  0
    6.1510    0.7370   -0.3280 O   0  0  0  0  0  0  0  0  0  0  0  0
    3.8610    0.7510    0.4730 N   0  0  0  0  0  0  0  0  0  0  0  0
    2.4880    0.5360    0.2010 C   0  0  0  0  0  0  0  0  0  0  0  0
    2.1340    0.1630   -0.9330 O   0  0  0  0  0  0  0  0  0  0  0  0
    1.4920    0.7510    1.2460 C   0  0  1  0  0  0  0  0  0  0  0  0
    0.0680    0.4620    0.7440 C   0  0  0  0  0  0  0  0  0  0  0  0
   -0.0850   -0.9520    0.4690 C   0  0  0  0  0  0  0  0  0  0  0  0
   -0.9370   -1.5410   -0.6290 C   0  0  0  0  0  0  0  0  0  0  0  0
   -2.6570   -1.3060   -0.5750 S   0  0  0  0  0  0  0  0  0  0  0  0
   -3.4020    0.2270   -0.9240 C   0  0  2  0  0  0  0  0  0  0  0  0
   -3.2730    1.3890    0.0010 C   0  0  0  0  0  0  0  0  0  0  0  0
   -4.1160    0.6670    0.8910 O   0  0  0  0  0  0  0  0  0  0  0  0
   -4.8250    0.3200   -0.2900 C   0  0  0  0  0  0  0  0  0  0  0  0
    0.6280   -1.7720    1.2390 C   0  0  0  0  0  0  0  0  0  0  0  0
    0.6970   -3.1400    1.2320 O   0  0  0  0  0  0  0  0  0  0  0  0
    1.5550   -0.7380    2.3620 S   0  0  0  0  0  0  0  0  0  0  0  0
  1  2  2  0
  2  3  1  0
  2  4  1  0
  4  5  1  0
  5  6  2  0
  7  5  1  6
  7  8  1  0
  7 18  1  0
  8  9  1  0
  9 10  1  0
  9 16  2  0
 10 11  1  0
 12 11  1  1
 12 13  1  0
 12 15  1  0
 13 14  1  0
 14 15  1  0
 16 17  1  0
 16 18  1  0
M  END
