
     RDKit          3D

 29 31  0  0  0  0  0  0  0  0999 V2000
    7.3520    3.1850    0.2030 C   0  0  0  0  0  0  0  0  0  0  0  0
    6.5960    1.5920   -0.2240 S   0  0  0  0  0  0  0  0  0  0  0  0
    4.8870    1.7850   -0.6890 C   0  0  0  0  0  0  0  0  0  0  0  0
    3.9980    0.9560   -0.1770 C   0  0  0  0  0  0  0  0  0  0  0  0
    2.5460    0.9240   -0.4140 C   0  0  0  0  0  0  0  0  0  0  0  0
    1.9970    1.4580   -1.4130 O   0  0  0  0  0  0  0  0  0  0  0  0
    1.9380    0.2110    0.6560 N   0  0  0  0  0  0  0  0  0  0  0  0
    0.5350   -0.0700    0.8450 C   0  0  0  0  0  0  0  0  0  0  0  0
    0.1490   -1.3690    0.2020 C   0  0  0  0  0  0  0  0  0  0  0  0
    1.0560   -2.0070   -0.3860 O   0  0  0  0  0  0  0  0  0  0  0  0
   -1.1500   -1.8800    0.2360 N   0  0  0  0  0  0  0  0  0  0  0  0
   -1.4410   -3.1430   -0.4090 C   0  0  0  0  0  0  0  0  0  0  0  0
   -2.8500   -3.5390   -0.0290 C   0  0  0  0  0  0  0  0  0  0  0  0
   -2.9420   -3.3920    1.3600 O   0  0  0  0  0  0  0  0  0  0  0  0
   -3.1510   -2.0470    1.6500 C   0  0  0  0  0  0  0  0  0  0  0  0
   -2.2080   -1.1470    0.9150 C   0  0  2  0  0  0  0  0  0  0  0  0
   -2.9380   -0.2670   -0.0360 C   0  0  0  0  0  0  0  0  0  0  0  0
   -2.6130   -0.2250   -1.2600 O   0  0  0  0  0  0  0  0  0  0  0  0
   -4.0130    0.5540    0.3670 N   0  0  0  0  0  0  0  0  0  0  0  0
   -4.6890    1.3980   -0.6220 C   0  0  0  0  0  0  0  0  0  0  0  0
   -5.7100    2.2290   -0.4330 C   0  0  0  0  0  0  0  0  0  0  0  0
   -6.2170    2.9350   -1.4520 C   0  0  0  0  0  0  0  0  0  0  0  0
   -5.6130    2.7440   -2.7060 C   0  0  0  0  0  0  0  0  0  0  0  0
   -5.9420    3.4390   -4.2690 Cl  0  0  0  0  0  0  0  0  0  0  0  0
   -4.3240    1.5220   -2.2890 S   0  0  0  0  0  0  0  0  0  0  0  0
    2.9690   -0.1960    1.5410 C   0  0  0  0  0  0  0  0  0  0  0  0
    2.8840   -0.5330    2.7530 O   0  0  0  0  0  0  0  0  0  0  0  0
    4.2400   -0.1610    0.7720 C   0  0  1  0  0  0  0  0  0  0  0  0
    4.3670   -1.4690    0.0310 C   0  0  0  0  0  0  0  0  0  0  0  0
  1  2  1  0
  2  3  1  0
  3  4  2  3
  4  5  1  0
  4 28  1  0
  5  6  2  0
  5  7  1  0
  7  8  1  0
  7 26  1  0
  8  9  1  0
  9 10  2  0
  9 11  1  0
 11 12  1  0
 11 16  1  0
 12 13  1  0
 13 14  1  0
 14 15  1  0
 15 16  1  0
 16 17  1  6
 17 18  2  0
 17 19  1  0
 19 20  1  0
 20 21  2  0
 20 25  1  0
 21 22  1  0
 22 23  2  0
 23 24  1  0
 23 25  1  0
 26 27  2  0
 26 28  1  0
 28 29  1  6
M  END
