
     RDKit          3D

 29 31  0  0  0  0  0  0  0  0999 V2000
   -5.3700   -0.1170    1.6380 C   0  0  0  0  0  0  0  0  0  0  0  0
   -4.8710   -0.4370    0.2580 C   0  0  0  0  0  0  0  0  0  0  0  0
   -3.6990   -1.1950    0.1580 N   0  0  0  0  0  0  0  0  0  0  0  0
   -3.9260   -2.6960    0.0930 C   0  0  0  0  0  0  0  0  0  0  0  0
   -4.0560   -3.0730   -1.3620 C   0  0  0  0  0  0  0  0  0  0  0  0
   -4.3210   -4.8030   -1.4940 Cl  0  0  0  0  0  0  0  0  0  0  0  0
   -2.3550   -0.8460    0.1160 C   0  0  0  0  0  0  0  0  0  0  0  0
   -1.5570   -1.8540   -0.0630 O   0  0  0  0  0  0  0  0  0  0  0  0
   -1.6300    0.4140    0.2290 C   0  0  0  0  0  0  0  0  0  0  0  0
   -2.2790    1.5370    0.4820 C   0  0  0  0  0  0  0  0  0  0  0  0
   -1.7850    2.9040    0.6060 C   0  0  0  0  0  0  0  0  0  0  0  0
   -2.5750    3.9490    0.9670 C   0  0  0  0  0  0  0  0  0  0  0  0
   -1.8220    5.1980    1.0150 C   0  0  0  0  0  0  0  0  0  0  0  0
   -0.6180    4.9240    0.3870 O   0  0  0  0  0  0  0  0  0  0  0  0
   -0.5330    3.5220    0.2280 C   0  0  0  0  0  0  0  0  0  0  0  0
    0.5430    3.0300   -0.1980 O   0  0  0  0  0  0  0  0  0  0  0  0
   -0.1880    0.3620    0.3770 C   0  0  0  0  0  0  0  0  0  0  0  0
    0.8170   -0.3810    0.1860 C   0  0  0  0  0  0  0  0  0  0  0  0
    2.5030    0.2400    0.6560 S   0  0  0  0  0  0  0  0  0  0  0  0
    3.5000   -0.7940   -0.3770 C   0  0  0  0  0  0  0  0  0  0  0  0
    4.8980   -0.5070   -0.5950 N   0  0  0  0  0  0  0  0  0  0  0  0
    5.6260   -0.5970   -1.8270 C   0  0  0  0  0  0  0  0  0  0  0  0
    6.9200   -1.2680   -1.3430 C   0  0  0  0  0  0  0  0  0  0  0  0
    7.2140   -0.3750   -0.1310 C   0  0  0  0  0  0  0  0  0  0  0  0
    5.8150   -0.0730    0.4180 C   0  0  0  0  0  0  0  0  0  0  0  0
    2.8930   -1.7650   -0.8840 N   0  0  0  0  0  0  0  0  0  0  0  0
    1.2190   -1.9020   -0.4780 S   0  0  2  0  0  0  0  0  0  0  0  0
    0.5730   -2.1850   -1.8360 O   0  0  0  0  0  0  0  0  0  0  0  0
    1.0540   -3.0720    0.4610 O   0  0  0  0  0  0  0  0  0  0  0  0
  1  2  1  0
  2  3  1  0
  3  4  1  0
  3  7  1  0
  4  5  1  0
  5  6  1  0
  7  8  2  0
  7  9  1  0
  9 10  2  3
  9 17  1  0
 10 11  1  0
 11 12  2  0
 11 15  1  0
 12 13  1  0
 13 14  1  0
 14 15  1  0
 15 16  2  0
 17 18  2  3
 18 19  1  0
 18 27  1  0
 19 20  1  0
 20 21  1  0
 20 26  2  0
 21 22  1  0
 21 25  1  0
 22 23  1  0
 23 24  1  0
 24 25  1  0
 27 26  1  6
 27 28  2  0
 27 29  2  0
M  END
