
     RDKit          3D

 31 34  0  0  0  0  0  0  0  0999 V2000
    7.5070   -3.0580   -0.1380 C   0  0  0  0  0  0  0  0  0  0  0  0
    6.8540   -2.7180    0.9600 C   0  0  0  0  0  0  0  0  0  0  0  0
    6.2960   -1.3150    1.1200 C   0  0  0  0  0  0  0  0  0  0  0  0
    4.8650   -1.3940    1.2640 N   0  0  0  0  0  0  0  0  0  0  0  0
    4.2000   -2.0000    2.3420 C   0  0  0  0  0  0  0  0  0  0  0  0
    4.8920   -2.4430    3.4430 C   0  0  0  0  0  0  0  0  0  0  0  0
    4.2000   -3.0530    4.4730 C   0  0  0  0  0  0  0  0  0  0  0  0
    2.8330   -3.2430    4.4550 C   0  0  0  0  0  0  0  0  0  0  0  0
    2.1640   -2.7860    3.3400 C   0  0  0  0  0  0  0  0  0  0  0  0
    2.8120   -2.1780    2.3030 C   0  0  0  0  0  0  0  0  0  0  0  0
    2.1240   -1.7390    1.2150 O   0  0  0  0  0  0  0  0  0  0  0  0
    0.9170   -1.1080    1.2230 C   0  0  0  0  0  0  0  0  0  0  0  0
    0.3760   -0.9290    2.3640 O   0  0  0  0  0  0  0  0  0  0  0  0
    0.2800   -0.6640    0.0020 C   0  0  0  0  0  0  0  0  0  0  0  0
    0.8780   -0.7390   -1.2420 C   0  0  0  0  0  0  0  0  0  0  0  0
    0.2640   -0.3120   -2.3840 C   0  0  0  0  0  0  0  0  0  0  0  0
   -1.0120    0.2250   -2.3270 C   0  0  0  0  0  0  0  0  0  0  0  0
   -1.6450    0.3190   -1.1110 C   0  0  0  0  0  0  0  0  0  0  0  0
   -3.0010    0.8870   -0.9870 C   0  0  1  0  0  0  0  0  0  0  0  0
   -3.1070    1.6580    0.2420 N   0  0  0  0  0  0  0  0  0  0  0  0
   -4.2640    2.4840    0.4220 C   0  0  0  0  0  0  0  0  0  0  0  0
   -4.6690    2.8580    1.5350 O   0  0  0  0  0  0  0  0  0  0  0  0
   -5.0150    2.9120   -0.7730 C   0  0  0  0  0  0  0  0  0  0  0  0
   -6.1270    3.7070   -0.6630 C   0  0  0  0  0  0  0  0  0  0  0  0
   -6.8240    4.1090   -1.7870 C   0  0  0  0  0  0  0  0  0  0  0  0
   -6.3670    3.6870   -2.9970 C   0  0  0  0  0  0  0  0  0  0  0  0
   -5.2540    2.8870   -3.1660 C   0  0  0  0  0  0  0  0  0  0  0  0
   -4.7880    2.4540   -4.4720 C   0  0  0  0  0  0  0  0  0  0  0  0
   -4.5960    2.5160   -1.9970 C   0  0  0  0  0  0  0  0  0  0  0  0
   -3.4230    1.6780   -2.1080 N   0  0  0  0  0  0  0  0  0  0  0  0
   -0.9860   -0.1290    0.0400 C   0  0  0  0  0  0  0  0  0  0  0  0
  1  2  2  0
  2  3  1  0
  3  4  1  0
  4  5  1  0
  5  6  2  0
  5 10  1  0
  6  7  1  0
  7  8  2  0
  8  9  1  0
  9 10  2  0
 10 11  1  0
 11 12  1  0
 12 13  2  0
 12 14  1  0
 14 15  2  0
 14 31  1  0
 15 16  1  0
 16 17  2  0
 17 18  1  0
 19 18  1  6
 18 31  2  0
 19 20  1  0
 19 30  1  0
 20 21  1  0
 21 22  2  0
 21 23  1  0
 23 24  2  0
 23 29  1  0
 24 25  1  0
 25 26  2  0
 26 27  1  0
 27 28  1  0
 27 29  2  0
 29 30  1  0
M  END
