
     RDKit          3D

 31 34  0  0  0  0  0  0  0  0999 V2000
   -4.6520    3.6340    0.3090 C   0  0  0  0  0  0  0  0  0  0  0  0
   -4.5170    2.2600    0.5290 O   0  0  0  0  0  0  0  0  0  0  0  0
   -5.5430    1.5090    1.0420 C   0  0  0  0  0  0  0  0  0  0  0  0
   -6.7200    2.2170    1.3250 C   0  0  0  0  0  0  0  0  0  0  0  0
   -7.7750    1.5140    1.8390 C   0  0  0  0  0  0  0  0  0  0  0  0
   -7.7120    0.1640    2.0790 C   0  0  0  0  0  0  0  0  0  0  0  0
   -6.5380   -0.4780    1.7850 C   0  0  0  0  0  0  0  0  0  0  0  0
   -5.4130    0.1740    1.2560 C   0  0  0  0  0  0  0  0  0  0  0  0
   -4.2060   -0.5840    0.9760 C   0  0  0  0  0  0  0  0  0  0  0  0
   -4.2540   -1.8520    1.2360 O   0  0  0  0  0  0  0  0  0  0  0  0
   -2.9950   -0.1380    0.4630 N   0  0  0  0  0  0  0  0  0  0  0  0
   -1.8110   -0.8770    0.1770 C   0  0  0  0  0  0  0  0  0  0  0  0
   -1.8630   -2.2300    0.0140 C   0  0  0  0  0  0  0  0  0  0  0  0
   -0.7110   -2.9580   -0.2420 C   0  0  0  0  0  0  0  0  0  0  0  0
    0.4810   -2.2720   -0.3280 C   0  0  0  0  0  0  0  0  0  0  0  0
    0.5670   -0.9110   -0.1700 C   0  0  0  0  0  0  0  0  0  0  0  0
   -0.5900   -0.2240    0.0830 C   0  0  0  0  0  0  0  0  0  0  0  0
    1.9860   -0.5040   -0.3230 C   0  0  0  0  0  0  0  0  0  0  0  0
    2.4030    0.7180   -0.2300 C   0  0  0  0  0  0  0  0  0  0  0  0
    3.7160    1.3200   -0.3430 C   0  0  0  0  0  0  0  0  0  0  0  0
    4.8790    0.4940   -0.6150 C   0  0  0  0  0  0  0  0  0  0  0  0
    5.5900   -0.0280    0.4530 C   0  0  0  0  0  0  0  0  0  0  0  0
    6.7120   -0.7890    0.2090 C   0  0  0  0  0  0  0  0  0  0  0  0
    7.1310   -1.0360   -1.0790 C   0  0  0  0  0  0  0  0  0  0  0  0
    6.4450   -0.5300   -2.1810 C   0  0  0  0  0  0  0  0  0  0  0  0
    6.9250   -0.8160   -3.5170 C   0  0  0  0  0  0  0  0  0  0  0  0
    6.3590   -0.3970   -4.5800 N   0  0  0  0  0  0  0  0  0  0  0  0
    5.3330    0.2240   -1.9130 C   0  0  0  0  0  0  0  0  0  0  0  0
    2.7400   -1.6650   -0.5760 N   0  0  0  0  0  0  0  0  0  0  0  0
    1.8200   -2.7740   -0.5830 C   0  0  0  0  0  0  0  0  0  0  0  0
    2.1700   -3.9620   -0.7820 O   0  0  0  0  0  0  0  0  0  0  0  0
  1  2  1  0
  2  3  1  0
  3  4  2  0
  3  8  1  0
  4  5  1  0
  5  6  2  0
  6  7  1  0
  7  8  2  0
  8  9  1  0
  9 10  2  0
  9 11  1  0
 11 12  1  0
 12 13  2  0
 12 17  1  0
 13 14  1  0
 14 15  2  0
 15 16  1  0
 15 30  1  0
 16 17  2  0
 16 18  1  0
 18 19  2  3
 18 29  1  0
 19 20  1  0
 20 21  1  0
 21 22  2  0
 21 28  1  0
 22 23  1  0
 23 24  2  0
 24 25  1  0
 25 26  1  0
 25 28  2  0
 26 27  2  0
 29 30  1  0
 30 31  2  0
M  END
