
     RDKit          3D

 29 31  0  0  0  0  0  0  0  0999 V2000
    7.5530    0.0010    0.9280 C   0  0  0  0  0  0  0  0  0  0  0  0
    6.4730   -0.1920    0.1910 C   0  0  0  0  0  0  0  0  0  0  0  0
    6.3810   -1.2570   -0.7890 C   0  0  0  0  0  0  0  0  0  0  0  0
    5.3320   -1.4720   -1.5300 C   0  0  0  0  0  0  0  0  0  0  0  0
    4.1500   -0.6230   -1.4090 C   0  0  0  0  0  0  0  0  0  0  0  0
    4.1490    0.3670   -0.5410 C   0  0  0  0  0  0  0  0  0  0  0  0
    3.0320    1.1860   -0.4110 O   0  0  0  0  0  0  0  0  0  0  0  0
    1.8970    0.8940    0.3490 C   0  0  0  0  0  0  0  0  0  0  0  0
    1.1540   -0.3260   -0.1190 C   0  0  2  0  0  0  0  0  0  0  0  0
    0.6330   -0.2240   -1.5100 C   0  0  0  0  0  0  0  0  0  0  0  0
   -0.7560    0.2950   -1.6450 C   0  0  0  0  0  0  0  0  0  0  0  0
   -1.4470    0.5600   -0.3260 C   0  0  0  0  0  0  0  0  0  0  0  0
   -1.1950   -0.3910    0.6800 N   0  0  0  0  0  0  0  0  0  0  0  0
   -2.4180   -1.4790    1.0830 S   0  0  1  0  0  0  0  0  0  0  0  0
   -2.7310   -2.4250   -0.0410 O   0  0  0  0  0  0  0  0  0  0  0  0
   -1.8840   -2.3580    2.2100 O   0  0  0  0  0  0  0  0  0  0  0  0
   -3.8430   -0.7300    1.6970 N   0  0  0  0  0  0  0  0  0  0  0  0
   -4.7620   -0.4750    0.6420 C   0  0  2  0  0  0  0  0  0  0  0  0
   -5.2470    0.9330    0.6780 C   0  0  0  0  0  0  0  0  0  0  0  0
   -6.2180    1.1000   -0.4730 C   0  0  0  0  0  0  0  0  0  0  0  0
   -7.0640   -0.4880   -0.4290 S   0  0  2  0  0  0  0  0  0  0  0  0
   -6.9260   -1.2110   -1.7300 O   0  0  0  0  0  0  0  0  0  0  0  0
   -8.4720   -0.3480    0.0160 O   0  0  0  0  0  0  0  0  0  0  0  0
   -6.0600   -1.2990    0.8240 C   0  0  0  0  0  0  0  0  0  0  0  0
    0.1370   -0.7830    0.8820 C   0  0  0  0  0  0  0  0  0  0  0  0
    5.2880    0.6870    0.3350 C   0  0  0  0  0  0  0  0  0  0  0  0
    5.3670    1.6150    1.1670 N   0  0  0  0  0  0  0  0  0  0  0  0
    4.5220    2.6420    1.6090 C   0  0  0  0  0  0  0  0  0  0  0  0
    3.9180    2.2600    3.2390 Cl  0  0  0  0  0  0  0  0  0  0  0  0
  1  2  2  0
  2  3  1  0
  2 26  1  0
  3  4  2  0
  4  5  1  0
  5  6  2  0
  6  7  1  0
  6 26  1  0
  7  8  1  0
  9  8  1  1
  9 10  1  0
  9 25  1  0
 10 11  1  0
 11 12  1  0
 12 13  1  0
 13 14  1  0
 13 25  1  0
 14 15  2  0
 14 16  2  0
 14 17  1  1
 18 17  1  1
 18 19  1  0
 18 24  1  0
 19 20  1  0
 21 20  1  6
 21 22  2  0
 21 23  2  0
 21 24  1  0
 26 27  2  3
 27 28  1  0
 28 29  1  0
M  END
