
     RDKit          3D

 30 32  0  0  0  0  0  0  0  0999 V2000
    5.8620    1.0700   -0.7200 C   0  0  0  0  0  0  0  0  0  0  0  0
    5.3570    1.2200    0.5490 O   0  0  0  0  0  0  0  0  0  0  0  0
    4.2920    0.4330    0.8480 C   0  0  0  0  0  0  0  0  0  0  0  0
    4.6210   -1.0260    0.7990 C   0  0  0  0  0  0  0  0  0  0  0  0
    3.4390   -1.7850    1.1410 N   0  0  0  0  0  0  0  0  0  0  0  0
    2.3490   -1.8280    0.2430 C   0  0  0  0  0  0  0  0  0  0  0  0
    1.2550   -1.1720    0.4620 C   0  0  0  0  0  0  0  0  0  0  0  0
    1.1700   -0.3590    1.6970 C   0  0  0  0  0  0  0  0  0  0  0  0
    1.8210   -0.7410    2.6610 O   0  0  0  0  0  0  0  0  0  0  0  0
    0.3900    0.8370    1.8550 N   0  0  0  0  0  0  0  0  0  0  0  0
    0.9230    1.8460    2.7370 C   0  0  0  0  0  0  0  0  0  0  0  0
   -0.8720    1.1210    1.2180 C   0  0  0  0  0  0  0  0  0  0  0  0
   -1.4510    2.2560    1.7500 C   0  0  0  0  0  0  0  0  0  0  0  0
   -2.6710    2.6970    1.2890 C   0  0  0  0  0  0  0  0  0  0  0  0
   -3.3390    2.0270    0.2990 C   0  0  0  0  0  0  0  0  0  0  0  0
   -4.6400    2.5180   -0.1680 C   0  0  2  0  0  0  0  0  0  0  0  0
   -4.4980    3.8010   -0.6950 F   0  0  0  0  0  0  0  0  0  0  0  0
   -5.4910    2.5870    0.9350 F   0  0  0  0  0  0  0  0  0  0  0  0
   -5.1860    1.7080   -1.1320 F   0  0  0  0  0  0  0  0  0  0  0  0
   -2.7830    0.9050   -0.2390 C   0  0  0  0  0  0  0  0  0  0  0  0
   -1.5580    0.4400    0.2040 C   0  0  0  0  0  0  0  0  0  0  0  0
   -1.1170   -0.7440   -0.4770 N   0  0  0  0  0  0  0  0  0  0  0  0
   -2.1420   -1.4230   -1.1640 C   0  0  0  0  0  0  0  0  0  0  0  0
   -2.2500   -1.3220   -2.5170 C   0  0  0  0  0  0  0  0  0  0  0  0
   -3.2400   -2.0250   -3.1660 C   0  0  0  0  0  0  0  0  0  0  0  0
   -4.1300   -2.8370   -2.4580 C   0  0  0  0  0  0  0  0  0  0  0  0
   -4.0070   -2.9270   -1.0940 C   0  0  0  0  0  0  0  0  0  0  0  0
   -3.0120   -2.2170   -0.4620 C   0  0  0  0  0  0  0  0  0  0  0  0
    0.2060   -1.3130   -0.5280 C   0  0  0  0  0  0  0  0  0  0  0  0
    0.4090   -1.9820   -1.5500 O   0  0  0  0  0  0  0  0  0  0  0  0
  1  2  1  0
  2  3  1  0
  3  4  1  0
  4  5  1  0
  5  6  1  0
  6  7  2  3
  7  8  1  0
  7 29  1  0
  8  9  2  0
  8 10  1  0
 10 11  1  0
 10 12  1  0
 12 13  2  0
 12 21  1  0
 13 14  1  0
 14 15  2  0
 15 16  1  0
 15 20  1  0
 16 17  1  6
 16 18  1  0
 16 19  1  0
 20 21  2  0
 21 22  1  0
 22 23  1  0
 22 29  1  0
 23 24  2  0
 23 28  1  0
 24 25  1  0
 25 26  2  0
 26 27  1  0
 27 28  2  0
 29 30  2  0
M  END
