
     RDKit          3D

 29 31  0  0  0  0  0  0  0  0999 V2000
    4.1430   -0.6770   -0.6950 O   0  0  0  0  0  0  0  0  0  0  0  0
    4.1460    0.2570   -1.4980 C   0  0  0  0  0  0  0  0  0  0  0  0
    5.4510    0.8220   -1.9370 C   0  0  0  0  0  0  0  0  0  0  0  0
    6.5120    0.1460   -1.3170 O   0  0  0  0  0  0  0  0  0  0  0  0
    6.6770    0.0970    0.0570 C   0  0  0  0  0  0  0  0  0  0  0  0
    5.7430    0.7360    0.8630 O   0  0  0  0  0  0  0  0  0  0  0  0
    7.7080   -0.5480    0.5740 C   0  0  0  0  0  0  0  0  0  0  0  0
    7.8930   -0.5940    2.3210 Cl  0  0  0  0  0  0  0  0  0  0  0  0
    2.9690    0.8160   -2.0220 N   0  0  0  0  0  0  0  0  0  0  0  0
    1.6700    0.3260   -1.6430 C   0  0  0  0  0  0  0  0  0  0  0  0
    1.4550    0.4950   -0.1680 C   0  0  0  0  0  0  0  0  0  0  0  0
    0.1190    0.0030    0.3040 C   0  0  1  0  0  0  0  0  0  0  0  0
   -1.0470    0.6790   -0.3380 C   0  0  0  0  0  0  0  0  0  0  0  0
   -2.2990    0.0280    0.1170 C   0  0  0  0  0  0  0  0  0  0  0  0
   -3.4900    0.8080    0.1110 N   0  0  0  0  0  0  0  0  0  0  0  0
   -3.8830    1.3760    1.3840 C   0  0  0  0  0  0  0  0  0  0  0  0
   -5.0240    2.3690    1.2510 C   0  0  0  0  0  0  0  0  0  0  0  0
   -4.4870    3.5470   -0.0520 S   0  0  0  0  0  0  0  0  0  0  0  0
   -4.1850    2.4950   -1.5280 C   0  0  0  0  0  0  0  0  0  0  0  0
   -4.2810    1.0420   -1.0750 C   0  0  0  0  0  0  0  0  0  0  0  0
   -2.3440   -1.2570    0.5250 C   0  0  0  0  0  0  0  0  0  0  0  0
   -3.6260   -1.8250    0.9600 C   0  0  0  0  0  0  0  0  0  0  0  0
   -4.6850   -1.4150    0.4590 O   0  0  0  0  0  0  0  0  0  0  0  0
   -3.6270   -3.1010    2.2110 S   0  0  0  0  0  0  0  0  0  0  0  0
   -1.8960   -3.7100    2.2950 C   0  0  0  0  0  0  0  0  0  0  0  0
   -1.2020   -3.4590    0.9730 C   0  0  0  0  0  0  0  0  0  0  0  0
   -1.1950   -2.0880    0.5610 N   0  0  0  0  0  0  0  0  0  0  0  0
    0.0440   -1.4650    0.1310 C   0  0  0  0  0  0  0  0  0  0  0  0
    0.9410   -2.1760   -0.3410 O   0  0  0  0  0  0  0  0  0  0  0  0
  1  2  2  0
  2  3  1  0
  2  9  1  0
  3  4  1  0
  4  5  1  0
  5  6  1  0
  5  7  2  3
  7  8  1  0
  9 10  1  0
 10 11  1  0
 12 11  1  6
 12 13  1  0
 12 28  1  0
 13 14  1  0
 14 15  1  0
 14 21  2  0
 15 16  1  0
 15 20  1  0
 16 17  1  0
 17 18  1  0
 18 19  1  0
 19 20  1  0
 21 22  1  0
 21 27  1  0
 22 23  2  0
 22 24  1  0
 24 25  1  0
 25 26  1  0
 26 27  1  0
 27 28  1  0
 28 29  2  0
M  END
