
     RDKit          3D

  8  7  0  0  0  0  0  0  0  0999 V2000
    2.2430    0.6490    1.2480 C   0  0  0  0  0  0  0  0  0  0  0  0
    0.9390    0.2120    1.0340 O   0  0  0  0  0  0  0  0  0  0  0  0
    0.9810   -0.7800    0.0710 C   0  0  0  0  0  0  0  0  0  0  0  0
   -0.3380   -1.3730   -0.2900 C   0  0  0  0  0  0  0  0  0  0  0  0
   -1.2700   -0.5260   -0.7930 O   0  0  0  0  0  0  0  0  0  0  0  0
   -1.7140    0.5070   -0.0370 C   0  0  1  0  0  0  0  0  0  0  0  0
   -1.4170    1.7060   -0.7300 O   0  0  0  0  0  0  0  0  0  0  0  0
   -3.1160    0.4210    0.0200 O   0  0  0  0  0  0  0  0  0  0  0  0
  1  2  1  0
  2  3  1  0
  3  4  1  0
  4  5  1  0
  5  6  1  0
  6  7  1  6
  6  8  1  0
M  END
