
     RDKit          3D

  8  7  0  0  0  0  0  0  0  0999 V2000
   -2.3750   -0.4000   -0.0670 C   0  0  0  0  0  0  0  0  0  0  0  0
   -1.1820    0.5520   -0.0840 C   0  0  2  0  0  0  0  0  0  0  0  0
   -0.9650    0.9720   -1.3930 O   0  0  0  0  0  0  0  0  0  0  0  0
    0.0080   -0.2460    0.4140 C   0  0  2  0  0  0  0  0  0  0  0  0
   -0.1950   -0.6750    1.7290 O   0  0  0  0  0  0  0  0  0  0  0  0
    1.1710    0.5130    0.4070 O   0  0  0  0  0  0  0  0  0  0  0  0
    2.1160   -0.1140   -0.3630 C   0  0  0  0  0  0  0  0  0  0  0  0
    3.3110    0.5710   -0.4280 O   0  0  0  0  0  0  0  0  0  0  0  0
  2  1  1  6
  2  3  1  0
  2  4  1  0
  4  5  1  1
  4  6  1  0
  6  7  1  0
  7  8  1  0
M  END
