
     RDKit          3D

  8  7  0  0  0  0  0  0  0  0999 V2000
   -2.4910    0.4920    0.1830 O   0  0  0  0  0  0  0  0  0  0  0  0
   -1.8060   -0.5120   -0.4960 C   0  0  0  0  0  0  0  0  0  0  0  0
   -0.4110   -0.0990   -0.8810 C   0  0  0  0  0  0  0  0  0  0  0  0
    0.4470    0.2590    0.2990 C   0  0  2  0  0  0  0  0  0  0  0  0
    0.5620   -0.8340    1.1580 O   0  0  0  0  0  0  0  0  0  0  0  0
    0.0040    1.3730    0.9860 O   0  0  0  0  0  0  0  0  0  0  0  0
    1.8380    0.5610   -0.2290 C   0  0  0  0  0  0  0  0  0  0  0  0
    2.3830   -0.5130   -0.9210 O   0  0  0  0  0  0  0  0  0  0  0  0
  1  2  1  0
  2  3  1  0
  3  4  1  0
  4  5  1  1
  4  6  1  0
  4  7  1  0
  7  8  1  0
M  END
