
     RDKit          3D

  8  7  0  0  0  0  0  0  0  0999 V2000
   -1.0350    1.7260    0.3590 C   0  0  0  0  0  0  0  0  0  0  0  0
   -0.2180    1.2350   -0.6120 O   0  0  0  0  0  0  0  0  0  0  0  0
    0.2060   -0.0460   -0.5220 C   0  0  1  0  0  0  0  0  0  0  0  0
    1.0310   -0.2780   -1.6530 O   0  0  0  0  0  0  0  0  0  0  0  0
    1.0900   -0.3230    0.6750 C   0  0  0  0  0  0  0  0  0  0  0  0
    2.2210    0.4550    0.6400 O   0  0  0  0  0  0  0  0  0  0  0  0
   -0.8340   -1.1210   -0.5680 C   0  0  0  0  0  0  0  0  0  0  0  0
   -1.7740   -1.0760    0.4280 O   0  0  0  0  0  0  0  0  0  0  0  0
  1  2  1  0
  2  3  1  0
  3  4  1  6
  3  5  1  0
  3  7  1  0
  5  6  1  0
  7  8  1  0
M  END
