
     RDKit          3D

  9  8  0  0  0  0  0  0  0  0999 V2000
    2.9060   -1.3110    0.4880 O   0  0  0  0  0  0  0  0  0  0  0  0
    1.8070   -1.0830   -0.3060 C   0  0  0  0  0  0  0  0  0  0  0  0
    0.8560   -0.3570    0.4080 O   0  0  0  0  0  0  0  0  0  0  0  0
   -0.2790   -0.0960   -0.3420 C   0  0  2  0  0  0  0  0  0  0  0  0
   -0.4390    1.4290   -0.3640 C   0  0  0  0  0  0  0  0  0  0  0  0
    0.6600    2.0300   -0.9320 O   0  0  0  0  0  0  0  0  0  0  0  0
   -1.4520   -0.7210    0.3900 C   0  0  2  0  0  0  0  0  0  0  0  0
   -2.6430   -0.5070   -0.2980 O   0  0  0  0  0  0  0  0  0  0  0  0
   -1.6070   -0.1630    1.6530 O   0  0  0  0  0  0  0  0  0  0  0  0
  1  2  1  0
  2  3  1  0
  3  4  1  0
  4  5  1  1
  4  7  1  0
  5  6  1  0
  7  8  1  6
  7  9  1  0
M  END
