
     RDKit          3D

  8  7  0  0  0  0  0  0  0  0999 V2000
    1.7830    0.7220    1.0070 C   0  0  0  0  0  0  0  0  0  0  0  0
    1.0000    1.0990   -0.1010 O   0  0  0  0  0  0  0  0  0  0  0  0
    0.6880   -0.0010   -0.8760 C   0  0  2  0  0  0  0  0  0  0  0  0
    1.2490    0.1670   -2.1630 O   0  0  0  0  0  0  0  0  0  0  0  0
   -0.7900   -0.1680   -1.0320 C   0  0  0  0  0  0  0  0  0  0  0  0
   -1.4710   -0.3540    0.3100 C   0  0  1  0  0  0  0  0  0  0  0  0
   -0.9760   -1.4800    0.9500 O   0  0  0  0  0  0  0  0  0  0  0  0
   -1.3180    0.7280    1.1480 O   0  0  0  0  0  0  0  0  0  0  0  0
  1  2  1  0
  2  3  1  0
  3  4  1  6
  3  5  1  0
  5  6  1  0
  6  7  1  1
  6  8  1  0
M  END
