
     RDKit          3D

  8  7  0  0  0  0  0  0  0  0999 V2000
   -2.8270    0.6890   -0.2460 C   0  0  0  0  0  0  0  0  0  0  0  0
   -1.9200   -0.3170   -0.5020 O   0  0  0  0  0  0  0  0  0  0  0  0
   -0.6160    0.2100   -0.5310 C   0  0  0  0  0  0  0  0  0  0  0  0
    0.3650   -0.9210   -0.8160 C   0  0  2  0  0  0  0  0  0  0  0  0
    0.2380   -1.8610    0.2040 O   0  0  0  0  0  0  0  0  0  0  0  0
    1.7600   -0.3290   -0.7590 C   0  0  0  0  0  0  0  0  0  0  0  0
    1.8790    0.2690    0.5130 O   0  0  0  0  0  0  0  0  0  0  0  0
    3.0570    0.8170    0.6700 O   0  0  0  0  0  0  0  0  0  0  0  0
  1  2  1  0
  2  3  1  0
  3  4  1  0
  4  5  1  1
  4  6  1  0
  6  7  1  0
  7  8  1  0
M  END
