
     RDKit          3D

  8  7  0  0  0  0  0  0  0  0999 V2000
   -1.3390    0.8060   -0.9000 C   0  0  0  0  0  0  0  0  0  0  0  0
   -1.3980   -0.2760    0.1460 C   0  0  2  0  0  0  0  0  0  0  0  0
   -1.9460    0.2200    1.3210 O   0  0  0  0  0  0  0  0  0  0  0  0
   -0.0030   -0.8120    0.4060 C   0  0  2  0  0  0  0  0  0  0  0  0
   -0.1270   -1.8360    1.3550 O   0  0  0  0  0  0  0  0  0  0  0  0
    0.8200    0.1870    0.8970 O   0  0  0  0  0  0  0  0  0  0  0  0
    1.9680    0.3280    0.1480 C   0  0  0  0  0  0  0  0  0  0  0  0
    1.7390    0.6520   -1.1820 O   0  0  0  0  0  0  0  0  0  0  0  0
  2  1  1  6
  2  3  1  0
  2  4  1  0
  4  5  1  1
  4  6  1  0
  6  7  1  0
  7  8  1  0
M  END
