
     RDKit          3D

  7  7  0  0  0  0  0  0  0  0999 V2000
    2.5810   -0.0270    0.1190 C   0  0  0  0  0  0  0  0  0  0  0  0
    1.5350    0.1210   -0.8160 O   0  0  0  0  0  0  0  0  0  0  0  0
    0.1910    0.0660   -0.4450 C   0  0  0  0  0  0  0  0  0  0  0  0
   -0.4070   -0.9480    0.1420 C   0  0  0  0  0  0  0  0  0  0  0  0
   -1.8250   -0.5980    0.3590 C   0  0  0  0  0  0  0  0  0  0  0  0
   -1.9600    0.7690   -0.1890 C   0  0  0  0  0  0  0  0  0  0  0  0
   -0.7870    1.1430   -0.6520 C   0  0  0  0  0  0  0  0  0  0  0  0
  1  2  1  0
  2  3  1  0
  3  4  2  0
  3  7  1  0
  4  5  1  0
  5  6  1  0
  6  7  2  0
M  END
