
     RDKit          3D

  8  7  0  0  0  0  0  0  0  0999 V2000
    2.7500   -0.5510    0.3450 C   0  0  0  0  0  0  0  0  0  0  0  0
    2.2600    0.6980    0.6320 O   0  0  0  0  0  0  0  0  0  0  0  0
    1.1490    1.0580   -0.0830 C   0  0  0  0  0  0  0  0  0  0  0  0
    0.0300    0.0880    0.1880 C   0  0  0  0  0  0  0  0  0  0  0  0
   -1.1220    0.4500   -0.5450 O   0  0  0  0  0  0  0  0  0  0  0  0
   -2.0950   -0.4950   -0.2340 C   0  0  2  0  0  0  0  0  0  0  0  0
   -2.5270   -1.1490   -1.4080 O   0  0  0  0  0  0  0  0  0  0  0  0
   -3.1460    0.1720    0.3910 O   0  0  0  0  0  0  0  0  0  0  0  0
  1  2  1  0
  2  3  1  0
  3  4  1  0
  4  5  1  0
  5  6  1  0
  6  7  1  6
  6  8  1  0
M  END
