
     RDKit          3D

  8  7  0  0  0  0  0  0  0  0999 V2000
   -2.7100    1.0970   -1.0800 O   0  0  0  0  0  0  0  0  0  0  0  0
   -2.6510   -0.1150   -0.3790 C   0  0  0  0  0  0  0  0  0  0  0  0
   -1.5580   -0.1730    0.4360 O   0  0  0  0  0  0  0  0  0  0  0  0
   -0.3500   -0.0680   -0.1800 C   0  0  0  0  0  0  0  0  0  0  0  0
    0.7420   -0.1500    0.8490 C   0  0  0  0  0  0  0  0  0  0  0  0
    2.1120   -0.0410    0.2380 C   0  0  1  0  0  0  0  0  0  0  0  0
    2.3470   -1.0550   -0.6800 O   0  0  0  0  0  0  0  0  0  0  0  0
    2.3530    1.2190   -0.2840 O   0  0  0  0  0  0  0  0  0  0  0  0
  1  2  1  0
  2  3  1  0
  3  4  1  0
  4  5  1  0
  5  6  1  0
  6  7  1  6
  6  8  1  0
M  END
