
     RDKit          3D

  8  7  0  0  0  0  0  0  0  0999 V2000
    3.1510   -0.0710    0.2090 O   0  0  0  0  0  0  0  0  0  0  0  0
    1.8840    0.0170    0.7870 C   0  0  0  0  0  0  0  0  0  0  0  0
    0.8730   -0.2550   -0.3110 C   0  0  0  0  0  0  0  0  0  0  0  0
   -0.5110   -0.1660    0.2840 C   0  0  1  0  0  0  0  0  0  0  0  0
   -0.7600    1.0800    0.8200 O   0  0  0  0  0  0  0  0  0  0  0  0
   -1.5290   -0.4520   -0.8080 C   0  0  2  0  0  0  0  0  0  0  0  0
   -1.3820    0.5400   -1.7720 O   0  0  0  0  0  0  0  0  0  0  0  0
   -2.8080   -0.5060   -0.2840 O   0  0  0  0  0  0  0  0  0  0  0  0
  1  2  1  0
  2  3  1  0
  3  4  1  0
  4  5  1  6
  4  6  1  0
  6  7  1  6
  6  8  1  0
M  END
