
     RDKit          3D

  8  7  0  0  0  0  0  0  0  0999 V2000
    2.1260   -0.0280    0.7950 O   0  0  0  0  0  0  0  0  0  0  0  0
    1.5300    0.8300   -0.1480 C   0  0  0  0  0  0  0  0  0  0  0  0
    0.6050    0.0430   -1.0560 C   0  0  0  0  0  0  0  0  0  0  0  0
   -0.4560   -0.5950   -0.1940 C   0  0  1  0  0  0  0  0  0  0  0  0
   -1.2870   -1.3140   -1.0860 O   0  0  0  0  0  0  0  0  0  0  0  0
    0.0840   -1.4380    0.7700 O   0  0  0  0  0  0  0  0  0  0  0  0
   -1.3610    0.4180    0.4690 C   0  0  0  0  0  0  0  0  0  0  0  0
   -2.3620   -0.3380    1.1240 O   0  0  0  0  0  0  0  0  0  0  0  0
  1  2  1  0
  2  3  1  0
  3  4  1  0
  4  5  1  6
  4  6  1  0
  4  7  1  0
  7  8  1  0
M  END
