
     RDKit          3D

  8  7  0  0  0  0  0  0  0  0999 V2000
   -2.0250    0.2620   -0.9930 C   0  0  0  0  0  0  0  0  0  0  0  0
   -1.2740    0.8890   -0.0280 O   0  0  0  0  0  0  0  0  0  0  0  0
   -0.6380    0.0160    0.8200 C   0  0  2  0  0  0  0  0  0  0  0  0
   -1.1340    0.1500    2.1170 O   0  0  0  0  0  0  0  0  0  0  0  0
    0.8440    0.2430    0.7570 C   0  0  0  0  0  0  0  0  0  0  0  0
    1.3060    0.0060   -0.6650 C   0  0  1  0  0  0  0  0  0  0  0  0
    2.6800    0.2120   -0.7510 O   0  0  0  0  0  0  0  0  0  0  0  0
    1.0900   -1.3380   -0.9600 O   0  0  0  0  0  0  0  0  0  0  0  0
  1  2  1  0
  2  3  1  0
  3  4  1  1
  3  5  1  0
  5  6  1  0
  6  7  1  1
  6  8  1  0
M  END
