
     RDKit          3D

 16 16  0  0  0  0  0  0  0  0999 V2000
    0.6290    1.3910   -1.9890 C   0  0  0  0  0  0  0  0  0  0  0  0
    1.1930    0.3870   -1.2560 O   0  0  0  0  0  0  0  0  0  0  0  0
    0.7280    0.1900    0.0080 C   0  0  2  0  0  0  0  0  0  0  0  0
   -0.7040   -0.1960    0.1080 C   0  0  0  0  0  0  0  0  0  0  0  0
   -1.3650   -0.3520   -0.9430 O   0  0  0  0  0  0  0  0  0  0  0  0
   -1.3510   -0.3930    1.3000 O   0  0  0  0  0  0  0  0  0  0  0  0
   -2.7040   -0.7550    1.3360 C   0  0  0  0  0  0  0  0  0  0  0  0
   -3.6340    0.2440    0.7040 C   0  0  0  0  0  0  0  0  0  0  0  0
   -4.9330   -0.3000    0.8430 O   0  0  0  0  0  0  0  0  0  0  0  0
    1.1140    1.2820    0.9810 C   0  0  0  0  0  0  0  0  0  0  0  0
    2.4810    1.0430    1.1060 O   0  0  0  0  0  0  0  0  0  0  0  0
    2.7160   -0.2800    0.7600 C   0  0  2  0  0  0  0  0  0  0  0  0
    3.3510   -0.4050   -0.4650 O   0  0  0  0  0  0  0  0  0  0  0  0
    4.4520   -1.0990   -0.3080 O   0  0  0  0  0  0  0  0  0  0  0  0
    4.3660   -2.3020   -0.8270 O   0  0  0  0  0  0  0  0  0  0  0  0
    1.4530   -0.8880    0.6040 O   0  0  0  0  0  0  0  0  0  0  0  0
  1  2  1  0
  3  2  1  6
  3  4  1  0
  3 10  1  0
  3 16  1  0
  4  5  2  0
  4  6  1  0
  6  7  1  0
  7  8  1  0
  8  9  1  0
 10 11  1  0
 11 12  1  0
 12 13  1  6
 12 16  1  0
 13 14  1  0
 14 15  1  0
M  END
