
     RDKit          3D

 16 16  0  0  0  0  0  0  0  0999 V2000
    2.2010   -1.9800    0.7860 C   0  0  0  0  0  0  0  0  0  0  0  0
    1.6410   -0.9520   -0.1950 C   0  0  2  0  0  0  0  0  0  0  0  0
    2.6260    0.0150   -0.3520 O   0  0  0  0  0  0  0  0  0  0  0  0
    3.0380    0.1060   -1.5980 O   0  0  0  0  0  0  0  0  0  0  0  0
    4.2690    0.5700   -1.6330 O   0  0  0  0  0  0  0  0  0  0  0  0
    4.2520    1.7680   -1.0810 O   0  0  0  0  0  0  0  0  0  0  0  0
    0.4430   -0.2710    0.3820 C   0  0  0  0  0  0  0  0  0  0  0  0
    0.5110    0.9630    0.6120 O   0  0  0  0  0  0  0  0  0  0  0  0
   -0.7220   -0.8930    0.6760 O   0  0  0  0  0  0  0  0  0  0  0  0
   -1.8840   -0.3800    1.1990 C   0  0  0  0  0  0  0  0  0  0  0  0
   -2.6420    0.6330    0.4580 C   0  0  2  0  0  0  0  0  0  0  0  0
   -3.0970    0.1640   -0.9200 C   0  0  0  0  0  0  0  0  0  0  0  0
   -2.1840    0.7890   -1.7580 O   0  0  0  0  0  0  0  0  0  0  0  0
   -1.7690    1.9190   -1.2100 O   0  0  0  0  0  0  0  0  0  0  0  0
   -2.0470    1.9100    0.1400 C   0  0  0  0  0  0  0  0  0  0  0  0
   -1.8110    2.8640    0.9210 O   0  0  0  0  0  0  0  0  0  0  0  0
  2  1  1  1
  2  3  1  0
  2  7  1  0
  3  4  1  0
  4  5  1  0
  5  6  1  0
  7  8  2  0
  7  9  1  0
  9 10  1  0
 11 10  1  6
 11 12  1  0
 11 15  1  0
 12 13  1  0
 13 14  1  0
 14 15  1  0
 15 16  2  0
M  END
