
     RDKit          3D

 16 16  0  0  0  0  0  0  0  0999 V2000
    3.1540   -1.3300    1.0940 O   0  0  0  0  0  0  0  0  0  0  0  0
    3.6590   -0.9450    0.0220 C   0  0  0  0  0  0  0  0  0  0  0  0
    5.0590   -0.9010   -0.0840 O   0  0  0  0  0  0  0  0  0  0  0  0
    2.8200   -0.5810   -1.0050 O   0  0  0  0  0  0  0  0  0  0  0  0
    1.4570   -0.6490   -0.8320 O   0  0  0  0  0  0  0  0  0  0  0  0
    0.7500    0.3480   -0.1950 C   0  0  0  0  0  0  0  0  0  0  0  0
    1.3880    1.3400    0.2340 O   0  0  0  0  0  0  0  0  0  0  0  0
   -0.7080    0.2380   -0.0300 C   0  0  2  0  0  0  0  0  0  0  0  0
   -1.2080    1.3770    0.6460 O   0  0  0  0  0  0  0  0  0  0  0  0
   -1.0500    2.6410    0.1180 C   0  0  0  0  0  0  0  0  0  0  0  0
   -0.4600    2.7740   -0.9700 O   0  0  0  0  0  0  0  0  0  0  0  0
   -1.5470    3.7460    0.7980 O   0  0  0  0  0  0  0  0  0  0  0  0
   -1.1010   -0.9700    0.8010 C   0  0  0  0  0  0  0  0  0  0  0  0
   -2.3090   -1.4610    0.0270 C   0  0  0  0  0  0  0  0  0  0  0  0
   -1.8470   -1.1260   -1.3980 C   0  0  0  0  0  0  0  0  0  0  0  0
   -1.3750    0.1500   -1.2340 O   0  0  0  0  0  0  0  0  0  0  0  0
  1  2  2  0
  2  3  1  0
  2  4  1  0
  4  5  1  0
  5  6  1  0
  6  7  2  0
  6  8  1  0
  8  9  1  1
  8 13  1  0
  8 16  1  0
  9 10  1  0
 10 11  2  0
 10 12  1  0
 13 14  1  0
 14 15  1  0
 15 16  1  0
M  END
