
     RDKit          3D

 16 16  0  0  0  0  0  0  0  0999 V2000
    3.1840    1.7560    1.5370 O   0  0  0  0  0  0  0  0  0  0  0  0
    3.3460    1.7110    0.2770 C   0  0  0  0  0  0  0  0  0  0  0  0
    4.1190    2.7180   -0.2590 O   0  0  0  0  0  0  0  0  0  0  0  0
    2.7330    0.6630   -0.4860 O   0  0  0  0  0  0  0  0  0  0  0  0
    1.9110   -0.1530    0.2410 C   0  0  0  0  0  0  0  0  0  0  0  0
    1.1510   -1.2900   -0.1770 C   0  0  0  0  0  0  0  0  0  0  0  0
   -0.2680   -1.2040   -0.0830 C   0  0  0  0  0  0  0  0  0  0  0  0
   -0.9820    0.1260    0.1820 C   0  0  0  0  0  0  0  0  0  0  0  0
   -2.2050   -0.0190    0.5850 O   0  0  0  0  0  0  0  0  0  0  0  0
   -3.3300   -0.3140   -0.0520 C   0  0  0  0  0  0  0  0  0  0  0  0
   -3.9290    0.5840   -0.9110 O   0  0  0  0  0  0  0  0  0  0  0  0
   -4.4040    1.5650   -0.0450 O   0  0  0  0  0  0  0  0  0  0  0  0
   -0.7420   -2.3980   -0.2860 O   0  0  0  0  0  0  0  0  0  0  0  0
    0.2590   -3.2130   -0.5110 O   0  0  0  0  0  0  0  0  0  0  0  0
    1.3970   -2.5970   -0.4610 C   0  0  0  0  0  0  0  0  0  0  0  0
    2.5530   -3.1140   -0.7010 O   0  0  0  0  0  0  0  0  0  0  0  0
  1  2  2  0
  2  3  1  0
  2  4  1  0
  4  5  1  0
  5  6  1  0
  6  7  2  0
  6 15  1  0
  7  8  1  0
  7 13  1  0
  8  9  1  0
  9 10  1  0
 10 11  1  0
 11 12  1  0
 13 14  1  0
 14 15  1  0
 15 16  2  0
M  END
