
     RDKit          3D

 16 16  0  0  0  0  0  0  0  0999 V2000
   -3.8190    3.0270   -0.2920 O   0  0  0  0  0  0  0  0  0  0  0  0
   -3.1960    1.8890   -0.1600 C   0  0  0  0  0  0  0  0  0  0  0  0
   -3.8100    0.6910    0.4270 C   0  0  0  0  0  0  0  0  0  0  0  0
   -2.6880    0.2130    1.0860 O   0  0  0  0  0  0  0  0  0  0  0  0
   -1.7400    0.2050    0.0560 C   0  0  1  0  0  0  0  0  0  0  0  0
   -0.3560    0.1450    0.5760 C   0  0  0  0  0  0  0  0  0  0  0  0
    0.4690   -0.5230   -0.3740 O   0  0  0  0  0  0  0  0  0  0  0  0
    1.7320   -0.3790   -0.0440 C   0  0  0  0  0  0  0  0  0  0  0  0
    2.9060   -1.1230   -0.5230 C   0  0  0  0  0  0  0  0  0  0  0  0
    4.0320   -0.4450    0.2100 O   0  0  0  0  0  0  0  0  0  0  0  0
    4.7640    0.0710   -0.8590 O   0  0  0  0  0  0  0  0  0  0  0  0
    5.6620    0.8340   -0.1810 O   0  0  0  0  0  0  0  0  0  0  0  0
   -1.9980   -0.7240   -1.0230 C   0  0  0  0  0  0  0  0  0  0  0  0
   -1.3110   -0.7140   -2.1100 O   0  0  0  0  0  0  0  0  0  0  0  0
   -3.0230   -1.7240   -1.0300 O   0  0  0  0  0  0  0  0  0  0  0  0
   -1.9040    1.5750   -0.5080 O   0  0  0  0  0  0  0  0  0  0  0  0
  1  2  2  0
  2  3  1  0
  2 16  1  0
  3  4  1  0
  4  5  1  0
  5  6  1  1
  5 13  1  0
  5 16  1  0
  6  7  1  0
  7  8  1  0
  8  9  1  0
  9 10  1  0
 10 11  1  0
 11 12  1  0
 13 14  2  0
 13 15  1  0
M  END
