
     RDKit          3D

 16 16  0  0  0  0  0  0  0  0999 V2000
   -4.2460   -1.2210    0.4660 C   0  0  0  0  0  0  0  0  0  0  0  0
   -2.9470   -0.9590   -0.0130 O   0  0  0  0  0  0  0  0  0  0  0  0
   -2.5080    0.2650   -0.4630 C   0  0  0  0  0  0  0  0  0  0  0  0
   -3.3170    1.2330   -0.4500 O   0  0  0  0  0  0  0  0  0  0  0  0
   -1.1240    0.4570   -0.9520 C   0  0  2  0  0  0  0  0  0  0  0  0
   -0.1270    0.0790    0.1450 C   0  0  0  0  0  0  0  0  0  0  0  0
    1.2550    0.5840   -0.2070 C   0  0  1  0  0  0  0  0  0  0  0  0
    2.2360   -0.4320   -0.0210 O   0  0  0  0  0  0  0  0  0  0  0  0
    3.2460   -0.1950    0.9070 C   0  0  0  0  0  0  0  0  0  0  0  0
    3.2930    0.8790    1.5610 O   0  0  0  0  0  0  0  0  0  0  0  0
    4.2470   -1.1280    1.1570 O   0  0  0  0  0  0  0  0  0  0  0  0
    5.2300   -0.9340    2.0390 O   0  0  0  0  0  0  0  0  0  0  0  0
    1.2230    0.9790   -1.6410 C   0  0  0  0  0  0  0  0  0  0  0  0
    2.0890    0.5270   -2.4320 O   0  0  0  0  0  0  0  0  0  0  0  0
    0.2080    1.8480   -2.0180 O   0  0  0  0  0  0  0  0  0  0  0  0
   -0.9460    1.7840   -1.3440 O   0  0  0  0  0  0  0  0  0  0  0  0
  1  2  1  0
  2  3  1  0
  3  4  2  0
  5  3  1  1
  5  6  1  0
  5 16  1  0
  6  7  1  0
  7  8  1  6
  7 13  1  0
  8  9  1  0
  9 10  2  0
  9 11  1  0
 11 12  1  0
 13 14  2  0
 13 15  1  0
 15 16  1  0
M  END
