
     RDKit          3D

 16 16  0  0  0  0  0  0  0  0999 V2000
    7.3030    0.0140   -1.3650 O   0  0  0  0  0  0  0  0  0  0  0  0
    6.1720   -0.6180   -1.0410 O   0  0  0  0  0  0  0  0  0  0  0  0
    5.5580    0.1650   -0.1760 O   0  0  0  0  0  0  0  0  0  0  0  0
    4.2950   -0.1690   -0.1730 O   0  0  0  0  0  0  0  0  0  0  0  0
    3.5350    0.6360   -1.0220 C   0  0  0  0  0  0  0  0  0  0  0  0
    2.1090    0.1530   -0.9300 C   0  0  0  0  0  0  0  0  0  0  0  0
    1.6030    0.2420    0.3670 O   0  0  0  0  0  0  0  0  0  0  0  0
    0.2960   -0.2350    0.2830 C   0  0  0  0  0  0  0  0  0  0  0  0
   -0.4100   -0.2100    1.6110 C   0  0  0  0  0  0  0  0  0  0  0  0
   -1.7000   -0.6720    1.5770 O   0  0  0  0  0  0  0  0  0  0  0  0
   -2.5710    0.0090    0.7670 C   0  0  2  0  0  0  0  0  0  0  0  0
   -3.6150    0.6080    1.4640 O   0  0  0  0  0  0  0  0  0  0  0  0
   -4.7970   -0.0610    1.1700 C   0  0  0  0  0  0  0  0  0  0  0  0
   -5.0870    0.1140   -0.3270 C   0  0  0  0  0  0  0  0  0  0  0  0
   -3.8680    0.0270   -1.0070 O   0  0  0  0  0  0  0  0  0  0  0  0
   -3.1170   -0.7670   -0.2410 O   0  0  0  0  0  0  0  0  0  0  0  0
  1  2  1  0
  2  3  1  0
  3  4  1  0
  4  5  1  0
  5  6  1  0
  6  7  1  0
  7  8  1  0
  8  9  1  0
  9 10  1  0
 11 10  1  1
 11 12  1  0
 11 16  1  0
 12 13  1  0
 13 14  1  0
 14 15  1  0
 15 16  1  0
M  END
