
     RDKit          3D

 16 16  0  0  0  0  0  0  0  0999 V2000
    1.7000    0.0330    1.0510 O   0  0  0  0  0  0  0  0  0  0  0  0
    2.1300   -0.6020    0.0540 C   0  0  0  0  0  0  0  0  0  0  0  0
    1.6280   -0.4260   -1.2200 O   0  0  0  0  0  0  0  0  0  0  0  0
    0.5880    0.4770   -1.5050 C   0  0  0  0  0  0  0  0  0  0  0  0
   -0.6330    0.0730   -0.7930 C   0  0  0  0  0  0  0  0  0  0  0  0
   -1.7470    0.8140   -0.9390 O   0  0  0  0  0  0  0  0  0  0  0  0
   -2.8850    0.5050   -0.3250 C   0  0  1  0  0  0  0  0  0  0  0  0
   -3.3980    1.5200    0.6750 C   0  0  0  0  0  0  0  0  0  0  0  0
   -4.5840    2.0150    0.0910 O   0  0  0  0  0  0  0  0  0  0  0  0
   -5.0880    1.0370   -0.6550 O   0  0  0  0  0  0  0  0  0  0  0  0
   -4.0640    0.2420   -1.1380 C   0  0  0  0  0  0  0  0  0  0  0  0
   -4.1570   -0.5490   -2.0990 O   0  0  0  0  0  0  0  0  0  0  0  0
    3.1570   -1.5030    0.3320 O   0  0  0  0  0  0  0  0  0  0  0  0
    3.6660   -1.6780    1.6410 C   0  0  0  0  0  0  0  0  0  0  0  0
    4.1930   -0.5290    2.1760 O   0  0  0  0  0  0  0  0  0  0  0  0
    5.1790   -0.0570    1.4720 O   0  0  0  0  0  0  0  0  0  0  0  0
  1  2  2  0
  2  3  1  0
  2 13  1  0
  3  4  1  0
  4  5  1  0
  5  6  1  0
  7  6  1  6
  7  8  1  0
  7 11  1  0
  8  9  1  0
  9 10  1  0
 10 11  1  0
 11 12  2  0
 13 14  1  0
 14 15  1  0
 15 16  1  0
M  END
