
     RDKit          3D

 32 35  0  0  0  0  0  0  0  0999 V2000
    3.3510    3.8420   -1.9760 C   0  0  0  0  0  0  0  0  0  0  0  0
    3.8240    2.4500   -2.2270 C   0  0  0  0  0  0  0  0  0  0  0  0
    3.3880    1.5090   -1.1440 C   0  0  0  0  0  0  0  0  0  0  0  0
    2.7140    1.9930   -0.2300 O   0  0  0  0  0  0  0  0  0  0  0  0
    3.7220    0.1440   -1.1570 N   0  0  0  0  0  0  0  0  0  0  0  0
    3.3660   -0.8340   -0.2030 C   0  0  0  0  0  0  0  0  0  0  0  0
    2.4510   -0.5710    0.7910 C   0  0  0  0  0  0  0  0  0  0  0  0
    2.0310   -1.5160    1.7400 C   0  0  0  0  0  0  0  0  0  0  0  0
    1.0570   -1.1450    2.7540 C   0  0  0  0  0  0  0  0  0  0  0  0
    1.4280   -0.6820    3.8540 O   0  0  0  0  0  0  0  0  0  0  0  0
   -0.3190   -1.3050    2.4970 N   0  0  0  0  0  0  0  0  0  0  0  0
   -1.3810   -0.9670    3.4270 C   0  0  0  0  0  0  0  0  0  0  0  0
   -2.6450   -0.9470    2.6340 C   0  0  0  0  0  0  0  0  0  0  0  0
   -2.3390   -1.4350    1.2500 C   0  0  1  0  0  0  0  0  0  0  0  0
   -2.6240   -0.3530    0.2730 C   0  0  0  0  0  0  0  0  0  0  0  0
   -2.0120    0.8890    0.3470 C   0  0  0  0  0  0  0  0  0  0  0  0
   -2.2870    1.8800   -0.5680 C   0  0  0  0  0  0  0  0  0  0  0  0
   -1.6210    3.2030   -0.4710 C   0  0  0  0  0  0  0  0  0  0  0  0
   -3.1890    1.6780   -1.6030 C   0  0  0  0  0  0  0  0  0  0  0  0
   -3.8170    0.4400   -1.6990 C   0  0  0  0  0  0  0  0  0  0  0  0
   -3.5160   -0.5290   -0.7640 C   0  0  0  0  0  0  0  0  0  0  0  0
   -4.6390    0.4420   -2.7480 C   0  0  0  0  0  0  0  0  0  0  0  0
   -4.5760    1.7520   -3.4130 C   0  0  0  0  0  0  0  0  0  0  0  0
   -3.5950    2.4800   -2.5780 C   0  0  0  0  0  0  0  0  0  0  0  0
   -0.8790   -1.8300    1.2740 C   0  0  2  0  0  0  0  0  0  0  0  0
   -0.7880   -3.3370    1.3210 C   0  0  0  0  0  0  0  0  0  0  0  0
    2.5670   -2.7740    1.6700 C   0  0  0  0  0  0  0  0  0  0  0  0
    2.2150   -3.6680    2.5130 O   0  0  0  0  0  0  0  0  0  0  0  0
    3.4500   -3.0400    0.7160 N   0  0  0  0  0  0  0  0  0  0  0  0
    3.8750   -2.1220   -0.2260 C   0  0  0  0  0  0  0  0  0  0  0  0
    4.8570   -2.5360   -1.1900 C   0  0  0  0  0  0  0  0  0  0  0  0
    5.3670   -1.8570   -2.0670 O   0  0  0  0  0  0  0  0  0  0  0  0
  1  2  1  0
  2  3  1  0
  3  4  2  0
  3  5  1  0
  5  6  1  0
  6  7  1  0
  6 30  2  0
  7  8  2  0
  8  9  1  0
  8 27  1  0
  9 10  2  0
  9 11  1  0
 11 12  1  0
 11 25  1  0
 12 13  1  0
 13 14  1  0
 14 15  1  6
 14 25  1  0
 15 16  1  0
 15 21  2  0
 16 17  2  0
 17 18  1  0
 17 19  1  0
 19 20  1  0
 19 24  2  0
 20 21  1  0
 20 22  2  0
 22 23  1  0
 23 24  1  0
 25 26  1  1
 27 28  2  0
 27 29  1  0
 29 30  1  0
 30 31  1  0
 31 32  2  0
M  END
