
     RDKit          3D

 38 43  0  0  0  0  0  0  0  0999 V2000
    0.4160   -2.5770    4.4350 C   0  0  0  0  0  0  0  0  0  0  0  0
    1.7370   -2.1030    4.2850 O   0  0  0  0  0  0  0  0  0  0  0  0
    2.1300   -1.5430    3.0800 C   0  0  0  0  0  0  0  0  0  0  0  0
    1.2670   -1.4320    2.0050 C   0  0  0  0  0  0  0  0  0  0  0  0
    1.7220   -0.8550    0.8060 C   0  0  0  0  0  0  0  0  0  0  0  0
    0.7140   -0.7110   -0.2780 C   0  0  2  0  0  0  0  0  0  0  0  0
    0.4510    0.7070   -0.4310 N   0  0  0  0  0  0  0  0  0  0  0  0
   -0.7950    1.2810   -0.1930 C   0  0  0  0  0  0  0  0  0  0  0  0
   -0.9230    2.6530   -0.4100 C   0  0  0  0  0  0  0  0  0  0  0  0
   -2.1210    3.2750   -0.1890 C   0  0  0  0  0  0  0  0  0  0  0  0
   -3.2110    2.5240    0.2560 C   0  0  0  0  0  0  0  0  0  0  0  0
   -4.4450    3.2330    0.4800 C   0  0  0  0  0  0  0  0  0  0  0  0
   -4.5410    4.6470    0.2730 N   0  0  0  0  0  0  0  0  0  0  0  0
   -5.5000    2.6320    0.8750 N   0  0  0  0  0  0  0  0  0  0  0  0
   -3.0400    1.1620    0.4590 C   0  0  0  0  0  0  0  0  0  0  0  0
   -1.8510    0.5140    0.2450 C   0  0  0  0  0  0  0  0  0  0  0  0
   -1.7180   -0.9170    0.4780 C   0  0  1  0  0  0  0  0  0  0  0  0
   -2.8290   -1.7460   -0.1120 C   0  0  0  0  0  0  0  0  0  0  0  0
   -4.1150   -2.0180    0.2610 C   0  0  0  0  0  0  0  0  0  0  0  0
   -4.9390   -2.8470   -0.5100 C   0  0  0  0  0  0  0  0  0  0  0  0
   -4.4470   -3.4000   -1.6620 C   0  0  0  0  0  0  0  0  0  0  0  0
   -3.1690   -3.1450   -2.0530 C   0  0  0  0  0  0  0  0  0  0  0  0
   -2.3550   -2.3160   -1.2780 C   0  0  0  0  0  0  0  0  0  0  0  0
   -0.9570   -1.9330   -1.5040 C   0  0  0  0  0  0  0  0  0  0  0  0
   -0.4770   -1.5320   -0.0690 C   0  0  1  0  0  0  0  0  0  0  0  0
    3.0180   -0.4100    0.7150 C   0  0  0  0  0  0  0  0  0  0  0  0
    3.5490    0.1180   -0.5170 C   0  0  0  0  0  0  0  0  0  0  0  0
    4.0520    1.4090   -0.5210 C   0  0  0  0  0  0  0  0  0  0  0  0
    4.6210    1.9530   -1.6250 C   0  0  0  0  0  0  0  0  0  0  0  0
    4.7300    1.2560   -2.7980 C   0  0  0  0  0  0  0  0  0  0  0  0
    5.3520    1.8780   -3.9450 C   0  0  0  0  0  0  0  0  0  0  0  0
    5.4540    1.2440   -5.0130 O   0  0  0  0  0  0  0  0  0  0  0  0
    5.8280    3.1590   -3.8620 O   0  0  0  0  0  0  0  0  0  0  0  0
    4.2360   -0.0370   -2.8230 C   0  0  0  0  0  0  0  0  0  0  0  0
    3.6530   -0.5870   -1.6810 C   0  0  0  0  0  0  0  0  0  0  0  0
    3.8850   -0.5270    1.8140 C   0  0  0  0  0  0  0  0  0  0  0  0
    3.4370   -1.0910    2.9840 C   0  0  0  0  0  0  0  0  0  0  0  0
    4.2550   -1.2240    4.0820 O   0  0  0  0  0  0  0  0  0  0  0  0
  1  2  1  0
  2  3  1  0
  3  4  2  0
  3 37  1  0
  4  5  1  0
  6  5  1  1
  5 26  2  0
  6  7  1  0
  6 25  1  0
  7  8  1  0
  8  9  2  0
  8 16  1  0
  9 10  1  0
 10 11  2  0
 11 12  1  0
 11 15  1  0
 12 13  1  0
 12 14  2  0
 15 16  2  0
 17 16  1  6
 17 18  1  0
 17 25  1  0
 18 19  2  0
 18 23  1  0
 19 20  1  0
 20 21  2  0
 21 22  1  0
 22 23  2  0
 23 24  1  0
 25 24  1  6
 26 27  1  0
 26 36  1  0
 27 28  2  0
 27 35  1  0
 28 29  1  0
 29 30  2  0
 30 31  1  0
 30 34  1  0
 31 32  2  0
 31 33  1  0
 34 35  2  0
 36 37  2  0
 37 38  1  0
M  CHG  1  14   1
M  END
