
     RDKit          3D

 32 35  0  0  0  0  0  0  0  0999 V2000
    7.8500    2.5300   -0.1830 C   0  0  0  0  0  0  0  0  0  0  0  0
    6.4360    2.3830    0.3030 C   0  0  0  0  0  0  0  0  0  0  0  0
    6.2510    1.3540    1.2250 O   0  0  0  0  0  0  0  0  0  0  0  0
    6.4990    0.0200    1.0140 C   0  0  0  0  0  0  0  0  0  0  0  0
    5.5510   -0.8650    0.6280 C   0  0  0  0  0  0  0  0  0  0  0  0
    4.1730   -0.5110    0.3930 C   0  0  0  0  0  0  0  0  0  0  0  0
    3.2270   -1.3350    0.0230 C   0  0  0  0  0  0  0  0  0  0  0  0
    3.2190   -2.7140   -0.2490 N   0  0  0  0  0  0  0  0  0  0  0  0
    1.8810   -3.1260   -0.6300 C   0  0  0  0  0  0  0  0  0  0  0  0
    1.0740   -2.0810   -0.6050 C   0  0  0  0  0  0  0  0  0  0  0  0
   -0.3390   -2.1420   -0.9340 C   0  0  0  0  0  0  0  0  0  0  0  0
   -0.8440   -3.2810   -1.2710 O   0  0  0  0  0  0  0  0  0  0  0  0
   -1.1710   -0.9990   -0.8950 N   0  0  0  0  0  0  0  0  0  0  0  0
   -2.5650   -1.1490   -1.2380 C   0  0  1  0  0  0  0  0  0  0  0  0
   -3.4730   -0.7690   -0.0850 C   0  0  0  0  0  0  0  0  0  0  0  0
   -4.7840   -0.5170   -0.8010 C   0  0  1  0  0  0  0  0  0  0  0  0
   -5.7220    0.2660    0.0370 C   0  0  0  0  0  0  0  0  0  0  0  0
   -5.5050    1.5650    0.3660 C   0  0  0  0  0  0  0  0  0  0  0  0
   -6.4310    2.2490    1.1590 C   0  0  0  0  0  0  0  0  0  0  0  0
   -7.5750    1.6120    1.6170 C   0  0  0  0  0  0  0  0  0  0  0  0
   -8.5730    2.3390    2.4680 C   0  0  0  0  0  0  0  0  0  0  0  0
   -7.7940    0.2900    1.2820 C   0  0  0  0  0  0  0  0  0  0  0  0
   -6.8630   -0.3600    0.4970 C   0  0  0  0  0  0  0  0  0  0  0  0
   -4.3490    0.1900   -1.9890 N   0  0  0  0  0  0  0  0  0  0  0  0
   -5.2110    1.0950   -2.7300 C   0  0  0  0  0  0  0  0  0  0  0  0
   -2.9980   -0.1640   -2.2610 C   0  0  0  0  0  0  0  0  0  0  0  0
   -2.3350    0.3060   -3.2160 O   0  0  0  0  0  0  0  0  0  0  0  0
    1.8130   -0.9120   -0.2110 C   0  0  0  0  0  0  0  0  0  0  0  0
    1.3820    0.2470   -0.0800 O   0  0  0  0  0  0  0  0  0  0  0  0
    6.1600   -2.1920    0.4890 C   0  0  0  0  0  0  0  0  0  0  0  0
    7.6540   -2.0530    0.7430 C   0  0  0  0  0  0  0  0  0  0  0  0
    7.7980   -0.6410    1.1700 C   0  0  0  0  0  0  0  0  0  0  0  0
  1  2  1  0
  2  3  1  0
  3  4  1  0
  4  5  2  0
  4 32  1  0
  5  6  1  0
  5 30  1  0
  6  7  2  3
  7  8  1  0
  7 28  1  0
  8  9  1  0
  9 10  2  0
 10 11  1  0
 10 28  1  0
 11 12  2  0
 11 13  1  0
 14 13  1  1
 14 15  1  0
 14 26  1  0
 15 16  1  0
 16 17  1  1
 16 24  1  0
 17 18  2  0
 17 23  1  0
 18 19  1  0
 19 20  2  0
 20 21  1  0
 20 22  1  0
 22 23  2  0
 24 25  1  0
 24 26  1  0
 26 27  2  0
 28 29  2  0
 30 31  1  0
 31 32  1  0
M  END
