
     RDKit          3D

 32 35  0  0  0  0  0  0  0  0999 V2000
   -4.5090    3.3160    1.4000 C   0  0  0  0  0  0  0  0  0  0  0  0
   -3.8130    2.0200    1.7850 C   0  0  0  0  0  0  0  0  0  0  0  0
   -3.4350    1.2130    0.5810 C   0  0  0  0  0  0  0  0  0  0  0  0
   -2.4920    1.9590   -0.3370 C   0  0  0  0  0  0  0  0  0  0  0  0
   -2.1320    1.1040   -1.5490 C   0  0  1  0  0  0  0  0  0  0  0  0
   -1.1920    1.8610   -2.4540 C   0  0  0  0  0  0  0  0  0  0  0  0
   -1.6060   -0.2070   -1.1490 C   0  0  0  0  0  0  0  0  0  0  0  0
   -2.2800   -1.3520   -1.5100 C   0  0  0  0  0  0  0  0  0  0  0  0
   -1.8400   -2.6120   -1.1670 C   0  0  0  0  0  0  0  0  0  0  0  0
   -0.6800   -2.7090   -0.4340 C   0  0  0  0  0  0  0  0  0  0  0  0
    0.0120   -1.5460   -0.0630 C   0  0  0  0  0  0  0  0  0  0  0  0
   -0.4400   -0.3090   -0.4130 C   0  0  0  0  0  0  0  0  0  0  0  0
    1.1980   -1.9270    0.7010 C   0  0  0  0  0  0  0  0  0  0  0  0
    2.0910   -1.1960    1.2230 N   0  0  0  0  0  0  0  0  0  0  0  0
    2.2490    0.1480    1.2520 N   0  0  0  0  0  0  0  0  0  0  0  0
    3.4750    0.7070    0.7680 C   0  0  0  0  0  0  0  0  0  0  0  0
    4.3510   -0.0870    0.3350 O   0  0  0  0  0  0  0  0  0  0  0  0
    3.7480    2.1470    0.7590 C   0  0  1  0  0  0  0  0  0  0  0  0
    5.0760    2.3410    0.2490 O   0  0  0  0  0  0  0  0  0  0  0  0
    5.4240    3.6150   -0.2140 C   0  0  0  0  0  0  0  0  0  0  0  0
    6.4740    3.7960   -0.9030 O   0  0  0  0  0  0  0  0  0  0  0  0
    4.5340    4.7580    0.1190 C   0  0  0  0  0  0  0  0  0  0  0  0
    3.1710    4.3320   -0.2270 N   0  0  0  0  0  0  0  0  0  0  0  0
    2.8760    2.9290   -0.1560 C   0  0  0  0  0  0  0  0  0  0  0  0
    1.9400    2.4520   -0.8370 O   0  0  0  0  0  0  0  0  0  0  0  0
    1.1630   -3.4080    0.7590 C   0  0  0  0  0  0  0  0  0  0  0  0
    2.0440   -4.2730    1.3580 C   0  0  0  0  0  0  0  0  0  0  0  0
    1.8460   -5.6450    1.3080 C   0  0  0  0  0  0  0  0  0  0  0  0
    0.7390   -6.0840    0.6380 C   0  0  0  0  0  0  0  0  0  0  0  0
   -0.1740   -5.2280    0.0190 C   0  0  0  0  0  0  0  0  0  0  0  0
   -1.3380   -5.8020   -0.6810 C   0  0  0  0  0  0  0  0  0  0  0  0
    0.0550   -3.8620    0.0890 C   0  0  0  0  0  0  0  0  0  0  0  0
  1  2  1  0
  2  3  1  0
  3  4  1  0
  4  5  1  0
  5  6  1  1
  5  7  1  0
  7  8  2  0
  7 12  1  0
  8  9  1  0
  9 10  2  0
 10 11  1  0
 10 32  1  0
 11 12  2  0
 11 13  1  0
 13 14  2  3
 13 26  1  0
 14 15  1  0
 15 16  1  0
 16 17  2  0
 18 16  1  6
 18 19  1  0
 18 24  1  0
 19 20  1  0
 20 21  2  0
 20 22  1  0
 22 23  1  0
 23 24  1  0
 24 25  2  0
 26 27  2  0
 26 32  1  0
 27 28  1  0
 28 29  2  0
 29 30  1  0
 30 31  1  0
 30 32  2  0
M  END
