
     RDKit          3D

 32 35  0  0  0  0  0  0  0  0999 V2000
   -3.4890   -2.1360   -2.9480 C   0  0  0  0  0  0  0  0  0  0  0  0
   -3.2810   -0.6520   -2.8210 C   0  0  0  0  0  0  0  0  0  0  0  0
   -2.1310   -0.3930   -2.0630 O   0  0  0  0  0  0  0  0  0  0  0  0
   -2.0340   -0.8010   -0.7380 C   0  0  0  0  0  0  0  0  0  0  0  0
   -3.0240   -1.4610   -0.0560 C   0  0  0  0  0  0  0  0  0  0  0  0
   -2.9090   -1.8610    1.2700 C   0  0  0  0  0  0  0  0  0  0  0  0
   -1.7530   -1.5920    1.9600 C   0  0  0  0  0  0  0  0  0  0  0  0
   -0.7590   -0.9320    1.2850 C   0  0  0  0  0  0  0  0  0  0  0  0
   -0.8480   -0.5280   -0.0230 C   0  0  0  0  0  0  0  0  0  0  0  0
    0.2110    0.2000   -0.7630 C   0  0  2  0  0  0  0  0  0  0  0  0
    1.4820    0.0410   -0.1030 N   0  0  0  0  0  0  0  0  0  0  0  0
    2.6220   -0.5040   -0.7430 C   0  0  0  0  0  0  0  0  0  0  0  0
    2.5050   -0.8670   -1.9550 O   0  0  0  0  0  0  0  0  0  0  0  0
    3.8950   -0.6500   -0.0560 C   0  0  2  0  0  0  0  0  0  0  0  0
    4.9480   -1.1810   -0.8950 N   0  0  0  0  0  0  0  0  0  0  0  0
    6.2230   -1.3560   -0.2990 C   0  0  0  0  0  0  0  0  0  0  0  0
    7.2580   -1.6080   -0.9540 O   0  0  0  0  0  0  0  0  0  0  0  0
    6.3210   -1.2300    1.1840 C   0  0  0  0  0  0  0  0  0  0  0  0
    5.0440   -1.7950    1.7200 C   0  0  0  0  0  0  0  0  0  0  0  0
    3.8610   -1.5350    1.1460 C   0  0  0  0  0  0  0  0  0  0  0  0
    2.6520   -2.1320    1.7280 C   0  0  0  0  0  0  0  0  0  0  0  0
   -0.0730    1.6760   -0.8100 C   0  0  0  0  0  0  0  0  0  0  0  0
   -1.2840    2.2220   -0.4750 C   0  0  0  0  0  0  0  0  0  0  0  0
   -1.5150    3.5860   -0.5300 C   0  0  0  0  0  0  0  0  0  0  0  0
   -2.8680    4.0760   -0.1450 C   0  0  0  0  0  0  0  0  0  0  0  0
   -0.5020    4.4160   -0.9310 C   0  0  0  0  0  0  0  0  0  0  0  0
   -0.7580    5.8830   -0.9870 C   0  0  0  0  0  0  0  0  0  0  0  0
    0.7120    3.8540   -1.2650 C   0  0  0  0  0  0  0  0  0  0  0  0
    0.8980    2.5210   -1.1990 N   0  0  0  0  0  0  0  0  0  0  0  0
   -1.8530   -2.0780    3.2660 O   0  0  0  0  0  0  0  0  0  0  0  0
   -2.9000   -3.0470    3.3080 C   0  0  0  0  0  0  0  0  0  0  0  0
   -3.8110   -2.5670    2.2060 C   0  0  0  0  0  0  0  0  0  0  0  0
  1  2  1  0
  2  3  1  0
  3  4  1  0
  4  5  2  0
  4  9  1  0
  5  6  1  0
  6  7  2  0
  6 32  1  0
  7  8  1  0
  7 30  1  0
  8  9  2  0
  9 10  1  0
 10 11  1  1
 10 22  1  0
 11 12  1  0
 12 13  2  0
 14 12  1  6
 14 15  1  0
 14 20  1  0
 15 16  1  0
 16 17  2  0
 16 18  1  0
 18 19  1  0
 19 20  2  0
 20 21  1  0
 22 23  2  0
 22 29  1  0
 23 24  1  0
 24 25  1  0
 24 26  2  0
 26 27  1  0
 26 28  1  0
 28 29  2  0
 30 31  1  0
 31 32  1  0
M  END
