
     RDKit          3D

 32 35  0  0  0  0  0  0  0  0999 V2000
   -5.0750    3.3770    1.3370 C   0  0  0  0  0  0  0  0  0  0  0  0
   -4.4220    2.2710    1.6250 C   0  0  0  0  0  0  0  0  0  0  0  0
   -3.4950    1.6330    0.6700 C   0  0  0  0  0  0  0  0  0  0  0  0
   -3.3830    2.2940   -0.6590 C   0  0  0  0  0  0  0  0  0  0  0  0
   -2.8810    0.5330    1.0280 C   0  0  0  0  0  0  0  0  0  0  0  0
   -1.9480   -0.1750    0.1760 C   0  0  0  0  0  0  0  0  0  0  0  0
   -2.2420   -1.4820   -0.2310 C   0  0  0  0  0  0  0  0  0  0  0  0
   -3.4930   -2.0520    0.2280 C   0  0  0  0  0  0  0  0  0  0  0  0
   -3.7900   -3.3240   -0.1620 O   0  0  0  0  0  0  0  0  0  0  0  0
   -4.9890   -3.7990    0.3100 C   0  0  0  0  0  0  0  0  0  0  0  0
   -1.3640   -2.1660   -1.0300 C   0  0  0  0  0  0  0  0  0  0  0  0
   -1.7150   -3.5410   -1.4360 C   0  0  0  0  0  0  0  0  0  0  0  0
   -0.1810   -1.5580   -1.4330 C   0  0  0  0  0  0  0  0  0  0  0  0
    0.1230   -0.2590   -1.0320 C   0  0  0  0  0  0  0  0  0  0  0  0
   -0.7510    0.4280   -0.2340 C   0  0  0  0  0  0  0  0  0  0  0  0
   -0.4420    1.7660    0.1810 N   0  0  0  0  0  0  0  0  0  0  0  0
    0.7820    2.3160   -0.2830 C   0  0  0  0  0  0  0  0  0  0  0  0
    1.4030    3.1220    0.4060 O   0  0  0  0  0  0  0  0  0  0  0  0
    1.2050    1.8210   -1.6430 C   0  0  0  0  0  0  0  0  0  0  0  0
    1.4410    0.3380   -1.4540 C   0  0  1  0  0  0  0  0  0  0  0  0
    2.4040    0.1380   -0.3110 C   0  0  0  0  0  0  0  0  0  0  0  0
    1.9390   -0.1730    0.8120 O   0  0  0  0  0  0  0  0  0  0  0  0
    3.8100    0.2820   -0.4420 N   0  0  0  0  0  0  0  0  0  0  0  0
    4.4420    0.5460   -1.5950 C   0  0  0  0  0  0  0  0  0  0  0  0
    3.9460    0.6960   -2.7590 O   0  0  0  0  0  0  0  0  0  0  0  0
    5.7500    0.6270   -1.2990 N   0  0  0  0  0  0  0  0  0  0  0  0
    5.9400    0.4180    0.0120 C   0  0  0  0  0  0  0  0  0  0  0  0
    7.0830    0.3940    0.8100 C   0  0  0  0  0  0  0  0  0  0  0  0
    6.9630    0.1490    2.1500 C   0  0  0  0  0  0  0  0  0  0  0  0
    5.7160   -0.0740    2.7020 C   0  0  0  0  0  0  0  0  0  0  0  0
    4.5730   -0.0560    1.9400 C   0  0  0  0  0  0  0  0  0  0  0  0
    4.6990    0.1910    0.5910 C   0  0  0  0  0  0  0  0  0  0  0  0
  1  2  2  0
  2  3  1  0
  3  4  1  0
  3  5  2  3
  5  6  1  0
  6  7  2  0
  6 15  1  0
  7  8  1  0
  7 11  1  0
  8  9  1  0
  9 10  1  0
 11 12  1  0
 11 13  2  0
 13 14  1  0
 14 15  2  0
 14 20  1  0
 15 16  1  0
 16 17  1  0
 17 18  2  0
 17 19  1  0
 19 20  1  0
 20 21  1  1
 21 22  2  0
 21 23  1  0
 23 24  1  0
 23 32  1  0
 24 25  2  0
 24 26  1  0
 26 27  1  0
 27 28  2  0
 27 32  1  0
 28 29  1  0
 29 30  2  0
 30 31  1  0
 31 32  2  0
M  END
