
     RDKit          3D

 32 35  0  0  0  0  0  0  0  0999 V2000
   -5.2370   -2.6220    0.0040 C   0  0  0  0  0  0  0  0  0  0  0  0
   -4.3150   -3.7550   -0.1210 C   0  0  0  0  0  0  0  0  0  0  0  0
   -3.0470   -3.6490   -0.4160 C   0  0  0  0  0  0  0  0  0  0  0  0
   -2.0930   -4.8250   -0.5450 C   0  0  0  0  0  0  0  0  0  0  0  0
   -1.1260   -4.3070   -1.4830 N   0  0  0  0  0  0  0  0  0  0  0  0
   -1.0930   -2.8990   -1.3100 C   0  0  0  0  0  0  0  0  0  0  0  0
   -2.2140   -2.4930   -0.6840 C   0  0  0  0  0  0  0  0  0  0  0  0
   -2.5290   -1.1030   -0.3210 C   0  0  0  0  0  0  0  0  0  0  0  0
   -1.4670   -0.2190   -0.7210 O   0  0  0  0  0  0  0  0  0  0  0  0
   -1.6630    1.1400   -0.4210 C   0  0  0  0  0  0  0  0  0  0  0  0
   -2.8160    1.5810    0.2150 C   0  0  0  0  0  0  0  0  0  0  0  0
   -3.0520    2.8860    0.5190 C   0  0  0  0  0  0  0  0  0  0  0  0
   -2.0920    3.8310    0.1770 C   0  0  0  0  0  0  0  0  0  0  0  0
   -2.3060    5.1710    0.4740 O   0  0  0  0  0  0  0  0  0  0  0  0
   -3.5050    5.5440    1.1220 C   0  0  0  0  0  0  0  0  0  0  0  0
   -3.5850    7.0190    1.3720 C   0  0  0  0  0  0  0  0  0  0  0  0
   -0.9440    3.4030   -0.4550 C   0  0  0  0  0  0  0  0  0  0  0  0
    0.0200    4.3370   -0.8000 O   0  0  0  0  0  0  0  0  0  0  0  0
   -0.6920    2.0700   -0.7690 C   0  0  0  0  0  0  0  0  0  0  0  0
    0.5550    1.6670   -1.3920 C   0  0  0  0  0  0  0  0  0  0  0  0
    1.4980    0.9270   -0.8900 C   0  0  0  0  0  0  0  0  0  0  0  0
    2.6830    0.6300   -1.7030 C   0  0  0  0  0  0  0  0  0  0  0  0
    3.6350   -0.0800   -1.1690 C   0  0  0  0  0  0  0  0  0  0  0  0
    3.6670   -0.6290    0.1700 C   0  0  0  0  0  0  0  0  0  0  0  0
    4.7260   -1.3910    0.6910 N   0  0  0  0  0  0  0  0  0  0  0  0
    5.8830   -0.9070    1.3820 C   0  0  0  0  0  0  0  0  0  0  0  0
    6.9780   -1.8240    0.8410 C   0  0  0  0  0  0  0  0  0  0  0  0
    6.2910   -2.9360    0.1020 C   0  0  0  0  0  0  0  0  0  0  0  0
    4.8580   -2.8180    0.6320 C   0  0  0  0  0  0  0  0  0  0  0  0
    2.6230   -0.3790    0.9160 N   0  0  0  0  0  0  0  0  0  0  0  0
    1.5100    0.3880    0.4540 C   0  0  0  0  0  0  0  0  0  0  0  0
    0.5620    0.5770    1.2430 O   0  0  0  0  0  0  0  0  0  0  0  0
  1  2  1  0
  2  3  2  3
  3  4  1  0
  3  7  1  0
  4  5  1  0
  5  6  1  0
  6  7  2  0
  7  8  1  0
  8  9  1  0
  9 10  1  0
 10 11  2  0
 10 19  1  0
 11 12  1  0
 12 13  2  0
 13 14  1  0
 13 17  1  0
 14 15  1  0
 15 16  1  0
 17 18  1  0
 17 19  2  0
 19 20  1  0
 20 21  2  3
 21 22  1  0
 21 31  1  0
 22 23  2  0
 23 24  1  0
 24 25  1  0
 24 30  2  0
 25 26  1  0
 25 29  1  0
 26 27  1  0
 27 28  1  0
 28 29  1  0
 30 31  1  0
 31 32  2  0
M  END
