
     RDKit          3D

 33 33  0  0  0  0  0  0  0  0999 V2000
    3.3500    4.7910    1.8690 C   0  0  0  0  0  0  0  0  0  0  0  0
    2.1180    4.0130    1.5580 C   0  0  0  0  0  0  0  0  0  0  0  0
    1.3990    3.6700    2.5170 O   0  0  0  0  0  0  0  0  0  0  0  0
    1.7560    3.6680    0.2700 O   0  0  0  0  0  0  0  0  0  0  0  0
    0.5650    2.9310    0.1200 C   0  0  0  0  0  0  0  0  0  0  0  0
   -0.6290    3.5810   -0.0580 C   0  0  0  0  0  0  0  0  0  0  0  0
   -1.7800    2.8900   -0.2040 C   0  0  0  0  0  0  0  0  0  0  0  0
   -1.8180    1.5100   -0.1810 C   0  0  0  0  0  0  0  0  0  0  0  0
   -3.0530    0.8690   -0.3560 N   0  0  0  0  0  0  0  0  0  0  0  0
   -3.3130   -0.5110   -0.1820 C   0  0  0  0  0  0  0  0  0  0  0  0
   -2.3990   -1.2940    0.1660 O   0  0  0  0  0  0  0  0  0  0  0  0
   -4.6040   -1.0630   -0.3930 N   0  0  0  0  0  0  0  0  0  0  0  0
   -5.7260   -0.2380   -0.8210 C   0  0  0  0  0  0  0  0  0  0  0  0
   -6.4800    0.3590    0.2830 C   0  0  0  0  0  0  0  0  0  0  0  0
   -7.5990    1.1820   -0.0680 N   0  0  0  0  0  0  0  0  0  0  0  0
   -6.2480    0.2240    1.4990 O   0  0  0  0  0  0  0  0  0  0  0  0
   -4.8020   -2.4830   -0.1760 C   0  0  1  0  0  0  0  0  0  0  0  0
   -5.8160   -2.7530    0.8940 C   0  0  0  0  0  0  0  0  0  0  0  0
   -5.1990   -3.2070   -1.4500 C   0  0  0  0  0  0  0  0  0  0  0  0
   -4.2390   -3.0850   -2.4340 O   0  0  0  0  0  0  0  0  0  0  0  0
   -0.6300    0.8630   -0.0040 C   0  0  0  0  0  0  0  0  0  0  0  0
    0.5790    1.5540    0.1500 C   0  0  0  0  0  0  0  0  0  0  0  0
    1.7760    0.9020    0.3290 O   0  0  0  0  0  0  0  0  0  0  0  0
    1.8010   -0.5100    0.3650 C   0  0  0  0  0  0  0  0  0  0  0  0
    3.1790   -1.0580    0.5630 C   0  0  0  0  0  0  0  0  0  0  0  0
    4.0560   -0.6840   -0.4510 O   0  0  0  0  0  0  0  0  0  0  0  0
    5.3190   -1.1830   -0.2830 C   0  0  2  0  0  0  0  0  0  0  0  0
    6.3490   -0.0760   -0.0640 C   0  0  0  0  0  0  0  0  0  0  0  0
    6.0910    0.7850    1.1190 C   0  0  0  0  0  0  0  0  0  0  0  0
    4.9030    1.4960    1.0870 O   0  0  0  0  0  0  0  0  0  0  0  0
    5.8040   -2.0240   -1.4570 C   0  0  0  0  0  0  0  0  0  0  0  0
    4.9660   -3.1960   -1.7770 C   0  0  0  0  0  0  0  0  0  0  0  0
    3.2080   -2.6740   -2.3260 Br  0  0  0  0  0  0  0  0  0  0  0  0
  1  2  1  0
  2  3  2  0
  2  4  1  0
  4  5  1  0
  5  6  2  0
  5 22  1  0
  6  7  1  0
  7  8  2  0
  8  9  1  0
  8 21  1  0
  9 10  1  0
 10 11  2  0
 10 12  1  0
 12 13  1  0
 12 17  1  0
 13 14  1  0
 14 15  1  0
 14 16  2  0
 17 18  1  1
 17 19  1  0
 19 20  1  0
 21 22  2  0
 22 23  1  0
 23 24  1  0
 24 25  1  0
 25 26  1  0
 26 27  1  0
 27 28  1  6
 27 31  1  0
 28 29  1  0
 29 30  1  0
 31 32  1  0
 32 33  1  0
M  END
