
     RDKit          3D

 33 36  0  0  0  0  0  0  0  0999 V2000
   -2.0730    4.9840    1.0980 C   0  0  0  0  0  0  0  0  0  0  0  0
   -2.7630    3.7090    0.6220 C   0  0  0  0  0  0  0  0  0  0  0  0
   -1.8230    2.5310    0.7760 C   0  0  2  0  0  0  0  0  0  0  0  0
   -1.3920    2.3030    2.1730 C   0  0  0  0  0  0  0  0  0  0  0  0
   -2.4510    2.0320    3.1830 C   0  0  0  0  0  0  0  0  0  0  0  0
   -0.5740    2.9300   -0.0300 C   0  0  0  0  0  0  0  0  0  0  0  0
   -0.1140    1.6290   -0.6360 C   0  0  1  0  0  0  0  0  0  0  0  0
    0.8650    1.0070    0.2840 C   0  0  0  0  0  0  0  0  0  0  0  0
    0.7200   -0.2140    0.6390 O   0  0  0  0  0  0  0  0  0  0  0  0
    1.9950    1.6750    0.8250 N   0  0  0  0  0  0  0  0  0  0  0  0
    2.9330    1.0240    1.7190 C   0  0  0  0  0  0  0  0  0  0  0  0
    3.8600    0.1270    0.9680 C   0  0  0  0  0  0  0  0  0  0  0  0
    4.7500   -0.6780    1.6370 C   0  0  0  0  0  0  0  0  0  0  0  0
    5.6350   -1.5210    0.9500 C   0  0  0  0  0  0  0  0  0  0  0  0
    5.6530   -1.5790   -0.4220 C   0  0  0  0  0  0  0  0  0  0  0  0
    6.5440   -2.4220   -1.2080 C   0  0  0  0  0  0  0  0  0  0  0  0
    6.4840   -2.4060   -2.6350 N   0  0  0  0  0  0  0  0  0  0  0  0
    7.3970   -3.1950   -0.6550 N   0  0  0  0  0  0  0  0  0  0  0  0
    4.7370   -0.7490   -1.0890 C   0  0  0  0  0  0  0  0  0  0  0  0
    3.8700    0.0760   -0.4090 C   0  0  0  0  0  0  0  0  0  0  0  0
   -1.3150    0.8200   -0.7580 N   0  0  0  0  0  0  0  0  0  0  0  0
   -2.2780    1.3410    0.0240 C   0  0  0  0  0  0  0  0  0  0  0  0
   -3.5040    0.6580   -0.0220 C   0  0  0  0  0  0  0  0  0  0  0  0
   -4.8080    1.2880    0.9540 Cl  0  0  0  0  0  0  0  0  0  0  0  0
   -3.6760   -0.4250   -0.7910 N   0  0  0  0  0  0  0  0  0  0  0  0
   -2.7060   -0.9360   -1.5660 C   0  0  0  0  0  0  0  0  0  0  0  0
   -2.9290   -2.0880   -2.3650 N   0  0  0  0  0  0  0  0  0  0  0  0
   -4.2270   -2.7230   -2.3450 C   0  0  2  0  0  0  0  0  0  0  0  0
   -4.6840   -3.2230   -0.9880 C   0  0  0  0  0  0  0  0  0  0  0  0
   -5.2100   -4.4630   -1.6870 C   0  0  0  0  0  0  0  0  0  0  0  0
   -4.2290   -4.1630   -2.8080 C   0  0  0  0  0  0  0  0  0  0  0  0
   -1.5040   -0.2700   -1.5250 C   0  0  0  0  0  0  0  0  0  0  0  0
   -0.5690   -0.7370   -2.2540 O   0  0  0  0  0  0  0  0  0  0  0  0
  1  2  1  0
  3  2  1  1
  3  4  1  0
  3  6  1  0
  3 22  1  0
  4  5  1  0
  6  7  1  0
  7  8  1  1
  7 21  1  0
  8  9  2  0
  8 10  1  0
 10 11  1  0
 11 12  1  0
 12 13  2  0
 12 20  1  0
 13 14  1  0
 14 15  2  0
 15 16  1  0
 15 19  1  0
 16 17  1  0
 16 18  2  0
 19 20  2  0
 21 22  1  0
 21 32  1  0
 22 23  2  0
 23 24  1  0
 23 25  1  0
 25 26  2  0
 26 27  1  0
 26 32  1  0
 28 27  1  1
 28 29  1  0
 28 31  1  0
 29 30  1  0
 30 31  1  0
 32 33  2  0
M  CHG  1  18   1
M  END
