
     RDKit          3D

 33 33  0  0  0  0  0  0  0  0999 V2000
    8.4370    2.4220    2.5580 C   0  0  0  0  0  0  0  0  0  0  0  0
    7.1800    1.6170    2.5830 C   0  0  0  0  0  0  0  0  0  0  0  0
    7.3340    0.2730    2.3700 O   0  0  0  0  0  0  0  0  0  0  0  0
    7.8840   -0.0850    1.1650 C   0  0  0  0  0  0  0  0  0  0  0  0
    7.0690    0.3890    0.1200 O   0  0  0  0  0  0  0  0  0  0  0  0
    5.7510   -0.0640    0.0500 C   0  0  0  0  0  0  0  0  0  0  0  0
    5.2130   -0.9560    0.9520 C   0  0  0  0  0  0  0  0  0  0  0  0
    3.8860   -1.3400    0.7890 C   0  0  0  0  0  0  0  0  0  0  0  0
    3.1060   -0.8660   -0.2270 C   0  0  0  0  0  0  0  0  0  0  0  0
    1.7260   -1.1230   -0.4010 N   0  0  0  0  0  0  0  0  0  0  0  0
    0.8950   -1.1690    0.6840 C   0  0  0  0  0  0  0  0  0  0  0  0
    1.4500   -0.9900    1.8560 O   0  0  0  0  0  0  0  0  0  0  0  0
   -0.4130   -1.3580    0.8140 N   0  0  0  0  0  0  0  0  0  0  0  0
   -1.7330   -1.5480    0.9550 C   0  0  0  0  0  0  0  0  0  0  0  0
   -2.0490   -1.4750    2.2160 O   0  0  0  0  0  0  0  0  0  0  0  0
   -2.7430   -1.7880    0.0740 N   0  0  0  0  0  0  0  0  0  0  0  0
   -4.1060   -1.9510    0.5330 C   0  0  2  0  0  0  0  0  0  0  0  0
   -4.5360   -3.3310    0.1230 C   0  0  0  0  0  0  0  0  0  0  0  0
   -5.8160   -3.6370    0.5030 O   0  0  0  0  0  0  0  0  0  0  0  0
   -4.9930   -0.8410    0.0240 C   0  0  1  0  0  0  0  0  0  0  0  0
   -6.4040   -1.1050    0.5780 C   0  0  0  0  0  0  0  0  0  0  0  0
   -4.5610    0.4540    0.6530 C   0  0  0  0  0  0  0  0  0  0  0  0
   -4.6800    0.3390    2.0720 O   0  0  0  0  0  0  0  0  0  0  0  0
   -5.0060   -0.7410   -1.4550 C   0  0  0  0  0  0  0  0  0  0  0  0
   -5.8330    0.3120   -2.0750 C   0  0  0  0  0  0  0  0  0  0  0  0
   -5.5240    1.6160   -1.8330 O   0  0  0  0  0  0  0  0  0  0  0  0
   -4.2860    2.0010   -2.3240 C   0  0  0  0  0  0  0  0  0  0  0  0
   -3.9320    3.4280   -2.0660 C   0  0  0  0  0  0  0  0  0  0  0  0
   -3.8600    3.9090   -0.2140 Br  0  0  0  0  0  0  0  0  0  0  0  0
    3.6650    0.0230   -1.1180 C   0  0  0  0  0  0  0  0  0  0  0  0
    4.9730    0.4280   -0.9900 C   0  0  0  0  0  0  0  0  0  0  0  0
    5.5130    1.3220   -1.8930 O   0  0  0  0  0  0  0  0  0  0  0  0
    4.6980    1.8040   -2.9400 C   0  0  0  0  0  0  0  0  0  0  0  0
  1  2  1  0
  2  3  1  0
  3  4  1  0
  4  5  1  0
  5  6  1  0
  6  7  2  0
  6 31  1  0
  7  8  1  0
  8  9  2  0
  9 10  1  0
  9 30  1  0
 10 11  1  0
 11 12  2  0
 11 13  1  0
 13 14  1  0
 14 15  2  0
 14 16  1  0
 16 17  1  0
 17 18  1  6
 17 20  1  0
 18 19  1  0
 20 21  1  1
 20 22  1  0
 20 24  1  0
 22 23  1  0
 24 25  1  0
 25 26  1  0
 26 27  1  0
 27 28  1  0
 28 29  1  0
 30 31  2  0
 31 32  1  0
 32 33  1  0
M  END
