
     RDKit          3D

 33 33  0  0  0  0  0  0  0  0999 V2000
   -2.0460   -4.7290    1.1910 C   0  0  0  0  0  0  0  0  0  0  0  0
   -2.8460   -3.7660    1.7850 O   0  0  0  0  0  0  0  0  0  0  0  0
   -2.8770   -2.5740    1.0860 C   0  0  0  0  0  0  0  0  0  0  0  0
   -1.5150   -1.9490    0.9520 C   0  0  0  0  0  0  0  0  0  0  0  0
   -1.5520   -0.7340    0.2390 O   0  0  0  0  0  0  0  0  0  0  0  0
   -2.2580    0.3910    0.6050 C   0  0  0  0  0  0  0  0  0  0  0  0
   -2.9310    0.3140    1.6870 O   0  0  0  0  0  0  0  0  0  0  0  0
   -2.2420    1.6460   -0.2190 C   0  0  2  0  0  0  0  0  0  0  0  0
   -2.7610    1.3310   -1.5590 C   0  0  0  0  0  0  0  0  0  0  0  0
   -4.1640    0.7910   -1.6060 C   0  0  0  0  0  0  0  0  0  0  0  0
   -5.1560    1.7600   -1.0390 C   0  0  0  0  0  0  0  0  0  0  0  0
   -5.0730    2.9380   -1.7990 O   0  0  0  0  0  0  0  0  0  0  0  0
   -0.8760    2.2440   -0.1650 C   0  0  2  0  0  0  0  0  0  0  0  0
   -0.6760    3.4970   -0.9290 C   0  0  0  0  0  0  0  0  0  0  0  0
   -1.5540    4.6550   -0.5180 C   0  0  0  0  0  0  0  0  0  0  0  0
   -1.3390    5.0520    0.8910 C   0  0  0  0  0  0  0  0  0  0  0  0
   -2.1800    6.1100    1.3900 N   0  0  0  0  0  0  0  0  0  0  0  0
   -0.5180    4.5750    1.6810 O   0  0  0  0  0  0  0  0  0  0  0  0
    0.0500    1.2620   -0.6900 N   0  0  0  0  0  0  0  0  0  0  0  0
    1.1220    0.6930    0.0840 C   0  0  0  0  0  0  0  0  0  0  0  0
    1.1950    1.1140    1.2570 O   0  0  0  0  0  0  0  0  0  0  0  0
    2.0050   -0.2560   -0.4490 N   0  0  0  0  0  0  0  0  0  0  0  0
    3.0550   -0.8460    0.2480 C   0  0  0  0  0  0  0  0  0  0  0  0
    3.3460   -0.6980    1.5650 C   0  0  0  0  0  0  0  0  0  0  0  0
    4.4210   -1.3150    2.1910 C   0  0  0  0  0  0  0  0  0  0  0  0
    5.2300   -2.1180    1.4280 C   0  0  0  0  0  0  0  0  0  0  0  0
    6.7090   -2.9700    2.2780 Br  0  0  0  0  0  0  0  0  0  0  0  0
    4.9980   -2.3140    0.0930 C   0  0  0  0  0  0  0  0  0  0  0  0
    5.8640   -3.1710   -0.7080 C   0  0  0  0  0  0  0  0  0  0  0  0
    5.6230   -3.3300   -1.9330 O   0  0  0  0  0  0  0  0  0  0  0  0
    6.9450   -3.8100   -0.1400 O   0  0  0  0  0  0  0  0  0  0  0  0
    7.8120   -4.6480   -0.8670 C   0  0  0  0  0  0  0  0  0  0  0  0
    3.9140   -1.6760   -0.4820 C   0  0  0  0  0  0  0  0  0  0  0  0
  1  2  1  0
  2  3  1  0
  3  4  1  0
  4  5  1  0
  5  6  1  0
  6  7  2  0
  6  8  1  0
  8  9  1  6
  8 13  1  0
  9 10  1  0
 10 11  1  0
 11 12  1  0
 13 14  1  6
 13 19  1  0
 14 15  1  0
 15 16  1  0
 16 17  1  0
 16 18  2  0
 19 20  1  0
 20 21  2  0
 20 22  1  0
 22 23  1  0
 23 24  2  0
 23 33  1  0
 24 25  1  0
 25 26  2  0
 26 27  1  0
 26 28  1  0
 28 29  1  0
 28 33  2  0
 29 30  2  0
 29 31  1  0
 31 32  1  0
M  END
