
     RDKit          3D

 33 33  0  0  0  0  0  0  0  0999 V2000
   -6.9250   -2.3670   -2.7070 C   0  0  0  0  0  0  0  0  0  0  0  0
   -6.0710   -2.4270   -1.6640 C   0  0  0  0  0  0  0  0  0  0  0  0
   -4.9840   -3.4270   -1.7270 C   0  0  0  0  0  0  0  0  0  0  0  0
   -3.7380   -2.8550   -1.6730 O   0  0  0  0  0  0  0  0  0  0  0  0
   -3.1640   -2.1420   -0.6760 C   0  0  0  0  0  0  0  0  0  0  0  0
   -3.7880   -1.8920    0.5220 C   0  0  0  0  0  0  0  0  0  0  0  0
   -3.1340   -1.1450    1.5000 C   0  0  0  0  0  0  0  0  0  0  0  0
   -1.8790   -0.6870    1.2220 C   0  0  0  0  0  0  0  0  0  0  0  0
   -1.2070    0.0520    2.1720 O   0  0  0  0  0  0  0  0  0  0  0  0
   -1.7390    0.3860    3.4220 C   0  0  0  0  0  0  0  0  0  0  0  0
   -2.9260    1.2440    3.3380 C   0  0  0  0  0  0  0  0  0  0  0  0
   -3.5780    1.4910    4.4100 O   0  0  0  0  0  0  0  0  0  0  0  0
   -3.3900    1.8210    2.1280 N   0  0  0  0  0  0  0  0  0  0  0  0
   -4.5740    2.6460    2.1050 C   0  0  0  0  0  0  0  0  0  0  0  0
   -5.1690    2.8310    3.1830 O   0  0  0  0  0  0  0  0  0  0  0  0
   -5.0350    3.2140    0.9270 O   0  0  0  0  0  0  0  0  0  0  0  0
   -1.2100   -0.9150    0.0290 C   0  0  0  0  0  0  0  0  0  0  0  0
    0.1010   -0.4000   -0.1800 N   0  0  0  0  0  0  0  0  0  0  0  0
    0.9050   -0.5270   -1.2900 C   0  0  0  0  0  0  0  0  0  0  0  0
    0.5320   -1.1510   -2.2910 O   0  0  0  0  0  0  0  0  0  0  0  0
    2.3260    0.0770   -1.4090 C   0  0  1  0  0  0  0  0  0  0  0  0
    2.8370   -0.1500   -2.6490 O   0  0  0  0  0  0  0  0  0  0  0  0
    2.0870    1.5260   -1.1710 C   0  0  0  0  0  0  0  0  0  0  0  0
    3.2190    2.4780   -1.2430 C   0  0  0  0  0  0  0  0  0  0  0  0
    3.8990    2.5720   -2.5810 C   0  0  0  0  0  0  0  0  0  0  0  0
    5.3420    3.8720   -2.4080 Br  0  0  0  0  0  0  0  0  0  0  0  0
    3.0310   -0.6030   -0.2940 C   0  0  0  0  0  0  0  0  0  0  0  0
    4.4360   -0.3730   -0.0700 C   0  0  0  0  0  0  0  0  0  0  0  0
    5.1720    0.1950   -0.9000 O   0  0  0  0  0  0  0  0  0  0  0  0
    5.1140   -0.7810    1.1390 N   0  0  0  0  0  0  0  0  0  0  0  0
    6.5030   -0.5530    1.3580 C   0  0  0  0  0  0  0  0  0  0  0  0
    6.8810    0.9100    1.3300 C   0  0  0  0  0  0  0  0  0  0  0  0
   -1.8660   -1.6500   -0.9230 C   0  0  0  0  0  0  0  0  0  0  0  0
  1  2  2  0
  2  3  1  0
  3  4  1  0
  4  5  1  0
  5  6  2  0
  5 33  1  0
  6  7  1  0
  7  8  2  0
  8  9  1  0
  8 17  1  0
  9 10  1  0
 10 11  1  0
 11 12  2  0
 11 13  1  0
 13 14  1  0
 14 15  2  0
 14 16  1  0
 17 18  1  0
 17 33  2  0
 18 19  1  0
 19 20  2  0
 19 21  1  0
 21 22  1  6
 21 23  1  0
 21 27  1  0
 23 24  1  0
 24 25  1  0
 25 26  1  0
 27 28  1  0
 28 29  2  0
 28 30  1  0
 30 31  1  0
 31 32  1  0
M  END
