
     RDKit          3D

 33 36  0  0  0  0  0  0  0  0999 V2000
   -6.5400   -0.9330    3.1010 C   0  0  0  0  0  0  0  0  0  0  0  0
   -6.2660    0.2040    2.4950 C   0  0  0  0  0  0  0  0  0  0  0  0
   -7.3290    1.2240    2.2280 C   0  0  0  0  0  0  0  0  0  0  0  0
   -6.9690    2.1190    1.0550 C   0  0  0  0  0  0  0  0  0  0  0  0
   -5.9410    1.5820    0.2520 N   0  0  0  0  0  0  0  0  0  0  0  0
   -6.1180    0.4070   -0.4840 C   0  0  0  0  0  0  0  0  0  0  0  0
   -7.0490    0.5280   -1.6430 C   0  0  0  0  0  0  0  0  0  0  0  0
   -8.4610    0.8650   -1.3260 C   0  0  0  0  0  0  0  0  0  0  0  0
   -4.7280    1.4900    1.0650 C   0  0  2  0  0  0  0  0  0  0  0  0
   -3.5510    1.1190    0.2600 C   0  0  0  0  0  0  0  0  0  0  0  0
   -3.1520    1.6240   -0.9690 C   0  0  0  0  0  0  0  0  0  0  0  0
   -1.9950    0.9760   -1.3270 C   0  0  0  0  0  0  0  0  0  0  0  0
   -1.7290    0.1000   -0.3090 C   0  0  0  0  0  0  0  0  0  0  0  0
   -0.5590   -0.8360   -0.2420 C   0  0  0  0  0  0  0  0  0  0  0  0
    0.4440   -1.0070   -1.0920 C   0  0  0  0  0  0  0  0  0  0  0  0
    1.4010   -1.9080   -0.8230 C   0  0  0  0  0  0  0  0  0  0  0  0
    1.2870   -2.6220    0.3440 C   0  0  0  0  0  0  0  0  0  0  0  0
    2.1360   -3.6760    0.9810 C   0  0  0  0  0  0  0  0  0  0  0  0
    3.4500   -3.6040    0.4680 O   0  0  0  0  0  0  0  0  0  0  0  0
    4.2410   -2.4590    0.6050 C   0  0  0  0  0  0  0  0  0  0  0  0
    3.8290   -1.3230    1.2410 C   0  0  0  0  0  0  0  0  0  0  0  0
    4.6780   -0.2510    1.3220 C   0  0  0  0  0  0  0  0  0  0  0  0
    5.9820   -0.3060    0.7530 C   0  0  0  0  0  0  0  0  0  0  0  0
    6.7740    0.9180    0.8540 C   0  0  0  0  0  0  0  0  0  0  0  0
    6.6590    1.8800   -0.2680 C   0  0  0  0  0  0  0  0  0  0  0  0
    7.1220    1.4850   -1.6090 C   0  0  0  0  0  0  0  0  0  0  0  0
    8.5350    1.2230   -1.7230 N   0  0  0  0  0  0  0  0  0  0  0  0
    6.3970   -1.4380    0.1200 C   0  0  0  0  0  0  0  0  0  0  0  0
    7.7600   -1.6190   -0.4610 C   0  0  0  0  0  0  0  0  0  0  0  0
    5.4940   -2.5140    0.0590 C   0  0  0  0  0  0  0  0  0  0  0  0
   -0.2500   -1.9360    1.0260 S   0  0  0  0  0  0  0  0  0  0  0  0
   -2.6620    0.2220    0.5890 O   0  0  0  0  0  0  0  0  0  0  0  0
   -4.9480    0.4980    2.0770 N   0  0  0  0  0  0  0  0  0  0  0  0
  1  2  2  0
  2  3  1  0
  2 33  1  0
  3  4  1  0
  4  5  1  0
  5  6  1  0
  5  9  1  0
  6  7  1  0
  7  8  1  0
  9 10  1  6
  9 33  1  0
 10 11  2  0
 10 32  1  0
 11 12  1  0
 12 13  2  0
 13 14  1  0
 13 32  1  0
 14 15  2  0
 14 31  1  0
 15 16  1  0
 16 17  2  0
 17 18  1  0
 17 31  1  0
 18 19  1  0
 19 20  1  0
 20 21  2  0
 20 30  1  0
 21 22  1  0
 22 23  2  0
 23 24  1  0
 23 28  1  0
 24 25  1  0
 25 26  1  0
 26 27  1  0
 28 29  1  0
 28 30  2  0
M  CHG  1  27   1
M  END
