
     RDKit          3D

 47 50  0  0  0  0  0  0  0  0999 V2000
    9.8460    4.7010    2.0390 C   0  0  0  0  0  0  0  0  0  0  0  0
    8.5440    4.1130    1.4900 C   0  0  0  0  0  0  0  0  0  0  0  0
    7.5460    3.6490    1.0630 C   0  0  0  0  0  0  0  0  0  0  0  0
    6.2990    3.0670    0.5560 C   0  0  0  0  0  0  0  0  0  0  0  0
    5.1570    2.7130    1.1520 C   0  0  0  0  0  0  0  0  0  0  0  0
    4.2370    2.2970    0.1680 C   0  0  0  0  0  0  0  0  0  0  0  0
    2.9440    1.6450    0.3170 C   0  0  0  0  0  0  0  0  0  0  0  0
    1.9970    2.0150    1.2330 C   0  0  0  0  0  0  0  0  0  0  0  0
    0.7540    1.4220    1.3440 C   0  0  0  0  0  0  0  0  0  0  0  0
    0.4000    0.3820    0.4970 C   0  0  0  0  0  0  0  0  0  0  0  0
   -0.9590   -0.1570    0.4100 C   0  0  0  0  0  0  0  0  0  0  0  0
   -1.8440    0.6750    0.7850 O   0  0  0  0  0  0  0  0  0  0  0  0
   -1.2760   -1.4280   -0.0550 N   0  0  0  0  0  0  0  0  0  0  0  0
   -0.0730   -2.3590    0.0820 C   0  0  0  0  0  0  0  0  0  0  0  0
   -0.3960   -3.2240    1.2750 C   0  0  0  0  0  0  0  0  0  0  0  0
   -0.0060   -3.0880    2.5010 C   0  0  0  0  0  0  0  0  0  0  0  0
    0.8590   -2.0800    3.1430 C   0  0  0  0  0  0  0  0  0  0  0  0
   -2.4610   -2.0610   -0.5640 C   0  0  1  0  0  0  0  0  0  0  0  0
   -3.3310   -2.5690    0.6070 C   0  0  0  0  0  0  0  0  0  0  0  0
   -4.3900   -3.5220    0.2800 C   0  0  1  0  0  0  0  0  0  0  0  0
   -5.5060   -3.4230   -0.6130 C   0  0  0  0  0  0  0  0  0  0  0  0
   -3.7270   -4.9440    0.0540 C   0  0  0  0  0  0  0  0  0  0  0  0
   -3.2670   -1.2520   -1.5190 C   0  0  0  0  0  0  0  0  0  0  0  0
   -3.8170    0.0260   -1.1210 N   0  0  0  0  0  0  0  0  0  0  0  0
   -4.9770    0.2020   -0.3160 C   0  0  0  0  0  0  0  0  0  0  0  0
   -6.2550    0.5230   -1.0880 C   0  0  1  0  0  0  0  0  0  0  0  0
   -6.5360   -0.5280   -1.9390 O   0  0  0  0  0  0  0  0  0  0  0  0
   -7.3790    0.6360   -0.0430 C   0  0  0  0  0  0  0  0  0  0  0  0
   -7.5050   -0.5600    0.6470 O   0  0  0  0  0  0  0  0  0  0  0  0
   -3.1340    1.2280   -1.5780 C   0  0  0  0  0  0  0  0  0  0  0  0
   -2.1190    1.1170   -2.3530 O   0  0  0  0  0  0  0  0  0  0  0  0
   -3.5360    2.5640   -1.2160 C   0  0  0  0  0  0  0  0  0  0  0  0
   -3.1590    3.8070   -1.7960 C   0  0  0  0  0  0  0  0  0  0  0  0
   -3.8200    4.7660   -1.0620 C   0  0  0  0  0  0  0  0  0  0  0  0
   -4.5200    4.2040   -0.1310 C   0  0  0  0  0  0  0  0  0  0  0  0
   -4.3730    2.8640   -0.1990 O   0  0  0  0  0  0  0  0  0  0  0  0
    1.3470    0.0050   -0.4170 C   0  0  0  0  0  0  0  0  0  0  0  0
    2.6140    0.5940   -0.5360 C   0  0  0  0  0  0  0  0  0  0  0  0
    3.6080   -0.0940   -1.3960 C   0  0  0  0  0  0  0  0  0  0  0  0
    4.3360   -0.9820   -0.4660 N   0  0  0  0  0  0  0  0  0  0  0  0
    5.4240   -0.7460    0.2550 C   0  0  0  0  0  0  0  0  0  0  0  0
    5.7620   -1.8550    1.0220 C   0  0  0  0  0  0  0  0  0  0  0  0
    4.8280   -2.8120    0.7450 C   0  0  0  0  0  0  0  0  0  0  0  0
    3.9350   -2.2460   -0.1920 C   0  0  0  0  0  0  0  0  0  0  0  0
    4.9160    2.4430   -0.9960 N   0  0  0  0  0  0  0  0  0  0  0  0
    6.1460    2.8890   -0.8170 C   0  0  0  0  0  0  0  0  0  0  0  0
    7.2060    3.0990   -1.8620 C   0  0  0  0  0  0  0  0  0  0  0  0
  1  2  1  0
  2  3  3  0
  3  4  1  0
  4  5  1  0
  4 46  2  0
  5  6  2  0
  6  7  1  0
  6 45  1  0
  7  8  2  0
  7 38  1  0
  8  9  1  0
  9 10  2  0
 10 11  1  0
 10 37  1  0
 11 12  2  0
 11 13  1  0
 13 14  1  0
 13 18  1  0
 14 15  1  0
 15 16  2  3
 16 17  1  0
 18 19  1  1
 18 23  1  0
 19 20  1  0
 20 21  1  6
 20 22  1  0
 23 24  1  0
 24 25  1  0
 24 30  1  0
 25 26  1  0
 26 27  1  6
 26 28  1  0
 28 29  1  0
 30 31  2  0
 30 32  1  0
 32 33  2  0
 32 36  1  0
 33 34  1  0
 34 35  2  0
 35 36  1  0
 37 38  2  0
 38 39  1  0
 39 40  1  0
 40 41  1  0
 40 44  1  0
 41 42  2  0
 42 43  1  0
 43 44  2  0
 45 46  1  0
 46 47  1  0
M  END
