
     RDKit          3D

 47 50  0  0  0  0  0  0  0  0999 V2000
  -11.0250    0.1500   -3.1850 C   0  0  0  0  0  0  0  0  0  0  0  0
   -9.9630    1.1980   -2.9000 C   0  0  1  0  0  0  0  0  0  0  0  0
  -10.6220    2.5560   -2.9350 C   0  0  0  0  0  0  0  0  0  0  0  0
  -11.1350    2.7660   -4.2220 O   0  0  0  0  0  0  0  0  0  0  0  0
   -9.4420    1.0180   -1.5330 N   0  0  0  0  0  0  0  0  0  0  0  0
   -8.0810    0.6180   -1.3140 C   0  0  0  0  0  0  0  0  0  0  0  0
   -7.4260    0.4470   -2.3650 O   0  0  0  0  0  0  0  0  0  0  0  0
   -7.5310    0.4310    0.0210 C   0  0  0  0  0  0  0  0  0  0  0  0
   -8.3690    0.5800    1.1350 C   0  0  0  0  0  0  0  0  0  0  0  0
   -7.9520    0.3720    2.4270 C   0  0  0  0  0  0  0  0  0  0  0  0
   -8.8580    0.5390    3.5610 C   0  0  0  0  0  0  0  0  0  0  0  0
   -8.5950    0.3770    4.8430 C   0  0  0  0  0  0  0  0  0  0  0  0
   -9.8030    0.6480    5.6700 C   0  0  0  0  0  0  0  0  0  0  0  0
  -10.8170    0.9960    4.6450 C   0  0  0  0  0  0  0  0  0  0  0  0
  -10.2530    0.9260    3.4500 C   0  0  0  0  0  0  0  0  0  0  0  0
   -6.6440   -0.0000    2.5980 C   0  0  0  0  0  0  0  0  0  0  0  0
   -5.8000   -0.1520    1.5100 C   0  0  0  0  0  0  0  0  0  0  0  0
   -6.1950    0.0520    0.2010 C   0  0  0  0  0  0  0  0  0  0  0  0
   -5.3080   -0.0200   -0.8860 N   0  0  0  0  0  0  0  0  0  0  0  0
   -4.0710   -0.7570   -0.8370 C   0  0  0  0  0  0  0  0  0  0  0  0
   -3.7240   -1.3810    0.1710 O   0  0  0  0  0  0  0  0  0  0  0  0
   -3.2350   -0.7410   -2.0390 C   0  0  0  0  0  0  0  0  0  0  0  0
   -2.0030   -1.5650   -1.8870 C   0  0  0  0  0  0  0  0  0  0  0  0
   -1.0940   -1.0540   -0.8370 C   0  0  0  0  0  0  0  0  0  0  0  0
    0.1620   -1.9150   -0.7010 C   0  0  0  0  0  0  0  0  0  0  0  0
    0.9730   -1.9690   -1.9540 C   0  0  0  0  0  0  0  0  0  0  0  0
    2.1780   -2.8560   -1.7740 C   0  0  0  0  0  0  0  0  0  0  0  0
    3.1010   -2.4160   -0.7100 C   0  0  0  0  0  0  0  0  0  0  0  0
    2.9270   -2.8540    0.5970 C   0  0  0  0  0  0  0  0  0  0  0  0
    3.7910   -2.4670    1.5900 C   0  0  0  0  0  0  0  0  0  0  0  0
    4.8670   -1.6140    1.2750 C   0  0  0  0  0  0  0  0  0  0  0  0
    5.0680   -1.1640    0.0020 C   0  0  0  0  0  0  0  0  0  0  0  0
    6.1510   -0.3430   -0.3460 N   0  0  0  0  0  0  0  0  0  0  0  0
    7.3400   -0.1060    0.3680 C   0  0  0  0  0  0  0  0  0  0  0  0
    7.5150   -0.6880    1.4640 O   0  0  0  0  0  0  0  0  0  0  0  0
    8.3600    0.7670   -0.0970 N   0  0  0  0  0  0  0  0  0  0  0  0
    9.5760    0.9650    0.6810 C   0  0  2  0  0  0  0  0  0  0  0  0
    9.4400    2.4090    1.2080 C   0  0  0  0  0  0  0  0  0  0  0  0
   10.7960    0.7890   -0.1640 C   0  0  0  0  0  0  0  0  0  0  0  0
   12.0110    0.9700    0.6530 C   0  0  0  0  0  0  0  0  0  0  0  0
   11.9040    1.1810    1.8790 O   0  0  0  0  0  0  0  0  0  0  0  0
   13.3570    0.9050    0.0370 C   0  0  0  0  0  0  0  0  0  0  0  0
   13.6230    0.6960   -1.2220 C   0  0  0  0  0  0  0  0  0  0  0  0
   15.0860    0.7030   -1.4360 C   0  0  0  0  0  0  0  0  0  0  0  0
   15.6490    0.9530   -0.0840 C   0  0  0  0  0  0  0  0  0  0  0  0
   14.6180    1.0630    0.7360 C   0  0  0  0  0  0  0  0  0  0  0  0
    4.1600   -1.5860   -0.9760 C   0  0  0  0  0  0  0  0  0  0  0  0
  2  1  1  1
  2  3  1  0
  2  5  1  0
  3  4  1  0
  5  6  1  0
  6  7  2  0
  6  8  1  0
  8  9  2  0
  8 18  1  0
  9 10  1  0
 10 11  1  0
 10 16  2  0
 11 12  2  0
 11 15  1  0
 12 13  1  0
 13 14  1  0
 14 15  2  0
 16 17  1  0
 17 18  2  0
 18 19  1  0
 19 20  1  0
 20 21  2  0
 20 22  1  0
 22 23  1  0
 23 24  1  0
 24 25  1  0
 25 26  1  0
 26 27  1  0
 27 28  1  0
 28 29  2  0
 28 47  1  0
 29 30  1  0
 30 31  2  0
 31 32  1  0
 32 33  1  0
 32 47  2  0
 33 34  1  0
 34 35  2  0
 34 36  1  0
 36 37  1  0
 37 38  1  6
 37 39  1  0
 39 40  1  0
 40 41  2  0
 40 42  1  0
 42 43  2  0
 42 46  1  0
 43 44  1  0
 44 45  1  0
 45 46  2  0
M  END
