
     RDKit          3D

 47 50  0  0  0  0  0  0  0  0999 V2000
   -5.4080    1.8310    3.1690 C   0  0  0  0  0  0  0  0  0  0  0  0
   -6.5870    1.7390    2.1900 C   0  0  0  0  0  0  0  0  0  0  0  0
   -6.8900    0.4080    1.9040 N   0  0  0  0  0  0  0  0  0  0  0  0
   -6.0310   -0.4330    1.1830 C   0  0  1  0  0  0  0  0  0  0  0  0
   -6.6880   -1.7940    1.0910 C   0  0  1  0  0  0  0  0  0  0  0  0
   -6.8360   -2.2570    2.5680 C   0  0  0  0  0  0  0  0  0  0  0  0
   -8.1130   -1.7570    0.6090 C   0  0  0  0  0  0  0  0  0  0  0  0
   -5.2070    0.0340    0.0860 C   0  0  1  0  0  0  0  0  0  0  0  0
   -4.4490   -1.1330   -0.4220 N   0  0  0  0  0  0  0  0  0  0  0  0
   -3.0360   -1.2080   -0.3070 C   0  0  0  0  0  0  0  0  0  0  0  0
   -2.4190   -0.2570    0.2380 O   0  0  0  0  0  0  0  0  0  0  0  0
   -2.2510   -2.3630   -0.8040 C   0  0  0  0  0  0  0  0  0  0  0  0
   -0.8800   -2.0550   -0.6590 O   0  0  0  0  0  0  0  0  0  0  0  0
   -0.3130   -0.9900   -1.3520 C   0  0  0  0  0  0  0  0  0  0  0  0
   -1.0020   -0.1870   -2.2260 C   0  0  0  0  0  0  0  0  0  0  0  0
   -0.4290    0.8690   -2.9140 C   0  0  0  0  0  0  0  0  0  0  0  0
    0.9040    1.1300   -2.7130 C   0  0  0  0  0  0  0  0  0  0  0  0
    1.6100    0.3220   -1.8300 C   0  0  0  0  0  0  0  0  0  0  0  0
    1.0500   -0.7310   -1.1410 C   0  0  0  0  0  0  0  0  0  0  0  0
    1.7710   -1.5870   -0.1720 C   0  0  0  0  0  0  0  0  0  0  0  0
    3.1630   -1.1900   -0.1370 N   0  0  0  0  0  0  0  0  0  0  0  0
    4.0370   -1.3540   -1.2370 C   0  0  0  0  0  0  0  0  0  0  0  0
    3.5370   -1.8860   -2.2870 O   0  0  0  0  0  0  0  0  0  0  0  0
    5.4740   -0.9560   -1.2570 C   0  0  0  0  0  0  0  0  0  0  0  0
    5.9570   -0.3900   -0.0470 N   0  0  0  0  0  0  0  0  0  0  0  0
    6.7400   -1.2770    0.7960 C   0  0  0  0  0  0  0  0  0  0  0  0
    6.1220   -2.0220    1.7510 C   0  0  0  0  0  0  0  0  0  0  0  0
    6.9050   -2.8890    2.5230 C   0  0  0  0  0  0  0  0  0  0  0  0
    8.2650   -3.0020    2.3390 C   0  0  0  0  0  0  0  0  0  0  0  0
    8.8330   -2.2260    1.3590 C   0  0  0  0  0  0  0  0  0  0  0  0
    8.1080   -1.3670    0.5830 C   0  0  0  0  0  0  0  0  0  0  0  0
    8.6970   -0.5280   -0.4770 C   0  0  0  0  0  0  0  0  0  0  0  0
    5.7820    0.9120    0.4820 C   0  0  0  0  0  0  0  0  0  0  0  0
    5.4390    1.0650    1.8450 C   0  0  0  0  0  0  0  0  0  0  0  0
    5.3300    2.2850    2.4190 C   0  0  0  0  0  0  0  0  0  0  0  0
    5.5620    3.3970    1.6450 C   0  0  0  0  0  0  0  0  0  0  0  0
    5.8950    3.2710    0.3200 C   0  0  0  0  0  0  0  0  0  0  0  0
    6.0120    2.0140   -0.2970 C   0  0  0  0  0  0  0  0  0  0  0  0
    6.3080    2.0140   -1.7450 C   0  0  0  0  0  0  0  0  0  0  0  0
    6.5540    3.3250   -2.2040 O   0  0  0  0  0  0  0  0  0  0  0  0
   -5.7450    0.6950   -1.0960 C   0  0  0  0  0  0  0  0  0  0  0  0
   -5.4750    1.9450   -1.4140 C   0  0  0  0  0  0  0  0  0  0  0  0
   -4.5960    2.9410   -0.6810 C   0  0  0  0  0  0  0  0  0  0  0  0
   -6.1730    2.2640   -2.6490 C   0  0  0  0  0  0  0  0  0  0  0  0
   -6.8580    1.2310   -3.0830 C   0  0  0  0  0  0  0  0  0  0  0  0
   -6.6210    0.1690   -2.1130 C   0  0  0  0  0  0  0  0  0  0  0  0
   -7.1380   -0.9770   -2.2350 O   0  0  0  0  0  0  0  0  0  0  0  0
  1  2  1  0
  2  3  1  0
  4  3  1  6
  4  5  1  0
  4  8  1  0
  5  6  1  1
  5  7  1  0
  8  9  1  6
  8 41  1  0
  9 10  1  0
 10 11  2  0
 10 12  1  0
 12 13  1  0
 13 14  1  0
 14 15  2  0
 14 19  1  0
 15 16  1  0
 16 17  2  0
 17 18  1  0
 18 19  2  0
 19 20  1  0
 20 21  1  0
 21 22  1  0
 22 23  2  0
 22 24  1  0
 24 25  1  0
 25 26  1  0
 25 33  1  0
 26 27  2  0
 26 31  1  0
 27 28  1  0
 28 29  2  0
 29 30  1  0
 30 31  2  0
 31 32  1  0
 33 34  2  0
 33 38  1  0
 34 35  1  0
 35 36  2  0
 36 37  1  0
 37 38  2  0
 38 39  1  0
 39 40  1  0
 41 42  2  0
 41 46  1  0
 42 43  1  0
 42 44  1  0
 44 45  2  0
 45 46  1  0
 46 47  2  0
M  END
