
     RDKit          3D

 47 50  0  0  0  0  0  0  0  0999 V2000
   -2.8610   -4.8750   -1.7090 C   0  0  0  0  0  0  0  0  0  0  0  0
   -3.7090   -4.8370   -0.7400 C   0  0  0  0  0  0  0  0  0  0  0  0
   -3.8960   -3.8330    0.2560 C   0  0  0  0  0  0  0  0  0  0  0  0
   -4.8750   -4.0620    1.1490 C   0  0  0  0  0  0  0  0  0  0  0  0
   -5.1450   -3.0910    2.2190 C   0  0  0  0  0  0  0  0  0  0  0  0
   -3.1910   -2.6040    0.3900 N   0  0  0  0  0  0  0  0  0  0  0  0
   -2.3790   -1.9560   -0.5720 C   0  0  0  0  0  0  0  0  0  0  0  0
   -2.0630   -0.5150   -0.1040 C   0  0  1  0  0  0  0  0  0  0  0  0
   -3.4090    0.1860   -0.2130 C   0  0  0  0  0  0  0  0  0  0  0  0
   -3.3760    1.6530    0.1210 C   0  0  1  0  0  0  0  0  0  0  0  0
   -2.4580    2.4110   -0.7980 C   0  0  0  0  0  0  0  0  0  0  0  0
   -2.5720    3.8920   -0.6310 C   0  0  1  0  0  0  0  0  0  0  0  0
   -3.2050    4.5230   -1.8730 C   0  0  0  0  0  0  0  0  0  0  0  0
   -3.5060    4.2870    0.5120 C   0  0  0  0  0  0  0  0  0  0  0  0
   -4.8380    3.6050    0.2700 C   0  0  0  0  0  0  0  0  0  0  0  0
   -6.0290    4.2500    0.2480 C   0  0  0  0  0  0  0  0  0  0  0  0
   -7.1630    3.4740   -0.0180 C   0  0  0  0  0  0  0  0  0  0  0  0
   -7.0840    2.1170   -0.2470 C   0  0  0  0  0  0  0  0  0  0  0  0
   -5.8560    1.4860   -0.2180 C   0  0  0  0  0  0  0  0  0  0  0  0
   -4.7340    2.2490    0.0450 C   0  0  0  0  0  0  0  0  0  0  0  0
   -1.3690   -0.4080    1.0240 O   0  0  0  0  0  0  0  0  0  0  0  0
   -1.3180   -0.2040    2.3280 C   0  0  0  0  0  0  0  0  0  0  0  0
   -2.4980   -0.0590    3.0800 C   0  0  0  0  0  0  0  0  0  0  0  0
   -2.5210    0.1520    4.4350 C   0  0  0  0  0  0  0  0  0  0  0  0
   -1.3190    0.2270    5.0920 C   0  0  0  0  0  0  0  0  0  0  0  0
   -0.1740    0.0900    4.3790 C   0  0  0  0  0  0  0  0  0  0  0  0
   -0.1180   -0.1240    3.0060 C   0  0  0  0  0  0  0  0  0  0  0  0
    1.2150   -0.2120    2.3730 C   0  0  0  0  0  0  0  0  0  0  0  0
    2.2210   -0.1280    3.1680 O   0  0  0  0  0  0  0  0  0  0  0  0
    1.5200   -0.3710    1.0340 N   0  0  0  0  0  0  0  0  0  0  0  0
    2.7950   -0.4530    0.4030 C   0  0  0  0  0  0  0  0  0  0  0  0
    3.9390   -0.3790    1.1390 C   0  0  0  0  0  0  0  0  0  0  0  0
    5.2020   -0.4390    0.5370 C   0  0  0  0  0  0  0  0  0  0  0  0
    5.3520   -0.5760   -0.8320 C   0  0  0  0  0  0  0  0  0  0  0  0
    6.6650   -0.6470   -1.3450 N   0  0  0  0  0  0  0  0  0  0  0  0
    7.0630   -0.5330   -2.6890 C   0  0  0  0  0  0  0  0  0  0  0  0
    6.1520   -0.3420   -3.5640 O   0  0  0  0  0  0  0  0  0  0  0  0
    8.4560   -0.6190   -3.1900 C   0  0  0  0  0  0  0  0  0  0  0  0
    9.4590   -0.7940   -2.1850 N   0  0  0  0  0  0  0  0  0  0  0  0
    9.7580    0.1330   -1.1560 C   0  0  0  0  0  0  0  0  0  0  0  0
    9.1150    1.2070   -1.1000 O   0  0  0  0  0  0  0  0  0  0  0  0
   10.7720   -0.1620   -0.2120 O   0  0  0  0  0  0  0  0  0  0  0  0
   11.0640    0.7690    0.8060 C   0  0  0  0  0  0  0  0  0  0  0  0
    4.1890   -0.6490   -1.5490 C   0  0  0  0  0  0  0  0  0  0  0  0
    2.9280   -0.5900   -0.9540 C   0  0  0  0  0  0  0  0  0  0  0  0
    1.7550   -0.7110   -1.8200 C   0  0  0  0  0  0  0  0  0  0  0  0
    1.1850   -2.1120   -1.8390 C   0  0  0  0  0  0  0  0  0  0  0  0
  1  2  2  0
  2  3  1  0
  3  4  2  3
  3  6  1  0
  4  5  1  0
  6  7  1  0
  8  7  1  1
  8  9  1  0
  8 21  1  0
 10  9  1  6
 10 11  1  0
 10 20  1  0
 11 12  1  0
 12 13  1  6
 12 14  1  0
 14 15  1  0
 15 16  2  0
 15 20  1  0
 16 17  1  0
 17 18  2  0
 18 19  1  0
 19 20  2  0
 21 22  1  0
 22 23  2  0
 22 27  1  0
 23 24  1  0
 24 25  2  0
 25 26  1  0
 26 27  2  0
 27 28  1  0
 28 29  2  0
 28 30  1  0
 30 31  1  0
 31 32  2  0
 31 45  1  0
 32 33  1  0
 33 34  2  0
 34 35  1  0
 34 44  1  0
 35 36  1  0
 36 37  2  0
 36 38  1  0
 38 39  1  0
 39 40  1  0
 40 41  2  0
 40 42  1  0
 42 43  1  0
 44 45  2  0
 45 46  1  0
 46 47  1  0
M  END
