
     RDKit          3D

 47 50  0  0  0  0  0  0  0  0999 V2000
   11.2520   -1.0110   -3.7760 C   0  0  0  0  0  0  0  0  0  0  0  0
   10.9290    0.3800   -3.3170 C   0  0  0  0  0  0  0  0  0  0  0  0
    9.7550    0.3050   -2.3790 C   0  0  0  0  0  0  0  0  0  0  0  0
    8.5020    0.6750   -2.7780 C   0  0  0  0  0  0  0  0  0  0  0  0
    7.4050    0.6150   -1.8870 C   0  0  0  0  0  0  0  0  0  0  0  0
    6.1790    1.0080   -2.4290 C   0  0  0  0  0  0  0  0  0  0  0  0
    5.0880    0.9380   -1.5600 C   0  0  0  0  0  0  0  0  0  0  0  0
    5.2190    0.5150   -0.2780 C   0  0  0  0  0  0  0  0  0  0  0  0
    4.1450    0.5020    0.6260 N   0  0  0  0  0  0  0  0  0  0  0  0
    2.7910    0.4490    0.2200 C   0  0  0  0  0  0  0  0  0  0  0  0
    2.4090    0.3520   -0.9590 O   0  0  0  0  0  0  0  0  0  0  0  0
    1.8000    0.5050    1.2180 N   0  0  0  0  0  0  0  0  0  0  0  0
    0.3350    0.4100    0.9460 C   0  0  2  0  0  0  0  0  0  0  0  0
   -0.2250    1.8070    0.8600 C   0  0  0  0  0  0  0  0  0  0  0  0
   -1.6220    1.7470    0.5180 N   0  0  0  0  0  0  0  0  0  0  0  0
   -2.4670    2.8930    0.4140 C   0  0  0  0  0  0  0  0  0  0  0  0
   -1.9580    4.0180    0.6100 O   0  0  0  0  0  0  0  0  0  0  0  0
   -3.9320    2.7210    0.0800 C   0  0  0  0  0  0  0  0  0  0  0  0
   -4.1700    1.3500   -0.0160 O   0  0  0  0  0  0  0  0  0  0  0  0
   -5.4040    0.7860   -0.2260 C   0  0  0  0  0  0  0  0  0  0  0  0
   -5.4920   -0.6120   -0.3130 C   0  0  0  0  0  0  0  0  0  0  0  0
   -6.6880   -1.2580   -0.5130 C   0  0  0  0  0  0  0  0  0  0  0  0
   -7.8620   -0.5550   -0.6390 C   0  0  0  0  0  0  0  0  0  0  0  0
   -9.1740   -1.2220   -0.8290 C   0  0  2  0  0  0  0  0  0  0  0  0
   -9.2070   -2.1750   -1.8120 O   0  0  0  0  0  0  0  0  0  0  0  0
   -9.4380   -3.4520   -1.3100 C   0  0  0  0  0  0  0  0  0  0  0  0
  -10.2910   -0.2500   -0.8660 C   0  0  0  0  0  0  0  0  0  0  0  0
  -10.8600    0.1720    0.3410 C   0  0  0  0  0  0  0  0  0  0  0  0
  -11.8970    1.0590    0.3990 C   0  0  0  0  0  0  0  0  0  0  0  0
  -12.4160    1.5680   -0.7580 C   0  0  0  0  0  0  0  0  0  0  0  0
  -11.8900    1.1850   -1.9780 C   0  0  0  0  0  0  0  0  0  0  0  0
  -10.8350    0.2800   -2.0060 C   0  0  0  0  0  0  0  0  0  0  0  0
   -7.7920    0.8080   -0.5590 C   0  0  0  0  0  0  0  0  0  0  0  0
   -6.5790    1.4810   -0.3540 C   0  0  0  0  0  0  0  0  0  0  0  0
   -0.2230   -0.4480    2.0240 C   0  0  1  0  0  0  0  0  0  0  0  0
    0.0910    0.2340    3.2470 O   0  0  0  0  0  0  0  0  0  0  0  0
   -1.6730   -0.7240    2.1000 C   0  0  0  0  0  0  0  0  0  0  0  0
   -1.8340   -1.6530    3.3460 C   0  0  0  0  0  0  0  0  0  0  0  0
    6.4580    0.1220    0.2610 C   0  0  0  0  0  0  0  0  0  0  0  0
    6.6540   -0.3420    1.5880 C   0  0  0  0  0  0  0  0  0  0  0  0
    6.2260   -1.7490    1.9070 C   0  0  0  0  0  0  0  0  0  0  0  0
    6.8780   -2.7370    1.1180 C   0  0  0  0  0  0  0  0  0  0  0  0
    7.4480   -3.5820    0.4380 N   0  0  0  0  0  0  0  0  0  0  0  0
    7.5410    0.1950   -0.6190 C   0  0  0  0  0  0  0  0  0  0  0  0
    8.8240   -0.1850   -0.2150 C   0  0  0  0  0  0  0  0  0  0  0  0
    9.9110   -0.1260   -1.0960 C   0  0  0  0  0  0  0  0  0  0  0  0
   11.2680   -0.5500   -0.6200 C   0  0  0  0  0  0  0  0  0  0  0  0
  1  2  1  0
  2  3  1  0
  3  4  2  0
  3 46  1  0
  4  5  1  0
  5  6  2  0
  5 44  1  0
  6  7  1  0
  7  8  2  0
  8  9  1  0
  8 39  1  0
  9 10  1  0
 10 11  2  0
 10 12  1  0
 12 13  1  0
 13 14  1  1
 13 35  1  0
 14 15  1  0
 15 16  1  0
 16 17  2  0
 16 18  1  0
 18 19  1  0
 19 20  1  0
 20 21  2  0
 20 34  1  0
 21 22  1  0
 22 23  2  0
 23 24  1  0
 23 33  1  0
 24 25  1  6
 24 27  1  0
 25 26  1  0
 27 28  2  0
 27 32  1  0
 28 29  1  0
 29 30  2  0
 30 31  1  0
 31 32  2  0
 33 34  2  0
 35 36  1  1
 35 37  1  0
 37 38  1  0
 39 40  1  0
 39 44  2  0
 40 41  1  0
 41 42  1  0
 42 43  3  0
 44 45  1  0
 45 46  2  0
 46 47  1  0
M  END
