
     RDKit          3D

 47 50  0  0  0  0  0  0  0  0999 V2000
    3.2610    1.5190   -3.8940 C   0  0  0  0  0  0  0  0  0  0  0  0
    3.1960    1.8160   -2.4320 C   0  0  0  0  0  0  0  0  0  0  0  0
    3.5240    0.6730   -1.5400 C   0  0  2  0  0  0  0  0  0  0  0  0
    4.9190    0.2230   -1.8340 C   0  0  0  0  0  0  0  0  0  0  0  0
    5.5490    0.8520   -2.7500 O   0  0  0  0  0  0  0  0  0  0  0  0
    5.5110   -0.8570   -1.1230 N   0  0  0  0  0  0  0  0  0  0  0  0
    6.8550   -1.2500   -1.4340 C   0  0  0  0  0  0  0  0  0  0  0  0
    7.7870   -0.0880   -1.1260 C   0  0  2  0  0  0  0  0  0  0  0  0
    9.2170   -0.4570   -1.3310 C   0  0  0  0  0  0  0  0  0  0  0  0
    9.8530   -0.2470   -0.0180 C   0  0  0  0  0  0  0  0  0  0  0  0
   11.1470   -0.3710    0.3940 C   0  0  0  0  0  0  0  0  0  0  0  0
   11.4870   -0.1110    1.7130 C   0  0  0  0  0  0  0  0  0  0  0  0
   10.5230    0.2740    2.6180 C   0  0  0  0  0  0  0  0  0  0  0  0
    9.2280    0.3910    2.1800 C   0  0  0  0  0  0  0  0  0  0  0  0
    8.8660    0.1320    0.8510 C   0  0  0  0  0  0  0  0  0  0  0  0
    7.6480    0.1900    0.2240 O   0  0  0  0  0  0  0  0  0  0  0  0
    2.6470   -0.4540   -1.6720 N   0  0  0  0  0  0  0  0  0  0  0  0
    3.0570   -1.5240   -2.3670 C   0  0  0  0  0  0  0  0  0  0  0  0
    2.3010   -2.6680   -2.5580 C   0  0  0  0  0  0  0  0  0  0  0  0
    1.0530   -2.6590   -1.9780 C   0  0  0  0  0  0  0  0  0  0  0  0
    0.5880   -1.5600   -1.2460 C   0  0  0  0  0  0  0  0  0  0  0  0
   -0.7610   -1.5850   -0.6680 C   0  0  0  0  0  0  0  0  0  0  0  0
   -1.3390   -2.7300   -0.5890 O   0  0  0  0  0  0  0  0  0  0  0  0
   -1.4860   -0.5020   -0.1980 N   0  0  0  0  0  0  0  0  0  0  0  0
   -2.7780   -0.4600    0.3810 C   0  0  0  0  0  0  0  0  0  0  0  0
   -3.3570   -1.5880    0.9170 C   0  0  0  0  0  0  0  0  0  0  0  0
   -4.5550   -1.5440    1.6660 C   0  0  0  0  0  0  0  0  0  0  0  0
   -5.1700   -0.3750    1.8770 C   0  0  0  0  0  0  0  0  0  0  0  0
   -6.4390   -0.1350    2.6550 C   0  0  2  0  0  0  0  0  0  0  0  0
   -6.3210    1.0790    3.3200 N   0  0  0  0  0  0  0  0  0  0  0  0
   -7.4210    1.9470    3.5030 C   0  0  0  0  0  0  0  0  0  0  0  0
   -7.1120   -1.3210    3.1460 C   0  0  2  0  0  0  0  0  0  0  0  0
   -6.1710   -2.1320    4.1140 C   0  0  0  0  0  0  0  0  0  0  0  0
   -7.4360   -2.2640    1.9750 C   0  0  0  0  0  0  0  0  0  0  0  0
   -8.3910   -1.1180    3.8800 C   0  0  0  0  0  0  0  0  0  0  0  0
   -8.3650   -0.3800    5.1580 C   0  0  0  0  0  0  0  0  0  0  0  0
   -4.6070    0.7600    1.3450 C   0  0  0  0  0  0  0  0  0  0  0  0
   -3.4090    0.7340    0.5900 C   0  0  0  0  0  0  0  0  0  0  0  0
   -3.0170    1.9570   -0.0700 C   0  0  0  0  0  0  0  0  0  0  0  0
   -2.6110    2.2690   -1.2410 C   0  0  0  0  0  0  0  0  0  0  0  0
   -2.3710    1.5490   -2.4520 C   0  0  0  0  0  0  0  0  0  0  0  0
   -2.5780    0.3470   -2.6090 O   0  0  0  0  0  0  0  0  0  0  0  0
   -1.8220    2.2750   -3.6580 C   0  0  2  0  0  0  0  0  0  0  0  0
   -1.6670    1.3400   -4.8340 C   0  0  0  0  0  0  0  0  0  0  0  0
   -0.4140    2.7190   -3.2900 C   0  0  0  0  0  0  0  0  0  0  0  0
    1.4090   -0.4910   -1.1190 C   0  0  0  0  0  0  0  0  0  0  0  0
    1.1180    0.5740   -0.4790 O   0  0  0  0  0  0  0  0  0  0  0  0
  1  2  1  0
  3  2  1  6
  3  4  1  0
  3 17  1  0
  4  5  2  0
  4  6  1  0
  6  7  1  0
  8  7  1  1
  8  9  1  0
  8 16  1  0
  9 10  1  0
 10 11  2  0
 10 15  1  0
 11 12  1  0
 12 13  2  0
 13 14  1  0
 14 15  2  0
 15 16  1  0
 17 18  1  0
 17 46  1  0
 18 19  2  0
 19 20  1  0
 20 21  2  0
 21 22  1  0
 21 46  1  0
 22 23  2  0
 22 24  1  0
 24 25  1  0
 25 26  2  0
 25 38  1  0
 26 27  1  0
 27 28  2  0
 28 29  1  0
 28 37  1  0
 29 30  1  1
 29 32  1  0
 30 31  1  0
 32 33  1  1
 32 34  1  0
 32 35  1  0
 35 36  1  0
 37 38  2  0
 38 39  1  0
 39 40  2  3
 40 41  1  0
 41 42  2  0
 41 43  1  0
 43 44  1  6
 43 45  1  0
 46 47  2  0
M  END
