
     RDKit          3D

 47 50  0  0  0  0  0  0  0  0999 V2000
    8.7280    1.2170    4.2490 C   0  0  0  0  0  0  0  0  0  0  0  0
    7.9400    1.1880    3.0920 O   0  0  0  0  0  0  0  0  0  0  0  0
    7.5650    2.3000    2.3730 C   0  0  0  0  0  0  0  0  0  0  0  0
    7.9660    3.5560    2.7590 C   0  0  0  0  0  0  0  0  0  0  0  0
    7.6010    4.6790    2.0550 C   0  0  0  0  0  0  0  0  0  0  0  0
    6.8120    4.5420    0.9320 C   0  0  0  0  0  0  0  0  0  0  0  0
    6.4080    3.2750    0.5420 C   0  0  0  0  0  0  0  0  0  0  0  0
    6.7720    2.1630    1.2430 C   0  0  0  0  0  0  0  0  0  0  0  0
    6.3540    0.9200    0.8340 O   0  0  0  0  0  0  0  0  0  0  0  0
    5.5460    0.7600   -0.3110 C   0  0  0  0  0  0  0  0  0  0  0  0
    5.2860   -0.7170   -0.4330 C   0  0  0  0  0  0  0  0  0  0  0  0
    5.7690   -1.6120    0.4880 C   0  0  0  0  0  0  0  0  0  0  0  0
    5.5230   -2.9630    0.4260 C   0  0  0  0  0  0  0  0  0  0  0  0
    6.0770   -3.9120    1.4330 C   0  0  0  0  0  0  0  0  0  0  0  0
    4.7550   -3.4170   -0.6100 C   0  0  0  0  0  0  0  0  0  0  0  0
    4.2390   -2.5930   -1.5630 C   0  0  0  0  0  0  0  0  0  0  0  0
    3.4120   -3.1620   -2.6770 C   0  0  0  0  0  0  0  0  0  0  0  0
    4.5010   -1.2060   -1.4910 C   0  0  0  0  0  0  0  0  0  0  0  0
    4.0280   -0.3900   -2.3900 O   0  0  0  0  0  0  0  0  0  0  0  0
    3.2100    0.4620   -2.9680 C   0  0  0  0  0  0  0  0  0  0  0  0
    1.8040   -0.0120   -3.2620 C   0  0  0  0  0  0  0  0  0  0  0  0
    1.5980   -0.8410   -4.3280 C   0  0  0  0  0  0  0  0  0  0  0  0
    0.3410   -1.2750   -4.6410 C   0  0  0  0  0  0  0  0  0  0  0  0
   -0.7510   -0.8600   -3.8550 C   0  0  0  0  0  0  0  0  0  0  0  0
   -2.0480   -1.3250   -4.2010 N   0  0  0  0  0  0  0  0  0  0  0  0
   -0.5740   -0.0230   -2.7740 C   0  0  0  0  0  0  0  0  0  0  0  0
   -1.7330    0.4290   -1.9430 C   0  0  2  0  0  0  0  0  0  0  0  0
   -2.7480    1.1730   -2.7440 C   0  0  0  0  0  0  0  0  0  0  0  0
   -1.1480    1.4540   -0.9500 C   0  0  0  0  0  0  0  0  0  0  0  0
   -2.3470   -0.7100   -1.2000 C   0  0  0  0  0  0  0  0  0  0  0  0
   -3.5080   -0.2810   -0.3890 C   0  0  0  0  0  0  0  0  0  0  0  0
   -3.9030    0.9080   -0.5160 O   0  0  0  0  0  0  0  0  0  0  0  0
   -4.2060   -1.1030    0.5200 N   0  0  0  0  0  0  0  0  0  0  0  0
   -3.8580   -2.4710    0.6960 C   0  0  0  0  0  0  0  0  0  0  0  0
   -4.6090   -3.4900   -0.0560 C   0  0  0  0  0  0  0  0  0  0  0  0
   -4.6420   -3.4460   -1.5260 C   0  0  0  0  0  0  0  0  0  0  0  0
   -5.2100   -2.2650   -2.0150 O   0  0  0  0  0  0  0  0  0  0  0  0
   -5.2940   -0.5370    1.2680 C   0  0  2  0  0  0  0  0  0  0  0  0
   -6.4480   -0.1620    0.3680 C   0  0  0  0  0  0  0  0  0  0  0  0
   -7.5920    0.3840    1.1760 C   0  0  0  0  0  0  0  0  0  0  0  0
   -7.1660    1.4880    2.1110 C   0  0  0  0  0  0  0  0  0  0  0  0
   -6.1290    0.9110    3.0230 C   0  0  2  0  0  0  0  0  0  0  0  0
   -5.7700    1.7410    4.1430 N   0  0  0  0  0  0  0  0  0  0  0  0
   -5.1640    2.9980    3.7460 C   0  0  0  0  0  0  0  0  0  0  0  0
   -4.8170    3.7650    4.9120 N   0  0  0  0  0  0  0  0  0  0  0  0
   -4.9050    0.6020    2.1510 C   0  0  0  0  0  0  0  0  0  0  0  0
    0.7210    0.3830   -2.5040 C   0  0  0  0  0  0  0  0  0  0  0  0
  1  2  1  0
  2  3  1  0
  3  4  2  0
  3  8  1  0
  4  5  1  0
  5  6  2  0
  6  7  1  0
  7  8  2  0
  8  9  1  0
  9 10  1  0
 10 11  1  0
 11 12  2  0
 11 18  1  0
 12 13  1  0
 13 14  1  0
 13 15  2  0
 15 16  1  0
 16 17  1  0
 16 18  2  0
 18 19  1  0
 19 20  1  0
 20 21  1  0
 21 22  2  0
 21 47  1  0
 22 23  1  0
 23 24  2  0
 24 25  1  0
 24 26  1  0
 26 27  1  0
 26 47  2  0
 27 28  1  6
 27 29  1  0
 27 30  1  0
 30 31  1  0
 31 32  2  0
 31 33  1  0
 33 34  1  0
 38 33  1  6
 34 35  1  0
 35 36  1  0
 36 37  1  0
 38 39  1  0
 38 46  1  0
 39 40  1  0
 40 41  1  0
 41 42  1  0
 42 43  1  1
 42 46  1  0
 43 44  1  0
 44 45  1  0
M  END
