
     RDKit          3D

 47 50  0  0  0  0  0  0  0  0999 V2000
   -3.5880    4.3450   -2.5570 C   0  0  0  0  0  0  0  0  0  0  0  0
   -2.3610    3.8520   -1.8350 C   0  0  0  0  0  0  0  0  0  0  0  0
   -2.0510    2.4310   -1.9060 C   0  0  0  0  0  0  0  0  0  0  0  0
   -2.9360    1.3700   -1.3860 C   0  0  2  0  0  0  0  0  0  0  0  0
   -4.2980    1.2280   -1.9360 C   0  0  0  0  0  0  0  0  0  0  0  0
   -5.3950    1.9620   -1.2620 C   0  0  0  0  0  0  0  0  0  0  0  0
   -4.9970    2.4020    0.1110 C   0  0  0  0  0  0  0  0  0  0  0  0
   -4.1950    1.2340    0.7200 C   0  0  0  0  0  0  0  0  0  0  0  0
   -2.8450    1.2310    0.1410 C   0  0  1  0  0  0  0  0  0  0  0  0
   -1.8870    0.2980    0.6100 N   0  0  0  0  0  0  0  0  0  0  0  0
   -0.6750    0.8970    1.1630 C   0  0  0  0  0  0  0  0  0  0  0  0
   -0.5150    2.1380    1.2320 O   0  0  0  0  0  0  0  0  0  0  0  0
    0.4440    0.0940    1.6800 C   0  0  0  0  0  0  0  0  0  0  0  0
    1.5970    0.9050    2.1690 C   0  0  2  0  0  0  0  0  0  0  0  0
    2.2450    1.7510    1.1210 C   0  0  0  0  0  0  0  0  0  0  0  0
    2.9950    0.9700    0.1070 N   0  0  0  0  0  0  0  0  0  0  0  0
    4.3310    0.7300    0.4240 C   0  0  0  0  0  0  0  0  0  0  0  0
    4.7300    0.9030    1.6550 O   0  0  0  0  0  0  0  0  0  0  0  0
    5.3740    0.2960   -0.4640 C   0  0  0  0  0  0  0  0  0  0  0  0
    5.2250    0.3320   -1.8240 C   0  0  0  0  0  0  0  0  0  0  0  0
    6.2240   -0.1490   -2.6570 C   0  0  0  0  0  0  0  0  0  0  0  0
    7.3310   -0.6440   -2.1140 N   0  0  0  0  0  0  0  0  0  0  0  0
    7.5200   -0.6960   -0.7910 C   0  0  0  0  0  0  0  0  0  0  0  0
    6.5660   -0.2370    0.0510 C   0  0  0  0  0  0  0  0  0  0  0  0
    2.3490    0.5890   -1.0720 C   0  0  0  0  0  0  0  0  0  0  0  0
    2.2730   -0.7250   -1.4880 C   0  0  0  0  0  0  0  0  0  0  0  0
    1.6120   -1.0770   -2.6430 C   0  0  0  0  0  0  0  0  0  0  0  0
    1.0000   -0.1410   -3.4280 C   0  0  0  0  0  0  0  0  0  0  0  0
    1.0660    1.1890   -3.0250 C   0  0  0  0  0  0  0  0  0  0  0  0
    1.7230    1.5340   -1.8780 C   0  0  0  0  0  0  0  0  0  0  0  0
    2.5390    0.1310    2.8400 O   0  0  0  0  0  0  0  0  0  0  0  0
    2.8500    0.1410    4.1830 C   0  0  0  0  0  0  0  0  0  0  0  0
    2.2840    0.9230    5.1430 C   0  0  0  0  0  0  0  0  0  0  0  0
    2.7140    0.8140    6.4700 C   0  0  0  0  0  0  0  0  0  0  0  0
    3.6980   -0.0610    6.8610 C   0  0  0  0  0  0  0  0  0  0  0  0
    4.2640   -0.8450    5.8910 C   0  0  0  0  0  0  0  0  0  0  0  0
    3.8510   -0.7470    4.5860 C   0  0  0  0  0  0  0  0  0  0  0  0
    4.4710   -1.5750    3.6580 O   0  0  0  0  0  0  0  0  0  0  0  0
   -1.9340   -1.1530    0.6530 C   0  0  2  0  0  0  0  0  0  0  0  0
   -2.0970   -1.8560   -0.6250 C   0  0  0  0  0  0  0  0  0  0  0  0
   -2.1040   -3.3700   -0.5830 C   0  0  0  0  0  0  0  0  0  0  0  0
   -2.2350   -3.9460   -1.9860 C   0  0  1  0  0  0  0  0  0  0  0  0
   -1.1190   -3.5430   -2.9020 C   0  0  0  0  0  0  0  0  0  0  0  0
   -2.1750   -5.4570   -1.8460 C   0  0  0  0  0  0  0  0  0  0  0  0
   -2.7990   -1.6220    1.7810 C   0  0  0  0  0  0  0  0  0  0  0  0
   -2.9180   -2.9900    2.0540 N   0  0  0  0  0  0  0  0  0  0  0  0
   -3.4300   -0.8460    2.5070 O   0  0  0  0  0  0  0  0  0  0  0  0
  1  2  1  0
  2  3  1  0
  4  3  1  1
  4  5  1  0
  4  9  1  0
  5  6  1  0
  6  7  1  0
  7  8  1  0
  8  9  1  0
  9 10  1  6
 10 11  1  0
 10 39  1  0
 11 12  2  0
 11 13  1  0
 14 13  1  6
 14 15  1  0
 14 31  1  0
 15 16  1  0
 16 17  1  0
 16 25  1  0
 17 18  2  0
 17 19  1  0
 19 20  2  0
 19 24  1  0
 20 21  1  0
 21 22  2  0
 22 23  1  0
 23 24  2  0
 25 26  2  0
 25 30  1  0
 26 27  1  0
 27 28  2  0
 28 29  1  0
 29 30  2  0
 31 32  1  0
 32 33  2  0
 32 37  1  0
 33 34  1  0
 34 35  2  0
 35 36  1  0
 36 37  2  0
 37 38  1  0
 39 40  1  6
 39 45  1  0
 40 41  1  0
 41 42  1  0
 42 43  1  6
 42 44  1  0
 45 46  1  0
 45 47  2  0
M  END
