
     RDKit          3D

 20 21  0  0  0  0  0  0  0  0999 V2000
    5.5300    1.0310   -1.1890 N   0  0  0  0  0  0  0  0  0  0  0  0
    5.4370   -0.3510   -1.3750 C   0  0  0  0  0  0  0  0  0  0  0  0
    6.4360   -0.9730   -1.8990 O   0  0  0  0  0  0  0  0  0  0  0  0
    4.3080   -1.1400   -1.0250 C   0  0  0  0  0  0  0  0  0  0  0  0
    3.2100   -0.6810   -0.4940 C   0  0  0  0  0  0  0  0  0  0  0  0
    2.8120    0.6850   -0.1190 C   0  0  0  0  0  0  0  0  0  0  0  0
    1.4320    0.5920    0.0930 O   0  0  0  0  0  0  0  0  0  0  0  0
    1.3480   -0.5690    0.8540 C   0  0  1  0  0  0  0  0  0  0  0  0
   -0.0500   -0.9290    1.1710 C   0  0  0  0  0  0  0  0  0  0  0  0
   -0.3640   -1.9360    1.8460 O   0  0  0  0  0  0  0  0  0  0  0  0
   -1.0850   -0.0840    0.6810 N   0  0  0  0  0  0  0  0  0  0  0  0
   -2.4630   -0.3420    0.9300 C   0  0  0  0  0  0  0  0  0  0  0  0
   -2.7950   -1.3330    1.5950 O   0  0  0  0  0  0  0  0  0  0  0  0
   -3.4630    0.5800    0.3860 C   0  0  1  0  0  0  0  0  0  0  0  0
   -3.4010    0.6630   -1.1040 C   0  0  0  0  0  0  0  0  0  0  0  0
   -4.6690    0.7390   -1.6060 O   0  0  0  0  0  0  0  0  0  0  0  0
   -5.5800    0.6130   -0.5940 C   0  0  0  0  0  0  0  0  0  0  0  0
   -4.8660    0.0030    0.5910 C   0  0  2  0  0  0  0  0  0  0  0  0
   -5.4090    0.3670    1.8010 O   0  0  0  0  0  0  0  0  0  0  0  0
    2.0090   -1.5470   -0.0960 C   0  0  0  0  0  0  0  0  0  0  0  0
  1  2  1  0
  2  3  2  0
  2  4  1  0
  4  5  2  3
  5  6  1  0
  5 20  1  0
  6  7  1  0
  7  8  1  0
  8  9  1  6
  8 20  1  0
  9 10  2  0
  9 11  1  0
 11 12  1  0
 12 13  2  0
 14 12  1  6
 14 15  1  0
 14 18  1  0
 15 16  1  0
 16 17  1  0
 17 18  1  0
 18 19  1  1
M  CHG  1   1   1
M  END
