
     RDKit          3D

 19 20  0  0  0  0  0  0  0  0999 V2000
   -3.6030    1.9400    1.0430 N   0  0  0  0  0  0  0  0  0  0  0  0
   -2.5590    1.0350    0.6940 C   0  0  1  0  0  0  0  0  0  0  0  0
   -3.0970   -0.2590    0.0560 C   0  0  0  0  0  0  0  0  0  0  0  0
   -1.8740   -1.1480    0.0110 C   0  0  1  0  0  0  0  0  0  0  0  0
   -2.2790   -2.4720   -0.6120 C   0  0  0  0  0  0  0  0  0  0  0  0
   -2.6020   -2.2890   -1.9380 O   0  0  0  0  0  0  0  0  0  0  0  0
   -0.8050   -0.6650   -0.6490 O   0  0  0  0  0  0  0  0  0  0  0  0
   -0.5520    0.6570   -0.7280 C   0  0  2  0  0  0  0  0  0  0  0  0
    0.7520    1.1030   -0.1460 C   0  0  0  0  0  0  0  0  0  0  0  0
    0.9480    2.3690   -0.1840 O   0  0  0  0  0  0  0  0  0  0  0  0
    1.7420    0.2910    0.4140 N   0  0  0  0  0  0  0  0  0  0  0  0
    1.5390   -1.1340    0.4500 C   0  0  0  0  0  0  0  0  0  0  0  0
    2.8670   -1.8140    0.7990 C   0  0  0  0  0  0  0  0  0  0  0  0
    3.9060   -1.4020   -0.2170 C   0  0  0  0  0  0  0  0  0  0  0  0
    4.6710   -0.3410    0.1960 O   0  0  0  0  0  0  0  0  0  0  0  0
    4.0720    0.8930   -0.0510 C   0  0  0  0  0  0  0  0  0  0  0  0
    2.9150    1.0190    0.9210 C   0  0  0  0  0  0  0  0  0  0  0  0
   -1.6600    1.6010   -0.3880 C   0  0  2  0  0  0  0  0  0  0  0  0
   -1.1570    2.8480   -0.0360 O   0  0  0  0  0  0  0  0  0  0  0  0
  2  1  1  6
  2  3  1  0
  2 18  1  0
  3  4  1  0
  4  5  1  6
  4  7  1  0
  5  6  1  0
  7  8  1  0
  8  9  1  1
  8 18  1  0
  9 10  2  0
  9 11  1  0
 11 12  1  0
 11 17  1  0
 12 13  1  0
 13 14  1  0
 14 15  1  0
 15 16  1  0
 16 17  1  0
 18 19  1  1
M  CHG  1   1   1
M  END
