
     RDKit          3D

 20 21  0  0  0  0  0  0  0  0999 V2000
    6.4420   -0.8690    0.1500 C   0  0  0  0  0  0  0  0  0  0  0  0
    6.1630    0.2370   -0.5840 O   0  0  0  0  0  0  0  0  0  0  0  0
    5.0600    0.9500   -0.1950 C   0  0  0  0  0  0  0  0  0  0  0  0
    3.8150    0.1780   -0.3630 C   0  0  0  0  0  0  0  0  0  0  0  0
    3.7900   -0.9500   -0.8790 O   0  0  0  0  0  0  0  0  0  0  0  0
    2.5740    0.7050    0.0670 O   0  0  0  0  0  0  0  0  0  0  0  0
    1.3980   -0.0690   -0.1130 C   0  0  0  0  0  0  0  0  0  0  0  0
    0.1790    0.6610    0.4070 C   0  0  2  0  0  0  0  0  0  0  0  0
    0.4310    0.8820    1.8210 N   0  0  0  0  0  0  0  0  0  0  0  0
   -1.0490   -0.1110    0.1260 C   0  0  1  0  0  0  0  0  0  0  0  0
   -2.3200    0.5640    0.6280 C   0  0  0  0  0  0  0  0  0  0  0  0
   -3.5180   -0.3260    0.3940 C   0  0  1  0  0  0  0  0  0  0  0  0
   -3.9950   -0.9540    1.6960 C   0  0  0  0  0  0  0  0  0  0  0  0
   -4.6460    0.4530   -0.2380 C   0  0  0  0  0  0  0  0  0  0  0  0
   -4.6190    0.1840   -1.6060 O   0  0  0  0  0  0  0  0  0  0  0  0
   -3.3400    0.2740   -1.9850 O   0  0  0  0  0  0  0  0  0  0  0  0
   -2.6610   -0.8550   -1.6150 C   0  0  2  0  0  0  0  0  0  0  0  0
   -3.2160   -1.3820   -0.4640 O   0  0  0  0  0  0  0  0  0  0  0  0
   -1.1930   -0.5710   -1.2900 C   0  0  1  0  0  0  0  0  0  0  0  0
   -0.6560    0.3050   -2.2830 N   0  0  0  0  0  0  0  0  0  0  0  0
  1  2  1  0
  2  3  1  0
  3  4  1  0
  4  5  2  0
  4  6  1  0
  6  7  1  0
  7  8  1  0
  8  9  1  1
  8 10  1  0
 10 11  1  6
 10 19  1  0
 11 12  1  0
 12 13  1  1
 12 14  1  0
 12 18  1  0
 14 15  1  0
 15 16  1  0
 17 16  1  1
 17 18  1  0
 17 19  1  0
 19 20  1  6
M  CHG  2   9   1  20   1
M  END
