
     RDKit          3D

 20 21  0  0  0  0  0  0  0  0999 V2000
   -6.5270    0.7630   -0.0570 N   0  0  0  0  0  0  0  0  0  0  0  0
   -5.2330    1.2340    0.3810 C   0  0  0  0  0  0  0  0  0  0  0  0
   -4.1200    0.2970   -0.0260 C   0  0  2  0  0  0  0  0  0  0  0  0
   -4.2910   -1.0750    0.6230 C   0  0  0  0  0  0  0  0  0  0  0  0
   -3.3600   -1.9170   -0.0830 O   0  0  0  0  0  0  0  0  0  0  0  0
   -2.2130   -1.2140   -0.5150 C   0  0  0  0  0  0  0  0  0  0  0  0
   -1.5480   -1.5350   -1.5090 O   0  0  0  0  0  0  0  0  0  0  0  0
   -1.8660   -0.0390    0.3320 C   0  0  1  0  0  0  0  0  0  0  0  0
   -0.6340    0.6610   -0.1410 C   0  0  0  0  0  0  0  0  0  0  0  0
    0.5010   -0.2910   -0.0980 C   0  0  0  0  0  0  0  0  0  0  0  0
    0.3390   -1.4640    0.3070 O   0  0  0  0  0  0  0  0  0  0  0  0
    1.8020    0.1060   -0.5150 N   0  0  0  0  0  0  0  0  0  0  0  0
    2.9300   -0.8040   -0.4840 C   0  0  0  0  0  0  0  0  0  0  0  0
    4.1420   -0.0530   -0.9930 C   0  0  1  0  0  0  0  0  0  0  0  0
    4.4060    1.1090   -0.0580 C   0  0  0  0  0  0  0  0  0  0  0  0
    5.7220    0.7960    0.6510 C   0  0  0  0  0  0  0  0  0  0  0  0
    5.5290   -0.4440    1.2770 O   0  0  0  0  0  0  0  0  0  0  0  0
    5.5310   -1.4010    0.2680 C   0  0  0  0  0  0  0  0  0  0  0  0
    5.2520   -0.8960   -0.9780 O   0  0  0  0  0  0  0  0  0  0  0  0
   -2.9330    0.8290    0.4330 O   0  0  0  0  0  0  0  0  0  0  0  0
  1  2  1  0
  3  2  1  1
  3  4  1  0
  3 20  1  0
  4  5  1  0
  5  6  1  0
  6  7  2  0
  6  8  1  0
  8  9  1  6
  8 20  1  0
  9 10  1  0
 10 11  2  0
 10 12  1  0
 12 13  1  0
 14 13  1  1
 14 15  1  0
 14 19  1  0
 15 16  1  0
 16 17  1  0
 17 18  1  0
 18 19  1  0
M  CHG  1   1   1
M  END
