
     RDKit          3D

 20 21  0  0  0  0  0  0  0  0999 V2000
   -4.3170   -1.6710   -0.9840 C   0  0  0  0  0  0  0  0  0  0  0  0
   -3.6630   -0.5090   -0.2910 C   0  0  2  0  0  0  0  0  0  0  0  0
   -2.3740   -0.1820   -1.0500 C   0  0  0  0  0  0  0  0  0  0  0  0
   -1.7300    0.9690   -0.3120 C   0  0  2  0  0  0  0  0  0  0  0  0
   -0.3880    0.5140    0.1960 C   0  0  0  0  0  0  0  0  0  0  0  0
    0.4080    0.1310   -0.8860 O   0  0  0  0  0  0  0  0  0  0  0  0
    1.7170   -0.3320   -0.6240 C   0  0  0  0  0  0  0  0  0  0  0  0
    1.9430   -1.6090   -0.4140 C   0  0  0  0  0  0  0  0  0  0  0  0
    0.8330   -2.4790   -0.4640 O   0  0  0  0  0  0  0  0  0  0  0  0
    3.2910   -2.1210   -0.1400 C   0  0  2  0  0  0  0  0  0  0  0  0
    3.2390   -2.6740    1.1580 O   0  0  0  0  0  0  0  0  0  0  0  0
    4.2610   -1.1240   -0.1290 O   0  0  0  0  0  0  0  0  0  0  0  0
    4.0560    0.2180   -0.3440 C   0  0  0  0  0  0  0  0  0  0  0  0
    5.0770    1.2020   -0.3240 N   0  0  0  0  0  0  0  0  0  0  0  0
    2.8100    0.6220   -0.5890 C   0  0  0  0  0  0  0  0  0  0  0  0
    2.5630    2.0080   -0.8160 N   0  0  0  0  0  0  0  0  0  0  0  0
   -2.5580    1.4630    0.8280 C   0  0  2  0  0  0  0  0  0  0  0  0
   -1.7420    2.3180    1.5970 O   0  0  0  0  0  0  0  0  0  0  0  0
   -3.1240    0.3850    1.6940 C   0  0  0  0  0  0  0  0  0  0  0  0
   -3.2730   -0.8210    1.0110 O   0  0  0  0  0  0  0  0  0  0  0  0
  2  1  1  6
  2  3  1  0
  2 20  1  0
  3  4  1  0
  4  5  1  1
  4 17  1  0
  5  6  1  0
  6  7  1  0
  7  8  2  0
  7 15  1  0
  8  9  1  0
  8 10  1  0
 10 11  1  1
 10 12  1  0
 12 13  1  0
 13 14  1  0
 13 15  2  0
 15 16  1  0
 17 18  1  1
 17 19  1  0
 19 20  1  0
M  CHG  1  14   1
M  END
