
     RDKit          3D

 20 21  0  0  0  0  0  0  0  0999 V2000
   -3.1980    1.7770   -0.9510 N   0  0  0  0  0  0  0  0  0  0  0  0
   -2.2610    0.7140   -1.0020 C   0  0  0  0  0  0  0  0  0  0  0  0
   -1.2130    0.8090    0.0550 C   0  0  2  0  0  0  0  0  0  0  0  0
   -1.8390    0.7890    1.3900 C   0  0  0  0  0  0  0  0  0  0  0  0
   -2.6780   -0.4450    1.5730 C   0  0  0  0  0  0  0  0  0  0  0  0
   -3.2360   -0.5100    2.8560 O   0  0  0  0  0  0  0  0  0  0  0  0
   -0.4880    2.1560   -0.2190 C   0  0  0  0  0  0  0  0  0  0  0  0
    0.1280    1.7750   -1.5770 C   0  0  1  0  0  0  0  0  0  0  0  0
    1.3850    2.3670   -1.7020 O   0  0  0  0  0  0  0  0  0  0  0  0
    0.3440    0.2480   -1.4890 C   0  0  0  0  0  0  0  0  0  0  0  0
   -0.0460   -0.0160   -0.1250 N   0  0  0  0  0  0  0  0  0  0  0  0
    0.5680   -0.8610    0.7880 C   0  0  0  0  0  0  0  0  0  0  0  0
    0.1840   -0.9600    2.0190 O   0  0  0  0  0  0  0  0  0  0  0  0
    1.7160   -1.7570    0.5280 C   0  0  2  0  0  0  0  0  0  0  0  0
    2.8100   -1.4480    1.5390 C   0  0  0  0  0  0  0  0  0  0  0  0
    3.8840   -2.3840    1.4110 O   0  0  0  0  0  0  0  0  0  0  0  0
    4.1380   -2.7740    0.0820 C   0  0  0  0  0  0  0  0  0  0  0  0
    4.8190   -3.7720   -0.2150 O   0  0  0  0  0  0  0  0  0  0  0  0
    3.5130   -1.8760   -0.9480 C   0  0  0  0  0  0  0  0  0  0  0  0
    2.1610   -1.7770   -0.7530 O   0  0  0  0  0  0  0  0  0  0  0  0
  1  2  1  0
  3  2  1  6
  3  4  1  0
  3  7  1  0
  3 11  1  0
  4  5  1  0
  5  6  1  0
  7  8  1  0
  8  9  1  1
  8 10  1  0
 10 11  1  0
 11 12  1  0
 12 13  2  0
 14 12  1  6
 14 15  1  0
 14 20  1  0
 15 16  1  0
 16 17  1  0
 17 18  2  0
 17 19  1  0
 19 20  1  0
M  CHG  1   1   1
M  END
