
     RDKit          3D

 22 22  0  0  0  0  0  0  0  0999 V2000
    4.7270    0.5600    1.5110 O   0  0  0  0  0  0  0  0  0  0  0  0
    4.8120   -0.1200    0.3040 C   0  0  0  0  0  0  0  0  0  0  0  0
    3.7770    0.3790   -0.6730 C   0  0  0  0  0  0  0  0  0  0  0  0
    2.3740    0.1690   -0.0920 C   0  0  1  0  0  0  0  0  0  0  0  0
    1.4590    0.6540   -1.0490 O   0  0  0  0  0  0  0  0  0  0  0  0
    1.0880    1.9630   -0.7180 C   0  0  0  0  0  0  0  0  0  0  0  0
   -0.3980    2.1010   -1.0070 C   0  0  2  0  0  0  0  0  0  0  0  0
   -0.8250    3.3900   -0.6690 O   0  0  0  0  0  0  0  0  0  0  0  0
   -1.0500    1.2190   -0.1540 O   0  0  0  0  0  0  0  0  0  0  0  0
   -2.4370    1.3940   -0.1810 C   0  0  2  0  0  0  0  0  0  0  0  0
   -2.8090    2.6330    0.3440 O   0  0  0  0  0  0  0  0  0  0  0  0
   -3.0210    0.2510    0.6330 C   0  0  1  0  0  0  0  0  0  0  0  0
   -4.5250    0.1910    0.4950 C   0  0  0  0  0  0  0  0  0  0  0  0
   -5.1230    1.3570    0.9300 O   0  0  0  0  0  0  0  0  0  0  0  0
   -2.4300   -1.0330    0.1250 C   0  0  1  0  0  0  0  0  0  0  0  0
   -1.6240   -0.8220   -1.0010 O   0  0  0  0  0  0  0  0  0  0  0  0
   -1.5880   -1.6040    1.0970 O   0  0  0  0  0  0  0  0  0  0  0  0
   -1.1270   -2.8270    0.6390 C   0  0  0  0  0  0  0  0  0  0  0  0
    0.3630   -2.7880    0.3610 C   0  0  0  0  0  0  0  0  0  0  0  0
    0.7520   -1.5300   -0.0660 O   0  0  0  0  0  0  0  0  0  0  0  0
    2.1160   -1.2840    0.1840 C   0  0  1  0  0  0  0  0  0  0  0  0
    2.8650   -2.0570   -0.6920 O   0  0  0  0  0  0  0  0  0  0  0  0
  1  2  1  0
  2  3  1  0
  4  3  1  6
  4  5  1  0
  4 21  1  0
  5  6  1  0
  6  7  1  0
  7  8  1  1
  7  9  1  0
  9 10  1  0
 10 11  1  1
 10 12  1  0
 12 13  1  6
 12 15  1  0
 13 14  1  0
 15 16  1  6
 15 17  1  0
 17 18  1  0
 18 19  1  0
 19 20  1  0
 20 21  1  0
 21 22  1  6
M  END
