
     RDKit          3D

 21 22  0  0  0  0  0  0  0  0999 V2000
   -5.9650    1.1430    1.1660 N   0  0  0  0  0  0  0  0  0  0  0  0
   -5.0640    1.3300   -0.3140 S   0  0  1  0  0  0  0  0  0  0  0  0
   -5.9200    0.9980   -1.5020 O   0  0  0  0  0  0  0  0  0  0  0  0
   -4.4960    2.7130   -0.4150 O   0  0  0  0  0  0  0  0  0  0  0  0
   -3.7170    0.2140   -0.2010 C   0  0  0  0  0  0  0  0  0  0  0  0
   -2.5280    0.6130    0.3740 C   0  0  0  0  0  0  0  0  0  0  0  0
   -1.4310   -0.2350    0.4860 C   0  0  0  0  0  0  0  0  0  0  0  0
   -1.5100   -1.5270    0.0140 C   0  0  0  0  0  0  0  0  0  0  0  0
   -0.3930   -2.4950    0.1020 C   0  0  0  0  0  0  0  0  0  0  0  0
    0.7230   -2.0280    0.8660 N   0  0  0  0  0  0  0  0  0  0  0  0
    1.6190   -1.0880    0.2970 C   0  0  0  0  0  0  0  0  0  0  0  0
    1.4370   -0.6550   -0.8870 O   0  0  0  0  0  0  0  0  0  0  0  0
    2.7930   -0.5650    1.0290 C   0  0  0  0  0  0  0  0  0  0  0  0
    3.5390    0.3780    0.1780 C   0  0  0  0  0  0  0  0  0  0  0  0
    3.2750    1.7280    0.1630 C   0  0  0  0  0  0  0  0  0  0  0  0
    3.9950    2.5830   -0.6420 C   0  0  0  0  0  0  0  0  0  0  0  0
    5.0060    2.1070   -1.4600 C   0  0  0  0  0  0  0  0  0  0  0  0
    5.2520    0.7590   -1.4290 C   0  0  0  0  0  0  0  0  0  0  0  0
    4.5540   -0.1240   -0.6390 C   0  0  0  0  0  0  0  0  0  0  0  0
   -2.7050   -1.9240   -0.5620 C   0  0  0  0  0  0  0  0  0  0  0  0
   -3.7960   -1.0770   -0.6720 C   0  0  0  0  0  0  0  0  0  0  0  0
  2  1  1  1
  2  3  2  0
  2  4  2  0
  2  5  1  0
  5  6  2  0
  5 21  1  0
  6  7  1  0
  7  8  2  0
  8  9  1  0
  8 20  1  0
  9 10  1  0
 10 11  1  0
 11 12  2  0
 11 13  1  0
 13 14  1  0
 14 15  2  0
 14 19  1  0
 15 16  1  0
 16 17  2  0
 17 18  1  0
 18 19  2  0
 20 21  2  0
M  END
