
     RDKit          3D

 22 22  0  0  0  0  0  0  0  0999 V2000
   -5.1380   -1.0800   -1.2690 O   0  0  0  0  0  0  0  0  0  0  0  0
   -4.0670   -1.8730   -0.8800 C   0  0  0  0  0  0  0  0  0  0  0  0
   -2.8600   -1.2230   -0.8910 O   0  0  0  0  0  0  0  0  0  0  0  0
   -2.7760   -0.1260   -0.0650 C   0  0  2  0  0  0  0  0  0  0  0  0
   -2.7190    0.9900   -0.8740 O   0  0  0  0  0  0  0  0  0  0  0  0
   -1.8130   -0.2190    1.0450 C   0  0  0  0  0  0  0  0  0  0  0  0
   -0.3550   -0.4260    0.7130 C   0  0  1  0  0  0  0  0  0  0  0  0
    0.2710   -0.4780    1.9940 O   0  0  0  0  0  0  0  0  0  0  0  0
   -0.1900   -1.7590    0.1040 C   0  0  0  0  0  0  0  0  0  0  0  0
    0.5680   -2.6650    0.8890 O   0  0  0  0  0  0  0  0  0  0  0  0
    1.8960   -2.7130    0.5080 C   0  0  0  0  0  0  0  0  0  0  0  0
    2.4300   -1.4710    0.8990 O   0  0  0  0  0  0  0  0  0  0  0  0
    2.4810   -0.5950   -0.1750 C   0  0  2  0  0  0  0  0  0  0  0  0
    3.9920   -0.1990   -0.2300 C   0  0  0  0  0  0  0  0  0  0  0  0
    4.7610   -1.3210   -0.4300 O   0  0  0  0  0  0  0  0  0  0  0  0
    1.7620    0.6840   -0.0110 C   0  0  0  0  0  0  0  0  0  0  0  0
    0.2760    0.7160    0.0150 C   0  0  1  0  0  0  0  0  0  0  0  0
   -0.1570    0.8720   -1.3020 O   0  0  0  0  0  0  0  0  0  0  0  0
   -0.0770    2.0330    0.7460 C   0  0  0  0  0  0  0  0  0  0  0  0
    0.4940    3.2360    0.1110 C   0  0  2  0  0  0  0  0  0  0  0  0
    1.8750    3.3070    0.0280 O   0  0  0  0  0  0  0  0  0  0  0  0
    0.1300    4.3750    0.8770 O   0  0  0  0  0  0  0  0  0  0  0  0
  1  2  1  0
  2  3  1  0
  3  4  1  0
  4  5  1  6
  4  6  1  0
  6  7  1  0
  7  8  1  1
  7  9  1  0
  7 17  1  0
  9 10  1  0
 10 11  1  0
 11 12  1  0
 12 13  1  0
 13 14  1  1
 13 16  1  0
 14 15  1  0
 16 17  1  0
 17 18  1  6
 17 19  1  0
 19 20  1  0
 20 21  1  1
 20 22  1  0
M  END
