
     RDKit          3D

 22 23  0  0  0  0  0  0  0  0999 V2000
   -0.8780   -0.2260   -1.8610 O   0  0  0  0  0  0  0  0  0  0  0  0
   -0.4380   -0.3630   -0.6910 C   0  0  0  0  0  0  0  0  0  0  0  0
   -1.3410   -0.3220    0.3350 O   0  0  0  0  0  0  0  0  0  0  0  0
   -2.7120   -0.1460    0.2880 C   0  0  2  0  0  0  0  0  0  0  0  0
   -3.1790   -0.2130    1.7610 C   0  0  0  0  0  0  0  0  0  0  0  0
   -4.5560   -0.0440    1.8300 O   0  0  0  0  0  0  0  0  0  0  0  0
   -3.3320   -1.2950   -0.4880 C   0  0  0  0  0  0  0  0  0  0  0  0
   -3.0710   -2.5240    0.0930 O   0  0  0  0  0  0  0  0  0  0  0  0
   -3.2160    1.1490   -0.2470 C   0  0  0  0  0  0  0  0  0  0  0  0
   -2.8470    1.4170   -1.5570 O   0  0  0  0  0  0  0  0  0  0  0  0
    1.0390   -0.5630   -0.4450 C   0  0  2  0  0  0  0  0  0  0  0  0
    1.2250   -1.8740    0.2440 C   0  0  0  0  0  0  0  0  0  0  0  0
    2.4310   -1.9860    0.9200 O   0  0  0  0  0  0  0  0  0  0  0  0
    3.4050   -1.1370    0.4090 C   0  0  2  0  0  0  0  0  0  0  0  0
    4.5840   -1.3990    1.1220 O   0  0  0  0  0  0  0  0  0  0  0  0
    3.0080    0.2850    0.7340 C   0  0  1  0  0  0  0  0  0  0  0  0
    3.1830    0.5190    2.0960 O   0  0  0  0  0  0  0  0  0  0  0  0
    3.8540    1.1250    0.0320 O   0  0  0  0  0  0  0  0  0  0  0  0
    3.2010    1.5400   -1.1070 C   0  0  0  0  0  0  0  0  0  0  0  0
    1.7960    1.8000   -0.5930 C   0  0  2  0  0  0  0  0  0  0  0  0
    1.7900    2.9400    0.1820 O   0  0  0  0  0  0  0  0  0  0  0  0
    1.6000    0.6090    0.3320 C   0  0  1  0  0  0  0  0  0  0  0  0
  1  2  2  0
  2  3  1  0
 11  2  1  1
  3  4  1  0
  4  5  1  1
  4  7  1  0
  4  9  1  0
  5  6  1  0
  7  8  1  0
  9 10  1  0
 11 12  1  0
 22 11  1  6
 12 13  1  0
 13 14  1  0
 14 15  1  1
 14 16  1  0
 16 17  1  1
 16 18  1  0
 16 22  1  0
 18 19  1  0
 19 20  1  0
 20 21  1  1
 20 22  1  0
M  END
