
     RDKit          3D

 22 22  0  0  0  0  0  0  0  0999 V2000
   -1.9340    0.0060   -1.2530 C   0  0  0  0  0  0  0  0  0  0  0  0
   -1.4590   -0.3680    0.1080 C   0  0  2  0  0  0  0  0  0  0  0  0
   -2.5340   -0.3840    1.1700 C   0  0  1  0  0  0  0  0  0  0  0  0
   -1.8500   -0.7490    2.3590 O   0  0  0  0  0  0  0  0  0  0  0  0
   -2.9620    0.9320    1.3310 O   0  0  0  0  0  0  0  0  0  0  0  0
   -4.3160    1.1070    1.2360 C   0  0  0  0  0  0  0  0  0  0  0  0
   -4.9170    0.6950   -0.0800 C   0  0  0  0  0  0  0  0  0  0  0  0
   -6.3110    0.9210   -0.0540 O   0  0  0  0  0  0  0  0  0  0  0  0
   -0.5160    0.5950    0.5360 O   0  0  0  0  0  0  0  0  0  0  0  0
    0.7260    0.0200    0.4470 C   0  0  2  0  0  0  0  0  0  0  0  0
    1.6630    1.0290   -0.1820 C   0  0  0  0  0  0  0  0  0  0  0  0
    3.0420    0.3760   -0.2750 C   0  0  1  0  0  0  0  0  0  0  0  0
    2.9830   -0.7660   -1.0550 O   0  0  0  0  0  0  0  0  0  0  0  0
    4.0440    1.3560   -0.8750 C   0  0  1  0  0  0  0  0  0  0  0  0
    4.1280    2.5160   -0.1160 O   0  0  0  0  0  0  0  0  0  0  0  0
    5.4060    0.6940   -0.8330 C   0  0  1  0  0  0  0  0  0  0  0  0
    5.4040   -0.4860   -1.5780 O   0  0  0  0  0  0  0  0  0  0  0  0
    6.4010    1.5210   -1.3270 O   0  0  0  0  0  0  0  0  0  0  0  0
    0.6040   -1.1280   -0.3340 O   0  0  0  0  0  0  0  0  0  0  0  0
   -0.6170   -1.6170    0.1290 C   0  0  2  0  0  0  0  0  0  0  0  0
   -1.1580   -2.7150   -0.7470 C   0  0  0  0  0  0  0  0  0  0  0  0
   -0.1920   -3.7450   -0.7310 O   0  0  0  0  0  0  0  0  0  0  0  0
  2  1  1  6
  2  3  1  0
  2  9  1  0
  2 20  1  0
  3  4  1  1
  3  5  1  0
  5  6  1  0
  6  7  1  0
  7  8  1  0
  9 10  1  0
 10 11  1  6
 10 19  1  0
 11 12  1  0
 12 13  1  6
 12 14  1  0
 14 15  1  1
 14 16  1  0
 16 17  1  6
 16 18  1  0
 19 20  1  0
 20 21  1  6
 21 22  1  0
M  END
