
     RDKit          3D

 22 22  0  0  0  0  0  0  0  0999 V2000
   -4.1740    0.2290    1.5760 O   0  0  0  0  0  0  0  0  0  0  0  0
   -3.3250    1.0400    1.1700 C   0  0  0  0  0  0  0  0  0  0  0  0
   -3.8430    2.2100    0.5770 O   0  0  0  0  0  0  0  0  0  0  0  0
   -1.8570    0.8980    1.2470 C   0  0  0  0  0  0  0  0  0  0  0  0
   -1.3400    0.4140   -0.0600 C   0  0  2  0  0  0  0  0  0  0  0  0
   -1.7090    1.3800   -1.0280 O   0  0  0  0  0  0  0  0  0  0  0  0
   -2.1110   -0.8200   -0.4700 C   0  0  0  0  0  0  0  0  0  0  0  0
   -1.4860   -2.0780    0.0720 C   0  0  1  0  0  0  0  0  0  0  0  0
   -2.2330   -3.1590   -0.4400 O   0  0  0  0  0  0  0  0  0  0  0  0
   -0.0370   -2.1470   -0.3580 C   0  0  1  0  0  0  0  0  0  0  0  0
   -0.0620   -2.9350   -1.5450 O   0  0  0  0  0  0  0  0  0  0  0  0
    0.5390   -0.9750   -0.7040 O   0  0  0  0  0  0  0  0  0  0  0  0
    0.1520    0.1810   -0.0710 C   0  0  1  0  0  0  0  0  0  0  0  0
    0.7850    1.3130   -0.8550 C   0  0  0  0  0  0  0  0  0  0  0  0
    0.5870    2.6710   -0.3000 C   0  0  0  0  0  0  0  0  0  0  0  0
    1.2580    3.5810   -1.1570 O   0  0  0  0  0  0  0  0  0  0  0  0
    0.7200    0.1820    1.3320 C   0  0  0  0  0  0  0  0  0  0  0  0
    2.1860   -0.0230    1.3860 C   0  0  1  0  0  0  0  0  0  0  0  0
    2.5630    0.0130    2.7630 O   0  0  0  0  0  0  0  0  0  0  0  0
    2.5990   -1.2430    0.9100 O   0  0  0  0  0  0  0  0  0  0  0  0
    3.6650   -1.1300    0.0440 C   0  0  0  0  0  0  0  0  0  0  0  0
    4.0040   -2.4280   -0.3770 O   0  0  0  0  0  0  0  0  0  0  0  0
  1  2  2  0
  2  3  1  0
  2  4  1  0
  4  5  1  0
  5  6  1  6
  5  7  1  0
  5 13  1  0
  7  8  1  0
  8  9  1  6
  8 10  1  0
 10 11  1  6
 10 12  1  0
 12 13  1  0
 13 14  1  6
 13 17  1  0
 14 15  1  0
 15 16  1  0
 17 18  1  0
 18 19  1  1
 18 20  1  0
 20 21  1  0
 21 22  1  0
M  END
