
     RDKit          3D

 22 22  0  0  0  0  0  0  0  0999 V2000
   -2.9150    2.1210   -1.6180 O   0  0  0  0  0  0  0  0  0  0  0  0
   -3.6620    2.6630   -0.6050 C   0  0  0  0  0  0  0  0  0  0  0  0
   -4.0360    1.7060    0.4950 C   0  0  2  0  0  0  0  0  0  0  0  0
   -4.8050    2.4820    1.4070 O   0  0  0  0  0  0  0  0  0  0  0  0
   -2.9110    1.3350    1.2160 O   0  0  0  0  0  0  0  0  0  0  0  0
   -2.8190   -0.0110    1.4510 C   0  0  2  0  0  0  0  0  0  0  0  0
   -3.0320   -0.3460    2.9240 C   0  0  0  0  0  0  0  0  0  0  0  0
   -2.9420   -1.6930    3.1700 O   0  0  0  0  0  0  0  0  0  0  0  0
   -1.5890   -0.6890    0.9170 C   0  0  1  0  0  0  0  0  0  0  0  0
   -1.7360   -2.0570    1.2770 O   0  0  0  0  0  0  0  0  0  0  0  0
   -1.4410   -0.6750   -0.4400 O   0  0  0  0  0  0  0  0  0  0  0  0
   -0.1600   -0.2900   -0.8480 C   0  0  2  0  0  0  0  0  0  0  0  0
   -0.1720    0.7570   -1.7670 O   0  0  0  0  0  0  0  0  0  0  0  0
    0.4600   -1.4630   -1.5630 C   0  0  0  0  0  0  0  0  0  0  0  0
    1.7320   -1.2640   -2.0300 O   0  0  0  0  0  0  0  0  0  0  0  0
    2.6560   -0.9940   -1.0580 C   0  0  1  0  0  0  0  0  0  0  0  0
    3.7950   -2.0330   -1.0710 C   0  0  0  0  0  0  0  0  0  0  0  0
    4.9260   -1.3550   -0.3260 C   0  0  1  0  0  0  0  0  0  0  0  0
    6.1210   -1.4130   -1.0760 O   0  0  0  0  0  0  0  0  0  0  0  0
    4.5570    0.0930   -0.2110 C   0  0  0  0  0  0  0  0  0  0  0  0
    3.4460    0.2640   -1.2570 C   0  0  2  0  0  0  0  0  0  0  0  0
    2.7500    1.4300   -1.0490 O   0  0  0  0  0  0  0  0  0  0  0  0
  1  2  1  0
  2  3  1  0
  3  4  1  1
  3  5  1  0
  5  6  1  0
  6  7  1  1
  6  9  1  0
  7  8  1  0
  9 10  1  6
  9 11  1  0
 11 12  1  0
 12 13  1  6
 12 14  1  0
 14 15  1  0
 16 15  1  6
 16 17  1  0
 16 21  1  0
 17 18  1  0
 18 19  1  6
 18 20  1  0
 20 21  1  0
 21 22  1  1
M  END
