
     RDKit          3D

 21 24  0  0  0  0  0  0  0  0999 V2000
    5.4340    1.1190   -0.1400 C   0  0  0  0  0  0  0  0  0  0  0  0
    4.0650    1.3000   -0.0120 O   0  0  0  0  0  0  0  0  0  0  0  0
    3.0980    0.3350   -0.0810 C   0  0  0  0  0  0  0  0  0  0  0  0
    3.3160   -1.0060   -0.2940 C   0  0  0  0  0  0  0  0  0  0  0  0
    2.2620   -1.9000   -0.3470 C   0  0  0  0  0  0  0  0  0  0  0  0
    0.9610   -1.4710   -0.1870 C   0  0  0  0  0  0  0  0  0  0  0  0
   -0.0720   -2.3410   -0.2380 N   0  0  0  0  0  0  0  0  0  0  0  0
   -1.3470   -1.9550   -0.0860 C   0  0  0  0  0  0  0  0  0  0  0  0
   -2.2150   -2.8330   -0.1500 O   0  0  0  0  0  0  0  0  0  0  0  0
   -1.6260   -0.6350    0.1280 C   0  0  0  0  0  0  0  0  0  0  0  0
   -2.9470   -0.2080    0.2890 C   0  0  0  0  0  0  0  0  0  0  0  0
   -3.2170    1.1490    0.5090 C   0  0  0  0  0  0  0  0  0  0  0  0
   -2.1880    2.0530    0.5650 C   0  0  0  0  0  0  0  0  0  0  0  0
   -0.8790    1.6430    0.4070 C   0  0  0  0  0  0  0  0  0  0  0  0
   -0.6020    0.3180    0.1920 C   0  0  0  0  0  0  0  0  0  0  0  0
    0.6940   -0.1260    0.0300 C   0  0  0  0  0  0  0  0  0  0  0  0
    1.7670    0.7420    0.0780 C   0  0  0  0  0  0  0  0  0  0  0  0
   -4.6560    1.3190    0.6410 C   0  0  0  0  0  0  0  0  0  0  0  0
   -5.2320    0.1360    0.5100 C   0  0  0  0  0  0  0  0  0  0  0  0
   -4.2180   -0.8850    0.2850 C   0  0  0  0  0  0  0  0  0  0  0  0
   -4.4730   -2.0830    0.1280 O   0  0  0  0  0  0  0  0  0  0  0  0
  1  2  1  0
  2  3  1  0
  3  4  2  0
  3 17  1  0
  4  5  1  0
  5  6  2  0
  6  7  1  0
  6 16  1  0
  7  8  1  0
  8  9  2  0
  8 10  1  0
 10 11  2  0
 10 15  1  0
 11 12  1  0
 11 20  1  0
 12 13  2  0
 12 18  1  0
 13 14  1  0
 14 15  2  0
 15 16  1  0
 16 17  2  0
 18 19  2  0
 19 20  1  0
 20 21  2  0
M  END
