
     RDKit          3D

 20 24  0  0  0  0  0  0  0  0999 V2000
    0.1930    2.0500   -0.0980 O   0  0  0  0  0  0  0  0  0  0  0  0
    0.5090    0.8850   -0.0760 C   0  0  0  0  0  0  0  0  0  0  0  0
    1.8820    0.6410   -0.1740 C   0  0  0  0  0  0  0  0  0  0  0  0
    2.7880    1.6820   -0.2880 C   0  0  0  0  0  0  0  0  0  0  0  0
    4.1570    1.4670   -0.3880 C   0  0  0  0  0  0  0  0  0  0  0  0
    4.6390    0.1670   -0.3730 C   0  0  0  0  0  0  0  0  0  0  0  0
    3.7560   -0.8720   -0.2600 C   0  0  0  0  0  0  0  0  0  0  0  0
    2.3930   -0.6330   -0.1620 C   0  0  0  0  0  0  0  0  0  0  0  0
    1.4880   -1.6520   -0.0490 C   0  0  0  0  0  0  0  0  0  0  0  0
    0.1330   -1.4160    0.0480 C   0  0  0  0  0  0  0  0  0  0  0  0
   -0.3320   -0.1370    0.0330 N   0  0  0  0  0  0  0  0  0  0  0  0
   -1.7560    0.0770    0.1360 C   0  0  0  0  0  0  0  0  0  0  0  0
   -2.2770    1.3310    0.1260 C   0  0  0  0  0  0  0  0  0  0  0  0
   -1.5390    2.4720    0.0210 O   0  0  0  0  0  0  0  0  0  0  0  0
   -3.6720    1.4700    0.2310 C   0  0  0  0  0  0  0  0  0  0  0  0
   -4.5350    0.4240    0.3420 C   0  0  0  0  0  0  0  0  0  0  0  0
   -3.9850   -0.8280    0.3500 C   0  0  0  0  0  0  0  0  0  0  0  0
   -2.6260   -1.0310    0.2500 C   0  0  0  0  0  0  0  0  0  0  0  0
   -2.0890   -2.2880    0.2600 O   0  0  0  0  0  0  0  0  0  0  0  0
   -0.7510   -2.6040    0.1670 C   0  0  0  0  0  0  0  0  0  0  0  0
  1  2  2  0
  2  3  1  0
  2 11  1  0
  3  4  2  0
  3  8  1  0
  4  5  1  0
  5  6  2  0
  6  7  1  0
  7  8  2  0
  8  9  1  0
  9 10  2  0
 10 11  1  0
 10 20  1  0
 11 12  1  0
 12 13  2  0
 12 18  1  0
 13 14  1  0
 13 15  1  0
 15 16  2  0
 16 17  1  0
 17 18  2  0
 18 19  1  0
 19 20  1  0
 14  1  1  0
M  END
