
     RDKit          3D

 21 24  0  0  0  0  0  0  0  0999 V2000
    4.8590   -0.1410    1.0950 C   0  0  0  0  0  0  0  0  0  0  0  0
    3.3730   -0.1810    0.9160 C   0  0  0  0  0  0  0  0  0  0  0  0
    2.5630   -0.7070    1.9010 C   0  0  0  0  0  0  0  0  0  0  0  0
    1.1960   -0.7370    1.7220 C   0  0  0  0  0  0  0  0  0  0  0  0
    0.6440   -0.2380    0.5530 C   0  0  0  0  0  0  0  0  0  0  0  0
    1.4360    0.2950   -0.4490 C   0  0  0  0  0  0  0  0  0  0  0  0
    0.8900    0.7820   -1.5900 N   0  0  0  0  0  0  0  0  0  0  0  0
   -0.4340    0.7750   -1.8110 C   0  0  0  0  0  0  0  0  0  0  0  0
   -0.9670    1.2210   -2.8610 O   0  0  0  0  0  0  0  0  0  0  0  0
   -1.2610    0.2570   -0.8470 C   0  0  0  0  0  0  0  0  0  0  0  0
   -2.6320    0.1110   -0.7780 C   0  0  0  0  0  0  0  0  0  0  0  0
   -3.6430    0.4380   -1.6580 C   0  0  0  0  0  0  0  0  0  0  0  0
   -4.9450    0.1620   -1.2980 C   0  0  0  0  0  0  0  0  0  0  0  0
   -5.2160   -0.4340   -0.0680 C   0  0  0  0  0  0  0  0  0  0  0  0
   -4.1810   -0.7460    0.7860 C   0  0  0  0  0  0  0  0  0  0  0  0
   -4.4270   -1.3420    2.0190 O   0  0  0  0  0  0  0  0  0  0  0  0
   -2.8690   -0.4800    0.4470 C   0  0  0  0  0  0  0  0  0  0  0  0
   -1.7250   -0.6750    1.0700 O   0  0  0  0  0  0  0  0  0  0  0  0
   -0.7210   -0.2510    0.3390 C   0  0  0  0  0  0  0  0  0  0  0  0
    2.8040    0.3110   -0.2410 C   0  0  0  0  0  0  0  0  0  0  0  0
    3.6940    0.8780   -1.2990 C   0  0  0  0  0  0  0  0  0  0  0  0
  1  2  1  0
  2  3  2  0
  2 20  1  0
  3  4  1  0
  4  5  2  0
  5  6  1  0
  5 19  1  0
  6  7  1  0
  6 20  2  0
  7  8  1  0
  8  9  2  0
  8 10  1  0
 10 11  1  0
 10 19  2  0
 11 12  2  0
 11 17  1  0
 12 13  1  0
 13 14  2  0
 14 15  1  0
 15 16  1  0
 15 17  2  0
 17 18  1  0
 18 19  1  0
 20 21  1  0
M  END
