
     RDKit          3D

 19 22  0  0  0  0  0  0  0  0999 V2000
    5.4650    0.2560    0.1530 C   0  0  0  0  0  0  0  0  0  0  0  0
    4.1980    0.7070    0.7700 C   0  0  0  0  0  0  0  0  0  0  0  0
    4.0950    1.5100    1.8400 N   0  0  0  0  0  0  0  0  0  0  0  0
    2.8120    1.6810    2.0850 N   0  0  0  0  0  0  0  0  0  0  0  0
    2.0670    1.0010    1.1910 C   0  0  0  0  0  0  0  0  0  0  0  0
    2.9360    0.3730    0.3430 C   0  0  0  0  0  0  0  0  0  0  0  0
    2.4940   -0.4750   -0.7660 C   0  0  0  0  0  0  0  0  0  0  0  0
    1.0480   -0.6020   -0.9920 C   0  0  0  0  0  0  0  0  0  0  0  0
    0.2130    0.0570   -0.0620 N   0  0  0  0  0  0  0  0  0  0  0  0
    0.6460    0.8030    0.9360 C   0  0  0  0  0  0  0  0  0  0  0  0
   -0.4250    1.3090    1.6430 N   0  0  0  0  0  0  0  0  0  0  0  0
   -1.5490    0.8680    1.0710 C   0  0  0  0  0  0  0  0  0  0  0  0
   -1.1460    0.0860    0.0080 C   0  0  0  0  0  0  0  0  0  0  0  0
   -2.2020   -0.5240   -0.7900 C   0  0  2  0  0  0  0  0  0  0  0  0
   -1.7880   -1.6830   -1.6590 C   0  0  0  0  0  0  0  0  0  0  0  0
   -2.7600    0.5350   -1.7190 C   0  0  0  0  0  0  0  0  0  0  0  0
   -3.2960   -1.0380    0.1100 C   0  0  0  0  0  0  0  0  0  0  0  0
   -3.6810   -0.2100    1.1840 N   0  0  0  0  0  0  0  0  0  0  0  0
   -3.0090    1.0340    1.3230 C   0  0  0  0  0  0  0  0  0  0  0  0
  1  2  1  0
  2  3  1  0
  2  6  2  0
  3  4  1  0
  4  5  2  0
  5  6  1  0
  5 10  1  0
  6  7  1  0
  7  8  1  0
  8  9  1  0
  9 10  1  0
  9 13  1  0
 10 11  2  0
 11 12  1  0
 12 13  2  0
 12 19  1  0
 13 14  1  0
 14 15  1  6
 14 16  1  0
 14 17  1  0
 17 18  1  0
 18 19  1  0
M  CHG  1  18   1
M  END
