
     RDKit          3D

 21 24  0  0  0  0  0  0  0  0999 V2000
   -5.3150    0.6800   -0.6280 C   0  0  0  0  0  0  0  0  0  0  0  0
   -4.2180    0.2090   -0.0890 C   0  0  0  0  0  0  0  0  0  0  0  0
   -3.7370   -1.1920   -0.1080 C   0  0  0  0  0  0  0  0  0  0  0  0
   -2.2400   -0.9860   -0.1170 C   0  0  0  0  0  0  0  0  0  0  0  0
   -1.2450   -1.8700   -0.5000 C   0  0  0  0  0  0  0  0  0  0  0  0
    0.0940   -1.5110   -0.4570 C   0  0  0  0  0  0  0  0  0  0  0  0
    1.0350   -2.3440   -0.8180 O   0  0  0  0  0  0  0  0  0  0  0  0
    2.2980   -2.0260   -0.7840 C   0  0  0  0  0  0  0  0  0  0  0  0
    3.2200   -2.8220   -1.1310 O   0  0  0  0  0  0  0  0  0  0  0  0
    2.6960   -0.7720   -0.3560 C   0  0  0  0  0  0  0  0  0  0  0  0
    4.0170   -0.4150   -0.3120 C   0  0  0  0  0  0  0  0  0  0  0  0
    4.4020    0.8270    0.1120 C   0  0  0  0  0  0  0  0  0  0  0  0
    5.7900    1.1910    0.1550 N   0  0  0  0  0  0  0  0  0  0  0  0
    3.4310    1.7090    0.4930 C   0  0  0  0  0  0  0  0  0  0  0  0
    2.0880    1.3960    0.4660 C   0  0  0  0  0  0  0  0  0  0  0  0
    1.7280    0.1420    0.0360 C   0  0  0  0  0  0  0  0  0  0  0  0
    0.3930   -0.2350   -0.0150 C   0  0  0  0  0  0  0  0  0  0  0  0
   -0.6040    0.6430    0.3670 C   0  0  0  0  0  0  0  0  0  0  0  0
   -1.9400    0.2750    0.3200 C   0  0  0  0  0  0  0  0  0  0  0  0
   -3.2060    0.9640    0.6610 C   0  0  2  0  0  0  0  0  0  0  0  0
   -3.4250    0.7840    2.0360 O   0  0  0  0  0  0  0  0  0  0  0  0
  1  2  2  0
  2  3  1  0
  2 20  1  0
  3  4  1  0
  4  5  2  0
  4 19  1  0
  5  6  1  0
  6  7  1  0
  6 17  2  0
  7  8  1  0
  8  9  2  0
  8 10  1  0
 10 11  2  0
 10 16  1  0
 11 12  1  0
 12 13  1  0
 12 14  2  0
 14 15  1  0
 15 16  2  0
 16 17  1  0
 17 18  1  0
 18 19  2  0
 19 20  1  0
 20 21  1  1
M  END
