
     RDKit          3D

 21 23  0  0  0  0  0  0  0  0999 V2000
   -6.3630   -0.4530    0.8340 C   0  0  0  0  0  0  0  0  0  0  0  0
   -4.8930   -0.2400    1.0100 C   0  0  0  0  0  0  0  0  0  0  0  0
   -4.0690   -0.4110   -0.0100 C   0  0  0  0  0  0  0  0  0  0  0  0
   -2.6230   -0.2110    0.1230 C   0  0  0  0  0  0  0  0  0  0  0  0
   -1.6030   -0.3180   -0.7360 C   0  0  0  0  0  0  0  0  0  0  0  0
   -1.7820   -0.6790   -2.0470 O   0  0  0  0  0  0  0  0  0  0  0  0
   -0.3490   -0.0070   -0.0870 C   0  0  0  0  0  0  0  0  0  0  0  0
    0.9020    0.0250   -0.5150 C   0  0  0  0  0  0  0  0  0  0  0  0
    1.2300   -0.2900   -1.8690 C   0  0  0  0  0  0  0  0  0  0  0  0
    2.4270   -0.2790   -2.3530 C   0  0  0  0  0  0  0  0  0  0  0  0
    3.6130    0.0540   -1.5930 C   0  0  0  0  0  0  0  0  0  0  0  0
    4.8960    0.0470   -2.1800 C   0  0  0  0  0  0  0  0  0  0  0  0
    5.7980    0.4020   -1.2090 C   0  0  0  0  0  0  0  0  0  0  0  0
    5.0680    0.6140   -0.0730 C   0  0  0  0  0  0  0  0  0  0  0  0
    5.5170    1.0170    1.2840 C   0  0  0  0  0  0  0  0  0  0  0  0
    3.8210    0.3940   -0.3720 O   0  0  0  0  0  0  0  0  0  0  0  0
   -0.7400    0.3110    1.3080 C   0  0  0  0  0  0  0  0  0  0  0  0
    0.0340    0.6370    2.2270 O   0  0  0  0  0  0  0  0  0  0  0  0
   -2.1520    0.1750    1.4050 N   0  0  0  0  0  0  0  0  0  0  0  0
   -3.0430    0.3580    2.4990 C   0  0  0  0  0  0  0  0  0  0  0  0
   -4.3310    0.1570    2.2930 C   0  0  0  0  0  0  0  0  0  0  0  0
  1  2  1  0
  2  3  2  0
  2 21  1  0
  3  4  1  0
  4  5  2  0
  4 19  1  0
  5  6  1  0
  5  7  1  0
  7  8  2  3
  7 17  1  0
  8  9  1  0
  9 10  2  3
 10 11  1  0
 11 12  2  0
 11 16  1  0
 12 13  1  0
 13 14  2  0
 14 15  1  0
 14 16  1  0
 17 18  2  0
 17 19  1  0
 19 20  1  0
 20 21  2  0
M  END
