
     RDKit          3D

 19 21  0  0  0  0  0  0  0  0999 V2000
    6.6990    0.8850    1.0210 C   0  0  0  0  0  0  0  0  0  0  0  0
    5.5580    1.1120    0.4260 C   0  0  0  0  0  0  0  0  0  0  0  0
    4.8540    0.0510   -0.2230 N   0  0  0  0  0  0  0  0  0  0  0  0
    3.5670   -0.0110   -0.1190 C   0  0  0  0  0  0  0  0  0  0  0  0
    2.7300   -1.0020   -0.7040 N   0  0  0  0  0  0  0  0  0  0  0  0
    1.3500   -0.4940   -0.7110 C   0  0  0  0  0  0  0  0  0  0  0  0
    1.3640    0.4290    0.4360 C   0  0  0  0  0  0  0  0  0  0  0  0
    0.3440    0.7750    1.1700 N   0  0  0  0  0  0  0  0  0  0  0  0
   -0.9560    0.2890    0.9490 C   0  0  0  0  0  0  0  0  0  0  0  0
   -1.8910    1.1550    0.6410 N   0  0  0  0  0  0  0  0  0  0  0  0
   -3.2790    0.9020    0.3720 C   0  0  0  0  0  0  0  0  0  0  0  0
   -4.2520    1.7700    0.5280 C   0  0  0  0  0  0  0  0  0  0  0  0
   -5.5370    1.1350    0.1470 C   0  0  0  0  0  0  0  0  0  0  0  0
   -5.1400   -0.2230   -0.2480 C   0  0  0  0  0  0  0  0  0  0  0  0
   -3.8350   -0.3510   -0.1160 C   0  0  0  0  0  0  0  0  0  0  0  0
   -3.1150   -1.6120   -0.4360 C   0  0  0  0  0  0  0  0  0  0  0  0
   -2.0150   -1.9060    0.4960 C   0  0  0  0  0  0  0  0  0  0  0  0
   -1.0930   -1.1560    1.0980 C   0  0  0  0  0  0  0  0  0  0  0  0
    2.7070    0.8680    0.5840 N   0  0  0  0  0  0  0  0  0  0  0  0
  1  2  2  0
  2  3  1  0
  3  4  2  3
  4  5  1  0
  4 19  1  0
  5  6  1  0
  6  7  1  0
  7  8  2  3
  7 19  1  0
  8  9  1  0
  9 10  2  0
  9 18  1  0
 10 11  1  0
 11 12  2  0
 11 15  1  0
 12 13  1  0
 13 14  1  0
 14 15  2  0
 15 16  1  0
 16 17  1  0
 17 18  2  0
M  CHG  1   3   1
M  END
