
     RDKit          3D

 19 21  0  0  0  0  0  0  0  0999 V2000
    4.0600   -1.3700   -0.3490 C   0  0  0  0  0  0  0  0  0  0  0  0
    3.3250   -0.0980   -0.1960 C   0  0  0  0  0  0  0  0  0  0  0  0
    4.0240    1.0810   -0.0520 C   0  0  0  0  0  0  0  0  0  0  0  0
    3.2740    2.2350    0.0860 C   0  0  0  0  0  0  0  0  0  0  0  0
    3.8630    3.3480    0.2220 O   0  0  0  0  0  0  0  0  0  0  0  0
    1.9270    2.2110    0.0810 N   0  0  0  0  0  0  0  0  0  0  0  0
    1.2470    1.0600   -0.0600 C   0  0  0  0  0  0  0  0  0  0  0  0
   -0.1370    1.0090   -0.0690 C   0  0  0  0  0  0  0  0  0  0  0  0
   -0.8370   -0.1680   -0.2130 C   0  0  0  0  0  0  0  0  0  0  0  0
   -2.3000   -0.2150   -0.2220 C   0  0  0  0  0  0  0  0  0  0  0  0
   -2.9700   -1.1830    0.5160 C   0  0  0  0  0  0  0  0  0  0  0  0
   -4.3490   -1.2440    0.5210 C   0  0  0  0  0  0  0  0  0  0  0  0
   -5.1150   -0.3520   -0.2010 C   0  0  0  0  0  0  0  0  0  0  0  0
   -4.4580    0.6100   -0.9340 C   0  0  0  0  0  0  0  0  0  0  0  0
   -3.0660    0.6760   -0.9430 C   0  0  0  0  0  0  0  0  0  0  0  0
   -2.4640    1.6460   -1.6850 F   0  0  0  0  0  0  0  0  0  0  0  0
   -0.1360   -1.3660   -0.3570 C   0  0  0  0  0  0  0  0  0  0  0  0
    1.2350   -1.3120   -0.3470 C   0  0  0  0  0  0  0  0  0  0  0  0
    1.9360   -0.1330   -0.2030 C   0  0  0  0  0  0  0  0  0  0  0  0
  1  2  1  0
  2  3  2  0
  2 19  1  0
  3  4  1  0
  4  5  2  0
  4  6  1  0
  6  7  1  0
  7  8  2  0
  7 19  1  0
  8  9  1  0
  9 10  1  0
  9 17  2  0
 10 11  2  0
 10 15  1  0
 11 12  1  0
 12 13  2  0
 13 14  1  0
 14 15  2  0
 15 16  1  0
 17 18  1  0
 18 19  2  0
M  END
