
     RDKit          3D

 12 12  0  0  0  0  0  0  0  0999 V2000
    3.7920    1.0900    0.5830 O   0  0  0  0  0  0  0  0  0  0  0  0
    2.7530    0.7990   -0.3120 C   0  0  0  0  0  0  0  0  0  0  0  0
    1.6590    0.0130    0.3790 C   0  0  2  0  0  0  0  0  0  0  0  0
    2.2150   -1.1670    0.8490 O   0  0  0  0  0  0  0  0  0  0  0  0
    0.5620   -0.2360   -0.6330 C   0  0  0  0  0  0  0  0  0  0  0  0
   -0.5840   -1.0190   -0.0380 C   0  0  2  0  0  0  0  0  0  0  0  0
   -1.5400   -1.2120   -0.9970 O   0  0  0  0  0  0  0  0  0  0  0  0
   -2.4660   -0.2110   -0.9420 C   0  0  0  0  0  0  0  0  0  0  0  0
   -2.1000    0.7150    0.1960 C   0  0  1  0  0  0  0  0  0  0  0  0
   -3.2050    1.1640    0.8990 O   0  0  0  0  0  0  0  0  0  0  0  0
   -1.2880   -0.2650    1.0570 C   0  0  1  0  0  0  0  0  0  0  0  0
   -2.1910   -1.1330    1.6570 O   0  0  0  0  0  0  0  0  0  0  0  0
  1  2  1  0
  2  3  1  0
  3  4  1  6
  3  5  1  0
  6  5  1  6
  6  7  1  0
  6 11  1  0
  7  8  1  0
  8  9  1  0
  9 10  1  1
  9 11  1  0
 11 12  1  6
M  END
