
     RDKit          3D

 12 12  0  0  0  0  0  0  0  0999 V2000
    3.6570    0.8920   -1.0460 O   0  0  0  0  0  0  0  0  0  0  0  0
    2.9350    0.2420   -0.0530 C   0  0  0  0  0  0  0  0  0  0  0  0
    1.5070    0.0780   -0.5700 C   0  0  2  0  0  0  0  0  0  0  0  0
    1.5970   -0.6840   -1.7380 O   0  0  0  0  0  0  0  0  0  0  0  0
    1.0240    1.3290   -0.8400 O   0  0  0  0  0  0  0  0  0  0  0  0
    0.6500   -0.6710    0.4020 C   0  0  0  0  0  0  0  0  0  0  0  0
   -0.7380   -0.8050   -0.1500 C   0  0  1  0  0  0  0  0  0  0  0  0
   -1.5650   -1.5190    0.7310 O   0  0  0  0  0  0  0  0  0  0  0  0
   -2.8470   -1.2630    0.3160 C   0  0  0  0  0  0  0  0  0  0  0  0
   -2.8670    0.1900   -0.0350 C   0  0  0  0  0  0  0  0  0  0  0  0
   -1.4260    0.5490   -0.2420 C   0  0  1  0  0  0  0  0  0  0  0  0
   -0.9940    1.4010    0.7790 O   0  0  0  0  0  0  0  0  0  0  0  0
  1  2  1  0
  2  3  1  0
  3  4  1  6
  3  5  1  0
  3  6  1  0
  7  6  1  1
  7  8  1  0
  7 11  1  0
  8  9  1  0
  9 10  1  0
 10 11  1  0
 11 12  1  1
M  END
