
     RDKit          3D

 12 12  0  0  0  0  0  0  0  0999 V2000
    3.4520    0.8730   -0.5940 O   0  0  0  0  0  0  0  0  0  0  0  0
    2.0790    1.0320   -0.2560 C   0  0  0  0  0  0  0  0  0  0  0  0
    1.6320   -0.3240    0.2130 C   0  0  2  0  0  0  0  0  0  0  0  0
    1.8030   -1.2130   -0.8080 O   0  0  0  0  0  0  0  0  0  0  0  0
    0.2570   -0.2720    0.8190 C   0  0  2  0  0  0  0  0  0  0  0  0
   -0.1210   -1.4550    1.3960 O   0  0  0  0  0  0  0  0  0  0  0  0
   -1.0590   -2.1040    0.6540 C   0  0  0  0  0  0  0  0  0  0  0  0
   -1.8510   -0.9820    0.0450 C   0  0  0  0  0  0  0  0  0  0  0  0
   -0.8340    0.1430   -0.0980 C   0  0  2  0  0  0  0  0  0  0  0  0
   -0.4430    0.2120   -1.4140 O   0  0  0  0  0  0  0  0  0  0  0  0
   -1.4820    1.4660    0.3120 C   0  0  0  0  0  0  0  0  0  0  0  0
   -0.5640    2.4850    0.1470 O   0  0  0  0  0  0  0  0  0  0  0  0
  1  2  1  0
  2  3  1  0
  3  4  1  6
  3  5  1  0
  5  6  1  6
  5  9  1  0
  6  7  1  0
  7  8  1  0
  8  9  1  0
  9 10  1  6
  9 11  1  0
 11 12  1  0
M  END
