
     RDKit          3D

 12 11  0  0  0  0  0  0  0  0999 V2000
    2.9490    0.7660    0.7510 C   0  0  0  0  0  0  0  0  0  0  0  0
    1.7150    0.8400    0.1220 O   0  0  0  0  0  0  0  0  0  0  0  0
    1.1060   -0.3850    0.2280 C   0  0  0  0  0  0  0  0  0  0  0  0
   -0.2420   -0.5160   -0.3890 C   0  0  2  0  0  0  0  0  0  0  0  0
   -0.6490   -2.0000   -0.1370 C   0  0  0  0  0  0  0  0  0  0  0  0
   -0.1900   -0.3730   -1.8860 C   0  0  0  0  0  0  0  0  0  0  0  0
    0.6300   -1.3630   -2.4140 O   0  0  0  0  0  0  0  0  0  0  0  0
   -1.3370    0.2550    0.2570 C   0  0  1  0  0  0  0  0  0  0  0  0
   -2.5060   -0.0440   -0.5190 O   0  0  0  0  0  0  0  0  0  0  0  0
   -1.5630   -0.2790    1.5380 O   0  0  0  0  0  0  0  0  0  0  0  0
   -1.2120    1.7190    0.3800 C   0  0  0  0  0  0  0  0  0  0  0  0
   -0.1560    2.1290    1.1600 O   0  0  0  0  0  0  0  0  0  0  0  0
  1  2  1  0
  2  3  1  0
  3  4  1  0
  4  5  1  6
  4  6  1  0
  4  8  1  0
  6  7  1  0
  8  9  1  6
  8 10  1  0
  8 11  1  0
 11 12  1  0
M  END
