
     RDKit          3D

  9  9  0  0  0  0  0  0  0  0999 V2000
    2.9550    0.0990    0.4730 N   0  0  0  0  0  0  0  0  0  0  0  0
    1.9980   -0.6190   -0.3220 C   0  0  0  0  0  0  0  0  0  0  0  0
    0.6090   -0.2070   -0.0910 C   0  0  0  0  0  0  0  0  0  0  0  0
    0.3920    0.7580    0.8010 C   0  0  0  0  0  0  0  0  0  0  0  0
   -0.9240    1.3150    1.1780 C   0  0  0  0  0  0  0  0  0  0  0  0
   -2.1380    0.9270    0.8680 C   0  0  0  0  0  0  0  0  0  0  0  0
   -2.5360   -0.2160    0.0250 C   0  0  0  0  0  0  0  0  0  0  0  0
   -1.6220   -0.2060   -1.1950 C   0  0  0  0  0  0  0  0  0  0  0  0
   -0.3700   -0.9720   -0.9320 C   0  0  0  0  0  0  0  0  0  0  0  0
  1  2  1  0
  2  3  1  0
  3  4  2  0
  3  9  1  0
  4  5  1  0
  5  6  2  0
  6  7  1  0
  7  8  1  0
  8  9  1  0
M  CHG  1   1   1
M  END
