
     RDKit          3D

 12 12  0  0  0  0  0  0  0  0999 V2000
    4.6360    1.4090    0.4150 O   0  0  0  0  0  0  0  0  0  0  0  0
    3.7760    0.3670    0.1700 C   0  0  0  0  0  0  0  0  0  0  0  0
    2.3120    0.8240    0.1120 C   0  0  0  0  0  0  0  0  0  0  0  0
    1.5670   -0.3240   -0.1390 O   0  0  0  0  0  0  0  0  0  0  0  0
    0.2170   -0.0900   -0.2230 C   0  0  2  0  0  0  0  0  0  0  0  0
   -0.4750   -0.9660    0.8110 C   0  0  0  0  0  0  0  0  0  0  0  0
   -1.9050   -0.8280    0.3320 C   0  0  1  0  0  0  0  0  0  0  0  0
   -2.6540   -1.9010    0.7470 O   0  0  0  0  0  0  0  0  0  0  0  0
   -2.5240    0.4750    0.7910 C   0  0  0  0  0  0  0  0  0  0  0  0
   -3.8020    0.5570    0.2410 O   0  0  0  0  0  0  0  0  0  0  0  0
   -1.6790   -0.8130   -1.1650 C   0  0  0  0  0  0  0  0  0  0  0  0
   -0.3670   -0.5130   -1.3950 O   0  0  0  0  0  0  0  0  0  0  0  0
  1  2  1  0
  2  3  1  0
  3  4  1  0
  5  4  1  6
  5  6  1  0
  5 12  1  0
  6  7  1  0
  7  8  1  6
  7  9  1  0
  7 11  1  0
  9 10  1  0
 11 12  1  0
M  END
