
     RDKit          3D

 13 13  0  0  0  0  0  0  0  0999 V2000
    3.5680   -0.3000    0.5530 O   0  0  0  0  0  0  0  0  0  0  0  0
    2.5100   -0.1000   -0.0960 C   0  0  0  0  0  0  0  0  0  0  0  0
    2.6470    0.1440   -1.4550 O   0  0  0  0  0  0  0  0  0  0  0  0
    1.2310   -0.1380    0.6110 C   0  0  2  0  0  0  0  0  0  0  0  0
    1.4490   -0.4040    1.9500 O   0  0  0  0  0  0  0  0  0  0  0  0
    0.3910   -1.2450   -0.0410 C   0  0  0  0  0  0  0  0  0  0  0  0
   -0.5780   -0.6630   -1.0240 C   0  0  1  0  0  0  0  0  0  0  0  0
   -1.0900   -1.6920   -1.8150 O   0  0  0  0  0  0  0  0  0  0  0  0
   -1.6750    0.0700   -0.2830 C   0  0  1  0  0  0  0  0  0  0  0  0
   -2.5330   -0.9110    0.2470 O   0  0  0  0  0  0  0  0  0  0  0  0
   -1.0140    0.8790    0.8060 C   0  0  2  0  0  0  0  0  0  0  0  0
   -1.7100    2.0590    1.0720 O   0  0  0  0  0  0  0  0  0  0  0  0
    0.4450    1.1510    0.4970 C   0  0  0  0  0  0  0  0  0  0  0  0
  1  2  2  0
  2  3  1  0
  2  4  1  0
  4  5  1  1
  4  6  1  0
  4 13  1  0
  6  7  1  0
  7  8  1  1
  7  9  1  0
  9 10  1  1
  9 11  1  0
 11 12  1  6
 11 13  1  0
M  END
