
     RDKit          3D

 22 25  0  0  0  0  0  0  0  0999 V2000
    6.4930    0.7880   -0.4310 C   0  0  0  0  0  0  0  0  0  0  0  0
    5.3180    0.1630    0.2230 C   0  0  0  0  0  0  0  0  0  0  0  0
    5.3570   -0.6770    1.2660 N   0  0  0  0  0  0  0  0  0  0  0  0
    4.1170   -1.0570    1.6110 C   0  0  0  0  0  0  0  0  0  0  0  0
    3.2880   -0.4300    0.7500 N   0  0  0  0  0  0  0  0  0  0  0  0
    3.9820    0.3190   -0.1060 C   0  0  0  0  0  0  0  0  0  0  0  0
    3.3180    1.1110   -1.1530 C   0  0  0  0  0  0  0  0  0  0  0  0
    1.9230    0.9830   -1.1370 O   0  0  0  0  0  0  0  0  0  0  0  0
    1.1980    0.2100   -0.2550 C   0  0  0  0  0  0  0  0  0  0  0  0
   -0.1990    0.1450   -0.3160 C   0  0  0  0  0  0  0  0  0  0  0  0
   -0.9180   -0.6300    0.5700 C   0  0  0  0  0  0  0  0  0  0  0  0
   -2.3370   -0.6840    0.4950 N   0  0  0  0  0  0  0  0  0  0  0  0
   -3.0980    0.0660   -0.4730 C   0  0  2  0  0  0  0  0  0  0  0  0
   -2.9080    1.5510   -0.3350 C   0  0  0  0  0  0  0  0  0  0  0  0
   -4.5360   -0.2390   -0.3210 C   0  0  0  0  0  0  0  0  0  0  0  0
   -5.2020   -0.3000    0.8950 C   0  0  0  0  0  0  0  0  0  0  0  0
   -6.4840   -0.6000    0.6360 N   0  0  0  0  0  0  0  0  0  0  0  0
   -6.6480   -0.7260   -0.6600 N   0  0  0  0  0  0  0  0  0  0  0  0
   -5.4810   -0.5140   -1.2810 C   0  0  0  0  0  0  0  0  0  0  0  0
   -0.2270   -1.3450    1.5250 C   0  0  0  0  0  0  0  0  0  0  0  0
    1.1590   -1.2960    1.6060 C   0  0  0  0  0  0  0  0  0  0  0  0
    1.8790   -0.5080    0.7040 C   0  0  0  0  0  0  0  0  0  0  0  0
  1  2  1  0
  2  3  1  0
  2  6  2  0
  3  4  2  0
  4  5  1  0
  5  6  1  0
  5 22  1  0
  6  7  1  0
  7  8  1  0
  8  9  1  0
  9 10  2  0
  9 22  1  0
 10 11  1  0
 11 12  1  0
 11 20  2  0
 12 13  1  0
 13 14  1  1
 13 15  1  0
 15 16  1  0
 15 19  2  0
 16 17  2  0
 17 18  1  0
 18 19  1  0
 20 21  1  0
 21 22  2  0
M  END
