
     RDKit          3D

 23 25  0  0  0  0  0  0  0  0999 V2000
   -4.1260    0.8470    2.1770 C   0  0  0  0  0  0  0  0  0  0  0  0
   -2.7630    0.2860    1.9450 C   0  0  0  0  0  0  0  0  0  0  0  0
   -2.1980    0.1930    0.6350 C   0  0  0  0  0  0  0  0  0  0  0  0
   -2.7740    0.6460   -0.4610 C   0  0  0  0  0  0  0  0  0  0  0  0
   -4.0760    1.3210   -0.5760 C   0  0  0  0  0  0  0  0  0  0  0  0
   -1.9720    0.4390   -1.7310 C   0  0  0  0  0  0  0  0  0  0  0  0
   -1.5410   -0.9410   -1.8140 N   0  0  0  0  0  0  0  0  0  0  0  0
   -0.7150   -1.3150   -0.7020 C   0  0  2  0  0  0  0  0  0  0  0  0
   -0.9180   -2.7770   -0.3800 C   0  0  0  0  0  0  0  0  0  0  0  0
   -0.8600   -0.4520    0.4850 C   0  0  0  0  0  0  0  0  0  0  0  0
    0.1060   -0.2730    1.3320 C   0  0  0  0  0  0  0  0  0  0  0  0
    0.1690    0.4870    2.4960 N   0  0  0  0  0  0  0  0  0  0  0  0
    1.3490   -0.9670    1.0580 N   0  0  0  0  0  0  0  0  0  0  0  0
    2.2340   -0.3250    0.3760 C   0  0  0  0  0  0  0  0  0  0  0  0
    2.0190    1.0230   -0.1030 C   0  0  0  0  0  0  0  0  0  0  0  0
    2.9500    1.6140   -0.7860 N   0  0  0  0  0  0  0  0  0  0  0  0
    4.1940    0.9700   -1.0830 C   0  0  0  0  0  0  0  0  0  0  0  0
    5.3010    1.4000   -1.7770 C   0  0  0  0  0  0  0  0  0  0  0  0
    6.2380    0.3950   -1.7770 C   0  0  0  0  0  0  0  0  0  0  0  0
    5.6950   -0.6520   -1.0780 C   0  0  0  0  0  0  0  0  0  0  0  0
    4.4610   -0.2930   -0.6640 N   0  0  0  0  0  0  0  0  0  0  0  0
    3.4930   -1.0080    0.0890 C   0  0  0  0  0  0  0  0  0  0  0  0
    3.7020   -2.1940    0.5010 O   0  0  0  0  0  0  0  0  0  0  0  0
  1  2  1  0
  2  3  1  0
  3  4  2  0
  3 10  1  0
  4  5  1  0
  4  6  1  0
  6  7  1  0
  7  8  1  0
  8  9  1  1
  8 10  1  0
 10 11  2  3
 11 12  1  0
 11 13  1  0
 13 14  2  3
 14 15  1  0
 14 22  1  0
 15 16  2  0
 16 17  1  0
 17 18  2  0
 17 21  1  0
 18 19  1  0
 19 20  2  0
 20 21  1  0
 21 22  1  0
 22 23  2  0
M  END
