
     RDKit          3D

 23 25  0  0  0  0  0  0  0  0999 V2000
   -5.9970   -1.2430    1.1590 C   0  0  0  0  0  0  0  0  0  0  0  0
   -6.1680    0.1680    0.7200 C   0  0  0  0  0  0  0  0  0  0  0  0
   -7.2910    0.8910    0.7570 N   0  0  0  0  0  0  0  0  0  0  0  0
   -7.0720    2.1090    0.2860 N   0  0  0  0  0  0  0  0  0  0  0  0
   -5.7800    2.2340   -0.0840 C   0  0  0  0  0  0  0  0  0  0  0  0
   -5.1940    1.0080    0.1870 C   0  0  0  0  0  0  0  0  0  0  0  0
   -3.8440    0.6500   -0.0320 N   0  0  0  0  0  0  0  0  0  0  0  0
   -3.5730   -0.2470   -0.9190 C   0  0  0  0  0  0  0  0  0  0  0  0
   -4.5140   -0.9300   -1.7190 O   0  0  0  0  0  0  0  0  0  0  0  0
   -3.8120   -1.7950   -2.5260 C   0  0  0  0  0  0  0  0  0  0  0  0
   -2.5540   -1.7530   -2.3450 N   0  0  0  0  0  0  0  0  0  0  0  0
   -2.2820   -0.7710   -1.3140 C   0  0  0  0  0  0  0  0  0  0  0  0
   -1.0840   -0.4550   -0.8600 C   0  0  0  0  0  0  0  0  0  0  0  0
   -0.8390    0.5270    0.1700 C   0  0  0  0  0  0  0  0  0  0  0  0
    0.3720    0.8240    0.6050 C   0  0  0  0  0  0  0  0  0  0  0  0
    1.5890    0.2230    0.1230 C   0  0  0  0  0  0  0  0  0  0  0  0
    2.7580    0.5550    0.5900 C   0  0  0  0  0  0  0  0  0  0  0  0
    4.0370   -0.0460    0.1150 C   0  0  2  0  0  0  0  0  0  0  0  0
    4.6870   -0.7140    1.2990 C   0  0  0  0  0  0  0  0  0  0  0  0
    5.9200   -1.4150    0.8250 C   0  0  0  0  0  0  0  0  0  0  0  0
    6.7010   -0.6930   -0.1170 N   0  0  0  0  0  0  0  0  0  0  0  0
    6.4060    0.6900   -0.2440 C   0  0  0  0  0  0  0  0  0  0  0  0
    4.9440    0.9960   -0.4510 C   0  0  0  0  0  0  0  0  0  0  0  0
  1  2  1  0
  2  3  2  0
  2  6  1  0
  3  4  1  0
  4  5  1  0
  5  6  2  0
  6  7  1  0
  7  8  2  3
  8  9  1  0
  8 12  1  0
  9 10  1  0
 10 11  2  0
 11 12  1  0
 12 13  2  3
 13 14  1  0
 14 15  2  3
 15 16  1  0
 16 17  2  3
 18 17  1  1
 18 19  1  0
 18 23  1  0
 19 20  1  0
 20 21  1  0
 21 22  1  0
 22 23  1  0
M  END
