
     RDKit          3D

 23 26  0  0  0  0  0  0  0  0999 V2000
    5.2060   -1.4270    2.1720 C   0  0  0  0  0  0  0  0  0  0  0  0
    4.1530   -0.8680    1.2690 C   0  0  0  0  0  0  0  0  0  0  0  0
    4.4690   -0.2010    0.1050 C   0  0  0  0  0  0  0  0  0  0  0  0
    3.5100    0.3130   -0.7290 C   0  0  0  0  0  0  0  0  0  0  0  0
    2.1730    0.1550   -0.3880 C   0  0  0  0  0  0  0  0  0  0  0  0
    1.7930   -0.5020    0.7580 C   0  0  0  0  0  0  0  0  0  0  0  0
    0.4320   -0.7600    1.1770 C   0  0  0  0  0  0  0  0  0  0  0  0
    0.2420   -1.0250    2.4260 O   0  0  0  0  0  0  0  0  0  0  0  0
   -0.7260   -0.7620    0.3910 N   0  0  0  0  0  0  0  0  0  0  0  0
   -2.0750   -1.0180    0.8650 C   0  0  2  0  0  0  0  0  0  0  0  0
   -2.6280   -2.2920    0.3200 C   0  0  0  0  0  0  0  0  0  0  0  0
   -3.3280   -2.3400   -0.7950 C   0  0  0  0  0  0  0  0  0  0  0  0
   -3.5880   -1.0950   -1.5490 C   0  0  0  0  0  0  0  0  0  0  0  0
   -3.6830    0.0280   -0.6870 N   0  0  0  0  0  0  0  0  0  0  0  0
   -4.4070    1.1470   -0.8160 N   0  0  0  0  0  0  0  0  0  0  0  0
   -4.1900    1.9490    0.2310 C   0  0  0  0  0  0  0  0  0  0  0  0
   -4.8290    3.2780    0.4090 C   0  0  0  0  0  0  0  0  0  0  0  0
   -3.3090    1.2880    1.0090 N   0  0  0  0  0  0  0  0  0  0  0  0
   -2.9860    0.1170    0.4700 C   0  0  0  0  0  0  0  0  0  0  0  0
    2.8270   -1.0000    1.5630 C   0  0  0  0  0  0  0  0  0  0  0  0
    1.3390    0.8210   -1.4180 C   0  0  0  0  0  0  0  0  0  0  0  0
    2.3250    1.8080   -2.0630 C   0  0  0  0  0  0  0  0  0  0  0  0
    3.5590    1.0340   -1.9680 N   0  0  0  0  0  0  0  0  0  0  0  0
  1  2  1  0
  2  3  2  0
  2 20  1  0
  3  4  1  0
  4  5  2  0
  4 23  1  0
  5  6  1  0
  5 21  1  0
  6  7  1  0
  6 20  2  0
  7  8  2  0
  7  9  1  0
 10  9  1  6
 10 11  1  0
 10 19  1  0
 11 12  2  0
 12 13  1  0
 13 14  1  0
 14 15  1  0
 14 19  1  0
 15 16  2  0
 16 17  1  0
 16 18  1  0
 18 19  2  0
 21 22  1  0
 22 23  1  0
M  END
