
     RDKit          3D

 23 26  0  0  0  0  0  0  0  0999 V2000
   -1.3790   -3.4670    1.1140 C   0  0  0  0  0  0  0  0  0  0  0  0
   -1.0040   -2.8580   -0.2210 C   0  0  1  0  0  0  0  0  0  0  0  0
   -1.7830   -3.5860   -1.1790 O   0  0  0  0  0  0  0  0  0  0  0  0
   -1.4090   -1.4520   -0.2010 C   0  0  0  0  0  0  0  0  0  0  0  0
   -2.7440   -1.1480   -0.2350 N   0  0  0  0  0  0  0  0  0  0  0  0
   -2.8860    0.1780   -0.2230 C   0  0  0  0  0  0  0  0  0  0  0  0
   -4.0080    1.0180   -0.2480 C   0  0  0  0  0  0  0  0  0  0  0  0
   -3.8400    2.3390   -0.2320 N   0  0  0  0  0  0  0  0  0  0  0  0
   -2.6230    2.9010   -0.1920 C   0  0  0  0  0  0  0  0  0  0  0  0
   -2.1640    4.1580   -0.1770 N   0  0  0  0  0  0  0  0  0  0  0  0
   -0.8300    4.1840   -0.1450 C   0  0  0  0  0  0  0  0  0  0  0  0
   -0.3850    2.8550   -0.1390 C   0  0  0  0  0  0  0  0  0  0  0  0
   -1.4950    2.0780   -0.1670 C   0  0  0  0  0  0  0  0  0  0  0  0
   -1.6070    0.6970   -0.1810 C   0  0  0  0  0  0  0  0  0  0  0  0
   -0.7020   -0.3180   -0.1660 N   0  0  0  0  0  0  0  0  0  0  0  0
    0.7060   -0.2000   -0.1020 C   0  0  1  0  0  0  0  0  0  0  0  0
    1.5010   -1.3440    0.4560 C   0  0  0  0  0  0  0  0  0  0  0  0
    2.7880   -0.7160    1.0650 C   0  0  0  0  0  0  0  0  0  0  0  0
    3.4870   -0.0500   -0.0700 C   0  0  2  0  0  0  0  0  0  0  0  0
    3.7450    1.3710    0.1770 C   0  0  0  0  0  0  0  0  0  0  0  0
    3.9360    2.4780    0.3790 N   0  0  0  0  0  0  0  0  0  0  0  0
    2.8420   -0.1860   -1.4000 C   0  0  0  0  0  0  0  0  0  0  0  0
    1.3680    0.1220   -1.4200 C   0  0  0  0  0  0  0  0  0  0  0  0
  2  1  1  1
  2  3  1  0
  2  4  1  0
  4  5  2  0
  4 15  1  0
  5  6  1  0
  6  7  2  0
  6 14  1  0
  7  8  1  0
  8  9  2  0
  9 10  1  0
  9 13  1  0
 10 11  1  0
 11 12  2  0
 12 13  1  0
 13 14  2  0
 14 15  1  0
 16 15  1  6
 16 17  1  0
 16 23  1  0
 17 18  1  0
 18 19  1  0
 19 20  1  1
 19 22  1  0
 20 21  3  0
 22 23  1  0
M  END
