
     RDKit          3D

 23 26  0  0  0  0  0  0  0  0999 V2000
   -4.2810    2.7910    0.2180 C   0  0  0  0  0  0  0  0  0  0  0  0
   -3.6310    1.4430    0.1500 C   0  0  0  0  0  0  0  0  0  0  0  0
   -2.2910    1.2910    0.0170 C   0  0  0  0  0  0  0  0  0  0  0  0
   -1.6580    0.0580   -0.0960 C   0  0  0  0  0  0  0  0  0  0  0  0
   -0.2400   -0.1630   -0.0310 C   0  0  0  0  0  0  0  0  0  0  0  0
    0.6140    0.2430   -1.1060 N   0  0  0  0  0  0  0  0  0  0  0  0
    1.9730    0.3250   -0.7420 C   0  0  0  0  0  0  0  0  0  0  0  0
    2.4590    1.1970    0.1720 C   0  0  0  0  0  0  0  0  0  0  0  0
    3.6510    1.1650    0.7410 C   0  0  0  0  0  0  0  0  0  0  0  0
    4.5420    0.1500    0.3600 C   0  0  0  0  0  0  0  0  0  0  0  0
    4.1090   -0.7400   -0.5790 C   0  0  0  0  0  0  0  0  0  0  0  0
    4.9950   -1.8900   -0.9230 C   0  0  0  0  0  0  0  0  0  0  0  0
    2.8340   -0.6680   -1.1240 N   0  0  0  0  0  0  0  0  0  0  0  0
    5.7080    0.2830    1.0680 N   0  0  0  0  0  0  0  0  0  0  0  0
    5.6630    1.2800    1.8740 N   0  0  0  0  0  0  0  0  0  0  0  0
    4.4500    1.9270    1.7600 C   0  0  0  0  0  0  0  0  0  0  0  0
    3.9920    2.9490    2.3680 O   0  0  0  0  0  0  0  0  0  0  0  0
   -2.4780   -1.0550   -0.0710 C   0  0  0  0  0  0  0  0  0  0  0  0
   -2.1190   -2.3170   -0.2720 N   0  0  0  0  0  0  0  0  0  0  0  0
   -3.2040   -3.1560   -0.2620 C   0  0  0  0  0  0  0  0  0  0  0  0
   -4.2750   -2.2220   -0.0510 C   0  0  0  0  0  0  0  0  0  0  0  0
   -3.8380   -0.9560    0.0610 C   0  0  0  0  0  0  0  0  0  0  0  0
   -4.4100    0.3220    0.1710 C   0  0  0  0  0  0  0  0  0  0  0  0
  1  2  1  0
  2  3  2  0
  2 23  1  0
  3  4  1  0
  4  5  1  0
  4 18  2  0
  5  6  1  0
  6  7  1  0
  7  8  2  0
  7 13  1  0
  8  9  1  0
  9 10  2  0
  9 16  1  0
 10 11  1  0
 10 14  1  0
 11 12  1  0
 11 13  2  0
 14 15  2  0
 15 16  1  0
 16 17  2  0
 18 19  1  0
 18 22  1  0
 19 20  1  0
 20 21  2  0
 21 22  1  0
 22 23  2  0
M  END
