
     RDKit          3D

 23 26  0  0  0  0  0  0  0  0999 V2000
    5.7710    1.6000   -0.3120 C   0  0  0  0  0  0  0  0  0  0  0  0
    4.4230    0.9650   -0.1120 C   0  0  0  0  0  0  0  0  0  0  0  0
    4.2910   -0.2340    0.5540 C   0  0  0  0  0  0  0  0  0  0  0  0
    3.0830   -0.8640    0.7680 C   0  0  0  0  0  0  0  0  0  0  0  0
    2.9550   -2.1470    1.4820 C   0  0  0  0  0  0  0  0  0  0  0  0
    1.9240   -0.2590    0.2850 C   0  0  0  0  0  0  0  0  0  0  0  0
    0.5980   -0.6180    0.3310 C   0  0  0  0  0  0  0  0  0  0  0  0
   -0.1080    0.3550   -0.3090 C   0  0  0  0  0  0  0  0  0  0  0  0
   -1.5130    0.4520   -0.5650 C   0  0  0  0  0  0  0  0  0  0  0  0
   -1.9270    1.6270   -1.0180 N   0  0  0  0  0  0  0  0  0  0  0  0
   -3.2450    2.0650   -1.3670 N   0  0  0  0  0  0  0  0  0  0  0  0
   -4.4470    1.6850   -0.6500 C   0  0  0  0  0  0  0  0  0  0  0  0
   -5.4670    1.9630   -1.3140 O   0  0  0  0  0  0  0  0  0  0  0  0
   -4.6820    1.0530    0.6760 C   0  0  0  0  0  0  0  0  0  0  0  0
   -4.6390   -0.4070    0.7080 C   0  0  0  0  0  0  0  0  0  0  0  0
   -3.4700   -1.0750    0.1690 N   0  0  0  0  0  0  0  0  0  0  0  0
   -3.5720   -2.4240    0.0990 N   0  0  0  0  0  0  0  0  0  0  0  0
   -2.4740   -2.9640   -0.4250 C   0  0  0  0  0  0  0  0  0  0  0  0
   -1.5870   -1.9600   -0.7240 C   0  0  0  0  0  0  0  0  0  0  0  0
   -2.2580   -0.7930   -0.3310 C   0  0  0  0  0  0  0  0  0  0  0  0
    0.7900    1.2950   -0.7350 N   0  0  0  0  0  0  0  0  0  0  0  0
    2.0400    0.9410   -0.3840 C   0  0  0  0  0  0  0  0  0  0  0  0
    3.2770    1.5620   -0.5890 C   0  0  0  0  0  0  0  0  0  0  0  0
  1  2  1  0
  2  3  2  0
  2 23  1  0
  3  4  1  0
  4  5  1  0
  4  6  2  0
  6  7  1  0
  6 22  1  0
  7  8  2  0
  8  9  1  0
  8 21  1  0
  9 10  2  0
  9 20  1  0
 10 11  1  0
 11 12  1  0
 12 13  2  0
 12 14  1  0
 14 15  1  0
 15 16  1  0
 16 17  1  0
 16 20  1  0
 17 18  2  0
 18 19  1  0
 19 20  2  0
 21 22  1  0
 22 23  2  0
M  END
