
     RDKit          3D

 23 26  0  0  0  0  0  0  0  0999 V2000
   -6.1760    0.5680   -0.6440 C   0  0  0  0  0  0  0  0  0  0  0  0
   -4.7910    1.1100   -0.5280 C   0  0  0  0  0  0  0  0  0  0  0  0
   -4.1180    0.7740    0.7830 C   0  0  1  0  0  0  0  0  0  0  0  0
   -3.9960   -0.7130    0.9980 C   0  0  0  0  0  0  0  0  0  0  0  0
   -3.0260   -1.3670    0.0690 C   0  0  0  0  0  0  0  0  0  0  0  0
   -1.7500   -0.6210   -0.0560 C   0  0  0  0  0  0  0  0  0  0  0  0
   -1.6850    0.6880    0.3050 C   0  0  0  0  0  0  0  0  0  0  0  0
   -0.3890    1.0900    0.0760 C   0  0  0  0  0  0  0  0  0  0  0  0
    0.3060    0.0180   -0.4200 C   0  0  0  0  0  0  0  0  0  0  0  0
   -0.5450   -1.0350   -0.4970 N   0  0  0  0  0  0  0  0  0  0  0  0
    0.1930   -2.1780   -1.0250 C   0  0  0  0  0  0  0  0  0  0  0  0
    1.5590   -1.6510   -1.2370 C   0  0  0  0  0  0  0  0  0  0  0  0
    1.6210   -0.3950   -0.8900 C   0  0  0  0  0  0  0  0  0  0  0  0
    2.7800    0.4170   -0.9650 N   0  0  0  0  0  0  0  0  0  0  0  0
    3.8340    0.1980   -0.2470 C   0  0  0  0  0  0  0  0  0  0  0  0
    4.8930    1.0160   -0.3770 N   0  0  0  0  0  0  0  0  0  0  0  0
    6.0230    0.8320    0.3500 C   0  0  0  0  0  0  0  0  0  0  0  0
    7.1860    1.7450    0.1950 C   0  0  0  0  0  0  0  0  0  0  0  0
    6.0430   -0.2090    1.2150 N   0  0  0  0  0  0  0  0  0  0  0  0
    4.9910   -1.0330    1.3530 C   0  0  0  0  0  0  0  0  0  0  0  0
    5.0160   -2.0030    2.1610 O   0  0  0  0  0  0  0  0  0  0  0  0
    3.8730   -0.8300    0.6160 N   0  0  0  0  0  0  0  0  0  0  0  0
   -2.8110    1.4860    0.8370 C   0  0  0  0  0  0  0  0  0  0  0  0
  1  2  1  0
  3  2  1  6
  3  4  1  0
  3 23  1  0
  4  5  1  0
  5  6  1  0
  6  7  2  0
  6 10  1  0
  7  8  1  0
  7 23  1  0
  8  9  2  0
  9 10  1  0
  9 13  1  0
 10 11  1  0
 11 12  1  0
 12 13  2  0
 13 14  1  0
 14 15  2  3
 15 16  1  0
 15 22  1  0
 16 17  2  0
 17 18  1  0
 17 19  1  0
 19 20  1  0
 20 21  2  0
 20 22  1  0
M  END
