
     RDKit          3D

 23 26  0  0  0  0  0  0  0  0999 V2000
   -4.5880    0.6030   -1.3080 C   0  0  0  0  0  0  0  0  0  0  0  0
   -3.8120    1.5620   -0.4320 C   0  0  0  0  0  0  0  0  0  0  0  0
   -2.4690    0.9810   -0.2040 C   0  0  0  0  0  0  0  0  0  0  0  0
   -1.3740    1.4690   -0.8850 C   0  0  0  0  0  0  0  0  0  0  0  0
   -0.0800    0.9590   -0.7090 C   0  0  0  0  0  0  0  0  0  0  0  0
    1.0030    1.5460   -1.4840 C   0  0  0  0  0  0  0  0  0  0  0  0
    0.8240    2.5560   -2.4080 N   0  0  0  0  0  0  0  0  0  0  0  0
    1.9720    2.8710   -2.9290 N   0  0  0  0  0  0  0  0  0  0  0  0
    2.8880    2.1140   -2.3870 N   0  0  0  0  0  0  0  0  0  0  0  0
    2.2920    1.2880   -1.4880 N   0  0  0  0  0  0  0  0  0  0  0  0
    3.0110    0.3380   -0.7150 C   0  0  0  0  0  0  0  0  0  0  0  0
    3.2240   -0.9110   -1.2580 C   0  0  0  0  0  0  0  0  0  0  0  0
    3.9530   -1.8790   -0.5550 C   0  0  0  0  0  0  0  0  0  0  0  0
    4.4690   -1.6030    0.6870 C   0  0  0  0  0  0  0  0  0  0  0  0
    4.2610   -0.3580    1.2360 C   0  0  0  0  0  0  0  0  0  0  0  0
    4.7930   -0.0980    2.5000 O   0  0  0  0  0  0  0  0  0  0  0  0
    3.5410    0.5920    0.5370 C   0  0  0  0  0  0  0  0  0  0  0  0
    0.0190   -0.0610    0.1890 C   0  0  0  0  0  0  0  0  0  0  0  0
   -1.0670   -0.5830    0.8980 C   0  0  0  0  0  0  0  0  0  0  0  0
   -2.3270   -0.0520    0.6970 C   0  0  0  0  0  0  0  0  0  0  0  0
   -3.2520   -0.7530    1.5340 N   0  0  0  0  0  0  0  0  0  0  0  0
   -2.6410   -2.0130    1.9540 C   0  0  0  0  0  0  0  0  0  0  0  0
   -1.1850   -1.6700    1.9040 C   0  0  0  0  0  0  0  0  0  0  0  0
  1  2  1  0
  2  3  1  0
  3  4  2  0
  3 20  1  0
  4  5  1  0
  5  6  1  0
  5 18  2  0
  6  7  2  0
  6 10  1  0
  7  8  1  0
  8  9  2  0
  9 10  1  0
 10 11  1  0
 11 12  2  0
 11 17  1  0
 12 13  1  0
 13 14  2  0
 14 15  1  0
 15 16  1  0
 15 17  2  0
 18 19  1  0
 19 20  2  0
 19 23  1  0
 20 21  1  0
 21 22  1  0
 22 23  1  0
M  END
