
     RDKit          3D

 23 26  0  0  0  0  0  0  0  0999 V2000
    0.6830   -3.3700    0.2310 C   0  0  0  0  0  0  0  0  0  0  0  0
   -0.1410   -2.7030    1.3270 C   0  0  1  0  0  0  0  0  0  0  0  0
    0.7440   -2.2440    2.2680 O   0  0  0  0  0  0  0  0  0  0  0  0
   -1.0650   -1.7040    0.7600 C   0  0  0  0  0  0  0  0  0  0  0  0
   -2.3850   -1.9370    0.7060 N   0  0  0  0  0  0  0  0  0  0  0  0
   -2.9720   -0.8820    0.1530 C   0  0  0  0  0  0  0  0  0  0  0  0
   -4.2880   -0.5710   -0.1470 C   0  0  0  0  0  0  0  0  0  0  0  0
   -4.5780    0.6000   -0.7160 N   0  0  0  0  0  0  0  0  0  0  0  0
   -3.6610    1.5080   -1.0190 C   0  0  0  0  0  0  0  0  0  0  0  0
   -3.6870    2.7370   -1.5780 N   0  0  0  0  0  0  0  0  0  0  0  0
   -2.4490    3.2190   -1.6460 C   0  0  0  0  0  0  0  0  0  0  0  0
   -1.5590    2.2720   -1.1100 C   0  0  0  0  0  0  0  0  0  0  0  0
   -2.3260    1.2280   -0.7310 C   0  0  0  0  0  0  0  0  0  0  0  0
   -1.9690    0.0230   -0.1390 C   0  0  0  0  0  0  0  0  0  0  0  0
   -0.7660   -0.4660    0.2300 N   0  0  0  0  0  0  0  0  0  0  0  0
    0.5400    0.0530    0.1340 C   0  0  1  0  0  0  0  0  0  0  0  0
    1.1750    0.1600   -1.2190 C   0  0  0  0  0  0  0  0  0  0  0  0
    2.6960    0.0300   -0.9810 C   0  0  0  0  0  0  0  0  0  0  0  0
    3.2080    0.9410    0.0660 C   0  0  2  0  0  0  0  0  0  0  0  0
    4.5750    0.4820    0.4030 C   0  0  0  0  0  0  0  0  0  0  0  0
    5.6480    0.1430    0.6720 N   0  0  0  0  0  0  0  0  0  0  0  0
    2.4430    0.9510    1.3700 C   0  0  0  0  0  0  0  0  0  0  0  0
    0.9700    1.2170    0.9460 C   0  0  0  0  0  0  0  0  0  0  0  0
  2  1  1  6
  2  3  1  0
  2  4  1  0
  4  5  2  0
  4 15  1  0
  5  6  1  0
  6  7  2  0
  6 14  1  0
  7  8  1  0
  8  9  2  0
  9 10  1  0
  9 13  1  0
 10 11  1  0
 11 12  2  0
 12 13  1  0
 13 14  2  0
 14 15  1  0
 16 15  1  6
 16 17  1  0
 16 23  1  0
 17 18  1  0
 18 19  1  0
 19 20  1  1
 19 22  1  0
 20 21  3  0
 22 23  1  0
M  END
