
     RDKit          3D

 23 25  0  0  0  0  0  0  0  0999 V2000
    5.9260    1.3600    1.8630 C   0  0  0  0  0  0  0  0  0  0  0  0
    6.1220    0.2770    0.8880 C   0  0  0  0  0  0  0  0  0  0  0  0
    7.2840   -0.3360    0.6320 N   0  0  0  0  0  0  0  0  0  0  0  0
    7.1130   -1.2620   -0.2960 N   0  0  0  0  0  0  0  0  0  0  0  0
    5.8190   -1.2670   -0.6650 C   0  0  0  0  0  0  0  0  0  0  0  0
    5.1630   -0.2880    0.0810 C   0  0  0  0  0  0  0  0  0  0  0  0
    3.7920    0.0040   -0.0280 N   0  0  0  0  0  0  0  0  0  0  0  0
    3.3240    1.1920   -0.1700 C   0  0  0  0  0  0  0  0  0  0  0  0
    4.0590    2.3860   -0.2420 O   0  0  0  0  0  0  0  0  0  0  0  0
    3.1750    3.4360   -0.3950 C   0  0  0  0  0  0  0  0  0  0  0  0
    1.9630    3.0260   -0.4270 N   0  0  0  0  0  0  0  0  0  0  0  0
    1.9330    1.5780   -0.2890 C   0  0  0  0  0  0  0  0  0  0  0  0
    0.8350    0.8630   -0.2840 C   0  0  0  0  0  0  0  0  0  0  0  0
    0.8290   -0.5700   -0.1460 C   0  0  0  0  0  0  0  0  0  0  0  0
   -0.2630   -1.3090   -0.1390 C   0  0  0  0  0  0  0  0  0  0  0  0
   -1.6160   -0.8000   -0.2680 C   0  0  0  0  0  0  0  0  0  0  0  0
   -2.6500   -1.6290   -0.2490 C   0  0  0  0  0  0  0  0  0  0  0  0
   -4.0310   -1.1650   -0.3740 C   0  0  2  0  0  0  0  0  0  0  0  0
   -4.1400    0.3380   -0.5100 C   0  0  0  0  0  0  0  0  0  0  0  0
   -5.5720    0.7950   -0.4210 C   0  0  0  0  0  0  0  0  0  0  0  0
   -6.5180   -0.2840   -0.4930 N   0  0  0  0  0  0  0  0  0  0  0  0
   -6.3180   -1.3350    0.4360 C   0  0  0  0  0  0  0  0  0  0  0  0
   -4.8820   -1.5330    0.8480 C   0  0  0  0  0  0  0  0  0  0  0  0
  1  2  1  0
  2  3  2  0
  2  6  1  0
  3  4  1  0
  4  5  1  0
  5  6  2  0
  6  7  1  0
  7  8  2  3
  8  9  1  0
  8 12  1  0
  9 10  1  0
 10 11  2  0
 11 12  1  0
 12 13  2  3
 13 14  1  0
 14 15  2  3
 15 16  1  0
 16 17  2  3
 18 17  1  1
 18 19  1  0
 18 23  1  0
 19 20  1  0
 20 21  1  0
 21 22  1  0
 22 23  1  0
M  END
