
     RDKit          3D

 23 26  0  0  0  0  0  0  0  0999 V2000
    5.5420    0.0510    0.2120 C   0  0  0  0  0  0  0  0  0  0  0  0
    5.0630    1.2080   -0.6020 C   0  0  0  0  0  0  0  0  0  0  0  0
    3.5850    1.1530   -0.9240 C   0  0  1  0  0  0  0  0  0  0  0  0
    3.2320   -0.0750   -1.7010 C   0  0  0  0  0  0  0  0  0  0  0  0
    2.7690   -1.2220   -0.8730 C   0  0  0  0  0  0  0  0  0  0  0  0
    1.5910   -0.7720   -0.0910 C   0  0  0  0  0  0  0  0  0  0  0  0
    1.6450    0.4700    0.4750 C   0  0  0  0  0  0  0  0  0  0  0  0
    0.4540    0.6620    1.1420 C   0  0  0  0  0  0  0  0  0  0  0  0
   -0.3290   -0.4630    0.9830 C   0  0  0  0  0  0  0  0  0  0  0  0
    0.3980   -1.3020    0.2320 N   0  0  0  0  0  0  0  0  0  0  0  0
   -0.3460   -2.5150    0.0120 C   0  0  0  0  0  0  0  0  0  0  0  0
   -1.6170   -2.2890    0.7340 C   0  0  0  0  0  0  0  0  0  0  0  0
   -1.6210   -1.0960    1.3050 C   0  0  0  0  0  0  0  0  0  0  0  0
   -2.6550   -0.5120    2.0830 N   0  0  0  0  0  0  0  0  0  0  0  0
   -3.7270   -0.1120    1.5190 C   0  0  0  0  0  0  0  0  0  0  0  0
   -3.8620   -0.2500    0.1920 N   0  0  0  0  0  0  0  0  0  0  0  0
   -4.9600    0.1470   -0.4650 C   0  0  0  0  0  0  0  0  0  0  0  0
   -5.0950   -0.0140   -1.9510 C   0  0  0  0  0  0  0  0  0  0  0  0
   -5.9530    0.7050    0.2660 N   0  0  0  0  0  0  0  0  0  0  0  0
   -5.8240    0.8450    1.5900 C   0  0  0  0  0  0  0  0  0  0  0  0
   -6.8040    1.3800    2.2090 O   0  0  0  0  0  0  0  0  0  0  0  0
   -4.7250    0.4440    2.2300 N   0  0  0  0  0  0  0  0  0  0  0  0
    2.8190    1.3550    0.3310 C   0  0  0  0  0  0  0  0  0  0  0  0
  1  2  1  0
  3  2  1  1
  3  4  1  0
  3 23  1  0
  4  5  1  0
  5  6  1  0
  6  7  2  0
  6 10  1  0
  7  8  1  0
  7 23  1  0
  8  9  2  0
  9 10  1  0
  9 13  1  0
 10 11  1  0
 11 12  1  0
 12 13  2  0
 13 14  1  0
 14 15  2  3
 15 16  1  0
 15 22  1  0
 16 17  2  0
 17 18  1  0
 17 19  1  0
 19 20  1  0
 20 21  2  0
 20 22  1  0
M  END
