
     RDKit          3D

 16 17  0  0  0  0  0  0  0  0999 V2000
   -0.8010   -0.5230    0.5690 O   0  0  0  0  0  0  0  0  0  0  0  0
   -0.6750   -0.4920   -0.6650 C   0  0  0  0  0  0  0  0  0  0  0  0
    0.4290   -1.1560   -1.2530 N   0  0  0  0  0  0  0  0  0  0  0  0
    1.4030   -1.8640   -0.4390 C   0  0  0  0  0  0  0  0  0  0  0  0
    1.9980   -0.8580    0.4830 C   0  0  0  0  0  0  0  0  0  0  0  0
    2.0050   -0.8240    1.7950 C   0  0  0  0  0  0  0  0  0  0  0  0
    1.1950   -2.1560    2.7280 S   0  0  0  0  0  0  0  0  0  0  0  0
    2.6620    0.2780    2.4050 C   0  0  0  0  0  0  0  0  0  0  0  0
    3.2030    1.1650    1.6050 C   0  0  0  0  0  0  0  0  0  0  0  0
    2.8690    0.5810   -0.0080 S   0  0  1  0  0  0  0  0  0  0  0  0
    4.1290    0.2330   -0.7370 O   0  0  0  0  0  0  0  0  0  0  0  0
    1.9970    1.5230   -0.7820 O   0  0  0  0  0  0  0  0  0  0  0  0
   -1.6460    0.2090   -1.4220 N   0  0  0  0  0  0  0  0  0  0  0  0
   -2.7770    0.8940   -0.8780 C   0  0  1  0  0  0  0  0  0  0  0  0
   -3.4030    2.0720   -1.4770 C   0  0  0  0  0  0  0  0  0  0  0  0
   -4.0990    0.7210   -1.5460 C   0  0  0  0  0  0  0  0  0  0  0  0
  1  2  2  0
  2  3  1  0
  2 13  1  0
  3  4  1  0
  4  5  1  0
  5  6  2  0
  5 10  1  0
  6  7  1  0
  6  8  1  0
  8  9  2  0
 10  9  1  1
 10 11  2  0
 10 12  2  0
 14 13  1  6
 14 15  1  0
 14 16  1  0
 15 16  1  0
M  END
