
     RDKit          3D

 26 29  0  0  0  0  0  0  0  0999 V2000
   -3.2120    1.0970    2.2790 O   0  0  0  0  0  0  0  0  0  0  0  0
   -2.5270    0.7500    1.3170 C   0  0  0  0  0  0  0  0  0  0  0  0
   -3.1150    0.2430    0.1520 N   0  0  0  0  0  0  0  0  0  0  0  0
   -4.4910    0.0560   -0.0940 C   0  0  0  0  0  0  0  0  0  0  0  0
   -5.4700    0.3620    0.8170 C   0  0  0  0  0  0  0  0  0  0  0  0
   -6.8210    0.1480    0.4990 C   0  0  0  0  0  0  0  0  0  0  0  0
   -7.2270   -0.3640   -0.7070 C   0  0  0  0  0  0  0  0  0  0  0  0
   -6.2450   -0.6720   -1.6250 C   0  0  0  0  0  0  0  0  0  0  0  0
   -4.9180   -0.4670   -1.3240 C   0  0  0  0  0  0  0  0  0  0  0  0
   -3.9570   -0.7690   -2.2230 F   0  0  0  0  0  0  0  0  0  0  0  0
   -1.0350    0.9000    1.4560 C   0  0  0  0  0  0  0  0  0  0  0  0
   -0.5220    1.7110    2.4600 C   0  0  0  0  0  0  0  0  0  0  0  0
    1.2650    1.5980    2.2680 S   0  0  0  0  0  0  0  0  0  0  0  0
    1.1760    0.4360    0.8110 C   0  0  0  0  0  0  0  0  0  0  0  0
    2.3550   -0.0520    0.1640 C   0  0  0  0  0  0  0  0  0  0  0  0
    2.3540   -0.8850   -0.8830 N   0  0  0  0  0  0  0  0  0  0  0  0
    3.4450   -1.3090   -1.4460 O   0  0  0  0  0  0  0  0  0  0  0  0
    4.6490   -0.9660   -1.0490 C   0  0  0  0  0  0  0  0  0  0  0  0
    5.7920   -1.4360   -1.6720 C   0  0  0  0  0  0  0  0  0  0  0  0
    7.0540   -1.0490   -1.2210 C   0  0  0  0  0  0  0  0  0  0  0  0
    7.1850   -0.1930   -0.1490 C   0  0  0  0  0  0  0  0  0  0  0  0
    6.0390    0.2630    0.4560 C   0  0  0  0  0  0  0  0  0  0  0  0
    4.7740   -0.1100    0.0230 C   0  0  0  0  0  0  0  0  0  0  0  0
    3.6160    0.3400    0.6210 C   0  0  0  0  0  0  0  0  0  0  0  0
    3.7410    1.1260    1.6060 O   0  0  0  0  0  0  0  0  0  0  0  0
   -0.1220    0.2930    0.6680 C   0  0  0  0  0  0  0  0  0  0  0  0
  1  2  2  0
  2  3  1  0
  2 11  1  0
  3  4  1  0
  4  5  2  0
  4  9  1  0
  5  6  1  0
  6  7  2  0
  7  8  1  0
  8  9  2  0
  9 10  1  0
 11 12  2  0
 11 26  1  0
 12 13  1  0
 13 14  1  0
 14 15  1  0
 14 26  2  0
 15 16  2  0
 15 24  1  0
 16 17  1  0
 17 18  1  0
 18 19  2  0
 18 23  1  0
 19 20  1  0
 20 21  2  0
 21 22  1  0
 22 23  2  0
 23 24  1  0
 24 25  2  0
M  END
