
     RDKit          3D

 25 28  0  0  0  0  0  0  0  0999 V2000
   -5.3860    3.1390    0.1740 C   0  0  0  0  0  0  0  0  0  0  0  0
   -4.8200    2.2160   -0.7180 O   0  0  0  0  0  0  0  0  0  0  0  0
   -4.1600    1.0640   -0.3270 C   0  0  0  0  0  0  0  0  0  0  0  0
   -4.0650    0.8340    0.9040 O   0  0  0  0  0  0  0  0  0  0  0  0
   -3.5900    0.1380   -1.3390 C   0  0  0  0  0  0  0  0  0  0  0  0
   -2.9290   -1.0250   -0.7270 C   0  0  0  0  0  0  0  0  0  0  0  0
   -1.6640   -0.9760   -0.1060 C   0  0  0  0  0  0  0  0  0  0  0  0
   -0.8650    0.2390    0.0070 C   0  0  0  0  0  0  0  0  0  0  0  0
   -1.3390    1.3330   -0.4850 O   0  0  0  0  0  0  0  0  0  0  0  0
    0.3880    0.3390    0.6070 N   0  0  0  0  0  0  0  0  0  0  0  0
    0.9990    1.6880    0.6000 C   0  0  0  0  0  0  0  0  0  0  0  0
    2.3080    1.6240   -0.1450 C   0  0  0  0  0  0  0  0  0  0  0  0
    3.1610    0.5390    0.4430 C   0  0  2  0  0  0  0  0  0  0  0  0
    4.5200    1.1330    0.7880 C   0  0  0  0  0  0  0  0  0  0  0  0
    5.2090    1.0360   -0.5680 C   0  0  0  0  0  0  0  0  0  0  0  0
    4.9020   -0.3730   -0.9620 C   0  0  0  0  0  0  0  0  0  0  0  0
    3.4600   -0.5570   -0.5660 C   0  0  0  0  0  0  0  0  0  0  0  0
    2.5200   -0.1000    1.6440 C   0  0  0  0  0  0  0  0  0  0  0  0
    1.1750   -0.6810    1.2340 C   0  0  0  0  0  0  0  0  0  0  0  0
   -1.4430   -2.2270    0.3030 N   0  0  0  0  0  0  0  0  0  0  0  0
   -2.4940   -3.0560   -0.0250 C   0  0  0  0  0  0  0  0  0  0  0  0
   -2.7480   -4.4160    0.1740 C   0  0  0  0  0  0  0  0  0  0  0  0
   -4.3150   -4.6700   -0.5480 S   0  0  0  0  0  0  0  0  0  0  0  0
   -4.5740   -2.9540   -1.0880 C   0  0  0  0  0  0  0  0  0  0  0  0
   -3.4070   -2.3490   -0.6500 C   0  0  0  0  0  0  0  0  0  0  0  0
  1  2  1  0
  2  3  1  0
  3  4  2  0
  3  5  1  0
  5  6  1  0
  6  7  2  0
  6 25  1  0
  7  8  1  0
  7 20  1  0
  8  9  2  0
  8 10  1  0
 10 11  1  0
 10 19  1  0
 11 12  1  0
 13 12  1  6
 13 14  1  0
 13 17  1  0
 13 18  1  0
 14 15  1  0
 15 16  1  0
 16 17  1  0
 18 19  1  0
 20 21  1  0
 21 22  2  0
 21 25  1  0
 22 23  1  0
 23 24  1  0
 24 25  2  0
M  END
