
     RDKit          3D

 26 29  0  0  0  0  0  0  0  0999 V2000
   -4.0280    0.9610   -0.8020 C   0  0  0  0  0  0  0  0  0  0  0  0
   -4.1800    0.3420    0.3430 C   0  0  0  0  0  0  0  0  0  0  0  0
   -5.2450    0.6020    1.3740 C   0  0  0  0  0  0  0  0  0  0  0  0
   -4.5260    0.1370    2.5620 N   0  0  0  0  0  0  0  0  0  0  0  0
   -3.5620   -0.8240    2.1500 C   0  0  0  0  0  0  0  0  0  0  0  0
   -3.3420   -0.7230    0.8480 C   0  0  0  0  0  0  0  0  0  0  0  0
   -2.2450   -1.6940   -0.0980 S   0  0  1  0  0  0  0  0  0  0  0  0
   -2.0620   -2.9980    0.7330 O   0  0  0  0  0  0  0  0  0  0  0  0
   -2.7710   -2.1510   -1.3740 O   0  0  0  0  0  0  0  0  0  0  0  0
   -0.6760   -0.9450   -0.1240 N   0  0  0  0  0  0  0  0  0  0  0  0
   -0.0450   -0.8130    1.1580 C   0  0  0  0  0  0  0  0  0  0  0  0
    1.3950   -0.5210    1.1470 C   0  0  0  0  0  0  0  0  0  0  0  0
    2.1250   -0.5920    2.3450 C   0  0  0  0  0  0  0  0  0  0  0  0
    3.4520   -0.2650    2.3690 C   0  0  0  0  0  0  0  0  0  0  0  0
    4.0490    0.1320    1.1990 C   0  0  0  0  0  0  0  0  0  0  0  0
    5.3860    0.4690    1.1890 O   0  0  0  0  0  0  0  0  0  0  0  0
    5.9870    0.8750   -0.0200 C   0  0  0  0  0  0  0  0  0  0  0  0
    3.3410    0.2080   -0.0060 C   0  0  0  0  0  0  0  0  0  0  0  0
    2.0010   -0.1210   -0.0400 C   0  0  0  0  0  0  0  0  0  0  0  0
    1.2450   -0.1190   -1.2840 C   0  0  0  0  0  0  0  0  0  0  0  0
    1.8430    0.3020   -2.4510 C   0  0  0  0  0  0  0  0  0  0  0  0
    1.1240    0.3210   -3.6460 C   0  0  0  0  0  0  0  0  0  0  0  0
    1.7520    0.7410   -4.7660 F   0  0  0  0  0  0  0  0  0  0  0  0
   -0.1850   -0.0690   -3.7180 C   0  0  0  0  0  0  0  0  0  0  0  0
   -0.7900   -0.4960   -2.5340 C   0  0  0  0  0  0  0  0  0  0  0  0
   -0.0980   -0.5240   -1.3420 C   0  0  0  0  0  0  0  0  0  0  0  0
  1  2  2  0
  2  3  1  0
  2  6  1  0
  3  4  1  0
  4  5  1  0
  5  6  2  0
  6  7  1  0
  7  8  2  0
  7  9  2  0
  7 10  1  6
 10 11  1  0
 10 26  1  0
 11 12  1  0
 12 13  2  0
 12 19  1  0
 13 14  1  0
 14 15  2  0
 15 16  1  0
 15 18  1  0
 16 17  1  0
 18 19  2  0
 19 20  1  0
 20 21  2  0
 20 26  1  0
 21 22  1  0
 22 23  1  0
 22 24  2  0
 24 25  1  0
 25 26  2  0
M  END
