
     RDKit          3D

 24 27  0  0  0  0  0  0  0  0999 V2000
   -1.4650   -3.7060   -0.2000 C   0  0  0  0  0  0  0  0  0  0  0  0
   -1.1960   -2.6670   -1.2350 C   0  0  1  0  0  0  0  0  0  0  0  0
   -1.8630   -3.0750   -2.4280 O   0  0  0  0  0  0  0  0  0  0  0  0
   -1.8020   -1.3350   -0.8960 C   0  0  0  0  0  0  0  0  0  0  0  0
   -3.0900   -1.0230   -1.0440 N   0  0  0  0  0  0  0  0  0  0  0  0
   -3.2720    0.2310   -0.6440 C   0  0  0  0  0  0  0  0  0  0  0  0
   -4.3780    1.0550   -0.5770 C   0  0  0  0  0  0  0  0  0  0  0  0
   -4.2500    2.2990   -0.1190 N   0  0  0  0  0  0  0  0  0  0  0  0
   -3.0740    2.7980    0.2880 C   0  0  0  0  0  0  0  0  0  0  0  0
   -2.6850    3.9930    0.7730 N   0  0  0  0  0  0  0  0  0  0  0  0
   -1.3690    3.9660    1.0180 C   0  0  0  0  0  0  0  0  0  0  0  0
   -0.8670    2.7160    0.6870 C   0  0  0  0  0  0  0  0  0  0  0  0
   -1.9430    1.9960    0.2330 C   0  0  0  0  0  0  0  0  0  0  0  0
   -2.0180    0.6980   -0.2320 C   0  0  0  0  0  0  0  0  0  0  0  0
   -1.0910   -0.2780   -0.3860 N   0  0  0  0  0  0  0  0  0  0  0  0
    0.2910   -0.2480   -0.0690 C   0  0  1  0  0  0  0  0  0  0  0  0
    1.1960    0.5700   -0.9240 C   0  0  0  0  0  0  0  0  0  0  0  0
    2.4770    0.9260   -0.2560 C   0  0  0  0  0  0  0  0  0  0  0  0
    3.0330   -0.0460    0.7110 C   0  0  2  0  0  0  0  0  0  0  0  0
    4.1760   -0.8740    0.1050 C   0  0  0  0  0  0  0  0  0  0  0  0
    5.2670    0.0080   -0.3230 C   0  0  0  0  0  0  0  0  0  0  0  0
    6.1380    0.7060   -0.6480 N   0  0  0  0  0  0  0  0  0  0  0  0
    2.0690   -0.9400    1.4150 C   0  0  0  0  0  0  0  0  0  0  0  0
    0.6900   -0.2440    1.3660 C   0  0  0  0  0  0  0  0  0  0  0  0
  2  1  1  1
  2  3  1  0
  2  4  1  0
  4  5  2  0
  4 15  1  0
  5  6  1  0
  6  7  2  0
  6 14  1  0
  7  8  1  0
  8  9  2  0
  9 10  1  0
  9 13  1  0
 10 11  1  0
 11 12  2  0
 12 13  1  0
 13 14  2  0
 14 15  1  0
 16 15  1  1
 16 17  1  0
 16 24  1  0
 17 18  1  0
 18 19  1  0
 19 20  1  6
 19 23  1  0
 20 21  1  0
 21 22  3  0
 23 24  1  0
M  END
