
     RDKit          3D

 25 27  0  0  0  0  0  0  0  0999 V2000
    5.6500    0.0250   -1.9320 C   0  0  0  0  0  0  0  0  0  0  0  0
    5.6270    0.2110   -0.4220 C   0  0  1  0  0  0  0  0  0  0  0  0
    5.9090    1.6410   -0.1070 C   0  0  0  0  0  0  0  0  0  0  0  0
    4.3740   -0.2820    0.0890 C   0  0  0  0  0  0  0  0  0  0  0  0
    4.1190   -1.3680    0.9580 C   0  0  0  0  0  0  0  0  0  0  0  0
    2.8910   -1.6570    1.3080 C   0  0  0  0  0  0  0  0  0  0  0  0
    1.8480   -0.8350    0.7760 C   0  0  0  0  0  0  0  0  0  0  0  0
    0.4270   -0.9500    1.0110 C   0  0  0  0  0  0  0  0  0  0  0  0
   -0.0470   -1.9310    1.8210 C   0  0  0  0  0  0  0  0  0  0  0  0
   -1.4070   -2.0970    2.0890 C   0  0  0  0  0  0  0  0  0  0  0  0
   -2.2590   -1.1920    1.4730 C   0  0  0  0  0  0  0  0  0  0  0  0
   -3.6020   -1.2740    1.6740 N   0  0  0  0  0  0  0  0  0  0  0  0
   -4.4280   -0.3980    1.0780 C   0  0  0  0  0  0  0  0  0  0  0  0
   -5.6810   -0.4950    1.2810 O   0  0  0  0  0  0  0  0  0  0  0  0
   -4.0220    0.5900    0.2690 N   0  0  0  0  0  0  0  0  0  0  0  0
   -4.9870    1.4960   -0.3360 C   0  0  2  0  0  0  0  0  0  0  0  0
   -6.1730    0.7400   -0.9000 C   0  0  0  0  0  0  0  0  0  0  0  0
   -4.3750    2.2640   -1.4470 C   0  0  0  0  0  0  0  0  0  0  0  0
   -4.3440    1.7840   -2.5500 O   0  0  0  0  0  0  0  0  0  0  0  0
   -2.7060    0.7030    0.0470 C   0  0  0  0  0  0  0  0  0  0  0  0
   -2.2610    1.6070   -0.7000 O   0  0  0  0  0  0  0  0  0  0  0  0
   -1.8180   -0.1860    0.6460 C   0  0  0  0  0  0  0  0  0  0  0  0
   -0.4710   -0.0810    0.4280 C   0  0  0  0  0  0  0  0  0  0  0  0
    0.0450    0.8830   -0.3740 F   0  0  0  0  0  0  0  0  0  0  0  0
    2.7240    0.2910   -0.1880 S   0  0  0  0  0  0  0  0  0  0  0  0
  2  1  1  6
  2  3  1  0
  2  4  1  0
  4  5  2  0
  4 25  1  0
  5  6  1  0
  6  7  2  0
  7  8  1  0
  7 25  1  0
  8  9  2  0
  8 23  1  0
  9 10  1  0
 10 11  2  0
 11 12  1  0
 11 22  1  0
 12 13  1  0
 13 14  2  0
 13 15  1  0
 15 16  1  0
 15 20  1  0
 16 17  1  6
 16 18  1  0
 18 19  2  0
 20 21  2  0
 20 22  1  0
 22 23  2  0
 23 24  1  0
M  END
