
     RDKit          3D

 20 20  0  0  0  0  0  0  0  0999 V2000
   -4.3120   -0.7450    2.2650 C   0  0  0  0  0  0  0  0  0  0  0  0
   -3.9200   -0.8810    0.8110 C   0  0  0  0  0  0  0  0  0  0  0  0
   -2.6390   -0.1450    0.5350 C   0  0  0  0  0  0  0  0  0  0  0  0
   -2.2790   -0.3020   -0.9190 C   0  0  1  0  0  0  0  0  0  0  0  0
   -2.0830   -1.7430   -1.3110 C   0  0  0  0  0  0  0  0  0  0  0  0
   -3.3550    0.1850   -1.6710 O   0  0  0  0  0  0  0  0  0  0  0  0
   -3.1880    1.5440   -1.7950 C   0  0  0  0  0  0  0  0  0  0  0  0
   -1.7400    1.8680   -1.6280 C   0  0  0  0  0  0  0  0  0  0  0  0
   -1.0950    0.5280   -1.3240 C   0  0  1  0  0  0  0  0  0  0  0  0
   -0.2620    0.6910   -0.2460 O   0  0  0  0  0  0  0  0  0  0  0  0
    1.0820    0.2760   -0.5850 C   0  0  1  0  0  0  0  0  0  0  0  0
    1.8720    1.5120   -0.3430 C   0  0  0  0  0  0  0  0  0  0  0  0
    3.3300    1.4870   -0.5910 C   0  0  0  0  0  0  0  0  0  0  0  0
    3.8250    2.9260   -0.2810 C   0  0  0  0  0  0  0  0  0  0  0  0
    5.1960    3.0000   -0.4870 O   0  0  0  0  0  0  0  0  0  0  0  0
    1.3110   -0.8620    0.3520 C   0  0  2  0  0  0  0  0  0  0  0  0
    1.2590   -0.4100    1.7250 N   0  0  0  0  0  0  0  0  0  0  0  0
    2.4180   -1.7940    0.0640 C   0  0  0  0  0  0  0  0  0  0  0  0
    2.3890   -2.8440    1.1950 C   0  0  0  0  0  0  0  0  0  0  0  0
    3.3900   -3.7740    1.0240 O   0  0  0  0  0  0  0  0  0  0  0  0
  1  2  1  0
  2  3  1  0
  3  4  1  0
  4  5  1  6
  4  6  1  0
  4  9  1  0
  6  7  1  0
  7  8  1  0
  8  9  1  0
  9 10  1  1
 10 11  1  0
 11 12  1  1
 11 16  1  0
 12 13  1  0
 13 14  1  0
 14 15  1  0
 16 17  1  1
 16 18  1  0
 18 19  1  0
 19 20  1  0
M  CHG  1  17   1
M  END
