
     RDKit          3D

 20 20  0  0  0  0  0  0  0  0999 V2000
    4.7800    0.9740   -0.8410 C   0  0  0  0  0  0  0  0  0  0  0  0
    4.2970   -0.3590   -0.3830 C   0  0  1  0  0  0  0  0  0  0  0  0
    4.6800   -0.5580    1.0640 C   0  0  0  0  0  0  0  0  0  0  0  0
    4.2390   -1.8110    1.5350 O   0  0  0  0  0  0  0  0  0  0  0  0
    2.8520   -0.6150   -0.6260 C   0  0  1  0  0  0  0  0  0  0  0  0
    2.4710   -0.5550   -2.0820 C   0  0  0  0  0  0  0  0  0  0  0  0
    2.5850   -1.9300   -0.1790 O   0  0  0  0  0  0  0  0  0  0  0  0
    1.9420    0.2860    0.1770 C   0  0  0  0  0  0  0  0  0  0  0  0
    0.5260   -0.0830   -0.0630 N   0  0  0  0  0  0  0  0  0  0  0  0
   -0.3200    1.0610   -0.0370 C   0  0  0  0  0  0  0  0  0  0  0  0
   -1.6160    0.9410    0.6780 C   0  0  2  0  0  0  0  0  0  0  0  0
   -2.1810    2.3720    0.8020 C   0  0  0  0  0  0  0  0  0  0  0  0
   -1.3390    0.5810    2.0060 O   0  0  0  0  0  0  0  0  0  0  0  0
   -2.6660    0.0980    0.1060 C   0  0  2  0  0  0  0  0  0  0  0  0
   -3.8950    0.1270    1.0220 C   0  0  0  0  0  0  0  0  0  0  0  0
   -4.4360    1.3680    1.1920 O   0  0  0  0  0  0  0  0  0  0  0  0
   -2.3630   -1.3680   -0.0730 C   0  0  0  0  0  0  0  0  0  0  0  0
   -3.5140   -1.8740   -0.9460 C   0  0  0  0  0  0  0  0  0  0  0  0
   -3.9950   -0.6880   -1.7130 C   0  0  0  0  0  0  0  0  0  0  0  0
   -3.1840    0.5300   -1.2510 C   0  0  0  0  0  0  0  0  0  0  0  0
  2  1  1  1
  2  3  1  0
  2  5  1  0
  3  4  1  0
  5  6  1  6
  5  7  1  0
  5  8  1  0
  8  9  1  0
  9 10  1  0
 10 11  1  0
 11 12  1  1
 11 13  1  0
 11 14  1  0
 14 15  1  1
 14 17  1  0
 14 20  1  0
 15 16  1  0
 17 18  1  0
 18 19  1  0
 19 20  1  0
M  CHG  1   9   1
M  END
