
     RDKit          3D

 20 20  0  0  0  0  0  0  0  0999 V2000
   -2.7040    1.5540   -2.5310 C   0  0  0  0  0  0  0  0  0  0  0  0
   -1.6230    1.8260   -1.9280 O   0  0  0  0  0  0  0  0  0  0  0  0
   -0.6020    1.4770   -1.2660 C   0  0  0  0  0  0  0  0  0  0  0  0
   -0.7130    0.7600    0.0940 C   0  0  1  0  0  0  0  0  0  0  0  0
   -1.5240    1.5400    1.0970 C   0  0  0  0  0  0  0  0  0  0  0  0
   -1.1270    2.8710    1.5420 C   0  0  0  0  0  0  0  0  0  0  0  0
   -2.1900    3.3130    2.4310 O   0  0  0  0  0  0  0  0  0  0  0  0
   -1.4600   -0.4810   -0.1330 C   0  0  2  0  0  0  0  0  0  0  0  0
   -1.7010   -1.3610    1.1030 C   0  0  0  0  0  0  0  0  0  0  0  0
   -2.2920   -2.6570    0.5190 C   0  0  0  0  0  0  0  0  0  0  0  0
   -2.5020   -2.3240   -0.9410 C   0  0  0  0  0  0  0  0  0  0  0  0
   -1.1730   -1.4850   -1.1390 C   0  0  1  0  0  0  0  0  0  0  0  0
   -1.1670   -1.1730   -2.4630 O   0  0  0  0  0  0  0  0  0  0  0  0
    0.7160    0.6120    0.5920 C   0  0  1  0  0  0  0  0  0  0  0  0
    1.5180    1.8480    0.7080 C   0  0  0  0  0  0  0  0  0  0  0  0
    0.4920    0.2720    1.9970 O   0  0  0  0  0  0  0  0  0  0  0  0
    1.5350   -0.4510   -0.0210 C   0  0  0  0  0  0  0  0  0  0  0  0
    2.9750   -0.5330    0.5290 C   0  0  0  0  0  0  0  0  0  0  0  0
    3.6730   -1.7110   -0.1950 C   0  0  0  0  0  0  0  0  0  0  0  0
    5.0100   -1.8060    0.2990 N   0  0  0  0  0  0  0  0  0  0  0  0
  1  2  1  0
  2  3  1  0
  4  3  1  6
  4  5  1  0
  4  8  1  0
  4 14  1  0
  5  6  1  0
  6  7  1  0
  8  9  1  1
  8 12  1  0
  9 10  1  0
 10 11  1  0
 11 12  1  0
 12 13  1  6
 14 15  1  1
 14 16  1  0
 14 17  1  0
 17 18  1  0
 18 19  1  0
 19 20  1  0
M  CHG  1  20   1
M  END
