
     RDKit          3D

 18 19  0  0  0  0  0  0  0  0999 V2000
   -5.5000   -0.7900   -0.1420 N   0  0  0  0  0  0  0  0  0  0  0  0
   -4.3720   -0.0920   -0.6170 C   0  0  0  0  0  0  0  0  0  0  0  0
   -3.6490   -0.5620   -1.5390 O   0  0  0  0  0  0  0  0  0  0  0  0
   -3.9730    1.1550   -0.1070 N   0  0  0  0  0  0  0  0  0  0  0  0
   -2.8240    1.8180   -0.6090 N   0  0  0  0  0  0  0  0  0  0  0  0
   -1.5710    1.1690   -0.3230 C   0  0  0  0  0  0  0  0  0  0  0  0
   -0.5670    0.8620   -0.7370 N   0  0  0  0  0  0  0  0  0  0  0  0
    0.4670    0.2400   -0.2210 C   0  0  0  0  0  0  0  0  0  0  0  0
    1.6890   -0.1440   -0.7890 C   0  0  0  0  0  0  0  0  0  0  0  0
    2.6340   -0.8250   -0.0610 C   0  0  0  0  0  0  0  0  0  0  0  0
    4.1430   -1.3100   -0.7670 S   0  0  0  0  0  0  0  0  0  0  0  0
    5.6820   -0.0260   -0.4680 S   0  0  2  0  0  0  0  0  0  0  0  0
    5.9770    0.4980   -1.8340 O   0  0  0  0  0  0  0  0  0  0  0  0
    6.7240   -0.9220    0.1170 O   0  0  0  0  0  0  0  0  0  0  0  0
    2.4250   -1.1610    1.2730 C   0  0  0  0  0  0  0  0  0  0  0  0
    1.2210   -0.7920    1.8650 C   0  0  0  0  0  0  0  0  0  0  0  0
    0.2570   -0.1080    1.1410 C   0  0  0  0  0  0  0  0  0  0  0  0
   -1.3560    0.4970    1.4650 S   0  0  0  0  0  0  0  0  0  0  0  0
  1  2  1  0
  2  3  2  0
  2  4  1  0
  4  5  1  0
  5  6  1  0
  6  7  2  0
  6 18  1  0
  7  8  1  0
  8  9  2  0
  8 17  1  0
  9 10  1  0
 10 11  1  0
 10 15  2  0
 12 11  1  6
 12 13  2  0
 12 14  2  0
 15 16  1  0
 16 17  2  0
 17 18  1  0
M  END
