
     RDKit          3D

 18 19  0  0  0  0  0  0  0  0999 V2000
   -4.8320   -0.9210   -3.1030 O   0  0  0  0  0  0  0  0  0  0  0  0
   -4.7960    0.0320   -2.2790 C   0  0  0  0  0  0  0  0  0  0  0  0
   -4.0560   -0.1480   -1.1220 O   0  0  0  0  0  0  0  0  0  0  0  0
   -3.3750   -1.3970   -0.9220 C   0  0  0  0  0  0  0  0  0  0  0  0
   -2.6690   -1.2930    0.4050 C   0  0  0  0  0  0  0  0  0  0  0  0
   -3.2530   -1.6490    1.5660 C   0  0  0  0  0  0  0  0  0  0  0  0
   -1.9750   -1.3220    2.8270 S   0  0  0  0  0  0  0  0  0  0  0  0
   -0.8030   -0.7250    1.4790 C   0  0  0  0  0  0  0  0  0  0  0  0
    0.4830   -0.2980    1.9160 N   0  0  0  0  0  0  0  0  0  0  0  0
    1.3540    0.1490    0.8860 C   0  0  0  0  0  0  0  0  0  0  0  0
    0.9910    0.1530   -0.2880 O   0  0  0  0  0  0  0  0  0  0  0  0
    2.6150    0.5880    1.1530 N   0  0  0  0  0  0  0  0  0  0  0  0
    3.5640    1.0510    0.2300 C   0  0  0  0  0  0  0  0  0  0  0  0
    4.5850    1.3590    0.8540 N   0  0  0  0  0  0  0  0  0  0  0  0
    5.9290    1.9590    0.0230 S   0  0  0  0  0  0  0  0  0  0  0  0
    5.3890    2.0660   -1.6950 C   0  0  0  0  0  0  0  0  0  0  0  0
    3.7590    1.3250   -1.4910 S   0  0  0  0  0  0  0  0  0  0  0  0
   -1.4420   -0.8520    0.5380 N   0  0  0  0  0  0  0  0  0  0  0  0
  1  2  2  0
  2  3  1  0
  3  4  1  0
  4  5  1  0
  5  6  2  0
  5 18  1  0
  6  7  1  0
  7  8  1  0
  8  9  1  0
  8 18  2  0
  9 10  1  0
 10 11  2  0
 10 12  1  0
 12 13  1  0
 13 14  2  0
 13 17  1  0
 14 15  1  0
 15 16  1  0
 16 17  1  0
M  END
