
     RDKit          3D

 18 19  0  0  0  0  0  0  0  0999 V2000
    6.1670   -0.7870    0.0730 N   0  0  0  0  0  0  0  0  0  0  0  0
    5.1230   -0.9780   -0.8670 C   0  0  0  0  0  0  0  0  0  0  0  0
    5.2500   -1.5460   -1.9580 O   0  0  0  0  0  0  0  0  0  0  0  0
    3.8020   -0.4680   -0.5220 C   0  0  0  0  0  0  0  0  0  0  0  0
    2.6330   -0.5030   -1.2070 C   0  0  0  0  0  0  0  0  0  0  0  0
    1.5840    0.0230   -0.6840 N   0  0  0  0  0  0  0  0  0  0  0  0
    1.5970    0.6020    0.5020 C   0  0  0  0  0  0  0  0  0  0  0  0
    0.6280    1.2460    1.3050 N   0  0  0  0  0  0  0  0  0  0  0  0
   -0.6890    1.3530    0.8330 C   0  0  0  0  0  0  0  0  0  0  0  0
   -1.8270    2.0870    1.7260 S   0  0  0  0  0  0  0  0  0  0  0  0
   -1.1340    0.6870   -0.7510 S   0  0  0  0  0  0  0  0  0  0  0  0
   -2.8660    0.9510   -1.1400 C   0  0  0  0  0  0  0  0  0  0  0  0
   -3.7330    0.1800   -0.2090 C   0  0  0  0  0  0  0  0  0  0  0  0
   -3.3290   -0.5750    0.7430 N   0  0  0  0  0  0  0  0  0  0  0  0
   -4.3890   -1.1370    1.4080 O   0  0  0  0  0  0  0  0  0  0  0  0
   -5.5080   -0.9490    0.5740 C   0  0  0  0  0  0  0  0  0  0  0  0
   -5.1180    0.1550   -0.2210 O   0  0  0  0  0  0  0  0  0  0  0  0
    3.3490    0.3680    0.9430 S   0  0  0  0  0  0  0  0  0  0  0  0
  1  2  1  0
  2  3  2  0
  2  4  1  0
  4  5  2  0
  4 18  1  0
  5  6  1  0
  6  7  2  0
  7  8  1  0
  7 18  1  0
  8  9  1  0
  9 10  2  0
  9 11  1  0
 11 12  1  0
 12 13  1  0
 13 14  2  0
 13 17  1  0
 14 15  1  0
 15 16  1  0
 16 17  1  0
M  END
