
     RDKit          3D

 17 18  0  0  0  0  0  0  0  0999 V2000
   -3.3110   -2.8090    0.1670 C   0  0  0  0  0  0  0  0  0  0  0  0
   -3.2830   -1.0180    0.2330 S   0  0  0  0  0  0  0  0  0  0  0  0
   -1.5990   -0.4140    0.1760 C   0  0  0  0  0  0  0  0  0  0  0  0
   -0.5990   -1.3110    0.0940 N   0  0  0  0  0  0  0  0  0  0  0  0
    0.6950   -1.0160    0.0480 C   0  0  0  0  0  0  0  0  0  0  0  0
    1.9010   -2.3230   -0.0610 S   0  0  0  0  0  0  0  0  0  0  0  0
    3.5880   -1.6860   -0.1140 C   0  0  0  0  0  0  0  0  0  0  0  0
    3.8930   -0.9190   -1.3240 C   0  0  0  0  0  0  0  0  0  0  0  0
    4.2900   -1.4870   -2.3590 O   0  0  0  0  0  0  0  0  0  0  0  0
    3.7420    0.4540   -1.3310 O   0  0  0  0  0  0  0  0  0  0  0  0
    1.0290    0.2910    0.0870 N   0  0  0  0  0  0  0  0  0  0  0  0
    0.0590    1.2280    0.1700 C   0  0  0  0  0  0  0  0  0  0  0  0
    0.0870    2.9800    0.2420 S   0  0  0  0  0  0  0  0  0  0  0  0
   -1.7900    3.1320    0.3330 C   0  0  0  0  0  0  0  0  0  0  0  0
   -2.4160    4.3970    0.4150 N   0  0  0  0  0  0  0  0  0  0  0  0
   -2.0760    1.9860    0.2980 N   0  0  0  0  0  0  0  0  0  0  0  0
   -1.2800    0.9500    0.2180 C   0  0  0  0  0  0  0  0  0  0  0  0
  1  2  1  0
  2  3  1  0
  3  4  2  0
  3 17  1  0
  4  5  1  0
  5  6  1  0
  5 11  2  0
  6  7  1  0
  7  8  1  0
  8  9  2  0
  8 10  1  0
 11 12  1  0
 12 13  1  0
 12 17  2  0
 13 14  1  0
 14 15  1  0
 14 16  2  0
 16 17  1  0
M  END
