
     RDKit          3D

 18 19  0  0  0  0  0  0  0  0999 V2000
    4.9040   -0.8730    0.1800 C   0  0  0  0  0  0  0  0  0  0  0  0
    3.9080    0.2130    0.4700 C   0  0  0  0  0  0  0  0  0  0  0  0
    4.1430    1.4680    0.8680 N   0  0  0  0  0  0  0  0  0  0  0  0
    2.9810    2.0350    0.9910 N   0  0  0  0  0  0  0  0  0  0  0  0
    2.0170    1.1340    0.6700 C   0  0  0  0  0  0  0  0  0  0  0  0
    0.5940    1.3410    0.6700 C   0  0  0  0  0  0  0  0  0  0  0  0
    0.1210    2.4520    0.9920 O   0  0  0  0  0  0  0  0  0  0  0  0
   -0.2750    0.2970    0.3100 N   0  0  0  0  0  0  0  0  0  0  0  0
   -1.7690    0.5700    0.3270 C   0  0  0  0  0  0  0  0  0  0  0  0
   -2.4120    2.0310    0.7490 S   0  0  0  0  0  0  0  0  0  0  0  0
   -4.2570    1.9050    0.6270 C   0  0  0  0  0  0  0  0  0  0  0  0
   -5.1240    3.2190    0.9940 S   0  0  0  0  0  0  0  0  0  0  0  0
   -4.3340    0.4190    0.1660 S   0  0  0  0  0  0  0  0  0  0  0  0
   -2.6750   -0.3070    0.0160 C   0  0  0  0  0  0  0  0  0  0  0  0
   -2.5390   -1.7340   -0.4170 C   0  0  0  0  0  0  0  0  0  0  0  0
   -3.6910   -2.4920   -0.7030 N   0  0  0  0  0  0  0  0  0  0  0  0
   -1.4330   -2.2790   -0.5360 O   0  0  0  0  0  0  0  0  0  0  0  0
    2.6250    0.0330    0.3570 O   0  0  0  0  0  0  0  0  0  0  0  0
  1  2  1  0
  2  3  2  0
  2 18  1  0
  3  4  1  0
  4  5  2  0
  5  6  1  0
  5 18  1  0
  6  7  2  0
  6  8  1  0
  8  9  1  0
  9 10  1  0
  9 14  2  0
 10 11  1  0
 11 12  2  0
 11 13  1  0
 13 14  1  0
 14 15  1  0
 15 16  1  0
 15 17  2  0
M  END
