
     RDKit          3D

 18 19  0  0  0  0  0  0  0  0999 V2000
    5.3410    1.3490   -1.3290 N   0  0  0  0  0  0  0  0  0  0  0  0
    4.9690    0.5910    0.1690 S   0  0  1  0  0  0  0  0  0  0  0  0
    6.1840   -0.0910    0.7260 O   0  0  0  0  0  0  0  0  0  0  0  0
    4.5330    1.6420    1.1580 O   0  0  0  0  0  0  0  0  0  0  0  0
    3.7500   -0.6250   -0.0770 C   0  0  0  0  0  0  0  0  0  0  0  0
    3.5410   -1.7440   -0.3230 N   0  0  0  0  0  0  0  0  0  0  0  0
    2.3890   -2.3180   -0.4270 N   0  0  0  0  0  0  0  0  0  0  0  0
    1.3300   -1.7760   -0.2820 C   0  0  0  0  0  0  0  0  0  0  0  0
   -0.0700   -2.0030   -0.3030 N   0  0  0  0  0  0  0  0  0  0  0  0
   -1.0130   -0.9720   -0.0520 C   0  0  0  0  0  0  0  0  0  0  0  0
   -0.6300    0.2160    0.2060 O   0  0  0  0  0  0  0  0  0  0  0  0
   -2.4540   -1.3270   -0.1000 C   0  0  0  0  0  0  0  0  0  0  0  0
   -3.2830   -0.1790    0.1750 C   0  0  0  0  0  0  0  0  0  0  0  0
   -3.8850    0.8300   -0.4770 C   0  0  0  0  0  0  0  0  0  0  0  0
   -4.6150    1.7580    0.1420 C   0  0  0  0  0  0  0  0  0  0  0  0
   -4.7580    1.6800    1.4960 C   0  0  0  0  0  0  0  0  0  0  0  0
   -3.8120    0.2210    1.9260 S   0  0  0  0  0  0  0  0  0  0  0  0
    1.9480   -0.0210    0.0970 S   0  0  0  0  0  0  0  0  0  0  0  0
  2  1  1  6
  2  3  2  0
  2  4  2  0
  2  5  1  0
  5  6  2  0
  5 18  1  0
  6  7  1  0
  7  8  2  0
  8  9  1  0
  8 18  1  0
  9 10  1  0
 10 11  2  0
 10 12  1  0
 12 13  1  0
 13 14  2  0
 13 17  1  0
 14 15  1  0
 15 16  2  0
 16 17  1  0
M  END
