
     RDKit          3D

 18 19  0  0  0  0  0  0  0  0999 V2000
   -5.2200    0.9250   -0.7860 O   0  0  0  0  0  0  0  0  0  0  0  0
   -4.4250   -0.2920   -0.4060 S   0  0  2  0  0  0  0  0  0  0  0  0
   -4.3600   -1.2770   -1.5520 O   0  0  0  0  0  0  0  0  0  0  0  0
   -5.1430   -1.1010    0.8850 O   0  0  0  0  0  0  0  0  0  0  0  0
   -2.8200    0.0910    0.0430 N   0  0  0  0  0  0  0  0  0  0  0  0
   -2.1200   -1.1520    0.2920 C   0  0  0  0  0  0  0  0  0  0  0  0
   -0.6830   -0.9280    0.7630 C   0  0  0  0  0  0  0  0  0  0  0  0
   -0.4460    0.5560    0.6400 C   0  0  1  0  0  0  0  0  0  0  0  0
    0.9980    1.1940    1.4070 S   0  0  0  0  0  0  0  0  0  0  0  0
    2.5530    0.7250    0.7750 C   0  0  0  0  0  0  0  0  0  0  0  0
    3.6750    1.1790    1.3520 C   0  0  0  0  0  0  0  0  0  0  0  0
    4.9640    0.8370    0.8900 N   0  0  0  0  0  0  0  0  0  0  0  0
    5.1820   -0.0010   -0.2070 N   0  0  0  0  0  0  0  0  0  0  0  0
    4.0190   -0.5030   -0.8470 C   0  0  0  0  0  0  0  0  0  0  0  0
    4.1540   -1.4850   -2.1310 S   0  0  0  0  0  0  0  0  0  0  0  0
    2.7190   -0.1270   -0.3400 N   0  0  0  0  0  0  0  0  0  0  0  0
   -0.6880    0.9360   -0.7960 C   0  0  0  0  0  0  0  0  0  0  0  0
   -2.2130    0.8920   -1.0010 C   0  0  0  0  0  0  0  0  0  0  0  0
  1  2  2  0
  2  3  2  0
  2  4  1  1
  2  5  1  0
  5  6  1  0
  5 18  1  0
  6  7  1  0
  7  8  1  0
  8  9  1  6
  8 17  1  0
  9 10  1  0
 10 11  2  0
 10 16  1  0
 11 12  1  0
 12 13  1  0
 13 14  1  0
 14 15  2  0
 14 16  1  0
 17 18  1  0
M  END
