
     RDKit          3D

 18 19  0  0  0  0  0  0  0  0999 V2000
   -4.3220    0.8320    0.9760 C   0  0  0  0  0  0  0  0  0  0  0  0
   -3.4480   -0.2530    0.6490 O   0  0  0  0  0  0  0  0  0  0  0  0
   -3.4360   -0.8020   -0.6220 C   0  0  0  0  0  0  0  0  0  0  0  0
   -4.2220   -0.3110   -1.4790 O   0  0  0  0  0  0  0  0  0  0  0  0
   -2.5480   -1.9290   -1.0110 C   0  0  2  0  0  0  0  0  0  0  0  0
   -1.7910   -2.3270    0.1500 N   0  0  0  0  0  0  0  0  0  0  0  0
   -1.3280   -1.3880   -2.2560 S   0  0  0  0  0  0  0  0  0  0  0  0
   -0.1720   -0.2100   -1.5800 C   0  0  0  0  0  0  0  0  0  0  0  0
   -0.0500    0.9410   -1.4360 N   0  0  0  0  0  0  0  0  0  0  0  0
    0.9470    1.5650   -0.8850 N   0  0  0  0  0  0  0  0  0  0  0  0
    1.9180    1.0210   -0.4320 C   0  0  0  0  0  0  0  0  0  0  0  0
    3.1880    1.2860    0.2310 C   0  0  0  0  0  0  0  0  0  0  0  0
    3.8760    2.8560    0.6890 S   0  0  0  0  0  0  0  0  0  0  0  0
    5.4380    2.1210    1.4290 C   0  0  0  0  0  0  0  0  0  0  0  0
    5.2090    0.9240    1.2300 N   0  0  0  0  0  0  0  0  0  0  0  0
    4.1820    0.3840    0.6720 C   0  0  0  0  0  0  0  0  0  0  0  0
    4.0420   -1.0170    0.5040 O   0  0  0  0  0  0  0  0  0  0  0  0
    1.4590   -0.7800   -0.7940 S   0  0  0  0  0  0  0  0  0  0  0  0
  1  2  1  0
  2  3  1  0
  3  4  2  0
  3  5  1  0
  5  6  1  1
  5  7  1  0
  7  8  1  0
  8  9  2  0
  8 18  1  0
  9 10  1  0
 10 11  2  0
 11 12  1  0
 11 18  1  0
 12 13  1  0
 12 16  2  0
 13 14  1  0
 14 15  2  0
 15 16  1  0
 16 17  1  0
M  END
