
     RDKit          3D

 23 24  0  0  0  0  0  0  0  0999 V2000
    0.7800    1.9800    0.1570 C   0  0  0  0  0  0  0  0  0  0  0  0
    0.8360    0.6730   -0.5790 C   0  0  2  0  0  0  0  0  0  0  0  0
   -0.2020    0.2500   -1.2570 O   0  0  0  0  0  0  0  0  0  0  0  0
   -1.4060   -0.1000   -0.8960 C   0  0  2  0  0  0  0  0  0  0  0  0
   -2.2600    0.7550   -0.2590 O   0  0  0  0  0  0  0  0  0  0  0  0
   -1.9120    1.2300    0.8740 O   0  0  0  0  0  0  0  0  0  0  0  0
   -3.1270    1.2130    2.0870 P   0  0  0  0  0  0  0  0  0  0  0  0
   -3.2780    2.8210    2.7280 O   0  0  0  0  0  0  0  0  0  0  0  0
   -2.5730    0.1990    3.3870 O   0  0  0  0  0  0  0  0  0  0  0  0
   -1.5750   -1.4580   -0.2440 C   0  0  0  0  0  0  0  0  0  0  0  0
   -1.1370   -2.2770   -1.2480 O   0  0  0  0  0  0  0  0  0  0  0  0
   -1.7920   -1.7520   -2.3610 C   0  0  2  0  0  0  0  0  0  0  0  0
   -2.9980   -2.4790   -2.4720 O   0  0  0  0  0  0  0  0  0  0  0  0
   -1.0930   -1.9590   -3.5360 O   0  0  0  0  0  0  0  0  0  0  0  0
   -2.0830   -0.4360   -2.1150 O   0  0  0  0  0  0  0  0  0  0  0  0
    1.5620   -0.3460    0.2790 C   0  0  0  0  0  0  0  0  0  0  0  0
    2.9510    0.2750    0.3550 C   0  0  1  0  0  0  0  0  0  0  0  0
    3.0570    1.0840    1.4990 O   0  0  0  0  0  0  0  0  0  0  0  0
    3.8690   -0.7510    0.4470 O   0  0  0  0  0  0  0  0  0  0  0  0
    3.5920   -1.4330    1.5370 O   0  0  0  0  0  0  0  0  0  0  0  0
    3.0610    1.0610   -0.8890 C   0  0  0  0  0  0  0  0  0  0  0  0
    4.0220    1.7630   -1.2700 O   0  0  0  0  0  0  0  0  0  0  0  0
    1.8720    0.8780   -1.5830 O   0  0  0  0  0  0  0  0  0  0  0  0
  2  1  1  1
  2  3  1  0
  2 16  1  0
  2 23  1  0
  4  3  1  6
  4  5  1  0
  4 10  1  0
  4 15  1  0
  5  6  1  0
  6  7  1  0
  7  8  1  0
  7  9  1  0
 10 11  1  0
 11 12  1  0
 12 13  1  6
 12 14  1  0
 12 15  1  0
 16 17  1  0
 17 18  1  1
 17 19  1  0
 17 21  1  0
 19 20  1  0
 21 22  2  0
 21 23  1  0
M  END
