
     RDKit          3D

 24 25  0  0  0  0  0  0  0  0999 V2000
   -2.7770   -2.6520   -0.9430 O   0  0  0  0  0  0  0  0  0  0  0  0
   -3.7030   -2.1410   -0.2720 C   0  0  0  0  0  0  0  0  0  0  0  0
   -4.9240   -2.8100   -0.0810 O   0  0  0  0  0  0  0  0  0  0  0  0
   -3.4970   -0.8910    0.2840 O   0  0  0  0  0  0  0  0  0  0  0  0
   -2.2700   -0.1720    0.1170 C   0  0  1  0  0  0  0  0  0  0  0  0
   -1.2070   -0.8570    0.6150 O   0  0  0  0  0  0  0  0  0  0  0  0
    0.0190   -0.2410    0.5000 C   0  0  0  0  0  0  0  0  0  0  0  0
    1.1430   -1.0580    1.0550 C   0  0  0  0  0  0  0  0  0  0  0  0
    2.3580   -0.4370    0.9400 O   0  0  0  0  0  0  0  0  0  0  0  0
    2.7280   -0.1600   -0.3540 C   0  0  0  0  0  0  0  0  0  0  0  0
    4.0690    0.4960   -0.3250 C   0  0  0  0  0  0  0  0  0  0  0  0
    4.5980    0.8350   -1.4080 O   0  0  0  0  0  0  0  0  0  0  0  0
    4.7550    0.7470    0.8470 O   0  0  0  0  0  0  0  0  0  0  0  0
    5.9480    1.3360    0.8070 O   0  0  0  0  0  0  0  0  0  0  0  0
    6.8490    0.3740    0.9920 O   0  0  0  0  0  0  0  0  0  0  0  0
    6.5810   -0.6600    0.1960 O   0  0  0  0  0  0  0  0  0  0  0  0
   -2.1860    0.1120   -1.2860 O   0  0  0  0  0  0  0  0  0  0  0  0
   -3.2770    0.9750   -1.5160 C   0  0  0  0  0  0  0  0  0  0  0  0
   -3.7850    1.1100   -2.6620 O   0  0  0  0  0  0  0  0  0  0  0  0
   -3.6720    1.6380   -0.2420 C   0  0  2  0  0  0  0  0  0  0  0  0
   -3.4420    3.0010   -0.2870 O   0  0  0  0  0  0  0  0  0  0  0  0
   -2.1460    3.0370   -0.5070 O   0  0  0  0  0  0  0  0  0  0  0  0
   -1.5600    2.1480    0.2240 O   0  0  0  0  0  0  0  0  0  0  0  0
   -2.4920    1.2080    0.6500 C   0  0  2  0  0  0  0  0  0  0  0  0
  1  2  2  0
  2  3  1  0
  2  4  1  0
  5  4  1  6
  5  6  1  0
  5 17  1  0
  5 24  1  0
  6  7  1  0
  7  8  1  0
  8  9  1  0
  9 10  1  0
 10 11  1  0
 11 12  2  0
 11 13  1  0
 13 14  1  0
 14 15  1  0
 15 16  1  0
 17 18  1  0
 18 19  2  0
 18 20  1  0
 20 21  1  6
 20 24  1  0
 21 22  1  0
 22 23  1  0
 24 23  1  6
M  END
