
     RDKit          3D

 23 25  0  0  0  0  0  0  0  0999 V2000
   -6.1260   -1.5050    1.3070 O   0  0  0  0  0  0  0  0  0  0  0  0
   -5.2340   -0.7490    0.7910 C   0  0  0  0  0  0  0  0  0  0  0  0
   -5.5600    0.3340    0.1390 N   0  0  0  0  0  0  0  0  0  0  0  0
   -4.6500    1.1280   -0.4220 C   0  0  0  0  0  0  0  0  0  0  0  0
   -3.3640    0.7800   -0.2950 N   0  0  0  0  0  0  0  0  0  0  0  0
   -2.9720   -0.3070    0.3540 C   0  0  0  0  0  0  0  0  0  0  0  0
   -3.9140   -1.1300    0.9380 C   0  0  0  0  0  0  0  0  0  0  0  0
   -3.2230   -2.1380    1.5150 N   0  0  0  0  0  0  0  0  0  0  0  0
   -1.9230   -1.9160    1.2840 C   0  0  0  0  0  0  0  0  0  0  0  0
   -1.7230   -0.8310    0.5990 N   0  0  0  0  0  0  0  0  0  0  0  0
   -0.5650   -0.2150    0.1130 C   0  0  2  0  0  0  0  0  0  0  0  0
    0.3700   -1.0510   -0.4910 O   0  0  0  0  0  0  0  0  0  0  0  0
    1.4640   -0.3110   -0.5880 C   0  0  2  0  0  0  0  0  0  0  0  0
    2.7670   -1.0950   -0.3660 C   0  0  0  0  0  0  0  0  0  0  0  0
    3.7240   -0.0760   -0.2750 O   0  0  0  0  0  0  0  0  0  0  0  0
    4.8080   -0.1020   -1.5220 P   0  0  1  0  0  0  0  0  0  0  0  0
    4.0250    0.4580   -2.7970 O   0  0  0  0  0  0  0  0  0  0  0  0
    5.9810    1.0870   -1.2680 O   0  0  0  0  0  0  0  0  0  0  0  0
    5.4740   -1.5320   -1.9690 O   0  0  0  0  0  0  0  0  0  0  0  0
    1.4500    0.8610    0.3560 C   0  0  1  0  0  0  0  0  0  0  0  0
    0.9610    2.0150   -0.2910 O   0  0  0  0  0  0  0  0  0  0  0  0
    0.2850    0.3860    1.2410 C   0  0  1  0  0  0  0  0  0  0  0  0
   -0.3270    1.4370    1.8790 O   0  0  0  0  0  0  0  0  0  0  0  0
  1  2  2  0
  2  3  1  0
  2  7  1  0
  3  4  1  0
  4  5  2  0
  5  6  1  0
  6  7  2  0
  6 10  1  0
  7  8  1  0
  8  9  2  0
  9 10  1  0
 11 10  1  1
 11 12  1  0
 11 22  1  0
 12 13  1  0
 13 14  1  1
 13 20  1  0
 14 15  1  0
 15 16  1  0
 16 17  2  0
 16 18  1  1
 16 19  1  0
 20 21  1  6
 20 22  1  0
 22 23  1  6
M  END
