
     RDKit          3D

 24 24  0  0  0  0  0  0  0  0999 V2000
   -3.4320    1.9280   -0.7010 O   0  0  0  0  0  0  0  0  0  0  0  0
   -2.2710    2.1480   -0.2520 C   0  0  0  0  0  0  0  0  0  0  0  0
   -2.1250    1.9350    1.2150 C   0  0  0  0  0  0  0  0  0  0  0  0
   -2.4860    0.6280    1.5980 O   0  0  0  0  0  0  0  0  0  0  0  0
   -2.7320   -0.4400    0.8090 C   0  0  0  0  0  0  0  0  0  0  0  0
   -3.7770   -1.1260    0.8830 O   0  0  0  0  0  0  0  0  0  0  0  0
   -1.7450   -0.8560   -0.2070 C   0  0  2  0  0  0  0  0  0  0  0  0
   -1.9460   -2.3280   -0.4980 C   0  0  0  0  0  0  0  0  0  0  0  0
   -1.0380   -2.7850   -1.4560 O   0  0  0  0  0  0  0  0  0  0  0  0
   -1.2530   -4.0510   -1.6700 O   0  0  0  0  0  0  0  0  0  0  0  0
   -0.3210   -0.6740    0.2700 C   0  0  0  0  0  0  0  0  0  0  0  0
    0.5780   -1.0320   -0.7280 O   0  0  0  0  0  0  0  0  0  0  0  0
    1.6100   -0.1110   -0.8990 C   0  0  2  0  0  0  0  0  0  0  0  0
    2.2720    0.1110    0.3970 C   0  0  0  0  0  0  0  0  0  0  0  0
    1.9300   -0.4670    1.4510 O   0  0  0  0  0  0  0  0  0  0  0  0
    3.3480    1.0070    0.5090 O   0  0  0  0  0  0  0  0  0  0  0  0
    3.9620    1.2160    1.6930 O   0  0  0  0  0  0  0  0  0  0  0  0
    5.2360    0.9500    1.4960 O   0  0  0  0  0  0  0  0  0  0  0  0
    5.4280   -0.2830    1.0720 O   0  0  0  0  0  0  0  0  0  0  0  0
    1.3030    1.0040   -1.6370 O   0  0  0  0  0  0  0  0  0  0  0  0
    1.1900    2.3270   -1.3810 C   0  0  0  0  0  0  0  0  0  0  0  0
    2.0570    3.2230   -1.7250 O   0  0  0  0  0  0  0  0  0  0  0  0
    0.0590    2.7560   -0.6980 O   0  0  0  0  0  0  0  0  0  0  0  0
   -1.2070    2.5450   -0.9800 O   0  0  0  0  0  0  0  0  0  0  0  0
  1  2  2  0
  2  3  1  0
  2 24  1  0
  3  4  1  0
  4  5  1  0
  5  6  2  0
  5  7  1  0
  7  8  1  1
  7 11  1  0
  8  9  1  0
  9 10  1  0
 11 12  1  0
 12 13  1  0
 13 14  1  1
 13 20  1  0
 14 15  2  0
 14 16  1  0
 16 17  1  0
 17 18  1  0
 18 19  1  0
 20 21  1  0
 21 22  2  0
 21 23  1  0
 23 24  1  0
M  END
