
     RDKit          3D

 24 23  0  0  0  0  0  0  0  0999 V2000
   -5.8910   -2.1290    0.9820 O   0  0  0  0  0  0  0  0  0  0  0  0
   -6.0610   -1.8760   -0.2410 C   0  0  0  0  0  0  0  0  0  0  0  0
   -6.8800   -2.6650   -1.0600 O   0  0  0  0  0  0  0  0  0  0  0  0
   -5.4000   -0.7710   -0.7610 O   0  0  0  0  0  0  0  0  0  0  0  0
   -4.6320   -0.0340    0.0150 O   0  0  0  0  0  0  0  0  0  0  0  0
   -3.3500   -0.5760    0.1990 C   0  0  2  0  0  0  0  0  0  0  0  0
   -3.1530   -0.8140    1.5520 O   0  0  0  0  0  0  0  0  0  0  0  0
   -2.3730    0.4240   -0.3630 C   0  0  2  0  0  0  0  0  0  0  0  0
   -2.6720    0.5930   -1.7130 O   0  0  0  0  0  0  0  0  0  0  0  0
   -1.0350    0.0820   -0.1570 O   0  0  0  0  0  0  0  0  0  0  0  0
   -0.1610    0.8710    0.5510 C   0  0  0  0  0  0  0  0  0  0  0  0
   -0.5680    1.9310    1.0310 O   0  0  0  0  0  0  0  0  0  0  0  0
    1.2900    0.3890    0.7100 C   0  0  1  0  0  0  0  0  0  0  0  0
    1.9670    1.3380    1.4500 O   0  0  0  0  0  0  0  0  0  0  0  0
    2.8970    2.0960    0.8400 C   0  0  0  0  0  0  0  0  0  0  0  0
    2.4740    3.0030   -0.2590 C   0  0  0  0  0  0  0  0  0  0  0  0
    1.8970    2.3470   -1.3280 O   0  0  0  0  0  0  0  0  0  0  0  0
    1.5340    3.1690   -2.2820 O   0  0  0  0  0  0  0  0  0  0  0  0
    1.2860   -0.8480    1.2340 O   0  0  0  0  0  0  0  0  0  0  0  0
    1.6920   -1.9500    0.6130 C   0  0  0  0  0  0  0  0  0  0  0  0
    3.1370   -1.9960    0.2170 C   0  0  0  0  0  0  0  0  0  0  0  0
    3.4340   -0.9730   -0.6550 O   0  0  0  0  0  0  0  0  0  0  0  0
    4.6850   -0.9630   -1.0360 O   0  0  0  0  0  0  0  0  0  0  0  0
    5.1700   -2.1800   -1.1110 O   0  0  0  0  0  0  0  0  0  0  0  0
  1  2  2  0
  2  3  1  0
  2  4  1  0
  4  5  1  0
  5  6  1  0
  6  7  1  1
  6  8  1  0
  8  9  1  6
  8 10  1  0
 10 11  1  0
 11 12  2  0
 11 13  1  0
 13 14  1  1
 13 19  1  0
 14 15  1  0
 15 16  1  0
 16 17  1  0
 17 18  1  0
 19 20  1  0
 20 21  1  0
 21 22  1  0
 22 23  1  0
 23 24  1  0
M  END
