
     RDKit          3D

 23 23  0  0  0  0  0  0  0  0999 V2000
   -6.2960   -1.3910    0.3670 O   0  0  0  0  0  0  0  0  0  0  0  0
   -6.0610   -1.3770   -0.9140 C   0  0  0  0  0  0  0  0  0  0  0  0
   -6.1810   -2.4950   -1.6380 O   0  0  0  0  0  0  0  0  0  0  0  0
   -5.6650   -0.1210   -1.4750 O   0  0  0  0  0  0  0  0  0  0  0  0
   -5.5720    0.7980   -0.4010 O   0  0  0  0  0  0  0  0  0  0  0  0
   -4.2880    1.3740   -0.5640 C   0  0  0  0  0  0  0  0  0  0  0  0
   -3.5090    0.7540    0.6560 C   0  0  2  0  0  0  0  0  0  0  0  0
   -4.2160    0.9280    1.8120 O   0  0  0  0  0  0  0  0  0  0  0  0
   -2.3080    1.3950    0.7420 O   0  0  0  0  0  0  0  0  0  0  0  0
   -1.0990    0.8880    0.3690 C   0  0  0  0  0  0  0  0  0  0  0  0
   -1.0490   -0.2700   -0.1840 O   0  0  0  0  0  0  0  0  0  0  0  0
    0.1450    1.7020    0.6140 C   0  0  0  0  0  0  0  0  0  0  0  0
    1.2400    1.3440   -0.1470 O   0  0  0  0  0  0  0  0  0  0  0  0
    1.9620    0.2320   -0.2480 C   0  0  0  0  0  0  0  0  0  0  0  0
    1.6290   -0.7530    0.4680 O   0  0  0  0  0  0  0  0  0  0  0  0
    3.0780    0.0430   -1.0920 O   0  0  0  0  0  0  0  0  0  0  0  0
    3.7560   -1.2430   -1.0420 C   0  0  0  0  0  0  0  0  0  0  0  0
    4.4920   -1.3090    0.2580 C   0  0  0  0  0  0  0  0  0  0  0  0
    5.8640   -0.0670    0.2550 P   0  0  0  0  0  0  0  0  0  0  0  0
    6.7810    0.2770   -1.2880 O   0  0  0  0  0  0  0  0  0  0  0  0
    8.0640    0.4740   -0.7370 O   0  0  0  0  0  0  0  0  0  0  0  0
    8.1850    0.3820    0.3900 O   0  0  0  0  0  0  0  0  0  0  0  0
    7.1690    0.0850    1.2670 O   0  0  0  0  0  0  0  0  0  0  0  0
  1  2  2  0
  2  3  1  0
  2  4  1  0
  4  5  1  0
  5  6  1  0
  6  7  1  0
  7  8  1  1
  7  9  1  0
  9 10  1  0
 10 11  2  0
 10 12  1  0
 12 13  1  0
 13 14  1  0
 14 15  2  0
 14 16  1  0
 16 17  1  0
 17 18  1  0
 18 19  1  0
 19 20  1  0
 19 23  1  0
 20 21  1  0
 21 22  1  0
 22 23  1  0
M  END
