
     RDKit          3D

 34 37  0  0  0  0  0  0  0  0999 V2000
   -5.3720    4.5730    2.5210 C   0  0  0  0  0  0  0  0  0  0  0  0
   -3.9540    4.0690    2.4290 C   0  0  0  0  0  0  0  0  0  0  0  0
   -3.9480    2.7950    1.6060 C   0  0  0  0  0  0  0  0  0  0  0  0
   -5.0310    2.3750    1.1530 O   0  0  0  0  0  0  0  0  0  0  0  0
   -2.7610    2.1110    1.3610 N   0  0  0  0  0  0  0  0  0  0  0  0
   -2.6120    0.9340    0.6220 C   0  0  0  0  0  0  0  0  0  0  0  0
   -3.6300    0.3100   -0.0420 C   0  0  0  0  0  0  0  0  0  0  0  0
   -3.4260   -0.8580   -0.7840 C   0  0  0  0  0  0  0  0  0  0  0  0
   -4.5810   -1.4460   -1.4510 C   0  0  0  0  0  0  0  0  0  0  0  0
   -5.7120   -0.9580   -1.2220 O   0  0  0  0  0  0  0  0  0  0  0  0
   -4.5000   -2.5430   -2.3480 N   0  0  0  0  0  0  0  0  0  0  0  0
   -5.6020   -3.1270   -3.0030 C   0  0  0  0  0  0  0  0  0  0  0  0
   -6.9300   -2.7960   -2.9320 C   0  0  0  0  0  0  0  0  0  0  0  0
   -7.6250   -3.6610   -3.7580 C   0  0  0  0  0  0  0  0  0  0  0  0
   -6.7620   -4.4800   -4.3060 O   0  0  0  0  0  0  0  0  0  0  0  0
   -5.5450   -4.1890   -3.8770 C   0  0  0  0  0  0  0  0  0  0  0  0
   -2.1740   -1.3770   -0.8390 C   0  0  0  0  0  0  0  0  0  0  0  0
   -1.0830   -0.7950   -0.1870 C   0  0  0  0  0  0  0  0  0  0  0  0
    0.2480   -1.3940   -0.3050 C   0  0  0  0  0  0  0  0  0  0  0  0
    0.4280   -2.7500   -0.0450 C   0  0  0  0  0  0  0  0  0  0  0  0
    1.6240   -3.3570   -0.1500 N   0  0  0  0  0  0  0  0  0  0  0  0
    2.7310   -2.6500   -0.5240 C   0  0  0  0  0  0  0  0  0  0  0  0
    2.6210   -1.3030   -0.7960 C   0  0  0  0  0  0  0  0  0  0  0  0
    3.8000   -0.5310   -1.1950 C   0  0  0  0  0  0  0  0  0  0  0  0
    4.4080    0.1680   -0.0800 N   0  0  0  0  0  0  0  0  0  0  0  0
    4.8140   -0.8130    0.9200 C   0  0  0  0  0  0  0  0  0  0  0  0
    5.6990   -0.1730    1.9680 C   0  0  0  0  0  0  0  0  0  0  0  0
    5.6700    1.2750    1.8810 N   0  0  0  0  0  0  0  0  0  0  0  0
    6.1900    1.7010    0.6120 C   0  0  1  0  0  0  0  0  0  0  0  0
    7.7050    1.6260    0.5800 C   0  0  0  0  0  0  0  0  0  0  0  0
    5.5530    0.9500   -0.5080 C   0  0  0  0  0  0  0  0  0  0  0  0
    1.3750   -0.6980   -0.6810 C   0  0  0  0  0  0  0  0  0  0  0  0
   -1.3260    0.3420    0.5260 C   0  0  0  0  0  0  0  0  0  0  0  0
   -0.2240    1.0070    1.2710 C   0  0  0  0  0  0  0  0  0  0  0  0
  1  2  1  0
  2  3  1  0
  3  4  2  0
  3  5  1  0
  5  6  1  0
  6  7  2  0
  6 33  1  0
  7  8  1  0
  8  9  1  0
  8 17  2  0
  9 10  2  0
  9 11  1  0
 11 12  1  0
 12 13  1  0
 12 16  2  0
 13 14  2  0
 14 15  1  0
 15 16  1  0
 17 18  1  0
 18 19  1  0
 18 33  2  0
 19 20  2  0
 19 32  1  0
 20 21  1  0
 21 22  2  0
 22 23  1  0
 23 24  1  0
 23 32  2  0
 24 25  1  0
 25 26  1  0
 25 31  1  0
 26 27  1  0
 27 28  1  0
 28 29  1  0
 29 30  1  1
 29 31  1  0
 33 34  1  0
M  CHG  1  28   1
M  END
