
     RDKit          3D

 34 37  0  0  0  0  0  0  0  0999 V2000
   -8.4200   -3.1520    0.0630 C   0  0  0  0  0  0  0  0  0  0  0  0
   -7.4930   -2.0400    0.1440 N   0  0  0  0  0  0  0  0  0  0  0  0
   -6.2040   -2.4350   -0.3990 C   0  0  0  0  0  0  0  0  0  0  0  0
   -5.1970   -1.3330   -0.2020 C   0  0  0  0  0  0  0  0  0  0  0  0
   -5.5350   -0.1470    0.4150 C   0  0  0  0  0  0  0  0  0  0  0  0
   -4.6490    0.8920    0.6200 C   0  0  0  0  0  0  0  0  0  0  0  0
   -3.3530    0.7290    0.1800 C   0  0  0  0  0  0  0  0  0  0  0  0
   -2.9820   -0.4430   -0.4400 C   0  0  0  0  0  0  0  0  0  0  0  0
   -3.8980   -1.4830   -0.6370 C   0  0  0  0  0  0  0  0  0  0  0  0
   -3.4930   -2.7460   -1.3070 C   0  0  0  0  0  0  0  0  0  0  0  0
   -2.3940    1.8300    0.3930 C   0  0  1  0  0  0  0  0  0  0  0  0
   -1.3480    1.8540   -0.6090 N   0  0  0  0  0  0  0  0  0  0  0  0
    0.0020    1.6560   -0.2310 C   0  0  0  0  0  0  0  0  0  0  0  0
    0.2270    1.4620    1.0070 O   0  0  0  0  0  0  0  0  0  0  0  0
    1.1190    1.6720   -1.2340 C   0  0  0  0  0  0  0  0  0  0  0  0
    2.3740    1.4200   -0.4900 C   0  0  0  0  0  0  0  0  0  0  0  0
    2.9370    2.3140    0.1920 O   0  0  0  0  0  0  0  0  0  0  0  0
    2.9640    0.1370   -0.5430 N   0  0  0  0  0  0  0  0  0  0  0  0
    2.3220   -0.8940   -1.3260 C   0  0  0  0  0  0  0  0  0  0  0  0
    4.1870   -0.2180    0.1470 C   0  0  0  0  0  0  0  0  0  0  0  0
    5.3390    0.0660   -0.7780 C   0  0  0  0  0  0  0  0  0  0  0  0
    6.6500   -0.2760   -0.1380 C   0  0  0  0  0  0  0  0  0  0  0  0
    7.2570   -1.4720   -0.2090 N   0  0  0  0  0  0  0  0  0  0  0  0
    8.4120   -1.4380    0.4750 C   0  0  0  0  0  0  0  0  0  0  0  0
    9.4340   -2.3270    0.7530 C   0  0  0  0  0  0  0  0  0  0  0  0
   10.5210   -1.9280    1.5270 C   0  0  0  0  0  0  0  0  0  0  0  0
   10.6060   -0.6580    2.0260 C   0  0  0  0  0  0  0  0  0  0  0  0
    9.5920    0.2280    1.7510 C   0  0  0  0  0  0  0  0  0  0  0  0
    8.5020   -0.1360    0.9880 C   0  0  0  0  0  0  0  0  0  0  0  0
    7.4220    0.4880    0.5820 O   0  0  0  0  0  0  0  0  0  0  0  0
   -3.1430    3.1390    0.3080 C   0  0  2  0  0  0  0  0  0  0  0  0
   -2.2270    4.3390    0.3030 C   0  0  0  0  0  0  0  0  0  0  0  0
   -4.1040    3.1740    1.4820 C   0  0  0  0  0  0  0  0  0  0  0  0
   -5.0650    2.1100    1.2720 N   0  0  0  0  0  0  0  0  0  0  0  0
  1  2  1  0
  2  3  1  0
  3  4  1  0
  4  5  2  0
  4  9  1  0
  5  6  1  0
  6  7  2  0
  6 34  1  0
  7  8  1  0
  7 11  1  0
  8  9  2  0
  9 10  1  0
 11 12  1  6
 11 31  1  0
 12 13  1  0
 13 14  2  0
 13 15  1  0
 15 16  1  0
 16 17  2  0
 16 18  1  0
 18 19  1  0
 18 20  1  0
 20 21  1  0
 21 22  1  0
 22 23  2  0
 22 30  1  0
 23 24  1  0
 24 25  2  0
 24 29  1  0
 25 26  1  0
 26 27  2  0
 27 28  1  0
 28 29  2  0
 29 30  1  0
 31 32  1  1
 31 33  1  0
 33 34  1  0
M  CHG  1   2   1
M  END
