
     RDKit          3D

 35 37  0  0  0  0  0  0  0  0999 V2000
   -5.0900   -0.5450    3.0600 C   0  0  0  0  0  0  0  0  0  0  0  0
   -4.9040    0.6810    2.2360 C   0  0  0  0  0  0  0  0  0  0  0  0
   -5.3600    0.5460    0.7990 C   0  0  2  0  0  0  0  0  0  0  0  0
   -6.8660    0.2120    0.7720 C   0  0  0  0  0  0  0  0  0  0  0  0
   -7.6720    1.2790    1.4310 C   0  0  0  0  0  0  0  0  0  0  0  0
   -7.5030    2.5040    0.7950 O   0  0  0  0  0  0  0  0  0  0  0  0
   -4.6800   -0.6190    0.1640 C   0  0  0  0  0  0  0  0  0  0  0  0
   -3.2680   -0.6370    0.1100 N   0  0  0  0  0  0  0  0  0  0  0  0
   -2.7530   -1.8880   -0.4390 C   0  0  0  0  0  0  0  0  0  0  0  0
   -2.3210   -1.8050   -1.8610 C   0  0  1  0  0  0  0  0  0  0  0  0
   -3.4740   -1.8200   -2.8340 C   0  0  0  0  0  0  0  0  0  0  0  0
   -1.4220   -0.6580   -2.1940 C   0  0  0  0  0  0  0  0  0  0  0  0
   -1.1950    0.1340   -0.9370 C   0  0  2  0  0  0  0  0  0  0  0  0
   -0.4170   -0.4930    0.0270 O   0  0  0  0  0  0  0  0  0  0  0  0
    0.8860   -0.8560   -0.2740 C   0  0  0  0  0  0  0  0  0  0  0  0
    1.3230   -1.8720   -0.9880 C   0  0  0  0  0  0  0  0  0  0  0  0
    2.8090   -1.8670   -1.0440 C   0  0  0  0  0  0  0  0  0  0  0  0
    3.7990   -2.6960   -1.6490 C   0  0  0  0  0  0  0  0  0  0  0  0
    5.2980   -1.9490   -1.1960 S   0  0  0  0  0  0  0  0  0  0  0  0
    4.6000   -0.6170   -0.2580 C   0  0  0  0  0  0  0  0  0  0  0  0
    5.3630    0.4000    0.4140 N   0  0  0  0  0  0  0  0  0  0  0  0
    6.7680    0.3550    0.3410 C   0  0  0  0  0  0  0  0  0  0  0  0
    7.3270   -0.5860   -0.3170 O   0  0  0  0  0  0  0  0  0  0  0  0
    7.6140    1.2600    0.9340 O   0  0  0  0  0  0  0  0  0  0  0  0
    9.0400    1.1420    0.8130 C   0  0  1  0  0  0  0  0  0  0  0  0
    9.3740    1.2170   -0.6600 C   0  0  0  0  0  0  0  0  0  0  0  0
    9.7470    2.2070    1.5820 C   0  0  0  0  0  0  0  0  0  0  0  0
    9.4750   -0.2550    1.2690 C   0  0  0  0  0  0  0  0  0  0  0  0
    3.2880   -0.8350   -0.3560 C   0  0  0  0  0  0  0  0  0  0  0  0
    2.0710   -0.1380    0.1700 C   0  0  0  0  0  0  0  0  0  0  0  0
    2.0150    0.8950    0.8790 O   0  0  0  0  0  0  0  0  0  0  0  0
   -2.5860    0.4960   -0.4070 C   0  0  0  0  0  0  0  0  0  0  0  0
   -5.1870    1.8250    0.0940 C   0  0  0  0  0  0  0  0  0  0  0  0
   -5.5940    2.0090   -1.2750 N   0  0  0  0  0  0  0  0  0  0  0  0
   -4.6720    2.8690    0.6190 O   0  0  0  0  0  0  0  0  0  0  0  0
  1  2  1  0
  3  2  1  1
  3  4  1  0
  3  7  1  0
  3 33  1  0
  4  5  1  0
  5  6  1  0
  7  8  1  0
  8  9  1  0
  8 32  1  0
  9 10  1  0
 10 11  1  6
 10 12  1  0
 12 13  1  0
 13 14  1  1
 13 32  1  0
 14 15  1  0
 15 16  2  0
 15 30  1  0
 16 17  1  0
 17 18  2  0
 17 29  1  0
 18 19  1  0
 19 20  1  0
 20 21  1  0
 20 29  2  0
 21 22  1  0
 22 23  2  0
 22 24  1  0
 24 25  1  0
 25 26  1  6
 25 27  1  0
 25 28  1  0
 29 30  1  0
 30 31  2  0
 33 34  1  0
 33 35  2  0
M  END
