
     RDKit          3D

 35 37  0  0  0  0  0  0  0  0999 V2000
   -8.0270   -0.0110   -1.2680 C   0  0  0  0  0  0  0  0  0  0  0  0
   -7.1140   -0.6870   -0.3690 N   0  0  0  0  0  0  0  0  0  0  0  0
   -6.4910    0.0330    0.7080 C   0  0  0  0  0  0  0  0  0  0  0  0
   -5.2390    0.4000    0.5560 C   0  0  0  0  0  0  0  0  0  0  0  0
   -4.5450    0.0590   -0.6970 C   0  0  0  0  0  0  0  0  0  0  0  0
   -5.1350   -0.5710   -1.6110 O   0  0  0  0  0  0  0  0  0  0  0  0
   -3.2360    0.4220   -0.8930 O   0  0  0  0  0  0  0  0  0  0  0  0
   -2.4780    0.1500   -2.0370 C   0  0  0  0  0  0  0  0  0  0  0  0
   -2.3610   -1.3480   -2.2060 C   0  0  0  0  0  0  0  0  0  0  0  0
   -1.5360   -1.7000   -3.4280 C   0  0  0  0  0  0  0  0  0  0  0  0
   -0.2240   -1.1430   -3.2720 N   0  0  0  0  0  0  0  0  0  0  0  0
    0.6050   -1.5320   -2.2080 C   0  0  0  0  0  0  0  0  0  0  0  0
    0.2230   -2.3740   -1.3730 O   0  0  0  0  0  0  0  0  0  0  0  0
    1.9500   -0.9290   -2.0810 C   0  0  0  0  0  0  0  0  0  0  0  0
    2.6260   -1.5250   -0.8740 C   0  0  0  0  0  0  0  0  0  0  0  0
    3.9860   -0.9160   -0.7500 C   0  0  0  0  0  0  0  0  0  0  0  0
    4.3040   -0.0530   -1.5890 O   0  0  0  0  0  0  0  0  0  0  0  0
    4.8770   -1.2980    0.2720 N   0  0  0  0  0  0  0  0  0  0  0  0
    6.1600   -0.7680    0.4510 C   0  0  0  0  0  0  0  0  0  0  0  0
    6.9750   -1.4600    1.3650 C   0  0  0  0  0  0  0  0  0  0  0  0
    8.2520   -1.0320    1.6350 C   0  0  0  0  0  0  0  0  0  0  0  0
    8.7620    0.0810    1.0190 C   0  0  0  0  0  0  0  0  0  0  0  0
    8.0180    0.7860    0.1290 C   0  0  0  0  0  0  0  0  0  0  0  0
    6.7120    0.3280   -0.1320 C   0  0  0  0  0  0  0  0  0  0  0  0
    8.4980    1.9860   -0.5480 C   0  0  0  0  0  0  0  0  0  0  0  0
    8.1490    2.1670   -1.7410 O   0  0  0  0  0  0  0  0  0  0  0  0
    9.3720    3.0040    0.0850 C   0  0  0  0  0  0  0  0  0  0  0  0
   10.1800    2.2850    1.5400 S   0  0  0  0  0  0  0  0  0  0  0  0
   10.1560    0.4940    1.3350 C   0  0  0  0  0  0  0  0  0  0  0  0
   -4.4930    1.1500    1.5990 C   0  0  1  0  0  0  0  0  0  0  0  0
   -3.6350    2.0620    0.9560 O   0  0  0  0  0  0  0  0  0  0  0  0
   -5.4800    1.9910    2.3890 C   0  0  0  0  0  0  0  0  0  0  0  0
   -6.6050    1.1720    2.9320 C   0  0  2  0  0  0  0  0  0  0  0  0
   -6.1320    0.3710    4.1470 C   0  0  0  0  0  0  0  0  0  0  0  0
   -7.3010    0.3170    1.9310 C   0  0  0  0  0  0  0  0  0  0  0  0
  1  2  1  0
  2  3  1  0
  3  4  2  0
  3 35  1  0
  4  5  1  0
  4 30  1  0
  5  6  2  0
  5  7  1  0
  7  8  1  0
  8  9  1  0
  9 10  1  0
 10 11  1  0
 11 12  1  0
 12 13  2  0
 12 14  1  0
 14 15  1  0
 15 16  1  0
 16 17  2  0
 16 18  1  0
 18 19  1  0
 19 20  2  0
 19 24  1  0
 20 21  1  0
 21 22  2  0
 22 23  1  0
 22 29  1  0
 23 24  2  0
 23 25  1  0
 25 26  2  0
 25 27  1  0
 27 28  1  0
 28 29  1  0
 30 31  1  6
 30 32  1  0
 32 33  1  0
 33 34  1  1
 33 35  1  0
M  END
