
     RDKit          3D

 34 37  0  0  0  0  0  0  0  0999 V2000
    3.6550   -0.4280    2.5810 C   0  0  0  0  0  0  0  0  0  0  0  0
    4.7610    0.3930    2.0500 C   0  0  0  0  0  0  0  0  0  0  0  0
    4.3440    1.3800    0.9390 C   0  0  1  0  0  0  0  0  0  0  0  0
    5.5830    2.0460    0.6170 N   0  0  0  0  0  0  0  0  0  0  0  0
    6.5120    1.4730   -0.2360 N   0  0  0  0  0  0  0  0  0  0  0  0
    6.2190    0.5940   -1.1170 C   0  0  0  0  0  0  0  0  0  0  0  0
    7.1960   -0.0040   -2.0250 C   0  0  0  0  0  0  0  0  0  0  0  0
    4.8360    0.1220   -1.1160 C   0  0  0  0  0  0  0  0  0  0  0  0
    4.1580   -0.6680   -2.0000 N   0  0  0  0  0  0  0  0  0  0  0  0
    2.8620   -0.7100   -1.6780 C   0  0  0  0  0  0  0  0  0  0  0  0
    1.7500   -1.4430   -2.3600 C   0  0  0  0  0  0  0  0  0  0  0  0
    2.6530    0.0620   -0.5560 C   0  0  0  0  0  0  0  0  0  0  0  0
    1.3500    0.3240    0.0960 C   0  0  0  0  0  0  0  0  0  0  0  0
    0.9290   -0.4410    0.9730 O   0  0  0  0  0  0  0  0  0  0  0  0
    0.5990    1.3940   -0.2500 O   0  0  0  0  0  0  0  0  0  0  0  0
   -0.5960    1.9260    0.0950 C   0  0  0  0  0  0  0  0  0  0  0  0
   -1.8610    1.2320   -0.2860 C   0  0  0  0  0  0  0  0  0  0  0  0
   -2.1100   -0.0810    0.2040 N   0  0  2  0  0  0  0  0  0  0  0  0
   -1.6990   -1.1290   -0.6800 C   0  0  0  0  0  0  0  0  0  0  0  0
   -2.7660   -1.7760   -1.4460 C   0  0  0  0  0  0  0  0  0  0  0  0
   -3.0690   -3.0720   -1.3330 C   0  0  0  0  0  0  0  0  0  0  0  0
   -4.1840   -3.4080   -2.2370 C   0  0  0  0  0  0  0  0  0  0  0  0
   -4.4970   -2.1530   -2.9070 C   0  0  0  0  0  0  0  0  0  0  0  0
   -3.6620   -1.2220   -2.4310 C   0  0  0  0  0  0  0  0  0  0  0  0
   -3.7490    0.0900   -2.9110 O   0  0  0  0  0  0  0  0  0  0  0  0
   -3.5260   -0.2060    0.5660 C   0  0  1  0  0  0  0  0  0  0  0  0
   -3.7210   -1.4800    1.3630 C   0  0  0  0  0  0  0  0  0  0  0  0
   -3.8490    0.9270    1.4630 C   0  0  0  0  0  0  0  0  0  0  0  0
   -3.0940    1.2850    2.5580 C   0  0  0  0  0  0  0  0  0  0  0  0
   -3.4110    2.3500    3.3850 C   0  0  0  0  0  0  0  0  0  0  0  0
   -4.5350    3.1090    3.1210 C   0  0  0  0  0  0  0  0  0  0  0  0
   -5.2820    2.7400    2.0220 C   0  0  0  0  0  0  0  0  0  0  0  0
   -4.9440    1.7050    1.2470 N   0  0  0  0  0  0  0  0  0  0  0  0
    3.8950    0.5720   -0.2140 C   0  0  0  0  0  0  0  0  0  0  0  0
  1  2  1  0
  3  2  1  1
  3  4  1  0
  3 34  1  0
  4  5  1  0
  5  6  2  0
  6  7  1  0
  6  8  1  0
  8  9  1  0
  8 34  2  0
  9 10  1  0
 10 11  1  0
 10 12  2  0
 12 13  1  0
 12 34  1  0
 13 14  2  0
 13 15  1  0
 15 16  1  0
 16 17  1  0
 18 17  1  6
 18 19  1  0
 18 26  1  0
 19 20  1  0
 20 21  2  0
 20 24  1  0
 21 22  1  0
 22 23  1  0
 23 24  2  0
 24 25  1  0
 26 27  1  1
 26 28  1  0
 28 29  2  0
 28 33  1  0
 29 30  1  0
 30 31  2  0
 31 32  1  0
 32 33  2  0
M  CHG  1  18   1
M  END
