
     RDKit          3D

 34 37  0  0  0  0  0  0  0  0999 V2000
   -5.9470   -5.2840   -0.8580 C   0  0  0  0  0  0  0  0  0  0  0  0
   -6.0860   -3.9660   -0.6300 C   0  0  0  0  0  0  0  0  0  0  0  0
   -7.1450   -3.0840   -1.0980 C   0  0  0  0  0  0  0  0  0  0  0  0
   -6.9070   -1.9070   -0.6640 N   0  0  0  0  0  0  0  0  0  0  0  0
   -5.7220   -1.8360    0.1120 C   0  0  0  0  0  0  0  0  0  0  0  0
   -5.0650   -0.8080    0.7790 C   0  0  0  0  0  0  0  0  0  0  0  0
   -3.8890   -1.0080    1.4850 C   0  0  0  0  0  0  0  0  0  0  0  0
   -3.2250    0.1420    2.1870 C   0  0  0  0  0  0  0  0  0  0  0  0
   -2.4470    0.9550    1.2660 N   0  0  0  0  0  0  0  0  0  0  0  0
   -1.1520    0.5660    0.7880 C   0  0  0  0  0  0  0  0  0  0  0  0
   -0.7600   -0.5350    1.2520 O   0  0  0  0  0  0  0  0  0  0  0  0
   -0.4330    1.4070   -0.1340 C   0  0  0  0  0  0  0  0  0  0  0  0
    0.7590    1.0900   -0.5860 C   0  0  0  0  0  0  0  0  0  0  0  0
    1.4890   -0.0690   -0.2550 N   0  0  0  0  0  0  0  0  0  0  0  0
    2.8030   -0.2890   -0.8330 C   0  0  0  0  0  0  0  0  0  0  0  0
    3.2750    0.5600   -1.6300 O   0  0  0  0  0  0  0  0  0  0  0  0
    3.5750   -1.4440   -0.5200 N   0  0  0  0  0  0  0  0  0  0  0  0
    4.8920   -1.5650   -1.1610 C   0  0  0  0  0  0  0  0  0  0  0  0
    5.6070   -2.8060   -0.7550 C   0  0  1  0  0  0  0  0  0  0  0  0
    4.9640   -4.0150   -1.3960 C   0  0  0  0  0  0  0  0  0  0  0  0
    6.1720   -4.9470   -1.5380 C   0  0  0  0  0  0  0  0  0  0  0  0
    7.3740   -4.0530   -1.3690 C   0  0  0  0  0  0  0  0  0  0  0  0
    6.8450   -2.7890   -1.4380 O   0  0  0  0  0  0  0  0  0  0  0  0
   -1.0280    2.6500   -0.6070 N   0  0  2  0  0  0  0  0  0  0  0  0
   -0.6030    2.7950   -1.9840 C   0  0  0  0  0  0  0  0  0  0  0  0
   -0.7730    3.7550    0.2430 C   0  0  2  0  0  0  0  0  0  0  0  0
    0.1510    4.7580   -0.3940 C   0  0  0  0  0  0  0  0  0  0  0  0
    0.3270    5.9950    0.4600 C   0  0  0  0  0  0  0  0  0  0  0  0
   -0.0300    5.7390    1.9130 C   0  0  0  0  0  0  0  0  0  0  0  0
    0.5830    4.3830    2.2540 C   0  0  0  0  0  0  0  0  0  0  0  0
   -0.3120    3.3410    1.6180 C   0  0  0  0  0  0  0  0  0  0  0  0
   -3.3740   -2.2830    1.5100 C   0  0  0  0  0  0  0  0  0  0  0  0
   -4.0230   -3.3230    0.8460 C   0  0  0  0  0  0  0  0  0  0  0  0
   -5.1990   -3.1090    0.1430 C   0  0  0  0  0  0  0  0  0  0  0  0
  1  2  2  0
  2  3  1  0
  2 34  1  0
  3  4  2  0
  4  5  1  0
  5  6  2  0
  5 34  1  0
  6  7  1  0
  7  8  1  0
  7 32  2  0
  8  9  1  0
  9 10  1  0
 10 11  2  0
 10 12  1  0
 12 13  2  3
 12 24  1  0
 13 14  1  0
 14 15  1  0
 15 16  2  0
 15 17  1  0
 17 18  1  0
 19 18  1  6
 19 20  1  0
 19 23  1  0
 20 21  1  0
 21 22  1  0
 22 23  1  0
 24 25  1  6
 24 26  1  0
 26 27  1  6
 26 31  1  0
 27 28  1  0
 28 29  1  0
 29 30  1  0
 30 31  1  0
 32 33  1  0
 33 34  2  0
M  CHG  1  24   1
M  END
