
     RDKit          3D

 35 36  0  0  0  0  0  0  0  0999 V2000
   -5.3240   -4.1720    0.4770 C   0  0  0  0  0  0  0  0  0  0  0  0
   -5.9300   -2.9820   -0.0860 C   0  0  0  0  0  0  0  0  0  0  0  0
   -5.4960   -1.7670   -0.1290 C   0  0  0  0  0  0  0  0  0  0  0  0
   -4.2880   -1.1570    0.3430 C   0  0  0  0  0  0  0  0  0  0  0  0
   -4.1210    0.1240    0.1990 C   0  0  0  0  0  0  0  0  0  0  0  0
   -4.9260    1.0910   -0.3640 N   0  0  0  0  0  0  0  0  0  0  0  0
   -6.5220    1.2550   -0.8540 S   0  0  1  0  0  0  0  0  0  0  0  0
   -6.7330    2.8030   -1.2280 O   0  0  0  0  0  0  0  0  0  0  0  0
   -6.8410    0.5670   -2.1140 O   0  0  0  0  0  0  0  0  0  0  0  0
   -7.7380    1.0310    0.4030 C   0  0  0  0  0  0  0  0  0  0  0  0
   -7.5560    2.0450    1.5160 C   0  0  0  0  0  0  0  0  0  0  0  0
   -2.7980    0.6270    0.8520 C   0  0  0  0  0  0  0  0  0  0  0  0
   -1.7070   -0.1260    0.2880 N   0  0  0  0  0  0  0  0  0  0  0  0
   -0.6180    0.5030   -0.3000 C   0  0  0  0  0  0  0  0  0  0  0  0
   -0.5970    1.7830   -0.3350 O   0  0  0  0  0  0  0  0  0  0  0  0
    0.4910   -0.1980   -0.8730 N   0  0  0  0  0  0  0  0  0  0  0  0
    1.5780    0.5330   -1.4640 C   0  0  2  0  0  0  0  0  0  0  0  0
    1.7570    0.2540   -2.9000 C   0  0  0  0  0  0  0  0  0  0  0  0
    3.0110   -0.2590   -3.4400 C   0  0  2  0  0  0  0  0  0  0  0  0
    2.8020   -1.4290   -4.2170 O   0  0  0  0  0  0  0  0  0  0  0  0
    4.1220   -0.5420   -2.4900 C   0  0  0  0  0  0  0  0  0  0  0  0
    3.6190   -0.7600   -1.0560 C   0  0  1  0  0  0  0  0  0  0  0  0
    2.8910   -2.0540   -1.1340 C   0  0  0  0  0  0  0  0  0  0  0  0
    4.8430   -0.8930   -0.3460 O   0  0  0  0  0  0  0  0  0  0  0  0
    2.8560    0.4270   -0.6070 C   0  0  1  0  0  0  0  0  0  0  0  0
    3.6040    1.6920   -0.9850 C   0  0  0  0  0  0  0  0  0  0  0  0
    2.9160    2.9720   -0.6850 C   0  0  0  0  0  0  0  0  0  0  0  0
    2.4370    0.4410    0.7980 C   0  0  0  0  0  0  0  0  0  0  0  0
    3.2970    0.3430    1.9500 C   0  0  0  0  0  0  0  0  0  0  0  0
    4.3510    1.3980    2.1820 C   0  0  0  0  0  0  0  0  0  0  0  0
    5.1020    1.1130    3.4730 C   0  0  0  0  0  0  0  0  0  0  0  0
    6.0390    2.1000    3.6640 O   0  0  0  0  0  0  0  0  0  0  0  0
    6.9980    2.2460    2.7070 C   0  0  0  0  0  0  0  0  0  0  0  0
   -1.8040   -1.5550    0.3590 C   0  0  0  0  0  0  0  0  0  0  0  0
   -3.1760   -1.9520    0.9370 C   0  0  0  0  0  0  0  0  0  0  0  0
  1  2  1  0
  2  3  2  3
  3  4  1  0
  4  5  2  0
  4 35  1  0
  5  6  1  0
  5 12  1  0
  6  7  1  0
  7  8  2  0
  7  9  2  0
  7 10  1  1
 10 11  1  0
 12 13  1  0
 13 14  1  0
 13 34  1  0
 14 15  2  0
 14 16  1  0
 17 16  1  1
 17 18  1  0
 17 25  1  0
 18 19  1  0
 19 20  1  1
 19 21  1  0
 21 22  1  0
 22 23  1  6
 22 24  1  0
 22 25  1  0
 25 26  1  1
 25 28  1  0
 26 27  1  0
 28 29  1  0
 29 30  1  0
 30 31  1  0
 31 32  1  0
 32 33  1  0
 34 35  1  0
M  END
