
     RDKit          3D

 20 22  0  0  0  0  0  0  0  0999 V2000
    5.3280   -0.1890    1.0640 N   0  0  0  0  0  0  0  0  0  0  0  0
    4.1800    0.4070    0.4670 C   0  0  0  0  0  0  0  0  0  0  0  0
    3.5820    1.5910    0.7830 C   0  0  0  0  0  0  0  0  0  0  0  0
    2.5340    1.7390   -0.0460 N   0  0  0  0  0  0  0  0  0  0  0  0
    2.4350    0.7120   -0.8700 N   0  0  0  0  0  0  0  0  0  0  0  0
    1.4470    0.4740   -1.9280 C   0  0  0  0  0  0  0  0  0  0  0  0
    0.3200   -0.2700   -1.3420 C   0  0  0  0  0  0  0  0  0  0  0  0
    0.4500   -1.5360   -1.3060 O   0  0  0  0  0  0  0  0  0  0  0  0
   -0.8680    0.3210   -0.8280 N   0  0  0  0  0  0  0  0  0  0  0  0
   -0.9710    1.7540   -0.8950 C   0  0  0  0  0  0  0  0  0  0  0  0
   -2.2940    2.2980   -0.4750 C   0  0  0  0  0  0  0  0  0  0  0  0
   -3.4480    1.3710   -0.6820 C   0  0  0  0  0  0  0  0  0  0  0  0
   -3.2210   -0.0070   -0.2000 C   0  0  0  0  0  0  0  0  0  0  0  0
   -4.0330   -0.8520    0.2990 N   0  0  0  0  0  0  0  0  0  0  0  0
   -3.3150   -2.0530    0.6090 C   0  0  2  0  0  0  0  0  0  0  0  0
   -3.2930   -2.2300    2.0510 N   0  0  0  0  0  0  0  0  0  0  0  0
   -1.9290   -1.7470    0.1960 C   0  0  0  0  0  0  0  0  0  0  0  0
   -1.8640   -0.5240   -0.2900 C   0  0  0  0  0  0  0  0  0  0  0  0
    3.4480   -0.1250   -0.5670 C   0  0  0  0  0  0  0  0  0  0  0  0
    3.7360   -1.3810   -1.2100 N   0  0  0  0  0  0  0  0  0  0  0  0
  1  2  1  0
  2  3  1  0
  2 19  2  0
  3  4  2  0
  4  5  1  0
  5  6  1  0
  5 19  1  0
  6  7  1  0
  7  8  2  0
  7  9  1  0
  9 10  1  0
  9 18  1  0
 10 11  1  0
 11 12  1  0
 12 13  1  0
 13 14  2  0
 13 18  1  0
 14 15  1  0
 15 16  1  1
 15 17  1  0
 17 18  2  0
 19 20  1  0
M  CHG  1  16   1
M  END
