
     RDKit          3D

 18 19  0  0  0  0  0  0  0  0999 V2000
   -3.2040    1.0930    2.2370 C   0  0  0  0  0  0  0  0  0  0  0  0
   -2.0300    1.1150    1.2920 C   0  0  0  0  0  0  0  0  0  0  0  0
   -1.7030   -0.2560    0.7410 C   0  0  1  0  0  0  0  0  0  0  0  0
   -2.8970   -0.8080   -0.0190 C   0  0  0  0  0  0  0  0  0  0  0  0
   -2.6870   -0.0910   -1.3620 C   0  0  0  0  0  0  0  0  0  0  0  0
   -1.1740   -0.3510   -1.5230 C   0  0  0  0  0  0  0  0  0  0  0  0
   -0.6250   -0.1990   -0.2190 N   0  0  0  0  0  0  0  0  0  0  0  0
    0.4280   -1.0470    0.1600 C   0  0  0  0  0  0  0  0  0  0  0  0
    1.7430   -0.8410   -0.5050 C   0  0  1  0  0  0  0  0  0  0  0  0
    2.3060    0.5060   -0.2870 C   0  0  0  0  0  0  0  0  0  0  0  0
    2.7660    1.1070   -1.2900 O   0  0  0  0  0  0  0  0  0  0  0  0
    2.3620    1.1480    0.9270 O   0  0  0  0  0  0  0  0  0  0  0  0
    2.9240    2.4420    1.0170 C   0  0  0  0  0  0  0  0  0  0  0  0
    2.7120   -1.8000    0.2260 C   0  0  0  0  0  0  0  0  0  0  0  0
    4.1620   -1.5210   -0.8780 S   0  0  0  0  0  0  0  0  0  0  0  0
    3.1880   -0.9850   -2.3160 C   0  0  0  0  0  0  0  0  0  0  0  0
    3.6260   -0.5540   -3.3970 O   0  0  0  0  0  0  0  0  0  0  0  0
    1.8270   -1.1870   -1.8790 N   0  0  0  0  0  0  0  0  0  0  0  0
  1  2  1  0
  3  2  1  6
  3  4  1  0
  3  7  1  0
  4  5  1  0
  5  6  1  0
  6  7  1  0
  7  8  1  0
  9  8  1  1
  9 10  1  0
  9 14  1  0
  9 18  1  0
 10 11  2  0
 10 12  1  0
 12 13  1  0
 14 15  1  0
 15 16  1  0
 16 17  2  0
 16 18  1  0
M  END
