
     RDKit          3D

 20 22  0  0  0  0  0  0  0  0999 V2000
   -4.2100    0.7270   -1.7660 C   0  0  0  0  0  0  0  0  0  0  0  0
   -3.6570    0.3610   -0.4390 C   0  0  0  0  0  0  0  0  0  0  0  0
   -4.4510    0.1390    0.6450 C   0  0  0  0  0  0  0  0  0  0  0  0
   -3.9490   -0.2040    1.8930 C   0  0  0  0  0  0  0  0  0  0  0  0
   -4.7150   -0.4020    2.8750 O   0  0  0  0  0  0  0  0  0  0  0  0
   -2.6120   -0.3140    2.0000 N   0  0  0  0  0  0  0  0  0  0  0  0
   -1.7770   -0.1060    0.9590 C   0  0  0  0  0  0  0  0  0  0  0  0
   -0.4090   -0.2190    1.0720 C   0  0  0  0  0  0  0  0  0  0  0  0
    0.4300    0.0030   -0.0270 C   0  0  0  0  0  0  0  0  0  0  0  0
    1.8790   -0.1220    0.0980 C   0  0  0  0  0  0  0  0  0  0  0  0
    2.3930   -1.2230    0.7480 C   0  0  0  0  0  0  0  0  0  0  0  0
    3.7590   -1.3490    0.8670 C   0  0  0  0  0  0  0  0  0  0  0  0
    4.6410   -0.4110    0.3580 C   0  0  0  0  0  0  0  0  0  0  0  0
    6.0470   -0.5780    0.5020 N   0  0  0  0  0  0  0  0  0  0  0  0
    4.0880    0.6780   -0.2860 C   0  0  0  0  0  0  0  0  0  0  0  0
    2.7170    0.8410   -0.4260 C   0  0  0  0  0  0  0  0  0  0  0  0
    2.1070    2.2570   -1.2550 Cl  0  0  0  0  0  0  0  0  0  0  0  0
   -0.0860    0.3410   -1.2480 C   0  0  0  0  0  0  0  0  0  0  0  0
   -1.4690    0.4560   -1.3670 C   0  0  0  0  0  0  0  0  0  0  0  0
   -2.2850    0.2350   -0.2780 C   0  0  0  0  0  0  0  0  0  0  0  0
  1  2  1  0
  2  3  2  0
  2 20  1  0
  3  4  1  0
  4  5  2  0
  4  6  1  0
  6  7  1  0
  7  8  2  0
  7 20  1  0
  8  9  1  0
  9 10  1  0
  9 18  2  0
 10 11  2  0
 10 16  1  0
 11 12  1  0
 12 13  2  0
 13 14  1  0
 13 15  1  0
 15 16  2  0
 16 17  1  0
 18 19  1  0
 19 20  2  0
M  END
