
     RDKit          3D

 18 19  0  0  0  0  0  0  0  0999 V2000
    4.0480   -0.0230    0.8450 C   0  0  0  0  0  0  0  0  0  0  0  0
    3.5470    0.7810   -0.1650 O   0  0  0  0  0  0  0  0  0  0  0  0
    3.2040    0.1280   -1.2940 C   0  0  0  0  0  0  0  0  0  0  0  0
    2.1600   -0.9060   -1.2910 C   0  0  0  0  0  0  0  0  0  0  0  0
    0.8420   -0.7290   -0.9640 N   0  0  0  0  0  0  0  0  0  0  0  0
    0.2300   -0.4620    0.2350 C   0  0  1  0  0  0  0  0  0  0  0  0
    0.4150    0.8380    0.8880 C   0  0  0  0  0  0  0  0  0  0  0  0
   -0.2730    2.0010    0.2200 C   0  0  0  0  0  0  0  0  0  0  0  0
   -1.6420    2.1410    0.8280 C   0  0  1  0  0  0  0  0  0  0  0  0
   -2.6040    3.0850    0.2000 C   0  0  0  0  0  0  0  0  0  0  0  0
   -3.6120    1.9490    0.2870 C   0  0  0  0  0  0  0  0  0  0  0  0
   -2.5330    1.0630    0.5850 N   0  0  0  0  0  0  0  0  0  0  0  0
   -2.1440    0.0890   -0.3750 C   0  0  0  0  0  0  0  0  0  0  0  0
   -1.2440   -0.9130    0.2630 C   0  0  1  0  0  0  0  0  0  0  0  0
   -1.3460   -2.5110   -0.4710 S   0  0  1  0  0  0  0  0  0  0  0  0
   -0.2250   -3.6480    0.3010 C   0  0  0  0  0  0  0  0  0  0  0  0
   -2.7520   -3.0310   -0.1960 O   0  0  0  0  0  0  0  0  0  0  0  0
   -1.1280   -2.4730   -1.9550 O   0  0  0  0  0  0  0  0  0  0  0  0
  1  2  1  0
  2  3  1  0
  3  4  1  0
  4  5  1  0
  6  5  1  6
  6  7  1  0
  6 14  1  0
  7  8  1  0
  9  8  1  6
  9 10  1  0
  9 12  1  0
 10 11  1  0
 11 12  1  0
 12 13  1  0
 14 13  1  6
 14 15  1  0
 15 16  1  1
 15 17  2  0
 15 18  2  0
M  END
