
     RDKit          3D

 19 21  0  0  0  0  0  0  0  0999 V2000
    0.2010    4.1670    0.2660 C   0  0  0  0  0  0  0  0  0  0  0  0
    0.4250    2.8550    0.1210 C   0  0  0  0  0  0  0  0  0  0  0  0
    1.7430    2.3470    0.0170 N   0  0  0  0  0  0  0  0  0  0  0  0
    1.9170    0.9360   -0.1360 C   0  0  0  0  0  0  0  0  0  0  0  0
    3.1740    0.4630   -0.2330 N   0  0  0  0  0  0  0  0  0  0  0  0
    3.4400   -0.8180   -0.3770 N   0  0  0  0  0  0  0  0  0  0  0  0
    2.4380   -1.7010   -0.4300 C   0  0  0  0  0  0  0  0  0  0  0  0
    2.6790   -3.0840   -0.5830 N   0  0  0  0  0  0  0  0  0  0  0  0
    1.0930   -1.2840   -0.3350 C   0  0  0  0  0  0  0  0  0  0  0  0
    0.1970   -2.2960   -0.4060 N   0  0  0  0  0  0  0  0  0  0  0  0
    0.8460    0.0360   -0.1890 C   0  0  0  0  0  0  0  0  0  0  0  0
   -0.4930    0.5590   -0.0830 C   0  0  0  0  0  0  0  0  0  0  0  0
   -0.6520    1.8830    0.0610 C   0  0  0  0  0  0  0  0  0  0  0  0
   -2.0870    2.1660    0.1450 C   0  0  0  0  0  0  0  0  0  0  0  0
   -2.6670    3.2820    0.2840 O   0  0  0  0  0  0  0  0  0  0  0  0
   -2.6990    0.8650    0.0330 C   0  0  0  0  0  0  0  0  0  0  0  0
   -1.7590   -0.1050   -0.1040 C   0  0  0  0  0  0  0  0  0  0  0  0
   -2.2590   -1.3860   -0.2180 N   0  0  0  0  0  0  0  0  0  0  0  0
   -2.7410   -2.0970    0.9630 C   0  0  0  0  0  0  0  0  0  0  0  0
  1  2  2  0
  2  3  1  0
  2 13  1  0
  3  4  1  0
  4  5  2  0
  4 11  1  0
  5  6  1  0
  6  7  2  0
  7  8  1  0
  7  9  1  0
  9 10  1  0
  9 11  2  0
 11 12  1  0
 12 13  2  0
 12 17  1  0
 13 14  1  0
 14 15  2  0
 14 16  1  0
 16 17  2  0
 17 18  1  0
 18 19  1  0
M  CHG  1   5   1
M  END
