
     RDKit          3D

 20 21  0  0  0  0  0  0  0  0999 V2000
    3.1640   -1.5510   -0.8410 C   0  0  0  0  0  0  0  0  0  0  0  0
    3.8160   -0.2580   -0.6200 C   0  0  0  0  0  0  0  0  0  0  0  0
    3.1510    0.7170   -0.0400 C   0  0  0  0  0  0  0  0  0  0  0  0
    3.6750    2.0720    0.2460 C   0  0  0  0  0  0  0  0  0  0  0  0
    4.8620    2.4810   -0.0330 N   0  0  0  0  0  0  0  0  0  0  0  0
    2.5950    2.7470    0.8680 N   0  0  0  0  0  0  0  0  0  0  0  0
    1.4810    1.8590    0.9570 C   0  0  0  0  0  0  0  0  0  0  0  0
    1.7550    0.6730    0.4450 C   0  0  0  0  0  0  0  0  0  0  0  0
    1.0010   -0.4570    0.3200 O   0  0  0  0  0  0  0  0  0  0  0  0
   -0.3110   -0.6900    0.2160 C   0  0  0  0  0  0  0  0  0  0  0  0
   -1.2700    0.2450    0.2140 N   0  0  0  0  0  0  0  0  0  0  0  0
   -2.5900    0.0200    0.1130 C   0  0  0  0  0  0  0  0  0  0  0  0
   -3.5870    1.0330    0.0820 N   0  0  0  0  0  0  0  0  0  0  0  0
   -4.1680    1.4380   -1.1820 C   0  0  0  0  0  0  0  0  0  0  0  0
   -4.0390    1.6730    1.2880 C   0  0  0  0  0  0  0  0  0  0  0  0
   -2.9580   -1.2940    0.0040 N   0  0  0  0  0  0  0  0  0  0  0  0
   -2.0660   -2.2980   -0.0030 C   0  0  0  0  0  0  0  0  0  0  0  0
   -2.4350   -3.6610   -0.1160 N   0  0  0  0  0  0  0  0  0  0  0  0
   -0.7170   -2.0270    0.1020 C   0  0  0  0  0  0  0  0  0  0  0  0
    0.2780   -3.0160    0.0910 N   0  0  0  0  0  0  0  0  0  0  0  0
  1  2  1  0
  2  3  2  3
  3  4  1  0
  3  8  1  0
  4  5  2  0
  4  6  1  0
  6  7  1  0
  7  8  2  0
  8  9  1  0
  9 10  1  0
 10 11  2  0
 10 19  1  0
 11 12  1  0
 12 13  1  0
 12 16  2  0
 13 14  1  0
 13 15  1  0
 16 17  1  0
 17 18  1  0
 17 19  2  0
 19 20  1  0
M  CHG  1   5   1
M  END
