
     RDKit          3D

 29 31  0  0  0  0  0  0  0  0999 V2000
   -1.3440   -4.2600   -2.8960 C   0  0  0  0  0  0  0  0  0  0  0  0
   -0.4900   -3.3420   -2.2330 O   0  0  0  0  0  0  0  0  0  0  0  0
   -1.0400   -2.2770   -1.4890 C   0  0  0  0  0  0  0  0  0  0  0  0
   -2.4100   -2.1530   -1.4230 C   0  0  0  0  0  0  0  0  0  0  0  0
   -3.0040   -1.1390   -0.7150 C   0  0  0  0  0  0  0  0  0  0  0  0
   -4.4010   -0.9930   -0.6340 O   0  0  0  0  0  0  0  0  0  0  0  0
   -5.1840   -1.9490   -1.3230 C   0  0  0  0  0  0  0  0  0  0  0  0
   -2.1970   -0.2410   -0.0670 C   0  0  0  0  0  0  0  0  0  0  0  0
   -2.8100    0.8410    0.6880 C   0  0  0  0  0  0  0  0  0  0  0  0
   -3.8580    1.5910    0.1960 C   0  0  0  0  0  0  0  0  0  0  0  0
   -4.4070    2.6070    0.9460 C   0  0  0  0  0  0  0  0  0  0  0  0
   -3.9280    2.8960    2.1970 C   0  0  0  0  0  0  0  0  0  0  0  0
   -4.4690    3.9240    2.9800 O   0  0  0  0  0  0  0  0  0  0  0  0
   -2.8790    2.1600    2.7150 C   0  0  0  0  0  0  0  0  0  0  0  0
   -2.3690    2.4230    3.9730 O   0  0  0  0  0  0  0  0  0  0  0  0
   -2.3290    1.1330    1.9460 C   0  0  0  0  0  0  0  0  0  0  0  0
   -0.7990   -0.3730   -0.1380 C   0  0  0  0  0  0  0  0  0  0  0  0
   -0.2180   -1.3810   -0.8420 C   0  0  0  0  0  0  0  0  0  0  0  0
    1.1670   -1.5460   -0.9370 N   0  0  0  0  0  0  0  0  0  0  0  0
    2.1770   -0.7480   -0.3570 C   0  0  0  0  0  0  0  0  0  0  0  0
    1.9220    0.2300    0.3310 O   0  0  0  0  0  0  0  0  0  0  0  0
    3.5620   -1.0710   -0.5630 N   0  0  0  0  0  0  0  0  0  0  0  0
    4.5660   -0.2210    0.0540 C   0  0  0  0  0  0  0  0  0  0  0  0
    5.4060   -0.7280    0.9040 C   0  0  0  0  0  0  0  0  0  0  0  0
    6.4930   -0.1000    1.6510 C   0  0  0  0  0  0  0  0  0  0  0  0
    6.6560    1.6500    1.3100 S   0  0  0  0  0  0  0  0  0  0  0  0
    5.3910    2.0740    0.1230 C   0  0  0  0  0  0  0  0  0  0  0  0
    5.3200    3.4820   -0.3240 C   0  0  0  0  0  0  0  0  0  0  0  0
    4.5530    1.1820   -0.3430 C   0  0  0  0  0  0  0  0  0  0  0  0
  1  2  1  0
  2  3  1  0
  3  4  2  0
  3 18  1  0
  4  5  1  0
  5  6  1  0
  5  8  2  0
  6  7  1  0
  8  9  1  0
  8 17  1  0
  9 10  2  0
  9 16  1  0
 10 11  1  0
 11 12  2  0
 12 13  1  0
 12 14  1  0
 14 15  1  0
 14 16  2  0
 17 18  2  0
 18 19  1  0
 19 20  1  0
 20 21  2  0
 20 22  1  0
 22 23  1  0
 23 24  2  0
 23 29  1  0
 24 25  1  0
 25 26  1  0
 26 27  1  0
 27 28  1  0
 27 29  2  0
M  END
