
     RDKit          3D

 30 33  0  0  0  0  0  0  0  0999 V2000
   -3.4590   -0.9750   -2.0600 C   0  0  0  0  0  0  0  0  0  0  0  0
   -3.8580   -1.0330   -0.5950 C   0  0  2  0  0  0  0  0  0  0  0  0
   -2.9690   -2.1000    0.0610 C   0  0  0  0  0  0  0  0  0  0  0  0
   -5.2620   -1.5150   -0.4670 C   0  0  0  0  0  0  0  0  0  0  0  0
   -6.2990   -0.4420   -0.2980 C   0  0  0  0  0  0  0  0  0  0  0  0
   -5.8710    0.3910    0.8540 C   0  0  0  0  0  0  0  0  0  0  0  0
   -6.6290    0.6130    1.8170 O   0  0  0  0  0  0  0  0  0  0  0  0
   -4.5190    0.9330    0.7980 C   0  0  0  0  0  0  0  0  0  0  0  0
   -4.2100    2.1110    1.4350 C   0  0  0  0  0  0  0  0  0  0  0  0
   -5.1670    2.8010    2.1240 O   0  0  0  0  0  0  0  0  0  0  0  0
   -2.8940    2.5860    1.3580 C   0  0  0  0  0  0  0  0  0  0  0  0
   -1.9490    1.8760    0.6580 C   0  0  0  0  0  0  0  0  0  0  0  0
   -2.2350    0.6960    0.0130 C   0  0  0  0  0  0  0  0  0  0  0  0
   -1.3520   -0.0520   -0.6950 O   0  0  0  0  0  0  0  0  0  0  0  0
   -0.0260    0.0550   -0.9870 C   0  0  0  0  0  0  0  0  0  0  0  0
    0.9420    0.0210    0.1510 C   0  0  0  0  0  0  0  0  0  0  0  0
    2.3400    0.1490   -0.3840 C   0  0  0  0  0  0  0  0  0  0  0  0
    2.4440    0.2800   -1.6270 O   0  0  0  0  0  0  0  0  0  0  0  0
    3.4320    0.1180    0.4990 N   0  0  0  0  0  0  0  0  0  0  0  0
    4.8010    0.2390    0.0740 C   0  0  0  0  0  0  0  0  0  0  0  0
    5.0610    0.8580   -1.1000 C   0  0  0  0  0  0  0  0  0  0  0  0
    6.4000    0.9240   -1.5210 C   0  0  0  0  0  0  0  0  0  0  0  0
    7.3880    0.3560   -0.7210 C   0  0  0  0  0  0  0  0  0  0  0  0
    9.1460    0.2200   -0.8890 S   0  0  0  0  0  0  0  0  0  0  0  0
    9.3920   -0.6920    0.6950 C   0  0  0  0  0  0  0  0  0  0  0  0
   10.5190   -1.0740    1.1170 O   0  0  0  0  0  0  0  0  0  0  0  0
    8.1450   -0.7820    1.1510 N   0  0  0  0  0  0  0  0  0  0  0  0
    7.1420   -0.2790    0.4820 C   0  0  0  0  0  0  0  0  0  0  0  0
    5.7810   -0.3210    0.8650 C   0  0  0  0  0  0  0  0  0  0  0  0
   -3.5600    0.2340    0.1010 C   0  0  0  0  0  0  0  0  0  0  0  0
  2  1  1  6
  2  3  1  0
  2  4  1  0
  2 30  1  0
  4  5  1  0
  5  6  1  0
  6  7  2  0
  6  8  1  0
  8  9  2  0
  8 30  1  0
  9 10  1  0
  9 11  1  0
 11 12  2  0
 12 13  1  0
 13 14  1  0
 13 30  2  0
 14 15  1  0
 15 16  1  0
 16 17  1  0
 17 18  2  0
 17 19  1  0
 19 20  1  0
 20 21  2  0
 20 29  1  0
 21 22  1  0
 22 23  2  0
 23 24  1  0
 23 28  1  0
 24 25  1  0
 25 26  2  0
 25 27  1  0
 27 28  1  0
 28 29  2  0
M  END
