
     RDKit          3D

 30 33  0  0  0  0  0  0  0  0999 V2000
    8.2390   -1.0580    0.1900 C   0  0  0  0  0  0  0  0  0  0  0  0
    7.3130   -0.2560   -0.5590 C   0  0  0  0  0  0  0  0  0  0  0  0
    7.7580    0.4850   -1.6350 C   0  0  0  0  0  0  0  0  0  0  0  0
    6.9080    1.2700   -2.3850 C   0  0  0  0  0  0  0  0  0  0  0  0
    7.3440    1.9470   -3.3770 O   0  0  0  0  0  0  0  0  0  0  0  0
    5.6130    1.2940   -2.0350 N   0  0  0  0  0  0  0  0  0  0  0  0
    5.1200    0.5900   -0.9930 C   0  0  0  0  0  0  0  0  0  0  0  0
    3.7960    0.6170   -0.6380 C   0  0  0  0  0  0  0  0  0  0  0  0
    3.2660   -0.1020    0.4340 C   0  0  0  0  0  0  0  0  0  0  0  0
    1.8390   -0.0220    0.7570 C   0  0  0  0  0  0  0  0  0  0  0  0
    1.2040    1.2110    0.8080 C   0  0  0  0  0  0  0  0  0  0  0  0
   -0.1290    1.3320    1.1090 C   0  0  0  0  0  0  0  0  0  0  0  0
   -0.9050    0.2270    1.3770 C   0  0  0  0  0  0  0  0  0  0  0  0
   -2.3080    0.4250    1.6890 C   0  0  0  0  0  0  0  0  0  0  0  0
   -2.7880    1.5800    1.7100 O   0  0  0  0  0  0  0  0  0  0  0  0
   -3.2130   -0.6310    1.9830 N   0  0  0  0  0  0  0  0  0  0  0  0
   -4.5940   -0.3900    2.2860 C   0  0  0  0  0  0  0  0  0  0  0  0
   -5.3490    0.2980    1.1810 C   0  0  0  0  0  0  0  0  0  0  0  0
   -5.3610   -0.4440   -0.0470 N   0  0  2  0  0  0  0  0  0  0  0  0
   -4.5030    0.1930   -1.0270 C   0  0  0  0  0  0  0  0  0  0  0  0
   -5.0450   -0.0000   -2.4370 C   0  0  0  0  0  0  0  0  0  0  0  0
   -6.2620    0.6410   -2.6080 O   0  0  0  0  0  0  0  0  0  0  0  0
   -6.9350    0.7690   -1.3880 C   0  0  0  0  0  0  0  0  0  0  0  0
   -6.7010   -0.5020   -0.6080 C   0  0  0  0  0  0  0  0  0  0  0  0
   -0.2930   -1.0040    1.3310 C   0  0  0  0  0  0  0  0  0  0  0  0
    1.0670   -1.1310    1.0240 C   0  0  0  0  0  0  0  0  0  0  0  0
    1.8310   -2.6990    0.9640 Cl  0  0  0  0  0  0  0  0  0  0  0  0
    4.1590   -0.8700    1.1500 C   0  0  0  0  0  0  0  0  0  0  0  0
    5.5180   -0.9210    0.8160 C   0  0  0  0  0  0  0  0  0  0  0  0
    5.9760   -0.1970   -0.2420 C   0  0  0  0  0  0  0  0  0  0  0  0
  1  2  1  0
  2  3  2  0
  2 30  1  0
  3  4  1  0
  4  5  2  0
  4  6  1  0
  6  7  1  0
  7  8  2  0
  7 30  1  0
  8  9  1  0
  9 10  1  0
  9 28  2  0
 10 11  2  0
 10 26  1  0
 11 12  1  0
 12 13  2  0
 13 14  1  0
 13 25  1  0
 14 15  2  0
 14 16  1  0
 16 17  1  0
 17 18  1  0
 19 18  1  1
 19 20  1  0
 19 24  1  0
 20 21  1  0
 21 22  1  0
 22 23  1  0
 23 24  1  0
 25 26  2  0
 26 27  1  0
 28 29  1  0
 29 30  2  0
M  CHG  1  19   1
M  END
