
     RDKit          3D

 30 32  0  0  0  0  0  0  0  0999 V2000
    8.9400   -0.6340    1.5120 C   0  0  0  0  0  0  0  0  0  0  0  0
    7.6040   -0.1580    1.1120 N   0  0  0  0  0  0  0  0  0  0  0  0
    6.5940   -1.0750    0.7890 C   0  0  0  0  0  0  0  0  0  0  0  0
    6.9180   -2.3140    0.8660 O   0  0  0  0  0  0  0  0  0  0  0  0
    5.2420   -0.7670    0.3820 C   0  0  0  0  0  0  0  0  0  0  0  0
    4.3860   -1.8280    0.0840 C   0  0  0  0  0  0  0  0  0  0  0  0
    3.1090   -1.5470   -0.3130 C   0  0  0  0  0  0  0  0  0  0  0  0
    2.2490   -2.6040   -0.6120 O   0  0  0  0  0  0  0  0  0  0  0  0
    2.6370   -0.2710   -0.4280 C   0  0  0  0  0  0  0  0  0  0  0  0
    1.2410   -0.0110   -0.7980 C   0  0  0  0  0  0  0  0  0  0  0  0
    0.8130    0.8080   -1.6780 C   0  0  0  0  0  0  0  0  0  0  0  0
    1.9580    1.8230   -2.6640 S   0  0  0  0  0  0  0  0  0  0  0  0
    3.5100    0.9930   -3.0060 C   0  0  0  0  0  0  0  0  0  0  0  0
   -0.5790    1.0920   -1.9450 C   0  0  0  0  0  0  0  0  0  0  0  0
   -0.8390    1.9970   -2.8670 O   0  0  0  0  0  0  0  0  0  0  0  0
   -1.6920    0.5240   -1.3460 N   0  0  0  0  0  0  0  0  0  0  0  0
   -3.0060    1.1140   -1.8060 C   0  0  0  0  0  0  0  0  0  0  0  0
   -3.6710    1.4900   -0.4840 C   0  0  0  0  0  0  0  0  0  0  0  0
   -4.1520    0.2250    0.2040 C   0  0  2  0  0  0  0  0  0  0  0  0
   -5.5940   -0.0870   -0.2440 C   0  0  0  0  0  0  0  0  0  0  0  0
   -6.1530   -1.0470    0.7810 C   0  0  0  0  0  0  0  0  0  0  0  0
   -6.5890   -0.1910    1.9660 C   0  0  0  0  0  0  0  0  0  0  0  0
   -5.5410    0.8550    2.1950 C   0  0  0  0  0  0  0  0  0  0  0  0
   -4.1710    0.4460    1.6770 C   0  0  1  0  0  0  0  0  0  0  0  0
   -3.7080   -0.7000    2.3640 O   0  0  0  0  0  0  0  0  0  0  0  0
   -3.3350   -0.9340   -0.2630 C   0  0  0  0  0  0  0  0  0  0  0  0
   -1.8550   -0.5290   -0.4030 C   0  0  0  0  0  0  0  0  0  0  0  0
    3.4820    0.7560   -0.1330 C   0  0  0  0  0  0  0  0  0  0  0  0
    4.8040    0.5280    0.2780 C   0  0  0  0  0  0  0  0  0  0  0  0
    5.5890    1.6260    0.5560 O   0  0  0  0  0  0  0  0  0  0  0  0
  1  2  1  0
  2  3  1  0
  3  4  2  0
  3  5  1  0
  5  6  2  0
  5 29  1  0
  6  7  1  0
  7  8  1  0
  7  9  2  0
  9 10  1  0
  9 28  1  0
 10 11  2  3
 11 12  1  0
 11 14  1  0
 12 13  1  0
 14 15  2  0
 14 16  1  0
 16 17  1  0
 16 27  1  0
 17 18  1  0
 19 18  1  6
 19 20  1  0
 19 24  1  0
 19 26  1  0
 20 21  1  0
 21 22  1  0
 22 23  1  0
 23 24  1  0
 24 25  1  1
 26 27  1  0
 28 29  2  0
 29 30  1  0
M  END
