
     RDKit          3D

 30 33  0  0  0  0  0  0  0  0999 V2000
   -2.5070   -3.8500   -2.4540 C   0  0  0  0  0  0  0  0  0  0  0  0
   -2.1560   -2.7190   -1.6890 O   0  0  0  0  0  0  0  0  0  0  0  0
   -2.3380   -2.6600   -0.3260 C   0  0  0  0  0  0  0  0  0  0  0  0
   -2.8350   -3.6530    0.2610 O   0  0  0  0  0  0  0  0  0  0  0  0
   -1.9680   -1.4820    0.4370 C   0  0  0  0  0  0  0  0  0  0  0  0
   -0.7040   -1.3210    0.9880 C   0  0  0  0  0  0  0  0  0  0  0  0
    0.5210   -2.5900    0.7710 S   0  0  0  0  0  0  0  0  0  0  0  0
    1.5240   -2.3600   -0.6980 C   0  0  0  0  0  0  0  0  0  0  0  0
    2.3780   -1.1290   -0.5930 C   0  0  0  0  0  0  0  0  0  0  0  0
    1.9180    0.0960   -1.0460 C   0  0  0  0  0  0  0  0  0  0  0  0
    2.7200    1.2190   -0.9400 C   0  0  0  0  0  0  0  0  0  0  0  0
    3.9800    1.1540   -0.3890 C   0  0  0  0  0  0  0  0  0  0  0  0
    4.4460   -0.0480    0.0630 C   0  0  0  0  0  0  0  0  0  0  0  0
    3.6420   -1.1760   -0.0440 C   0  0  0  0  0  0  0  0  0  0  0  0
    5.7440   -0.1320    0.6360 N   0  0  0  0  0  0  0  0  0  0  0  0
    6.5120    1.0620    0.7150 C   0  0  0  0  0  0  0  0  0  0  0  0
    7.7850    1.0210    0.7250 O   0  0  0  0  0  0  0  0  0  0  0  0
    5.7800    2.3500    0.7860 C   0  0  0  0  0  0  0  0  0  0  0  0
    4.7550    2.4150   -0.3230 C   0  0  0  0  0  0  0  0  0  0  0  0
   -0.3740   -0.2200    1.6930 N   0  0  0  0  0  0  0  0  0  0  0  0
   -1.2690    0.7640    1.8840 C   0  0  0  0  0  0  0  0  0  0  0  0
   -0.9300    1.7700    2.5420 O   0  0  0  0  0  0  0  0  0  0  0  0
   -2.5300    0.6470    1.3570 C   0  0  0  0  0  0  0  0  0  0  0  0
   -3.4300    1.6710    1.5690 C   0  0  0  0  0  0  0  0  0  0  0  0
   -4.7080    1.5770    1.0480 C   0  0  0  0  0  0  0  0  0  0  0  0
   -5.6500    2.6710    1.2780 C   0  0  0  0  0  0  0  0  0  0  0  0
   -6.9250    2.4110    0.7880 O   0  0  0  0  0  0  0  0  0  0  0  0
   -5.0490    0.4560    0.3290 C   0  0  0  0  0  0  0  0  0  0  0  0
   -4.1590   -0.5700    0.1130 C   0  0  0  0  0  0  0  0  0  0  0  0
   -2.8740   -0.4630    0.6420 C   0  0  0  0  0  0  0  0  0  0  0  0
  1  2  1  0
  2  3  1  0
  3  4  2  0
  3  5  1  0
  5  6  2  0
  5 30  1  0
  6  7  1  0
  6 20  1  0
  7  8  1  0
  8  9  1  0
  9 10  2  0
  9 14  1  0
 10 11  1  0
 11 12  2  0
 12 13  1  0
 12 19  1  0
 13 14  2  0
 13 15  1  0
 15 16  1  0
 16 17  2  0
 16 18  1  0
 18 19  1  0
 20 21  1  0
 21 22  2  0
 21 23  1  0
 23 24  2  0
 23 30  1  0
 24 25  1  0
 25 26  1  0
 25 28  2  0
 26 27  1  0
 28 29  1  0
 29 30  2  0
M  END
