
     RDKit          3D

 30 33  0  0  0  0  0  0  0  0999 V2000
   -8.7980    0.2320   -2.5300 C   0  0  0  0  0  0  0  0  0  0  0  0
   -7.7320    0.3980   -1.5060 C   0  0  0  0  0  0  0  0  0  0  0  0
   -6.7120    1.2820   -1.3270 C   0  0  0  0  0  0  0  0  0  0  0  0
   -5.9100    1.1440   -0.2670 C   0  0  0  0  0  0  0  0  0  0  0  0
   -6.1220    0.1480    0.5980 C   0  0  0  0  0  0  0  0  0  0  0  0
   -5.3980   -0.2450    1.8480 C   0  0  2  0  0  0  0  0  0  0  0  0
   -5.1660    0.8370    2.6900 O   0  0  0  0  0  0  0  0  0  0  0  0
   -4.1380   -0.9510    1.4990 C   0  0  0  0  0  0  0  0  0  0  0  0
   -4.1820   -1.9360    0.6980 O   0  0  0  0  0  0  0  0  0  0  0  0
   -2.8480   -0.6170    1.9910 N   0  0  0  0  0  0  0  0  0  0  0  0
   -1.6690   -1.3380    1.5960 C   0  0  2  0  0  0  0  0  0  0  0  0
   -0.8130   -1.7040    2.7530 C   0  0  0  0  0  0  0  0  0  0  0  0
    0.6050   -1.8290    2.1530 C   0  0  0  0  0  0  0  0  0  0  0  0
    0.5810   -1.1180    0.9040 N   0  0  0  0  0  0  0  0  0  0  0  0
    1.5750   -0.9960   -0.0930 C   0  0  0  0  0  0  0  0  0  0  0  0
    1.3700   -0.2820   -1.1360 O   0  0  0  0  0  0  0  0  0  0  0  0
    2.8800   -1.6540   -0.0310 C   0  0  0  0  0  0  0  0  0  0  0  0
    4.0100   -0.6970    0.0110 C   0  0  0  0  0  0  0  0  0  0  0  0
    4.4370   -0.1860   -1.2060 C   0  0  0  0  0  0  0  0  0  0  0  0
    5.3990    0.7790   -1.2870 C   0  0  0  0  0  0  0  0  0  0  0  0
    6.0050    1.3020   -0.1730 C   0  0  0  0  0  0  0  0  0  0  0  0
    5.5870    0.7950    1.0450 C   0  0  0  0  0  0  0  0  0  0  0  0
    4.6090   -0.1850    1.1290 C   0  0  0  0  0  0  0  0  0  0  0  0
    4.2370   -0.6600    2.3810 O   0  0  0  0  0  0  0  0  0  0  0  0
    6.9960    2.3150   -0.5920 C   0  0  0  0  0  0  0  0  0  0  0  0
    7.3000    1.9100   -2.0320 C   0  0  0  0  0  0  0  0  0  0  0  0
    5.9590    1.4570   -2.5110 C   0  0  0  0  0  0  0  0  0  0  0  0
   -0.7400   -0.4950    0.7990 C   0  0  0  0  0  0  0  0  0  0  0  0
   -0.9150    0.5410    0.1350 O   0  0  0  0  0  0  0  0  0  0  0  0
   -7.5300   -0.7100   -0.0470 S   0  0  0  0  0  0  0  0  0  0  0  0
  1  2  1  0
  2  3  2  0
  2 30  1  0
  3  4  1  0
  4  5  2  0
  5  6  1  0
  5 30  1  0
  6  7  1  6
  6  8  1  0
  8  9  2  0
  8 10  1  0
 11 10  1  1
 11 12  1  0
 11 28  1  0
 12 13  1  0
 13 14  1  0
 14 15  1  0
 14 28  1  0
 15 16  2  0
 15 17  1  0
 17 18  1  0
 18 19  2  0
 18 23  1  0
 19 20  1  0
 20 21  2  0
 20 27  1  0
 21 22  1  0
 21 25  1  0
 22 23  2  0
 23 24  1  0
 25 26  1  0
 26 27  1  0
 28 29  2  0
M  END
