
     RDKit          3D

 31 33  0  0  0  0  0  0  0  0999 V2000
    4.8990    1.1300    2.1480 C   0  0  0  0  0  0  0  0  0  0  0  0
    5.6560    0.2980    1.1660 C   0  0  0  0  0  0  0  0  0  0  0  0
    6.9470    0.0270    1.2150 C   0  0  0  0  0  0  0  0  0  0  0  0
    7.3080   -0.8230    0.0640 C   0  0  0  0  0  0  0  0  0  0  0  0
    6.0270   -1.0060   -0.6610 C   0  0  0  0  0  0  0  0  0  0  0  0
    5.8140   -1.7940   -1.9190 C   0  0  0  0  0  0  0  0  0  0  0  0
    5.0910   -0.3450    0.0010 C   0  0  0  0  0  0  0  0  0  0  0  0
    3.7520   -0.3190   -0.4310 O   0  0  0  0  0  0  0  0  0  0  0  0
    3.3030    0.6610   -1.3110 C   0  0  0  0  0  0  0  0  0  0  0  0
    4.1580    1.5040   -1.6860 O   0  0  0  0  0  0  0  0  0  0  0  0
    1.9180    0.7440   -1.8010 C   0  0  0  0  0  0  0  0  0  0  0  0
    0.8940    0.4420   -0.7230 C   0  0  0  0  0  0  0  0  0  0  0  0
   -0.4510    0.5390   -1.2900 C   0  0  0  0  0  0  0  0  0  0  0  0
   -0.5780    0.8460   -2.5010 O   0  0  0  0  0  0  0  0  0  0  0  0
   -1.6380    0.2880   -0.4810 N   0  0  0  0  0  0  0  0  0  0  0  0
   -2.8750    0.3960   -1.1160 C   0  0  0  0  0  0  0  0  0  0  0  0
   -2.8500    0.7160   -2.3750 O   0  0  0  0  0  0  0  0  0  0  0  0
   -4.1980    0.1900   -0.5360 C   0  0  0  0  0  0  0  0  0  0  0  0
   -4.8230    1.2820   -0.0010 C   0  0  0  0  0  0  0  0  0  0  0  0
   -4.1830    2.6260   -0.0270 C   0  0  0  0  0  0  0  0  0  0  0  0
   -6.0700    1.0970    0.5430 C   0  0  0  0  0  0  0  0  0  0  0  0
   -6.6580    2.1050    1.0430 O   0  0  0  0  0  0  0  0  0  0  0  0
   -6.6270   -0.1220    0.5350 N   0  0  0  0  0  0  0  0  0  0  0  0
   -5.9940   -1.2190   -0.0060 C   0  0  0  0  0  0  0  0  0  0  0  0
   -6.5770   -2.4950   -0.0230 C   0  0  0  0  0  0  0  0  0  0  0  0
   -5.3940   -3.5170   -0.8130 S   0  0  0  0  0  0  0  0  0  0  0  0
   -4.1660   -2.1800   -1.0850 C   0  0  0  0  0  0  0  0  0  0  0  0
   -4.7930   -1.1060   -0.5450 C   0  0  0  0  0  0  0  0  0  0  0  0
   -1.4400   -0.0570    0.8880 C   0  0  1  0  0  0  0  0  0  0  0  0
   -1.9720    0.9370    1.8950 C   0  0  0  0  0  0  0  0  0  0  0  0
   -1.9250   -1.4260    1.2880 C   0  0  0  0  0  0  0  0  0  0  0  0
  1  2  1  0
  2  3  2  0
  2  7  1  0
  3  4  1  0
  4  5  1  0
  5  6  1  0
  5  7  2  0
  7  8  1  0
  8  9  1  0
  9 10  2  0
  9 11  1  0
 11 12  1  0
 12 13  1  0
 13 14  2  0
 13 15  1  0
 15 16  1  0
 15 29  1  0
 16 17  2  0
 16 18  1  0
 18 19  2  0
 18 28  1  0
 19 20  1  0
 19 21  1  0
 21 22  2  0
 21 23  1  0
 23 24  1  0
 24 25  2  0
 24 28  1  0
 25 26  1  0
 26 27  1  0
 27 28  2  0
 29 30  1  1
 29 31  1  0
M  END
