
     RDKit          3D

 29 32  0  0  0  0  0  0  0  0999 V2000
   -4.6660   -0.9730   -3.4250 C   0  0  0  0  0  0  0  0  0  0  0  0
   -5.6250   -0.8500   -2.2860 C   0  0  2  0  0  0  0  0  0  0  0  0
   -6.3500    0.4570   -2.2730 C   0  0  0  0  0  0  0  0  0  0  0  0
   -5.4880    1.6440   -2.0030 C   0  0  0  0  0  0  0  0  0  0  0  0
   -4.2170    1.2930   -1.3150 C   0  0  0  0  0  0  0  0  0  0  0  0
   -3.2920    2.2990   -1.1750 C   0  0  0  0  0  0  0  0  0  0  0  0
   -2.0840    2.0930   -0.5580 C   0  0  0  0  0  0  0  0  0  0  0  0
   -1.7880    0.8240   -0.0580 C   0  0  0  0  0  0  0  0  0  0  0  0
   -0.5270    0.6130    0.5870 C   0  0  0  0  0  0  0  0  0  0  0  0
    0.2530    1.5960    0.7700 O   0  0  0  0  0  0  0  0  0  0  0  0
   -0.0990   -0.6530    1.0370 N   0  0  0  0  0  0  0  0  0  0  0  0
    1.2020   -0.7910    1.6760 C   0  0  0  0  0  0  0  0  0  0  0  0
    2.2970   -0.4270    0.7290 C   0  0  0  0  0  0  0  0  0  0  0  0
    2.2190   -0.0610   -0.5320 C   0  0  0  0  0  0  0  0  0  0  0  0
    3.5690    0.1870   -1.0160 C   0  0  0  0  0  0  0  0  0  0  0  0
    3.9070    0.5540   -2.1690 O   0  0  0  0  0  0  0  0  0  0  0  0
    4.4280   -0.0900    0.1520 C   0  0  0  0  0  0  0  0  0  0  0  0
    3.7040   -0.4520    1.1870 C   0  0  0  0  0  0  0  0  0  0  0  0
    4.3150   -0.7910    2.4960 C   0  0  2  0  0  0  0  0  0  0  0  0
    3.8050    0.0280    3.5080 O   0  0  0  0  0  0  0  0  0  0  0  0
    5.6980   -0.6680    2.4470 O   0  0  0  0  0  0  0  0  0  0  0  0
    6.4810   -0.2930    1.3850 C   0  0  0  0  0  0  0  0  0  0  0  0
    7.9470   -0.2040    1.4730 C   0  0  0  0  0  0  0  0  0  0  0  0
    8.6430   -0.5040    2.6720 N   0  0  0  0  0  0  0  0  0  0  0  0
    8.6240    0.1440    0.4740 O   0  0  0  0  0  0  0  0  0  0  0  0
    5.8980    0.0000    0.2360 C   0  0  0  0  0  0  0  0  0  0  0  0
   -2.7080   -0.1740   -0.1980 C   0  0  0  0  0  0  0  0  0  0  0  0
   -3.9320    0.0600   -0.8300 C   0  0  0  0  0  0  0  0  0  0  0  0
   -4.9000   -1.0380   -0.9630 C   0  0  0  0  0  0  0  0  0  0  0  0
  2  1  1  6
  2  3  1  0
  2 29  1  0
  3  4  1  0
  4  5  1  0
  5  6  2  0
  5 28  1  0
  6  7  1  0
  7  8  2  0
  8  9  1  0
  8 27  1  0
  9 10  2  0
  9 11  1  0
 11 12  1  0
 12 13  1  0
 13 14  2  0
 13 18  1  0
 14 15  1  0
 15 16  2  0
 15 17  1  0
 17 18  2  0
 17 26  1  0
 18 19  1  0
 19 20  1  1
 19 21  1  0
 21 22  1  0
 22 23  1  0
 22 26  2  0
 23 24  1  0
 23 25  2  0
 27 28  2  0
 28 29  1  0
M  END
