
     RDKit          3D

 21 23  0  0  0  0  0  0  0  0999 V2000
    1.2930    3.5130    1.6120 C   0  0  0  0  0  0  0  0  0  0  0  0
    0.3880    2.8380    0.6500 C   0  0  0  0  0  0  0  0  0  0  0  0
   -0.7070    3.3530    0.3510 O   0  0  0  0  0  0  0  0  0  0  0  0
    0.7450    1.5470    0.0190 C   0  0  0  0  0  0  0  0  0  0  0  0
    1.8830    1.0240    0.3400 C   0  0  0  0  0  0  0  0  0  0  0  0
    2.5050   -0.2040   -0.0980 C   0  0  0  0  0  0  0  0  0  0  0  0
    3.7040   -0.5890    0.3470 C   0  0  0  0  0  0  0  0  0  0  0  0
    4.4000   -1.8290   -0.0550 C   0  0  0  0  0  0  0  0  0  0  0  0
    3.7160   -2.6200   -0.9640 O   0  0  0  0  0  0  0  0  0  0  0  0
    2.4910   -2.2280   -1.4200 C   0  0  0  0  0  0  0  0  0  0  0  0
    1.8820   -1.1070   -1.0450 C   0  0  0  0  0  0  0  0  0  0  0  0
   -0.1930    1.0130   -0.8710 N   0  0  0  0  0  0  0  0  0  0  0  0
   -1.3570    0.3420   -0.4390 C   0  0  0  0  0  0  0  0  0  0  0  0
   -1.5950    0.1970    0.9030 C   0  0  0  0  0  0  0  0  0  0  0  0
   -2.7310   -0.4590    1.3790 C   0  0  0  0  0  0  0  0  0  0  0  0
   -3.6360   -0.9730    0.4440 C   0  0  0  0  0  0  0  0  0  0  0  0
   -4.7590   -1.6200    0.5770 O   0  0  0  0  0  0  0  0  0  0  0  0
   -5.2920   -1.9190   -0.5770 C   0  0  0  0  0  0  0  0  0  0  0  0
   -4.4530   -1.4310   -1.5540 C   0  0  0  0  0  0  0  0  0  0  0  0
   -3.4020   -0.8310   -0.9050 C   0  0  0  0  0  0  0  0  0  0  0  0
   -2.2630   -0.1740   -1.3310 C   0  0  0  0  0  0  0  0  0  0  0  0
  1  2  1  0
  2  3  2  0
  2  4  1  0
  4  5  2  3
  4 12  1  0
  5  6  1  0
  6  7  2  0
  6 11  1  0
  7  8  1  0
  8  9  1  0
  9 10  1  0
 10 11  2  0
 12 13  1  0
 13 14  2  0
 13 21  1  0
 14 15  1  0
 15 16  2  0
 16 17  1  0
 16 20  1  0
 17 18  1  0
 18 19  2  0
 19 20  1  0
 20 21  2  0
M  END
