
     RDKit          3D

 21 22  0  0  0  0  0  0  0  0999 V2000
   -5.4840    1.6610    0.7780 C   0  0  0  0  0  0  0  0  0  0  0  0
   -4.3780    1.3430    1.4060 C   0  0  0  0  0  0  0  0  0  0  0  0
   -3.7440    0.0030    1.4950 C   0  0  0  0  0  0  0  0  0  0  0  0
   -2.3370   -0.0290    1.0610 C   0  0  0  0  0  0  0  0  0  0  0  0
   -1.5620    0.5300    1.9590 O   0  0  0  0  0  0  0  0  0  0  0  0
   -1.7090   -0.5410   -0.1080 C   0  0  0  0  0  0  0  0  0  0  0  0
   -2.4000   -1.0850   -1.0830 C   0  0  0  0  0  0  0  0  0  0  0  0
   -3.8790   -1.2190   -1.0730 C   0  0  0  0  0  0  0  0  0  0  0  0
   -1.7310   -1.5840   -2.2160 O   0  0  0  0  0  0  0  0  0  0  0  0
   -0.4000   -1.4560   -2.5130 C   0  0  0  0  0  0  0  0  0  0  0  0
    0.3880   -0.9120   -1.3510 C   0  0  0  0  0  0  0  0  0  0  0  0
    1.7540   -0.9050   -1.5310 C   0  0  0  0  0  0  0  0  0  0  0  0
    2.5670   -0.3840   -0.5040 C   0  0  0  0  0  0  0  0  0  0  0  0
    3.9790   -0.5150   -0.7610 C   0  0  0  0  0  0  0  0  0  0  0  0
    4.9700    0.2140   -0.4180 C   0  0  0  0  0  0  0  0  0  0  0  0
    4.9670    1.4580    0.3520 C   0  0  0  0  0  0  0  0  0  0  0  0
    5.6960    1.3070    1.5060 O   0  0  0  0  0  0  0  0  0  0  0  0
    1.9630    0.0880    0.6260 C   0  0  0  0  0  0  0  0  0  0  0  0
    2.7340    0.5110    1.7580 N   0  0  0  0  0  0  0  0  0  0  0  0
    0.5630    0.0760    0.7950 C   0  0  0  0  0  0  0  0  0  0  0  0
   -0.2190   -0.4320   -0.2110 C   0  0  0  0  0  0  0  0  0  0  0  0
  1  2  2  0
  2  3  1  0
  3  4  1  0
  4  5  2  0
  4  6  1  0
  6  7  2  0
  6 21  1  0
  7  8  1  0
  7  9  1  0
  9 10  1  0
 10 11  1  0
 11 12  2  0
 11 21  1  0
 12 13  1  0
 13 14  1  0
 13 18  2  0
 14 15  2  3
 15 16  1  0
 16 17  1  0
 18 19  1  0
 18 20  1  0
 20 21  2  0
M  END
