
     RDKit          3D

 21 23  0  0  0  0  0  0  0  0999 V2000
    0.8120   -0.6020   -2.3030 C   0  0  0  0  0  0  0  0  0  0  0  0
    0.6190   -0.9710   -0.8770 C   0  0  2  0  0  0  0  0  0  0  0  0
   -0.5060   -0.4790   -0.1980 N   0  0  0  0  0  0  0  0  0  0  0  0
   -1.8150   -0.7770   -0.5380 C   0  0  2  0  0  0  0  0  0  0  0  0
   -2.2360   -2.2160   -0.4530 C   0  0  0  0  0  0  0  0  0  0  0  0
   -2.1770   -0.2410   -1.9020 C   0  0  0  0  0  0  0  0  0  0  0  0
   -2.6940    0.0060    0.4190 C   0  0  0  0  0  0  0  0  0  0  0  0
   -3.6490   -0.4740    1.1880 C   0  0  0  0  0  0  0  0  0  0  0  0
   -4.2770    0.6250    1.9810 C   0  0  0  0  0  0  0  0  0  0  0  0
   -3.5270    1.8060    1.5420 C   0  0  0  0  0  0  0  0  0  0  0  0
   -2.6280    1.4540    0.6550 C   0  0  0  0  0  0  0  0  0  0  0  0
   -1.7200    2.2690   -0.0020 O   0  0  0  0  0  0  0  0  0  0  0  0
    1.7900   -0.4780   -0.1040 C   0  0  0  0  0  0  0  0  0  0  0  0
    1.9250   -0.6750    1.2590 C   0  0  0  0  0  0  0  0  0  0  0  0
    3.0150   -0.1880    1.9640 C   0  0  0  0  0  0  0  0  0  0  0  0
    3.9950    0.5160    1.2840 C   0  0  0  0  0  0  0  0  0  0  0  0
    3.8860    0.7220   -0.0530 C   0  0  0  0  0  0  0  0  0  0  0  0
    2.7710    0.2180   -0.7500 C   0  0  0  0  0  0  0  0  0  0  0  0
    4.9950    1.4460   -0.4640 O   0  0  0  0  0  0  0  0  0  0  0  0
    5.9450    1.4940    0.5790 C   0  0  0  0  0  0  0  0  0  0  0  0
    5.1820    1.1170    1.7040 O   0  0  0  0  0  0  0  0  0  0  0  0
  2  1  1  6
  2  3  1  0
  2 13  1  0
  3  4  1  0
  4  5  1  6
  4  6  1  0
  4  7  1  0
  7  8  2  0
  7 11  1  0
  8  9  1  0
  9 10  1  0
 10 11  2  0
 11 12  1  0
 13 14  2  0
 13 18  1  0
 14 15  1  0
 15 16  2  0
 16 17  1  0
 16 21  1  0
 17 18  2  0
 17 19  1  0
 19 20  1  0
 20 21  1  0
M  END
