
     RDKit          3D

 21 23  0  0  0  0  0  0  0  0999 V2000
    5.8290    1.6650   -1.4560 C   0  0  0  0  0  0  0  0  0  0  0  0
    4.8500    1.2590   -0.6180 C   0  0  0  0  0  0  0  0  0  0  0  0
    3.5540    0.8720   -1.1400 C   0  0  0  0  0  0  0  0  0  0  0  0
    2.6030    0.4780   -0.3250 C   0  0  0  0  0  0  0  0  0  0  0  0
    1.3680    0.1130   -0.8690 C   0  0  0  0  0  0  0  0  0  0  0  0
    0.3250   -0.3110   -0.0640 C   0  0  0  0  0  0  0  0  0  0  0  0
   -0.8490   -0.6500   -0.6550 O   0  0  0  0  0  0  0  0  0  0  0  0
   -2.0320   -1.1180   -0.1180 C   0  0  2  0  0  0  0  0  0  0  0  0
   -1.9240   -2.4020    0.5870 C   0  0  0  0  0  0  0  0  0  0  0  0
   -0.8130   -2.9850    0.6210 O   0  0  0  0  0  0  0  0  0  0  0  0
   -2.9940   -3.0100    1.2240 O   0  0  0  0  0  0  0  0  0  0  0  0
   -3.0060   -1.2740   -1.3000 C   0  0  0  0  0  0  0  0  0  0  0  0
   -3.1140    0.1000   -1.9220 C   0  0  0  0  0  0  0  0  0  0  0  0
   -4.0130    0.9380   -1.0480 C   0  0  0  0  0  0  0  0  0  0  0  0
   -4.0070    0.3860    0.3400 C   0  0  0  0  0  0  0  0  0  0  0  0
   -2.6240   -0.0380    0.7700 C   0  0  0  0  0  0  0  0  0  0  0  0
    0.5240   -0.3690    1.2920 C   0  0  0  0  0  0  0  0  0  0  0  0
    1.7540   -0.0080    1.8610 C   0  0  0  0  0  0  0  0  0  0  0  0
    2.7940    0.4180    1.0250 C   0  0  0  0  0  0  0  0  0  0  0  0
    3.9180    0.7480    1.5340 N   0  0  0  0  0  0  0  0  0  0  0  0
    5.0880    1.2050    0.8410 C   0  0  0  0  0  0  0  0  0  0  0  0
  1  2  2  0
  2  3  1  0
  2 21  1  0
  3  4  2  0
  4  5  1  0
  4 19  1  0
  5  6  2  0
  6  7  1  0
  6 17  1  0
  8  7  1  6
  8  9  1  0
  8 12  1  0
  8 16  1  0
  9 10  2  0
  9 11  1  0
 12 13  1  0
 13 14  1  0
 14 15  1  0
 15 16  1  0
 17 18  2  0
 18 19  1  0
 19 20  2  0
 20 21  1  0
M  END
