
     RDKit          3D

 21 23  0  0  0  0  0  0  0  0999 V2000
    3.7330   -3.0210    1.5280 C   0  0  0  0  0  0  0  0  0  0  0  0
    2.8110   -2.0460    1.0890 O   0  0  0  0  0  0  0  0  0  0  0  0
    3.2080   -1.0510    0.2230 C   0  0  0  0  0  0  0  0  0  0  0  0
    4.5130   -1.0220   -0.2070 C   0  0  0  0  0  0  0  0  0  0  0  0
    4.8880   -0.0180   -1.0730 C   0  0  0  0  0  0  0  0  0  0  0  0
    3.9830    0.9230   -1.4910 C   0  0  0  0  0  0  0  0  0  0  0  0
    2.6830    0.8700   -1.0450 C   0  0  0  0  0  0  0  0  0  0  0  0
    2.2670   -0.0990   -0.1920 C   0  0  0  0  0  0  0  0  0  0  0  0
    0.9420   -0.2030    0.3000 N   0  0  0  0  0  0  0  0  0  0  0  0
   -0.1460    0.6270    0.0220 C   0  0  0  0  0  0  0  0  0  0  0  0
   -0.0210    1.5950   -0.7390 O   0  0  0  0  0  0  0  0  0  0  0  0
   -1.5120    0.4130    0.6090 C   0  0  1  0  0  0  0  0  0  0  0  0
   -1.5650   -0.6820    1.4420 O   0  0  0  0  0  0  0  0  0  0  0  0
   -1.8240    1.6690    1.4170 C   0  0  0  0  0  0  0  0  0  0  0  0
   -2.4170    2.6410    0.4490 C   0  0  0  0  0  0  0  0  0  0  0  0
   -3.1140    1.7490   -0.5470 C   0  0  0  0  0  0  0  0  0  0  0  0
   -4.0550    1.7920   -1.4740 C   0  0  0  0  0  0  0  0  0  0  0  0
   -4.1630    0.4360   -2.0370 C   0  0  0  0  0  0  0  0  0  0  0  0
   -3.1740   -0.3470   -1.3100 C   0  0  0  0  0  0  0  0  0  0  0  0
   -2.9080   -1.8120   -1.5340 C   0  0  0  0  0  0  0  0  0  0  0  0
   -2.5630    0.4100   -0.4440 C   0  0  0  0  0  0  0  0  0  0  0  0
  1  2  1  0
  2  3  1  0
  3  4  2  0
  3  8  1  0
  4  5  1  0
  5  6  2  0
  6  7  1  0
  7  8  2  0
  8  9  1  0
  9 10  1  0
 10 11  2  0
 10 12  1  0
 12 13  1  1
 12 14  1  0
 12 21  1  0
 14 15  1  0
 15 16  1  0
 16 17  2  0
 16 21  1  0
 17 18  1  0
 18 19  1  0
 19 20  1  0
 19 21  2  0
M  END
