
     RDKit          3D

 21 23  0  0  0  0  0  0  0  0999 V2000
   -4.3800    2.4110   -1.5620 C   0  0  0  0  0  0  0  0  0  0  0  0
   -4.6780    1.3410   -0.6680 N   0  0  0  0  0  0  0  0  0  0  0  0
   -3.8540    0.4750   -0.2690 C   0  0  0  0  0  0  0  0  0  0  0  0
   -4.3290   -0.5820    0.6700 C   0  0  0  0  0  0  0  0  0  0  0  0
   -3.6010   -0.3500    1.9800 C   0  0  0  0  0  0  0  0  0  0  0  0
   -2.1830    0.0740    1.7580 C   0  0  0  0  0  0  0  0  0  0  0  0
   -1.6510   -0.4060    0.4040 C   0  0  2  0  0  0  0  0  0  0  0  0
   -0.3370   -0.0250    0.3240 O   0  0  0  0  0  0  0  0  0  0  0  0
    0.8120   -0.6620    0.0410 C   0  0  0  0  0  0  0  0  0  0  0  0
    1.9840    0.1090    0.0650 C   0  0  0  0  0  0  0  0  0  0  0  0
    3.2190   -0.3890   -0.1980 C   0  0  0  0  0  0  0  0  0  0  0  0
    4.4370    0.4420   -0.1670 C   0  0  0  0  0  0  0  0  0  0  0  0
    5.7110    0.0410   -0.4140 C   0  0  0  0  0  0  0  0  0  0  0  0
    6.5450    1.1400   -0.2760 C   0  0  0  0  0  0  0  0  0  0  0  0
    5.7030    2.1810    0.0580 C   0  0  0  0  0  0  0  0  0  0  0  0
    4.4660    1.7220    0.1110 O   0  0  0  0  0  0  0  0  0  0  0  0
    3.3420   -1.7270   -0.5080 C   0  0  0  0  0  0  0  0  0  0  0  0
    2.2320   -2.5440   -0.5500 C   0  0  0  0  0  0  0  0  0  0  0  0
    0.9980   -1.9890   -0.2740 C   0  0  0  0  0  0  0  0  0  0  0  0
   -0.1200   -2.7930   -0.3120 O   0  0  0  0  0  0  0  0  0  0  0  0
   -2.4170    0.4060   -0.6570 C   0  0  0  0  0  0  0  0  0  0  0  0
  1  2  1  0
  2  3  2  3
  3  4  1  0
  3 21  1  0
  4  5  1  0
  5  6  1  0
  6  7  1  0
  7  8  1  1
  7 21  1  0
  8  9  1  0
  9 10  2  0
  9 19  1  0
 10 11  1  0
 11 12  1  0
 11 17  2  0
 12 13  2  0
 12 16  1  0
 13 14  1  0
 14 15  2  0
 15 16  1  0
 17 18  1  0
 18 19  2  0
 19 20  1  0
M  END
