
     RDKit          3D

 15 15  0  0  0  0  0  0  0  0999 V2000
    4.1220    0.3880   -0.6870 N   0  0  0  0  0  0  0  0  0  0  0  0
    2.7580    0.1870   -0.3010 C   0  0  0  0  0  0  0  0  0  0  0  0
    2.3250    0.6400    0.8640 C   0  0  0  0  0  0  0  0  0  0  0  0
    3.4780    1.4770    1.8840 Cl  0  0  0  0  0  0  0  0  0  0  0  0
    0.9920    0.4870    1.3300 N   0  0  0  0  0  0  0  0  0  0  0  0
    0.0710   -0.1970    0.4850 C   0  0  0  0  0  0  0  0  0  0  0  0
   -1.1780   -0.4040    0.7920 C   0  0  0  0  0  0  0  0  0  0  0  0
   -1.6890    0.0600    2.0240 N   0  0  0  0  0  0  0  0  0  0  0  0
   -2.0330   -1.0910   -0.0960 N   0  0  0  0  0  0  0  0  0  0  0  0
   -2.9690   -0.3850   -0.8800 N   0  0  0  0  0  0  0  0  0  0  0  0
   -2.7820    0.9910   -1.0670 N   0  0  0  0  0  0  0  0  0  0  0  0
   -3.9500   -0.9580   -1.4030 O   0  0  0  0  0  0  0  0  0  0  0  0
    0.6010   -0.6810   -0.7990 C   0  0  0  0  0  0  0  0  0  0  0  0
   -0.2830   -1.3610   -1.6550 O   0  0  0  0  0  0  0  0  0  0  0  0
    1.8290   -0.4930   -1.1320 N   0  0  0  0  0  0  0  0  0  0  0  0
  1  2  1  0
  2  3  2  0
  2 15  1  0
  3  4  1  0
  3  5  1  0
  5  6  1  0
  6  7  2  3
  6 13  1  0
  7  8  1  0
  7  9  1  0
  9 10  1  0
 10 11  1  0
 10 12  2  0
 13 14  1  0
 13 15  2  0
M  CHG  1  10   1
M  END
