
     RDKit          3D

 21 23  0  0  0  0  0  0  0  0999 V2000
    4.7020    1.6450    0.5790 C   0  0  0  0  0  0  0  0  0  0  0  0
    4.7950    0.2790    0.2720 O   0  0  0  0  0  0  0  0  0  0  0  0
    3.6680   -0.5390    0.1280 C   0  0  0  0  0  0  0  0  0  0  0  0
    3.8230   -1.8710   -0.1750 C   0  0  0  0  0  0  0  0  0  0  0  0
    2.7530   -2.7300   -0.3300 C   0  0  0  0  0  0  0  0  0  0  0  0
    1.4670   -2.2010   -0.1690 C   0  0  0  0  0  0  0  0  0  0  0  0
    1.2820   -0.8730    0.1340 C   0  0  0  0  0  0  0  0  0  0  0  0
   -0.0010   -0.3940    0.2840 O   0  0  0  0  0  0  0  0  0  0  0  0
   -0.7470    0.1220   -0.7620 C   0  0  0  0  0  0  0  0  0  0  0  0
   -0.1900    0.1660   -2.0280 C   0  0  0  0  0  0  0  0  0  0  0  0
   -0.8890    0.6720   -3.1150 C   0  0  0  0  0  0  0  0  0  0  0  0
   -0.4080    0.7240   -4.2750 O   0  0  0  0  0  0  0  0  0  0  0  0
   -2.1290    1.1250   -2.9210 N   0  0  0  0  0  0  0  0  0  0  0  0
   -2.6720    1.0840   -1.7000 C   0  0  0  0  0  0  0  0  0  0  0  0
   -2.0270    0.5910   -0.5720 C   0  0  0  0  0  0  0  0  0  0  0  0
   -2.7030    0.5900    0.7180 C   0  0  0  0  0  0  0  0  0  0  0  0
   -2.2730    0.1740    1.8850 C   0  0  0  0  0  0  0  0  0  0  0  0
   -3.3310    0.3730    2.9410 C   0  0  0  0  0  0  0  0  0  0  0  0
   -4.4320    0.9740    2.1650 C   0  0  0  0  0  0  0  0  0  0  0  0
   -4.0670    1.0920    0.9090 C   0  0  0  0  0  0  0  0  0  0  0  0
    2.3830   -0.0590    0.2780 C   0  0  0  0  0  0  0  0  0  0  0  0
  1  2  1  0
  2  3  1  0
  3  4  2  0
  3 21  1  0
  4  5  1  0
  5  6  2  0
  6  7  1  0
  7  8  1  0
  7 21  2  0
  8  9  1  0
  9 10  2  0
  9 15  1  0
 10 11  1  0
 11 12  2  0
 11 13  1  0
 13 14  1  0
 14 15  2  0
 15 16  1  0
 16 17  2  0
 16 20  1  0
 17 18  1  0
 18 19  1  0
 19 20  2  0
M  END
