
     RDKit          3D

 13 14  0  0  0  0  0  0  0  0999 V2000
   -2.5520    1.1270    0.0430 C   0  0  0  0  0  0  0  0  0  0  0  0
   -1.7340   -0.0770    0.0610 N   0  0  0  0  0  0  0  0  0  0  0  0
   -2.1880   -1.3360    0.1190 C   0  0  0  0  0  0  0  0  0  0  0  0
   -1.0990   -2.1770    0.1160 C   0  0  0  0  0  0  0  0  0  0  0  0
    0.0170   -1.3760    0.0540 C   0  0  0  0  0  0  0  0  0  0  0  0
    1.3880   -1.6180    0.0200 C   0  0  0  0  0  0  0  0  0  0  0  0
    2.2920   -0.5800   -0.0440 C   0  0  0  0  0  0  0  0  0  0  0  0
    1.8900    0.7380   -0.0780 C   0  0  0  0  0  0  0  0  0  0  0  0
    2.8470    1.8080   -0.1450 N   0  0  0  0  0  0  0  0  0  0  0  0
    4.0640    1.5850   -0.1740 O   0  0  0  0  0  0  0  0  0  0  0  0
    2.3850    3.0790   -0.1760 O   0  0  0  0  0  0  0  0  0  0  0  0
    0.5390    0.9880   -0.0460 C   0  0  0  0  0  0  0  0  0  0  0  0
   -0.3840   -0.0640    0.0190 C   0  0  0  0  0  0  0  0  0  0  0  0
  1  2  1  0
  2  3  1  0
  2 13  1  0
  3  4  2  0
  4  5  1  0
  5  6  2  0
  5 13  1  0
  6  7  1  0
  7  8  2  0
  8  9  1  0
  8 12  1  0
  9 10  2  0
  9 11  1  0
 12 13  2  0
M  CHG  2   9   1  11  -1
M  END
