
     RDKit          3D

 16 16  0  0  0  0  0  0  0  0999 V2000
   -4.3490   -0.9290    0.6420 C   0  0  0  0  0  0  0  0  0  0  0  0
   -3.5500    0.2950    0.4080 C   0  0  0  0  0  0  0  0  0  0  0  0
   -4.2100    1.8340    0.9060 Cl  0  0  0  0  0  0  0  0  0  0  0  0
   -2.3550    0.2490   -0.1670 C   0  0  0  0  0  0  0  0  0  0  0  0
   -1.5810    1.4790   -0.3890 C   0  0  0  0  0  0  0  0  0  0  0  0
   -1.8590   -0.9810   -0.5510 O   0  0  0  0  0  0  0  0  0  0  0  0
   -1.0730   -1.8070    0.2870 C   0  0  0  0  0  0  0  0  0  0  0  0
    0.2100   -1.0720    0.6960 C   0  0  0  0  0  0  0  0  0  0  0  0
    0.9030   -0.7710   -0.4720 O   0  0  0  0  0  0  0  0  0  0  0  0
    2.1200   -0.1050   -0.5260 C   0  0  0  0  0  0  0  0  0  0  0  0
    2.4800    0.8190    0.3500 C   0  0  0  0  0  0  0  0  0  0  0  0
    3.7820    1.5350    0.2960 C   0  0  0  0  0  0  0  0  0  0  0  0
    4.5850    1.1270   -0.7790 O   0  0  0  0  0  0  0  0  0  0  0  0
    4.2450    0.1730   -1.7060 C   0  0  0  0  0  0  0  0  0  0  0  0
    3.0640   -0.4230   -1.5910 C   0  0  0  0  0  0  0  0  0  0  0  0
    2.6050   -1.6460   -2.7630 Cl  0  0  0  0  0  0  0  0  0  0  0  0
  1  2  1  0
  2  3  1  0
  2  4  2  3
  4  5  1  0
  4  6  1  0
  6  7  1  0
  7  8  1  0
  8  9  1  0
  9 10  1  0
 10 11  2  0
 10 15  1  0
 11 12  1  0
 12 13  1  0
 13 14  1  0
 14 15  2  0
 15 16  1  0
M  END
