
     RDKit          3D

 15 16  0  0  0  0  0  0  0  0999 V2000
    3.6380    3.0400   -0.7060 Cl  0  0  0  0  0  0  0  0  0  0  0  0
    3.4810    1.2750   -0.7270 C   0  0  0  0  0  0  0  0  0  0  0  0
    4.4060    0.4130   -1.0810 C   0  0  0  0  0  0  0  0  0  0  0  0
    3.8470   -0.9390   -0.9470 C   0  0  1  0  0  0  0  0  0  0  0  0
    4.7600   -1.7700    0.3420 Cl  0  0  0  0  0  0  0  0  0  0  0  0
    2.4760   -0.7320   -0.4670 C   0  0  0  0  0  0  0  0  0  0  0  0
    2.2730    0.5610   -0.3420 C   0  0  0  0  0  0  0  0  0  0  0  0
    0.9810    1.1870    0.1290 C   0  0  0  0  0  0  0  0  0  0  0  0
    0.0630    0.1870    0.4020 O   0  0  0  0  0  0  0  0  0  0  0  0
   -1.1470    0.6610    0.8380 C   0  0  0  0  0  0  0  0  0  0  0  0
   -2.0610   -0.5120    1.1020 C   0  0  2  0  0  0  0  0  0  0  0  0
   -2.2070   -1.2660   -0.2270 C   0  0  0  0  0  0  0  0  0  0  0  0
   -3.2860   -0.4670   -0.8970 C   0  0  0  0  0  0  0  0  0  0  0  0
   -3.8770    0.3420    0.0350 O   0  0  0  0  0  0  0  0  0  0  0  0
   -3.4910   -0.0450    1.2910 C   0  0  0  0  0  0  0  0  0  0  0  0
  1  2  1  0
  2  3  2  0
  2  7  1  0
  3  4  1  0
  4  5  1  1
  4  6  1  0
  6  7  2  0
  7  8  1  0
  8  9  1  0
  9 10  1  0
 11 10  1  6
 11 12  1  0
 11 15  1  0
 12 13  1  0
 13 14  1  0
 14 15  1  0
M  END
