
     RDKit          3D

 16 17  0  0  0  0  0  0  0  0999 V2000
   -2.7760   -2.9200    0.3970 O   0  0  0  0  0  0  0  0  0  0  0  0
   -2.6580   -1.6700    0.5250 C   0  0  0  0  0  0  0  0  0  0  0  0
   -3.5660   -0.9150    1.2600 O   0  0  0  0  0  0  0  0  0  0  0  0
   -3.2900    0.4540    1.1500 C   0  0  0  0  0  0  0  0  0  0  0  0
   -2.4550    0.5470   -0.1290 C   0  0  0  0  0  0  0  0  0  0  0  0
   -1.6500   -0.7480    0.0030 C   0  0  2  0  0  0  0  0  0  0  0  0
   -1.0740   -1.1660   -1.3260 C   0  0  0  0  0  0  0  0  0  0  0  0
   -0.1280   -0.2010   -1.7080 O   0  0  0  0  0  0  0  0  0  0  0  0
    0.9990    0.1340   -0.9970 C   0  0  0  0  0  0  0  0  0  0  0  0
    1.5700   -0.5990   -0.0640 C   0  0  0  0  0  0  0  0  0  0  0  0
    2.7510    0.0940    0.4650 C   0  0  0  0  0  0  0  0  0  0  0  0
    3.7830   -0.4090    1.1160 C   0  0  0  0  0  0  0  0  0  0  0  0
    3.9120   -2.1150    1.4760 Cl  0  0  0  0  0  0  0  0  0  0  0  0
    5.0730    0.6470    1.6440 Cl  0  0  0  0  0  0  0  0  0  0  0  0
    2.5300    1.5170    0.1030 C   0  0  0  0  0  0  0  0  0  0  0  0
    1.7530    1.3960   -1.1800 C   0  0  0  0  0  0  0  0  0  0  0  0
  1  2  2  0
  2  3  1  0
  2  6  1  0
  3  4  1  0
  4  5  1  0
  5  6  1  0
  6  7  1  6
  7  8  1  0
  8  9  1  0
  9 10  2  0
  9 16  1  0
 10 11  1  0
 11 12  2  3
 11 15  1  0
 12 13  1  0
 12 14  1  0
 15 16  1  0
M  END
