
     RDKit          3D

 16 17  0  0  0  0  0  0  0  0999 V2000
   -1.5980    0.3870    2.1890 O   0  0  0  0  0  0  0  0  0  0  0  0
   -1.3990   -0.1020    1.0480 C   0  0  0  0  0  0  0  0  0  0  0  0
   -0.1170   -0.1510    0.5580 O   0  0  0  0  0  0  0  0  0  0  0  0
    1.0210    0.3050    1.2260 C   0  0  0  0  0  0  0  0  0  0  0  0
    2.2100    0.0730    0.3600 C   0  0  0  0  0  0  0  0  0  0  0  0
    2.1840   -0.4710   -0.8380 C   0  0  0  0  0  0  0  0  0  0  0  0
    3.5720   -0.5460   -1.4190 C   0  0  0  0  0  0  0  0  0  0  0  0
    4.2430    0.6040   -0.6610 C   0  0  0  0  0  0  0  0  0  0  0  0
    3.6420    0.4190    0.7030 C   0  0  1  0  0  0  0  0  0  0  0  0
    3.7000    1.9180    1.6620 Cl  0  0  0  0  0  0  0  0  0  0  0  0
    4.4420   -0.9010    1.5530 Cl  0  0  0  0  0  0  0  0  0  0  0  0
   -2.5510   -0.6030    0.2830 C   0  0  1  0  0  0  0  0  0  0  0  0
   -3.8870   -0.4670    0.9830 C   0  0  0  0  0  0  0  0  0  0  0  0
   -4.4870   -0.1530   -0.3930 C   0  0  0  0  0  0  0  0  0  0  0  0
   -3.0850    0.3350   -0.7820 C   0  0  2  0  0  0  0  0  0  0  0  0
   -2.7250   -0.0010   -2.0780 O   0  0  0  0  0  0  0  0  0  0  0  0
  1  2  2  0
  2  3  1  0
 12  2  1  1
  3  4  1  0
  4  5  1  0
  5  6  2  0
  5  9  1  0
  6  7  1  0
  7  8  1  0
  8  9  1  0
  9 10  1  1
  9 11  1  0
 12 13  1  0
 12 15  1  0
 13 14  1  0
 14 15  1  0
 15 16  1  6
M  END
