
     RDKit          3D

 16 16  0  0  0  0  0  0  0  0999 V2000
    3.3380   -1.7170   -0.3830 C   0  0  0  0  0  0  0  0  0  0  0  0
    1.9390   -1.3080   -0.2980 C   0  0  0  0  0  0  0  0  0  0  0  0
    1.5590    0.0460   -0.0360 C   0  0  0  0  0  0  0  0  0  0  0  0
    2.3450    1.0940    0.1610 C   0  0  0  0  0  0  0  0  0  0  0  0
    4.0600    0.8100    0.0990 Cl  0  0  0  0  0  0  0  0  0  0  0  0
    1.8840    2.4400    0.4220 C   0  0  0  0  0  0  0  0  0  0  0  0
    3.0690    3.7190    0.6620 Cl  0  0  0  0  0  0  0  0  0  0  0  0
    0.5890    2.6940    0.4770 C   0  0  0  0  0  0  0  0  0  0  0  0
   -0.2940    1.6560    0.2820 O   0  0  0  0  0  0  0  0  0  0  0  0
    0.1110    0.3540    0.0300 C   0  0  0  0  0  0  0  0  0  0  0  0
   -0.7720   -0.6070   -0.1520 C   0  0  0  0  0  0  0  0  0  0  0  0
   -2.2010   -0.4810   -0.1200 C   0  0  0  0  0  0  0  0  0  0  0  0
   -2.9520   -1.5370   -0.3300 C   0  0  0  0  0  0  0  0  0  0  0  0
   -4.3220   -1.4430   -0.3050 O   0  0  0  0  0  0  0  0  0  0  0  0
   -2.8950    0.8080    0.1400 C   0  0  0  0  0  0  0  0  0  0  0  0
   -2.5900    1.3490    1.3690 O   0  0  0  0  0  0  0  0  0  0  0  0
  1  2  1  0
  2  3  1  0
  3  4  2  0
  3 10  1  0
  4  5  1  0
  4  6  1  0
  6  7  1  0
  6  8  2  0
  8  9  1  0
  9 10  1  0
 10 11  2  3
 11 12  1  0
 12 13  2  3
 12 15  1  0
 13 14  1  0
 15 16  1  0
M  END
