
     RDKit          3D

 16 16  0  0  0  0  0  0  0  0999 V2000
   -2.6070   -2.0460   -1.1030 C   0  0  0  0  0  0  0  0  0  0  0  0
   -2.9680   -0.6340   -0.9860 C   0  0  0  0  0  0  0  0  0  0  0  0
   -2.0270    0.3420   -0.5460 C   0  0  0  0  0  0  0  0  0  0  0  0
   -0.7650   -0.2150   -0.2540 C   0  0  0  0  0  0  0  0  0  0  0  0
    0.3860    0.1590    0.1540 C   0  0  0  0  0  0  0  0  0  0  0  0
    1.5850   -0.7170    0.3750 C   0  0  0  0  0  0  0  0  0  0  0  0
    2.5980   -0.0170    0.7930 C   0  0  0  0  0  0  0  0  0  0  0  0
    3.9540   -0.4610    1.1310 C   0  0  0  0  0  0  0  0  0  0  0  0
    4.1530   -1.8110    0.9750 O   0  0  0  0  0  0  0  0  0  0  0  0
    2.1690    1.3800    0.8880 C   0  0  0  0  0  0  0  0  0  0  0  0
    2.8400    2.3800    1.2510 O   0  0  0  0  0  0  0  0  0  0  0  0
    0.8500    1.4090    0.4950 O   0  0  0  0  0  0  0  0  0  0  0  0
   -2.6420    1.6220   -0.5260 C   0  0  0  0  0  0  0  0  0  0  0  0
   -4.4270    1.5780   -1.0710 Cl  0  0  0  0  0  0  0  0  0  0  0  0
   -2.3180    2.8100   -0.2380 C   0  0  0  0  0  0  0  0  0  0  0  0
   -0.8790    3.5660    0.3180 Cl  0  0  0  0  0  0  0  0  0  0  0  0
  1  2  1  0
  2  3  2  3
  3  4  1  0
  3 13  1  0
  4  5  2  3
  5  6  1  0
  5 12  1  0
  6  7  2  0
  7  8  1  0
  7 10  1  0
  8  9  1  0
 10 11  2  0
 10 12  1  0
 13 14  1  0
 13 15  2  3
 15 16  1  0
M  END
