
     RDKit          3D

 16 16  0  0  0  0  0  0  0  0999 V2000
    2.9680   -2.4340   -0.1250 C   0  0  0  0  0  0  0  0  0  0  0  0
    2.9200   -1.1910   -0.4890 C   0  0  0  0  0  0  0  0  0  0  0  0
    3.7720   -0.7520   -1.9800 Cl  0  0  0  0  0  0  0  0  0  0  0  0
    2.1990   -0.1070    0.2060 C   0  0  0  0  0  0  0  0  0  0  0  0
    2.2910    1.1010   -0.3100 C   0  0  0  0  0  0  0  0  0  0  0  0
    1.6450    2.3040    0.2420 C   0  0  0  0  0  0  0  0  0  0  0  0
    0.5850    2.9940   -1.0020 Cl  0  0  0  0  0  0  0  0  0  0  0  0
    1.4660   -0.3650    1.3460 O   0  0  0  0  0  0  0  0  0  0  0  0
    0.2500   -0.9940    1.3150 C   0  0  0  0  0  0  0  0  0  0  0  0
   -0.8860   -0.3560    0.5880 C   0  0  1  0  0  0  0  0  0  0  0  0
   -1.9460   -1.5140    0.5130 C   0  0  0  0  0  0  0  0  0  0  0  0
   -1.5170    0.7300    1.3890 C   0  0  0  0  0  0  0  0  0  0  0  0
   -2.0100    1.7660    0.6150 O   0  0  0  0  0  0  0  0  0  0  0  0
   -2.5110    1.3830   -0.5980 C   0  0  0  0  0  0  0  0  0  0  0  0
   -1.7570    0.3910   -1.3860 C   0  0  0  0  0  0  0  0  0  0  0  0
   -0.6490   -0.0700   -0.7320 O   0  0  0  0  0  0  0  0  0  0  0  0
  1  2  2  0
  2  3  1  0
  2  4  1  0
  4  5  2  3
  4  8  1  0
  5  6  1  0
  6  7  1  0
  8  9  1  0
  9 10  1  0
 10 11  1  6
 10 12  1  0
 10 16  1  0
 12 13  1  0
 13 14  1  0
 14 15  1  0
 15 16  1  0
M  END
