
     RDKit          3D

 16 16  0  0  0  0  0  0  0  0999 V2000
   -2.9440   -1.7440   -0.4940 C   0  0  0  0  0  0  0  0  0  0  0  0
   -2.8590   -0.6270    0.4160 C   0  0  0  0  0  0  0  0  0  0  0  0
   -1.6630    0.0980    0.5720 C   0  0  0  0  0  0  0  0  0  0  0  0
   -1.8340    1.1500    1.5230 C   0  0  0  0  0  0  0  0  0  0  0  0
   -1.3000    2.0840    2.1750 C   0  0  0  0  0  0  0  0  0  0  0  0
   -2.3350    3.0890    3.3030 Cl  0  0  0  0  0  0  0  0  0  0  0  0
    0.3600    2.5160    2.2970 Cl  0  0  0  0  0  0  0  0  0  0  0  0
   -0.6170   -0.4490   -0.1880 C   0  0  0  0  0  0  0  0  0  0  0  0
    0.5860   -0.2740   -0.5570 C   0  0  0  0  0  0  0  0  0  0  0  0
    1.3190   -1.2930   -1.4490 C   0  0  0  0  0  0  0  0  0  0  0  0
    2.6230   -1.4290   -1.1020 O   0  0  0  0  0  0  0  0  0  0  0  0
    2.9690   -0.7910    0.0740 C   0  0  0  0  0  0  0  0  0  0  0  0
    2.6930    0.6960   -0.0460 C   0  0  0  0  0  0  0  0  0  0  0  0
    3.6200    1.6270    0.1650 O   0  0  0  0  0  0  0  0  0  0  0  0
    1.4010    0.9170   -0.3900 C   0  0  0  0  0  0  0  0  0  0  0  0
    0.9020    2.1540   -0.5760 O   0  0  0  0  0  0  0  0  0  0  0  0
  1  2  1  0
  2  3  2  3
  3  4  1  0
  3  8  1  0
  4  5  2  3
  5  6  1  0
  5  7  1  0
  8  9  2  3
  9 10  1  0
  9 15  1  0
 10 11  1  0
 11 12  1  0
 12 13  1  0
 13 14  1  0
 13 15  2  0
 15 16  1  0
M  END
