
     RDKit          3D

 20 22  0  0  0  0  0  0  0  0999 V2000
   -2.2930    3.8960   -0.3820 N   0  0  0  0  0  0  0  0  0  0  0  0
   -2.6090    2.5110   -0.4350 C   0  0  0  0  0  0  0  0  0  0  0  0
   -3.8080    2.1980   -0.5840 O   0  0  0  0  0  0  0  0  0  0  0  0
   -1.5400    1.5430   -0.3170 C   0  0  0  0  0  0  0  0  0  0  0  0
   -0.2300    1.7310   -0.1770 N   0  0  0  0  0  0  0  0  0  0  0  0
    0.4410    0.5490   -0.1040 C   0  0  0  0  0  0  0  0  0  0  0  0
    1.8950    0.4700    0.0290 C   0  0  0  0  0  0  0  0  0  0  0  0
    2.5680   -0.6260    0.4970 C   0  0  0  0  0  0  0  0  0  0  0  0
    3.9670   -0.6490    0.5300 C   0  0  0  0  0  0  0  0  0  0  0  0
    4.7270    0.4130    0.1020 C   0  0  0  0  0  0  0  0  0  0  0  0
    6.1140    0.3920    0.1330 O   0  0  0  0  0  0  0  0  0  0  0  0
    4.0160    1.5040   -0.3620 C   0  0  0  0  0  0  0  0  0  0  0  0
    2.6620    1.5550   -0.4070 C   0  0  0  0  0  0  0  0  0  0  0  0
   -0.5160   -0.3870   -0.2100 N   0  0  0  0  0  0  0  0  0  0  0  0
   -1.7330    0.1630   -0.3360 C   0  0  0  0  0  0  0  0  0  0  0  0
   -3.0520   -0.4760   -0.4480 C   0  0  0  0  0  0  0  0  0  0  0  0
   -3.2140   -1.9040   -0.2490 C   0  0  0  0  0  0  0  0  0  0  0  0
   -2.3160   -2.6360    0.7060 C   0  0  0  0  0  0  0  0  0  0  0  0
   -0.9470   -2.7610    0.1420 C   0  0  0  0  0  0  0  0  0  0  0  0
   -0.1560   -1.7920   -0.2620 C   0  0  0  0  0  0  0  0  0  0  0  0
  1  2  1  0
  2  3  2  0
  2  4  1  0
  4  5  1  0
  4 15  2  0
  5  6  2  0
  6  7  1  0
  6 14  1  0
  7  8  2  0
  7 13  1  0
  8  9  1  0
  9 10  2  0
 10 11  1  0
 10 12  1  0
 12 13  2  0
 14 15  1  0
 14 20  1  0
 15 16  1  0
 16 17  1  0
 17 18  1  0
 18 19  1  0
 19 20  2  0
M  END
