
     RDKit          3D

 20 22  0  0  0  0  0  0  0  0999 V2000
    5.7580    1.1010    1.4230 C   0  0  0  0  0  0  0  0  0  0  0  0
    5.5980    0.6070    0.0200 C   0  0  0  0  0  0  0  0  0  0  0  0
    4.3320   -0.1650   -0.0710 C   0  0  0  0  0  0  0  0  0  0  0  0
    4.1540   -1.3950   -0.3980 N   0  0  0  0  0  0  0  0  0  0  0  0
    2.7740   -1.7320   -0.3560 C   0  0  0  0  0  0  0  0  0  0  0  0
    2.2090   -2.8310   -0.6080 O   0  0  0  0  0  0  0  0  0  0  0  0
    2.1000   -0.5110    0.0520 C   0  0  0  0  0  0  0  0  0  0  0  0
    0.7030   -0.3050    0.2480 N   0  0  0  0  0  0  0  0  0  0  0  0
   -0.1810   -0.5060   -0.8370 C   0  0  0  0  0  0  0  0  0  0  0  0
    0.2570   -0.8610   -1.9540 O   0  0  0  0  0  0  0  0  0  0  0  0
   -1.6150   -0.2880   -0.6140 C   0  0  0  0  0  0  0  0  0  0  0  0
   -2.5880   -0.4480   -1.5850 C   0  0  0  0  0  0  0  0  0  0  0  0
   -3.7990   -0.1450   -0.9650 C   0  0  0  0  0  0  0  0  0  0  0  0
   -5.0890   -0.1350   -1.4400 C   0  0  0  0  0  0  0  0  0  0  0  0
   -6.1760    0.2000   -0.6530 C   0  0  0  0  0  0  0  0  0  0  0  0
   -5.8710    0.5270    0.6580 C   0  0  0  0  0  0  0  0  0  0  0  0
   -4.5990    0.5270    1.1620 C   0  0  0  0  0  0  0  0  0  0  0  0
   -3.5480    0.1860    0.3420 C   0  0  0  0  0  0  0  0  0  0  0  0
   -2.2160    0.0890    0.5160 N   0  0  0  0  0  0  0  0  0  0  0  0
    3.0230    0.4000    0.2160 C   0  0  0  0  0  0  0  0  0  0  0  0
  1  2  1  0
  2  3  1  0
  3  4  2  0
  3 20  1  0
  4  5  1  0
  5  6  2  0
  5  7  1  0
  7  8  1  0
  7 20  2  0
  8  9  1  0
  9 10  2  0
  9 11  1  0
 11 12  2  0
 11 19  1  0
 12 13  1  0
 13 14  2  0
 13 18  1  0
 14 15  1  0
 15 16  2  0
 16 17  1  0
 17 18  2  0
 18 19  1  0
M  END
