
     RDKit          3D

 17 18  0  0  0  0  0  0  0  0999 V2000
    2.8870   -2.7070    0.9870 C   0  0  0  0  0  0  0  0  0  0  0  0
    2.3480   -1.3020    0.8230 C   0  0  2  0  0  0  0  0  0  0  0  0
    0.9110   -1.2890    0.3670 C   0  0  0  0  0  0  0  0  0  0  0  0
    0.4770    0.1340    0.1880 C   0  0  2  0  0  0  0  0  0  0  0  0
   -0.9310    0.2660   -0.3180 C   0  0  0  0  0  0  0  0  0  0  0  0
   -1.9600   -0.3400    0.5780 C   0  0  0  0  0  0  0  0  0  0  0  0
   -3.2530   -0.1350   -0.0370 N   0  0  2  0  0  0  0  0  0  0  0  0
   -3.8100    1.1780    0.2960 C   0  0  0  0  0  0  0  0  0  0  0  0
   -5.2890    0.9210   -0.0210 C   0  0  0  0  0  0  0  0  0  0  0  0
   -5.4720   -0.4300    0.1230 O   0  0  0  0  0  0  0  0  0  0  0  0
   -4.2690   -1.0160    0.4390 C   0  0  0  0  0  0  0  0  0  0  0  0
    1.3760    0.8070   -0.8300 C   0  0  0  0  0  0  0  0  0  0  0  0
    2.8180    0.8210   -0.4120 C   0  0  1  0  0  0  0  0  0  0  0  0
    3.5630    1.2990   -1.4880 O   0  0  0  0  0  0  0  0  0  0  0  0
    2.9620    1.7240    0.8000 C   0  0  0  0  0  0  0  0  0  0  0  0
    4.3200    1.7390    1.1240 O   0  0  0  0  0  0  0  0  0  0  0  0
    3.2550   -0.5790   -0.1340 C   0  0  0  0  0  0  0  0  0  0  0  0
  2  1  1  6
  2  3  1  0
  2 17  1  0
  3  4  1  0
  4  5  1  6
  4 12  1  0
  5  6  1  0
  7  6  1  1
  7  8  1  0
  7 11  1  0
  8  9  1  0
  9 10  1  0
 10 11  1  0
 12 13  1  0
 13 14  1  6
 13 15  1  0
 13 17  1  0
 15 16  1  0
M  CHG  1   7   1
M  END
