
     RDKit          3D

 20 21  0  0  0  0  0  0  0  0999 V2000
   -3.5960    1.7850    1.8080 C   0  0  0  0  0  0  0  0  0  0  0  0
   -3.7200    1.5550    0.3650 C   0  0  0  0  0  0  0  0  0  0  0  0
   -3.2430    0.4290   -0.2030 C   0  0  0  0  0  0  0  0  0  0  0  0
   -3.3710    0.2060   -1.6500 C   0  0  0  0  0  0  0  0  0  0  0  0
   -2.6200   -0.5670    0.6920 C   0  0  0  0  0  0  0  0  0  0  0  0
   -1.3620   -0.8500    0.4520 O   0  0  0  0  0  0  0  0  0  0  0  0
   -0.4840   -1.3690   -0.3710 C   0  0  0  0  0  0  0  0  0  0  0  0
   -0.7410   -1.9730   -1.6000 C   0  0  0  0  0  0  0  0  0  0  0  0
    0.2670   -2.4870   -2.3770 C   0  0  0  0  0  0  0  0  0  0  0  0
   -0.0280   -3.0980   -3.6290 N   0  0  0  0  0  0  0  0  0  0  0  0
    1.5760   -2.4000   -1.9220 C   0  0  0  0  0  0  0  0  0  0  0  0
    1.8510   -1.8080   -0.7100 C   0  0  0  0  0  0  0  0  0  0  0  0
    0.8690   -1.2980    0.0640 C   0  0  0  0  0  0  0  0  0  0  0  0
    1.1980   -0.6970    1.3050 N   0  0  0  0  0  0  0  0  0  0  0  0
    2.0020    0.2900    1.4160 C   0  0  0  0  0  0  0  0  0  0  0  0
    2.3490    0.9230    2.7130 C   0  0  0  0  0  0  0  0  0  0  0  0
    2.7100    2.2340    2.4560 O   0  0  0  0  0  0  0  0  0  0  0  0
    3.8910    2.3210    1.7300 C   0  0  0  0  0  0  0  0  0  0  0  0
    3.7550    1.7380    0.3440 C   0  0  0  0  0  0  0  0  0  0  0  0
    2.6130    0.8360    0.2540 N   0  0  0  0  0  0  0  0  0  0  0  0
  1  2  1  0
  2  3  2  3
  3  4  1  0
  3  5  1  0
  5  6  1  0
  6  7  1  0
  7  8  2  0
  7 13  1  0
  8  9  1  0
  9 10  1  0
  9 11  2  0
 11 12  1  0
 12 13  2  0
 13 14  1  0
 14 15  2  3
 15 16  1  0
 15 20  1  0
 16 17  1  0
 17 18  1  0
 18 19  1  0
 19 20  1  0
M  END
