
     RDKit          3D

 20 22  0  0  0  0  0  0  0  0999 V2000
    5.3420    0.7100   -2.0750 C   0  0  0  0  0  0  0  0  0  0  0  0
    4.7440    0.5220   -0.7300 C   0  0  0  0  0  0  0  0  0  0  0  0
    3.3890    0.2780   -0.4670 C   0  0  0  0  0  0  0  0  0  0  0  0
    3.2060    0.1580    0.8860 C   0  0  0  0  0  0  0  0  0  0  0  0
    2.0270   -0.0880    1.6350 N   0  0  0  0  0  0  0  0  0  0  0  0
    0.7380   -0.2670    1.0800 C   0  0  0  0  0  0  0  0  0  0  0  0
    0.5950   -0.2090   -0.1640 O   0  0  0  0  0  0  0  0  0  0  0  0
   -0.4680   -0.5230    1.9080 C   0  0  0  0  0  0  0  0  0  0  0  0
   -1.6850   -0.6710    1.0680 C   0  0  0  0  0  0  0  0  0  0  0  0
   -2.0930   -1.8960    0.5780 C   0  0  0  0  0  0  0  0  0  0  0  0
   -3.2400   -1.9960   -0.2060 C   0  0  0  0  0  0  0  0  0  0  0  0
   -3.9830   -0.8620   -0.5020 C   0  0  0  0  0  0  0  0  0  0  0  0
   -3.5900    0.3690   -0.0210 C   0  0  0  0  0  0  0  0  0  0  0  0
   -2.4510    0.4250    0.7510 C   0  0  0  0  0  0  0  0  0  0  0  0
   -4.5620    1.4240   -0.4830 C   0  0  0  0  0  0  0  0  0  0  0  0
   -5.5450    0.6780   -1.2730 C   0  0  0  0  0  0  0  0  0  0  0  0
   -6.5380    1.2040   -1.8440 O   0  0  0  0  0  0  0  0  0  0  0  0
   -5.1830   -0.6860   -1.2730 N   0  0  0  0  0  0  0  0  0  0  0  0
    4.4590    0.3320    1.4350 C   0  0  0  0  0  0  0  0  0  0  0  0
    5.3640    0.5470    0.4610 N   0  0  0  0  0  0  0  0  0  0  0  0
  1  2  1  0
  2  3  2  0
  2 20  1  0
  3  4  1  0
  4  5  1  0
  4 19  2  0
  5  6  1  0
  6  7  2  0
  6  8  1  0
  8  9  1  0
  9 10  2  0
  9 14  1  0
 10 11  1  0
 11 12  2  0
 12 13  1  0
 12 18  1  0
 13 14  2  0
 13 15  1  0
 15 16  1  0
 16 17  2  0
 16 18  1  0
 19 20  1  0
M  END
