
     RDKit          3D

 20 22  0  0  0  0  0  0  0  0999 V2000
    0.7500    0.4320    0.8970 O   0  0  0  0  0  0  0  0  0  0  0  0
    0.6600   -0.2540   -0.1300 C   0  0  0  0  0  0  0  0  0  0  0  0
    1.7890   -0.6820   -0.8860 N   0  0  0  0  0  0  0  0  0  0  0  0
    3.1020   -0.3580   -0.5190 C   0  0  0  0  0  0  0  0  0  0  0  0
    3.5270    0.2010    0.6440 C   0  0  0  0  0  0  0  0  0  0  0  0
    4.8780    0.4880    0.8800 C   0  0  0  0  0  0  0  0  0  0  0  0
    5.8400    0.2130   -0.0650 C   0  0  0  0  0  0  0  0  0  0  0  0
    7.1920    0.5000    0.1680 O   0  0  0  0  0  0  0  0  0  0  0  0
    5.4210   -0.3540   -1.2490 C   0  0  0  0  0  0  0  0  0  0  0  0
    4.0930   -0.6330   -1.4740 C   0  0  0  0  0  0  0  0  0  0  0  0
   -0.6380   -0.6280   -0.5650 N   0  0  0  0  0  0  0  0  0  0  0  0
   -1.8330   -0.2750    0.0950 C   0  0  0  0  0  0  0  0  0  0  0  0
   -1.9650    0.2350    1.3470 C   0  0  0  0  0  0  0  0  0  0  0  0
   -3.1980    0.5740    1.9140 C   0  0  0  0  0  0  0  0  0  0  0  0
   -4.3630    0.3990    1.2080 C   0  0  0  0  0  0  0  0  0  0  0  0
   -5.7000    0.6380    1.4980 C   0  0  0  0  0  0  0  0  0  0  0  0
   -6.4110    0.2580    0.3810 C   0  0  0  0  0  0  0  0  0  0  0  0
   -5.5390   -0.1810   -0.5210 N   0  0  0  0  0  0  0  0  0  0  0  0
   -4.2710   -0.1160   -0.0660 C   0  0  0  0  0  0  0  0  0  0  0  0
   -3.0430   -0.4430   -0.6040 C   0  0  0  0  0  0  0  0  0  0  0  0
  1  2  2  0
  2  3  1  0
  2 11  1  0
  3  4  1  0
  4  5  2  0
  4 10  1  0
  5  6  1  0
  6  7  2  0
  7  8  1  0
  7  9  1  0
  9 10  2  0
 11 12  1  0
 12 13  2  0
 12 20  1  0
 13 14  1  0
 14 15  2  0
 15 16  1  0
 15 19  1  0
 16 17  2  0
 17 18  1  0
 18 19  1  0
 19 20  2  0
M  END
