
     RDKit          3D

 20 22  0  0  0  0  0  0  0  0999 V2000
   -3.0050   -0.8020   -2.1230 C   0  0  0  0  0  0  0  0  0  0  0  0
   -2.7680    0.2270   -1.0800 C   0  0  0  0  0  0  0  0  0  0  0  0
   -3.5390    1.3170   -0.8810 N   0  0  0  0  0  0  0  0  0  0  0  0
   -3.0360    2.0180    0.0900 N   0  0  0  0  0  0  0  0  0  0  0  0
   -1.9100    1.3810    0.5480 C   0  0  0  0  0  0  0  0  0  0  0  0
   -1.1650    1.8890    1.7220 C   0  0  0  0  0  0  0  0  0  0  0  0
   -1.7080    0.2390   -0.1750 C   0  0  0  0  0  0  0  0  0  0  0  0
   -0.7830   -0.8830   -0.0450 C   0  0  0  0  0  0  0  0  0  0  0  0
   -1.2730   -2.1320   -0.0950 C   0  0  0  0  0  0  0  0  0  0  0  0
   -0.4840   -3.3540    0.0170 C   0  0  0  0  0  0  0  0  0  0  0  0
    0.8840   -3.0990    0.1550 O   0  0  0  0  0  0  0  0  0  0  0  0
    1.4700   -1.8670    0.1880 C   0  0  0  0  0  0  0  0  0  0  0  0
    2.8630   -1.7390    0.3050 C   0  0  0  0  0  0  0  0  0  0  0  0
    3.4000   -0.4760    0.3170 C   0  0  0  0  0  0  0  0  0  0  0  0
    2.6110    0.6460    0.2170 C   0  0  0  0  0  0  0  0  0  0  0  0
    3.1380    2.0060    0.2220 C   0  0  0  0  0  0  0  0  0  0  0  0
    4.3920    2.2360    0.3220 N   0  0  0  0  0  0  0  0  0  0  0  0
    2.2820    3.1060    0.1170 O   0  0  0  0  0  0  0  0  0  0  0  0
    1.2270    0.5070    0.1030 C   0  0  0  0  0  0  0  0  0  0  0  0
    0.6570   -0.7370    0.0940 C   0  0  0  0  0  0  0  0  0  0  0  0
  1  2  1  0
  2  3  2  0
  2  7  1  0
  3  4  1  0
  4  5  1  0
  5  6  1  0
  5  7  2  0
  7  8  1  0
  8  9  2  0
  8 20  1  0
  9 10  1  0
 10 11  1  0
 11 12  1  0
 12 13  2  0
 12 20  1  0
 13 14  1  0
 14 15  2  0
 15 16  1  0
 15 19  1  0
 16 17  2  0
 16 18  1  0
 19 20  2  0
M  END
