
     RDKit          3D

 47 50  0  0  0  0  0  0  0  0999 V2000
    3.0980    1.9630   -1.7660 C   0  0  0  0  0  0  0  0  0  0  0  0
    2.1250    0.9120   -1.0610 C   0  0  0  0  0  0  0  0  0  0  0  0
    0.9730    1.4750   -0.8880 C   0  0  0  0  0  0  0  0  0  0  0  0
   -0.2390    0.9210   -0.3000 C   0  0  0  0  0  0  0  0  0  0  0  0
   -0.2760   -0.2560    0.0790 O   0  0  0  0  0  0  0  0  0  0  0  0
   -1.3360    1.7730   -0.1870 O   0  0  0  0  0  0  0  0  0  0  0  0
   -2.5730    1.4470    0.3080 C   0  0  0  0  0  0  0  0  0  0  0  0
   -3.3850    0.4810   -0.4710 C   0  0  0  0  0  0  0  0  0  0  0  0
   -4.6430    0.2270    0.0590 O   0  0  0  0  0  0  0  0  0  0  0  0
   -4.6960   -0.2100    1.3320 C   0  0  2  0  0  0  0  0  0  0  0  0
   -4.7620   -1.8330    1.1160 C   0  0  0  0  0  0  0  0  0  0  0  0
   -5.9440   -2.0900    0.2700 C   0  0  0  0  0  0  0  0  0  0  0  0
   -6.1860   -3.4970   -0.0530 N   0  0  0  0  0  0  0  0  0  0  0  0
   -7.5030   -3.6520   -0.6450 C   0  0  2  0  0  0  0  0  0  0  0  0
   -7.7170   -4.1470   -2.0120 C   0  0  0  0  0  0  0  0  0  0  0  0
   -7.8490   -2.6700   -1.7620 C   0  0  0  0  0  0  0  0  0  0  0  0
   -5.8590    0.1250    2.1420 C   0  0  0  0  0  0  0  0  0  0  0  0
   -6.3600    1.5030    2.3180 C   0  0  0  0  0  0  0  0  0  0  0  0
   -6.9450    2.1330    1.1490 C   0  0  0  0  0  0  0  0  0  0  0  0
   -8.1870    1.7210    0.6340 C   0  0  0  0  0  0  0  0  0  0  0  0
   -9.0220    0.6340    1.1360 C   0  0  0  0  0  0  0  0  0  0  0  0
   -8.4630    2.5190   -0.4030 N   0  0  0  0  0  0  0  0  0  0  0  0
   -7.5090    3.3530   -0.5430 O   0  0  0  0  0  0  0  0  0  0  0  0
   -6.5680    3.1650    0.3680 C   0  0  0  0  0  0  0  0  0  0  0  0
   -5.3750    4.0440    0.3720 C   0  0  0  0  0  0  0  0  0  0  0  0
    2.7510   -0.2050   -0.8500 O   0  0  0  0  0  0  0  0  0  0  0  0
    3.5050   -1.1280   -0.2720 C   0  0  0  0  0  0  0  0  0  0  0  0
    4.9110   -0.6570   -0.0070 C   0  0  2  0  0  0  0  0  0  0  0  0
    5.5990    0.1300   -0.8860 O   0  0  0  0  0  0  0  0  0  0  0  0
    6.0220    1.4260   -0.4300 C   0  0  0  0  0  0  0  0  0  0  0  0
    5.7020    1.6410    0.7620 O   0  0  0  0  0  0  0  0  0  0  0  0
    6.7110    2.3070   -1.3130 C   0  0  0  0  0  0  0  0  0  0  0  0
    7.0280    1.8270   -2.5870 C   0  0  0  0  0  0  0  0  0  0  0  0
    7.6970    2.5980   -3.4880 C   0  0  0  0  0  0  0  0  0  0  0  0
    8.0560    3.8600   -3.1280 C   0  0  0  0  0  0  0  0  0  0  0  0
    7.7530    4.3520   -1.8830 C   0  0  0  0  0  0  0  0  0  0  0  0
    7.0590    3.5710   -0.9230 C   0  0  0  0  0  0  0  0  0  0  0  0
    6.7440    4.1810    0.3490 C   0  0  0  0  0  0  0  0  0  0  0  0
    6.1160    3.7410    1.2990 O   0  0  0  0  0  0  0  0  0  0  0  0
    5.8000   -1.7790    0.5330 C   0  0  0  0  0  0  0  0  0  0  0  0
    5.5630   -2.3110    1.7810 C   0  0  0  0  0  0  0  0  0  0  0  0
    6.5130   -3.1230    2.4300 C   0  0  0  0  0  0  0  0  0  0  0  0
    7.7270   -3.4130    1.8260 C   0  0  0  0  0  0  0  0  0  0  0  0
    8.7380   -4.2600    2.5390 C   0  0  0  0  0  0  0  0  0  0  0  0
    7.9610   -2.8910    0.5830 C   0  0  0  0  0  0  0  0  0  0  0  0
    7.0040   -2.0790   -0.0650 C   0  0  0  0  0  0  0  0  0  0  0  0
    7.2600   -1.7280   -1.4770 C   0  0  0  0  0  0  0  0  0  0  0  0
  1  2  1  0
  2  3  2  3
  2 26  1  0
  3  4  1  0
  4  5  2  0
  4  6  1  0
  6  7  1  0
  7  8  1  0
  8  9  1  0
  9 10  1  0
 10 11  1  6
 10 17  1  0
 11 12  1  0
 12 13  1  0
 14 13  1  6
 14 15  1  0
 14 16  1  0
 15 16  1  0
 17 18  1  0
 18 19  1  0
 19 20  1  0
 19 24  2  0
 20 21  1  0
 20 22  2  0
 22 23  1  0
 23 24  1  0
 24 25  1  0
 26 27  1  0
 28 27  1  6
 28 29  1  0
 28 40  1  0
 29 30  1  0
 30 31  2  0
 30 32  1  0
 32 33  2  0
 32 37  1  0
 33 34  1  0
 34 35  2  0
 35 36  1  0
 36 37  2  0
 37 38  1  0
 38 39  2  0
 40 41  2  0
 40 46  1  0
 41 42  1  0
 42 43  2  0
 43 44  1  0
 43 45  1  0
 45 46  2  0
 46 47  1  0
M  CHG  1  13   1
M  END
