
     RDKit          3D

 47 51  0  0  0  0  0  0  0  0999 V2000
   -2.3140   -0.0840   -2.9410 C   0  0  0  0  0  0  0  0  0  0  0  0
   -3.2870   -1.1030   -2.6490 C   0  0  0  0  0  0  0  0  0  0  0  0
   -3.7690   -1.9670   -3.6400 C   0  0  0  0  0  0  0  0  0  0  0  0
   -4.6870   -3.0360   -3.2800 C   0  0  0  0  0  0  0  0  0  0  0  0
   -5.0590   -3.1740   -2.0420 C   0  0  0  0  0  0  0  0  0  0  0  0
   -4.5350   -2.2740   -1.1230 C   0  0  0  0  0  0  0  0  0  0  0  0
   -3.7340   -1.3060   -1.2420 C   0  0  0  0  0  0  0  0  0  0  0  0
   -3.2340   -0.4490   -0.1660 C   0  0  0  0  0  0  0  0  0  0  0  0
   -1.8450   -0.5330    0.2420 C   0  0  0  0  0  0  0  0  0  0  0  0
   -1.2810   -1.8000    0.6490 C   0  0  0  0  0  0  0  0  0  0  0  0
   -1.8890   -2.8600    0.5910 O   0  0  0  0  0  0  0  0  0  0  0  0
   -2.4690   -4.1230    0.5670 C   0  0  0  0  0  0  0  0  0  0  0  0
   -2.3390   -4.8050    1.9180 C   0  0  0  0  0  0  0  0  0  0  0  0
   -3.4230   -4.9610    2.8320 C   0  0  0  0  0  0  0  0  0  0  0  0
   -2.9330   -5.6110    3.9000 C   0  0  0  0  0  0  0  0  0  0  0  0
   -1.5000   -5.8640    3.6340 C   0  0  0  0  0  0  0  0  0  0  0  0
   -1.4070   -5.3160    2.4610 O   0  0  0  0  0  0  0  0  0  0  0  0
   -0.0050   -1.7960    1.1250 C   0  0  0  0  0  0  0  0  0  0  0  0
    0.7500   -0.6380    1.2470 C   0  0  0  0  0  0  0  0  0  0  0  0
    0.2290    0.5680    0.8810 C   0  0  0  0  0  0  0  0  0  0  0  0
    0.9890    1.6820    1.0410 O   0  0  0  0  0  0  0  0  0  0  0  0
    2.2710    1.8670    1.5380 C   0  0  2  0  0  0  0  0  0  0  0  0
    2.2560    2.6230    2.8810 C   0  0  0  0  0  0  0  0  0  0  0  0
    3.1080    2.6930    0.5640 C   0  0  0  0  0  0  0  0  0  0  0  0
    3.2810    2.0420   -0.7690 C   0  0  0  0  0  0  0  0  0  0  0  0
    3.9130    0.8650   -0.7820 O   0  0  0  0  0  0  0  0  0  0  0  0
    4.4450   -0.1830   -1.0210 C   0  0  0  0  0  0  0  0  0  0  0  0
    4.4480   -0.4590   -2.3780 O   0  0  0  0  0  0  0  0  0  0  0  0
    5.1090   -1.2620   -0.2360 C   0  0  2  0  0  0  0  0  0  0  0  0
    4.0120   -2.0870    0.3990 C   0  0  0  0  0  0  0  0  0  0  0  0
    5.8750   -0.6080    0.8940 C   0  0  0  0  0  0  0  0  0  0  0  0
    7.2810   -0.2620    0.4720 C   0  0  0  0  0  0  0  0  0  0  0  0
    7.9040   -1.4950    0.2090 O   0  0  0  0  0  0  0  0  0  0  0  0
    7.4210   -1.9230   -1.0200 C   0  0  0  0  0  0  0  0  0  0  0  0
    5.9500   -2.1510   -1.0830 C   0  0  0  0  0  0  0  0  0  0  0  0
   -1.1420    0.6200    0.3450 C   0  0  0  0  0  0  0  0  0  0  0  0
   -1.3820    1.9360    0.0980 O   0  0  0  0  0  0  0  0  0  0  0  0
   -1.1340    2.6930   -1.0630 C   0  0  0  0  0  0  0  0  0  0  0  0
   -1.3280    4.1450   -0.6960 C   0  0  0  0  0  0  0  0  0  0  0  0
   -2.7120    4.5720   -0.4190 C   0  0  0  0  0  0  0  0  0  0  0  0
   -3.0710    5.8060   -1.0620 C   0  0  0  0  0  0  0  0  0  0  0  0
   -4.3950    6.1750   -0.7990 C   0  0  0  0  0  0  0  0  0  0  0  0
   -5.2120    5.5190   -0.0870 C   0  0  0  0  0  0  0  0  0  0  0  0
   -6.5790    6.0610    0.1290 C   0  0  0  0  0  0  0  0  0  0  0  0
   -7.6780    6.5020    0.3240 N   0  0  0  0  0  0  0  0  0  0  0  0
   -4.9720    4.2400    0.6080 C   0  0  0  0  0  0  0  0  0  0  0  0
   -3.6030    3.9610    0.2870 C   0  0  0  0  0  0  0  0  0  0  0  0
  1  2  1  0
  2  3  2  0
  2  7  1  0
  3  4  1  0
  4  5  2  0
  5  6  1  0
  6  7  2  0
  7  8  1  0
  8  9  1  0
  9 10  1  0
  9 36  2  0
 10 11  1  0
 10 18  2  0
 11 12  1  0
 12 13  1  0
 13 14  2  0
 13 17  1  0
 14 15  1  0
 15 16  2  0
 16 17  1  0
 18 19  1  0
 19 20  2  0
 20 21  1  0
 20 36  1  0
 21 22  1  0
 22 23  1  1
 22 24  1  0
 24 25  1  0
 25 26  1  0
 26 27  1  0
 27 28  2  0
 27 29  1  0
 29 30  1  1
 29 31  1  0
 29 35  1  0
 31 32  1  0
 32 33  1  0
 33 34  1  0
 34 35  1  0
 36 37  1  0
 37 38  1  0
 38 39  1  0
 39 40  1  0
 40 41  2  0
 40 47  1  0
 41 42  1  0
 42 43  2  0
 43 44  1  0
 43 46  1  0
 44 45  3  0
 46 47  2  0
M  END
