
     RDKit          3D

 47 50  0  0  0  0  0  0  0  0999 V2000
    5.9190    7.9000    1.5660 C   0  0  0  0  0  0  0  0  0  0  0  0
    5.3330    6.8040    2.2810 O   0  0  0  0  0  0  0  0  0  0  0  0
    5.0140    5.6310    1.6290 C   0  0  0  0  0  0  0  0  0  0  0  0
    5.2660    5.5830    0.3810 O   0  0  0  0  0  0  0  0  0  0  0  0
    4.4010    4.4580    2.3440 C   0  0  0  0  0  0  0  0  0  0  0  0
    4.1920    3.4850    1.3810 O   0  0  0  0  0  0  0  0  0  0  0  0
    3.6900    2.2230    1.6090 C   0  0  0  0  0  0  0  0  0  0  0  0
    3.3900    1.8670    2.7510 O   0  0  0  0  0  0  0  0  0  0  0  0
    3.5610    1.3820    0.3670 C   0  0  2  0  0  0  0  0  0  0  0  0
    4.9930    1.2590   -0.1460 C   0  0  0  0  0  0  0  0  0  0  0  0
    2.7770    2.1420   -0.6510 C   0  0  0  0  0  0  0  0  0  0  0  0
    3.1110    0.0590    0.6520 N   0  0  0  0  0  0  0  0  0  0  0  0
    2.9010   -0.9060   -0.3370 C   0  0  0  0  0  0  0  0  0  0  0  0
    3.1180   -0.5760   -1.5470 O   0  0  0  0  0  0  0  0  0  0  0  0
    2.4400   -2.3290   -0.1150 C   0  0  2  0  0  0  0  0  0  0  0  0
    3.5520   -3.2500    0.1170 C   0  0  0  0  0  0  0  0  0  0  0  0
    3.2700   -4.6560    0.3940 C   0  0  0  0  0  0  0  0  0  0  0  0
    3.3670   -5.6470   -0.5340 C   0  0  0  0  0  0  0  0  0  0  0  0
    3.0800   -6.9680   -0.2780 C   0  0  0  0  0  0  0  0  0  0  0  0
    2.6730   -7.3470    0.9670 C   0  0  0  0  0  0  0  0  0  0  0  0
    2.5570   -6.3730    1.9590 C   0  0  0  0  0  0  0  0  0  0  0  0
    2.8510   -5.0520    1.6800 C   0  0  0  0  0  0  0  0  0  0  0  0
    1.4200   -2.5990   -1.1390 C   0  0  2  0  0  0  0  0  0  0  0  0
    0.2390   -1.7610   -0.9320 N   0  0  0  0  0  0  0  0  0  0  0  0
   -0.2810   -0.7580   -1.7580 C   0  0  0  0  0  0  0  0  0  0  0  0
    0.3180   -0.4960   -2.8250 O   0  0  0  0  0  0  0  0  0  0  0  0
   -1.5150   -0.0460   -1.3560 C   0  0  0  0  0  0  0  0  0  0  0  0
   -2.4610    0.3760   -2.2270 C   0  0  0  0  0  0  0  0  0  0  0  0
   -3.6400    0.9850   -1.8330 C   0  0  0  0  0  0  0  0  0  0  0  0
   -3.8930    1.1870   -0.4790 C   0  0  0  0  0  0  0  0  0  0  0  0
   -5.1760    1.7680   -0.0330 C   0  0  1  0  0  0  0  0  0  0  0  0
   -5.9290    0.7590    0.8430 C   0  0  0  0  0  0  0  0  0  0  0  0
   -7.3910    1.1320    0.7650 C   0  0  0  0  0  0  0  0  0  0  0  0
   -7.5600    2.6290    0.5770 C   0  0  0  0  0  0  0  0  0  0  0  0
   -6.4440    3.3880    1.2600 C   0  0  2  0  0  0  0  0  0  0  0  0
   -6.6440    4.8440    1.1020 C   0  0  0  0  0  0  0  0  0  0  0  0
   -6.7220    5.4210   -0.2850 C   0  0  0  0  0  0  0  0  0  0  0  0
   -6.7480    5.6070    2.0450 O   0  0  0  0  0  0  0  0  0  0  0  0
   -5.0710    3.0190    0.7700 C   0  0  0  0  0  0  0  0  0  0  0  0
   -2.9400    0.7680    0.4140 C   0  0  0  0  0  0  0  0  0  0  0  0
   -1.7640    0.1580   -0.0090 C   0  0  0  0  0  0  0  0  0  0  0  0
    1.0030   -3.9260   -1.5330 C   0  0  0  0  0  0  0  0  0  0  0  0
    0.1510   -4.7700   -0.8250 C   0  0  0  0  0  0  0  0  0  0  0  0
    0.0440   -5.9060   -1.5920 C   0  0  0  0  0  0  0  0  0  0  0  0
    0.8080   -5.7410   -2.7220 C   0  0  0  0  0  0  0  0  0  0  0  0
    0.9850   -6.7380   -3.8480 C   0  0  0  0  0  0  0  0  0  0  0  0
    1.3560   -4.5660   -2.6500 O   0  0  0  0  0  0  0  0  0  0  0  0
  1  2  1  0
  2  3  1  0
  3  4  2  0
  3  5  1  0
  5  6  1  0
  6  7  1  0
  7  8  2  0
  7  9  1  0
  9 10  1  6
  9 11  1  0
  9 12  1  0
 12 13  1  0
 13 14  2  0
 13 15  1  0
 15 16  1  6
 15 23  1  0
 16 17  1  0
 17 18  2  0
 17 22  1  0
 18 19  1  0
 19 20  2  0
 20 21  1  0
 21 22  2  0
 23 24  1  1
 23 42  1  0
 24 25  1  0
 25 26  2  0
 25 27  1  0
 27 28  2  0
 27 41  1  0
 28 29  1  0
 29 30  2  0
 31 30  1  1
 30 40  1  0
 31 32  1  0
 31 39  1  0
 32 33  1  0
 33 34  1  0
 34 35  1  0
 35 36  1  6
 35 39  1  0
 36 37  1  0
 36 38  2  0
 40 41  2  0
 42 43  2  0
 42 47  1  0
 43 44  1  0
 44 45  2  0
 45 46  1  0
 45 47  1  0
M  END
