
     RDKit          3D

 47 51  0  0  0  0  0  0  0  0999 V2000
   -4.9570    6.3780   -1.6420 C   0  0  0  0  0  0  0  0  0  0  0  0
   -3.6030    5.9550   -1.6750 O   0  0  0  0  0  0  0  0  0  0  0  0
   -3.2960    4.6450   -1.2920 C   0  0  0  0  0  0  0  0  0  0  0  0
   -4.2410    3.9150   -0.9380 O   0  0  0  0  0  0  0  0  0  0  0  0
   -1.8960    4.2040   -1.3280 C   0  0  0  0  0  0  0  0  0  0  0  0
   -1.6500    2.7960   -0.8580 C   0  0  0  0  0  0  0  0  0  0  0  0
   -2.0340    2.5600    0.5570 C   0  0  0  0  0  0  0  0  0  0  0  0
   -1.8120    1.2650    1.0900 N   0  0  0  0  0  0  0  0  0  0  0  0
   -0.5270    0.9940    1.7150 C   0  0  0  0  0  0  0  0  0  0  0  0
    0.4400    0.3300    0.8140 C   0  0  0  0  0  0  0  0  0  0  0  0
    0.1590   -0.1020   -0.4540 C   0  0  0  0  0  0  0  0  0  0  0  0
    1.0760   -0.7290   -1.2630 C   0  0  0  0  0  0  0  0  0  0  0  0
    2.3450   -0.9300   -0.7650 C   0  0  0  0  0  0  0  0  0  0  0  0
    2.6900   -0.5190    0.5020 C   0  0  0  0  0  0  0  0  0  0  0  0
    4.0410   -0.7710    0.9820 C   0  0  0  0  0  0  0  0  0  0  0  0
    4.4550   -0.4150    2.1170 O   0  0  0  0  0  0  0  0  0  0  0  0
    4.9110   -1.4310    0.1620 O   0  0  0  0  0  0  0  0  0  0  0  0
    6.2220   -1.7710    0.4220 C   0  0  0  0  0  0  0  0  0  0  0  0
    6.4870   -2.9110    1.1870 C   0  0  0  0  0  0  0  0  0  0  0  0
    7.7740   -3.3030    1.4770 C   0  0  0  0  0  0  0  0  0  0  0  0
    8.8650   -2.5910    1.0270 C   0  0  0  0  0  0  0  0  0  0  0  0
   10.2630   -3.0100    1.3370 C   0  0  0  0  0  0  0  0  0  0  0  0
    8.6100   -1.4620    0.2720 C   0  0  0  0  0  0  0  0  0  0  0  0
    9.6910   -0.7320   -0.1930 C   0  0  0  0  0  0  0  0  0  0  0  0
    9.4530    0.3980   -0.9530 C   0  0  0  0  0  0  0  0  0  0  0  0
   10.5020    1.1620   -1.4420 O   0  0  0  0  0  0  0  0  0  0  0  0
   11.8320    0.7670   -1.1550 C   0  0  0  0  0  0  0  0  0  0  0  0
    8.1650    0.8310   -1.2690 C   0  0  0  0  0  0  0  0  0  0  0  0
    8.0020    1.9750   -2.0350 O   0  0  0  0  0  0  0  0  0  0  0  0
    6.6940    2.4060   -2.3490 C   0  0  0  0  0  0  0  0  0  0  0  0
    7.1110    0.0850   -0.7930 C   0  0  0  0  0  0  0  0  0  0  0  0
    7.3150   -1.0620   -0.0230 C   0  0  0  0  0  0  0  0  0  0  0  0
    1.7450    0.1040    1.2760 C   0  0  0  0  0  0  0  0  0  0  0  0
   -2.7630    0.2240    1.0900 C   0  0  0  0  0  0  0  0  0  0  0  0
   -2.3990   -0.9110    1.6080 O   0  0  0  0  0  0  0  0  0  0  0  0
   -4.1450    0.2820    0.5590 C   0  0  1  0  0  0  0  0  0  0  0  0
   -4.1280    0.2370   -0.9220 C   0  0  0  0  0  0  0  0  0  0  0  0
   -4.9250   -0.8540    1.1850 C   0  0  0  0  0  0  0  0  0  0  0  0
   -6.2900   -0.9410    0.7700 N   0  0  1  0  0  0  0  0  0  0  0  0
   -6.4270   -2.1370   -0.0150 C   0  0  1  0  0  0  0  0  0  0  0  0
   -7.0540   -3.2970    0.7580 C   0  0  0  0  0  0  0  0  0  0  0  0
   -7.3270   -4.2820   -0.3920 C   0  0  0  0  0  0  0  0  0  0  0  0
   -7.4990   -3.4520   -1.6210 C   0  0  0  0  0  0  0  0  0  0  0  0
   -7.4310   -2.0180   -1.1420 C   0  0  0  0  0  0  0  0  0  0  0  0
   -7.1730   -1.0980    1.9370 C   0  0  2  0  0  0  0  0  0  0  0  0
   -8.4990   -0.4570    1.8970 C   0  0  0  0  0  0  0  0  0  0  0  0
   -7.4400    0.1170    2.7930 C   0  0  0  0  0  0  0  0  0  0  0  0
  1  2  1  0
  2  3  1  0
  3  4  2  0
  3  5  1  0
  5  6  1  0
  6  7  1  0
  7  8  1  0
  8  9  1  0
  8 34  1  0
  9 10  1  0
 10 11  2  0
 10 33  1  0
 11 12  1  0
 12 13  2  0
 13 14  1  0
 14 15  1  0
 14 33  2  0
 15 16  2  0
 15 17  1  0
 17 18  1  0
 18 19  2  0
 18 32  1  0
 19 20  1  0
 20 21  2  0
 21 22  1  0
 21 23  1  0
 23 24  2  0
 23 32  1  0
 24 25  1  0
 25 26  1  0
 25 28  2  0
 26 27  1  0
 28 29  1  0
 28 31  1  0
 29 30  1  0
 31 32  2  0
 34 35  2  0
 34 36  1  0
 36 37  1  6
 36 38  1  0
 39 38  1  1
 39 40  1  0
 39 45  1  0
 40 41  1  1
 40 44  1  0
 41 42  1  0
 42 43  1  0
 43 44  1  0
 45 46  1  6
 45 47  1  0
 46 47  1  0
M  CHG  1  39   1
M  END
