
     RDKit          3D

 47 50  0  0  0  0  0  0  0  0999 V2000
   -5.4440   -3.1920    0.5940 C   0  0  0  0  0  0  0  0  0  0  0  0
   -5.0550   -1.9180   -0.0660 C   0  0  0  0  0  0  0  0  0  0  0  0
   -4.0670   -1.0690    0.6430 C   0  0  0  0  0  0  0  0  0  0  0  0
   -4.3740   -0.5830    2.0020 C   0  0  1  0  0  0  0  0  0  0  0  0
   -3.1990    0.2070    2.4740 C   0  0  0  0  0  0  0  0  0  0  0  0
   -3.3070    1.3260    2.8580 O   0  0  0  0  0  0  0  0  0  0  0  0
   -1.8020   -0.3700    2.4930 C   0  0  0  0  0  0  0  0  0  0  0  0
   -0.8370    0.6430    3.0620 C   0  0  0  0  0  0  0  0  0  0  0  0
    0.5530    0.1680    3.1580 C   0  0  0  0  0  0  0  0  0  0  0  0
    1.4770    0.7630    3.7330 O   0  0  0  0  0  0  0  0  0  0  0  0
    0.8690   -1.0880    2.5460 O   0  0  0  0  0  0  0  0  0  0  0  0
    2.1800   -1.5350    2.6660 C   0  0  0  0  0  0  0  0  0  0  0  0
    2.4840   -2.3220    3.7860 C   0  0  0  0  0  0  0  0  0  0  0  0
    3.7550   -2.8040    3.9890 C   0  0  0  0  0  0  0  0  0  0  0  0
    4.7720   -2.5050    3.0630 C   0  0  0  0  0  0  0  0  0  0  0  0
    4.4590   -1.7320    1.9710 C   0  0  0  0  0  0  0  0  0  0  0  0
    3.1480   -1.2510    1.7810 C   0  0  0  0  0  0  0  0  0  0  0  0
    2.8790   -0.4730    0.6380 O   0  0  0  0  0  0  0  0  0  0  0  0
    3.9630   -0.2810   -0.2170 C   0  0  0  0  0  0  0  0  0  0  0  0
    4.4160   -1.2320   -1.1120 C   0  0  0  0  0  0  0  0  0  0  0  0
    5.5110   -1.0020   -1.9450 C   0  0  0  0  0  0  0  0  0  0  0  0
    6.1790    0.1790   -1.9070 C   0  0  0  0  0  0  0  0  0  0  0  0
    7.3650    0.4130   -2.7340 C   0  0  2  0  0  0  0  0  0  0  0  0
    7.1560   -0.0760   -4.1640 C   0  0  0  0  0  0  0  0  0  0  0  0
    8.1480   -1.1770   -4.3870 C   0  0  0  0  0  0  0  0  0  0  0  0
    8.6920   -1.4980   -3.0180 C   0  0  0  0  0  0  0  0  0  0  0  0
    8.5530   -0.2600   -2.3270 N   0  0  2  0  0  0  0  0  0  0  0  0
    8.6220   -0.4990   -0.8890 C   0  0  0  0  0  0  0  0  0  0  0  0
    9.2230    0.6960   -0.1810 C   0  0  0  0  0  0  0  0  0  0  0  0
   10.5180    0.9650   -0.6460 O   0  0  0  0  0  0  0  0  0  0  0  0
   10.9390    2.1000    0.0880 C   0  0  0  0  0  0  0  0  0  0  0  0
    5.7490    1.1660   -1.0160 C   0  0  0  0  0  0  0  0  0  0  0  0
    4.6690    0.9050   -0.2120 C   0  0  0  0  0  0  0  0  0  0  0  0
   -5.5650    0.2250    2.1930 N   0  0  2  0  0  0  0  0  0  0  0  0
   -6.4700   -0.4180    3.0890 C   0  0  0  0  0  0  0  0  0  0  0  0
   -6.0260    1.0280    1.1760 C   0  0  0  0  0  0  0  0  0  0  0  0
   -7.3220    0.8000    0.5310 C   0  0  0  0  0  0  0  0  0  0  0  0
   -8.1630   -0.2530    0.7050 C   0  0  0  0  0  0  0  0  0  0  0  0
   -9.3680   -0.4150   -0.0060 C   0  0  0  0  0  0  0  0  0  0  0  0
   -9.6900    0.5660   -0.9280 C   0  0  0  0  0  0  0  0  0  0  0  0
   -8.8530    1.6490   -1.1250 C   0  0  0  0  0  0  0  0  0  0  0  0
   -9.2870    2.5660   -2.0790 O   0  0  0  0  0  0  0  0  0  0  0  0
  -10.4880    2.4450   -2.7800 C   0  0  0  0  0  0  0  0  0  0  0  0
   -7.6860    1.7910   -0.4240 C   0  0  0  0  0  0  0  0  0  0  0  0
   -6.9080    2.8520   -0.6420 O   0  0  0  0  0  0  0  0  0  0  0  0
   -5.8620    3.1340   -1.4850 C   0  0  0  0  0  0  0  0  0  0  0  0
   -6.1470    3.0090   -2.9660 C   0  0  0  0  0  0  0  0  0  0  0  0
  1  2  1  0
  2  3  1  0
  4  3  1  6
  4  5  1  0
  4 34  1  0
  5  6  2  0
  5  7  1  0
  7  8  1  0
  8  9  1  0
  9 10  2  0
  9 11  1  0
 11 12  1  0
 12 13  2  0
 12 17  1  0
 13 14  1  0
 14 15  2  0
 15 16  1  0
 16 17  2  0
 17 18  1  0
 18 19  1  0
 19 20  2  0
 19 33  1  0
 20 21  1  0
 21 22  2  0
 23 22  1  1
 22 32  1  0
 23 24  1  0
 23 27  1  0
 24 25  1  0
 25 26  1  0
 26 27  1  0
 27 28  1  1
 28 29  1  0
 29 30  1  0
 30 31  1  0
 32 33  2  0
 34 35  1  6
 34 36  1  0
 36 37  1  0
 37 38  2  0
 37 44  1  0
 38 39  1  0
 39 40  2  0
 40 41  1  0
 41 42  1  0
 41 44  2  0
 42 43  1  0
 44 45  1  0
 45 46  1  0
 46 47  1  0
M  CHG  2  27   1  34   1
M  END
