
     RDKit          3D

 47 51  0  0  0  0  0  0  0  0999 V2000
   -7.6630   -4.4610   -2.6840 C   0  0  0  0  0  0  0  0  0  0  0  0
   -6.8210   -3.1820   -2.7100 C   0  0  0  0  0  0  0  0  0  0  0  0
   -6.7180   -2.6240   -1.3670 N   0  0  2  0  0  0  0  0  0  0  0  0
   -7.5490   -1.4830   -1.1590 C   0  0  0  0  0  0  0  0  0  0  0  0
   -8.8470   -1.8500   -0.4030 C   0  0  0  0  0  0  0  0  0  0  0  0
   -5.3760   -2.4140   -0.9280 C   0  0  0  0  0  0  0  0  0  0  0  0
   -4.4750   -1.5980   -1.7770 C   0  0  0  0  0  0  0  0  0  0  0  0
   -4.8240   -0.1640   -1.9750 C   0  0  0  0  0  0  0  0  0  0  0  0
   -4.8690    0.6530   -0.8800 O   0  0  0  0  0  0  0  0  0  0  0  0
   -3.8530    1.0350   -0.0570 C   0  0  0  0  0  0  0  0  0  0  0  0
   -2.5070    0.6880   -0.2220 C   0  0  0  0  0  0  0  0  0  0  0  0
   -1.5210    1.1000    0.6440 C   0  0  0  0  0  0  0  0  0  0  0  0
   -0.2180    0.7270    0.4370 O   0  0  0  0  0  0  0  0  0  0  0  0
    0.1910   -0.0840   -0.6510 C   0  0  0  0  0  0  0  0  0  0  0  0
    1.6490   -0.2970   -0.5510 C   0  0  0  0  0  0  0  0  0  0  0  0
    2.1780   -0.9900   -1.4060 O   0  0  0  0  0  0  0  0  0  0  0  0
    2.4570    0.2900    0.5210 C   0  0  2  0  0  0  0  0  0  0  0  0
    2.4820    1.7850    0.5620 C   0  0  0  0  0  0  0  0  0  0  0  0
    3.6790    2.1600   -0.2870 C   0  0  0  0  0  0  0  0  0  0  0  0
    4.6690    1.0810    0.0110 N   0  0  0  0  0  0  0  0  0  0  0  0
    6.0230    1.3260   -0.0380 C   0  0  0  0  0  0  0  0  0  0  0  0
    6.2760    2.6050   -0.3400 O   0  0  0  0  0  0  0  0  0  0  0  0
    7.2280    0.5730    0.1500 C   0  0  0  0  0  0  0  0  0  0  0  0
    8.4530    1.1780    0.1030 O   0  0  0  0  0  0  0  0  0  0  0  0
    9.4010    0.3640    0.2890 C   0  0  0  0  0  0  0  0  0  0  0  0
    8.8530   -0.8830    0.4800 C   0  0  0  0  0  0  0  0  0  0  0  0
    7.4610   -0.7430    0.3880 C   0  0  0  0  0  0  0  0  0  0  0  0
    6.4990   -1.8760    0.4990 C   0  0  0  0  0  0  0  0  0  0  0  0
    9.7370   -2.0080    0.7310 C   0  0  0  0  0  0  0  0  0  0  0  0
    9.2550   -3.0370    1.3010 O   0  0  0  0  0  0  0  0  0  0  0  0
   11.1550   -1.9410    0.3320 C   0  0  0  0  0  0  0  0  0  0  0  0
   11.4320   -0.6960   -0.4600 C   0  0  1  0  0  0  0  0  0  0  0  0
   12.9330   -0.5820   -0.6120 C   0  0  0  0  0  0  0  0  0  0  0  0
   10.8190   -0.7290   -1.8290 C   0  0  0  0  0  0  0  0  0  0  0  0
   10.9090    0.5160    0.3320 C   0  0  0  0  0  0  0  0  0  0  0  0
    3.9300   -0.1020    0.3490 C   0  0  0  0  0  0  0  0  0  0  0  0
   -1.8740    1.8820    1.7060 C   0  0  0  0  0  0  0  0  0  0  0  0
   -3.2110    2.2530    1.9060 C   0  0  0  0  0  0  0  0  0  0  0  0
   -4.1710    1.8340    1.0410 C   0  0  0  0  0  0  0  0  0  0  0  0
   -5.4770    2.2310    1.2940 O   0  0  0  0  0  0  0  0  0  0  0  0
   -5.8300    3.0410    2.3870 C   0  0  0  0  0  0  0  0  0  0  0  0
   -7.3090    3.2800    2.4100 C   0  0  0  0  0  0  0  0  0  0  0  0
   -7.8610    4.3700    1.8060 C   0  0  0  0  0  0  0  0  0  0  0  0
   -9.2200    4.5730    1.8430 C   0  0  0  0  0  0  0  0  0  0  0  0
  -10.0710    3.6760    2.4950 C   0  0  0  0  0  0  0  0  0  0  0  0
   -9.5100    2.5910    3.0960 C   0  0  0  0  0  0  0  0  0  0  0  0
   -8.1540    2.3840    3.0620 C   0  0  0  0  0  0  0  0  0  0  0  0
  1  2  1  0
  3  2  1  6
  3  4  1  0
  3  6  1  0
  4  5  1  0
  6  7  1  0
  7  8  1  0
  8  9  1  0
  9 10  1  0
 10 11  2  0
 10 39  1  0
 11 12  1  0
 12 13  1  0
 12 37  2  0
 13 14  1  0
 14 15  1  0
 15 16  2  0
 17 15  1  6
 17 18  1  0
 17 36  1  0
 18 19  1  0
 19 20  1  0
 20 21  1  0
 20 36  1  0
 21 22  2  0
 21 23  1  0
 23 24  1  0
 23 27  2  0
 24 25  1  0
 25 26  2  0
 25 35  1  0
 26 27  1  0
 26 29  1  0
 27 28  1  0
 29 30  2  0
 29 31  1  0
 31 32  1  0
 32 33  1  6
 32 34  1  0
 32 35  1  0
 37 38  1  0
 38 39  2  0
 39 40  1  0
 40 41  1  0
 41 42  1  0
 42 43  2  0
 42 47  1  0
 43 44  1  0
 44 45  2  0
 45 46  1  0
 46 47  2  0
M  CHG  1   3   1
M  END
