
     RDKit          3D

 47 51  0  0  0  0  0  0  0  0999 V2000
    8.7420   -3.1640   -1.1000 C   0  0  0  0  0  0  0  0  0  0  0  0
    8.2390   -2.5720   -2.4240 C   0  0  0  0  0  0  0  0  0  0  0  0
    7.8790   -1.1400   -2.1220 C   0  0  1  0  0  0  0  0  0  0  0  0
    7.3580   -0.3930   -3.3170 C   0  0  0  0  0  0  0  0  0  0  0  0
    6.9940   -1.0960   -1.0340 O   0  0  0  0  0  0  0  0  0  0  0  0
    7.3040   -0.4730    0.1660 C   0  0  0  0  0  0  0  0  0  0  0  0
    8.4270    0.0760    0.2630 O   0  0  0  0  0  0  0  0  0  0  0  0
    6.3200   -0.4640    1.3110 C   0  0  1  0  0  0  0  0  0  0  0  0
    6.8780    0.3280    2.4640 C   0  0  0  0  0  0  0  0  0  0  0  0
    6.7080    1.7990    2.0980 C   0  0  0  0  0  0  0  0  0  0  0  0
    5.2560    2.1690    2.1230 C   0  0  0  0  0  0  0  0  0  0  0  0
    4.4920    1.3550    1.1270 C   0  0  2  0  0  0  0  0  0  0  0  0
    3.0970    1.3650    1.4500 O   0  0  0  0  0  0  0  0  0  0  0  0
    2.1680    2.0120    0.7040 C   0  0  0  0  0  0  0  0  0  0  0  0
    2.5410    2.6290   -0.3130 O   0  0  0  0  0  0  0  0  0  0  0  0
    0.7080    2.0390    1.0230 C   0  0  0  0  0  0  0  0  0  0  0  0
    0.3860    1.0280    2.1100 C   0  0  2  0  0  0  0  0  0  0  0  0
    0.7310   -0.3490    1.6540 C   0  0  0  0  0  0  0  0  0  0  0  0
   -0.2050   -0.8080    0.5210 C   0  0  0  0  0  0  0  0  0  0  0  0
   -1.5880   -0.7710    1.1150 C   0  0  1  0  0  0  0  0  0  0  0  0
   -1.9430    0.5880    1.5370 C   0  0  0  0  0  0  0  0  0  0  0  0
   -3.0340    0.9510    0.9270 C   0  0  0  0  0  0  0  0  0  0  0  0
   -3.7150    2.2240    1.0680 C   0  0  0  0  0  0  0  0  0  0  0  0
   -3.2600    3.1010    1.8330 O   0  0  0  0  0  0  0  0  0  0  0  0
   -4.9460    2.5230    0.3290 C   0  0  0  0  0  0  0  0  0  0  0  0
   -5.4320    1.6670   -0.4480 O   0  0  0  0  0  0  0  0  0  0  0  0
   -5.5550    3.7830    0.5160 N   0  0  0  0  0  0  0  0  0  0  0  0
   -6.7620    4.1140   -0.1900 C   0  0  0  0  0  0  0  0  0  0  0  0
   -6.5790    4.0820   -1.6810 C   0  0  0  0  0  0  0  0  0  0  0  0
   -7.7290    4.3980   -2.3580 O   0  0  0  0  0  0  0  0  0  0  0  0
   -8.2350    5.6550   -2.1010 C   0  0  0  0  0  0  0  0  0  0  0  0
   -3.4950   -0.1320    0.0530 C   0  0  0  0  0  0  0  0  0  0  0  0
   -2.6290   -1.2710    0.2560 N   0  0  0  0  0  0  0  0  0  0  0  0
   -2.7450   -2.5880   -0.2450 C   0  0  0  0  0  0  0  0  0  0  0  0
   -1.8570   -3.4410    0.0530 O   0  0  0  0  0  0  0  0  0  0  0  0
   -3.8220   -3.0570   -1.0910 C   0  0  0  0  0  0  0  0  0  0  0  0
   -3.7550   -2.9670   -2.4620 C   0  0  0  0  0  0  0  0  0  0  0  0
   -4.8340   -3.4380   -3.1910 C   0  0  0  0  0  0  0  0  0  0  0  0
   -5.9410   -3.9770   -2.5760 C   0  0  0  0  0  0  0  0  0  0  0  0
   -6.0040   -4.0650   -1.1950 C   0  0  0  0  0  0  0  0  0  0  0  0
   -7.1220   -4.6110   -0.5930 C   0  0  0  0  0  0  0  0  0  0  0  0
   -7.1710   -4.6940    0.7800 C   0  0  0  0  0  0  0  0  0  0  0  0
   -6.0920   -4.2270    1.5430 C   0  0  0  0  0  0  0  0  0  0  0  0
   -4.9920   -3.6880    0.9280 C   0  0  0  0  0  0  0  0  0  0  0  0
   -4.9400   -3.6030   -0.4450 C   0  0  0  0  0  0  0  0  0  0  0  0
   -1.0310    1.2280    2.5360 C   0  0  0  0  0  0  0  0  0  0  0  0
    4.9970    0.0140    0.8500 C   0  0  0  0  0  0  0  0  0  0  0  0
  1  2  1  0
  2  3  1  0
  3  4  1  6
  3  5  1  0
  5  6  1  0
  6  7  2  0
  8  6  1  6
  8  9  1  0
  8 47  1  0
  9 10  1  0
 10 11  1  0
 11 12  1  0
 12 13  1  1
 12 47  1  0
 13 14  1  0
 14 15  2  0
 14 16  1  0
 17 16  1  6
 17 18  1  0
 17 46  1  0
 18 19  1  0
 20 19  1  6
 20 21  1  0
 20 33  1  0
 21 22  2  0
 21 46  1  0
 22 23  1  0
 22 32  1  0
 23 24  2  0
 23 25  1  0
 25 26  2  0
 25 27  1  0
 27 28  1  0
 28 29  1  0
 29 30  1  0
 30 31  1  0
 32 33  1  0
 33 34  1  0
 34 35  2  0
 34 36  1  0
 36 37  2  0
 36 45  1  0
 37 38  1  0
 38 39  2  0
 39 40  1  0
 40 41  2  0
 40 45  1  0
 41 42  1  0
 42 43  2  0
 43 44  1  0
 44 45  2  0
M  END
