
     RDKit          3D

 35 37  0  0  0  0  0  0  0  0999 V2000
    9.9190    1.4180   -2.1500 N   0  0  0  0  0  0  0  0  0  0  0  0
    8.7900    0.7550   -1.5870 C   0  0  0  0  0  0  0  0  0  0  0  0
    8.7930    0.4180   -0.2450 C   0  0  0  0  0  0  0  0  0  0  0  0
    7.7110   -0.2190    0.3080 C   0  0  0  0  0  0  0  0  0  0  0  0
    6.6050   -0.5350   -0.4550 C   0  0  0  0  0  0  0  0  0  0  0  0
    5.5380   -1.1740    0.1380 O   0  0  0  0  0  0  0  0  0  0  0  0
    4.2760   -0.6040    0.2330 C   0  0  0  0  0  0  0  0  0  0  0  0
    3.2740   -1.3440    0.8220 C   0  0  0  0  0  0  0  0  0  0  0  0
    2.0090   -0.8190    0.9370 C   0  0  0  0  0  0  0  0  0  0  0  0
    0.9470   -1.6360    1.5730 C   0  0  0  0  0  0  0  0  0  0  0  0
   -0.1250   -0.7810    1.9410 O   0  0  0  0  0  0  0  0  0  0  0  0
    0.1480    0.2280    2.8330 C   0  0  0  0  0  0  0  0  0  0  0  0
    1.3300    0.3550    3.2850 O   0  0  0  0  0  0  0  0  0  0  0  0
   -1.0790    1.3710    3.3850 S   0  0  0  0  0  0  0  0  0  0  0  0
   -2.7560    1.0210    2.8410 C   0  0  2  0  0  0  0  0  0  0  0  0
   -3.4090   -0.1420    3.4860 C   0  0  0  0  0  0  0  0  0  0  0  0
   -2.8080   -1.4200    3.3270 N   0  0  0  0  0  0  0  0  0  0  0  0
   -2.8100    0.9590    1.3020 C   0  0  0  0  0  0  0  0  0  0  0  0
   -4.2110    0.6720    0.8870 C   0  0  1  0  0  0  0  0  0  0  0  0
   -4.9880    1.7440    1.4110 O   0  0  0  0  0  0  0  0  0  0  0  0
   -4.4220    0.7600   -0.6100 C   0  0  2  0  0  0  0  0  0  0  0  0
   -3.9680    1.9370   -1.1670 O   0  0  0  0  0  0  0  0  0  0  0  0
   -5.9710    0.8720   -0.7560 C   0  0  0  0  0  0  0  0  0  0  0  0
   -6.2390    0.4020   -2.1700 C   0  0  0  0  0  0  0  0  0  0  0  0
   -4.9400   -0.2010   -2.6670 C   0  0  0  0  0  0  0  0  0  0  0  0
   -4.2070   -0.4750   -1.3760 C   0  0  1  0  0  0  0  0  0  0  0  0
   -2.8450   -1.0000   -1.5440 C   0  0  0  0  0  0  0  0  0  0  0  0
   -1.8750   -0.0890   -2.2230 C   0  0  0  0  0  0  0  0  0  0  0  0
   -0.6440   -0.7670   -2.2870 O   0  0  0  0  0  0  0  0  0  0  0  0
    1.7130    0.4470    0.4720 C   0  0  0  0  0  0  0  0  0  0  0  0
    2.7340    1.1610   -0.1100 C   0  0  0  0  0  0  0  0  0  0  0  0
    3.9610    0.6260   -0.2110 N   0  0  0  0  0  0  0  0  0  0  0  0
    6.5770   -0.2130   -1.7840 C   0  0  0  0  0  0  0  0  0  0  0  0
    5.4910   -0.5240   -2.5550 O   0  0  0  0  0  0  0  0  0  0  0  0
    7.6890    0.4370   -2.3350 C   0  0  0  0  0  0  0  0  0  0  0  0
  1  2  1  0
  2  3  2  0
  2 35  1  0
  3  4  1  0
  4  5  2  0
  5  6  1  0
  5 33  1  0
  6  7  1  0
  7  8  2  0
  7 32  1  0
  8  9  1  0
  9 10  1  0
  9 30  2  0
 10 11  1  0
 11 12  1  0
 12 13  2  0
 12 14  1  0
 14 15  1  0
 15 16  1  1
 15 18  1  0
 16 17  1  0
 18 19  1  0
 19 20  1  1
 19 21  1  0
 21 22  1  6
 21 23  1  0
 21 26  1  0
 23 24  1  0
 24 25  1  0
 25 26  1  0
 26 27  1  6
 27 28  1  0
 28 29  1  0
 30 31  1  0
 31 32  2  0
 33 34  1  0
 33 35  2  0
M  CHG  1  17   1
M  END
