
     RDKit          3D

 34 37  0  0  0  0  0  0  0  0999 V2000
   -2.8310   -3.4310   -0.1240 C   0  0  0  0  0  0  0  0  0  0  0  0
   -1.7730   -2.8650    0.7770 C   0  0  0  0  0  0  0  0  0  0  0  0
   -1.2550   -1.6340    0.5030 O   0  0  0  0  0  0  0  0  0  0  0  0
   -1.9090   -0.4530    0.3210 C   0  0  0  0  0  0  0  0  0  0  0  0
   -3.2610   -0.2560    0.3320 C   0  0  0  0  0  0  0  0  0  0  0  0
   -3.8700    0.9710    0.1340 C   0  0  0  0  0  0  0  0  0  0  0  0
   -5.3390    1.0840   -0.0250 C   0  0  2  0  0  0  0  0  0  0  0  0
   -6.0450    1.8280    1.0440 C   0  0  0  0  0  0  0  0  0  0  0  0
   -5.9520   -0.3110   -0.1640 C   0  0  0  0  0  0  0  0  0  0  0  0
   -5.5320    1.7370   -1.3960 C   0  0  0  0  0  0  0  0  0  0  0  0
   -3.0260    2.0290   -0.0730 C   0  0  0  0  0  0  0  0  0  0  0  0
   -1.6540    1.8810   -0.0930 C   0  0  0  0  0  0  0  0  0  0  0  0
   -1.0780    0.6660    0.0980 C   0  0  0  0  0  0  0  0  0  0  0  0
    0.3650    0.4600    0.0150 C   0  0  0  0  0  0  0  0  0  0  0  0
    1.0790    1.0690   -0.9030 N   0  0  0  0  0  0  0  0  0  0  0  0
    2.4990    0.6520   -0.7290 C   0  0  1  0  0  0  0  0  0  0  0  0
    3.1030    0.6010   -2.0900 C   0  0  0  0  0  0  0  0  0  0  0  0
    3.0550    1.7200    0.1180 C   0  0  0  0  0  0  0  0  0  0  0  0
    3.5300    1.5890    1.4000 C   0  0  0  0  0  0  0  0  0  0  0  0
    4.0070    2.6730    2.0940 C   0  0  0  0  0  0  0  0  0  0  0  0
    4.0110    3.9000    1.5130 C   0  0  0  0  0  0  0  0  0  0  0  0
    4.6080    5.3380    2.3540 Cl  0  0  0  0  0  0  0  0  0  0  0  0
    3.5350    4.0590    0.2190 C   0  0  0  0  0  0  0  0  0  0  0  0
    3.0690    2.9740   -0.4520 C   0  0  0  0  0  0  0  0  0  0  0  0
    2.2860   -0.6740   -0.1130 C   0  0  1  0  0  0  0  0  0  0  0  0
    1.5540   -1.5150   -1.1990 C   0  0  0  0  0  0  0  0  0  0  0  0
    3.3810   -1.4840    0.3200 C   0  0  0  0  0  0  0  0  0  0  0  0
    3.1080   -2.6520    1.0040 C   0  0  0  0  0  0  0  0  0  0  0  0
    4.0870   -3.5120    1.4220 C   0  0  0  0  0  0  0  0  0  0  0  0
    5.4080   -3.2410    1.1710 C   0  0  0  0  0  0  0  0  0  0  0  0
    6.6990   -4.3240    1.6840 Cl  0  0  0  0  0  0  0  0  0  0  0  0
    5.7080   -2.0860    0.4930 C   0  0  0  0  0  0  0  0  0  0  0  0
    4.7270   -1.2130    0.0680 C   0  0  0  0  0  0  0  0  0  0  0  0
    1.2170   -0.3590    0.8160 N   0  0  0  0  0  0  0  0  0  0  0  0
  1  2  1  0
  2  3  1  0
  3  4  1  0
  4  5  2  0
  4 13  1  0
  5  6  1  0
  6  7  1  0
  6 11  2  0
  7  8  1  1
  7  9  1  0
  7 10  1  0
 11 12  1  0
 12 13  2  0
 13 14  1  0
 14 15  2  0
 14 34  1  0
 15 16  1  0
 16 17  1  6
 16 18  1  0
 16 25  1  0
 18 19  2  0
 18 24  1  0
 19 20  1  0
 20 21  2  0
 21 22  1  0
 21 23  1  0
 23 24  2  0
 25 26  1  6
 25 27  1  0
 25 34  1  0
 27 28  2  0
 27 33  1  0
 28 29  1  0
 29 30  2  0
 30 31  1  0
 30 32  1  0
 32 33  2  0
M  END
