
     RDKit          3D

 34 38  0  0  0  0  0  0  0  0999 V2000
   -7.3300    1.5220    2.1790 C   0  0  0  0  0  0  0  0  0  0  0  0
   -6.6870    0.9580    1.1660 C   0  0  0  0  0  0  0  0  0  0  0  0
   -5.2860    1.3060    0.8810 C   0  0  0  0  0  0  0  0  0  0  0  0
   -4.5960    0.7860   -0.1040 C   0  0  0  0  0  0  0  0  0  0  0  0
   -5.2080   -0.1960   -0.9900 C   0  0  0  0  0  0  0  0  0  0  0  0
   -6.4600   -0.5670   -0.8100 C   0  0  0  0  0  0  0  0  0  0  0  0
   -7.1230   -1.5630   -1.6930 C   0  0  0  0  0  0  0  0  0  0  0  0
   -7.5150   -2.6380   -0.8900 O   0  0  0  0  0  0  0  0  0  0  0  0
   -7.2960   -0.0160    0.2850 C   0  0  0  0  0  0  0  0  0  0  0  0
   -8.5120   -0.4170    0.4130 N   0  0  0  0  0  0  0  0  0  0  0  0
   -4.4430   -0.8270   -2.1120 C   0  0  0  0  0  0  0  0  0  0  0  0
   -2.9890   -0.5160   -2.1000 C   0  0  0  0  0  0  0  0  0  0  0  0
   -2.7330    0.9000   -1.7290 C   0  0  2  0  0  0  0  0  0  0  0  0
   -1.2190    1.0750   -1.5200 C   0  0  0  0  0  0  0  0  0  0  0  0
   -0.9870    1.0580   -0.1080 N   0  0  2  0  0  0  0  0  0  0  0  0
    0.2370    0.4470    0.2530 C   0  0  2  0  0  0  0  0  0  0  0  0
    0.2570   -0.3220    1.5270 C   0  0  0  0  0  0  0  0  0  0  0  0
    1.5100   -1.1620    1.5460 C   0  0  0  0  0  0  0  0  0  0  0  0
    2.6690   -0.5420    0.9940 N   0  0  0  0  0  0  0  0  0  0  0  0
    3.9530   -1.0740    1.3140 C   0  0  0  0  0  0  0  0  0  0  0  0
    4.0180   -2.0670    2.0630 O   0  0  0  0  0  0  0  0  0  0  0  0
    5.2110   -0.5030    0.7990 C   0  0  0  0  0  0  0  0  0  0  0  0
    6.4210   -1.2860    1.2220 C   0  0  0  0  0  0  0  0  0  0  0  0
    7.6260   -0.6580    0.6740 N   0  0  0  0  0  0  0  0  0  0  0  0
    8.1100   -0.9880   -0.5230 C   0  0  0  0  0  0  0  0  0  0  0  0
    9.2410   -0.3810   -1.0140 C   0  0  0  0  0  0  0  0  0  0  0  0
    9.9220    0.5900   -0.2960 C   0  0  0  0  0  0  0  0  0  0  0  0
    9.3850    0.9040    0.9440 C   0  0  0  0  0  0  0  0  0  0  0  0
    8.2530    0.2730    1.3970 C   0  0  0  0  0  0  0  0  0  0  0  0
    7.8090    0.6010    2.5400 O   0  0  0  0  0  0  0  0  0  0  0  0
    2.6510    0.5960    0.1210 C   0  0  0  0  0  0  0  0  0  0  0  0
    1.3980    1.4170    0.3080 C   0  0  0  0  0  0  0  0  0  0  0  0
   -2.1770    0.5040    0.5080 C   0  0  0  0  0  0  0  0  0  0  0  0
   -3.2240    1.2070   -0.3260 C   0  0  2  0  0  0  0  0  0  0  0  0
  1  2  2  0
  2  3  1  0
  2  9  1  0
  3  4  2  0
  4  5  1  0
  4 34  1  0
  5  6  2  0
  5 11  1  0
  6  7  1  0
  6  9  1  0
  7  8  1  0
  9 10  2  0
 11 12  1  0
 13 12  1  1
 13 14  1  0
 13 34  1  0
 15 14  1  6
 15 16  1  0
 15 33  1  0
 16 17  1  1
 16 32  1  0
 17 18  1  0
 18 19  1  0
 19 20  1  0
 19 31  1  0
 20 21  2  0
 20 22  1  0
 22 23  1  0
 23 24  1  0
 24 25  1  0
 24 29  1  0
 25 26  2  0
 26 27  1  0
 27 28  2  0
 28 29  1  0
 29 30  2  0
 31 32  1  0
 34 33  1  1
M  CHG  1  15   1
M  END
