
     RDKit          3D

 34 38  0  0  0  0  0  0  0  0999 V2000
   -3.9760    5.4860   -0.5870 C   0  0  0  0  0  0  0  0  0  0  0  0
   -3.6520    4.0970   -0.8480 N   0  0  0  0  0  0  0  0  0  0  0  0
   -2.4540    3.4890   -0.8720 C   0  0  0  0  0  0  0  0  0  0  0  0
   -2.6080    2.1270   -1.1690 C   0  0  0  0  0  0  0  0  0  0  0  0
   -1.5040    1.1470   -1.2880 C   0  0  0  0  0  0  0  0  0  0  0  0
   -1.0840    0.7350    0.0420 N   0  0  1  0  0  0  0  0  0  0  0  0
   -1.4340    1.6850    1.0450 C   0  0  0  0  0  0  0  0  0  0  0  0
   -1.5080   -0.5880    0.4240 C   0  0  2  0  0  0  0  0  0  0  0  0
   -0.4320   -1.6040    0.4750 C   0  0  0  0  0  0  0  0  0  0  0  0
    0.6740   -1.4240    1.4430 C   0  0  0  0  0  0  0  0  0  0  0  0
    1.5870   -0.3100    1.5020 C   0  0  1  0  0  0  0  0  0  0  0  0
    2.5260   -0.6320    2.7570 C   0  0  0  0  0  0  0  0  0  0  0  0
    3.2030    0.6360    3.1590 C   0  0  0  0  0  0  0  0  0  0  0  0
    3.4590    1.4630    2.0020 O   0  0  0  0  0  0  0  0  0  0  0  0
    3.5920    0.8540    0.7460 C   0  0  0  0  0  0  0  0  0  0  0  0
    2.6010   -0.1110    0.4450 C   0  0  0  0  0  0  0  0  0  0  0  0
    2.7030   -0.7190   -0.7540 C   0  0  0  0  0  0  0  0  0  0  0  0
    3.7410   -0.3910   -1.6320 C   0  0  0  0  0  0  0  0  0  0  0  0
    4.6980    0.5400   -1.3460 C   0  0  0  0  0  0  0  0  0  0  0  0
    4.6030    1.1670   -0.1200 C   0  0  0  0  0  0  0  0  0  0  0  0
    5.4730    2.1450    0.3690 O   0  0  0  0  0  0  0  0  0  0  0  0
    6.7960    2.4770   -0.0090 C   0  0  0  0  0  0  0  0  0  0  0  0
    7.4280    1.3850   -0.8430 C   0  0  0  0  0  0  0  0  0  0  0  0
    6.9060    1.3270   -2.2410 C   0  0  0  0  0  0  0  0  0  0  0  0
    5.6380    0.7170   -2.3500 O   0  0  0  0  0  0  0  0  0  0  0  0
   -2.8770   -0.9250    0.0360 C   0  0  0  0  0  0  0  0  0  0  0  0
   -3.4440   -2.2910    0.3230 C   0  0  1  0  0  0  0  0  0  0  0  0
   -4.9420   -2.2730   -0.0790 C   0  0  0  0  0  0  0  0  0  0  0  0
   -5.1900   -3.6410   -0.6620 C   0  0  0  0  0  0  0  0  0  0  0  0
   -3.9330   -3.7860   -1.5080 C   0  0  0  0  0  0  0  0  0  0  0  0
   -2.8620   -3.4090   -0.4770 C   0  0  2  0  0  0  0  0  0  0  0  0
   -2.7020   -4.5790    0.3980 N   0  0  0  0  0  0  0  0  0  0  0  0
   -3.9700    1.9850   -1.3150 C   0  0  0  0  0  0  0  0  0  0  0  0
   -4.5760    3.1660   -1.1210 N   0  0  0  0  0  0  0  0  0  0  0  0
  1  2  1  0
  2  3  1  0
  2 34  1  0
  3  4  2  0
  4  5  1  0
  4 33  1  0
  5  6  1  0
  6  7  1  1
  6  8  1  0
  8  9  1  6
  8 26  1  0
  9 10  1  0
 11 10  1  6
 11 12  1  0
 11 16  1  0
 12 13  1  0
 13 14  1  0
 14 15  1  0
 15 16  2  0
 15 20  1  0
 16 17  1  0
 17 18  2  0
 18 19  1  0
 19 20  2  0
 19 25  1  0
 20 21  1  0
 21 22  1  0
 22 23  1  0
 23 24  1  0
 24 25  1  0
 27 26  1  6
 27 28  1  0
 27 31  1  0
 28 29  1  0
 29 30  1  0
 30 31  1  0
 31 32  1  1
 33 34  2  0
M  CHG  2   6   1  32   1
M  END
