
     RDKit          3D

 35 37  0  0  0  0  0  0  0  0999 V2000
    0.2650    1.9750    2.4250 C   0  0  0  0  0  0  0  0  0  0  0  0
    0.1600    1.5750    0.8840 C   0  0  2  0  0  0  0  0  0  0  0  0
    1.3440    0.7270    0.7860 N   0  0  0  0  0  0  0  0  0  0  0  0
    1.5520   -0.5140    1.3970 C   0  0  0  0  0  0  0  0  0  0  0  0
    0.6350   -0.9700    2.1130 O   0  0  0  0  0  0  0  0  0  0  0  0
    2.8080   -1.2560    1.2030 C   0  0  1  0  0  0  0  0  0  0  0  0
    2.8760   -2.4440    1.8630 O   0  0  0  0  0  0  0  0  0  0  0  0
    4.1620   -2.9760    1.8220 C   0  0  0  0  0  0  0  0  0  0  0  0
    5.1560   -2.1700    1.0360 C   0  0  0  0  0  0  0  0  0  0  0  0
    4.6340   -1.6580   -0.2920 C   0  0  1  0  0  0  0  0  0  0  0  0
    5.2390   -2.3730   -1.4240 C   0  0  0  0  0  0  0  0  0  0  0  0
    4.8410   -1.9920   -2.7420 N   0  0  0  0  0  0  0  0  0  0  0  0
    3.1200   -1.5770   -0.2700 C   0  0  2  0  0  0  0  0  0  0  0  0
    2.6100   -0.5860   -1.0480 O   0  0  0  0  0  0  0  0  0  0  0  0
    0.4470    3.0740   -0.0200 S   0  0  0  0  0  0  0  0  0  0  0  0
   -0.6460    4.4180    0.2810 C   0  0  0  0  0  0  0  0  0  0  0  0
   -1.7240    4.3720    1.1420 C   0  0  0  0  0  0  0  0  0  0  0  0
   -2.4910    5.4890    1.3200 C   0  0  0  0  0  0  0  0  0  0  0  0
   -2.1950    6.6440    0.6530 C   0  0  0  0  0  0  0  0  0  0  0  0
   -1.1140    6.7410   -0.2300 C   0  0  0  0  0  0  0  0  0  0  0  0
   -0.8210    7.9240   -0.9000 O   0  0  0  0  0  0  0  0  0  0  0  0
   -0.3550    5.6030   -0.3940 C   0  0  0  0  0  0  0  0  0  0  0  0
   -1.1060    0.9030    0.7780 C   0  0  0  0  0  0  0  0  0  0  0  0
   -1.8910    0.8140    1.8030 O   0  0  0  0  0  0  0  0  0  0  0  0
   -1.6840    0.2540   -0.3760 N   0  0  0  0  0  0  0  0  0  0  0  0
   -3.0150   -0.2510   -0.3050 C   0  0  0  0  0  0  0  0  0  0  0  0
   -3.9930    0.6250    0.2520 C   0  0  0  0  0  0  0  0  0  0  0  0
   -5.3120    0.3100    0.2080 C   0  0  0  0  0  0  0  0  0  0  0  0
   -5.7800   -0.8410   -0.3620 C   0  0  0  0  0  0  0  0  0  0  0  0
   -4.8390   -1.7100   -0.9160 C   0  0  0  0  0  0  0  0  0  0  0  0
   -3.4740   -1.3950   -0.8700 C   0  0  0  0  0  0  0  0  0  0  0  0
   -2.5600   -2.2870   -1.4160 O   0  0  0  0  0  0  0  0  0  0  0  0
   -2.9990   -3.5270   -1.9420 C   0  0  0  0  0  0  0  0  0  0  0  0
   -3.5680   -4.4150   -0.8300 C   0  0  0  0  0  0  0  0  0  0  0  0
   -4.0200   -5.6440   -1.3260 O   0  0  0  0  0  0  0  0  0  0  0  0
  2  1  1  1
  2  3  1  0
  2 15  1  0
  2 23  1  0
  3  4  1  0
  4  5  2  0
  6  4  1  6
  6  7  1  0
  6 13  1  0
  7  8  1  0
  8  9  1  0
  9 10  1  0
 10 11  1  6
 10 13  1  0
 11 12  1  0
 13 14  1  6
 15 16  1  0
 16 17  2  0
 16 22  1  0
 17 18  1  0
 18 19  2  0
 19 20  1  0
 20 21  1  0
 20 22  2  0
 23 24  2  0
 23 25  1  0
 25 26  1  0
 26 27  2  0
 26 31  1  0
 27 28  1  0
 28 29  2  0
 29 30  1  0
 30 31  2  0
 31 32  1  0
 32 33  1  0
 33 34  1  0
 34 35  1  0
M  CHG  1  12   1
M  END
