
     RDKit          3D

 35 37  0  0  0  0  0  0  0  0999 V2000
   -1.2530   -0.9930   -1.4360 C   0  0  0  0  0  0  0  0  0  0  0  0
   -2.2340   -0.6100   -0.3180 C   0  0  0  0  0  0  0  0  0  0  0  0
   -3.4770   -1.0880   -0.3440 C   0  0  0  0  0  0  0  0  0  0  0  0
   -4.3510   -0.7270    0.6790 C   0  0  0  0  0  0  0  0  0  0  0  0
   -5.7430   -1.0500    0.9710 C   0  0  2  0  0  0  0  0  0  0  0  0
   -5.9900   -2.4330    0.8030 O   0  0  0  0  0  0  0  0  0  0  0  0
   -6.7520   -0.2830    0.1730 C   0  0  2  0  0  0  0  0  0  0  0  0
   -6.6480   -0.4700   -1.3000 C   0  0  0  0  0  0  0  0  0  0  0  0
   -7.6080    0.6170   -1.8070 C   0  0  0  0  0  0  0  0  0  0  0  0
   -7.4700    1.7420   -0.8080 C   0  0  0  0  0  0  0  0  0  0  0  0
   -6.6090    1.2080    0.3300 C   0  0  0  0  0  0  0  0  0  0  0  0
   -3.2530    0.3510    1.6820 S   0  0  0  0  0  0  0  0  0  0  0  0
   -1.7980    0.2060    0.6600 C   0  0  0  0  0  0  0  0  0  0  0  0
   -0.5350    0.8620    0.9390 C   0  0  1  0  0  0  0  0  0  0  0  0
   -0.7000    1.6820    2.2190 C   0  0  0  0  0  0  0  0  0  0  0  0
   -1.0540    0.7400    3.2120 O   0  0  0  0  0  0  0  0  0  0  0  0
    0.5370   -0.0950    1.2630 N   0  0  0  0  0  0  0  0  0  0  0  0
    1.8120   -0.0060    0.6990 C   0  0  0  0  0  0  0  0  0  0  0  0
    2.0040    0.9450   -0.1220 O   0  0  0  0  0  0  0  0  0  0  0  0
    2.9090   -0.9500    1.0130 C   0  0  1  0  0  0  0  0  0  0  0  0
    3.2560   -0.8870    2.4470 C   0  0  0  0  0  0  0  0  0  0  0  0
    2.2750   -1.1720    3.4160 N   0  0  0  0  0  0  0  0  0  0  0  0
    2.4820   -2.3350    0.5420 C   0  0  0  0  0  0  0  0  0  0  0  0
    2.2650   -2.1750   -0.9700 C   0  0  0  0  0  0  0  0  0  0  0  0
    3.4690   -1.7680   -1.5780 O   0  0  0  0  0  0  0  0  0  0  0  0
    4.0480   -0.6520    0.1880 O   0  0  0  0  0  0  0  0  0  0  0  0
    4.7290    0.5300    0.1620 C   0  0  0  0  0  0  0  0  0  0  0  0
    4.3370    1.4530    0.9230 O   0  0  0  0  0  0  0  0  0  0  0  0
    5.8840    0.7710   -0.7040 C   0  0  0  0  0  0  0  0  0  0  0  0
    6.5710    1.9620   -0.7280 C   0  0  0  0  0  0  0  0  0  0  0  0
    7.6080    1.8600   -1.6550 C   0  0  0  0  0  0  0  0  0  0  0  0
    7.4720    0.5590   -2.1490 C   0  0  0  0  0  0  0  0  0  0  0  0
    8.4050    0.0340   -3.1860 C   0  0  0  0  0  0  0  0  0  0  0  0
    7.9350    0.2940   -4.4710 O   0  0  0  0  0  0  0  0  0  0  0  0
    6.4580   -0.0300   -1.5660 O   0  0  0  0  0  0  0  0  0  0  0  0
  1  2  1  0
  2  3  1  0
  2 13  2  0
  3  4  2  0
  4  5  1  0
  4 12  1  0
  5  6  1  6
  5  7  1  0
  7  8  1  6
  7 11  1  0
  8  9  1  0
  9 10  1  0
 10 11  1  0
 12 13  1  0
 13 14  1  0
 14 15  1  1
 14 17  1  0
 15 16  1  0
 17 18  1  0
 18 19  2  0
 18 20  1  0
 20 21  1  1
 20 23  1  0
 20 26  1  0
 21 22  1  0
 23 24  1  0
 24 25  1  0
 26 27  1  0
 27 28  2  0
 27 29  1  0
 29 30  2  0
 29 35  1  0
 30 31  1  0
 31 32  2  0
 32 33  1  0
 32 35  1  0
 33 34  1  0
M  CHG  1  22   1
M  END
