
     RDKit          3D

 34 38  0  0  0  0  0  0  0  0999 V2000
    8.6210   -0.5530   -1.9080 C   0  0  0  0  0  0  0  0  0  0  0  0
    8.2590    0.3820   -0.8750 N   0  0  0  0  0  0  0  0  0  0  0  0
    6.9210    0.3140   -0.4520 C   0  0  0  0  0  0  0  0  0  0  0  0
    5.9930    1.2190   -0.8970 C   0  0  0  0  0  0  0  0  0  0  0  0
    4.6610    1.1350   -0.4490 C   0  0  0  0  0  0  0  0  0  0  0  0
    4.2040    0.1850    0.4100 C   0  0  0  0  0  0  0  0  0  0  0  0
    2.8890    0.1750    1.0650 C   0  0  0  0  0  0  0  0  0  0  0  0
    1.8160   -0.1110    0.1860 N   0  0  0  0  0  0  0  0  0  0  0  0
    1.9850    0.0410   -1.1600 C   0  0  0  0  0  0  0  0  0  0  0  0
    0.5990    0.2940   -1.8030 C   0  0  0  0  0  0  0  0  0  0  0  0
    0.1320    1.4870   -1.2910 O   0  0  0  0  0  0  0  0  0  0  0  0
    0.1450    1.6280    0.1010 C   0  0  1  0  0  0  0  0  0  0  0  0
   -1.2460    2.0970    0.3850 C   0  0  0  0  0  0  0  0  0  0  0  0
   -1.4550    3.2520    0.8810 O   0  0  0  0  0  0  0  0  0  0  0  0
   -2.3800    1.3120    0.1220 O   0  0  0  0  0  0  0  0  0  0  0  0
   -3.6830    1.5430    0.1150 C   0  0  2  0  0  0  0  0  0  0  0  0
   -4.2030    2.4020    1.3910 C   0  0  0  0  0  0  0  0  0  0  0  0
   -5.2690    3.2140    0.8320 N   0  0  0  0  0  0  0  0  0  0  0  0
   -5.7790    2.8230   -0.4340 C   0  0  0  0  0  0  0  0  0  0  0  0
   -5.9680    1.3180   -0.6060 C   0  0  0  0  0  0  0  0  0  0  0  0
   -4.7370    0.5800   -0.0390 C   0  0  1  0  0  0  0  0  0  0  0  0
   -4.6600   -0.7390   -0.6410 C   0  0  1  0  0  0  0  0  0  0  0  0
   -3.7820   -1.6910    0.1130 C   0  0  0  0  0  0  0  0  0  0  0  0
   -4.4340   -2.1060    1.4410 C   0  0  0  0  0  0  0  0  0  0  0  0
   -5.6590   -2.9250    1.1130 C   0  0  0  0  0  0  0  0  0  0  0  0
   -6.0640   -2.7270   -0.3120 C   0  0  0  0  0  0  0  0  0  0  0  0
   -5.9910   -1.3290   -0.6970 N   0  0  0  0  0  0  0  0  0  0  0  0
    0.5130    0.3160    0.6910 C   0  0  0  0  0  0  0  0  0  0  0  0
    5.1880   -0.7110    0.8410 C   0  0  0  0  0  0  0  0  0  0  0  0
    4.8190   -1.7500    1.7490 C   0  0  0  0  0  0  0  0  0  0  0  0
    5.7560   -2.6450    2.1620 C   0  0  0  0  0  0  0  0  0  0  0  0
    7.1020   -2.5940    1.7240 C   0  0  0  0  0  0  0  0  0  0  0  0
    7.4480   -1.5830    0.8560 C   0  0  0  0  0  0  0  0  0  0  0  0
    6.5080   -0.6930    0.4590 C   0  0  0  0  0  0  0  0  0  0  0  0
  1  2  1  0
  2  3  1  0
  3  4  2  0
  3 34  1  0
  4  5  1  0
  5  6  2  0
  6  7  1  0
  6 29  1  0
  7  8  1  0
  8  9  1  0
  8 28  1  0
  9 10  1  0
 10 11  1  0
 11 12  1  0
 12 13  1  1
 12 28  1  0
 13 14  2  0
 13 15  1  0
 16 15  1  1
 16 17  1  0
 16 21  1  0
 17 18  1  0
 18 19  1  0
 19 20  1  0
 21 20  1  6
 21 22  1  0
 22 23  1  1
 22 27  1  0
 23 24  1  0
 24 25  1  0
 25 26  1  0
 26 27  1  0
 29 30  2  0
 29 34  1  0
 30 31  1  0
 31 32  2  0
 32 33  1  0
 33 34  2  0
M  CHG  3   2   1  18   1  27   1
M  END
