
     RDKit          3D

 37 40  0  0  0  0  0  0  0  0999 V2000
   13.6340    1.6590   -0.9770 C   0  0  0  0  0  0  0  0  0  0  0  0
   12.9720    0.6890   -1.7550 O   0  0  0  0  0  0  0  0  0  0  0  0
   11.6560    0.3790   -1.4470 C   0  0  0  0  0  0  0  0  0  0  0  0
   10.9540   -0.5710   -2.1830 C   0  0  0  0  0  0  0  0  0  0  0  0
    9.6450   -0.8670   -1.8600 C   0  0  0  0  0  0  0  0  0  0  0  0
    8.9990   -0.2470   -0.8200 C   0  0  0  0  0  0  0  0  0  0  0  0
    7.5980   -0.5570   -0.4650 C   0  0  0  0  0  0  0  0  0  0  0  0
    6.9900   -1.3780   -1.1710 O   0  0  0  0  0  0  0  0  0  0  0  0
    6.9690    0.0510    0.6370 N   0  0  0  0  0  0  0  0  0  0  0  0
    5.6340   -0.1810    1.0570 C   0  0  0  0  0  0  0  0  0  0  0  0
    5.2380    0.2850    2.3240 C   0  0  0  0  0  0  0  0  0  0  0  0
    3.9700    0.1130    2.8110 C   0  0  0  0  0  0  0  0  0  0  0  0
    3.0150   -0.5360    2.0600 C   0  0  0  0  0  0  0  0  0  0  0  0
    1.7230   -0.8620    2.2380 N   0  0  0  0  0  0  0  0  0  0  0  0
    1.2390   -1.5140    1.1640 C   0  0  0  0  0  0  0  0  0  0  0  0
   -0.0540   -2.0360    0.9460 N   0  0  0  0  0  0  0  0  0  0  0  0
   -1.1160   -1.2100    0.5230 N   0  0  0  0  0  0  0  0  0  0  0  0
   -2.1710   -1.0640    1.4630 C   0  0  0  0  0  0  0  0  0  0  0  0
   -2.0930   -1.6720    2.5970 O   0  0  0  0  0  0  0  0  0  0  0  0
   -3.3740   -0.2650    1.2670 C   0  0  0  0  0  0  0  0  0  0  0  0
   -3.4500    0.4060    0.0170 N   0  0  2  0  0  0  0  0  0  0  0  0
   -4.2260    1.6170    0.2120 C   0  0  0  0  0  0  0  0  0  0  0  0
   -5.0290    2.0200   -0.9770 C   0  0  0  0  0  0  0  0  0  0  0  0
   -6.3920    1.3620   -0.9980 C   0  0  0  0  0  0  0  0  0  0  0  0
   -6.4040    0.0360   -0.3170 C   0  0  1  0  0  0  0  0  0  0  0  0
   -7.7810   -0.5900   -0.5710 C   0  0  0  0  0  0  0  0  0  0  0  0
   -8.8800    0.2660   -0.0180 C   0  0  0  0  0  0  0  0  0  0  0  0
  -10.2020   -0.4030   -0.2950 C   0  0  0  0  0  0  0  0  0  0  0  0
  -11.2720    0.5170    0.2980 C   0  0  0  0  0  0  0  0  0  0  0  0
  -12.5420    0.0090    0.1080 F   0  0  0  0  0  0  0  0  0  0  0  0
   -5.3850   -0.9410   -0.7460 C   0  0  0  0  0  0  0  0  0  0  0  0
   -4.0080   -0.4550   -0.9870 C   0  0  0  0  0  0  0  0  0  0  0  0
    2.2540   -1.5940    0.3010 N   0  0  0  0  0  0  0  0  0  0  0  0
    3.3540   -1.0110    0.8090 C   0  0  0  0  0  0  0  0  0  0  0  0
    4.6610   -0.8170    0.3430 C   0  0  0  0  0  0  0  0  0  0  0  0
    9.6830    0.6750   -0.1080 N   0  0  0  0  0  0  0  0  0  0  0  0
   10.9570    0.9770   -0.4060 C   0  0  0  0  0  0  0  0  0  0  0  0
  1  2  1  0
  2  3  1  0
  3  4  2  0
  3 37  1  0
  4  5  1  0
  5  6  2  0
  6  7  1  0
  6 36  1  0
  7  8  2  0
  7  9  1  0
  9 10  1  0
 10 11  2  0
 10 35  1  0
 11 12  1  0
 12 13  2  0
 13 14  1  0
 13 34  1  0
 14 15  2  0
 15 16  1  0
 15 33  1  0
 16 17  1  0
 17 18  1  0
 18 19  2  0
 18 20  1  0
 21 20  1  1
 21 22  1  0
 21 32  1  0
 22 23  1  0
 23 24  1  0
 24 25  1  0
 25 26  1  6
 25 31  1  0
 26 27  1  0
 27 28  1  0
 28 29  1  0
 29 30  1  0
 31 32  1  0
 33 34  1  0
 34 35  2  0
 36 37  2  0
M  CHG  1  21   1
M  END
