
     RDKit          3D

 36 39  0  0  0  0  0  0  0  0999 V2000
   11.3140    0.8200    2.9830 C   0  0  0  0  0  0  0  0  0  0  0  0
   10.2530    0.1000    2.2270 C   0  0  0  0  0  0  0  0  0  0  0  0
    9.4410    0.5750    1.2400 C   0  0  0  0  0  0  0  0  0  0  0  0
    8.5800   -0.4400    0.8000 C   0  0  0  0  0  0  0  0  0  0  0  0
    7.5860   -0.2510   -0.2300 C   0  0  0  0  0  0  0  0  0  0  0  0
    7.5780    0.8350   -0.9330 O   0  0  0  0  0  0  0  0  0  0  0  0
    6.5490   -1.1580   -0.5980 N   0  0  0  0  0  0  0  0  0  0  0  0
    5.6590   -0.9590   -1.5460 N   0  0  0  0  0  0  0  0  0  0  0  0
    4.7870   -0.6330   -2.2660 C   0  0  0  0  0  0  0  0  0  0  0  0
    3.8020    0.4330   -1.9740 C   0  0  0  0  0  0  0  0  0  0  0  0
    3.7150    1.2300   -0.8650 C   0  0  0  0  0  0  0  0  0  0  0  0
    2.6860    2.0520   -1.0450 N   0  0  0  0  0  0  0  0  0  0  0  0
    2.1100    1.8240   -2.2080 N   0  0  0  0  0  0  0  0  0  0  0  0
    0.9800    2.5890   -2.6790 C   0  0  0  0  0  0  0  0  0  0  0  0
   -0.3360    2.0880   -2.2890 C   0  0  0  0  0  0  0  0  0  0  0  0
   -1.0250    2.6520   -1.2120 C   0  0  0  0  0  0  0  0  0  0  0  0
   -2.2690    2.2080   -0.8240 C   0  0  0  0  0  0  0  0  0  0  0  0
   -2.9080    1.1730   -1.4850 C   0  0  0  0  0  0  0  0  0  0  0  0
   -4.2360    0.7130   -1.1060 C   0  0  0  0  0  0  0  0  0  0  0  0
   -4.7340   -0.2540   -1.7230 O   0  0  0  0  0  0  0  0  0  0  0  0
   -4.9780    1.2930   -0.0960 O   0  0  0  0  0  0  0  0  0  0  0  0
   -6.3190    0.7570    0.2030 C   0  0  0  0  0  0  0  0  0  0  0  0
   -6.9370    1.5530    1.2680 C   0  0  0  0  0  0  0  0  0  0  0  0
   -8.3130    1.1960    1.6690 C   0  0  0  0  0  0  0  0  0  0  0  0
   -8.5190   -0.1810    2.1760 C   0  0  0  0  0  0  0  0  0  0  0  0
   -8.4550   -1.2960    1.2240 C   0  0  0  0  0  0  0  0  0  0  0  0
   -8.5980   -1.2710   -0.0830 C   0  0  0  0  0  0  0  0  0  0  0  0
   -8.4640   -2.5600   -0.6390 N   0  0  0  0  0  0  0  0  0  0  0  0
   -8.5780   -3.4770    0.4040 N   0  0  0  0  0  0  0  0  0  0  0  0
   -8.2000   -2.7350    1.5660 C   0  0  0  0  0  0  0  0  0  0  0  0
   -2.2400    0.6070   -2.5490 C   0  0  0  0  0  0  0  0  0  0  0  0
   -0.9780    1.0590   -2.9390 C   0  0  0  0  0  0  0  0  0  0  0  0
    2.7740    0.8340   -2.8010 C   0  0  0  0  0  0  0  0  0  0  0  0
    8.9060   -1.5310    1.5550 C   0  0  0  0  0  0  0  0  0  0  0  0
    8.3080   -2.8670    1.4820 C   0  0  0  0  0  0  0  0  0  0  0  0
    9.9080   -1.1940    2.4060 N   0  0  0  0  0  0  0  0  0  0  0  0
  1  2  1  0
  2  3  2  0
  2 36  1  0
  3  4  1  0
  4  5  1  0
  4 34  2  0
  5  6  2  0
  5  7  1  0
  7  8  1  0
  8  9  2  3
  9 10  1  0
 10 11  1  0
 10 33  2  0
 11 12  2  0
 12 13  1  0
 13 14  1  0
 13 33  1  0
 14 15  1  0
 15 16  2  0
 15 32  1  0
 16 17  1  0
 17 18  2  0
 18 19  1  0
 18 31  1  0
 19 20  2  0
 19 21  1  0
 21 22  1  0
 22 23  1  0
 23 24  1  0
 24 25  1  0
 25 26  1  0
 26 27  2  0
 26 30  1  0
 27 28  1  0
 28 29  1  0
 29 30  1  0
 31 32  2  0
 34 35  1  0
 34 36  1  0
M  CHG  1  29   1
M  END
