
     RDKit          3D

 37 40  0  0  0  0  0  0  0  0999 V2000
   -9.2120    0.8140    0.6160 C   0  0  0  0  0  0  0  0  0  0  0  0
   -8.0800    0.5980   -0.3080 C   0  0  0  0  0  0  0  0  0  0  0  0
   -7.0320    1.3580   -0.2100 C   0  0  0  0  0  0  0  0  0  0  0  0
   -5.8130    1.3510   -0.9750 C   0  0  0  0  0  0  0  0  0  0  0  0
   -5.0160    0.2510   -1.5380 C   0  0  0  0  0  0  0  0  0  0  0  0
   -4.2250   -0.5520   -0.6180 C   0  0  0  0  0  0  0  0  0  0  0  0
   -2.9680   -0.0610   -0.3270 N   0  0  0  0  0  0  0  0  0  0  0  0
   -2.1210   -0.6280    0.5230 C   0  0  0  0  0  0  0  0  0  0  0  0
   -0.8220   -0.0700    0.8000 N   0  0  0  0  0  0  0  0  0  0  0  0
    0.1190   -0.6520    1.7050 C   0  0  0  0  0  0  0  0  0  0  0  0
    0.5320   -2.0080    1.2310 C   0  0  0  0  0  0  0  0  0  0  0  0
    1.1790   -1.9110   -0.1220 C   0  0  0  0  0  0  0  0  0  0  0  0
    2.3780   -1.0930   -0.1340 N   0  0  0  0  0  0  0  0  0  0  0  0
    3.4730   -1.8180    0.4780 C   0  0  0  0  0  0  0  0  0  0  0  0
    4.7850   -1.1570    0.2880 C   0  0  0  0  0  0  0  0  0  0  0  0
    5.9370   -1.7630    0.7790 C   0  0  0  0  0  0  0  0  0  0  0  0
    7.1470   -1.1380    0.5960 C   0  0  0  0  0  0  0  0  0  0  0  0
    7.2700    0.0790   -0.0630 C   0  0  0  0  0  0  0  0  0  0  0  0
    8.5280    0.7050   -0.2470 N   0  0  0  0  0  0  0  0  0  0  0  0
    8.9530    1.9160    0.4590 C   0  0  0  0  0  0  0  0  0  0  0  0
   10.4270    1.5680    0.6910 C   0  0  0  0  0  0  0  0  0  0  0  0
   10.8270    1.0220   -0.6650 C   0  0  0  0  0  0  0  0  0  0  0  0
    9.5990    0.3210   -1.1000 C   0  0  0  0  0  0  0  0  0  0  0  0
    9.5060   -0.4770   -2.0580 O   0  0  0  0  0  0  0  0  0  0  0  0
    6.1230    0.6610   -0.5400 C   0  0  0  0  0  0  0  0  0  0  0  0
    4.8730    0.0620   -0.3760 C   0  0  0  0  0  0  0  0  0  0  0  0
   -2.5200   -1.7530    1.1370 N   0  0  0  0  0  0  0  0  0  0  0  0
   -3.7130   -2.2640    0.8930 C   0  0  0  0  0  0  0  0  0  0  0  0
   -4.1020   -3.4390    1.5480 O   0  0  0  0  0  0  0  0  0  0  0  0
   -4.6320   -1.6870   -0.0040 C   0  0  0  0  0  0  0  0  0  0  0  0
   -5.9140   -2.3670   -0.2380 C   0  0  0  0  0  0  0  0  0  0  0  0
   -5.9870   -3.5460    0.5620 O   0  0  0  0  0  0  0  0  0  0  0  0
   -5.4110    2.6300   -1.0560 N   0  0  0  0  0  0  0  0  0  0  0  0
   -6.3160    3.4500   -0.3690 N   0  0  0  0  0  0  0  0  0  0  0  0
   -6.6830    4.8110   -0.6010 C   0  0  0  0  0  0  0  0  0  0  0  0
   -6.8480    2.5600    0.7090 C   0  0  1  0  0  0  0  0  0  0  0  0
   -8.0180    3.0070    1.2140 F   0  0  0  0  0  0  0  0  0  0  0  0
  1  2  1  0
  2  3  2  3
  3  4  1  0
  3 36  1  0
  4  5  1  0
  4 33  2  0
  5  6  1  0
  6  7  2  0
  6 30  1  0
  7  8  1  0
  8  9  1  0
  8 27  2  0
  9 10  1  0
 10 11  1  0
 11 12  1  0
 12 13  1  0
 13 14  1  0
 14 15  1  0
 15 16  2  0
 15 26  1  0
 16 17  1  0
 17 18  2  0
 18 19  1  0
 18 25  1  0
 19 20  1  0
 19 23  1  0
 20 21  1  0
 21 22  1  0
 22 23  1  0
 23 24  2  0
 25 26  2  0
 27 28  1  0
 28 29  1  0
 28 30  2  0
 30 31  1  0
 31 32  1  0
 33 34  1  0
 34 35  1  0
 34 36  1  0
 36 37  1  6
M  CHG  1  13   1
M  END
