
     RDKit          3D

 37 40  0  0  0  0  0  0  0  0999 V2000
   -5.3400    4.2770   -1.1330 N   0  0  0  0  0  0  0  0  0  0  0  0
   -4.8510    5.1830   -0.1640 C   0  0  0  0  0  0  0  0  0  0  0  0
   -3.6780    4.6990    0.6330 C   0  0  0  0  0  0  0  0  0  0  0  0
   -3.9180    3.1990    1.5530 S   0  0  0  0  0  0  0  0  0  0  0  0
   -3.8090    1.7670    0.5140 C   0  0  0  0  0  0  0  0  0  0  0  0
   -4.4130    0.5990    0.8550 C   0  0  0  0  0  0  0  0  0  0  0  0
   -4.4340   -0.5590    0.1950 N   0  0  0  0  0  0  0  0  0  0  0  0
   -4.7500   -1.4060   -0.6140 C   0  0  0  0  0  0  0  0  0  0  0  0
   -4.1350   -2.7730   -0.6970 C   0  0  0  0  0  0  0  0  0  0  0  0
   -2.8460   -2.9670   -0.8780 C   0  0  0  0  0  0  0  0  0  0  0  0
   -2.3040   -4.3100   -0.9490 C   0  0  0  0  0  0  0  0  0  0  0  0
   -3.0620   -5.4620   -0.8360 C   0  0  0  0  0  0  0  0  0  0  0  0
   -2.2180   -6.5510   -0.9500 C   0  0  0  0  0  0  0  0  0  0  0  0
   -0.9700   -5.9980   -1.1290 C   0  0  0  0  0  0  0  0  0  0  0  0
   -1.0560   -4.6870   -1.1230 O   0  0  0  0  0  0  0  0  0  0  0  0
   -1.8590   -1.8370   -1.0420 C   0  0  0  0  0  0  0  0  0  0  0  0
   -0.8380   -1.7620    0.0130 C   0  0  0  0  0  0  0  0  0  0  0  0
   -0.8640   -0.6460    0.9030 N   0  0  0  0  0  0  0  0  0  0  0  0
   -0.1770   -0.9020    2.1910 C   0  0  0  0  0  0  0  0  0  0  0  0
    1.2530   -0.5030    2.1250 C   0  0  0  0  0  0  0  0  0  0  0  0
    1.9700   -0.6800    3.1570 O   0  0  0  0  0  0  0  0  0  0  0  0
    1.8820    0.0640    0.9950 N   0  0  0  0  0  0  0  0  0  0  0  0
    3.2600    0.4150    1.0270 C   0  0  0  0  0  0  0  0  0  0  0  0
    4.2140   -0.7030    1.2800 C   0  0  0  0  0  0  0  0  0  0  0  0
    5.6090   -0.1500    1.2870 C   0  0  0  0  0  0  0  0  0  0  0  0
    6.3330    0.0470    2.4040 N   0  0  0  0  0  0  0  0  0  0  0  0
    7.5220    0.5470    2.0660 N   0  0  0  0  0  0  0  0  0  0  0  0
    7.6070    0.6890    0.7370 C   0  0  0  0  0  0  0  0  0  0  0  0
    8.6110    1.1560   -0.0820 C   0  0  0  0  0  0  0  0  0  0  0  0
    8.3730    1.1740   -1.4420 C   0  0  0  0  0  0  0  0  0  0  0  0
    7.1850    0.7440   -1.9570 C   0  0  0  0  0  0  0  0  0  0  0  0
    6.1830    0.2750   -1.1070 C   0  0  0  0  0  0  0  0  0  0  0  0
    6.3970    0.2480    0.2470 C   0  0  0  0  0  0  0  0  0  0  0  0
   -1.4420    0.6110    0.7240 C   0  0  0  0  0  0  0  0  0  0  0  0
   -1.9120    1.1530    1.7860 O   0  0  0  0  0  0  0  0  0  0  0  0
   -1.5900    1.4050   -0.5070 C   0  0  0  0  0  0  0  0  0  0  0  0
   -3.0200    1.8790   -0.7510 C   0  0  0  0  0  0  0  0  0  0  0  0
  1  2  1  0
  2  3  1  0
  3  4  1  0
  4  5  1  0
  5  6  2  0
  5 37  1  0
  6  7  1  0
  7  8  2  0
  8  9  1  0
  9 10  2  0
 10 11  1  0
 10 16  1  0
 11 12  2  0
 11 15  1  0
 12 13  1  0
 13 14  2  0
 14 15  1  0
 16 17  1  0
 17 18  1  0
 18 19  1  0
 18 34  1  0
 19 20  1  0
 20 21  2  0
 20 22  1  0
 22 23  1  0
 23 24  1  0
 24 25  1  0
 25 26  2  0
 25 33  1  0
 26 27  1  0
 27 28  1  0
 28 29  2  0
 28 33  1  0
 29 30  1  0
 30 31  2  0
 31 32  1  0
 32 33  2  0
 34 35  2  0
 34 36  1  0
 36 37  1  0
M  CHG  1   1   1
M  END
