
     RDKit          3D

 37 40  0  0  0  0  0  0  0  0999 V2000
    3.5030    3.7040    3.0250 C   0  0  0  0  0  0  0  0  0  0  0  0
    4.2400    3.6370    1.6750 C   0  0  0  0  0  0  0  0  0  0  0  0
    4.4740    2.5310    1.1180 N   0  0  0  0  0  0  0  0  0  0  0  0
    5.0730    2.4190   -0.0470 C   0  0  0  0  0  0  0  0  0  0  0  0
    5.3370    1.2090   -0.8690 C   0  0  0  0  0  0  0  0  0  0  0  0
    3.9580    0.5710   -0.8540 N   0  0  0  0  0  0  0  0  0  0  0  0
    3.5030    0.1400    0.3930 C   0  0  0  0  0  0  0  0  0  0  0  0
    4.3160    0.2220    1.4060 O   0  0  0  0  0  0  0  0  0  0  0  0
    2.1840   -0.3800    0.7240 C   0  0  0  0  0  0  0  0  0  0  0  0
    1.5840   -0.1400    1.9360 N   0  0  0  0  0  0  0  0  0  0  0  0
    0.3760   -0.6650    2.0020 C   0  0  0  0  0  0  0  0  0  0  0  0
   -0.5700   -0.6580    3.1300 C   0  0  0  0  0  0  0  0  0  0  0  0
    0.1280   -1.3100    0.7410 C   0  0  0  0  0  0  0  0  0  0  0  0
   -1.1830   -1.9210    0.4410 C   0  0  0  0  0  0  0  0  0  0  0  0
   -2.1290   -0.8680   -0.1370 C   0  0  0  0  0  0  0  0  0  0  0  0
   -3.5400   -1.3910   -0.1400 C   0  0  0  0  0  0  0  0  0  0  0  0
   -4.4140   -0.4210   -0.7250 N   0  0  0  0  0  0  0  0  0  0  0  0
   -5.0890    0.4620    0.2000 C   0  0  1  0  0  0  0  0  0  0  0  0
   -4.1540    1.0600    1.2130 C   0  0  0  0  0  0  0  0  0  0  0  0
   -5.6750    1.5510   -0.6250 C   0  0  0  0  0  0  0  0  0  0  0  0
   -6.8740    1.9950   -0.7000 C   0  0  0  0  0  0  0  0  0  0  0  0
   -6.9620    3.1210   -1.6950 C   0  0  0  0  0  0  0  0  0  0  0  0
   -5.6170    3.2440   -2.1750 C   0  0  0  0  0  0  0  0  0  0  0  0
   -4.8180    2.3460   -1.5780 C   0  0  0  0  0  0  0  0  0  0  0  0
    1.2610   -1.1080    0.0090 C   0  0  0  0  0  0  0  0  0  0  0  0
    1.5240   -1.6300   -1.3480 C   0  0  0  0  0  0  0  0  0  0  0  0
    1.2650   -0.9700   -2.3710 O   0  0  0  0  0  0  0  0  0  0  0  0
    2.1000   -2.9240   -1.5050 N   0  0  0  0  0  0  0  0  0  0  0  0
    2.4450   -3.4790   -2.7870 C   0  0  0  0  0  0  0  0  0  0  0  0
    3.6680   -4.3870   -2.5070 C   0  0  0  0  0  0  0  0  0  0  0  0
    3.3080   -5.4520   -1.7280 O   0  0  0  0  0  0  0  0  0  0  0  0
    2.2780   -5.1870   -0.8350 C   0  0  0  0  0  0  0  0  0  0  0  0
    2.3240   -3.7460   -0.3340 C   0  0  0  0  0  0  0  0  0  0  0  0
    5.3770    4.1800   -0.4430 S   0  0  0  0  0  0  0  0  0  0  0  0
    4.6410    4.8060    1.0250 C   0  0  0  0  0  0  0  0  0  0  0  0
    4.4360    6.1800    1.5040 C   0  0  0  0  0  0  0  0  0  0  0  0
    4.3110    7.1440    1.8360 N   0  0  0  0  0  0  0  0  0  0  0  0
  1  2  1  0
  2  3  1  0
  2 35  2  0
  3  4  2  0
  4  5  1  0
  4 34  1  0
  5  6  1  0
  6  7  1  0
  7  8  2  0
  7  9  1  0
  9 10  1  0
  9 25  2  0
 10 11  1  0
 11 12  1  0
 11 13  2  0
 13 14  1  0
 13 25  1  0
 14 15  1  0
 15 16  1  0
 16 17  1  0
 17 18  1  0
 18 19  1  1
 18 20  1  0
 20 21  2  0
 20 24  1  0
 21 22  1  0
 22 23  1  0
 23 24  2  0
 25 26  1  0
 26 27  2  0
 26 28  1  0
 28 29  1  0
 28 33  1  0
 29 30  1  0
 30 31  1  0
 31 32  1  0
 32 33  1  0
 34 35  1  0
 35 36  1  0
 36 37  3  0
M  CHG  1  17   1
M  END
