
     RDKit          3D

 28 31  0  0  0  0  0  0  0  0999 V2000
    3.9320   -0.2950    2.6650 C   0  0  0  0  0  0  0  0  0  0  0  0
    4.1590   -0.3310    1.1830 C   0  0  2  0  0  0  0  0  0  0  0  0
    4.9540    0.7550    0.8500 O   0  0  0  0  0  0  0  0  0  0  0  0
    5.2370    0.8690   -0.4830 C   0  0  2  0  0  0  0  0  0  0  0  0
    6.1430   -0.1980   -1.0250 C   0  0  0  0  0  0  0  0  0  0  0  0
    5.9840    2.2010   -0.6600 C   0  0  0  0  0  0  0  0  0  0  0  0
    4.0080    0.9710   -1.3640 C   0  0  0  0  0  0  0  0  0  0  0  0
    2.8100    0.9340   -0.3950 C   0  0  2  0  0  0  0  0  0  0  0  0
    2.9400    2.0740    0.3550 O   0  0  0  0  0  0  0  0  0  0  0  0
    2.9340   -0.3470    0.3510 C   0  0  2  0  0  0  0  0  0  0  0  0
    1.6840   -0.7720    1.0720 C   0  0  2  0  0  0  0  0  0  0  0  0
    1.8020   -2.0670    1.5870 O   0  0  0  0  0  0  0  0  0  0  0  0
    0.4660   -0.7670    0.2120 C   0  0  1  0  0  0  0  0  0  0  0  0
    0.6130   -1.7090   -0.9710 C   0  0  0  0  0  0  0  0  0  0  0  0
   -0.7570   -1.9270   -1.5460 C   0  0  0  0  0  0  0  0  0  0  0  0
   -1.6860   -0.9890   -1.1190 O   0  0  0  0  0  0  0  0  0  0  0  0
   -2.0110   -1.1420    0.2230 C   0  0  2  0  0  0  0  0  0  0  0  0
   -2.9160   -2.3410    0.4390 C   0  0  0  0  0  0  0  0  0  0  0  0
   -4.0820   -2.1860   -0.5140 C   0  0  0  0  0  0  0  0  0  0  0  0
   -4.0950   -0.9660   -1.1450 O   0  0  0  0  0  0  0  0  0  0  0  0
   -4.0390    0.1120   -0.2950 C   0  0  1  0  0  0  0  0  0  0  0  0
   -3.8810    1.3710   -1.1530 C   0  0  0  0  0  0  0  0  0  0  0  0
   -4.1670    2.5520   -0.2440 C   0  0  0  0  0  0  0  0  0  0  0  0
   -5.6830    2.6720   -0.1350 C   0  0  0  0  0  0  0  0  0  0  0  0
   -6.2380    1.2650   -0.2070 C   0  0  0  0  0  0  0  0  0  0  0  0
   -5.3180    0.2750    0.4890 C   0  0  0  0  0  0  0  0  0  0  0  0
   -2.8210    0.0830    0.6190 C   0  0  0  0  0  0  0  0  0  0  0  0
   -0.7330   -1.2470    1.0020 C   0  0  0  0  0  0  0  0  0  0  0  0
  2  1  1  1
  2  3  1  0
 10  2  1  1
  3  4  1  0
  4  5  1  6
  4  6  1  0
  4  7  1  0
  7  8  1  0
  8  9  1  1
  8 10  1  0
 10 11  1  0
 11 12  1  6
 11 13  1  0
 13 14  1  6
 13 28  1  0
 14 15  1  0
 15 16  1  0
 16 17  1  0
 17 18  1  6
 17 27  1  0
 17 28  1  0
 18 19  1  0
 19 20  1  0
 20 21  1  0
 21 22  1  6
 21 26  1  0
 21 27  1  0
 22 23  1  0
 23 24  1  0
 24 25  1  0
 25 26  1  0
M  END
