
     RDKit          3D

 28 32  0  0  0  0  0  0  0  0999 V2000
   -3.0070   -1.0990   -1.3650 C   0  0  0  0  0  0  0  0  0  0  0  0
   -2.3430   -0.3950   -0.1730 C   0  0  2  0  0  0  0  0  0  0  0  0
   -3.0480   -0.9370    1.0480 C   0  0  0  0  0  0  0  0  0  0  0  0
   -4.0110   -0.0180    1.6810 C   0  0  0  0  0  0  0  0  0  0  0  0
   -4.7370    0.9110    0.7840 C   0  0  2  0  0  0  0  0  0  0  0  0
   -5.9460    0.3260    0.3450 O   0  0  0  0  0  0  0  0  0  0  0  0
   -4.0060    1.3910   -0.4100 C   0  0  0  0  0  0  0  0  0  0  0  0
   -2.5400    1.0730   -0.3760 C   0  0  1  0  0  0  0  0  0  0  0  0
   -1.8810    1.9460    0.6320 C   0  0  0  0  0  0  0  0  0  0  0  0
   -0.6620    1.2700    1.2470 C   0  0  0  0  0  0  0  0  0  0  0  0
   -0.0680    0.4350    0.1390 C   0  0  2  0  0  0  0  0  0  0  0  0
   -0.9020   -0.7860   -0.1650 C   0  0  2  0  0  0  0  0  0  0  0  0
   -0.4080   -1.2960   -1.5000 C   0  0  0  0  0  0  0  0  0  0  0  0
    1.0470   -1.5240   -1.5530 C   0  0  1  0  0  0  0  0  0  0  0  0
    1.4020   -1.5600   -2.9280 O   0  0  0  0  0  0  0  0  0  0  0  0
    1.9100   -0.4620   -0.9480 C   0  0  2  0  0  0  0  0  0  0  0  0
    2.0460    0.6480   -1.9370 C   0  0  0  0  0  0  0  0  0  0  0  0
    3.1920   -1.0820   -0.4760 C   0  0  1  0  0  0  0  0  0  0  0  0
    4.2680   -0.1130   -0.1840 C   0  0  0  0  0  0  0  0  0  0  0  0
    4.7120    0.1660    1.0480 C   0  0  0  0  0  0  0  0  0  0  0  0
    5.7670    1.1540    0.9650 C   0  0  0  0  0  0  0  0  0  0  0  0
    6.4260    1.6630    1.9310 O   0  0  0  0  0  0  0  0  0  0  0  0
    5.9700    1.4820   -0.3410 O   0  0  0  0  0  0  0  0  0  0  0  0
    5.0540    0.6890   -1.1160 C   0  0  0  0  0  0  0  0  0  0  0  0
    2.7070   -1.7320    0.8330 C   0  0  0  0  0  0  0  0  0  0  0  0
    1.6880   -0.8200    1.4290 C   0  0  0  0  0  0  0  0  0  0  0  0
    1.3660    0.1190    0.3270 C   0  0  2  0  0  0  0  0  0  0  0  0
    2.0500    1.3300    0.5420 O   0  0  0  0  0  0  0  0  0  0  0  0
  2  1  1  6
  2  3  1  0
  2  8  1  0
  2 12  1  0
  3  4  1  0
  4  5  1  0
  5  6  1  6
  5  7  1  0
  8  7  1  1
  8  9  1  0
  9 10  1  0
 11 10  1  1
 11 12  1  0
 11 27  1  0
 12 13  1  6
 13 14  1  0
 14 15  1  6
 14 16  1  0
 16 17  1  6
 16 18  1  0
 16 27  1  0
 18 19  1  1
 18 25  1  0
 19 20  2  0
 19 24  1  0
 20 21  1  0
 21 22  2  0
 21 23  1  0
 23 24  1  0
 25 26  1  0
 26 27  1  0
 27 28  1  1
M  END
