
     RDKit          3D

 28 30  0  0  0  0  0  0  0  0999 V2000
   -4.6560    1.2890   -2.4980 C   0  0  0  0  0  0  0  0  0  0  0  0
   -4.1620   -0.0810   -2.0730 C   0  0  2  0  0  0  0  0  0  0  0  0
   -5.3080   -0.7580   -1.3600 C   0  0  0  0  0  0  0  0  0  0  0  0
   -5.3700   -0.1690    0.0330 C   0  0  1  0  0  0  0  0  0  0  0  0
   -6.5300   -0.5560    0.7010 O   0  0  0  0  0  0  0  0  0  0  0  0
   -4.1830   -0.7140    0.7840 C   0  0  0  0  0  0  0  0  0  0  0  0
   -2.9290   -0.7750   -0.0130 C   0  0  2  0  0  0  0  0  0  0  0  0
   -1.7830   -0.3810    0.9200 C   0  0  2  0  0  0  0  0  0  0  0  0
   -1.7970   -1.3990    2.0310 C   0  0  0  0  0  0  0  0  0  0  0  0
   -2.0700    0.9640    1.5700 C   0  0  0  0  0  0  0  0  0  0  0  0
   -0.7150    1.6550    1.6600 C   0  0  0  0  0  0  0  0  0  0  0  0
    0.3210    0.8110    1.9240 O   0  0  0  0  0  0  0  0  0  0  0  0
    0.7250    0.0200    0.8210 C   0  0  1  0  0  0  0  0  0  0  0  0
    1.5830    0.9170   -0.0180 C   0  0  0  0  0  0  0  0  0  0  0  0
    2.7400    1.5480    0.6770 C   0  0  0  0  0  0  0  0  0  0  0  0
    3.8470    1.9390   -0.3170 C   0  0  0  0  0  0  0  0  0  0  0  0
    5.1310    1.2500    0.0810 C   0  0  2  0  0  0  0  0  0  0  0  0
    5.8870    2.1360    0.9080 O   0  0  0  0  0  0  0  0  0  0  0  0
    5.9530    0.7740   -1.0440 C   0  0  0  0  0  0  0  0  0  0  0  0
    5.6760   -0.1080   -1.9680 C   0  0  0  0  0  0  0  0  0  0  0  0
    4.4460   -0.8980   -2.1650 C   0  0  0  0  0  0  0  0  0  0  0  0
    4.0420   -1.7760   -1.0310 C   0  0  0  0  0  0  0  0  0  0  0  0
    2.6760   -1.5970   -0.6960 O   0  0  0  0  0  0  0  0  0  0  0  0
    2.5770   -1.7410    0.6670 C   0  0  0  0  0  0  0  0  0  0  0  0
    1.3390   -1.2380    1.3120 C   0  0  1  0  0  0  0  0  0  0  0  0
    1.6930   -1.0480    2.6830 O   0  0  0  0  0  0  0  0  0  0  0  0
   -0.5520   -0.3650    0.1020 C   0  0  0  0  0  0  0  0  0  0  0  0
   -2.9100   -0.0190   -1.2820 C   0  0  0  0  0  0  0  0  0  0  0  0
  2  1  1  1
  2  3  1  0
  2 28  1  0
  3  4  1  0
  4  5  1  1
  4  6  1  0
  7  6  1  1
  7  8  1  0
  7 28  1  0
  8  9  1  1
  8 10  1  0
  8 27  1  0
 10 11  1  0
 11 12  1  0
 12 13  1  0
 13 14  1  6
 13 25  1  0
 13 27  1  0
 14 15  1  0
 15 16  1  0
 16 17  1  0
 17 18  1  6
 17 19  1  0
 19 20  2  0
 20 21  1  0
 21 22  1  0
 22 23  1  0
 23 24  1  0
 24 25  1  0
 25 26  1  1
M  END
