
     RDKit          3D

 28 31  0  0  0  0  0  0  0  0999 V2000
   -2.7600    0.9850    2.0820 C   0  0  0  0  0  0  0  0  0  0  0  0
   -1.5820    0.0730    1.6700 C   0  0  2  0  0  0  0  0  0  0  0  0
   -1.1630   -0.5530    3.0300 C   0  0  0  0  0  0  0  0  0  0  0  0
   -2.2620   -1.2500    3.5320 O   0  0  0  0  0  0  0  0  0  0  0  0
   -0.5140    0.9070    1.1130 C   0  0  0  0  0  0  0  0  0  0  0  0
    0.1110    0.5380   -0.2030 C   0  0  2  0  0  0  0  0  0  0  0  0
    1.5660    0.3550   -0.0400 C   0  0  0  0  0  0  0  0  0  0  0  0
    2.1940   -0.6140    0.8640 C   0  0  1  0  0  0  0  0  0  0  0  0
    1.9300   -2.0740    0.6520 C   0  0  0  0  0  0  0  0  0  0  0  0
    2.7710   -2.9250    1.6050 C   0  0  0  0  0  0  0  0  0  0  0  0
    4.1040   -2.8690    1.2510 O   0  0  0  0  0  0  0  0  0  0  0  0
    4.3690   -1.7940    0.4500 C   0  0  0  0  0  0  0  0  0  0  0  0
    3.7210   -0.4980    0.8750 C   0  0  1  0  0  0  0  0  0  0  0  0
    4.1540    0.4560   -0.0530 O   0  0  0  0  0  0  0  0  0  0  0  0
    0.1170    1.8960   -1.0060 C   0  0  1  0  0  0  0  0  0  0  0  0
   -1.2320    2.4550   -1.1990 C   0  0  0  0  0  0  0  0  0  0  0  0
   -1.4000    3.9370   -1.0750 C   0  0  0  0  0  0  0  0  0  0  0  0
   -0.2560    4.6560   -0.8420 O   0  0  0  0  0  0  0  0  0  0  0  0
    0.8650    4.1250   -1.4190 C   0  0  0  0  0  0  0  0  0  0  0  0
    1.1680    2.8430   -0.5990 C   0  0  0  0  0  0  0  0  0  0  0  0
   -0.6990   -0.3300   -1.0690 C   0  0  1  0  0  0  0  0  0  0  0  0
   -0.0430   -1.4980   -1.7400 C   0  0  0  0  0  0  0  0  0  0  0  0
   -0.7400   -1.8020   -3.0880 C   0  0  0  0  0  0  0  0  0  0  0  0
   -2.2090   -1.8210   -2.8050 C   0  0  0  0  0  0  0  0  0  0  0  0
   -2.4800   -2.0480   -1.3440 C   0  0  0  0  0  0  0  0  0  0  0  0
   -2.0320   -0.8060   -0.5430 C   0  0  1  0  0  0  0  0  0  0  0  0
   -2.1400   -1.0490    0.9010 C   0  0  1  0  0  0  0  0  0  0  0  0
   -1.7500   -2.3140    1.3200 O   0  0  0  0  0  0  0  0  0  0  0  0
  2  1  1  1
  2  3  1  0
  2  5  1  0
  2 27  1  0
  3  4  1  0
  5  6  1  0
  6  7  1  1
  6 15  1  0
  6 21  1  0
  8  7  1  6
  8  9  1  0
  8 13  1  0
  9 10  1  0
 10 11  1  0
 11 12  1  0
 12 13  1  0
 13 14  1  6
 15 16  1  1
 15 20  1  0
 16 17  1  0
 17 18  1  0
 18 19  1  0
 19 20  1  0
 21 22  1  1
 21 26  1  0
 22 23  1  0
 23 24  1  0
 24 25  1  0
 26 25  1  6
 26 27  1  0
 27 28  1  6
M  END
