
     RDKit          3D

 28 31  0  0  0  0  0  0  0  0999 V2000
    4.9340   -0.6050   -0.4430 C   0  0  0  0  0  0  0  0  0  0  0  0
    4.0430    0.6270   -0.5940 C   0  0  1  0  0  0  0  0  0  0  0  0
    4.0320    0.9850   -2.0700 C   0  0  0  0  0  0  0  0  0  0  0  0
    2.7410    0.2530   -0.2660 O   0  0  0  0  0  0  0  0  0  0  0  0
    2.6860   -0.0910    1.0840 C   0  0  2  0  0  0  0  0  0  0  0  0
    1.4270   -0.8730    1.4110 C   0  0  2  0  0  0  0  0  0  0  0  0
    1.4270   -2.1170    0.5900 C   0  0  0  0  0  0  0  0  0  0  0  0
    0.1180   -2.8360    0.5340 C   0  0  1  0  0  0  0  0  0  0  0  0
   -0.7940   -2.1640    1.5660 C   0  0  0  0  0  0  0  0  0  0  0  0
   -1.0210   -0.8180    0.8810 C   0  0  1  0  0  0  0  0  0  0  0  0
    0.2160    0.0040    1.2110 C   0  0  0  0  0  0  0  0  0  0  0  0
   -1.0450   -1.0470   -0.5830 C   0  0  2  0  0  0  0  0  0  0  0  0
   -2.3160   -0.6630   -1.2910 C   0  0  1  0  0  0  0  0  0  0  0  0
   -3.5270   -1.3510   -0.7850 C   0  0  0  0  0  0  0  0  0  0  0  0
   -4.7080   -1.0760   -1.6840 C   0  0  0  0  0  0  0  0  0  0  0  0
   -4.3550   -0.2320   -2.8700 C   0  0  0  0  0  0  0  0  0  0  0  0
   -3.5870    0.9970   -2.5410 C   0  0  0  0  0  0  0  0  0  0  0  0
   -2.5250    0.7880   -1.4740 C   0  0  1  0  0  0  0  0  0  0  0  0
   -2.9050    1.5980   -0.2890 C   0  0  0  0  0  0  0  0  0  0  0  0
   -4.0850    1.1680    0.2470 O   0  0  0  0  0  0  0  0  0  0  0  0
   -4.5170    1.8620    1.3510 C   0  0  0  0  0  0  0  0  0  0  0  0
   -5.7330    1.2850    1.7620 O   0  0  0  0  0  0  0  0  0  0  0  0
   -0.6620   -2.4900   -0.7380 C   0  0  0  0  0  0  0  0  0  0  0  0
    2.7520    1.2140    1.8620 C   0  0  0  0  0  0  0  0  0  0  0  0
    4.1770    1.7460    1.6520 C   0  0  1  0  0  0  0  0  0  0  0  0
    5.0950    0.9430    2.3530 O   0  0  0  0  0  0  0  0  0  0  0  0
    4.5540    1.7780    0.2070 C   0  0  1  0  0  0  0  0  0  0  0  0
    5.9430    1.7860    0.1130 O   0  0  0  0  0  0  0  0  0  0  0  0
  2  1  1  6
  2  3  1  0
  2  4  1  0
  2 27  1  0
  4  5  1  0
  5  6  1  0
  5 24  1  1
  6  7  1  6
  6 11  1  0
  8  7  1  6
  8  9  1  0
  8 23  1  0
  9 10  1  0
 10 11  1  6
 10 12  1  0
 12 13  1  0
 12 23  1  1
 13 14  1  1
 13 18  1  0
 14 15  1  0
 15 16  1  0
 16 17  1  0
 17 18  1  0
 18 19  1  1
 19 20  1  0
 20 21  1  0
 21 22  1  0
 24 25  1  0
 25 26  1  1
 25 27  1  0
 27 28  1  1
M  END
