
     RDKit          3D

 28 31  0  0  0  0  0  0  0  0999 V2000
    3.4160   -0.7660    1.8540 C   0  0  0  0  0  0  0  0  0  0  0  0
    3.9890   -0.7260    0.6630 C   0  0  0  0  0  0  0  0  0  0  0  0
    5.4000   -0.7080    0.6230 O   0  0  0  0  0  0  0  0  0  0  0  0
    6.1360   -0.6860   -0.5300 C   0  0  0  0  0  0  0  0  0  0  0  0
    5.4860   -0.6820   -1.6830 C   0  0  0  0  0  0  0  0  0  0  0  0
    4.0400   -0.6970   -1.6990 C   0  0  0  0  0  0  0  0  0  0  0  0
    3.2610   -0.7160   -0.5980 C   0  0  0  0  0  0  0  0  0  0  0  0
    1.8020   -0.8530   -0.7050 C   0  0  0  0  0  0  0  0  0  0  0  0
    1.0120    0.3510   -0.4650 C   0  0  2  0  0  0  0  0  0  0  0  0
    1.0470    1.1500    0.7650 C   0  0  0  0  0  0  0  0  0  0  0  0
    0.5910    2.4670    0.4520 O   0  0  0  0  0  0  0  0  0  0  0  0
   -0.6840    2.4960    0.0130 C   0  0  2  0  0  0  0  0  0  0  0  0
   -0.7020    3.2660   -1.3260 C   0  0  0  0  0  0  0  0  0  0  0  0
   -0.7970    4.7280   -0.9600 C   0  0  0  0  0  0  0  0  0  0  0  0
   -2.1180    5.0020   -0.6420 O   0  0  0  0  0  0  0  0  0  0  0  0
   -2.5920    4.0970    0.2820 C   0  0  0  0  0  0  0  0  0  0  0  0
   -1.4940    3.3420    0.9860 C   0  0  0  0  0  0  0  0  0  0  0  0
   -1.3390    1.1680   -0.1300 C   0  0  0  0  0  0  0  0  0  0  0  0
   -0.4780    0.1070   -0.7750 C   0  0  1  0  0  0  0  0  0  0  0  0
   -0.6080    0.2580   -2.1560 O   0  0  0  0  0  0  0  0  0  0  0  0
   -0.9940   -1.2140   -0.3760 C   0  0  1  0  0  0  0  0  0  0  0  0
   -1.0410   -1.5390    1.0870 C   0  0  0  0  0  0  0  0  0  0  0  0
   -1.3890   -3.0440    1.1470 C   0  0  1  0  0  0  0  0  0  0  0  0
   -1.2530   -3.5600    2.5560 C   0  0  0  0  0  0  0  0  0  0  0  0
   -2.7480   -3.2840    0.5670 C   0  0  0  0  0  0  0  0  0  0  0  0
   -2.7300   -2.9060   -0.8950 C   0  0  0  0  0  0  0  0  0  0  0  0
   -2.3930   -1.4300   -0.9850 C   0  0  1  0  0  0  0  0  0  0  0  0
   -3.3510   -0.6330   -0.4180 O   0  0  0  0  0  0  0  0  0  0  0  0
  1  2  2  0
  2  3  1  0
  2  7  1  0
  3  4  1  0
  4  5  2  0
  5  6  1  0
  6  7  2  0
  7  8  1  0
  9  8  1  1
  9 10  1  0
  9 19  1  0
 10 11  1  0
 11 12  1  0
 12 13  1  6
 12 17  1  0
 12 18  1  0
 13 14  1  0
 14 15  1  0
 15 16  1  0
 16 17  1  0
 18 19  1  0
 19 20  1  6
 19 21  1  0
 21 22  1  1
 21 27  1  0
 22 23  1  0
 23 24  1  1
 23 25  1  0
 25 26  1  0
 26 27  1  0
 27 28  1  1
M  END
