
     RDKit          3D

 28 31  0  0  0  0  0  0  0  0999 V2000
   -3.4190    2.0000    1.8560 C   0  0  0  0  0  0  0  0  0  0  0  0
   -2.6520    1.5810    0.5760 C   0  0  1  0  0  0  0  0  0  0  0  0
   -1.7110    2.7500    0.3450 C   0  0  0  0  0  0  0  0  0  0  0  0
   -2.4880    3.9170    0.3680 O   0  0  0  0  0  0  0  0  0  0  0  0
   -1.8920    0.3100    0.8900 C   0  0  0  0  0  0  0  0  0  0  0  0
   -1.7320   -0.6490   -0.2270 C   0  0  2  0  0  0  0  0  0  0  0  0
   -2.0470    0.0970   -1.5500 C   0  0  0  0  0  0  0  0  0  0  0  0
   -3.3500    0.8030   -1.5130 C   0  0  0  0  0  0  0  0  0  0  0  0
   -3.6270    1.4740   -0.3660 O   0  0  0  0  0  0  0  0  0  0  0  0
   -3.0280   -1.4880   -0.1840 C   0  0  1  0  0  0  0  0  0  0  0  0
   -3.2750   -2.0860   -1.3970 O   0  0  0  0  0  0  0  0  0  0  0  0
   -3.0220   -2.4990    0.9010 C   0  0  0  0  0  0  0  0  0  0  0  0
   -1.9600   -3.5000    0.5530 C   0  0  0  0  0  0  0  0  0  0  0  0
   -0.7390   -2.9820   -0.0680 C   0  0  0  0  0  0  0  0  0  0  0  0
   -0.5750   -1.5030   -0.3530 C   0  0  1  0  0  0  0  0  0  0  0  0
   -0.1720   -1.4490   -1.7150 O   0  0  0  0  0  0  0  0  0  0  0  0
    0.7460   -1.1420    0.3460 C   0  0  1  0  0  0  0  0  0  0  0  0
    0.4650   -1.2850    1.8320 C   0  0  0  0  0  0  0  0  0  0  0  0
    1.7170   -2.2220   -0.0560 C   0  0  0  0  0  0  0  0  0  0  0  0
    3.0370   -1.7410   -0.5750 C   0  0  0  0  0  0  0  0  0  0  0  0
    2.9420   -0.6100   -1.3690 O   0  0  0  0  0  0  0  0  0  0  0  0
    2.5800    0.4010   -0.5210 C   0  0  1  0  0  0  0  0  0  0  0  0
    3.6930    0.5680    0.5220 C   0  0  0  0  0  0  0  0  0  0  0  0
    3.8240    2.0520    0.8920 C   0  0  0  0  0  0  0  0  0  0  0  0
    4.5490    2.7600   -0.2320 C   0  0  0  0  0  0  0  0  0  0  0  0
    4.0880    2.1120   -1.5240 C   0  0  0  0  0  0  0  0  0  0  0  0
    2.6430    1.6950   -1.3480 C   0  0  0  0  0  0  0  0  0  0  0  0
    1.2220    0.2350    0.1250 C   0  0  0  0  0  0  0  0  0  0  0  0
  2  1  1  1
  2  3  1  0
  2  5  1  0
  2  9  1  0
  3  4  1  0
  6  5  1  1
  6  7  1  0
  6 10  1  0
  6 15  1  0
  7  8  1  0
  8  9  1  0
 10 11  1  6
 10 12  1  0
 12 13  1  0
 13 14  1  0
 14 15  1  0
 15 16  1  6
 15 17  1  0
 17 18  1  1
 17 19  1  0
 17 28  1  0
 19 20  1  0
 20 21  1  0
 21 22  1  0
 22 23  1  1
 22 27  1  0
 22 28  1  0
 23 24  1  0
 24 25  1  0
 25 26  1  0
 26 27  1  0
M  END
