
     RDKit          3D

 12 12  0  0  0  0  0  0  0  0999 V2000
   -2.8130   -0.6420    0.2650 O   0  0  0  0  0  0  0  0  0  0  0  0
   -2.0180    0.1900   -0.5220 C   0  0  1  0  0  0  0  0  0  0  0  0
   -2.4360    1.5060   -0.2360 O   0  0  0  0  0  0  0  0  0  0  0  0
   -0.5960    0.0810   -0.0280 C   0  0  1  0  0  0  0  0  0  0  0  0
   -0.5010    0.4730    1.3070 O   0  0  0  0  0  0  0  0  0  0  0  0
   -0.0870   -1.3480   -0.0960 C   0  0  0  0  0  0  0  0  0  0  0  0
    1.2680   -1.3560    0.5820 C   0  0  0  0  0  0  0  0  0  0  0  0
    2.1350   -0.3140   -0.0940 C   0  0  2  0  0  0  0  0  0  0  0  0
    2.5130    0.6680    0.8270 O   0  0  0  0  0  0  0  0  0  0  0  0
    1.4960    0.2390   -1.2070 O   0  0  0  0  0  0  0  0  0  0  0  0
    0.3460    0.9380   -0.8380 C   0  0  2  0  0  0  0  0  0  0  0  0
    0.7190    2.0960   -0.1490 O   0  0  0  0  0  0  0  0  0  0  0  0
  2  1  1  1
  2  3  1  0
  2  4  1  0
  4  5  1  1
  4  6  1  0
  4 11  1  0
  6  7  1  0
  7  8  1  0
  8  9  1  1
  8 10  1  0
 10 11  1  0
 11 12  1  1
M  END
