
     RDKit          3D

 12 12  0  0  0  0  0  0  0  0999 V2000
    2.9800    0.8590    0.0210 C   0  0  0  0  0  0  0  0  0  0  0  0
    1.9890    0.1510   -0.6740 O   0  0  0  0  0  0  0  0  0  0  0  0
    1.3080   -0.7200    0.2000 C   0  0  2  0  0  0  0  0  0  0  0  0
    1.5450   -2.0100   -0.3070 O   0  0  0  0  0  0  0  0  0  0  0  0
   -0.1600   -0.4680    0.1470 C   0  0  2  0  0  0  0  0  0  0  0  0
   -0.7850   -1.3490    1.0230 O   0  0  0  0  0  0  0  0  0  0  0  0
   -0.6820   -0.6250   -1.2650 C   0  0  0  0  0  0  0  0  0  0  0  0
   -2.0120   -0.3220   -1.3590 O   0  0  0  0  0  0  0  0  0  0  0  0
   -2.6010    0.1210   -0.2080 C   0  0  0  0  0  0  0  0  0  0  0  0
   -1.7650    1.0880    0.5830 C   0  0  2  0  0  0  0  0  0  0  0  0
   -2.0230    2.3680    0.1000 O   0  0  0  0  0  0  0  0  0  0  0  0
   -0.4180    0.8260    0.5480 O   0  0  0  0  0  0  0  0  0  0  0  0
  1  2  1  0
  2  3  1  0
  3  4  1  6
  3  5  1  0
  5  6  1  1
  5  7  1  0
  5 12  1  0
  7  8  1  0
  8  9  1  0
  9 10  1  0
 10 11  1  6
 10 12  1  0
M  END
