
     RDKit          3D

 23 25  0  0  0  0  0  0  0  0999 V2000
   -6.4770   -2.3160   -1.5960 O   0  0  0  0  0  0  0  0  0  0  0  0
   -5.9260   -2.0810   -0.4930 C   0  0  0  0  0  0  0  0  0  0  0  0
   -4.7160   -1.2800   -0.3760 C   0  0  0  0  0  0  0  0  0  0  0  0
   -4.1100   -0.7340   -1.4800 C   0  0  0  0  0  0  0  0  0  0  0  0
   -2.9910    0.0020   -1.3290 N   0  0  0  0  0  0  0  0  0  0  0  0
   -2.4290    0.2330   -0.1340 C   0  0  0  0  0  0  0  0  0  0  0  0
   -1.2110    1.0430   -0.0470 C   0  0  0  0  0  0  0  0  0  0  0  0
    0.0050    0.2070   -0.1560 N   0  0  0  0  0  0  0  0  0  0  0  0
    1.2380    0.8940   -0.0850 C   0  0  0  0  0  0  0  0  0  0  0  0
    1.2880    2.2820    0.0800 C   0  0  0  0  0  0  0  0  0  0  0  0
    2.4880    2.9410    0.1490 C   0  0  0  0  0  0  0  0  0  0  0  0
    3.6720    2.2630    0.0590 C   0  0  0  0  0  0  0  0  0  0  0  0
    3.6490    0.8940   -0.1040 C   0  0  0  0  0  0  0  0  0  0  0  0
    4.8660    0.2220   -0.1940 C   0  0  0  0  0  0  0  0  0  0  0  0
    4.8830   -1.1470   -0.3580 C   0  0  0  0  0  0  0  0  0  0  0  0
    6.3960   -2.0190   -0.4740 Cl  0  0  0  0  0  0  0  0  0  0  0  0
    3.6820   -1.8130   -0.4270 C   0  0  0  0  0  0  0  0  0  0  0  0
    3.7080   -3.5360   -0.6330 Cl  0  0  0  0  0  0  0  0  0  0  0  0
    2.4530   -1.1390   -0.3370 C   0  0  0  0  0  0  0  0  0  0  0  0
    2.4250    0.2160   -0.1750 C   0  0  0  0  0  0  0  0  0  0  0  0
   -2.9980   -0.2860    0.9490 N   0  0  0  0  0  0  0  0  0  0  0  0
   -4.1320   -1.0380    0.8480 C   0  0  0  0  0  0  0  0  0  0  0  0
   -4.6280   -1.5040    1.9010 O   0  0  0  0  0  0  0  0  0  0  0  0
  1  2  2  0
  2  3  1  0
  3  4  2  0
  3 22  1  0
  4  5  1  0
  5  6  2  0
  6  7  1  0
  6 21  1  0
  7  8  1  0
  8  9  1  0
  9 10  2  0
  9 20  1  0
 10 11  1  0
 11 12  2  0
 12 13  1  0
 13 14  2  0
 13 20  1  0
 14 15  1  0
 15 16  1  0
 15 17  2  0
 17 18  1  0
 17 19  1  0
 19 20  2  0
 21 22  1  0
 22 23  2  0
M  END
