
     RDKit          3D

 23 25  0  0  0  0  0  0  0  0999 V2000
    0.6830   -3.0680   -1.7000 N   0  0  0  0  0  0  0  0  0  0  0  0
    1.4460   -2.1840   -1.5810 C   0  0  0  0  0  0  0  0  0  0  0  0
    2.3490   -1.1050   -1.4260 C   0  0  0  0  0  0  0  0  0  0  0  0
    3.7040   -1.1120   -1.6720 C   0  0  0  0  0  0  0  0  0  0  0  0
    4.5180   -2.2270   -2.1450 C   0  0  0  0  0  0  0  0  0  0  0  0
    3.9530   -3.3220   -2.3640 O   0  0  0  0  0  0  0  0  0  0  0  0
    5.8800   -2.1420   -2.3640 O   0  0  0  0  0  0  0  0  0  0  0  0
    4.1990    0.1070   -1.4050 N   0  0  0  0  0  0  0  0  0  0  0  0
    3.2150    0.9130   -0.9910 C   0  0  0  0  0  0  0  0  0  0  0  0
    3.3690    2.6200   -0.5180 Cl  0  0  0  0  0  0  0  0  0  0  0  0
    2.0560    0.1700   -0.9990 C   0  0  0  0  0  0  0  0  0  0  0  0
    0.7400    0.7180   -0.5960 C   0  0  0  0  0  0  0  0  0  0  0  0
    0.3360    0.2540    0.7890 C   0  0  0  0  0  0  0  0  0  0  0  0
   -0.9440    0.8430    1.0910 N   0  0  0  0  0  0  0  0  0  0  0  0
   -1.1880    2.2490    1.3150 C   0  0  0  0  0  0  0  0  0  0  0  0
   -2.6050    2.4060    0.8150 C   0  0  0  0  0  0  0  0  0  0  0  0
   -3.2210    1.0980    1.0710 C   0  0  0  0  0  0  0  0  0  0  0  0
   -4.5180    0.6860    1.1660 C   0  0  0  0  0  0  0  0  0  0  0  0
   -4.8140   -0.6220    1.4160 C   0  0  0  0  0  0  0  0  0  0  0  0
   -3.8090   -1.5450    1.5750 C   0  0  0  0  0  0  0  0  0  0  0  0
   -4.2480   -3.2050    1.8930 Cl  0  0  0  0  0  0  0  0  0  0  0  0
   -2.4860   -1.1470    1.4810 C   0  0  0  0  0  0  0  0  0  0  0  0
   -2.2040    0.1860    1.2270 C   0  0  0  0  0  0  0  0  0  0  0  0
  1  2  3  0
  2  3  1  0
  3  4  2  0
  3 11  1  0
  4  5  1  0
  4  8  1  0
  5  6  2  0
  5  7  1  0
  8  9  1  0
  9 10  1  0
  9 11  2  0
 11 12  1  0
 12 13  1  0
 13 14  1  0
 14 15  1  0
 14 23  1  0
 15 16  1  0
 16 17  1  0
 17 18  2  0
 17 23  1  0
 18 19  1  0
 19 20  2  0
 20 21  1  0
 20 22  1  0
 22 23  2  0
M  END
