
     RDKit          3D

 21 24  0  0  0  0  0  0  0  0999 V2000
    2.6030   -4.0910   -0.3640 O   0  0  0  0  0  0  0  0  0  0  0  0
    1.9690   -3.0710   -0.0110 C   0  0  0  0  0  0  0  0  0  0  0  0
    2.3500   -2.0150    0.8400 N   0  0  0  0  0  0  0  0  0  0  0  0
    1.3250   -0.9810    0.9230 C   0  0  1  0  0  0  0  0  0  0  0  0
    1.9360    0.1880    0.1880 C   0  0  0  0  0  0  0  0  0  0  0  0
    1.9730    1.4630    0.6920 C   0  0  0  0  0  0  0  0  0  0  0  0
    2.5470    2.4720   -0.0410 C   0  0  0  0  0  0  0  0  0  0  0  0
    3.0890    2.2170   -1.2820 C   0  0  0  0  0  0  0  0  0  0  0  0
    3.0340    0.9570   -1.7410 N   0  0  0  0  0  0  0  0  0  0  0  0
    2.4790   -0.0430   -1.0460 C   0  0  0  0  0  0  0  0  0  0  0  0
    0.1950   -1.5420    0.1280 C   0  0  0  0  0  0  0  0  0  0  0  0
    0.6000   -2.7320   -0.4360 C   0  0  0  0  0  0  0  0  0  0  0  0
   -0.4490   -3.1710   -1.1670 N   0  0  0  0  0  0  0  0  0  0  0  0
   -1.4480   -2.3240   -1.0730 N   0  0  0  0  0  0  0  0  0  0  0  0
   -1.1010   -1.2770   -0.2680 C   0  0  0  0  0  0  0  0  0  0  0  0
   -1.9720   -0.1570    0.0530 C   0  0  0  0  0  0  0  0  0  0  0  0
   -3.2260   -0.0610   -0.5260 C   0  0  0  0  0  0  0  0  0  0  0  0
   -4.1030    0.9690   -0.2500 C   0  0  0  0  0  0  0  0  0  0  0  0
   -3.7490    1.9500    0.6260 C   0  0  0  0  0  0  0  0  0  0  0  0
   -2.5120    1.8900    1.2220 C   0  0  0  0  0  0  0  0  0  0  0  0
   -1.6340    0.8390    0.9330 C   0  0  0  0  0  0  0  0  0  0  0  0
  1  2  2  0
  2  3  1  0
  2 12  1  0
  3  4  1  0
  4  5  1  6
  4 11  1  0
  5  6  2  0
  5 10  1  0
  6  7  1  0
  7  8  2  0
  8  9  1  0
  9 10  2  0
 11 12  1  0
 11 15  2  0
 12 13  2  0
 13 14  1  0
 14 15  1  0
 15 16  1  0
 16 17  2  0
 16 21  1  0
 17 18  1  0
 18 19  2  0
 19 20  1  0
 20 21  2  0
M  END
