
     RDKit          3D

 22 24  0  0  0  0  0  0  0  0999 V2000
   -4.9970    0.8220   -1.5890 C   0  0  0  0  0  0  0  0  0  0  0  0
   -3.9260    1.0490   -0.5430 C   0  0  1  0  0  0  0  0  0  0  0  0
   -4.5950    1.4840    0.7070 C   0  0  0  0  0  0  0  0  0  0  0  0
   -3.0030   -0.0740   -0.4350 C   0  0  0  0  0  0  0  0  0  0  0  0
   -3.1330   -1.1870   -1.1810 N   0  0  0  0  0  0  0  0  0  0  0  0
   -2.1810   -2.0400   -0.8930 N   0  0  0  0  0  0  0  0  0  0  0  0
   -1.3760   -1.5330    0.0580 C   0  0  0  0  0  0  0  0  0  0  0  0
   -1.8960   -0.2910    0.3480 C   0  0  0  0  0  0  0  0  0  0  0  0
   -1.4080    0.6820    1.3240 C   0  0  0  0  0  0  0  0  0  0  0  0
   -0.2750    0.3570    2.0430 O   0  0  0  0  0  0  0  0  0  0  0  0
    0.9940    0.0920    1.6970 C   0  0  0  0  0  0  0  0  0  0  0  0
    1.9170   -0.2150    2.6710 C   0  0  0  0  0  0  0  0  0  0  0  0
    3.2450   -0.4910    2.3150 C   0  0  0  0  0  0  0  0  0  0  0  0
    4.3790   -0.8780    3.6070 Cl  0  0  0  0  0  0  0  0  0  0  0  0
    3.6200   -0.4530    0.9950 C   0  0  0  0  0  0  0  0  0  0  0  0
    2.7200   -0.1510    0.0170 C   0  0  0  0  0  0  0  0  0  0  0  0
    1.4170    0.1180    0.3920 C   0  0  0  0  0  0  0  0  0  0  0  0
    3.0990   -0.1050   -1.4160 C   0  0  0  0  0  0  0  0  0  0  0  0
    4.4750   -0.3420   -1.6720 N   0  0  0  0  0  0  0  0  0  0  0  0
    5.4350   -0.3570   -0.6570 C   0  0  0  0  0  0  0  0  0  0  0  0
    6.6520   -0.0330   -0.8470 O   0  0  0  0  0  0  0  0  0  0  0  0
    5.0580   -0.7610    0.7050 C   0  0  0  0  0  0  0  0  0  0  0  0
  2  1  1  6
  2  3  1  0
  2  4  1  0
  4  5  2  0
  4  8  1  0
  5  6  1  0
  6  7  1  0
  7  8  2  0
  8  9  1  0
  9 10  1  0
 10 11  1  0
 11 12  2  0
 11 17  1  0
 12 13  1  0
 13 14  1  0
 13 15  2  0
 15 16  1  0
 15 22  1  0
 16 17  2  0
 16 18  1  0
 18 19  1  0
 19 20  1  0
 20 21  2  0
 20 22  1  0
M  END
