
     RDKit          3D

 23 25  0  0  0  0  0  0  0  0999 V2000
    5.8400   -1.1310   -0.7080 N   0  0  0  0  0  0  0  0  0  0  0  0
    4.9740   -0.1420   -0.1640 C   0  0  0  0  0  0  0  0  0  0  0  0
    3.6200   -0.2360   -0.3150 C   0  0  0  0  0  0  0  0  0  0  0  0
    2.8170    0.7490    0.2310 C   0  0  0  0  0  0  0  0  0  0  0  0
    1.4020    0.6930    0.0980 N   0  0  0  0  0  0  0  0  0  0  0  0
    0.7540   -0.3860   -0.6070 C   0  0  0  0  0  0  0  0  0  0  0  0
   -0.7180   -0.2400   -0.6210 C   0  0  0  0  0  0  0  0  0  0  0  0
   -1.3350    0.4500   -1.6450 C   0  0  0  0  0  0  0  0  0  0  0  0
   -2.7090    0.5790   -1.6460 C   0  0  0  0  0  0  0  0  0  0  0  0
   -3.5080    1.4540   -2.9400 Cl  0  0  0  0  0  0  0  0  0  0  0  0
   -3.5160    0.0460   -0.6620 C   0  0  0  0  0  0  0  0  0  0  0  0
   -2.8930   -0.6500    0.3700 C   0  0  0  0  0  0  0  0  0  0  0  0
   -1.5200   -0.7840    0.3780 C   0  0  0  0  0  0  0  0  0  0  0  0
   -3.7510   -1.2100    1.4040 C   0  0  0  0  0  0  0  0  0  0  0  0
   -3.2050   -1.8430    2.3460 O   0  0  0  0  0  0  0  0  0  0  0  0
   -5.2030   -1.0630    1.3860 C   0  0  0  0  0  0  0  0  0  0  0  0
   -5.8050   -0.4010    0.4070 C   0  0  0  0  0  0  0  0  0  0  0  0
   -7.5480   -0.2330    0.3990 Cl  0  0  0  0  0  0  0  0  0  0  0  0
   -4.9530    0.1630   -0.6340 C   0  0  0  0  0  0  0  0  0  0  0  0
   -5.5220    0.7930   -1.5660 O   0  0  0  0  0  0  0  0  0  0  0  0
    3.4200    1.7890    0.9090 C   0  0  0  0  0  0  0  0  0  0  0  0
    4.7810    1.8710    1.0540 C   0  0  0  0  0  0  0  0  0  0  0  0
    5.5280    0.8950    0.5090 N   0  0  0  0  0  0  0  0  0  0  0  0
  1  2  1  0
  2  3  2  0
  2 23  1  0
  3  4  1  0
  4  5  1  0
  4 21  2  0
  5  6  1  0
  6  7  1  0
  7  8  2  0
  7 13  1  0
  8  9  1  0
  9 10  1  0
  9 11  2  0
 11 12  1  0
 11 19  1  0
 12 13  2  0
 12 14  1  0
 14 15  2  0
 14 16  1  0
 16 17  2  0
 17 18  1  0
 17 19  1  0
 19 20  2  0
 21 22  1  0
 22 23  2  0
M  END
