
     RDKit          3D

 26 27  0  0  0  0  0  0  0  0999 V2000
    8.0530   -0.2280    1.1670 N   0  0  0  0  0  0  0  0  0  0  0  0
    6.6400   -0.3370    1.1410 C   0  0  0  0  0  0  0  0  0  0  0  0
    6.1170   -1.1730    0.3660 O   0  0  0  0  0  0  0  0  0  0  0  0
    5.8330    0.5190    2.0090 C   0  0  0  0  0  0  0  0  0  0  0  0
    4.4190    0.3030    1.8800 N   0  0  0  0  0  0  0  0  0  0  0  0
    3.7680    0.4820    0.7150 C   0  0  0  0  0  0  0  0  0  0  0  0
    4.5070    0.8690   -0.3110 O   0  0  0  0  0  0  0  0  0  0  0  0
    2.4940    0.3520    0.3530 N   0  0  0  0  0  0  0  0  0  0  0  0
    1.2010    0.1860    0.1140 C   0  0  0  0  0  0  0  0  0  0  0  0
    0.9640    0.4700   -1.1340 O   0  0  0  0  0  0  0  0  0  0  0  0
    0.1490   -0.2010    0.8720 N   0  0  0  0  0  0  0  0  0  0  0  0
   -1.1570   -0.2810    0.2680 C   0  0  0  0  0  0  0  0  0  0  0  0
   -1.6450   -1.4740    0.1610 C   0  0  0  0  0  0  0  0  0  0  0  0
   -2.8400   -2.0250   -0.3450 C   0  0  0  0  0  0  0  0  0  0  0  0
   -3.0830   -3.3670   -0.3210 C   0  0  0  0  0  0  0  0  0  0  0  0
   -4.3620   -3.8620   -0.8720 C   0  0  0  0  0  0  0  0  0  0  0  0
   -4.5910   -3.4660   -2.2840 C   0  0  0  0  0  0  0  0  0  0  0  0
   -4.6240   -2.0540   -2.5300 N   0  0  0  0  0  0  0  0  0  0  0  0
   -4.2300   -1.1810   -1.0810 S   0  0  0  0  0  0  0  0  0  0  0  0
   -5.3840   -1.0520   -0.1350 O   0  0  0  0  0  0  0  0  0  0  0  0
   -1.7790    0.9500   -0.1200 C   0  0  0  0  0  0  0  0  0  0  0  0
   -2.8840    1.0180   -0.6510 O   0  0  0  0  0  0  0  0  0  0  0  0
   -1.1440    2.2270    0.0890 N   0  0  0  0  0  0  0  0  0  0  0  0
   -1.7450    3.4520   -0.2920 C   0  0  2  0  0  0  0  0  0  0  0  0
   -0.8180    4.3770   -1.0890 C   0  0  0  0  0  0  0  0  0  0  0  0
   -1.4340    4.7570    0.2710 C   0  0  0  0  0  0  0  0  0  0  0  0
  1  2  1  0
  2  3  2  0
  2  4  1  0
  4  5  1  0
  5  6  1  0
  6  7  2  0
  6  8  1  0
  8  9  1  0
  9 10  2  0
  9 11  1  0
 11 12  1  0
 12 13  2  3
 12 21  1  0
 13 14  1  0
 14 15  2  0
 14 19  1  0
 15 16  1  0
 16 17  1  0
 17 18  1  0
 19 18  1  6
 19 20  2  0
 21 22  2  0
 21 23  1  0
 24 23  1  1
 24 25  1  0
 24 26  1  0
 25 26  1  0
M  CHG  1  18   1
M  END
