
     RDKit          3D

 26 28  0  0  0  0  0  0  0  0999 V2000
   -0.3930   -1.7520    0.9230 C   0  0  0  0  0  0  0  0  0  0  0  0
    0.1470   -0.8530   -0.1240 C   0  0  2  0  0  0  0  0  0  0  0  0
    1.5580   -1.0330   -0.5620 C   0  0  0  0  0  0  0  0  0  0  0  0
    2.6510   -0.8760    0.4020 C   0  0  1  0  0  0  0  0  0  0  0  0
    2.5990   -1.8540    1.5370 C   0  0  0  0  0  0  0  0  0  0  0  0
    2.6740   -3.1780    1.0950 O   0  0  0  0  0  0  0  0  0  0  0  0
    4.0300   -1.0950   -0.2750 C   0  0  0  0  0  0  0  0  0  0  0  0
    4.2290   -0.1610   -1.3170 O   0  0  0  0  0  0  0  0  0  0  0  0
    4.2350    1.2040   -1.1140 C   0  0  0  0  0  0  0  0  0  0  0  0
    4.6520    1.6530    0.0180 N   0  0  0  0  0  0  0  0  0  0  0  0
    3.7940    2.0970   -2.1250 N   0  0  0  0  0  0  0  0  0  0  0  0
    0.0750    0.5160    0.4330 N   0  0  0  0  0  0  0  0  0  0  0  0
   -1.1880    0.6240    1.0150 N   0  0  0  0  0  0  0  0  0  0  0  0
   -2.3200    0.5310    0.0850 C   0  0  0  0  0  0  0  0  0  0  0  0
   -2.0450   -0.2330   -1.0050 C   0  0  0  0  0  0  0  0  0  0  0  0
   -3.5630   -0.1700   -1.9350 S   0  0  0  0  0  0  0  0  0  0  0  0
   -4.4460    0.8550   -0.8200 C   0  0  0  0  0  0  0  0  0  0  0  0
   -5.7440    1.3650   -0.8460 C   0  0  0  0  0  0  0  0  0  0  0  0
   -6.4360    1.0560   -1.8350 O   0  0  0  0  0  0  0  0  0  0  0  0
   -6.1750    2.1410    0.1650 N   0  0  0  0  0  0  0  0  0  0  0  0
   -5.2910    2.3660    1.1430 C   0  0  0  0  0  0  0  0  0  0  0  0
   -5.6980    3.0970    2.0940 O   0  0  0  0  0  0  0  0  0  0  0  0
   -4.0470    1.8860    1.1830 N   0  0  0  0  0  0  0  0  0  0  0  0
   -3.5550    1.0870    0.1750 C   0  0  0  0  0  0  0  0  0  0  0  0
   -0.7840   -0.9400   -1.3200 C   0  0  1  0  0  0  0  0  0  0  0  0
   -0.1840   -0.4570   -2.4770 O   0  0  0  0  0  0  0  0  0  0  0  0
  2  1  1  1
  2  3  1  0
  2 12  1  0
  2 25  1  0
  4  3  1  6
  4  5  1  0
  4  7  1  0
  5  6  1  0
  7  8  1  0
  8  9  1  0
  9 10  2  0
  9 11  1  0
 12 13  1  0
 13 14  1  0
 14 15  2  0
 14 24  1  0
 15 16  1  0
 15 25  1  0
 16 17  1  0
 17 18  1  0
 17 24  2  0
 18 19  2  0
 18 20  1  0
 20 21  1  0
 21 22  2  0
 21 23  1  0
 23 24  1  0
 25 26  1  6
M  CHG  1  12   1
M  END
