
     RDKit          3D

 26 28  0  0  0  0  0  0  0  0999 V2000
   -3.6120   -1.1910   -1.3580 C   0  0  0  0  0  0  0  0  0  0  0  0
   -4.1080   -0.1060   -0.4310 C   0  0  1  0  0  0  0  0  0  0  0  0
   -3.8620    1.1960   -1.1610 C   0  0  0  0  0  0  0  0  0  0  0  0
   -2.5070    1.5910   -1.4150 N   0  0  0  0  0  0  0  0  0  0  0  0
   -4.7610    1.9490   -1.5570 O   0  0  0  0  0  0  0  0  0  0  0  0
   -5.5670   -0.1930   -0.3450 N   0  0  0  0  0  0  0  0  0  0  0  0
   -6.1130   -0.8990    0.7850 C   0  0  0  0  0  0  0  0  0  0  0  0
   -7.3220   -0.9310    1.0610 O   0  0  0  0  0  0  0  0  0  0  0  0
   -5.0560   -1.5980    1.6010 C   0  0  0  0  0  0  0  0  0  0  0  0
   -4.1330   -0.6430    1.9510 O   0  0  0  0  0  0  0  0  0  0  0  0
   -3.4470   -0.1000    0.9070 C   0  0  1  0  0  0  0  0  0  0  0  0
   -2.0690   -0.6320    0.9170 C   0  0  0  0  0  0  0  0  0  0  0  0
   -1.6250   -1.9240    1.1210 C   0  0  0  0  0  0  0  0  0  0  0  0
   -0.3180   -2.1850    1.0860 C   0  0  0  0  0  0  0  0  0  0  0  0
    0.5340   -1.0930    0.8370 C   0  0  0  0  0  0  0  0  0  0  0  0
    1.9810   -1.1220    0.7520 N   0  0  0  0  0  0  0  0  0  0  0  0
    2.6800    0.0740    0.4930 C   0  0  0  0  0  0  0  0  0  0  0  0
    2.0010    1.1250    0.3480 O   0  0  0  0  0  0  0  0  0  0  0  0
    4.0800    0.1750    0.3880 N   0  0  0  0  0  0  0  0  0  0  0  0
    4.7320    1.4650    0.1160 C   0  0  1  0  0  0  0  0  0  0  0  0
    5.8100    1.7570    1.1060 C   0  0  0  0  0  0  0  0  0  0  0  0
    7.0690    1.7190    0.3970 N   0  0  0  0  0  0  0  0  0  0  0  0
    6.7890    1.0360   -0.8230 C   0  0  0  0  0  0  0  0  0  0  0  0
    7.6150    0.3230   -1.4930 O   0  0  0  0  0  0  0  0  0  0  0  0
    5.4400    1.3080   -1.1240 N   0  0  0  0  0  0  0  0  0  0  0  0
   -0.5720    0.2280    0.6690 S   0  0  0  0  0  0  0  0  0  0  0  0
  2  1  1  6
  2  3  1  0
  2  6  1  0
  2 11  1  0
  3  4  1  0
  3  5  2  0
  6  7  1  0
  7  8  2  0
  7  9  1  0
  9 10  1  0
 10 11  1  0
 11 12  1  6
 12 13  2  0
 12 26  1  0
 13 14  1  0
 14 15  2  0
 15 16  1  0
 15 26  1  0
 16 17  1  0
 17 18  2  0
 17 19  1  0
 20 19  1  1
 20 21  1  0
 20 25  1  0
 21 22  1  0
 22 23  1  0
 23 24  2  0
 23 25  1  0
M  CHG  1  22   1
M  END
