
     RDKit          3D

 26 27  0  0  0  0  0  0  0  0999 V2000
   -1.3350    2.5790    0.2240 C   0  0  0  0  0  0  0  0  0  0  0  0
   -2.5860    1.8280   -0.1320 C   0  0  1  0  0  0  0  0  0  0  0  0
   -3.6360    2.1760    0.9000 C   0  0  0  0  0  0  0  0  0  0  0  0
   -3.0430    2.3690   -1.3440 O   0  0  0  0  0  0  0  0  0  0  0  0
   -2.7160    1.4970   -2.3520 C   0  0  0  0  0  0  0  0  0  0  0  0
   -2.4580    0.2620   -1.8130 O   0  0  0  0  0  0  0  0  0  0  0  0
   -2.4270    0.3990   -0.4230 C   0  0  2  0  0  0  0  0  0  0  0  0
   -3.6270   -0.3650    0.1020 C   0  0  0  0  0  0  0  0  0  0  0  0
   -3.5910   -1.7530   -0.2480 N   0  0  0  0  0  0  0  0  0  0  0  0
   -1.1910   -0.2360    0.1050 C   0  0  0  0  0  0  0  0  0  0  0  0
   -0.0180    0.3540    0.3670 N   0  0  0  0  0  0  0  0  0  0  0  0
    0.8710   -0.5550    0.8220 C   0  0  0  0  0  0  0  0  0  0  0  0
    2.2660   -0.3310    1.2430 C   0  0  2  0  0  0  0  0  0  0  0  0
    2.5110   -0.9330    2.4780 O   0  0  0  0  0  0  0  0  0  0  0  0
    2.5820    1.1380    1.4280 C   0  0  0  0  0  0  0  0  0  0  0  0
    2.2960    1.9670   -0.1500 S   0  0  0  0  0  0  0  0  0  0  0  0
    3.4740    1.4160   -1.4110 C   0  0  0  0  0  0  0  0  0  0  0  0
    4.8410    1.8200   -1.1180 C   0  0  0  0  0  0  0  0  0  0  0  0
    5.7330    1.0650   -0.3050 N   0  0  0  0  0  0  0  0  0  0  0  0
    5.2700    2.9210   -1.6220 O   0  0  0  0  0  0  0  0  0  0  0  0
    0.2390   -1.7280    0.8420 N   0  0  0  0  0  0  0  0  0  0  0  0
    0.7940   -3.0550    1.2060 C   0  0  0  0  0  0  0  0  0  0  0  0
    1.1870   -3.6860   -0.1120 C   0  0  0  0  0  0  0  0  0  0  0  0
    0.3240   -4.6500   -0.7100 N   0  0  0  0  0  0  0  0  0  0  0  0
    2.2510   -3.3640   -0.6660 O   0  0  0  0  0  0  0  0  0  0  0  0
   -0.9900   -1.5250    0.4130 N   0  0  0  0  0  0  0  0  0  0  0  0
  2  1  1  1
  2  3  1  0
  2  4  1  0
  2  7  1  0
  4  5  1  0
  5  6  1  0
  6  7  1  0
  7  8  1  1
  7 10  1  0
  8  9  1  0
 10 11  1  0
 10 26  2  0
 11 12  2  0
 12 13  1  0
 12 21  1  0
 13 14  1  1
 13 15  1  0
 15 16  1  0
 16 17  1  0
 17 18  1  0
 18 19  1  0
 18 20  2  0
 21 22  1  0
 21 26  1  0
 22 23  1  0
 23 24  1  0
 23 25  2  0
M  CHG  1   9   1
M  END
