
     RDKit          3D

 26 27  0  0  0  0  0  0  0  0999 V2000
    3.9560    0.9250   -0.4420 C   0  0  0  0  0  0  0  0  0  0  0  0
    4.1160    0.2400    0.8880 C   0  0  1  0  0  0  0  0  0  0  0  0
    3.0810   -1.2090    1.1020 S   0  0  0  0  0  0  0  0  0  0  0  0
    1.3370   -0.8290    1.2490 C   0  0  0  0  0  0  0  0  0  0  0  0
    0.8090   -0.3270   -0.0510 C   0  0  0  0  0  0  0  0  0  0  0  0
   -0.5290    0.0410   -0.1470 N   0  0  0  0  0  0  0  0  0  0  0  0
   -1.0190    1.3980    0.0600 C   0  0  0  0  0  0  0  0  0  0  0  0
   -0.2950    2.1100    0.8370 O   0  0  0  0  0  0  0  0  0  0  0  0
   -2.2510    1.9470   -0.5610 C   0  0  2  0  0  0  0  0  0  0  0  0
   -2.8370    2.9900    0.2590 N   0  0  0  0  0  0  0  0  0  0  0  0
   -2.9110    4.3060   -0.2190 C   0  0  0  0  0  0  0  0  0  0  0  0
   -3.4750    5.3830    0.5310 N   0  0  0  0  0  0  0  0  0  0  0  0
   -2.4570    4.5580   -1.3710 O   0  0  0  0  0  0  0  0  0  0  0  0
   -3.2190    0.8610   -0.8870 C   0  0  0  0  0  0  0  0  0  0  0  0
   -2.9760   -0.3830   -0.0640 C   0  0  1  0  0  0  0  0  0  0  0  0
   -3.9460   -1.2930   -0.2570 O   0  0  0  0  0  0  0  0  0  0  0  0
   -3.7440   -2.5310   -0.8160 C   0  0  0  0  0  0  0  0  0  0  0  0
   -4.7190   -3.3220   -1.0300 O   0  0  0  0  0  0  0  0  0  0  0  0
   -2.4700   -2.9750   -1.1730 N   0  0  0  0  0  0  0  0  0  0  0  0
   -1.3420   -2.0590   -0.9290 C   0  0  0  0  0  0  0  0  0  0  0  0
   -0.0220   -2.5660   -1.2760 C   0  0  0  0  0  0  0  0  0  0  0  0
   -0.0100   -3.8330   -0.4330 N   0  0  0  0  0  0  0  0  0  0  0  0
   -1.5800   -0.9050   -0.4140 C   0  0  0  0  0  0  0  0  0  0  0  0
    5.5500   -0.0720    1.0930 C   0  0  0  0  0  0  0  0  0  0  0  0
    5.9550   -0.7140    2.2790 N   0  0  0  0  0  0  0  0  0  0  0  0
    6.3820    0.2320    0.2240 O   0  0  0  0  0  0  0  0  0  0  0  0
  2  1  1  6
  2  3  1  0
  2 24  1  0
  3  4  1  0
  4  5  1  0
  5  6  1  0
  6  7  1  0
  6 23  1  0
  7  8  2  0
  7  9  1  0
  9 10  1  1
  9 14  1  0
 10 11  1  0
 11 12  1  0
 11 13  2  0
 15 14  1  6
 15 16  1  0
 15 23  1  0
 16 17  1  0
 17 18  2  0
 17 19  1  0
 19 20  1  0
 20 21  1  0
 20 23  2  0
 21 22  1  0
 24 25  1  0
 24 26  2  0
M  CHG  1  22   1
M  END
