
     RDKit          3D

 26 28  0  0  0  0  0  0  0  0999 V2000
   -7.1700   -2.1780    1.3600 N   0  0  0  0  0  0  0  0  0  0  0  0
   -6.2560   -1.7680    0.3500 C   0  0  0  0  0  0  0  0  0  0  0  0
   -6.4450   -2.0150   -0.9630 N   0  0  0  0  0  0  0  0  0  0  0  0
   -5.5320   -1.5970   -1.8810 C   0  0  0  0  0  0  0  0  0  0  0  0
   -4.4180   -0.9290   -1.5290 N   0  0  0  0  0  0  0  0  0  0  0  0
   -4.1770   -0.6540   -0.2370 C   0  0  0  0  0  0  0  0  0  0  0  0
   -5.1030   -1.0780    0.6880 C   0  0  0  0  0  0  0  0  0  0  0  0
   -4.6340   -0.6840    1.8850 N   0  0  0  0  0  0  0  0  0  0  0  0
   -3.4530   -0.0370    1.6870 C   0  0  0  0  0  0  0  0  0  0  0  0
   -3.1670   -0.0160    0.3760 N   0  0  0  0  0  0  0  0  0  0  0  0
   -1.9960    0.5790   -0.2030 C   0  0  2  0  0  0  0  0  0  0  0  0
   -1.2810   -0.3070   -0.9990 O   0  0  0  0  0  0  0  0  0  0  0  0
   -0.1630    0.5040   -1.3480 C   0  0  2  0  0  0  0  0  0  0  0  0
    0.8950   -0.3240   -1.9770 C   0  0  0  0  0  0  0  0  0  0  0  0
    2.3380    0.5440   -2.5080 S   0  0  0  0  0  0  0  0  0  0  0  0
    3.4140    1.1550   -1.2250 C   0  0  0  0  0  0  0  0  0  0  0  0
    3.9890   -0.0390   -0.4810 C   0  0  0  0  0  0  0  0  0  0  0  0
    4.9150    0.3670    0.6280 C   0  0  2  0  0  0  0  0  0  0  0  0
    6.0220    1.1290    0.0760 N   0  0  0  0  0  0  0  0  0  0  0  0
    5.4130   -0.8930    1.2590 C   0  0  0  0  0  0  0  0  0  0  0  0
    6.6250   -1.2130    1.2780 O   0  0  0  0  0  0  0  0  0  0  0  0
    4.4600   -1.7140    1.8370 O   0  0  0  0  0  0  0  0  0  0  0  0
    0.2860    1.1110   -0.0650 C   0  0  1  0  0  0  0  0  0  0  0  0
    0.3550    2.5120   -0.2390 O   0  0  0  0  0  0  0  0  0  0  0  0
   -0.9500    0.9230    0.8330 C   0  0  1  0  0  0  0  0  0  0  0  0
   -1.2670    2.0890    1.5230 O   0  0  0  0  0  0  0  0  0  0  0  0
  1  2  1  0
  2  3  2  0
  2  7  1  0
  3  4  1  0
  4  5  2  0
  5  6  1  0
  6  7  2  0
  6 10  1  0
  7  8  1  0
  8  9  2  0
  9 10  1  0
 11 10  1  1
 11 12  1  0
 11 25  1  0
 12 13  1  0
 13 14  1  1
 13 23  1  0
 14 15  1  0
 15 16  1  0
 16 17  1  0
 17 18  1  0
 18 19  1  6
 18 20  1  0
 20 21  2  0
 20 22  1  0
 23 24  1  6
 23 25  1  0
 25 26  1  6
M  CHG  1  19   1
M  END
