
     RDKit          3D

 26 27  0  0  0  0  0  0  0  0999 V2000
    8.1720   -0.2480    1.5470 C   0  0  0  0  0  0  0  0  0  0  0  0
    8.0160   -0.7030    0.1230 C   0  0  1  0  0  0  0  0  0  0  0  0
    8.1580   -2.0950    0.0550 O   0  0  0  0  0  0  0  0  0  0  0  0
    6.7500   -0.2660   -0.4880 C   0  0  0  0  0  0  0  0  0  0  0  0
    6.7550    0.8430   -1.3040 C   0  0  0  0  0  0  0  0  0  0  0  0
    5.5570    1.2220   -1.8600 C   0  0  0  0  0  0  0  0  0  0  0  0
    4.4170    0.4890   -1.5840 C   0  0  0  0  0  0  0  0  0  0  0  0
    3.2030    0.9120   -2.1770 N   0  0  0  0  0  0  0  0  0  0  0  0
    2.0320    0.2160   -1.9360 N   0  0  0  0  0  0  0  0  0  0  0  0
    1.0730    0.5390   -0.9470 C   0  0  0  0  0  0  0  0  0  0  0  0
    1.2890    1.5350   -0.2200 O   0  0  0  0  0  0  0  0  0  0  0  0
   -0.1420   -0.2230   -0.7360 C   0  0  0  0  0  0  0  0  0  0  0  0
   -0.3450   -1.2100   -1.4590 O   0  0  0  0  0  0  0  0  0  0  0  0
   -1.1080    0.0920    0.2420 N   0  0  0  0  0  0  0  0  0  0  0  0
   -2.3080   -0.6970    0.4140 C   0  0  1  0  0  0  0  0  0  0  0  0
   -2.9940   -0.8740    1.6900 C   0  0  0  0  0  0  0  0  0  0  0  0
   -3.6170   -0.0230    0.5960 C   0  0  2  0  0  0  0  0  0  0  0  0
   -5.0530   -0.6640   -0.2750 S   0  0  0  0  0  0  0  0  0  0  0  0
   -5.2960   -2.0810    0.2390 O   0  0  0  0  0  0  0  0  0  0  0  0
   -6.4530    0.3750    0.1650 C   0  0  2  0  0  0  0  0  0  0  0  0
   -6.6320    0.2920    1.6480 C   0  0  0  0  0  0  0  0  0  0  0  0
   -7.7290    1.0850    2.1390 N   0  0  0  0  0  0  0  0  0  0  0  0
   -7.6980   -0.0230   -0.5960 C   0  0  0  0  0  0  0  0  0  0  0  0
   -7.5480    0.0760   -1.9560 O   0  0  0  0  0  0  0  0  0  0  0  0
    4.4760   -0.5930   -0.7730 N   0  0  0  0  0  0  0  0  0  0  0  0
    5.6110   -0.9530   -0.2450 N   0  0  0  0  0  0  0  0  0  0  0  0
  2  1  1  1
  2  3  1  0
  2  4  1  0
  4  5  2  0
  4 26  1  0
  5  6  1  0
  6  7  2  0
  7  8  1  0
  7 25  1  0
  8  9  1  0
  9 10  1  0
 10 11  2  0
 10 12  1  0
 12 13  2  0
 12 14  1  0
 15 14  1  1
 15 16  1  0
 15 17  1  0
 17 16  1  1
 17 18  1  0
 18 19  2  0
 18 20  1  1
 20 21  1  1
 20 23  1  0
 21 22  1  0
 23 24  1  0
 25 26  2  0
M  CHG  1  25   1
M  END
