
     RDKit          3D

 24 24  0  0  0  0  0  0  0  0999 V2000
   -3.2910    3.1300    1.5620 C   0  0  0  0  0  0  0  0  0  0  0  0
   -3.5520    2.6910    0.1300 C   0  0  0  0  0  0  0  0  0  0  0  0
   -2.3350    2.0830   -0.3620 N   0  0  0  0  0  0  0  0  0  0  0  0
   -2.5460    1.1350   -1.4020 C   0  0  2  0  0  0  0  0  0  0  0  0
   -3.4750    1.6360   -2.4870 C   0  0  0  0  0  0  0  0  0  0  0  0
   -2.9860   -0.2240   -0.9750 C   0  0  0  0  0  0  0  0  0  0  0  0
   -2.0060   -0.9240   -0.0630 C   0  0  1  0  0  0  0  0  0  0  0  0
   -2.5150   -2.2950    0.3330 C   0  0  0  0  0  0  0  0  0  0  0  0
   -2.7380   -3.2080   -0.8480 C   0  0  0  0  0  0  0  0  0  0  0  0
   -3.2290   -4.5100   -0.3290 C   0  0  0  0  0  0  0  0  0  0  0  0
   -3.5300   -5.5820   -1.2160 N   0  0  0  0  0  0  0  0  0  0  0  0
   -3.3960   -4.7120    0.8970 O   0  0  0  0  0  0  0  0  0  0  0  0
   -0.6840   -0.9930   -0.6370 N   0  0  0  0  0  0  0  0  0  0  0  0
    0.4820   -0.4230   -0.0390 C   0  0  0  0  0  0  0  0  0  0  0  0
    0.3680    0.1790    1.0580 O   0  0  0  0  0  0  0  0  0  0  0  0
    1.7630   -0.5180   -0.6490 N   0  0  0  0  0  0  0  0  0  0  0  0
    2.9050    0.0590   -0.0330 C   0  0  0  0  0  0  0  0  0  0  0  0
    3.8960   -0.7260    0.2970 C   0  0  0  0  0  0  0  0  0  0  0  0
    5.0790   -0.1620    0.9290 C   0  0  0  0  0  0  0  0  0  0  0  0
    6.2360   -1.0210    1.3240 C   0  0  0  0  0  0  0  0  0  0  0  0
    5.1190    1.1330    1.1530 C   0  0  0  0  0  0  0  0  0  0  0  0
    6.3440    1.7170    1.8070 C   0  0  0  0  0  0  0  0  0  0  0  0
    4.1000    2.0300    0.8260 N   0  0  0  0  0  0  0  0  0  0  0  0
    2.9390    1.5000    0.2070 C   0  0  0  0  0  0  0  0  0  0  0  0
  1  2  1  0
  2  3  1  0
  3  4  1  0
  4  5  1  6
  4  6  1  0
  7  6  1  6
  7  8  1  0
  7 13  1  0
  8  9  1  0
  9 10  1  0
 10 11  1  0
 10 12  2  0
 13 14  1  0
 14 15  2  0
 14 16  1  0
 16 17  1  0
 17 18  2  0
 17 24  1  0
 18 19  1  0
 19 20  1  0
 19 21  2  0
 21 22  1  0
 21 23  1  0
 23 24  1  0
M  CHG  2   3   1  23   1
M  END
