
     RDKit          3D

 25 27  0  0  0  0  0  0  0  0999 V2000
    2.9160    3.3400    2.8620 C   0  0  0  0  0  0  0  0  0  0  0  0
    2.7370    2.0350    2.2300 C   0  0  0  0  0  0  0  0  0  0  0  0
    1.8280    1.6660    1.4650 N   0  0  0  0  0  0  0  0  0  0  0  0
    1.8150    0.3800    0.9570 C   0  0  2  0  0  0  0  0  0  0  0  0
    3.2330   -0.1290    0.8190 C   0  0  2  0  0  0  0  0  0  0  0  0
    3.2340   -1.4800    0.8450 O   0  0  0  0  0  0  0  0  0  0  0  0
    2.2150   -1.9590    0.0330 C   0  0  2  0  0  0  0  0  0  0  0  0
    2.6950   -3.2010   -0.6420 C   0  0  0  0  0  0  0  0  0  0  0  0
    3.8210   -2.9590   -1.4280 O   0  0  0  0  0  0  0  0  0  0  0  0
    1.7720   -0.9800   -1.0280 C   0  0  2  0  0  0  0  0  0  0  0  0
    2.7820   -0.6330   -1.8990 O   0  0  0  0  0  0  0  0  0  0  0  0
    1.1300    0.2640   -0.3850 C   0  0  1  0  0  0  0  0  0  0  0  0
   -0.1790   -0.0030   -0.1980 O   0  0  0  0  0  0  0  0  0  0  0  0
   -1.1060    0.7800   -0.8120 C   0  0  2  0  0  0  0  0  0  0  0  0
   -1.7630    1.5300    0.1470 O   0  0  0  0  0  0  0  0  0  0  0  0
   -2.7690    0.8200    0.7530 C   0  0  2  0  0  0  0  0  0  0  0  0
   -2.3180   -0.4910    1.3520 C   0  0  0  0  0  0  0  0  0  0  0  0
   -3.4420   -1.0820    1.9430 O   0  0  0  0  0  0  0  0  0  0  0  0
   -3.9060    0.6570   -0.1920 C   0  0  2  0  0  0  0  0  0  0  0  0
   -4.7080   -0.4460    0.1010 O   0  0  0  0  0  0  0  0  0  0  0  0
   -3.4380    0.6590   -1.5910 C   0  0  2  0  0  0  0  0  0  0  0  0
   -4.2870   -0.1950   -2.3330 O   0  0  0  0  0  0  0  0  0  0  0  0
   -2.0230    0.1580   -1.7850 C   0  0  1  0  0  0  0  0  0  0  0  0
   -1.7060    0.5430   -3.1140 O   0  0  0  0  0  0  0  0  0  0  0  0
    3.8440    0.6330    2.3940 S   0  0  0  0  0  0  0  0  0  0  0  0
  1  2  1  0
  2  3  2  0
  2 25  1  0
  4  3  1  6
  4  5  1  0
  4 12  1  0
  5  6  1  1
  5 25  1  0
  6  7  1  0
  7  8  1  6
  7 10  1  0
  8  9  1  0
 10 11  1  1
 10 12  1  0
 12 13  1  1
 14 13  1  1
 14 15  1  0
 14 23  1  0
 15 16  1  0
 16 17  1  6
 16 19  1  0
 17 18  1  0
 19 20  1  1
 19 21  1  0
 21 22  1  6
 21 23  1  0
 23 24  1  6
M  END
