
     RDKit          3D

 24 25  0  0  0  0  0  0  0  0999 V2000
    5.7610    0.4690    1.6340 C   0  0  0  0  0  0  0  0  0  0  0  0
    4.8880   -0.2170    0.9330 C   0  0  0  0  0  0  0  0  0  0  0  0
    4.9840   -1.6520    0.9570 N   0  0  0  0  0  0  0  0  0  0  0  0
    3.6600   -2.2450    0.9490 C   0  0  0  0  0  0  0  0  0  0  0  0
    2.7250   -1.6300   -0.0340 C   0  0  0  0  0  0  0  0  0  0  0  0
    2.4950   -0.1470    0.2150 C   0  0  1  0  0  0  0  0  0  0  0  0
    1.8420    0.1290    1.4570 N   0  0  0  0  0  0  0  0  0  0  0  0
    0.4060   -0.1060    1.3540 C   0  0  0  0  0  0  0  0  0  0  0  0
   -0.2070    1.1730    0.8410 C   0  0  0  0  0  0  0  0  0  0  0  0
   -1.6190    0.9970    0.7230 N   0  0  0  0  0  0  0  0  0  0  0  0
   -2.2060    0.0250   -0.1160 C   0  0  0  0  0  0  0  0  0  0  0  0
   -1.5190   -0.7370   -0.8060 O   0  0  0  0  0  0  0  0  0  0  0  0
   -3.6840   -0.0630   -0.1510 C   0  0  1  0  0  0  0  0  0  0  0  0
   -4.0270   -1.1310   -1.0830 N   0  0  0  0  0  0  0  0  0  0  0  0
   -5.3710   -1.4890   -1.3610 C   0  0  0  0  0  0  0  0  0  0  0  0
   -5.7120   -2.5300   -2.2690 N   0  0  0  0  0  0  0  0  0  0  0  0
   -6.3250   -0.8880   -0.8020 O   0  0  0  0  0  0  0  0  0  0  0  0
   -4.1540   -0.3550    1.2310 C   0  0  0  0  0  0  0  0  0  0  0  0
   -4.7500    0.9080    1.7400 C   0  0  0  0  0  0  0  0  0  0  0  0
   -4.8250    1.8950    0.6270 C   0  0  0  0  0  0  0  0  0  0  0  0
   -4.2800    1.2480   -0.5990 C   0  0  0  0  0  0  0  0  0  0  0  0
    3.8740    0.4480    0.1720 C   0  0  0  0  0  0  0  0  0  0  0  0
    4.1150    1.4920   -0.5560 C   0  0  0  0  0  0  0  0  0  0  0  0
    5.4420    2.1290   -0.7060 C   0  0  0  0  0  0  0  0  0  0  0  0
  1  2  2  0
  2  3  1  0
  2 22  1  0
  3  4  1  0
  4  5  1  0
  5  6  1  0
  6  7  1  1
  6 22  1  0
  7  8  1  0
  8  9  1  0
  9 10  1  0
 10 11  1  0
 11 12  2  0
 11 13  1  0
 13 14  1  6
 13 18  1  0
 13 21  1  0
 14 15  1  0
 15 16  1  0
 15 17  2  0
 18 19  1  0
 19 20  1  0
 20 21  1  0
 22 23  2  3
 23 24  1  0
M  CHG  2   3   1   7   1
M  END
