
     RDKit          3D

 27 27  0  0  0  0  0  0  0  0999 V2000
    6.7790   -0.4780    0.8550 C   0  0  0  0  0  0  0  0  0  0  0  0
    5.9560   -0.2240   -0.3900 C   0  0  0  0  0  0  0  0  0  0  0  0
    4.8190   -1.2240   -0.4110 C   0  0  0  0  0  0  0  0  0  0  0  0
    3.8980   -1.1070   -1.5630 C   0  0  0  0  0  0  0  0  0  0  0  0
    3.1090    0.0970   -1.7890 C   0  0  0  0  0  0  0  0  0  0  0  0
    2.0790    0.5600   -0.8550 C   0  0  2  0  0  0  0  0  0  0  0  0
    2.4400    0.9330    0.5410 C   0  0  0  0  0  0  0  0  0  0  0  0
    3.3840    2.0670    0.5380 C   0  0  0  0  0  0  0  0  0  0  0  0
    3.7030    2.6780   -0.5060 O   0  0  0  0  0  0  0  0  0  0  0  0
    4.0000    2.5450    1.7460 N   0  0  0  0  0  0  0  0  0  0  0  0
    4.8610    3.5870    1.7150 O   0  0  0  0  0  0  0  0  0  0  0  0
    0.8420   -0.2950   -0.8910 C   0  0  0  0  0  0  0  0  0  0  0  0
    0.7980   -1.3190   -1.6090 O   0  0  0  0  0  0  0  0  0  0  0  0
   -0.3110   -0.0040   -0.1410 N   0  0  0  0  0  0  0  0  0  0  0  0
   -1.5240   -0.8180   -0.1550 C   0  0  2  0  0  0  0  0  0  0  0  0
   -2.5200   -0.0150   -0.8800 C   0  0  0  0  0  0  0  0  0  0  0  0
   -2.0790    0.4620   -2.0500 O   0  0  0  0  0  0  0  0  0  0  0  0
   -3.8270    0.3770   -0.6310 N   0  0  0  0  0  0  0  0  0  0  0  0
   -4.6580    1.1200   -1.6460 C   0  0  0  0  0  0  0  0  0  0  0  0
   -5.2460    2.2290   -0.8380 C   0  0  0  0  0  0  0  0  0  0  0  0
   -4.9740    1.9010    0.6130 C   0  0  0  0  0  0  0  0  0  0  0  0
   -4.7090    0.3480    0.4920 C   0  0  1  0  0  0  0  0  0  0  0  0
   -6.0630   -0.2290    0.2240 C   0  0  0  0  0  0  0  0  0  0  0  0
   -6.0970   -1.5210   -0.2300 O   0  0  0  0  0  0  0  0  0  0  0  0
   -1.9160   -1.4760    1.0700 C   0  0  1  0  0  0  0  0  0  0  0  0
   -3.1320   -2.3410    0.7980 C   0  0  0  0  0  0  0  0  0  0  0  0
   -0.8160   -2.4470    1.5410 C   0  0  0  0  0  0  0  0  0  0  0  0
  1  2  1  0
  2  3  1  0
  3  4  1  0
  4  5  1  0
  6  5  1  1
  6  7  1  0
  6 12  1  0
  7  8  1  0
  8  9  2  0
  8 10  1  0
 10 11  1  0
 12 13  2  0
 12 14  1  0
 15 14  1  1
 15 16  1  0
 15 25  1  0
 16 17  2  0
 16 18  1  0
 18 19  1  0
 18 22  1  0
 19 20  1  0
 20 21  1  0
 21 22  1  0
 22 23  1  6
 23 24  1  0
 25 26  1  6
 25 27  1  0
M  END
