
     RDKit          3D

 24 26  0  0  0  0  0  0  0  0999 V2000
    3.7650   -0.7340   -2.3040 C   0  0  0  0  0  0  0  0  0  0  0  0
    3.9920    0.3900   -1.3470 C   0  0  2  0  0  0  0  0  0  0  0  0
    5.4260    0.3170   -0.8590 C   0  0  0  0  0  0  0  0  0  0  0  0
    3.1030    0.3230   -0.1350 C   0  0  2  0  0  0  0  0  0  0  0  0
    3.3670   -0.9700    0.6000 C   0  0  0  0  0  0  0  0  0  0  0  0
    2.8270   -0.8260    1.9920 C   0  0  0  0  0  0  0  0  0  0  0  0
    1.5510    0.0330    1.9120 C   0  0  0  0  0  0  0  0  0  0  0  0
    0.8730   -0.2220    0.6330 C   0  0  1  0  0  0  0  0  0  0  0  0
   -0.5770   -0.0080    0.5090 C   0  0  2  0  0  0  0  0  0  0  0  0
   -1.0130    1.3490    0.7960 N   0  0  0  0  0  0  0  0  0  0  0  0
   -1.3610    2.1060   -0.3900 C   0  0  1  0  0  0  0  0  0  0  0  0
   -2.8200    1.9620   -0.7470 C   0  0  0  0  0  0  0  0  0  0  0  0
   -3.7300    2.6140    0.2560 C   0  0  0  0  0  0  0  0  0  0  0  0
   -3.4000    4.0840    0.3880 C   0  0  0  0  0  0  0  0  0  0  0  0
   -1.9540    4.2830    0.7070 C   0  0  0  0  0  0  0  0  0  0  0  0
   -1.0330    3.5690   -0.2510 C   0  0  0  0  0  0  0  0  0  0  0  0
   -1.4930   -0.9610    1.1470 C   0  0  2  0  0  0  0  0  0  0  0  0
   -1.3960   -1.1130    2.6390 C   0  0  0  0  0  0  0  0  0  0  0  0
   -1.5370   -2.3300    0.5100 C   0  0  0  0  0  0  0  0  0  0  0  0
   -1.9650   -2.2420   -0.8930 N   0  0  0  0  0  0  0  0  0  0  0  0
   -2.5580   -3.4560   -1.3460 C   0  0  2  0  0  0  0  0  0  0  0  0
   -1.9300   -4.7710   -1.0100 C   0  0  0  0  0  0  0  0  0  0  0  0
   -1.7560   -4.2180   -2.3690 C   0  0  0  0  0  0  0  0  0  0  0  0
    1.6560    0.5500   -0.4390 C   0  0  0  0  0  0  0  0  0  0  0  0
  2  1  1  6
  2  3  1  0
  2  4  1  0
  4  5  1  6
  4 24  1  0
  5  6  1  0
  6  7  1  0
  8  7  1  1
  8  9  1  0
  8 24  1  0
  9 10  1  1
  9 17  1  0
 11 10  1  1
 11 12  1  0
 11 16  1  0
 12 13  1  0
 13 14  1  0
 14 15  1  0
 15 16  1  0
 17 18  1  1
 17 19  1  0
 19 20  1  0
 21 20  1  1
 21 22  1  0
 21 23  1  0
 22 23  1  0
M  CHG  2  10   1  20   1
M  END
