
     RDKit          3D

 24 26  0  0  0  0  0  0  0  0999 V2000
   -3.0110    1.4630    2.6240 C   0  0  0  0  0  0  0  0  0  0  0  0
   -2.2840    1.5590    1.4910 C   0  0  0  0  0  0  0  0  0  0  0  0
   -2.8250    2.3980    0.3990 C   0  0  0  0  0  0  0  0  0  0  0  0
   -1.8810    3.5190    0.0010 C   0  0  0  0  0  0  0  0  0  0  0  0
   -0.9990    0.8300    1.4740 C   0  0  0  0  0  0  0  0  0  0  0  0
   -0.8850   -0.1900    0.4720 N   0  0  1  0  0  0  0  0  0  0  0  0
   -2.1700   -0.6270    0.0770 C   0  0  0  0  0  0  0  0  0  0  0  0
   -2.4270   -2.1050    0.2530 C   0  0  2  0  0  0  0  0  0  0  0  0
   -3.8270   -2.4620   -0.2020 C   0  0  0  0  0  0  0  0  0  0  0  0
   -4.3030   -3.6150    0.6050 C   0  0  0  0  0  0  0  0  0  0  0  0
   -3.2800   -3.8180    1.6700 C   0  0  0  0  0  0  0  0  0  0  0  0
   -2.3980   -2.5700    1.6620 C   0  0  0  0  0  0  0  0  0  0  0  0
    0.0630    0.0620   -0.5470 C   0  0  1  0  0  0  0  0  0  0  0  0
   -0.3670    0.7230   -1.7940 C   0  0  0  0  0  0  0  0  0  0  0  0
    0.7410    1.5450   -2.4230 C   0  0  0  0  0  0  0  0  0  0  0  0
    2.0470    0.7900   -2.3110 C   0  0  0  0  0  0  0  0  0  0  0  0
    2.4950    0.5910   -0.8820 C   0  0  2  0  0  0  0  0  0  0  0  0
    3.4370    1.7330   -0.5500 C   0  0  0  0  0  0  0  0  0  0  0  0
    4.0330    1.5810    0.8320 C   0  0  0  0  0  0  0  0  0  0  0  0
    4.9910    0.4140    0.8070 C   0  0  0  0  0  0  0  0  0  0  0  0
    4.7070   -0.4130   -0.3950 C   0  0  0  0  0  0  0  0  0  0  0  0
    3.2250   -0.6670   -0.6410 C   0  0  2  0  0  0  0  0  0  0  0  0
    3.2040   -1.6180   -1.7270 N   0  0  0  0  0  0  0  0  0  0  0  0
    1.2700    0.8260   -0.0190 C   0  0  0  0  0  0  0  0  0  0  0  0
  1  2  2  0
  2  3  1  0
  2  5  1  0
  3  4  1  0
  6  5  1  6
  6  7  1  0
  6 13  1  0
  8  7  1  1
  8  9  1  0
  8 12  1  0
  9 10  1  0
 10 11  1  0
 11 12  1  0
 13 14  1  6
 13 24  1  0
 14 15  1  0
 15 16  1  0
 17 16  1  6
 17 18  1  0
 17 22  1  0
 17 24  1  0
 18 19  1  0
 19 20  1  0
 20 21  1  0
 21 22  1  0
 22 23  1  6
M  CHG  2   6   1  23   1
M  END
