
     RDKit          3D

 24 25  0  0  0  0  0  0  0  0999 V2000
    5.3940   -3.7130   -0.0470 C   0  0  0  0  0  0  0  0  0  0  0  0
    4.9050   -2.2810   -0.0640 C   0  0  0  0  0  0  0  0  0  0  0  0
    3.4410   -2.1900    0.3110 C   0  0  0  0  0  0  0  0  0  0  0  0
    3.0700   -0.7990    0.2680 N   0  0  0  0  0  0  0  0  0  0  0  0
    1.7710   -0.5920    0.9840 C   0  0  1  0  0  0  0  0  0  0  0  0
    2.0500   -0.0930    2.3630 C   0  0  0  0  0  0  0  0  0  0  0  0
    2.7070    1.2150    2.1220 C   0  0  0  0  0  0  0  0  0  0  0  0
    2.2830    1.6380    0.7180 C   0  0  0  0  0  0  0  0  0  0  0  0
    1.2200    0.6100    0.3120 C   0  0  0  0  0  0  0  0  0  0  0  0
    0.1510    0.8810   -0.4100 C   0  0  0  0  0  0  0  0  0  0  0  0
    0.0840    2.2960   -0.8790 C   0  0  0  0  0  0  0  0  0  0  0  0
   -0.8180    3.1450   -0.0080 C   0  0  0  0  0  0  0  0  0  0  0  0
   -0.8750    4.4750   -0.5290 N   0  0  0  0  0  0  0  0  0  0  0  0
   -1.4120    5.4230    0.4410 C   0  0  0  0  0  0  0  0  0  0  0  0
   -0.9740    0.0150   -0.5060 C   0  0  0  0  0  0  0  0  0  0  0  0
   -2.0020    0.0960   -1.3330 C   0  0  0  0  0  0  0  0  0  0  0  0
   -2.1230    1.1690   -2.3430 C   0  0  0  0  0  0  0  0  0  0  0  0
   -3.1120   -0.9270   -1.4050 C   0  0  1  0  0  0  0  0  0  0  0  0
   -2.7830   -1.7730   -2.6230 C   0  0  0  0  0  0  0  0  0  0  0  0
   -3.8080   -2.8590   -2.8390 C   0  0  0  0  0  0  0  0  0  0  0  0
   -3.2710   -1.6860   -0.1730 C   0  0  0  0  0  0  0  0  0  0  0  0
   -2.6290   -0.9410    0.9590 C   0  0  1  0  0  0  0  0  0  0  0  0
   -2.9100   -1.5120    2.3060 C   0  0  0  0  0  0  0  0  0  0  0  0
   -1.1130   -1.0060    0.6290 C   0  0  0  0  0  0  0  0  0  0  0  0
  1  2  1  0
  2  3  1  0
  3  4  1  0
  5  4  1  6
  5  6  1  0
  5  9  1  0
  6  7  1  0
  7  8  1  0
  8  9  1  0
  9 10  2  3
 10 11  1  0
 10 15  1  0
 11 12  1  0
 12 13  1  0
 13 14  1  0
 15 16  2  0
 15 24  1  0
 16 17  1  0
 16 18  1  0
 18 19  1  6
 18 21  1  0
 19 20  1  0
 21 22  1  0
 22 23  1  1
 22 24  1  0
M  CHG  2   4   1  13   1
M  END
