
     RDKit          3D

 24 26  0  0  0  0  0  0  0  0999 V2000
    6.5960    0.8840    1.3570 C   0  0  0  0  0  0  0  0  0  0  0  0
    5.6280    1.8850    0.7850 C   0  0  0  0  0  0  0  0  0  0  0  0
    5.2880    1.5130   -0.6420 C   0  0  0  0  0  0  0  0  0  0  0  0
    4.6780    0.1880   -0.7100 N   0  0  0  0  0  0  0  0  0  0  0  0
    3.5230    0.1090    0.1310 C   0  0  0  0  0  0  0  0  0  0  0  0
    2.7590   -1.1350   -0.2250 C   0  0  1  0  0  0  0  0  0  0  0  0
    3.7040   -2.3720    0.0140 C   0  0  0  0  0  0  0  0  0  0  0  0
    2.6440   -3.4300   -0.0860 C   0  0  0  0  0  0  0  0  0  0  0  0
    1.4850   -2.9610    0.3430 C   0  0  0  0  0  0  0  0  0  0  0  0
    1.7220   -1.5520    0.7570 C   0  0  2  0  0  0  0  0  0  0  0  0
    0.5690   -0.7550    1.0650 C   0  0  0  0  0  0  0  0  0  0  0  0
   -0.4910   -0.3420    0.1520 C   0  0  2  0  0  0  0  0  0  0  0  0
   -0.0570    0.5160   -0.9850 C   0  0  0  0  0  0  0  0  0  0  0  0
   -0.7930    0.2230   -2.2070 N   0  0  0  0  0  0  0  0  0  0  0  0
   -2.2030    0.2440   -2.0700 C   0  0  0  0  0  0  0  0  0  0  0  0
   -2.7550    1.1700   -1.0470 C   0  0  0  0  0  0  0  0  0  0  0  0
   -2.8350    0.5970    0.3390 C   0  0  1  0  0  0  0  0  0  0  0  0
   -3.5210    1.6530    1.2090 C   0  0  0  0  0  0  0  0  0  0  0  0
   -4.8500    2.0570    0.6590 C   0  0  0  0  0  0  0  0  0  0  0  0
   -5.7270    0.9610    0.2180 C   0  0  0  0  0  0  0  0  0  0  0  0
   -5.1270   -0.3410   -0.0970 C   0  0  2  0  0  0  0  0  0  0  0  0
   -6.0010   -1.4950    0.3850 C   0  0  0  0  0  0  0  0  0  0  0  0
   -3.7480   -0.6000    0.4090 C   0  0  0  0  0  0  0  0  0  0  0  0
   -1.5530    0.3390    1.0050 C   0  0  0  0  0  0  0  0  0  0  0  0
  1  2  1  0
  2  3  1  0
  3  4  1  0
  4  5  1  0
  6  5  1  1
  6  7  1  0
  6 10  1  0
  7  8  1  0
  8  9  2  0
  9 10  1  0
 10 11  1  6
 12 11  1  1
 12 13  1  0
 12 24  1  0
 13 14  1  0
 14 15  1  0
 15 16  1  0
 17 16  1  6
 17 18  1  0
 17 23  1  0
 17 24  1  0
 18 19  1  0
 19 20  1  0
 20 21  1  0
 21 22  1  1
 21 23  1  0
M  CHG  2   4   1  14   1
M  END
