
     RDKit          3D

 24 26  0  0  0  0  0  0  0  0999 V2000
    5.7430    0.1340   -0.0850 C   0  0  0  0  0  0  0  0  0  0  0  0
    5.7050   -0.7340   -1.3000 C   0  0  0  0  0  0  0  0  0  0  0  0
    4.4540   -0.8390   -2.0540 C   0  0  0  0  0  0  0  0  0  0  0  0
    3.2290   -1.3860   -1.4680 C   0  0  1  0  0  0  0  0  0  0  0  0
    3.2760   -2.8070   -0.9480 C   0  0  0  0  0  0  0  0  0  0  0  0
    3.1420   -2.1900    0.4280 C   0  0  0  0  0  0  0  0  0  0  0  0
    2.7010   -0.8840   -0.1470 C   0  0  2  0  0  0  0  0  0  0  0  0
    1.1570   -0.7260   -0.2710 C   0  0  0  0  0  0  0  0  0  0  0  0
    0.4530   -0.2970    0.8100 N   0  0  1  0  0  0  0  0  0  0  0  0
    1.3210    0.1200    1.9170 C   0  0  0  0  0  0  0  0  0  0  0  0
    1.4770    1.5770    1.7770 C   0  0  0  0  0  0  0  0  0  0  0  0
    0.5990    1.8770    0.5580 C   0  0  0  0  0  0  0  0  0  0  0  0
   -0.4990    0.8320    0.7430 C   0  0  2  0  0  0  0  0  0  0  0  0
   -1.0320    1.0000    2.1400 C   0  0  0  0  0  0  0  0  0  0  0  0
   -1.9240    2.0580    2.4290 N   0  0  0  0  0  0  0  0  0  0  0  0
   -1.5010    0.7430   -0.3130 C   0  0  2  0  0  0  0  0  0  0  0  0
   -0.9450    1.1250   -1.6840 C   0  0  0  0  0  0  0  0  0  0  0  0
   -2.7690    1.5350   -0.2250 C   0  0  0  0  0  0  0  0  0  0  0  0
   -3.8120    1.0190   -1.2580 C   0  0  0  0  0  0  0  0  0  0  0  0
   -4.4760   -0.2090   -0.6630 C   0  0  2  0  0  0  0  0  0  0  0  0
   -4.9600   -1.1400   -1.7340 C   0  0  0  0  0  0  0  0  0  0  0  0
   -5.5980    0.1580    0.2860 C   0  0  0  0  0  0  0  0  0  0  0  0
   -3.3890   -0.8630    0.2020 C   0  0  0  0  0  0  0  0  0  0  0  0
   -2.0810   -0.6520   -0.5250 C   0  0  0  0  0  0  0  0  0  0  0  0
  1  2  1  0
  2  3  1  0
  4  3  1  1
  4  5  1  0
  4  7  1  0
  5  6  1  0
  6  7  1  0
  7  8  1  6
  9  8  1  6
  9 10  1  0
  9 13  1  0
 10 11  1  0
 11 12  1  0
 12 13  1  0
 13 14  1  1
 13 16  1  0
 14 15  1  0
 16 17  1  6
 16 18  1  0
 16 24  1  0
 18 19  1  0
 19 20  1  0
 20 21  1  6
 20 22  1  0
 20 23  1  0
 23 24  1  0
M  CHG  2   9   1  15   1
M  END
