
     RDKit          3D

 24 26  0  0  0  0  0  0  0  0999 V2000
    5.8980   -0.2800    0.8760 C   0  0  0  0  0  0  0  0  0  0  0  0
    4.9970    0.7790    0.3580 C   0  0  2  0  0  0  0  0  0  0  0  0
    5.7710    1.5620   -0.7100 C   0  0  0  0  0  0  0  0  0  0  0  0
    4.5240    1.7650    1.3690 C   0  0  0  0  0  0  0  0  0  0  0  0
    3.7490    1.0810    2.4370 C   0  0  0  0  0  0  0  0  0  0  0  0
    2.9920   -0.1130    2.0380 C   0  0  0  0  0  0  0  0  0  0  0  0
    2.7380   -0.3000    0.5760 C   0  0  1  0  0  0  0  0  0  0  0  0
    2.6210   -1.8180    0.3680 C   0  0  0  0  0  0  0  0  0  0  0  0
    2.3100   -2.1760   -1.0400 C   0  0  0  0  0  0  0  0  0  0  0  0
    1.5680   -1.1050   -1.7580 C   0  0  0  0  0  0  0  0  0  0  0  0
    0.7850   -0.2500   -0.9310 N   0  0  1  0  0  0  0  0  0  0  0  0
   -0.4350   -0.9970   -0.5460 C   0  0  0  0  0  0  0  0  0  0  0  0
   -1.6280   -0.0610   -0.5900 C   0  0  0  0  0  0  0  0  0  0  0  0
   -2.9290   -0.7630   -0.1620 C   0  0  2  0  0  0  0  0  0  0  0  0
   -3.1760   -1.9160   -1.0880 C   0  0  0  0  0  0  0  0  0  0  0  0
   -4.3300   -2.7160   -0.8360 N   0  0  0  0  0  0  0  0  0  0  0  0
   -3.9900    0.2990   -0.2530 C   0  0  1  0  0  0  0  0  0  0  0  0
   -5.3880   -0.1900    0.1410 C   0  0  0  0  0  0  0  0  0  0  0  0
   -6.2830    1.0420    0.4120 C   0  0  0  0  0  0  0  0  0  0  0  0
   -5.8720    2.1260   -0.5320 C   0  0  0  0  0  0  0  0  0  0  0  0
   -4.5490    2.6710   -0.0380 C   0  0  0  0  0  0  0  0  0  0  0  0
   -3.7630    1.5160    0.6020 C   0  0  0  0  0  0  0  0  0  0  0  0
    1.4200    0.2930    0.2070 C   0  0  0  0  0  0  0  0  0  0  0  0
    3.7920    0.1960   -0.3330 C   0  0  0  0  0  0  0  0  0  0  0  0
  2  1  1  1
  2  3  1  0
  2  4  1  0
  2 24  1  0
  4  5  1  0
  5  6  1  0
  7  6  1  1
  7  8  1  0
  7 23  1  0
  7 24  1  0
  8  9  1  0
  9 10  1  0
 10 11  1  0
 11 12  1  1
 11 23  1  0
 12 13  1  0
 14 13  1  6
 14 15  1  0
 14 17  1  0
 15 16  1  0
 17 18  1  1
 17 22  1  0
 18 19  1  0
 19 20  1  0
 20 21  1  0
 21 22  1  0
M  CHG  2  11   1  16   1
M  END
