
     RDKit          3D

 37 41  0  0  0  0  0  0  0  0999 V2000
   -3.1820   -5.4670   -4.1920 N   0  0  0  0  0  0  0  0  0  0  0  0
   -3.3570   -5.1570   -3.1230 C   0  0  0  0  0  0  0  0  0  0  0  0
   -3.5660   -4.7370   -1.7130 C   0  0  0  0  0  0  0  0  0  0  0  0
   -3.6960   -5.6360   -0.7160 C   0  0  0  0  0  0  0  0  0  0  0  0
   -3.9600   -5.1520    0.5640 C   0  0  0  0  0  0  0  0  0  0  0  0
   -4.0950   -3.8320    0.8710 C   0  0  0  0  0  0  0  0  0  0  0  0
   -3.9490   -2.9390   -0.2150 C   0  0  0  0  0  0  0  0  0  0  0  0
   -3.6930   -3.3690   -1.4650 C   0  0  0  0  0  0  0  0  0  0  0  0
   -3.5620   -2.4460   -2.5630 N   0  0  0  0  0  0  0  0  0  0  0  0
   -3.8250   -1.0760   -2.4910 C   0  0  0  0  0  0  0  0  0  0  0  0
   -2.8100   -0.1830   -1.7590 C   0  0  0  0  0  0  0  0  0  0  0  0
   -1.7300   -0.7060   -1.3030 C   0  0  0  0  0  0  0  0  0  0  0  0
   -0.5880   -0.1800   -0.5890 C   0  0  0  0  0  0  0  0  0  0  0  0
   -0.5860    0.6510    0.4560 C   0  0  0  0  0  0  0  0  0  0  0  0
    0.5790    1.0780    1.0700 C   0  0  0  0  0  0  0  0  0  0  0  0
    1.8460    0.6490    0.6090 C   0  0  0  0  0  0  0  0  0  0  0  0
    3.0230    1.2030    1.2670 C   0  0  0  0  0  0  0  0  0  0  0  0
    4.2920    0.7410    0.8890 N   0  0  0  0  0  0  0  0  0  0  0  0
    4.6000   -0.6010    1.2100 C   0  0  0  0  0  0  0  0  0  0  0  0
    5.7130   -1.2450    0.4680 C   0  0  0  0  0  0  0  0  0  0  0  0
    6.7370   -0.2340    0.0580 C   0  0  0  0  0  0  0  0  0  0  0  0
    8.0770   -0.6190    0.0740 C   0  0  0  0  0  0  0  0  0  0  0  0
    8.9680    0.3410   -0.3480 C   0  0  0  0  0  0  0  0  0  0  0  0
    8.5660    1.5880   -0.7570 C   0  0  0  0  0  0  0  0  0  0  0  0
    7.2100    1.9490   -0.7640 C   0  0  0  0  0  0  0  0  0  0  0  0
    6.3050    0.9930   -0.3400 C   0  0  0  0  0  0  0  0  0  0  0  0
    4.8440    1.2940   -0.2940 C   0  0  0  0  0  0  0  0  0  0  0  0
    1.8170   -0.2060   -0.4670 C   0  0  0  0  0  0  0  0  0  0  0  0
    0.6630   -0.6450   -1.0940 C   0  0  0  0  0  0  0  0  0  0  0  0
   -3.2560    1.1570   -1.7270 N   0  0  0  0  0  0  0  0  0  0  0  0
   -3.3140    2.1290   -0.7110 C   0  0  0  0  0  0  0  0  0  0  0  0
   -4.2030    1.7230    0.4520 C   0  0  0  0  0  0  0  0  0  0  0  0
   -4.2630    2.7420    1.5190 C   0  0  0  0  0  0  0  0  0  0  0  0
   -5.3600    3.2680    1.9850 C   0  0  0  0  0  0  0  0  0  0  0  0
   -5.0080    4.2490    3.0340 C   0  0  0  0  0  0  0  0  0  0  0  0
   -3.5460    4.2020    3.0600 C   0  0  0  0  0  0  0  0  0  0  0  0
   -3.1050    3.3330    2.1890 C   0  0  0  0  0  0  0  0  0  0  0  0
  1  2  3  0
  2  3  1  0
  3  4  2  0
  3  8  1  0
  4  5  1  0
  5  6  2  0
  6  7  1  0
  7  8  2  0
  8  9  1  0
  9 10  1  0
 10 11  1  0
 11 12  2  3
 11 30  1  0
 12 13  1  0
 13 14  2  0
 13 29  1  0
 14 15  1  0
 15 16  2  0
 16 17  1  0
 16 28  1  0
 17 18  1  0
 18 19  1  0
 18 27  1  0
 19 20  1  0
 20 21  1  0
 21 22  2  0
 21 26  1  0
 22 23  1  0
 23 24  2  0
 24 25  1  0
 25 26  2  0
 26 27  1  0
 28 29  2  0
 30 31  1  0
 31 32  1  0
 32 33  1  0
 33 34  2  0
 33 37  1  0
 34 35  1  0
 35 36  1  0
 36 37  2  0
M  END
