
     RDKit          3D

 37 41  0  0  0  0  0  0  0  0999 V2000
    0.4730   -6.6070   -0.8000 C   0  0  0  0  0  0  0  0  0  0  0  0
    0.4110   -5.2740   -1.5410 C   0  0  0  0  0  0  0  0  0  0  0  0
    0.1220   -4.1950   -0.5290 C   0  0  0  0  0  0  0  0  0  0  0  0
    0.0350   -2.8340   -1.1460 C   0  0  0  0  0  0  0  0  0  0  0  0
   -0.2540   -1.7500   -0.2900 N   0  0  0  0  0  0  0  0  0  0  0  0
    0.8420   -0.8330    0.1200 C   0  0  0  0  0  0  0  0  0  0  0  0
    1.9590   -0.3530   -0.5110 C   0  0  0  0  0  0  0  0  0  0  0  0
    2.8390    0.4920    0.1940 C   0  0  0  0  0  0  0  0  0  0  0  0
    2.5980    0.8420    1.4960 C   0  0  0  0  0  0  0  0  0  0  0  0
    3.4110    1.7290    2.2930 C   0  0  0  0  0  0  0  0  0  0  0  0
    4.3690    2.4830    1.9780 C   0  0  0  0  0  0  0  0  0  0  0  0
    5.0600    2.8100    0.7890 C   0  0  0  0  0  0  0  0  0  0  0  0
    6.0980    3.6900    0.8110 C   0  0  0  0  0  0  0  0  0  0  0  0
    6.8570    4.0840   -0.3410 C   0  0  0  0  0  0  0  0  0  0  0  0
    7.7750    4.9510    0.1220 C   0  0  0  0  0  0  0  0  0  0  0  0
    7.5820    5.0900    1.5480 C   0  0  0  0  0  0  0  0  0  0  0  0
    6.5930    4.3460    1.9520 N   0  0  0  0  0  0  0  0  0  0  0  0
    1.4440    0.3420    2.1440 C   0  0  0  0  0  0  0  0  0  0  0  0
    0.5980   -0.4790    1.4460 C   0  0  0  0  0  0  0  0  0  0  0  0
   -0.6030   -1.1870    1.7500 N   0  0  0  0  0  0  0  0  0  0  0  0
   -1.3470   -1.1700    0.4710 C   0  0  1  0  0  0  0  0  0  0  0  0
   -1.3710    0.2860    0.0220 C   0  0  0  0  0  0  0  0  0  0  0  0
   -1.5780    0.3790   -1.4120 N   0  0  0  0  0  0  0  0  0  0  0  0
   -1.6330    1.7110   -1.9250 C   0  0  1  0  0  0  0  0  0  0  0  0
   -2.8000    2.4270   -1.3580 C   0  0  0  0  0  0  0  0  0  0  0  0
   -2.4240    3.6600   -0.5790 C   0  0  0  0  0  0  0  0  0  0  0  0
   -1.6070    4.6260   -1.3870 C   0  0  0  0  0  0  0  0  0  0  0  0
   -0.4750    3.9330   -2.0410 C   0  0  0  0  0  0  0  0  0  0  0  0
   -0.3420    2.4710   -1.8250 C   0  0  0  0  0  0  0  0  0  0  0  0
   -2.6310   -1.7790    0.5520 C   0  0  0  0  0  0  0  0  0  0  0  0
   -3.0590   -2.7970   -0.2820 C   0  0  0  0  0  0  0  0  0  0  0  0
   -4.3490   -3.3470   -0.2220 C   0  0  0  0  0  0  0  0  0  0  0  0
   -4.7160   -4.4370   -1.1570 C   0  0  0  0  0  0  0  0  0  0  0  0
   -5.2360   -2.8550    0.7060 C   0  0  0  0  0  0  0  0  0  0  0  0
   -4.8250   -1.8460    1.5370 C   0  0  0  0  0  0  0  0  0  0  0  0
   -3.5390   -1.2890    1.4880 C   0  0  0  0  0  0  0  0  0  0  0  0
   -3.2420   -0.2190    2.4460 C   0  0  0  0  0  0  0  0  0  0  0  0
  1  2  1  0
  2  3  1  0
  3  4  1  0
  4  5  1  0
  5  6  1  0
  5 21  1  0
  6  7  2  0
  6 19  1  0
  7  8  1  0
  8  9  2  0
  9 10  1  0
  9 18  1  0
 10 11  2  3
 11 12  1  0
 12 13  2  3
 13 14  1  0
 13 17  1  0
 14 15  2  0
 15 16  1  0
 16 17  2  0
 18 19  2  0
 19 20  1  0
 20 21  1  0
 21 22  1  6
 21 30  1  0
 22 23  1  0
 24 23  1  1
 24 25  1  0
 24 29  1  0
 25 26  1  0
 26 27  1  0
 27 28  1  0
 28 29  1  0
 30 31  2  0
 30 36  1  0
 31 32  1  0
 32 33  1  0
 32 34  2  0
 34 35  1  0
 35 36  2  0
 36 37  1  0
M  END
