
     RDKit          3D

 37 41  0  0  0  0  0  0  0  0999 V2000
    6.4150    2.1740    1.1420 C   0  0  0  0  0  0  0  0  0  0  0  0
    7.2810    1.3130    0.7280 C   0  0  0  0  0  0  0  0  0  0  0  0
    7.0540   -0.0310    0.2280 C   0  0  0  0  0  0  0  0  0  0  0  0
    8.1240   -0.7320   -0.1580 C   0  0  0  0  0  0  0  0  0  0  0  0
    5.7120   -0.6440    0.1350 C   0  0  0  0  0  0  0  0  0  0  0  0
    5.5350   -1.8170   -0.4960 N   0  0  0  0  0  0  0  0  0  0  0  0
    4.3480   -2.4350   -0.6040 C   0  0  0  0  0  0  0  0  0  0  0  0
    4.1870   -3.7330   -1.3140 C   0  0  0  0  0  0  0  0  0  0  0  0
    3.2500   -1.7970   -0.0150 C   0  0  0  0  0  0  0  0  0  0  0  0
    3.3730   -0.6010    0.6420 C   0  0  0  0  0  0  0  0  0  0  0  0
    2.3100    0.0630    1.2480 N   0  0  0  0  0  0  0  0  0  0  0  0
    0.9520   -0.2400    1.2910 C   0  0  0  0  0  0  0  0  0  0  0  0
    0.0650    0.2160    0.1710 C   0  0  1  0  0  0  0  0  0  0  0  0
    0.2260    1.7000    0.1060 C   0  0  0  0  0  0  0  0  0  0  0  0
    0.1440    2.4620    1.2430 C   0  0  0  0  0  0  0  0  0  0  0  0
    0.3130    3.8550    1.2040 C   0  0  0  0  0  0  0  0  0  0  0  0
    0.5690    4.4690   -0.0090 C   0  0  0  0  0  0  0  0  0  0  0  0
    0.7770    5.9040   -0.1080 C   0  0  0  0  0  0  0  0  0  0  0  0
    0.9630    6.6760    0.9420 C   0  0  0  0  0  0  0  0  0  0  0  0
    0.6540    3.6990   -1.1800 C   0  0  0  0  0  0  0  0  0  0  0  0
    0.4770    2.3140   -1.0800 C   0  0  0  0  0  0  0  0  0  0  0  0
    0.2430   -0.4710   -1.1110 C   0  0  0  0  0  0  0  0  0  0  0  0
   -0.3740   -1.8790   -1.0310 C   0  0  0  0  0  0  0  0  0  0  0  0
   -1.8810   -1.6780   -0.9810 C   0  0  0  0  0  0  0  0  0  0  0  0
   -2.2540   -0.4990   -0.3110 N   0  0  0  0  0  0  0  0  0  0  0  0
   -3.3660    0.2330   -0.7230 C   0  0  0  0  0  0  0  0  0  0  0  0
   -4.6170   -0.5710   -0.6040 C   0  0  0  0  0  0  0  0  0  0  0  0
   -5.5750   -0.6060   -1.5830 C   0  0  0  0  0  0  0  0  0  0  0  0
   -6.7090   -1.3650   -1.3910 C   0  0  0  0  0  0  0  0  0  0  0  0
   -6.9360   -2.1040   -0.2490 C   0  0  0  0  0  0  0  0  0  0  0  0
   -5.9640   -2.0630    0.7340 C   0  0  0  0  0  0  0  0  0  0  0  0
   -4.8220   -1.3020    0.5460 C   0  0  0  0  0  0  0  0  0  0  0  0
   -6.4480   -2.9160    1.8120 C   0  0  0  0  0  0  0  0  0  0  0  0
   -7.6170   -3.4500    1.5420 C   0  0  0  0  0  0  0  0  0  0  0  0
   -8.0420   -2.9880    0.2120 C   0  0  0  0  0  0  0  0  0  0  0  0
   -1.3810    0.0010    0.6650 C   0  0  0  0  0  0  0  0  0  0  0  0
    4.6390   -0.0830    0.6760 N   0  0  0  0  0  0  0  0  0  0  0  0
  1  2  2  0
  2  3  1  0
  3  4  2  0
  3  5  1  0
  5  6  2  0
  5 37  1  0
  6  7  1  0
  7  8  1  0
  7  9  2  0
  9 10  1  0
 10 11  1  0
 10 37  2  0
 11 12  1  0
 13 12  1  1
 13 14  1  0
 13 22  1  0
 13 36  1  0
 14 15  2  0
 14 21  1  0
 15 16  1  0
 16 17  2  0
 17 18  1  0
 17 20  1  0
 18 19  2  0
 20 21  2  0
 22 23  1  0
 23 24  1  0
 24 25  1  0
 25 26  1  0
 25 36  1  0
 26 27  1  0
 27 28  2  0
 27 32  1  0
 28 29  1  0
 29 30  2  0
 30 31  1  0
 30 35  1  0
 31 32  2  0
 31 33  1  0
 33 34  2  0
 34 35  1  0
M  END
