
     RDKit          3D

 37 42  0  0  0  0  0  0  0  0999 V2000
    7.3390   -2.3010    0.6320 C   0  0  0  0  0  0  0  0  0  0  0  0
    7.0440   -1.5140   -0.6300 C   0  0  0  0  0  0  0  0  0  0  0  0
    6.4570   -0.2130   -0.2230 C   0  0  0  0  0  0  0  0  0  0  0  0
    7.1830    0.9400   -0.2130 N   0  0  0  0  0  0  0  0  0  0  0  0
    6.4040    1.9210    0.2050 N   0  0  0  0  0  0  0  0  0  0  0  0
    5.1860    1.4740    0.4750 C   0  0  0  0  0  0  0  0  0  0  0  0
    3.9750    2.1740    0.9700 C   0  0  1  0  0  0  0  0  0  0  0  0
    4.1530    3.6610    1.1810 C   0  0  0  0  0  0  0  0  0  0  0  0
    3.2710    3.1110    0.0670 C   0  0  0  0  0  0  0  0  0  0  0  0
    5.1970    0.1080    0.2070 C   0  0  0  0  0  0  0  0  0  0  0  0
    4.0720   -0.8270    0.3430 C   0  0  0  0  0  0  0  0  0  0  0  0
    3.4090   -1.1860   -0.9520 C   0  0  0  0  0  0  0  0  0  0  0  0
    2.2820   -2.1310   -0.7580 C   0  0  0  0  0  0  0  0  0  0  0  0
    2.4370   -3.4930   -0.7760 C   0  0  0  0  0  0  0  0  0  0  0  0
    1.3780   -4.3520   -0.5970 C   0  0  0  0  0  0  0  0  0  0  0  0
    0.1100   -3.8410   -0.3900 C   0  0  0  0  0  0  0  0  0  0  0  0
   -0.0810   -2.4790   -0.3660 C   0  0  0  0  0  0  0  0  0  0  0  0
   -1.4090   -1.9550   -0.1550 N   0  0  0  0  0  0  0  0  0  0  0  0
   -1.5580   -0.4890   -0.1420 C   0  0  0  0  0  0  0  0  0  0  0  0
   -2.9910   -0.1860    0.0460 C   0  0  0  0  0  0  0  0  0  0  0  0
   -4.0420   -1.0810    0.1750 C   0  0  0  0  0  0  0  0  0  0  0  0
   -5.2260   -0.3900    0.3210 C   0  0  0  0  0  0  0  0  0  0  0  0
   -6.5700   -0.9560    0.4840 C   0  0  0  0  0  0  0  0  0  0  0  0
   -6.7560   -2.3210    0.5110 C   0  0  0  0  0  0  0  0  0  0  0  0
   -8.0190   -2.8780    0.6620 C   0  0  0  0  0  0  0  0  0  0  0  0
   -9.1240   -2.0650    0.7910 C   0  0  0  0  0  0  0  0  0  0  0  0
   -8.9270   -0.7010    0.7640 C   0  0  0  0  0  0  0  0  0  0  0  0
   -7.6540   -0.1400    0.6110 C   0  0  0  0  0  0  0  0  0  0  0  0
   -4.8940    0.8870    0.2800 N   0  0  0  0  0  0  0  0  0  0  0  0
   -3.5580    1.0760    0.1160 C   0  0  0  0  0  0  0  0  0  0  0  0
   -2.9570    2.3980    0.0290 C   0  0  0  0  0  0  0  0  0  0  0  0
   -1.6150    2.6560   -0.0640 C   0  0  0  0  0  0  0  0  0  0  0  0
   -1.1040    3.9540   -0.1610 C   0  0  0  0  0  0  0  0  0  0  0  0
   -1.9260    5.0540   -0.1680 C   0  0  0  0  0  0  0  0  0  0  0  0
   -3.2750    4.8180   -0.0750 C   0  0  0  0  0  0  0  0  0  0  0  0
   -3.7680    3.5370    0.0190 C   0  0  0  0  0  0  0  0  0  0  0  0
    0.9880   -1.6580   -0.5470 C   0  0  0  0  0  0  0  0  0  0  0  0
  1  2  1  0
  2  3  1  0
  3  4  2  0
  3 10  1  0
  4  5  1  0
  5  6  1  0
  7  6  1  6
  6 10  2  0
  7  8  1  0
  7  9  1  0
  8  9  1  0
 10 11  1  0
 11 12  1  0
 12 13  1  0
 13 14  2  0
 13 37  1  0
 14 15  1  0
 15 16  2  0
 16 17  1  0
 17 18  1  0
 17 37  2  0
 18 19  1  0
 19 20  1  0
 20 21  1  0
 20 30  2  0
 21 22  2  0
 22 23  1  0
 22 29  1  0
 23 24  2  0
 23 28  1  0
 24 25  1  0
 25 26  2  0
 26 27  1  0
 27 28  2  0
 29 30  1  0
 30 31  1  0
 31 32  2  0
 31 36  1  0
 32 33  1  0
 33 34  2  0
 34 35  1  0
 35 36  2  0
M  END
