
     RDKit          3D

 37 41  0  0  0  0  0  0  0  0999 V2000
    7.0510   -3.6560    2.2410 C   0  0  0  0  0  0  0  0  0  0  0  0
    7.4580   -2.6600    1.3400 O   0  0  0  0  0  0  0  0  0  0  0  0
    6.5370   -1.8330    0.7200 C   0  0  0  0  0  0  0  0  0  0  0  0
    5.2020   -1.9960    0.9970 C   0  0  0  0  0  0  0  0  0  0  0  0
    4.2570   -1.1740    0.3830 C   0  0  0  0  0  0  0  0  0  0  0  0
    4.6280   -0.1940   -0.4980 C   0  0  0  0  0  0  0  0  0  0  0  0
    3.8040    0.6650   -1.1510 O   0  0  0  0  0  0  0  0  0  0  0  0
    2.4360    0.8480   -1.1350 C   0  0  0  0  0  0  0  0  0  0  0  0
    1.8850    1.2810    0.1790 C   0  0  0  0  0  0  0  0  0  0  0  0
    0.4210    1.4480    0.1230 N   0  0  0  0  0  0  0  0  0  0  0  0
   -0.0380    2.7480   -0.2410 C   0  0  0  0  0  0  0  0  0  0  0  0
   -1.2370    3.2170    0.5080 C   0  0  0  0  0  0  0  0  0  0  0  0
   -2.4580    2.3520    0.3320 C   0  0  1  0  0  0  0  0  0  0  0  0
   -2.8750    2.1920   -1.0900 C   0  0  0  0  0  0  0  0  0  0  0  0
   -2.4080    0.9810   -1.7900 C   0  0  0  0  0  0  0  0  0  0  0  0
   -2.2440   -0.2380   -0.9440 C   0  0  0  0  0  0  0  0  0  0  0  0
   -1.7240    0.0520    0.4380 C   0  0  1  0  0  0  0  0  0  0  0  0
   -0.2480    0.2340    0.4560 C   0  0  0  0  0  0  0  0  0  0  0  0
    0.4660   -0.7550    0.7880 O   0  0  0  0  0  0  0  0  0  0  0  0
   -2.4120    1.1200    1.0020 N   0  0  0  0  0  0  0  0  0  0  0  0
   -3.5620    0.8200    2.1840 S   0  0  2  0  0  0  0  0  0  0  0  0
   -4.1360    2.1160    2.6800 O   0  0  0  0  0  0  0  0  0  0  0  0
   -3.0030    0.0890    3.3880 O   0  0  0  0  0  0  0  0  0  0  0  0
   -4.8420   -0.1680    1.5410 C   0  0  0  0  0  0  0  0  0  0  0  0
   -4.8370   -1.5410    1.5700 C   0  0  0  0  0  0  0  0  0  0  0  0
   -5.8360   -2.3260    1.0680 C   0  0  0  0  0  0  0  0  0  0  0  0
   -6.9820   -1.7160    0.4630 C   0  0  0  0  0  0  0  0  0  0  0  0
   -7.9880   -2.3490   -0.0450 N   0  0  0  0  0  0  0  0  0  0  0  0
   -9.0280   -1.7110   -0.5960 C   0  0  0  0  0  0  0  0  0  0  0  0
  -10.0780   -2.0530   -1.1320 O   0  0  0  0  0  0  0  0  0  0  0  0
   -8.5080    0.0570   -0.3610 S   0  0  0  0  0  0  0  0  0  0  0  0
   -6.9150   -0.3450    0.4710 C   0  0  0  0  0  0  0  0  0  0  0  0
   -5.9430    0.4330    0.9590 C   0  0  0  0  0  0  0  0  0  0  0  0
    6.0070   -0.0600   -0.7550 C   0  0  0  0  0  0  0  0  0  0  0  0
    6.9460   -0.8580   -0.1620 C   0  0  0  0  0  0  0  0  0  0  0  0
    8.2820   -0.6720   -0.4590 O   0  0  0  0  0  0  0  0  0  0  0  0
    8.6620    0.3350   -1.3660 C   0  0  0  0  0  0  0  0  0  0  0  0
  1  2  1  0
  2  3  1  0
  3  4  2  0
  3 35  1  0
  4  5  1  0
  5  6  2  0
  6  7  1  0
  6 34  1  0
  7  8  1  0
  8  9  1  0
  9 10  1  0
 10 11  1  0
 10 18  1  0
 11 12  1  0
 13 12  1  6
 13 14  1  0
 13 20  1  0
 14 15  1  0
 15 16  1  0
 17 16  1  6
 17 18  1  0
 17 20  1  0
 18 19  2  0
 21 20  1  6
 21 22  2  0
 21 23  2  0
 21 24  1  0
 24 25  2  0
 24 33  1  0
 25 26  1  0
 26 27  2  0
 27 28  1  0
 27 32  1  0
 28 29  1  0
 29 30  2  0
 29 31  1  0
 31 32  1  0
 32 33  2  0
 34 35  2  0
 35 36  1  0
 36 37  1  0
M  END
