
     RDKit          3D

 36 38  0  0  0  0  0  0  0  0999 V2000
    5.9900   -0.7980   -1.2520 C   0  0  0  0  0  0  0  0  0  0  0  0
    4.6830   -1.2320   -1.8110 C   0  0  0  0  0  0  0  0  0  0  0  0
    3.5330   -1.1740   -1.4200 C   0  0  0  0  0  0  0  0  0  0  0  0
    2.7970   -0.7000   -0.2450 C   0  0  0  0  0  0  0  0  0  0  0  0
    1.8560    0.3580   -0.4520 N   0  0  0  0  0  0  0  0  0  0  0  0
    0.4730    0.1670   -0.8730 C   0  0  0  0  0  0  0  0  0  0  0  0
   -0.3210   -0.4800    0.3690 C   0  0  1  0  0  0  0  0  0  0  0  0
    0.2010    0.3450    1.3430 O   0  0  0  0  0  0  0  0  0  0  0  0
   -1.7570   -0.1880    0.1560 C   0  0  0  0  0  0  0  0  0  0  0  0
   -2.3890   -1.0780   -0.7980 N   0  0  0  0  0  0  0  0  0  0  0  0
   -3.7940   -1.2400   -0.4300 C   0  0  0  0  0  0  0  0  0  0  0  0
   -4.4660   -0.0140    0.0060 C   0  0  0  0  0  0  0  0  0  0  0  0
   -4.7420    1.0350   -0.8270 C   0  0  0  0  0  0  0  0  0  0  0  0
   -5.5270    2.1040   -0.3990 C   0  0  0  0  0  0  0  0  0  0  0  0
   -5.9160    3.2210   -1.3140 C   0  0  0  0  0  0  0  0  0  0  0  0
   -6.0290    2.1080    0.8790 C   0  0  0  0  0  0  0  0  0  0  0  0
   -6.8560    3.2500    1.4120 C   0  0  0  0  0  0  0  0  0  0  0  0
   -5.7480    1.0280    1.7380 C   0  0  0  0  0  0  0  0  0  0  0  0
   -4.9780   -0.0210    1.3150 C   0  0  0  0  0  0  0  0  0  0  0  0
   -4.6890   -1.0870    2.2220 N   0  0  0  0  0  0  0  0  0  0  0  0
    0.0710   -1.8770    0.3830 C   0  0  0  0  0  0  0  0  0  0  0  0
    0.4500   -2.5030   -0.8000 C   0  0  0  0  0  0  0  0  0  0  0  0
    0.7110   -3.8380   -0.9030 C   0  0  0  0  0  0  0  0  0  0  0  0
    0.5930   -4.6310    0.2040 C   0  0  0  0  0  0  0  0  0  0  0  0
    0.2220   -4.1100    1.3950 C   0  0  0  0  0  0  0  0  0  0  0  0
   -0.0330   -2.7240    1.4610 C   0  0  0  0  0  0  0  0  0  0  0  0
   -0.4040   -2.2230    2.6980 O   0  0  0  0  0  0  0  0  0  0  0  0
    0.9100   -5.9480   -0.1750 O   0  0  0  0  0  0  0  0  0  0  0  0
    1.6720   -5.8160   -1.3900 C   0  0  0  0  0  0  0  0  0  0  0  0
    1.0810   -4.6570   -1.9350 O   0  0  0  0  0  0  0  0  0  0  0  0
    2.2350    1.7130   -0.0880 C   0  0  0  0  0  0  0  0  0  0  0  0
    1.4490    2.6640   -0.4970 O   0  0  0  0  0  0  0  0  0  0  0  0
    3.3820    2.0990    0.6910 C   0  0  0  0  0  0  0  0  0  0  0  0
    4.3670    3.0270   -0.0110 C   0  0  0  0  0  0  0  0  0  0  0  0
    5.4870    3.3580    0.9880 C   0  0  0  0  0  0  0  0  0  0  0  0
    6.4490    4.1630    0.2770 N   0  0  0  0  0  0  0  0  0  0  0  0
  1  2  1  0
  2  3  2  3
  3  4  1  0
  4  5  1  0
  5  6  1  0
  5 31  1  0
  6  7  1  0
  7  8  1  1
  7  9  1  0
  7 21  1  0
  9 10  1  0
 10 11  1  0
 11 12  1  0
 12 13  2  0
 12 19  1  0
 13 14  1  0
 14 15  1  0
 14 16  2  0
 16 17  1  0
 16 18  1  0
 18 19  2  0
 19 20  1  0
 21 22  2  0
 21 26  1  0
 22 23  1  0
 23 24  2  0
 23 30  1  0
 24 25  1  0
 24 28  1  0
 25 26  2  0
 26 27  1  0
 28 29  1  0
 29 30  1  0
 31 32  2  0
 31 33  1  0
 33 34  1  0
 34 35  1  0
 35 36  1  0
M  CHG  2  10   1  36   1
M  END
