
     RDKit          3D

 36 38  0  0  0  0  0  0  0  0999 V2000
   -7.1020   -2.2230   -0.3800 C   0  0  0  0  0  0  0  0  0  0  0  0
   -5.8590   -3.0220   -0.0950 C   0  0  1  0  0  0  0  0  0  0  0  0
   -5.4530   -2.8400    1.3520 C   0  0  0  0  0  0  0  0  0  0  0  0
   -6.0990   -4.3630   -0.3240 O   0  0  0  0  0  0  0  0  0  0  0  0
   -4.7070   -2.5930   -0.9910 C   0  0  0  0  0  0  0  0  0  0  0  0
   -4.4170   -1.2140   -0.8300 N   0  0  0  0  0  0  0  0  0  0  0  0
   -3.0650   -1.0080   -0.3650 C   0  0  2  0  0  0  0  0  0  0  0  0
   -3.1800    0.2440    0.5520 C   0  0  0  0  0  0  0  0  0  0  0  0
   -4.0460    1.1030   -0.1860 O   0  0  0  0  0  0  0  0  0  0  0  0
   -4.3960    2.3780    0.1630 C   0  0  0  0  0  0  0  0  0  0  0  0
   -3.8780    3.0280    1.2330 C   0  0  0  0  0  0  0  0  0  0  0  0
   -4.2440    4.3280    1.5490 C   0  0  0  0  0  0  0  0  0  0  0  0
   -5.1670    4.9630    0.7470 C   0  0  0  0  0  0  0  0  0  0  0  0
   -5.6820    4.2880   -0.3230 C   0  0  0  0  0  0  0  0  0  0  0  0
   -5.3300    3.0060   -0.6520 C   0  0  0  0  0  0  0  0  0  0  0  0
   -5.8930    2.3530   -1.7470 O   0  0  0  0  0  0  0  0  0  0  0  0
   -2.0910   -0.7740   -1.4310 C   0  0  0  0  0  0  0  0  0  0  0  0
   -0.6930   -0.6950   -1.1360 C   0  0  0  0  0  0  0  0  0  0  0  0
    0.1080   -0.2840   -2.0640 O   0  0  0  0  0  0  0  0  0  0  0  0
    0.0250   -1.0130    0.0990 N   0  0  0  0  0  0  0  0  0  0  0  0
    1.4680   -0.8920   -0.0250 C   0  0  0  0  0  0  0  0  0  0  0  0
    1.9360   -1.6620   -1.1170 C   0  0  0  0  0  0  0  0  0  0  0  0
    3.2000   -1.5200   -1.6200 C   0  0  0  0  0  0  0  0  0  0  0  0
    4.0480   -0.6170   -1.0570 C   0  0  0  0  0  0  0  0  0  0  0  0
    5.3700   -0.4450   -1.5720 N   0  0  0  0  0  0  0  0  0  0  0  0
    3.6150    0.1530    0.0400 C   0  0  0  0  0  0  0  0  0  0  0  0
    4.4900    1.2830    0.3350 C   0  0  0  0  0  0  0  0  0  0  0  0
    4.8830    1.4530    1.6900 N   0  0  0  0  0  0  0  0  0  0  0  0
    6.1970    0.6410    1.7730 C   0  0  0  0  0  0  0  0  0  0  0  0
    7.0310    1.1470    0.6780 C   0  0  0  0  0  0  0  0  0  0  0  0
    8.2570    0.3960    0.3470 C   0  0  0  0  0  0  0  0  0  0  0  0
    9.4850    0.9170    0.0730 C   0  0  0  0  0  0  0  0  0  0  0  0
   10.3100   -0.1460   -0.2360 C   0  0  0  0  0  0  0  0  0  0  0  0
    9.6160   -1.2260   -0.1450 O   0  0  0  0  0  0  0  0  0  0  0  0
    8.3840   -1.0110    0.1960 C   0  0  0  0  0  0  0  0  0  0  0  0
    2.3070   -0.0070    0.5420 C   0  0  0  0  0  0  0  0  0  0  0  0
  2  1  1  6
  2  3  1  0
  2  4  1  0
  2  5  1  0
  5  6  1  0
  6  7  1  0
  7  8  1  1
  7 17  1  0
  8  9  1  0
  9 10  1  0
 10 11  2  0
 10 15  1  0
 11 12  1  0
 12 13  2  0
 13 14  1  0
 14 15  2  0
 15 16  1  0
 17 18  1  0
 18 19  2  0
 18 20  1  0
 20 21  1  0
 21 22  2  0
 21 36  1  0
 22 23  1  0
 23 24  2  0
 24 25  1  0
 24 26  1  0
 26 27  1  0
 26 36  2  0
 27 28  1  0
 28 29  1  0
 29 30  1  0
 30 31  1  0
 31 32  1  0
 31 35  2  0
 32 33  2  0
 33 34  1  0
 34 35  1  0
M  CHG  2   6   1  28   1
M  END
