
     RDKit          3D

 37 41  0  0  0  0  0  0  0  0999 V2000
   -4.0310    6.5150    0.2160 C   0  0  0  0  0  0  0  0  0  0  0  0
   -3.2960    6.9610   -1.0470 C   0  0  0  0  0  0  0  0  0  0  0  0
   -3.2720    5.8110   -2.0030 C   0  0  0  0  0  0  0  0  0  0  0  0
   -2.5910    4.6250   -1.4260 C   0  0  0  0  0  0  0  0  0  0  0  0
   -1.1620    4.9190   -1.0570 C   0  0  0  0  0  0  0  0  0  0  0  0
   -0.4480    3.7450   -0.4880 C   0  0  0  0  0  0  0  0  0  0  0  0
   -1.0060    2.5590   -0.3920 C   0  0  0  0  0  0  0  0  0  0  0  0
   -0.3530    1.3840    0.1560 C   0  0  0  0  0  0  0  0  0  0  0  0
    0.9160    1.4880    0.6810 C   0  0  0  0  0  0  0  0  0  0  0  0
    1.5240    0.3510    1.2110 C   0  0  0  0  0  0  0  0  0  0  0  0
    2.8360    0.4850    1.7640 N   0  0  0  0  0  0  0  0  0  0  0  0
    3.7910   -0.5820    1.9160 C   0  0  2  0  0  0  0  0  0  0  0  0
    4.8090   -0.1040    2.8240 N   0  0  0  0  0  0  0  0  0  0  0  0
    6.1690   -0.0590    2.5630 C   0  0  0  0  0  0  0  0  0  0  0  0
    7.1880    0.3550    3.3010 C   0  0  0  0  0  0  0  0  0  0  0  0
    8.4170    0.1730    2.5160 C   0  0  0  0  0  0  0  0  0  0  0  0
    7.9300   -0.4010    1.2410 C   0  0  0  0  0  0  0  0  0  0  0  0
    6.6360   -0.5400    1.2570 C   0  0  0  0  0  0  0  0  0  0  0  0
    5.6330   -1.0050    0.3880 N   0  0  0  0  0  0  0  0  0  0  0  0
    4.3720   -1.0440    0.6320 C   0  0  0  0  0  0  0  0  0  0  0  0
    3.4720   -1.5620   -0.4310 C   0  0  0  0  0  0  0  0  0  0  0  0
    4.2740   -2.0360   -1.6350 C   0  0  0  0  0  0  0  0  0  0  0  0
    5.2170   -3.1340   -1.2150 C   0  0  0  0  0  0  0  0  0  0  0  0
    0.8850   -0.8610    1.2210 C   0  0  0  0  0  0  0  0  0  0  0  0
   -0.3780   -0.9350    0.6900 C   0  0  0  0  0  0  0  0  0  0  0  0
   -1.0310    0.1600    0.1480 C   0  0  0  0  0  0  0  0  0  0  0  0
   -2.2920   -0.0440   -0.4410 N   0  0  0  0  0  0  0  0  0  0  0  0
   -2.9490   -1.2880   -0.2540 C   0  0  0  0  0  0  0  0  0  0  0  0
   -3.1840   -1.7430    1.0230 C   0  0  0  0  0  0  0  0  0  0  0  0
   -3.7940   -2.9610    1.2150 C   0  0  0  0  0  0  0  0  0  0  0  0
   -4.1900   -3.7640    0.1480 C   0  0  0  0  0  0  0  0  0  0  0  0
   -3.9550   -3.3060   -1.1150 C   0  0  0  0  0  0  0  0  0  0  0  0
   -3.3470   -2.0980   -1.3080 C   0  0  0  0  0  0  0  0  0  0  0  0
   -4.3360   -4.1400   -2.2690 C   0  0  0  0  0  0  0  0  0  0  0  0
   -5.7250   -4.7110   -1.9310 C   0  0  0  0  0  0  0  0  0  0  0  0
   -5.4930   -5.6830   -0.7980 C   0  0  0  0  0  0  0  0  0  0  0  0
   -4.8610   -5.0840    0.4150 C   0  0  0  0  0  0  0  0  0  0  0  0
  1  2  1  0
  2  3  1  0
  3  4  1  0
  4  5  1  0
  5  6  1  0
  6  7  2  3
  7  8  1  0
  8  9  2  0
  8 26  1  0
  9 10  1  0
 10 11  1  0
 10 24  2  0
 12 11  1  6
 12 13  1  0
 12 20  1  0
 13 14  1  0
 14 15  2  0
 14 18  1  0
 15 16  1  0
 16 17  1  0
 17 18  2  0
 18 19  1  0
 19 20  2  0
 20 21  1  0
 21 22  1  0
 22 23  1  0
 24 25  1  0
 25 26  2  0
 26 27  1  0
 27 28  1  0
 28 29  2  0
 28 33  1  0
 29 30  1  0
 30 31  2  0
 31 32  1  0
 31 37  1  0
 32 33  2  0
 32 34  1  0
 34 35  1  0
 35 36  1  0
 36 37  1  0
M  END
