
     RDKit          3D

 34 37  0  0  0  0  0  0  0  0999 V2000
   -6.7000    1.9030    0.6640 C   0  0  0  0  0  0  0  0  0  0  0  0
   -7.0880    0.5200    0.1260 C   0  0  2  0  0  0  0  0  0  0  0  0
   -7.6450    0.8420   -1.2980 C   0  0  0  0  0  0  0  0  0  0  0  0
   -6.7390    1.3930   -2.1370 O   0  0  0  0  0  0  0  0  0  0  0  0
   -8.2000   -0.0210    0.7990 N   0  0  0  0  0  0  0  0  0  0  0  0
   -8.1160   -1.3630    1.1820 C   0  0  0  0  0  0  0  0  0  0  0  0
   -7.0880   -2.1550    1.0490 C   0  0  0  0  0  0  0  0  0  0  0  0
   -5.9000   -1.5800    0.4220 C   0  0  0  0  0  0  0  0  0  0  0  0
   -5.9150   -0.3450    0.0130 C   0  0  0  0  0  0  0  0  0  0  0  0
   -4.6350    0.2180   -0.5510 C   0  0  0  0  0  0  0  0  0  0  0  0
   -4.6290    1.4110   -0.9300 O   0  0  0  0  0  0  0  0  0  0  0  0
   -3.4550   -0.5270   -0.6730 N   0  0  0  0  0  0  0  0  0  0  0  0
   -2.2300   -0.0700   -1.1990 C   0  0  0  0  0  0  0  0  0  0  0  0
   -2.0420    1.1330   -1.8200 C   0  0  0  0  0  0  0  0  0  0  0  0
   -0.8410    1.5640   -2.3720 C   0  0  0  0  0  0  0  0  0  0  0  0
    0.2050    0.6800   -2.2610 C   0  0  0  0  0  0  0  0  0  0  0  0
    0.0640   -0.5390   -1.6450 C   0  0  0  0  0  0  0  0  0  0  0  0
   -1.1150   -0.9310   -1.1170 C   0  0  0  0  0  0  0  0  0  0  0  0
   -1.2710   -2.2440   -0.4240 C   0  0  0  0  0  0  0  0  0  0  0  0
   -0.0210   -2.9750   -0.1220 C   0  0  0  0  0  0  0  0  0  0  0  0
    1.1740   -2.0440   -0.1660 C   0  0  1  0  0  0  0  0  0  0  0  0
    2.3820   -2.6740    0.2330 N   0  0  0  0  0  0  0  0  0  0  0  0
    3.6340   -2.0340    0.4270 C   0  0  0  0  0  0  0  0  0  0  0  0
    3.7740   -0.6560    0.4330 C   0  0  0  0  0  0  0  0  0  0  0  0
    4.9970   -0.0410    0.6060 C   0  0  0  0  0  0  0  0  0  0  0  0
    6.1490   -0.7790    0.7810 C   0  0  0  0  0  0  0  0  0  0  0  0
    7.3860   -0.1480    0.9540 O   0  0  0  0  0  0  0  0  0  0  0  0
    7.4120    1.2600    0.9370 C   0  0  0  0  0  0  0  0  0  0  0  0
    8.7890    1.8230    1.1320 C   0  0  0  0  0  0  0  0  0  0  0  0
    8.6890    3.3490    1.0830 C   0  0  0  0  0  0  0  0  0  0  0  0
    8.1660    3.7890   -0.1850 N   0  0  0  0  0  0  0  0  0  0  0  0
    6.0240   -2.1470    0.7770 C   0  0  0  0  0  0  0  0  0  0  0  0
    4.7990   -2.7580    0.6040 C   0  0  0  0  0  0  0  0  0  0  0  0
    1.2450   -1.4320   -1.5800 C   0  0  0  0  0  0  0  0  0  0  0  0
  2  1  1  1
  2  3  1  0
  2  5  1  0
  2  9  1  0
  3  4  1  0
  5  6  1  0
  6  7  2  0
  7  8  1  0
  8  9  2  0
  9 10  1  0
 10 11  2  0
 10 12  1  0
 12 13  1  0
 13 14  2  0
 13 18  1  0
 14 15  1  0
 15 16  2  0
 16 17  1  0
 17 18  2  0
 17 34  1  0
 18 19  1  0
 19 20  1  0
 20 21  1  0
 21 22  1  6
 21 34  1  0
 22 23  1  0
 23 24  2  0
 23 33  1  0
 24 25  1  0
 25 26  2  0
 26 27  1  0
 26 32  1  0
 27 28  1  0
 28 29  1  0
 29 30  1  0
 30 31  1  0
 32 33  2  0
M  CHG  2   5   1  31   1
M  END
