
     RDKit          3D

 35 38  0  0  0  0  0  0  0  0999 V2000
   10.1690   -1.7540   -0.7440 C   0  0  0  0  0  0  0  0  0  0  0  0
    9.1070   -2.3870   -0.1350 O   0  0  0  0  0  0  0  0  0  0  0  0
    7.9350   -2.4210   -0.8590 C   0  0  0  0  0  0  0  0  0  0  0  0
    7.4460   -1.0390   -1.1480 C   0  0  0  0  0  0  0  0  0  0  0  0
    6.2130   -1.0290   -1.9010 N   0  0  0  0  0  0  0  0  0  0  0  0
    4.9730   -1.4740   -1.3520 C   0  0  0  0  0  0  0  0  0  0  0  0
    4.2250   -0.6930   -0.6100 C   0  0  0  0  0  0  0  0  0  0  0  0
    4.4730    0.6930   -0.2100 C   0  0  0  0  0  0  0  0  0  0  0  0
    5.3240    1.6770   -0.7110 C   0  0  0  0  0  0  0  0  0  0  0  0
    5.3960    2.9470   -0.1790 C   0  0  0  0  0  0  0  0  0  0  0  0
    4.5860    3.2530    0.8970 C   0  0  0  0  0  0  0  0  0  0  0  0
    3.7260    2.3210    1.4340 C   0  0  0  0  0  0  0  0  0  0  0  0
    3.6870    1.0470    0.8610 C   0  0  0  0  0  0  0  0  0  0  0  0
    2.8750   -0.1700    1.2060 C   0  0  0  0  0  0  0  0  0  0  0  0
    2.9160   -1.0640    0.0050 C   0  0  1  0  0  0  0  0  0  0  0  0
    1.8110   -0.8060   -0.9100 N   0  0  0  0  0  0  0  0  0  0  0  0
    0.9770    0.2310   -0.3620 C   0  0  0  0  0  0  0  0  0  0  0  0
    1.3110    1.4370   -0.5140 O   0  0  0  0  0  0  0  0  0  0  0  0
   -0.2160   -0.0570    0.3500 N   0  0  0  0  0  0  0  0  0  0  0  0
   -0.9870    1.0670    0.8780 C   0  0  0  0  0  0  0  0  0  0  0  0
   -2.2130    0.5810    1.5940 C   0  0  0  0  0  0  0  0  0  0  0  0
   -3.0900   -0.2070    0.6300 C   0  0  1  0  0  0  0  0  0  0  0  0
   -4.3180   -0.7110    1.3530 C   0  0  0  0  0  0  0  0  0  0  0  0
   -5.3320   -1.4000    0.4910 C   0  0  0  0  0  0  0  0  0  0  0  0
   -6.3360   -0.3920    0.0120 C   0  0  0  0  0  0  0  0  0  0  0  0
   -7.6310   -0.7780    0.1770 C   0  0  0  0  0  0  0  0  0  0  0  0
   -7.9830   -2.0920    0.7640 C   0  0  0  0  0  0  0  0  0  0  0  0
   -8.6510    0.0960   -0.2210 C   0  0  0  0  0  0  0  0  0  0  0  0
   -8.3540    1.3250   -0.7700 C   0  0  0  0  0  0  0  0  0  0  0  0
   -9.4570    2.2310   -1.1780 C   0  0  0  0  0  0  0  0  0  0  0  0
   -7.0160    1.6580   -0.9110 C   0  0  0  0  0  0  0  0  0  0  0  0
   -6.0020    0.8360   -0.5370 C   0  0  0  0  0  0  0  0  0  0  0  0
   -4.6760    1.3230   -0.7570 N   0  0  0  0  0  0  0  0  0  0  0  0
   -3.4520    0.6400   -0.5190 C   0  0  0  0  0  0  0  0  0  0  0  0
   -2.5700    0.7920   -1.4250 O   0  0  0  0  0  0  0  0  0  0  0  0
  1  2  1  0
  2  3  1  0
  3  4  1  0
  4  5  1  0
  5  6  1  0
  6  7  2  3
  7  8  1  0
  7 15  1  0
  8  9  2  0
  8 13  1  0
  9 10  1  0
 10 11  2  0
 11 12  1  0
 12 13  2  0
 13 14  1  0
 14 15  1  0
 15 16  1  6
 16 17  1  0
 17 18  2  0
 17 19  1  0
 19 20  1  0
 20 21  1  0
 22 21  1  1
 22 23  1  0
 22 34  1  0
 23 24  1  0
 24 25  1  0
 25 26  2  0
 25 32  1  0
 26 27  1  0
 26 28  1  0
 28 29  2  0
 29 30  1  0
 29 31  1  0
 31 32  2  0
 32 33  1  0
 33 34  1  0
 34 35  2  0
M  CHG  1  16   1
M  END
