
     RDKit          3D

 34 36  0  0  0  0  0  0  0  0999 V2000
   -3.4720   -3.9150    1.0220 C   0  0  0  0  0  0  0  0  0  0  0  0
   -3.3520   -2.4140    0.9340 C   0  0  0  0  0  0  0  0  0  0  0  0
   -3.1930   -1.9900   -0.4810 C   0  0  2  0  0  0  0  0  0  0  0  0
   -2.0630   -2.4720   -1.1930 N   0  0  0  0  0  0  0  0  0  0  0  0
   -0.7700   -2.0690   -0.8640 C   0  0  0  0  0  0  0  0  0  0  0  0
    0.1930   -3.1010   -0.4000 C   0  0  0  0  0  0  0  0  0  0  0  0
   -0.1440   -4.4280   -0.2300 C   0  0  0  0  0  0  0  0  0  0  0  0
    0.8260   -5.3330    0.1910 C   0  0  0  0  0  0  0  0  0  0  0  0
    2.1120   -4.9180    0.4380 C   0  0  0  0  0  0  0  0  0  0  0  0
    2.4430   -3.5930    0.2660 C   0  0  0  0  0  0  0  0  0  0  0  0
    1.4780   -2.6660   -0.1570 C   0  0  0  0  0  0  0  0  0  0  0  0
    1.9200   -1.2650   -0.2610 C   0  0  0  0  0  0  0  0  0  0  0  0
    2.3450   -0.7760   -1.3190 O   0  0  0  0  0  0  0  0  0  0  0  0
    1.8880   -0.4040    0.8860 N   0  0  0  0  0  0  0  0  0  0  0  0
    2.3240    0.9750    0.7540 C   0  0  0  0  0  0  0  0  0  0  0  0
    3.7690    1.1360    0.5810 C   0  0  0  0  0  0  0  0  0  0  0  0
    4.2940    2.3950    0.4200 C   0  0  0  0  0  0  0  0  0  0  0  0
    5.6600    2.6160    0.2170 C   0  0  0  0  0  0  0  0  0  0  0  0
    6.5600    1.5810    0.1680 C   0  0  0  0  0  0  0  0  0  0  0  0
    8.0090    1.7370   -0.0460 C   0  0  2  0  0  0  0  0  0  0  0  0
    8.5230    3.1030   -0.2570 C   0  0  0  0  0  0  0  0  0  0  0  0
    8.5400    0.8180   -1.0660 N   0  0  0  0  0  0  0  0  0  0  0  0
    6.0180    0.2900    0.3360 C   0  0  0  0  0  0  0  0  0  0  0  0
    4.6710    0.0970    0.5340 C   0  0  0  0  0  0  0  0  0  0  0  0
   -3.5170   -0.5630   -0.7510 C   0  0  0  0  0  0  0  0  0  0  0  0
   -2.8090    0.1440   -1.5420 O   0  0  0  0  0  0  0  0  0  0  0  0
   -4.6200    0.0890   -0.1580 N   0  0  0  0  0  0  0  0  0  0  0  0
   -4.9370    1.5010   -0.4430 C   0  0  1  0  0  0  0  0  0  0  0  0
   -6.3830    1.5870   -0.7970 C   0  0  0  0  0  0  0  0  0  0  0  0
   -6.7460    3.0170   -1.0980 C   0  0  0  0  0  0  0  0  0  0  0  0
   -6.4280    3.9610    0.0260 C   0  0  1  0  0  0  0  0  0  0  0  0
   -7.5810    4.6040    0.4660 O   0  0  0  0  0  0  0  0  0  0  0  0
   -5.8460    3.2030    1.1850 C   0  0  0  0  0  0  0  0  0  0  0  0
   -4.6870    2.3470    0.7880 C   0  0  0  0  0  0  0  0  0  0  0  0
  1  2  1  0
  3  2  1  1
  3  4  1  0
  3 25  1  0
  4  5  1  0
  5  6  1  0
  6  7  2  0
  6 11  1  0
  7  8  1  0
  8  9  2  0
  9 10  1  0
 10 11  2  0
 11 12  1  0
 12 13  2  0
 12 14  1  0
 14 15  1  0
 15 16  1  0
 16 17  2  0
 16 24  1  0
 17 18  1  0
 18 19  2  0
 19 20  1  0
 19 23  1  0
 20 21  1  6
 20 22  1  0
 23 24  2  0
 25 26  2  0
 25 27  1  0
 28 27  1  1
 28 29  1  0
 28 34  1  0
 29 30  1  0
 30 31  1  0
 31 32  1  1
 31 33  1  0
 33 34  1  0
M  CHG  2   4   1  22   1
M  END
