
     RDKit          3D

 35 38  0  0  0  0  0  0  0  0999 V2000
   -6.9560    2.3930   -4.3400 C   0  0  0  0  0  0  0  0  0  0  0  0
   -6.3810    1.3120   -3.8540 C   0  0  0  0  0  0  0  0  0  0  0  0
   -4.9970    1.1850   -3.5690 N   0  0  0  0  0  0  0  0  0  0  0  0
   -4.7320   -0.1620   -3.0500 C   0  0  1  0  0  0  0  0  0  0  0  0
   -4.0190   -0.0060   -1.7660 C   0  0  0  0  0  0  0  0  0  0  0  0
   -4.3920   -0.6390   -0.6000 C   0  0  0  0  0  0  0  0  0  0  0  0
   -3.6340   -0.4160    0.5380 C   0  0  0  0  0  0  0  0  0  0  0  0
   -2.5170    0.4100    0.5810 C   0  0  0  0  0  0  0  0  0  0  0  0
   -1.8360    0.5830    1.7230 O   0  0  0  0  0  0  0  0  0  0  0  0
   -1.0870   -0.2570    2.4380 C   0  0  0  0  0  0  0  0  0  0  0  0
   -1.5020   -0.4970    3.7550 C   0  0  0  0  0  0  0  0  0  0  0  0
   -0.8310   -1.3290    4.6040 C   0  0  0  0  0  0  0  0  0  0  0  0
    0.2840   -1.9530    4.1560 C   0  0  0  0  0  0  0  0  0  0  0  0
    0.7470   -1.7610    2.8620 C   0  0  0  0  0  0  0  0  0  0  0  0
    0.0400   -0.8970    2.0070 C   0  0  0  0  0  0  0  0  0  0  0  0
    0.4220   -0.8160    0.6190 C   0  0  0  0  0  0  0  0  0  0  0  0
    1.6070   -0.6760    0.1550 C   0  0  0  0  0  0  0  0  0  0  0  0
    2.8510   -0.5490    0.8730 C   0  0  0  0  0  0  0  0  0  0  0  0
    3.0350   -0.5080    2.0920 O   0  0  0  0  0  0  0  0  0  0  0  0
    4.0620   -0.4550    0.0850 N   0  0  0  0  0  0  0  0  0  0  0  0
    5.3670   -0.3350    0.7980 C   0  0  0  0  0  0  0  0  0  0  0  0
    5.9330    0.7830    0.5830 C   0  0  0  0  0  0  0  0  0  0  0  0
    7.1220    1.4800    0.9430 C   0  0  0  0  0  0  0  0  0  0  0  0
    7.4120    2.6860    0.4970 N   0  0  0  0  0  0  0  0  0  0  0  0
    8.6660    3.1440    1.0200 C   0  0  0  0  0  0  0  0  0  0  0  0
    9.1460    2.0810    1.8700 C   0  0  0  0  0  0  0  0  0  0  0  0
    8.2160    1.1050    1.8090 C   0  0  0  0  0  0  0  0  0  0  0  0
    5.6940   -1.5470    1.5390 C   0  0  0  0  0  0  0  0  0  0  0  0
    6.8700   -1.5800    2.1810 O   0  0  0  0  0  0  0  0  0  0  0  0
   -2.1930    1.0220   -0.6280 C   0  0  0  0  0  0  0  0  0  0  0  0
   -2.9170    0.8260   -1.7760 C   0  0  0  0  0  0  0  0  0  0  0  0
   -5.9700   -0.8480   -3.0260 N   0  0  0  0  0  0  0  0  0  0  0  0
   -6.2820   -2.2060   -2.6170 C   0  0  0  0  0  0  0  0  0  0  0  0
   -6.9800    0.0410   -3.5130 C   0  0  0  0  0  0  0  0  0  0  0  0
   -8.2610   -0.2450   -3.6340 C   0  0  0  0  0  0  0  0  0  0  0  0
  1  2  2  0
  2  3  1  0
  2 34  1  0
  3  4  1  0
  4  5  1  1
  4 32  1  0
  5  6  2  0
  5 31  1  0
  6  7  1  0
  7  8  2  0
  8  9  1  0
  8 30  1  0
  9 10  1  0
 10 11  2  0
 10 15  1  0
 11 12  1  0
 12 13  2  0
 13 14  1  0
 14 15  2  0
 15 16  1  0
 16 17  2  3
 17 18  1  0
 18 19  2  0
 18 20  1  0
 20 21  1  0
 21 22  2  3
 21 28  1  0
 22 23  1  0
 23 24  2  0
 23 27  1  0
 24 25  1  0
 25 26  1  0
 26 27  2  0
 28 29  1  0
 30 31  2  0
 32 33  1  0
 32 34  1  0
 34 35  2  0
M  CHG  1  24   1
M  END
