
     RDKit          3D

 35 38  0  0  0  0  0  0  0  0999 V2000
   -8.0800    1.3450   -0.0900 C   0  0  0  0  0  0  0  0  0  0  0  0
   -7.5670    0.1100   -0.7130 C   0  0  0  0  0  0  0  0  0  0  0  0
   -8.5030   -0.8170   -1.1550 C   0  0  0  0  0  0  0  0  0  0  0  0
   -8.0640   -1.9860   -1.7420 C   0  0  0  0  0  0  0  0  0  0  0  0
   -6.7130   -2.2190   -1.8810 C   0  0  0  0  0  0  0  0  0  0  0  0
   -5.7600   -1.3210   -1.4520 C   0  0  0  0  0  0  0  0  0  0  0  0
   -4.3120   -1.5940   -1.6200 C   0  0  0  0  0  0  0  0  0  0  0  0
   -3.4760   -0.7680   -0.8650 O   0  0  0  0  0  0  0  0  0  0  0  0
   -3.5320   -0.7770    0.5150 C   0  0  0  0  0  0  0  0  0  0  0  0
   -4.4050   -1.6160    1.1500 C   0  0  0  0  0  0  0  0  0  0  0  0
   -4.4770   -1.6410    2.5450 C   0  0  0  0  0  0  0  0  0  0  0  0
   -3.6550   -0.8080    3.2620 C   0  0  0  0  0  0  0  0  0  0  0  0
   -2.7670    0.0450    2.6380 C   0  0  0  0  0  0  0  0  0  0  0  0
   -2.6940    0.0720    1.2670 C   0  0  0  0  0  0  0  0  0  0  0  0
   -1.8040    0.9170    0.4870 C   0  0  0  0  0  0  0  0  0  0  0  0
   -0.9320    1.7940    1.1600 N   0  0  0  0  0  0  0  0  0  0  0  0
    0.3420    2.0060    0.4960 C   0  0  1  0  0  0  0  0  0  0  0  0
    0.9780    3.3010    0.9820 C   0  0  0  0  0  0  0  0  0  0  0  0
    1.3220    0.9080    0.7460 C   0  0  0  0  0  0  0  0  0  0  0  0
    2.5500    1.2120    0.0470 N   0  0  0  0  0  0  0  0  0  0  0  0
    3.6900    0.3340    0.1020 C   0  0  0  0  0  0  0  0  0  0  0  0
    3.5500   -0.6860    0.7820 O   0  0  0  0  0  0  0  0  0  0  0  0
    4.8810    0.6120   -0.5670 N   0  0  0  0  0  0  0  0  0  0  0  0
    6.0460   -0.1730   -0.5750 C   0  0  0  0  0  0  0  0  0  0  0  0
    6.1560   -1.3490    0.1060 C   0  0  0  0  0  0  0  0  0  0  0  0
    7.3250   -2.1330    0.0970 C   0  0  0  0  0  0  0  0  0  0  0  0
    8.4230   -1.7240   -0.6170 C   0  0  0  0  0  0  0  0  0  0  0  0
    9.6150   -2.4920   -0.6440 N   0  0  0  0  0  0  0  0  0  0  0  0
    8.3040   -0.5290   -1.3060 C   0  0  0  0  0  0  0  0  0  0  0  0
    7.1690    0.2230   -1.2930 C   0  0  0  0  0  0  0  0  0  0  0  0
    7.3230    1.3200   -2.0360 C   0  0  0  0  0  0  0  0  0  0  0  0
    8.6680    1.2890   -2.5840 C   0  0  0  0  0  0  0  0  0  0  0  0
    9.2470    2.1070   -3.3330 O   0  0  0  0  0  0  0  0  0  0  0  0
    9.2430    0.0400   -2.0530 C   0  0  0  0  0  0  0  0  0  0  0  0
   -6.2110   -0.1450   -0.8620 C   0  0  0  0  0  0  0  0  0  0  0  0
  1  2  1  0
  2  3  2  0
  2 35  1  0
  3  4  1  0
  4  5  2  0
  5  6  1  0
  6  7  1  0
  6 35  2  0
  7  8  1  0
  8  9  1  0
  9 10  2  0
  9 14  1  0
 10 11  1  0
 11 12  2  0
 12 13  1  0
 13 14  2  0
 14 15  1  0
 15 16  1  0
 16 17  1  0
 17 18  1  1
 17 19  1  0
 19 20  1  0
 20 21  1  0
 21 22  2  0
 21 23  1  0
 23 24  1  0
 24 25  2  0
 24 30  1  0
 25 26  1  0
 26 27  2  0
 27 28  1  0
 27 29  1  0
 29 30  1  0
 29 34  2  0
 30 31  2  0
 31 32  1  0
 32 33  2  0
 32 34  1  0
M  CHG  1  16   1
M  END
