
     RDKit          3D

 35 38  0  0  0  0  0  0  0  0999 V2000
   12.9320    1.8710   -2.2420 N   0  0  0  0  0  0  0  0  0  0  0  0
   11.8780    1.6260   -1.7900 C   0  0  0  0  0  0  0  0  0  0  0  0
   10.5780    1.3040   -1.2310 C   0  0  0  0  0  0  0  0  0  0  0  0
   10.4430    0.6280   -0.0450 C   0  0  0  0  0  0  0  0  0  0  0  0
    9.1880    0.2750    0.4660 C   0  0  0  0  0  0  0  0  0  0  0  0
    8.0340    0.6240   -0.2420 C   0  0  0  0  0  0  0  0  0  0  0  0
    6.7380    0.2310    0.2240 N   0  0  0  0  0  0  0  0  0  0  0  0
    5.7240   -0.1310   -0.6340 C   0  0  0  0  0  0  0  0  0  0  0  0
    6.1040   -0.0820   -1.9120 O   0  0  0  0  0  0  0  0  0  0  0  0
    4.3780   -0.5540   -0.5210 C   0  0  0  0  0  0  0  0  0  0  0  0
    4.0590   -1.7690   -1.1210 C   0  0  0  0  0  0  0  0  0  0  0  0
    2.7590   -2.2530   -1.2100 C   0  0  0  0  0  0  0  0  0  0  0  0
    1.7570   -1.4700   -0.6730 C   0  0  0  0  0  0  0  0  0  0  0  0
    2.0430   -0.2470   -0.0660 C   0  0  0  0  0  0  0  0  0  0  0  0
    0.8390    0.4920    0.3770 C   0  0  0  0  0  0  0  0  0  0  0  0
    0.6680    0.8500    1.5390 O   0  0  0  0  0  0  0  0  0  0  0  0
   -0.1390    0.7840   -0.5760 N   0  0  0  0  0  0  0  0  0  0  0  0
   -1.4080    1.4150   -0.4940 C   0  0  0  0  0  0  0  0  0  0  0  0
   -2.4780    0.4260   -0.1540 C   0  0  0  0  0  0  0  0  0  0  0  0
   -2.6170   -0.6180   -1.0910 C   0  0  0  0  0  0  0  0  0  0  0  0
   -3.5630   -1.5850   -0.9690 C   0  0  0  0  0  0  0  0  0  0  0  0
   -4.4390   -1.5970    0.0850 C   0  0  0  0  0  0  0  0  0  0  0  0
   -4.3120   -0.5720    1.0290 C   0  0  0  0  0  0  0  0  0  0  0  0
   -3.3380    0.3950    0.8790 C   0  0  0  0  0  0  0  0  0  0  0  0
   -5.1070   -0.4450    2.1760 N   0  0  0  0  0  0  0  0  0  0  0  0
   -6.4990   -0.2900    1.8910 C   0  0  1  0  0  0  0  0  0  0  0  0
   -6.9760    1.1020    2.0350 C   0  0  0  0  0  0  0  0  0  0  0  0
   -6.3380    2.1360    1.1650 C   0  0  0  0  0  0  0  0  0  0  0  0
   -7.0040    3.3620    1.4730 O   0  0  0  0  0  0  0  0  0  0  0  0
   -6.8030   -0.7280    0.4670 C   0  0  0  0  0  0  0  0  0  0  0  0
   -6.7610   -2.2330    0.3520 C   0  0  0  0  0  0  0  0  0  0  0  0
   -5.3950   -2.7250    0.0380 C   0  0  0  0  0  0  0  0  0  0  0  0
    3.3370    0.1900    0.0100 C   0  0  0  0  0  0  0  0  0  0  0  0
    8.1920    1.2940   -1.3990 C   0  0  0  0  0  0  0  0  0  0  0  0
    9.4450    1.6490   -1.9210 C   0  0  0  0  0  0  0  0  0  0  0  0
  1  2  3  0
  2  3  1  0
  3  4  2  0
  3 35  1  0
  4  5  1  0
  5  6  2  0
  6  7  1  0
  6 34  1  0
  7  8  1  0
  8  9  2  0
  8 10  1  0
 10 11  2  0
 10 33  1  0
 11 12  1  0
 12 13  2  0
 13 14  1  0
 14 15  1  0
 14 33  2  0
 15 16  2  0
 15 17  1  0
 17 18  1  0
 18 19  1  0
 19 20  2  0
 19 24  1  0
 20 21  1  0
 21 22  2  0
 22 23  1  0
 22 32  1  0
 23 24  2  0
 23 25  1  0
 25 26  1  0
 26 27  1  6
 26 30  1  0
 27 28  1  0
 28 29  1  0
 30 31  1  0
 31 32  1  0
 34 35  2  0
M  CHG  1  25   1
M  END
