
     RDKit          3D

 35 38  0  0  0  0  0  0  0  0999 V2000
    7.9610   -4.0130   -2.1330 C   0  0  0  0  0  0  0  0  0  0  0  0
    7.8740   -2.6480   -1.7110 O   0  0  0  0  0  0  0  0  0  0  0  0
    6.6350   -2.0460   -1.7150 C   0  0  0  0  0  0  0  0  0  0  0  0
    5.4650   -2.6690   -2.0660 C   0  0  0  0  0  0  0  0  0  0  0  0
    4.2650   -1.9950   -2.0420 C   0  0  0  0  0  0  0  0  0  0  0  0
    4.1840   -0.6590   -1.6640 C   0  0  0  0  0  0  0  0  0  0  0  0
    2.9450   -0.0500   -1.6620 O   0  0  0  0  0  0  0  0  0  0  0  0
    2.8320    1.2960   -1.3060 C   0  0  0  0  0  0  0  0  0  0  0  0
    1.3530    1.7220   -1.3420 C   0  0  0  0  0  0  0  0  0  0  0  0
    0.7170    0.8890   -0.3960 O   0  0  0  0  0  0  0  0  0  0  0  0
   -0.6150    0.9210   -0.1230 C   0  0  0  0  0  0  0  0  0  0  0  0
   -1.3560    1.7290   -0.7360 O   0  0  0  0  0  0  0  0  0  0  0  0
   -1.1640   -0.0080    0.9050 C   0  0  2  0  0  0  0  0  0  0  0  0
   -0.6830   -1.3970    0.6970 C   0  0  0  0  0  0  0  0  0  0  0  0
   -1.6100   -2.0580   -0.3150 C   0  0  0  0  0  0  0  0  0  0  0  0
   -3.0010   -2.2050    0.2740 C   0  0  0  0  0  0  0  0  0  0  0  0
   -3.2060   -1.1840    1.3840 C   0  0  0  0  0  0  0  0  0  0  0  0
   -2.5780    0.0650    1.0150 N   0  0  0  0  0  0  0  0  0  0  0  0
   -3.1210    1.3720    1.9920 S   0  0  1  0  0  0  0  0  0  0  0  0
   -2.7910    1.0330    3.4190 O   0  0  0  0  0  0  0  0  0  0  0  0
   -2.3880    2.6430    1.6760 O   0  0  0  0  0  0  0  0  0  0  0  0
   -4.8120    1.6630    1.8620 C   0  0  0  0  0  0  0  0  0  0  0  0
   -5.7150    1.0220    2.6790 C   0  0  0  0  0  0  0  0  0  0  0  0
   -7.0700    1.1820    2.6530 C   0  0  0  0  0  0  0  0  0  0  0  0
   -7.6540    2.0850    1.7110 C   0  0  0  0  0  0  0  0  0  0  0  0
   -8.9210    2.3240    1.5890 N   0  0  0  0  0  0  0  0  0  0  0  0
   -9.3890    3.1850    0.6810 C   0  0  0  0  0  0  0  0  0  0  0  0
  -10.4890    3.6040    0.3380 O   0  0  0  0  0  0  0  0  0  0  0  0
   -7.7890    3.7190   -0.0970 S   0  0  0  0  0  0  0  0  0  0  0  0
   -6.7370    2.7000    0.9210 C   0  0  0  0  0  0  0  0  0  0  0  0
   -5.3790    2.5420    0.9440 C   0  0  0  0  0  0  0  0  0  0  0  0
    5.3670   -0.0450   -1.3160 C   0  0  0  0  0  0  0  0  0  0  0  0
    6.5830   -0.7040   -1.3320 C   0  0  0  0  0  0  0  0  0  0  0  0
    7.7700   -0.0810   -0.9780 O   0  0  0  0  0  0  0  0  0  0  0  0
    7.7150    1.2770   -0.5910 C   0  0  0  0  0  0  0  0  0  0  0  0
  1  2  1  0
  2  3  1  0
  3  4  2  0
  3 33  1  0
  4  5  1  0
  5  6  2  0
  6  7  1  0
  6 32  1  0
  7  8  1  0
  8  9  1  0
  9 10  1  0
 10 11  1  0
 11 12  2  0
 13 11  1  6
 13 14  1  0
 13 18  1  0
 14 15  1  0
 15 16  1  0
 16 17  1  0
 17 18  1  0
 19 18  1  6
 19 20  2  0
 19 21  2  0
 19 22  1  0
 22 23  2  0
 22 31  1  0
 23 24  1  0
 24 25  2  0
 25 26  1  0
 25 30  1  0
 26 27  1  0
 27 28  2  0
 27 29  1  0
 29 30  1  0
 30 31  2  0
 32 33  2  0
 33 34  1  0
 34 35  1  0
M  END
