
     RDKit          3D

 23 23  0  0  0  0  0  0  0  0999 V2000
    4.8360   -2.1420   -0.8170 N   0  0  0  0  0  0  0  0  0  0  0  0
    5.1900   -0.7500   -0.8320 C   0  0  0  0  0  0  0  0  0  0  0  0
    4.0050    0.1350   -1.1500 C   0  0  0  0  0  0  0  0  0  0  0  0
    2.9710   -0.0420   -0.1680 O   0  0  0  0  0  0  0  0  0  0  0  0
    1.7870    0.6480   -0.2270 C   0  0  0  0  0  0  0  0  0  0  0  0
    1.6280    1.4520   -1.1790 O   0  0  0  0  0  0  0  0  0  0  0  0
    0.7630    0.4070    0.8330 C   0  0  2  0  0  0  0  0  0  0  0  0
    0.2270   -0.9890    0.5830 C   0  0  0  0  0  0  0  0  0  0  0  0
   -1.1070   -0.7450   -0.0900 C   0  0  1  0  0  0  0  0  0  0  0  0
   -2.0170   -1.8810    0.4480 C   0  0  2  0  0  0  0  0  0  0  0  0
   -1.3070   -3.1300   -0.0030 C   0  0  0  0  0  0  0  0  0  0  0  0
   -1.8720   -4.3120    0.3520 O   0  0  0  0  0  0  0  0  0  0  0  0
   -3.3620   -1.7750   -0.1630 C   0  0  0  0  0  0  0  0  0  0  0  0
   -4.2870   -2.8260    0.3560 C   0  0  0  0  0  0  0  0  0  0  0  0
   -5.6300   -2.6820   -0.2330 N   0  0  0  0  0  0  0  0  0  0  0  0
   -1.4660    0.4620    0.4250 O   0  0  0  0  0  0  0  0  0  0  0  0
   -0.4030    1.2260    0.6510 N   0  0  0  0  0  0  0  0  0  0  0  0
   -0.4000    2.6450    0.7090 C   0  0  0  0  0  0  0  0  0  0  0  0
   -1.4920    3.2730    0.5240 O   0  0  0  0  0  0  0  0  0  0  0  0
    0.7370    3.4210    0.9590 N   0  0  0  0  0  0  0  0  0  0  0  0
    0.7590    4.8620    1.0180 C   0  0  0  0  0  0  0  0  0  0  0  0
    0.3220    5.4520   -0.3000 C   0  0  0  0  0  0  0  0  0  0  0  0
    0.3560    6.8600   -0.2080 O   0  0  0  0  0  0  0  0  0  0  0  0
  1  2  1  0
  2  3  1  0
  3  4  1  0
  4  5  1  0
  5  6  2  0
  7  5  1  6
  7  8  1  0
  7 17  1  0
  9  8  1  1
  9 10  1  0
  9 16  1  0
 10 11  1  6
 10 13  1  0
 11 12  1  0
 13 14  1  0
 14 15  1  0
 16 17  1  0
 17 18  1  0
 18 19  2  0
 18 20  1  0
 20 21  1  0
 21 22  1  0
 22 23  1  0
M  CHG  2   1   1  15   1
M  END
