
     RDKit          3D

 23 22  0  0  0  0  0  0  0  0999 V2000
   -0.8780    5.7330    1.8220 C   0  0  0  0  0  0  0  0  0  0  0  0
   -0.3000    4.8880    0.7960 N   0  0  0  0  0  0  0  0  0  0  0  0
   -0.8170    3.6090    0.4820 C   0  0  0  0  0  0  0  0  0  0  0  0
   -1.7970    3.1480    1.0760 O   0  0  0  0  0  0  0  0  0  0  0  0
   -0.2080    2.8680   -0.5090 O   0  0  0  0  0  0  0  0  0  0  0  0
   -0.6320    1.5990   -0.8980 C   0  0  0  0  0  0  0  0  0  0  0  0
   -0.5840    0.5950    0.2360 C   0  0  2  0  0  0  0  0  0  0  0  0
    0.8600    0.4620    0.6760 C   0  0  0  0  0  0  0  0  0  0  0  0
    1.6030    0.0150   -0.3990 O   0  0  0  0  0  0  0  0  0  0  0  0
    2.9780   -0.1330   -0.0570 C   0  0  2  0  0  0  0  0  0  0  0  0
    3.7710    0.8080   -0.9080 C   0  0  0  0  0  0  0  0  0  0  0  0
    3.2780   -1.5870   -0.2520 C   0  0  0  0  0  0  0  0  0  0  0  0
    4.6680   -2.0080    0.0670 C   0  0  0  0  0  0  0  0  0  0  0  0
    5.7130   -1.4150   -0.7170 N   0  0  0  0  0  0  0  0  0  0  0  0
   -1.0090   -0.6620   -0.1760 O   0  0  0  0  0  0  0  0  0  0  0  0
   -1.9920   -1.0970    0.5520 O   0  0  0  0  0  0  0  0  0  0  0  0
   -3.1940   -1.0450   -0.1490 C   0  0  1  0  0  0  0  0  0  0  0  0
   -3.7780   -2.4420   -0.3230 C   0  0  0  0  0  0  0  0  0  0  0  0
   -2.8400   -3.2690   -1.0620 N   0  0  0  0  0  0  0  0  0  0  0  0
   -1.9590   -4.0110   -0.1830 C   0  0  0  0  0  0  0  0  0  0  0  0
   -4.1770   -0.1750    0.5270 C   0  0  0  0  0  0  0  0  0  0  0  0
   -5.4730    0.0270   -0.0080 N   0  0  0  0  0  0  0  0  0  0  0  0
   -3.8610    0.3980    1.5970 O   0  0  0  0  0  0  0  0  0  0  0  0
  1  2  1  0
  2  3  1  0
  3  4  2  0
  3  5  1  0
  5  6  1  0
  7  6  1  6
  7  8  1  0
  7 15  1  0
  8  9  1  0
  9 10  1  0
 10 11  1  6
 10 12  1  0
 12 13  1  0
 13 14  1  0
 15 16  1  0
 16 17  1  0
 17 18  1  1
 17 21  1  0
 18 19  1  0
 19 20  1  0
 21 22  1  0
 21 23  2  0
M  CHG  2  14   1  19   1
M  END
