
     RDKit          3D

 20 21  0  0  0  0  0  0  0  0999 V2000
   -3.8240    1.4300   -1.4400 C   0  0  0  0  0  0  0  0  0  0  0  0
   -4.3750    0.2720   -1.0340 C   0  0  0  0  0  0  0  0  0  0  0  0
   -5.8050    0.1950   -0.9240 N   0  0  0  0  0  0  0  0  0  0  0  0
   -6.4130   -1.0170   -0.5140 C   0  0  0  0  0  0  0  0  0  0  0  0
   -5.6770   -2.0800   -0.2320 C   0  0  0  0  0  0  0  0  0  0  0  0
   -4.2260   -2.0360   -0.3330 C   0  0  0  0  0  0  0  0  0  0  0  0
   -3.6100   -0.9100   -0.7160 C   0  0  0  0  0  0  0  0  0  0  0  0
   -2.1830   -0.8790   -0.8170 N   0  0  0  0  0  0  0  0  0  0  0  0
   -1.4370   -0.0210    0.0290 C   0  0  0  0  0  0  0  0  0  0  0  0
   -1.9450    0.7370    0.8930 O   0  0  0  0  0  0  0  0  0  0  0  0
    0.0430   -0.0100   -0.1080 C   0  0  0  0  0  0  0  0  0  0  0  0
    0.6860    0.9540    0.8620 C   0  0  0  0  0  0  0  0  0  0  0  0
    2.1100    0.9070    0.6690 N   0  0  0  0  0  0  0  0  0  0  0  0
    2.9650    0.0880    1.3030 C   0  0  0  0  0  0  0  0  0  0  0  0
    4.2540    0.3420    0.8470 C   0  0  0  0  0  0  0  0  0  0  0  0
    5.5120   -0.3270    1.2700 C   0  0  0  0  0  0  0  0  0  0  0  0
    6.6070    0.2660    0.5270 N   0  0  0  0  0  0  0  0  0  0  0  0
    4.1100    1.3360   -0.0710 N   0  0  0  0  0  0  0  0  0  0  0  0
    2.8120    1.6670   -0.1680 C   0  0  0  0  0  0  0  0  0  0  0  0
    2.2440    2.8200   -1.1660 S   0  0  0  0  0  0  0  0  0  0  0  0
  1  2  2  0
  2  3  1  0
  2  7  1  0
  3  4  1  0
  4  5  2  0
  5  6  1  0
  6  7  2  0
  7  8  1  0
  8  9  1  0
  9 10  2  0
  9 11  1  0
 11 12  1  0
 12 13  1  0
 13 14  1  0
 13 19  1  0
 14 15  2  0
 15 16  1  0
 15 18  1  0
 16 17  1  0
 18 19  1  0
 19 20  2  0
M  CHG  1  17   1
M  END
