
     RDKit          3D

 22 22  0  0  0  0  0  0  0  0999 V2000
   -4.4000    1.5920   -1.0460 C   0  0  0  0  0  0  0  0  0  0  0  0
   -3.7670    0.8660    0.0900 C   0  0  0  0  0  0  0  0  0  0  0  0
   -2.2330    1.0950    0.1230 C   0  0  2  0  0  0  0  0  0  0  0  0
   -1.6580    0.3860    1.2190 N   0  0  0  0  0  0  0  0  0  0  0  0
   -0.3500   -0.2390    0.9320 C   0  0  2  0  0  0  0  0  0  0  0  0
    0.5090    0.8640    0.4410 C   0  0  0  0  0  0  0  0  0  0  0  0
    1.8530    0.6340    0.0810 N   0  0  0  0  0  0  0  0  0  0  0  0
    2.7880    0.9630    1.1680 C   0  0  0  0  0  0  0  0  0  0  0  0
    4.1520    1.1950    0.6440 C   0  0  0  0  0  0  0  0  0  0  0  0
    5.0300    1.4960    1.5040 O   0  0  0  0  0  0  0  0  0  0  0  0
    4.5150    1.1020   -0.7260 N   0  0  0  0  0  0  0  0  0  0  0  0
    5.8310    1.3400   -1.1410 N   0  0  0  0  0  0  0  0  0  0  0  0
    6.6280    1.7010   -0.0990 O   0  0  0  0  0  0  0  0  0  0  0  0
   -0.5350   -1.3700    0.0130 C   0  0  1  0  0  0  0  0  0  0  0  0
    0.6360   -2.1860   -0.3930 C   0  0  0  0  0  0  0  0  0  0  0  0
    0.0930   -3.6180   -0.6490 C   0  0  0  0  0  0  0  0  0  0  0  0
   -1.4040   -3.4320   -0.5900 C   0  0  1  0  0  0  0  0  0  0  0  0
   -2.0870   -4.6010   -0.3200 O   0  0  0  0  0  0  0  0  0  0  0  0
   -1.4630   -2.4490    0.5900 C   0  0  0  0  0  0  0  0  0  0  0  0
   -2.1280    2.5890    0.3130 C   0  0  0  0  0  0  0  0  0  0  0  0
   -1.7310    3.1120    1.3770 O   0  0  0  0  0  0  0  0  0  0  0  0
   -2.4770    3.4500   -0.7120 O   0  0  0  0  0  0  0  0  0  0  0  0
  1  2  1  0
  3  2  1  1
  3  4  1  0
  3 20  1  0
  4  5  1  0
  5  6  1  6
  5 14  1  0
  6  7  1  0
  7  8  1  0
  8  9  1  0
  9 10  2  0
  9 11  1  0
 11 12  1  0
 12 13  1  0
 14 15  1  1
 14 19  1  0
 15 16  1  0
 16 17  1  0
 17 18  1  1
 17 19  1  0
 20 21  2  0
 20 22  1  0
M  CHG  2   4   1   7   1
M  END
