
     RDKit          3D

 19 20  0  0  0  0  0  0  0  0999 V2000
   -4.7390    2.3730    0.4460 N   0  0  0  0  0  0  0  0  0  0  0  0
   -4.3840    0.9960    0.5130 C   0  0  0  0  0  0  0  0  0  0  0  0
   -5.1420    0.2330    1.1260 O   0  0  0  0  0  0  0  0  0  0  0  0
   -3.1810    0.5390   -0.1200 C   0  0  0  0  0  0  0  0  0  0  0  0
   -2.7880   -0.7150   -0.0920 C   0  0  0  0  0  0  0  0  0  0  0  0
   -3.4360   -1.8820    0.5530 C   0  0  0  0  0  0  0  0  0  0  0  0
   -2.2900   -2.8350    0.8430 C   0  0  0  0  0  0  0  0  0  0  0  0
   -1.1630   -2.4970   -0.0630 C   0  0  0  0  0  0  0  0  0  0  0  0
   -1.5720   -1.2510   -0.7390 C   0  0  0  0  0  0  0  0  0  0  0  0
   -0.9850   -0.6650   -1.7610 C   0  0  0  0  0  0  0  0  0  0  0  0
    0.4800   -1.4080   -2.4570 S   0  0  0  0  0  0  0  0  0  0  0  0
    1.8880   -0.3940   -1.9340 C   0  0  0  0  0  0  0  0  0  0  0  0
    2.0870   -0.4710   -0.4320 C   0  0  0  0  0  0  0  0  0  0  0  0
    3.2460    0.3610   -0.0260 C   0  0  0  0  0  0  0  0  0  0  0  0
    4.5270   -0.0720    0.0540 N   0  0  0  0  0  0  0  0  0  0  0  0
    5.2830    0.9520    0.4540 N   0  0  0  0  0  0  0  0  0  0  0  0
    4.5190    2.0390    0.6340 C   0  0  0  0  0  0  0  0  0  0  0  0
    4.9610    3.1870    1.0190 N   0  0  0  0  0  0  0  0  0  0  0  0
    3.2680    1.6580    0.3350 N   0  0  0  0  0  0  0  0  0  0  0  0
  1  2  1  0
  2  3  2  0
  2  4  1  0
  4  5  2  3
  5  6  1  0
  5  9  1  0
  6  7  1  0
  7  8  1  0
  8  9  1  0
  9 10  2  3
 10 11  1  0
 11 12  1  0
 12 13  1  0
 13 14  1  0
 14 15  2  0
 14 19  1  0
 15 16  1  0
 16 17  1  0
 17 18  2  0
 17 19  1  0
M  CHG  1  18   1
M  END
