
     RDKit          3D

 22 21  0  0  0  0  0  0  0  0999 V2000
    4.8950   -2.1500    0.5130 C   0  0  0  0  0  0  0  0  0  0  0  0
    4.6180   -0.9470   -0.3730 C   0  0  2  0  0  0  0  0  0  0  0  0
    5.4300    0.1570    0.0960 N   0  0  0  0  0  0  0  0  0  0  0  0
    6.3690    0.7910   -0.7730 C   0  0  0  0  0  0  0  0  0  0  0  0
    7.1600    1.8650   -0.3210 N   0  0  0  0  0  0  0  0  0  0  0  0
    6.4460    0.3390   -1.9560 O   0  0  0  0  0  0  0  0  0  0  0  0
    3.1560   -0.6110   -0.2880 C   0  0  0  0  0  0  0  0  0  0  0  0
    2.8570    0.5060    0.1490 O   0  0  0  0  0  0  0  0  0  0  0  0
    2.1780   -1.4790   -0.6690 O   0  0  0  0  0  0  0  0  0  0  0  0
    0.7710   -1.2260   -0.6110 C   0  0  0  0  0  0  0  0  0  0  0  0
    0.3480   -0.9860    0.7830 C   0  0  0  0  0  0  0  0  0  0  0  0
   -0.9520   -0.7150    1.0540 O   0  0  0  0  0  0  0  0  0  0  0  0
   -1.5210    0.3870    0.4940 C   0  0  2  0  0  0  0  0  0  0  0  0
   -1.5670    1.4120    1.6980 C   0  0  0  0  0  0  0  0  0  0  0  0
   -2.3600    0.8010    2.7060 N   0  0  0  0  0  0  0  0  0  0  0  0
   -2.9230    0.2030    0.1270 C   0  0  1  0  0  0  0  0  0  0  0  0
   -3.6370    1.5030   -0.2330 C   0  0  0  0  0  0  0  0  0  0  0  0
   -3.0290    2.2200   -1.3750 C   0  0  0  0  0  0  0  0  0  0  0  0
   -3.7540    3.3860   -1.6170 O   0  0  0  0  0  0  0  0  0  0  0  0
   -3.3250   -0.7730   -0.8090 N   0  0  1  0  0  0  0  0  0  0  0  0
   -2.4900   -1.8900   -1.0570 C   0  0  0  0  0  0  0  0  0  0  0  0
   -4.6500   -1.3180   -0.4430 C   0  0  0  0  0  0  0  0  0  0  0  0
  2  1  1  1
  2  3  1  0
  2  7  1  0
  3  4  1  0
  4  5  1  0
  4  6  2  0
  7  8  2  0
  7  9  1  0
  9 10  1  0
 10 11  1  0
 11 12  1  0
 12 13  1  0
 13 14  1  1
 13 16  1  0
 14 15  1  0
 16 17  1  6
 16 20  1  0
 17 18  1  0
 18 19  1  0
 20 21  1  1
 20 22  1  0
M  CHG  2  15   1  20   1
M  END
