
     RDKit          3D

 23 23  0  0  0  0  0  0  0  0999 V2000
   -1.4990   -3.6950   -1.6380 N   0  0  0  0  0  0  0  0  0  0  0  0
   -1.1730   -2.6650   -0.6970 C   0  0  0  0  0  0  0  0  0  0  0  0
   -1.0660   -3.0480    0.4890 O   0  0  0  0  0  0  0  0  0  0  0  0
   -0.9860   -1.2640   -1.1440 C   0  0  0  0  0  0  0  0  0  0  0  0
   -0.6620   -0.3220   -0.1280 N   0  0  0  0  0  0  0  0  0  0  0  0
    0.6900    0.0360    0.1060 C   0  0  0  0  0  0  0  0  0  0  0  0
    0.8650    0.8410    1.0910 O   0  0  0  0  0  0  0  0  0  0  0  0
    1.9060   -0.3530   -0.6000 C   0  0  2  0  0  0  0  0  0  0  0  0
    2.6390   -1.5640   -0.1340 C   0  0  0  0  0  0  0  0  0  0  0  0
    2.0690   -2.8500   -0.3790 N   0  0  0  0  0  0  0  0  0  0  0  0
    2.8750    0.6910   -0.2230 O   0  0  0  0  0  0  0  0  0  0  0  0
    3.3220    1.3320   -1.3470 C   0  0  0  0  0  0  0  0  0  0  0  0
    4.3160    2.4160   -1.0690 C   0  0  0  0  0  0  0  0  0  0  0  0
    4.7000    2.9970   -2.2890 O   0  0  0  0  0  0  0  0  0  0  0  0
    5.5740    3.9420   -1.9760 O   0  0  0  0  0  0  0  0  0  0  0  0
   -1.7540    0.3370    0.6210 C   0  0  2  0  0  0  0  0  0  0  0  0
   -1.6900    1.7730    0.0740 C   0  0  0  0  0  0  0  0  0  0  0  0
   -2.6560    2.6550    0.6280 N   0  0  0  0  0  0  0  0  0  0  0  0
   -1.5050    0.3340    2.0960 C   0  0  0  0  0  0  0  0  0  0  0  0
   -2.6370    0.2540    3.0220 C   0  0  0  0  0  0  0  0  0  0  0  0
   -3.8580   -0.0780    2.4410 O   0  0  0  0  0  0  0  0  0  0  0  0
   -3.6460   -1.0020    1.4070 C   0  0  0  0  0  0  0  0  0  0  0  0
   -3.0710   -0.2080    0.2610 C   0  0  0  0  0  0  0  0  0  0  0  0
  1  2  1  0
  2  3  2  0
  2  4  1  0
  4  5  1  0
  5  6  1  0
  5 16  1  0
  6  7  2  0
  6  8  1  0
  8  9  1  1
  8 11  1  0
  9 10  1  0
 11 12  1  0
 12 13  1  0
 13 14  1  0
 14 15  1  0
 16 17  1  6
 16 19  1  0
 16 23  1  0
 17 18  1  0
 19 20  1  0
 20 21  1  0
 21 22  1  0
 22 23  1  0
M  CHG  2  10   1  18   1
M  END
