
     RDKit          3D

 23 23  0  0  0  0  0  0  0  0999 V2000
   -3.0390    3.7070    1.4620 C   0  0  0  0  0  0  0  0  0  0  0  0
   -2.1130    3.0220    0.8210 C   0  0  0  0  0  0  0  0  0  0  0  0
   -1.3790    3.6910   -0.1680 O   0  0  0  0  0  0  0  0  0  0  0  0
   -1.8770    1.6590    1.1300 N   0  0  0  0  0  0  0  0  0  0  0  0
   -1.2890    0.7840    0.1900 C   0  0  0  0  0  0  0  0  0  0  0  0
   -2.0530    0.0580   -0.7000 O   0  0  0  0  0  0  0  0  0  0  0  0
   -3.2870   -0.5480   -0.3680 C   0  0  2  0  0  0  0  0  0  0  0  0
   -3.0920   -1.5470    0.7410 C   0  0  0  0  0  0  0  0  0  0  0  0
   -4.3870   -2.1540    1.0550 N   0  0  0  0  0  0  0  0  0  0  0  0
   -3.8750   -1.1450   -1.6180 C   0  0  0  0  0  0  0  0  0  0  0  0
   -2.9600   -2.1260   -2.1440 N   0  0  0  0  0  0  0  0  0  0  0  0
    0.0180    0.6630    0.1660 C   0  0  0  0  0  0  0  0  0  0  0  0
    0.8580    1.3830    1.0570 N   0  0  0  0  0  0  0  0  0  0  0  0
    2.2820    1.2440    1.0230 C   0  0  0  0  0  0  0  0  0  0  0  0
    3.0340    1.6070    1.9390 O   0  0  0  0  0  0  0  0  0  0  0  0
    2.8870    0.6280   -0.1860 C   0  0  1  0  0  0  0  0  0  0  0  0
    4.1760   -0.1140    0.1690 C   0  0  0  0  0  0  0  0  0  0  0  0
    4.6870   -0.6150   -1.0050 O   0  0  0  0  0  0  0  0  0  0  0  0
    5.8660   -1.3180   -0.8450 C   0  0  0  0  0  0  0  0  0  0  0  0
    6.9700   -0.4800   -0.2540 C   0  0  0  0  0  0  0  0  0  0  0  0
    2.0280   -0.3210   -0.7750 O   0  0  0  0  0  0  0  0  0  0  0  0
    0.6430   -0.2320   -0.7940 C   0  0  0  0  0  0  0  0  0  0  0  0
   -0.0520   -0.9080   -1.6220 O   0  0  0  0  0  0  0  0  0  0  0  0
  1  2  2  0
  2  3  1  0
  2  4  1  0
  4  5  1  0
  5  6  1  0
  5 12  2  3
  6  7  1  0
  7  8  1  1
  7 10  1  0
  8  9  1  0
 10 11  1  0
 12 13  1  0
 12 22  1  0
 13 14  1  0
 14 15  2  0
 14 16  1  0
 16 17  1  1
 16 21  1  0
 17 18  1  0
 18 19  1  0
 19 20  1  0
 21 22  1  0
 22 23  2  0
M  CHG  2   9   1  11   1
M  END
