
     RDKit          3D

 27 29  0  0  0  0  0  0  0  0999 V2000
   -2.7270   -3.9700   -0.4120 C   0  0  0  0  0  0  0  0  0  0  0  0
   -1.9100   -2.7420   -0.1640 C   0  0  0  0  0  0  0  0  0  0  0  0
   -0.5910   -2.8620    0.0810 N   0  0  0  0  0  0  0  0  0  0  0  0
    0.1680   -1.7310    0.3130 C   0  0  0  0  0  0  0  0  0  0  0  0
   -0.3750   -0.4800    0.2950 C   0  0  0  0  0  0  0  0  0  0  0  0
   -1.7740   -0.4180    0.0310 C   0  0  0  0  0  0  0  0  0  0  0  0
   -2.2690    0.9050   -0.1490 C   0  0  0  0  0  0  0  0  0  0  0  0
   -2.7910    1.7450    0.7700 C   0  0  0  0  0  0  0  0  0  0  0  0
   -3.2120    3.0030    0.4590 C   0  0  0  0  0  0  0  0  0  0  0  0
   -3.1270    3.4560   -0.7820 C   0  0  0  0  0  0  0  0  0  0  0  0
   -3.6550    5.0270   -1.3330 Cl  0  0  0  0  0  0  0  0  0  0  0  0
   -2.5800    2.6070   -1.8220 C   0  0  0  0  0  0  0  0  0  0  0  0
   -2.1590    1.3580   -1.4940 C   0  0  0  0  0  0  0  0  0  0  0  0
   -1.4050    0.3420   -2.7430 Cl  0  0  0  0  0  0  0  0  0  0  0  0
   -2.5330   -1.5240   -0.1840 C   0  0  0  0  0  0  0  0  0  0  0  0
   -4.0220   -1.5400   -0.4250 C   0  0  0  0  0  0  0  0  0  0  0  0
   -4.6370   -0.9730    0.8170 N   0  0  0  0  0  0  0  0  0  0  0  0
    0.6360    0.5280    0.5730 C   0  0  0  0  0  0  0  0  0  0  0  0
    0.3910    1.7500    0.5970 O   0  0  0  0  0  0  0  0  0  0  0  0
    1.8580   -0.1540    0.7890 N   0  0  0  0  0  0  0  0  0  0  0  0
    3.1810    0.4260    1.0270 C   0  0  0  0  0  0  0  0  0  0  0  0
    4.0470    0.3440   -0.1570 C   0  0  0  0  0  0  0  0  0  0  0  0
    3.6110   -0.2390   -1.2090 O   0  0  0  0  0  0  0  0  0  0  0  0
    5.3480    0.9050   -0.1080 N   0  0  0  0  0  0  0  0  0  0  0  0
    5.7300    1.6600    1.0520 C   0  0  0  0  0  0  0  0  0  0  0  0
    6.2660    0.6060   -1.2170 C   0  0  0  0  0  0  0  0  0  0  0  0
    1.6200   -1.5770    0.6310 C   0  0  0  0  0  0  0  0  0  0  0  0
  1  2  1  0
  2  3  2  0
  2 15  1  0
  3  4  1  0
  4  5  2  0
  4 27  1  0
  5  6  1  0
  5 18  1  0
  6  7  1  0
  6 15  2  0
  7  8  2  0
  7 13  1  0
  8  9  1  0
  9 10  2  0
 10 11  1  0
 10 12  1  0
 12 13  2  0
 13 14  1  0
 15 16  1  0
 16 17  1  0
 18 19  2  0
 18 20  1  0
 20 21  1  0
 20 27  1  0
 21 22  1  0
 22 23  2  0
 22 24  1  0
 24 25  1  0
 24 26  1  0
M  CHG  1  17   1
M  END
