
     RDKit          3D

 26 28  0  0  0  0  0  0  0  0999 V2000
   -5.0370    0.1750   -2.6700 C   0  0  0  0  0  0  0  0  0  0  0  0
   -4.0100    0.3010   -1.5830 C   0  0  0  0  0  0  0  0  0  0  0  0
   -3.3350    1.3510   -1.4380 O   0  0  0  0  0  0  0  0  0  0  0  0
   -3.8380   -0.8180   -0.7310 N   0  0  0  0  0  0  0  0  0  0  0  0
   -2.8880   -0.8180    0.3380 C   0  0  0  0  0  0  0  0  0  0  0  0
   -2.1220    0.2430    0.5690 N   0  0  0  0  0  0  0  0  0  0  0  0
   -1.1870    0.3250    1.5740 C   0  0  0  0  0  0  0  0  0  0  0  0
   -0.4730    1.5500    1.6770 N   0  0  1  0  0  0  0  0  0  0  0  0
    0.5010    1.6130    2.6880 C   0  0  0  0  0  0  0  0  0  0  0  0
   -0.0510    1.9620    0.3790 C   0  0  0  0  0  0  0  0  0  0  0  0
    1.0560    1.2610   -0.2480 C   0  0  0  0  0  0  0  0  0  0  0  0
    1.7180    0.2240    0.3470 C   0  0  0  0  0  0  0  0  0  0  0  0
    2.7790   -0.4170   -0.3000 C   0  0  0  0  0  0  0  0  0  0  0  0
    3.4520   -1.4720    0.3050 C   0  0  0  0  0  0  0  0  0  0  0  0
    4.5000   -2.1060   -0.3300 C   0  0  0  0  0  0  0  0  0  0  0  0
    4.8770   -1.6780   -1.5860 C   0  0  0  0  0  0  0  0  0  0  0  0
    6.2120   -2.4650   -2.4290 Cl  0  0  0  0  0  0  0  0  0  0  0  0
    4.2000   -0.6310   -2.1720 C   0  0  0  0  0  0  0  0  0  0  0  0
    3.1420    0.0220   -1.5510 C   0  0  0  0  0  0  0  0  0  0  0  0
    2.4970    1.0460   -2.1490 N   0  0  0  0  0  0  0  0  0  0  0  0
    1.4990    1.6410   -1.5300 C   0  0  0  0  0  0  0  0  0  0  0  0
    0.9010    2.5970   -2.0950 O   0  0  0  0  0  0  0  0  0  0  0  0
   -1.0610   -0.7710    2.3690 C   0  0  0  0  0  0  0  0  0  0  0  0
   -1.8510   -1.9030    2.1530 C   0  0  0  0  0  0  0  0  0  0  0  0
   -2.7700   -1.9360    1.1380 C   0  0  0  0  0  0  0  0  0  0  0  0
   -3.7710   -3.3670    0.8620 Cl  0  0  0  0  0  0  0  0  0  0  0  0
  1  2  1  0
  2  3  2  0
  2  4  1  0
  4  5  1  0
  5  6  2  0
  5 25  1  0
  6  7  1  0
  7  8  1  0
  7 23  2  0
  8  9  1  1
  8 10  1  0
 10 11  1  0
 11 12  2  0
 11 21  1  0
 12 13  1  0
 13 14  2  0
 13 19  1  0
 14 15  1  0
 15 16  2  0
 16 17  1  0
 16 18  1  0
 18 19  2  0
 19 20  1  0
 20 21  1  0
 21 22  2  0
 23 24  1  0
 24 25  2  0
 25 26  1  0
M  CHG  1   8   1
M  END
