
     RDKit          3D

 27 29  0  0  0  0  0  0  0  0999 V2000
    3.6720    2.6280   -1.6770 C   0  0  0  0  0  0  0  0  0  0  0  0
    4.1790    2.2180   -0.3860 O   0  0  0  0  0  0  0  0  0  0  0  0
    4.8740    1.0210   -0.4100 C   0  0  0  0  0  0  0  0  0  0  0  0
    6.2450    1.0640   -0.6950 C   0  0  0  0  0  0  0  0  0  0  0  0
    7.0120    2.6160   -1.0000 Cl  0  0  0  0  0  0  0  0  0  0  0  0
    7.0100   -0.0640   -0.7460 C   0  0  0  0  0  0  0  0  0  0  0  0
    8.7430    0.0430   -1.1110 Cl  0  0  0  0  0  0  0  0  0  0  0  0
    6.4300   -1.2450   -0.5150 N   0  0  0  0  0  0  0  0  0  0  0  0
    5.1300   -1.3560   -0.2370 C   0  0  0  0  0  0  0  0  0  0  0  0
    4.5240   -2.6570    0.0110 C   0  0  0  0  0  0  0  0  0  0  0  0
    4.3170   -0.2090   -0.1770 C   0  0  0  0  0  0  0  0  0  0  0  0
    2.9480   -0.3860    0.1850 C   0  0  0  0  0  0  0  0  0  0  0  0
    2.0580    0.5140    0.4660 C   0  0  0  0  0  0  0  0  0  0  0  0
    0.6940    0.1300    0.8140 N   0  0  0  0  0  0  0  0  0  0  0  0
   -0.3650    0.6000    0.0060 C   0  0  0  0  0  0  0  0  0  0  0  0
   -0.1000    1.3260   -0.9780 O   0  0  0  0  0  0  0  0  0  0  0  0
   -1.7220    0.2310    0.3340 N   0  0  0  0  0  0  0  0  0  0  0  0
   -1.9970   -0.6030    1.4660 C   0  0  0  0  0  0  0  0  0  0  0  0
   -3.3840   -1.1210    1.5710 C   0  0  2  0  0  0  0  0  0  0  0  0
   -3.6650   -1.3750    3.0590 C   0  0  0  0  0  0  0  0  0  0  0  0
   -3.5660   -2.4560    0.8690 C   0  0  0  0  0  0  0  0  0  0  0  0
   -4.4320   -0.1560    1.0980 C   0  0  0  0  0  0  0  0  0  0  0  0
   -4.0660    0.5340   -0.1500 C   0  0  0  0  0  0  0  0  0  0  0  0
   -2.8070    0.6940   -0.4700 C   0  0  0  0  0  0  0  0  0  0  0  0
   -2.6920    1.4230   -1.7820 C   0  0  0  0  0  0  0  0  0  0  0  0
   -4.1150    1.7000   -2.1220 C   0  0  0  0  0  0  0  0  0  0  0  0
   -4.9390    1.0920   -1.1270 N   0  0  0  0  0  0  0  0  0  0  0  0
  1  2  1  0
  2  3  1  0
  3  4  2  0
  3 11  1  0
  4  5  1  0
  4  6  1  0
  6  7  1  0
  6  8  2  0
  8  9  1  0
  9 10  1  0
  9 11  2  0
 11 12  1  0
 12 13  2  3
 13 14  1  0
 14 15  1  0
 15 16  2  0
 15 17  1  0
 17 18  1  0
 17 24  1  0
 18 19  1  0
 19 20  1  1
 19 21  1  0
 19 22  1  0
 22 23  1  0
 23 24  2  0
 23 27  1  0
 24 25  1  0
 25 26  1  0
 26 27  1  0
M  CHG  1  27   1
M  END
