
     RDKit          3D

 27 29  0  0  0  0  0  0  0  0999 V2000
    6.9590   -0.7440    1.0940 C   0  0  0  0  0  0  0  0  0  0  0  0
    5.5640   -0.9270    0.5500 C   0  0  0  0  0  0  0  0  0  0  0  0
    5.1230   -2.0920   -0.0010 C   0  0  0  0  0  0  0  0  0  0  0  0
    3.8080   -1.8310   -0.3640 C   0  0  0  0  0  0  0  0  0  0  0  0
    3.4900   -0.5460   -0.0360 C   0  0  0  0  0  0  0  0  0  0  0  0
    2.2930    0.2560   -0.1820 C   0  0  0  0  0  0  0  0  0  0  0  0
    2.3800    1.4090    0.4020 O   0  0  0  0  0  0  0  0  0  0  0  0
    1.1260   -0.0120   -0.8180 N   0  0  0  0  0  0  0  0  0  0  0  0
    1.0370   -1.2650   -1.5970 C   0  0  0  0  0  0  0  0  0  0  0  0
    0.3720   -2.2460   -0.6760 C   0  0  0  0  0  0  0  0  0  0  0  0
   -1.1190   -1.9430   -0.7300 C   0  0  0  0  0  0  0  0  0  0  0  0
   -1.5820   -0.9540    0.1400 N   0  0  0  0  0  0  0  0  0  0  0  0
   -2.9950   -0.8920    0.2780 C   0  0  0  0  0  0  0  0  0  0  0  0
   -3.5510   -2.0890    0.9860 C   0  0  0  0  0  0  0  0  0  0  0  0
   -5.0120   -1.9950    1.1210 N   0  0  0  0  0  0  0  0  0  0  0  0
   -0.8680    0.2090    0.4110 C   0  0  0  0  0  0  0  0  0  0  0  0
   -0.0660    0.8340   -0.7160 C   0  0  1  0  0  0  0  0  0  0  0  0
    0.1830    2.2580   -0.4360 C   0  0  0  0  0  0  0  0  0  0  0  0
   -1.1000    3.0550   -0.4130 C   0  0  0  0  0  0  0  0  0  0  0  0
   -1.6240    3.4620    0.7790 C   0  0  0  0  0  0  0  0  0  0  0  0
   -2.7960    4.1970    0.8660 C   0  0  0  0  0  0  0  0  0  0  0  0
   -3.4800    4.7260    2.3810 Cl  0  0  0  0  0  0  0  0  0  0  0  0
   -3.4190    4.5080   -0.2800 N   0  0  0  0  0  0  0  0  0  0  0  0
   -2.9160    4.1130   -1.4880 C   0  0  0  0  0  0  0  0  0  0  0  0
   -1.7450    3.3780   -1.5760 C   0  0  0  0  0  0  0  0  0  0  0  0
   -1.1350    2.8910   -3.1560 Cl  0  0  0  0  0  0  0  0  0  0  0  0
    4.6250   -0.0470    0.5270 O   0  0  0  0  0  0  0  0  0  0  0  0
  1  2  1  0
  2  3  2  0
  2 27  1  0
  3  4  1  0
  4  5  2  0
  5  6  1  0
  5 27  1  0
  6  7  2  0
  6  8  1  0
  8  9  1  0
  8 17  1  0
  9 10  1  0
 10 11  1  0
 11 12  1  0
 12 13  1  0
 12 16  1  0
 13 14  1  0
 14 15  1  0
 16 17  1  0
 17 18  1  1
 18 19  1  0
 19 20  2  0
 19 25  1  0
 20 21  1  0
 21 22  1  0
 21 23  2  0
 23 24  1  0
 24 25  2  0
 25 26  1  0
M  CHG  1  15   1
M  END
