
     RDKit          3D

 26 28  0  0  0  0  0  0  0  0999 V2000
   -4.6860    0.4400    0.8860 C   0  0  0  0  0  0  0  0  0  0  0  0
   -3.8160    1.4950    0.2890 C   0  0  1  0  0  0  0  0  0  0  0  0
   -3.1280    2.3150    1.3640 C   0  0  0  0  0  0  0  0  0  0  0  0
   -2.7460    0.9510   -0.6020 C   0  0  0  0  0  0  0  0  0  0  0  0
   -2.4850    1.5840   -1.7980 C   0  0  0  0  0  0  0  0  0  0  0  0
   -1.5170    1.1550   -2.7020 C   0  0  0  0  0  0  0  0  0  0  0  0
   -0.7750    0.0310   -2.3830 C   0  0  0  0  0  0  0  0  0  0  0  0
   -1.0210   -0.6230   -1.1860 C   0  0  0  0  0  0  0  0  0  0  0  0
   -0.2680   -1.8290   -0.8520 C   0  0  0  0  0  0  0  0  0  0  0  0
    0.9400   -1.7680   -0.3620 C   0  0  0  0  0  0  0  0  0  0  0  0
    1.6110   -0.5140   -0.1050 C   0  0  0  0  0  0  0  0  0  0  0  0
    0.9310    1.0740   -0.3220 Cl  0  0  0  0  0  0  0  0  0  0  0  0
    2.8250   -0.5460    0.3610 N   0  0  0  0  0  0  0  0  0  0  0  0
    3.5570    0.6330    0.6400 C   0  0  0  0  0  0  0  0  0  0  0  0
    4.0010    0.9130    1.9290 C   0  0  0  0  0  0  0  0  0  0  0  0
    4.7140    2.0470    2.2480 C   0  0  0  0  0  0  0  0  0  0  0  0
    5.1110    2.2820    3.4320 O   0  0  0  0  0  0  0  0  0  0  0  0
    4.9760    2.9110    1.2250 N   0  0  0  0  0  0  0  0  0  0  0  0
    4.5590    2.6510    0.0080 N   0  0  0  0  0  0  0  0  0  0  0  0
    3.8600    1.5550   -0.3420 C   0  0  0  0  0  0  0  0  0  0  0  0
    3.4810    1.3490   -1.5270 O   0  0  0  0  0  0  0  0  0  0  0  0
    1.7160   -2.9820   -0.0660 C   0  0  0  0  0  0  0  0  0  0  0  0
    1.1600   -4.1480   -0.3140 C   0  0  0  0  0  0  0  0  0  0  0  0
   -0.1220   -4.3030   -0.8420 N   0  0  0  0  0  0  0  0  0  0  0  0
   -0.9120   -3.1670   -1.0530 C   0  0  0  0  0  0  0  0  0  0  0  0
   -2.0000   -0.1690   -0.2950 C   0  0  0  0  0  0  0  0  0  0  0  0
  2  1  1  1
  2  3  1  0
  2  4  1  0
  4  5  2  0
  4 26  1  0
  5  6  1  0
  6  7  2  0
  7  8  1  0
  8  9  1  0
  8 26  2  0
  9 10  2  0
  9 25  1  0
 10 11  1  0
 10 22  1  0
 11 12  1  0
 11 13  2  3
 13 14  1  0
 14 15  2  0
 14 20  1  0
 15 16  1  0
 16 17  2  0
 16 18  1  0
 18 19  1  0
 19 20  1  0
 20 21  2  0
 22 23  2  0
 23 24  1  0
 24 25  1  0
M  CHG  1  24   1
M  END
