
     RDKit          3D

 27 29  0  0  0  0  0  0  0  0999 V2000
    6.5310   -1.5270    0.3600 C   0  0  0  0  0  0  0  0  0  0  0  0
    6.0260   -0.1980   -0.1150 C   0  0  2  0  0  0  0  0  0  0  0  0
    6.2410    0.9110    0.8570 C   0  0  0  0  0  0  0  0  0  0  0  0
    5.2580    0.9570    1.9730 C   0  0  0  0  0  0  0  0  0  0  0  0
    4.0990    0.0340    1.8160 C   0  0  0  0  0  0  0  0  0  0  0  0
    3.6460   -0.0810    0.4600 N   0  0  0  0  0  0  0  0  0  0  0  0
    2.2380    0.0620    0.1440 C   0  0  0  0  0  0  0  0  0  0  0  0
    1.4130    0.2890    1.0580 O   0  0  0  0  0  0  0  0  0  0  0  0
    1.7730   -0.0490   -1.1810 N   0  0  0  0  0  0  0  0  0  0  0  0
    0.4580    0.0590   -1.6540 C   0  0  0  0  0  0  0  0  0  0  0  0
    0.2180    0.0430   -3.0320 C   0  0  0  0  0  0  0  0  0  0  0  0
   -0.9840    0.1320   -3.5740 N   0  0  0  0  0  0  0  0  0  0  0  0
   -2.0610    0.2470   -2.7820 C   0  0  0  0  0  0  0  0  0  0  0  0
   -3.2080    0.3370   -3.3030 O   0  0  0  0  0  0  0  0  0  0  0  0
   -1.9170    0.2700   -1.4320 C   0  0  0  0  0  0  0  0  0  0  0  0
   -3.0080    0.3530   -0.4900 C   0  0  0  0  0  0  0  0  0  0  0  0
   -3.9610   -0.5110   -0.3910 C   0  0  0  0  0  0  0  0  0  0  0  0
   -4.0560   -1.7160   -1.2290 C   0  0  1  0  0  0  0  0  0  0  0  0
   -2.4800   -2.3930   -1.6720 Cl  0  0  0  0  0  0  0  0  0  0  0  0
   -4.8620   -2.9640   -0.2030 Cl  0  0  0  0  0  0  0  0  0  0  0  0
   -5.0260   -0.2750    0.5480 N   0  0  1  0  0  0  0  0  0  0  0  0
   -4.4860   -0.2050    1.8660 C   0  0  0  0  0  0  0  0  0  0  0  0
   -5.3830    0.7420    2.6340 C   0  0  0  0  0  0  0  0  0  0  0  0
   -6.4290    1.1860    1.6160 C   0  0  0  0  0  0  0  0  0  0  0  0
   -5.6420    1.0020    0.3290 C   0  0  0  0  0  0  0  0  0  0  0  0
   -0.6280    0.1740   -0.8530 C   0  0  0  0  0  0  0  0  0  0  0  0
    4.6160   -0.3410   -0.5790 C   0  0  0  0  0  0  0  0  0  0  0  0
  2  1  1  1
  2  3  1  0
  2 27  1  0
  3  4  1  0
  4  5  1  0
  5  6  1  0
  6  7  1  0
  6 27  1  0
  7  8  2  0
  7  9  1  0
  9 10  1  0
 10 11  2  0
 10 26  1  0
 11 12  1  0
 12 13  1  0
 13 14  2  0
 13 15  1  0
 15 16  1  0
 15 26  2  0
 16 17  2  3
 17 18  1  0
 21 17  1  6
 18 19  1  1
 18 20  1  0
 21 22  1  0
 21 25  1  0
 22 23  1  0
 23 24  1  0
 24 25  1  0
M  CHG  1  21   1
M  END
