
     RDKit          3D

 27 29  0  0  0  0  0  0  0  0999 V2000
   -5.5940   -2.4320   -0.2240 C   0  0  0  0  0  0  0  0  0  0  0  0
   -4.5160   -1.7710   -0.5990 C   0  0  0  0  0  0  0  0  0  0  0  0
   -3.6550   -2.2410   -1.5310 O   0  0  0  0  0  0  0  0  0  0  0  0
   -2.6920   -1.3980   -1.7050 C   0  0  0  0  0  0  0  0  0  0  0  0
   -1.5440   -1.5450   -2.6440 C   0  0  0  0  0  0  0  0  0  0  0  0
   -2.9040   -0.3280   -0.8700 C   0  0  0  0  0  0  0  0  0  0  0  0
   -2.0560    0.8330   -0.7580 C   0  0  0  0  0  0  0  0  0  0  0  0
   -2.2610    1.8260   -1.4840 O   0  0  0  0  0  0  0  0  0  0  0  0
   -0.9960    0.8570    0.1670 N   0  0  0  0  0  0  0  0  0  0  0  0
   -0.7480   -0.2790    1.0100 C   0  0  0  0  0  0  0  0  0  0  0  0
    0.6990   -0.6960    0.7990 C   0  0  0  0  0  0  0  0  0  0  0  0
    1.6620    0.4230    1.1340 C   0  0  1  0  0  0  0  0  0  0  0  0
    2.5690    0.5730    0.0240 N   0  0  0  0  0  0  0  0  0  0  0  0
    3.7010    1.3950    0.2920 C   0  0  0  0  0  0  0  0  0  0  0  0
    4.9490    0.6450   -0.0450 C   0  0  0  0  0  0  0  0  0  0  0  0
    5.5250   -0.1100    0.9520 C   0  0  0  0  0  0  0  0  0  0  0  0
    6.6440   -0.8040    0.7110 N   0  0  0  0  0  0  0  0  0  0  0  0
    7.2410   -0.7890   -0.5050 C   0  0  0  0  0  0  0  0  0  0  0  0
    6.6570   -0.0430   -1.4620 N   0  0  0  0  0  0  0  0  0  0  0  0
    5.5370    0.6690   -1.2700 C   0  0  0  0  0  0  0  0  0  0  0  0
    0.8660    1.6630    1.4140 C   0  0  0  0  0  0  0  0  0  0  0  0
   -0.1070    2.0000    0.3250 C   0  0  0  0  0  0  0  0  0  0  0  0
   -4.0950   -0.5530   -0.1360 C   0  0  0  0  0  0  0  0  0  0  0  0
   -4.5460    0.3000    0.7330 C   0  0  0  0  0  0  0  0  0  0  0  0
   -5.7490    0.2060    1.5530 C   0  0  2  0  0  0  0  0  0  0  0  0
   -6.1300    1.8500    2.2640 Cl  0  0  0  0  0  0  0  0  0  0  0  0
   -5.5720   -0.8590    2.9680 Cl  0  0  0  0  0  0  0  0  0  0  0  0
  1  2  2  0
  2  3  1  0
  2 23  1  0
  3  4  1  0
  4  5  1  0
  4  6  2  0
  6  7  1  0
  6 23  1  0
  7  8  2  0
  7  9  1  0
  9 10  1  0
  9 22  1  0
 10 11  1  0
 11 12  1  0
 12 13  1  6
 12 21  1  0
 13 14  1  0
 14 15  1  0
 15 16  2  0
 15 20  1  0
 16 17  1  0
 17 18  2  0
 18 19  1  0
 19 20  2  0
 21 22  1  0
 23 24  2  3
 24 25  1  0
 25 26  1  1
 25 27  1  0
M  CHG  1  13   1
M  END
