
     RDKit          3D

 27 29  0  0  0  0  0  0  0  0999 V2000
   -7.2340   -0.4160   -1.8850 C   0  0  0  0  0  0  0  0  0  0  0  0
   -6.5160   -0.7940   -0.7200 O   0  0  0  0  0  0  0  0  0  0  0  0
   -5.1660   -0.4910   -0.5760 C   0  0  0  0  0  0  0  0  0  0  0  0
   -4.5260    0.1800   -1.5690 C   0  0  0  0  0  0  0  0  0  0  0  0
   -3.1980    0.4790   -1.4300 C   0  0  0  0  0  0  0  0  0  0  0  0
   -2.4340    0.1420   -0.3220 C   0  0  0  0  0  0  0  0  0  0  0  0
   -1.0200    0.4640   -0.2110 C   0  0  0  0  0  0  0  0  0  0  0  0
   -0.5450    1.5980   -0.7190 C   0  0  0  0  0  0  0  0  0  0  0  0
   -1.2400    2.6340   -1.4080 N   0  0  0  0  0  0  0  0  0  0  0  0
   -0.3710    3.5330   -1.7250 C   0  0  0  0  0  0  0  0  0  0  0  0
    0.9250    3.1830   -1.2900 N   0  0  0  0  0  0  0  0  0  0  0  0
    0.8490    2.0360   -0.6880 C   0  0  0  0  0  0  0  0  0  0  0  0
    1.9380    1.3170   -0.0810 N   0  0  0  0  0  0  0  0  0  0  0  0
    3.2200    1.3530   -0.7090 C   0  0  0  0  0  0  0  0  0  0  0  0
    4.2870    0.7060    0.0650 C   0  0  0  0  0  0  0  0  0  0  0  0
    4.9480   -0.3250   -0.4010 C   0  0  0  0  0  0  0  0  0  0  0  0
    6.0010   -0.9790    0.3470 C   0  0  0  0  0  0  0  0  0  0  0  0
    6.5460   -2.0870   -0.1120 N   0  0  0  0  0  0  0  0  0  0  0  0
    6.4770   -0.4310    1.6200 C   0  0  0  0  0  0  0  0  0  0  0  0
    5.6600    0.7160    2.0440 C   0  0  0  0  0  0  0  0  0  0  0  0
    6.0650    1.4250    3.6160 Cl  0  0  0  0  0  0  0  0  0  0  0  0
    4.6760    1.2440    1.3670 C   0  0  0  0  0  0  0  0  0  0  0  0
    3.7500    2.6310    1.9500 Cl  0  0  0  0  0  0  0  0  0  0  0  0
   -3.1260   -0.5470    0.6790 C   0  0  0  0  0  0  0  0  0  0  0  0
   -4.4700   -0.8580    0.5540 C   0  0  0  0  0  0  0  0  0  0  0  0
   -5.1660   -1.5380    1.5330 O   0  0  0  0  0  0  0  0  0  0  0  0
   -4.5040   -1.9400    2.7100 C   0  0  0  0  0  0  0  0  0  0  0  0
  1  2  1  0
  2  3  1  0
  3  4  2  0
  3 25  1  0
  4  5  1  0
  5  6  2  0
  6  7  1  0
  6 24  1  0
  7  8  2  3
  8  9  1  0
  8 12  1  0
  9 10  2  0
 10 11  1  0
 11 12  2  0
 12 13  1  0
 13 14  1  0
 14 15  1  0
 15 16  2  0
 15 22  1  0
 16 17  1  0
 17 18  2  0
 17 19  1  0
 19 20  1  0
 20 21  1  0
 20 22  2  0
 22 23  1  0
 24 25  2  0
 25 26  1  0
 26 27  1  0
M  CHG  1  18   1
M  END
