
     RDKit          3D

 27 29  0  0  0  0  0  0  0  0999 V2000
    7.2050    0.3130    1.1810 C   0  0  0  0  0  0  0  0  0  0  0  0
    5.8500    0.0430    0.6000 C   0  0  0  0  0  0  0  0  0  0  0  0
    5.6940   -0.1940   -0.7640 C   0  0  0  0  0  0  0  0  0  0  0  0
    4.4530   -0.4390   -1.3010 C   0  0  0  0  0  0  0  0  0  0  0  0
    3.3220   -0.4570   -0.4960 C   0  0  0  0  0  0  0  0  0  0  0  0
    3.4440   -0.2280    0.8510 C   0  0  0  0  0  0  0  0  0  0  0  0
    4.7080    0.0160    1.3630 C   0  0  0  0  0  0  0  0  0  0  0  0
    2.4470   -0.1870    1.8460 N   0  0  0  0  0  0  0  0  0  0  0  0
    1.4050   -1.1700    1.7330 C   0  0  0  0  0  0  0  0  0  0  0  0
    0.4660   -0.8250    0.6010 C   0  0  0  0  0  0  0  0  0  0  0  0
   -0.6600   -0.4680    0.9050 N   0  0  0  0  0  0  0  0  0  0  0  0
   -1.8130   -0.0690    0.2820 N   0  0  0  0  0  0  0  0  0  0  0  0
   -2.1310    1.2920    0.0500 C   0  0  0  0  0  0  0  0  0  0  0  0
   -1.2410    2.1360    0.4600 O   0  0  0  0  0  0  0  0  0  0  0  0
   -3.3370    1.7670   -0.5920 C   0  0  0  0  0  0  0  0  0  0  0  0
   -3.3830    3.0520   -1.1850 C   0  0  0  0  0  0  0  0  0  0  0  0
   -4.6120    3.1460   -1.6970 N   0  0  0  0  0  0  0  0  0  0  0  0
   -5.2820    2.0700   -1.4700 O   0  0  0  0  0  0  0  0  0  0  0  0
   -4.5490    1.1940   -0.7970 C   0  0  0  0  0  0  0  0  0  0  0  0
   -5.0280   -0.1510   -0.3730 C   0  0  2  0  0  0  0  0  0  0  0  0
   -6.5310   -0.2290   -0.7410 C   0  0  0  0  0  0  0  0  0  0  0  0
   -4.9960   -0.3550    1.1170 C   0  0  0  0  0  0  0  0  0  0  0  0
    0.8680   -0.9000   -0.7890 C   0  0  0  0  0  0  0  0  0  0  0  0
   -0.1840   -1.1910   -1.7600 C   0  0  1  0  0  0  0  0  0  0  0  0
    0.5900   -1.2920   -3.3850 Cl  0  0  0  0  0  0  0  0  0  0  0  0
   -0.8570   -2.8360   -1.4810 Cl  0  0  0  0  0  0  0  0  0  0  0  0
    2.1110   -0.7430   -1.3030 C   0  0  0  0  0  0  0  0  0  0  0  0
  1  2  1  0
  2  3  2  0
  2  7  1  0
  3  4  1  0
  4  5  2  0
  5  6  1  0
  5 27  1  0
  6  7  2  0
  6  8  1  0
  8  9  1  0
  9 10  1  0
 10 11  2  3
 10 23  1  0
 11 12  1  0
 12 13  1  0
 13 14  2  0
 13 15  1  0
 15 16  1  0
 15 19  2  0
 16 17  2  0
 17 18  1  0
 18 19  1  0
 19 20  1  0
 20 21  1  1
 20 22  1  0
 23 24  1  0
 23 27  2  0
 24 25  1  6
 24 26  1  0
M  CHG  1   8   1
M  END
