
     RDKit          3D

 29 30  0  0  0  0  0  0  0  0999 V2000
   -8.2560   -1.3870    0.3520 N   0  0  0  0  0  0  0  0  0  0  0  0
   -7.9600   -1.2790   -1.0220 C   0  0  0  0  0  0  0  0  0  0  0  0
   -6.6540   -0.6260   -1.3740 C   0  0  0  0  0  0  0  0  0  0  0  0
   -5.4940   -1.2440   -0.8770 N   0  0  0  0  0  0  0  0  0  0  0  0
   -4.8290   -0.6700    0.2340 C   0  0  2  0  0  0  0  0  0  0  0  0
   -5.3330    0.6060    0.7900 C   0  0  0  0  0  0  0  0  0  0  0  0
   -4.8230    1.8370    0.1250 C   0  0  0  0  0  0  0  0  0  0  0  0
   -3.8360    1.5140   -0.9510 C   0  0  0  0  0  0  0  0  0  0  0  0
   -2.7700    0.6100   -0.4210 C   0  0  1  0  0  0  0  0  0  0  0  0
   -1.8790    0.3550   -1.5150 O   0  0  0  0  0  0  0  0  0  0  0  0
   -1.9350    1.2160    0.6370 C   0  0  0  0  0  0  0  0  0  0  0  0
   -2.4520    1.4750    1.7460 O   0  0  0  0  0  0  0  0  0  0  0  0
   -0.5620    1.5260    0.4650 N   0  0  0  0  0  0  0  0  0  0  0  0
    0.2720    2.1130    1.4720 C   0  0  0  0  0  0  0  0  0  0  0  0
    1.6840    2.3030    0.9370 C   0  0  0  0  0  0  0  0  0  0  0  0
    2.3070    0.9880    0.5240 C   0  0  0  0  0  0  0  0  0  0  0  0
    3.7020    1.2720    0.0070 C   0  0  0  0  0  0  0  0  0  0  0  0
    4.3980    0.0130   -0.4290 C   0  0  0  0  0  0  0  0  0  0  0  0
    4.5470   -0.9890    0.6950 C   0  0  0  0  0  0  0  0  0  0  0  0
    5.2520   -2.1980    0.1350 C   0  0  0  0  0  0  0  0  0  0  0  0
    6.5120   -1.8490   -0.3670 O   0  0  0  0  0  0  0  0  0  0  0  0
    7.5150   -1.3140    0.4050 C   0  0  0  0  0  0  0  0  0  0  0  0
    7.3350   -1.1110    1.6360 O   0  0  0  0  0  0  0  0  0  0  0  0
    8.8160   -0.9690   -0.1980 C   0  0  0  0  0  0  0  0  0  0  0  0
    9.1220   -1.1440   -1.5250 C   0  0  0  0  0  0  0  0  0  0  0  0
   10.4260   -0.6950   -1.6520 C   0  0  0  0  0  0  0  0  0  0  0  0
   10.8350   -0.2720   -0.3900 C   0  0  0  0  0  0  0  0  0  0  0  0
    9.8370   -0.4590    0.4290 O   0  0  0  0  0  0  0  0  0  0  0  0
   -3.3090   -0.6800    0.1110 C   0  0  0  0  0  0  0  0  0  0  0  0
  1  2  1  0
  2  3  1  0
  3  4  1  0
  5  4  1  6
  5  6  1  0
  5 29  1  0
  6  7  1  0
  7  8  1  0
  8  9  1  0
  9 10  1  6
  9 11  1  0
  9 29  1  0
 11 12  2  0
 11 13  1  0
 13 14  1  0
 14 15  1  0
 15 16  1  0
 16 17  1  0
 17 18  1  0
 18 19  1  0
 19 20  1  0
 20 21  1  0
 21 22  1  0
 22 23  2  0
 22 24  1  0
 24 25  2  0
 24 28  1  0
 25 26  1  0
 26 27  2  0
 27 28  1  0
M  CHG  2   1   1   4   1
M  END
