
     RDKit          3D

 30 32  0  0  0  0  0  0  0  0999 V2000
   -3.5960    6.2980   -0.2590 C   0  0  0  0  0  0  0  0  0  0  0  0
   -4.0230    4.9570   -0.3980 O   0  0  0  0  0  0  0  0  0  0  0  0
   -3.1150    3.9480   -0.2620 C   0  0  0  0  0  0  0  0  0  0  0  0
   -1.8010    4.2030    0.0070 C   0  0  0  0  0  0  0  0  0  0  0  0
   -0.9080    3.1650    0.1390 C   0  0  0  0  0  0  0  0  0  0  0  0
   -1.2900    1.8530    0.0090 C   0  0  0  0  0  0  0  0  0  0  0  0
   -0.4380    0.7770    0.1310 O   0  0  0  0  0  0  0  0  0  0  0  0
    0.9290    1.0540    0.4090 C   0  0  0  0  0  0  0  0  0  0  0  0
    1.7110   -0.2260    0.5020 C   0  0  0  0  0  0  0  0  0  0  0  0
    1.0900   -1.3150    0.3320 O   0  0  0  0  0  0  0  0  0  0  0  0
    3.0760   -0.1530    0.7690 N   0  0  0  0  0  0  0  0  0  0  0  0
    3.6340    1.2030    0.9470 C   0  0  0  0  0  0  0  0  0  0  0  0
    5.0390    1.1240    0.7490 C   0  0  0  0  0  0  0  0  0  0  0  0
    6.3490    0.6260    0.4970 C   0  0  0  0  0  0  0  0  0  0  0  0
    6.2540   -0.8490    0.1410 C   0  0  0  0  0  0  0  0  0  0  0  0
    7.4140   -1.3090   -0.3750 C   0  0  0  0  0  0  0  0  0  0  0  0
    7.4990   -2.5820   -0.7460 N   0  0  0  0  0  0  0  0  0  0  0  0
    6.4430   -3.4020   -0.6100 C   0  0  0  0  0  0  0  0  0  0  0  0
    5.2620   -2.9390   -0.0870 C   0  0  0  0  0  0  0  0  0  0  0  0
    5.1000   -1.6010    0.3290 C   0  0  0  0  0  0  0  0  0  0  0  0
    3.7500   -1.4230    0.8330 C   0  0  0  0  0  0  0  0  0  0  0  0
   -2.6390    1.5990   -0.2670 C   0  0  0  0  0  0  0  0  0  0  0  0
   -3.0370    0.2140   -0.3970 C   0  0  0  0  0  0  0  0  0  0  0  0
   -4.2700   -0.1200   -0.6830 C   0  0  0  0  0  0  0  0  0  0  0  0
   -4.5920   -1.5590   -0.7970 C   0  0  0  0  0  0  0  0  0  0  0  0
   -5.8110   -1.9600   -1.0870 C   0  0  0  0  0  0  0  0  0  0  0  0
   -6.1030   -3.3750   -1.1930 C   0  0  0  0  0  0  0  0  0  0  0  0
   -7.3250   -3.7810   -1.4840 C   0  0  0  0  0  0  0  0  0  0  0  0
   -7.6060   -5.1660   -1.5870 N   0  0  0  0  0  0  0  0  0  0  0  0
   -3.5330    2.6410   -0.3990 C   0  0  0  0  0  0  0  0  0  0  0  0
  1  2  1  0
  2  3  1  0
  3  4  2  0
  3 30  1  0
  4  5  1  0
  5  6  2  0
  6  7  1  0
  6 22  1  0
  7  8  1  0
  8  9  1  0
  9 10  2  0
  9 11  1  0
 11 12  1  0
 11 21  1  0
 12 13  1  0
 13 14  1  0
 14 15  1  0
 15 16  2  0
 15 20  1  0
 16 17  1  0
 17 18  2  0
 18 19  1  0
 19 20  2  0
 20 21  1  0
 22 23  1  0
 22 30  2  0
 23 24  2  3
 24 25  1  0
 25 26  2  3
 26 27  1  0
 27 28  2  3
 28 29  1  0
M  CHG  2  17   1  29   1
M  END
