
     RDKit          3D

 31 35  0  0  0  0  0  0  0  0999 V2000
    9.2230   -2.7620    0.5570 C   0  0  0  0  0  0  0  0  0  0  0  0
    8.6270   -1.8500    1.4230 O   0  0  0  0  0  0  0  0  0  0  0  0
    7.6560   -0.9370    1.0690 C   0  0  0  0  0  0  0  0  0  0  0  0
    7.1430   -0.0840    2.0230 C   0  0  0  0  0  0  0  0  0  0  0  0
    6.1650    0.8370    1.6750 C   0  0  0  0  0  0  0  0  0  0  0  0
    5.6820    0.9290    0.3820 C   0  0  0  0  0  0  0  0  0  0  0  0
    4.6580    1.8740   -0.0360 C   0  0  0  0  0  0  0  0  0  0  0  0
    4.9370    3.1490   -0.4980 C   0  0  0  0  0  0  0  0  0  0  0  0
    3.9470    4.0250   -0.8880 C   0  0  0  0  0  0  0  0  0  0  0  0
    2.6400    3.5950   -0.8070 C   0  0  0  0  0  0  0  0  0  0  0  0
    2.3670    2.3110   -0.3410 C   0  0  0  0  0  0  0  0  0  0  0  0
    1.2240    1.6150   -0.1510 N   0  0  0  0  0  0  0  0  0  0  0  0
    1.4860    0.3890    0.3270 C   0  0  0  0  0  0  0  0  0  0  0  0
    0.6180   -0.6760    0.6380 N   0  0  0  0  0  0  0  0  0  0  0  0
   -0.7830   -0.6930    0.5770 C   0  0  0  0  0  0  0  0  0  0  0  0
   -1.4210   -1.8530    0.1740 C   0  0  0  0  0  0  0  0  0  0  0  0
   -2.8050   -1.9090    0.1420 C   0  0  0  0  0  0  0  0  0  0  0  0
   -3.5650   -0.8380    0.5030 C   0  0  0  0  0  0  0  0  0  0  0  0
   -4.9800   -0.8170    0.4930 N   0  0  0  0  0  0  0  0  0  0  0  0
   -5.7970   -1.8780   -0.0300 C   0  0  0  0  0  0  0  0  0  0  0  0
   -6.8340   -1.4230   -1.0160 C   0  0  0  0  0  0  0  0  0  0  0  0
   -7.3330   -0.1180   -0.6700 N   0  0  1  0  0  0  0  0  0  0  0  0
   -8.7110    0.0540   -1.0860 C   0  0  0  0  0  0  0  0  0  0  0  0
   -7.2040    0.0610    0.7600 C   0  0  0  0  0  0  0  0  0  0  0  0
   -5.7220    0.3260    1.0450 C   0  0  0  0  0  0  0  0  0  0  0  0
   -2.9130    0.3360    0.9110 C   0  0  0  0  0  0  0  0  0  0  0  0
   -1.5490    0.3870    0.9420 C   0  0  0  0  0  0  0  0  0  0  0  0
    2.8590    0.3480    0.4260 N   0  0  0  0  0  0  0  0  0  0  0  0
    3.3620    1.4920    0.0280 N   0  0  0  0  0  0  0  0  0  0  0  0
    6.2100    0.0660   -0.5530 C   0  0  0  0  0  0  0  0  0  0  0  0
    7.1850   -0.8640   -0.2390 C   0  0  0  0  0  0  0  0  0  0  0  0
  1  2  1  0
  2  3  1  0
  3  4  2  0
  3 31  1  0
  4  5  1  0
  5  6  2  0
  6  7  1  0
  6 30  1  0
  7  8  2  0
  7 29  1  0
  8  9  1  0
  9 10  2  0
 10 11  1  0
 11 12  1  0
 11 29  2  0
 12 13  1  0
 13 14  1  0
 13 28  2  0
 14 15  1  0
 15 16  2  0
 15 27  1  0
 16 17  1  0
 17 18  2  0
 18 19  1  0
 18 26  1  0
 19 20  1  0
 19 25  1  0
 20 21  1  0
 21 22  1  0
 22 23  1  1
 22 24  1  0
 24 25  1  0
 26 27  2  0
 28 29  1  0
 30 31  2  0
M  CHG  2  22   1  29   1
M  END
