
     RDKit          3D

 30 33  0  0  0  0  0  0  0  0999 V2000
    5.9860   -2.9230    0.7160 C   0  0  0  0  0  0  0  0  0  0  0  0
    4.7950   -2.5990    1.1790 C   0  0  0  0  0  0  0  0  0  0  0  0
    3.9250   -1.6540    0.4930 C   0  0  0  0  0  0  0  0  0  0  0  0
    2.7290   -1.3170    0.9420 C   0  0  0  0  0  0  0  0  0  0  0  0
    1.8680   -0.3710    0.2480 C   0  0  0  0  0  0  0  0  0  0  0  0
    2.2890    0.1390   -0.8170 O   0  0  0  0  0  0  0  0  0  0  0  0
    0.6130   -0.0000    0.6940 O   0  0  0  0  0  0  0  0  0  0  0  0
   -0.1900    0.9360   -0.0300 C   0  0  1  0  0  0  0  0  0  0  0  0
   -1.5070    0.2690   -0.2940 C   0  0  0  0  0  0  0  0  0  0  0  0
   -1.3780   -0.9500   -1.0660 N   0  0  0  0  0  0  0  0  0  0  0  0
   -1.4130   -1.0770   -2.4050 C   0  0  0  0  0  0  0  0  0  0  0  0
   -1.5970    0.0170   -3.4190 C   0  0  0  0  0  0  0  0  0  0  0  0
   -1.2430   -2.4230   -2.6590 C   0  0  0  0  0  0  0  0  0  0  0  0
   -1.1070   -3.1000   -1.4650 C   0  0  0  0  0  0  0  0  0  0  0  0
   -0.9180   -4.4290   -1.1440 C   0  0  0  0  0  0  0  0  0  0  0  0
   -0.8100   -4.8620    0.1600 C   0  0  0  0  0  0  0  0  0  0  0  0
   -0.8980   -3.9190    1.1510 C   0  0  0  0  0  0  0  0  0  0  0  0
   -1.0870   -2.5880    0.8350 C   0  0  0  0  0  0  0  0  0  0  0  0
   -1.1960   -2.1440   -0.4810 C   0  0  0  0  0  0  0  0  0  0  0  0
   -0.3770    2.1040    0.8740 C   0  0  0  0  0  0  0  0  0  0  0  0
   -1.1180    3.2100    0.4010 N   0  0  2  0  0  0  0  0  0  0  0  0
   -2.5160    3.2460    0.7460 C   0  0  0  0  0  0  0  0  0  0  0  0
   -2.8860    4.7350    0.9000 C   0  0  0  0  0  0  0  0  0  0  0  0
   -2.0100    5.5430    0.0710 N   0  0  0  0  0  0  0  0  0  0  0  0
   -1.6500    4.9230   -1.1610 C   0  0  0  0  0  0  0  0  0  0  0  0
   -0.9540    3.5670   -0.9800 C   0  0  0  0  0  0  0  0  0  0  0  0
    2.2750   -1.9360    2.1910 C   0  0  0  0  0  0  0  0  0  0  0  0
    2.9930   -2.7990    2.8780 C   0  0  0  0  0  0  0  0  0  0  0  0
    4.3320   -3.2080    2.4210 C   0  0  0  0  0  0  0  0  0  0  0  0
    5.0220   -4.0330    3.0740 O   0  0  0  0  0  0  0  0  0  0  0  0
  1  2  2  0
  2  3  1  0
  2 29  1  0
  3  4  2  0
  4  5  1  0
  4 27  1  0
  5  6  2  0
  5  7  1  0
  7  8  1  0
  8  9  1  1
  8 20  1  0
  9 10  1  0
 10 11  1  0
 10 19  1  0
 11 12  1  0
 11 13  2  0
 13 14  1  0
 14 15  2  0
 14 19  1  0
 15 16  1  0
 16 17  2  0
 17 18  1  0
 18 19  2  0
 21 20  1  6
 21 22  1  0
 21 26  1  0
 22 23  1  0
 23 24  1  0
 24 25  1  0
 25 26  1  0
 27 28  2  0
 28 29  1  0
 29 30  2  0
M  CHG  1  21   1
M  END
