
     RDKit          3D

 29 30  0  0  0  0  0  0  0  0999 V2000
   -6.8530    2.4530   -2.4190 C   0  0  0  0  0  0  0  0  0  0  0  0
   -6.4420    1.1220   -2.1790 O   0  0  0  0  0  0  0  0  0  0  0  0
   -6.9650    0.4200   -1.1170 C   0  0  0  0  0  0  0  0  0  0  0  0
   -7.8040    0.9930   -0.3830 O   0  0  0  0  0  0  0  0  0  0  0  0
   -6.5400   -0.9660   -0.8640 C   0  0  0  0  0  0  0  0  0  0  0  0
   -5.5130   -0.9140    0.2640 C   0  0  1  0  0  0  0  0  0  0  0  0
   -6.1360   -0.3190    1.4890 C   0  0  0  0  0  0  0  0  0  0  0  0
   -4.8900   -2.2480    0.5050 C   0  0  0  0  0  0  0  0  0  0  0  0
   -3.5870   -1.8860    1.2180 C   0  0  0  0  0  0  0  0  0  0  0  0
   -3.1420   -0.6490    0.5220 C   0  0  2  0  0  0  0  0  0  0  0  0
   -2.6770    0.3650    1.3630 O   0  0  0  0  0  0  0  0  0  0  0  0
   -1.4720    0.8350    0.8740 C   0  0  0  0  0  0  0  0  0  0  0  0
   -0.4650   -0.2240    0.8760 C   0  0  0  0  0  0  0  0  0  0  0  0
   -0.7470   -1.3570    1.3020 O   0  0  0  0  0  0  0  0  0  0  0  0
    0.8510    0.0240    0.3910 N   0  0  0  0  0  0  0  0  0  0  0  0
    1.1470    1.3420   -0.0770 C   0  0  0  0  0  0  0  0  0  0  0  0
    2.2640    1.4650   -1.0620 C   0  0  0  0  0  0  0  0  0  0  0  0
    2.8260    0.1110   -1.3550 C   0  0  0  0  0  0  0  0  0  0  0  0
    3.1770   -0.6830   -0.1500 C   0  0  1  0  0  0  0  0  0  0  0  0
    3.6780   -2.0470   -0.5380 C   0  0  0  0  0  0  0  0  0  0  0  0
    4.7970   -2.1450   -1.3870 N   0  0  0  0  0  0  0  0  0  0  0  0
    3.7860   -0.0210    0.9950 C   0  0  0  0  0  0  0  0  0  0  0  0
    5.0330    0.7270    0.9990 C   0  0  0  0  0  0  0  0  0  0  0  0
    6.3130    0.0560    0.6180 C   0  0  0  0  0  0  0  0  0  0  0  0
    7.4740    1.0660    0.8050 C   0  0  0  0  0  0  0  0  0  0  0  0
    7.2910    2.2320   -0.0220 N   0  0  0  0  0  0  0  0  0  0  0  0
    1.7410   -1.0800    0.4270 C   0  0  0  0  0  0  0  0  0  0  0  0
   -4.3650   -0.0940   -0.2400 C   0  0  1  0  0  0  0  0  0  0  0  0
   -4.2250   -0.2450   -1.6160 O   0  0  0  0  0  0  0  0  0  0  0  0
  1  2  1  0
  2  3  1  0
  3  4  2  0
  3  5  1  0
  5  6  1  0
  6  7  1  1
  6  8  1  0
  6 28  1  0
  8  9  1  0
  9 10  1  0
 10 11  1  1
 10 28  1  0
 11 12  1  0
 12 13  1  0
 13 14  2  0
 13 15  1  0
 15 16  1  0
 15 27  1  0
 16 17  1  0
 17 18  1  0
 18 19  1  0
 19 20  1  6
 19 22  1  0
 19 27  1  0
 20 21  1  0
 22 23  1  0
 23 24  1  0
 24 25  1  0
 25 26  1  0
 28 29  1  6
M  CHG  2  21   1  26   1
M  END
