
     RDKit          3D

 29 30  0  0  0  0  0  0  0  0999 V2000
   -6.7620    3.1910    0.3610 C   0  0  0  0  0  0  0  0  0  0  0  0
   -5.7760    2.0280    0.4070 C   0  0  2  0  0  0  0  0  0  0  0  0
   -5.7770    1.5140    1.7010 O   0  0  0  0  0  0  0  0  0  0  0  0
   -4.4150    2.5420    0.0210 C   0  0  0  0  0  0  0  0  0  0  0  0
   -3.4660    1.4290    0.1000 N   0  0  0  0  0  0  0  0  0  0  0  0
   -3.1310    0.9080   -1.2090 C   0  0  0  0  0  0  0  0  0  0  0  0
   -3.0930   -0.5950   -1.1440 C   0  0  1  0  0  0  0  0  0  0  0  0
   -2.0890   -1.0580   -0.1410 C   0  0  0  0  0  0  0  0  0  0  0  0
   -0.6990   -0.6410   -0.4260 C   0  0  0  0  0  0  0  0  0  0  0  0
   -0.3910    0.0150   -1.4640 O   0  0  0  0  0  0  0  0  0  0  0  0
    0.3560   -0.9570    0.4520 N   0  0  0  0  0  0  0  0  0  0  0  0
    0.2710   -1.6850    1.6910 C   0  0  0  0  0  0  0  0  0  0  0  0
    1.0710   -0.7900    2.5990 C   0  0  0  0  0  0  0  0  0  0  0  0
    2.2550   -0.4450    1.7160 C   0  0  0  0  0  0  0  0  0  0  0  0
    3.3980   -0.0810    2.2120 C   0  0  0  0  0  0  0  0  0  0  0  0
    4.6720    0.3000    1.5860 C   0  0  0  0  0  0  0  0  0  0  0  0
    4.6150    0.3690    0.1180 C   0  0  0  0  0  0  0  0  0  0  0  0
    5.8420    0.7290   -0.4670 O   0  0  0  0  0  0  0  0  0  0  0  0
    6.8680   -0.1430   -0.2150 C   0  0  2  0  0  0  0  0  0  0  0  0
    7.9940    0.6180    0.4440 C   0  0  0  0  0  0  0  0  0  0  0  0
    8.4280    1.6730   -0.4400 N   0  0  0  0  0  0  0  0  0  0  0  0
    7.3350   -0.7580   -1.5160 C   0  0  0  0  0  0  0  0  0  0  0  0
    7.7830    0.1730   -2.4230 O   0  0  0  0  0  0  0  0  0  0  0  0
    1.7970   -0.6330    0.3360 C   0  0  0  0  0  0  0  0  0  0  0  0
   -4.4840   -1.1150   -0.9090 C   0  0  2  0  0  0  0  0  0  0  0  0
   -4.5200   -2.6260   -0.8330 C   0  0  0  0  0  0  0  0  0  0  0  0
   -5.9340   -2.9020   -1.2980 C   0  0  0  0  0  0  0  0  0  0  0  0
   -6.1360   -1.7780   -2.2880 C   0  0  0  0  0  0  0  0  0  0  0  0
   -5.2980   -0.7490   -1.9670 O   0  0  0  0  0  0  0  0  0  0  0  0
  2  1  1  1
  2  3  1  0
  2  4  1  0
  4  5  1  0
  5  6  1  0
  7  6  1  1
  7  8  1  0
  7 25  1  0
  8  9  1  0
  9 10  2  0
  9 11  1  0
 11 12  1  0
 11 24  1  0
 12 13  1  0
 13 14  1  0
 14 15  2  3
 14 24  1  0
 15 16  1  0
 16 17  1  0
 17 18  1  0
 18 19  1  0
 19 20  1  6
 19 22  1  0
 20 21  1  0
 22 23  1  0
 25 26  1  6
 25 29  1  0
 26 27  1  0
 27 28  1  0
 28 29  1  0
M  CHG  2   5   1  21   1
M  END
