
     RDKit          3D

 29 30  0  0  0  0  0  0  0  0999 V2000
   -1.0530    0.5670    0.3790 C   0  0  0  0  0  0  0  0  0  0  0  0
   -1.6380   -0.7180   -0.1180 C   0  0  1  0  0  0  0  0  0  0  0  0
   -2.3340   -1.3040    0.9710 O   0  0  0  0  0  0  0  0  0  0  0  0
   -2.6110   -0.3680   -1.1990 C   0  0  0  0  0  0  0  0  0  0  0  0
   -3.7390    0.5310   -0.8050 C   0  0  0  0  0  0  0  0  0  0  0  0
   -4.6550    0.0670    0.2420 C   0  0  0  0  0  0  0  0  0  0  0  0
   -5.7540    1.0900    0.4820 C   0  0  1  0  0  0  0  0  0  0  0  0
   -6.6100    0.4640    1.5430 N   0  0  0  0  0  0  0  0  0  0  0  0
   -5.2630    2.3500    1.1540 C   0  0  0  0  0  0  0  0  0  0  0  0
   -4.4780    3.1730    0.4110 O   0  0  0  0  0  0  0  0  0  0  0  0
   -0.6840   -1.7660   -0.5560 C   0  0  2  0  0  0  0  0  0  0  0  0
    0.2390   -1.5020   -1.6710 C   0  0  0  0  0  0  0  0  0  0  0  0
    1.1950   -0.4010   -1.5590 C   0  0  0  0  0  0  0  0  0  0  0  0
    0.9850    0.8730   -2.0320 C   0  0  0  0  0  0  0  0  0  0  0  0
    1.9100    1.8850   -1.9110 C   0  0  0  0  0  0  0  0  0  0  0  0
    3.0760    1.6750   -1.3180 N   0  0  0  0  0  0  0  0  0  0  0  0
    3.3560    0.4420   -0.8260 C   0  0  0  0  0  0  0  0  0  0  0  0
    4.6730    0.2880   -0.2300 N   0  0  0  0  0  0  0  0  0  0  0  0
    5.6980    1.2480   -0.5400 C   0  0  0  0  0  0  0  0  0  0  0  0
    6.0670    2.2390    0.4880 C   0  0  0  0  0  0  0  0  0  0  0  0
    7.0860    3.0840   -0.0600 O   0  0  0  0  0  0  0  0  0  0  0  0
    4.8680   -0.7960    0.6840 C   0  0  0  0  0  0  0  0  0  0  0  0
    5.0130   -0.4370    2.1320 C   0  0  0  0  0  0  0  0  0  0  0  0
    3.8780    0.2450    2.5900 O   0  0  0  0  0  0  0  0  0  0  0  0
    2.4480   -0.5730   -0.9390 C   0  0  0  0  0  0  0  0  0  0  0  0
   -1.5730   -2.9940   -0.8750 C   0  0  0  0  0  0  0  0  0  0  0  0
   -0.7040   -4.1530   -0.4420 C   0  0  0  0  0  0  0  0  0  0  0  0
    0.4600   -3.5900    0.0820 O   0  0  0  0  0  0  0  0  0  0  0  0
    0.0480   -2.3870    0.6530 C   0  0  0  0  0  0  0  0  0  0  0  0
  2  1  1  1
  2  3  1  0
  2  4  1  0
  2 11  1  0
  4  5  1  0
  5  6  1  0
  6  7  1  0
  7  8  1  1
  7  9  1  0
  9 10  1  0
 11 12  1  6
 11 26  1  0
 11 29  1  0
 12 13  1  0
 13 14  2  0
 13 25  1  0
 14 15  1  0
 15 16  2  0
 16 17  1  0
 17 18  1  0
 17 25  2  0
 18 19  1  0
 18 22  1  0
 19 20  1  0
 20 21  1  0
 22 23  1  0
 23 24  1  0
 26 27  1  0
 27 28  1  0
 28 29  1  0
M  CHG  2   8   1  16   1
M  END
