
     RDKit          3D

 24 24  0  0  0  0  0  0  0  0999 V2000
   -4.1320    2.3420    0.6300 C   0  0  0  0  0  0  0  0  0  0  0  0
   -3.5810    1.1520    0.0140 N   0  0  0  0  0  0  0  0  0  0  0  0
   -4.3720    0.2710   -0.8090 C   0  0  0  0  0  0  0  0  0  0  0  0
   -5.1930   -1.0810    0.1670 P   0  0  0  0  0  0  0  0  0  0  0  0
   -5.3640   -2.4550   -0.8830 O   0  0  0  0  0  0  0  0  0  0  0  0
   -6.7760   -0.6360    0.6970 O   0  0  0  0  0  0  0  0  0  0  0  0
   -2.2200    0.8570    0.2360 C   0  0  0  0  0  0  0  0  0  0  0  0
   -1.7310   -0.1700   -0.2920 O   0  0  0  0  0  0  0  0  0  0  0  0
   -1.3380    1.7180    1.0720 C   0  0  0  0  0  0  0  0  0  0  0  0
    0.0090    1.1880    1.1370 N   0  0  0  0  0  0  0  0  0  0  0  0
    0.7810    1.2140   -0.0620 C   0  0  0  0  0  0  0  0  0  0  0  0
    0.6800    2.1020   -1.0600 C   0  0  0  0  0  0  0  0  0  0  0  0
    1.6150    1.7560   -2.0240 O   0  0  0  0  0  0  0  0  0  0  0  0
    2.0350    0.4120   -1.8430 C   0  0  0  0  0  0  0  0  0  0  0  0
    1.8200    0.2450   -0.3830 C   0  0  0  0  0  0  0  0  0  0  0  0
    2.3760   -0.5520    0.5030 C   0  0  0  0  0  0  0  0  0  0  0  0
    3.4410   -1.5390    0.1510 C   0  0  1  0  0  0  0  0  0  0  0  0
    4.6580   -1.3800    1.0000 C   0  0  0  0  0  0  0  0  0  0  0  0
    5.3200   -0.1940    0.9760 O   0  0  0  0  0  0  0  0  0  0  0  0
    5.9170    0.4440   -0.0860 C   0  0  0  0  0  0  0  0  0  0  0  0
    5.8530   -0.1300   -1.1880 O   0  0  0  0  0  0  0  0  0  0  0  0
    2.8560   -2.8700    0.5230 C   0  0  0  0  0  0  0  0  0  0  0  0
    1.7280   -3.0300    1.0020 O   0  0  0  0  0  0  0  0  0  0  0  0
    3.6260   -4.0330    0.3210 O   0  0  0  0  0  0  0  0  0  0  0  0
  1  2  1  0
  2  3  1  0
  2  7  1  0
  3  4  1  0
  4  5  1  0
  4  6  1  0
  7  8  2  0
  7  9  1  0
  9 10  1  0
 10 11  1  0
 11 12  2  0
 11 15  1  0
 12 13  1  0
 13 14  1  0
 14 15  1  0
 15 16  2  3
 16 17  1  0
 17 18  1  1
 17 22  1  0
 18 19  1  0
 19 20  1  0
 20 21  2  0
 22 23  2  0
 22 24  1  0
M  END
