
     RDKit          3D

 25 26  0  0  0  0  0  0  0  0999 V2000
   -8.2680    1.1800   -1.6870 O   0  0  0  0  0  0  0  0  0  0  0  0
   -7.3730    1.5940   -0.9170 C   0  0  0  0  0  0  0  0  0  0  0  0
   -7.3770    2.9290   -0.5610 O   0  0  0  0  0  0  0  0  0  0  0  0
   -6.3520    0.6530   -0.4180 C   0  0  0  0  0  0  0  0  0  0  0  0
   -6.2770   -0.6870   -0.7220 C   0  0  0  0  0  0  0  0  0  0  0  0
   -5.1850   -1.1990   -0.0560 C   0  0  0  0  0  0  0  0  0  0  0  0
   -4.6240   -0.1510    0.6380 C   0  0  0  0  0  0  0  0  0  0  0  0
   -3.4000   -0.2150    1.5210 C   0  0  0  0  0  0  0  0  0  0  0  0
   -2.2520    0.0550    0.7010 N   0  0  0  0  0  0  0  0  0  0  0  0
   -1.6360    1.3130    0.4060 C   0  0  0  0  0  0  0  0  0  0  0  0
   -0.9110    1.1140   -0.7660 O   0  0  0  0  0  0  0  0  0  0  0  0
   -0.5060   -0.1970   -0.7950 C   0  0  1  0  0  0  0  0  0  0  0  0
    0.8590   -0.3040   -0.2100 C   0  0  0  0  0  0  0  0  0  0  0  0
    1.4470    0.7230    0.2120 O   0  0  0  0  0  0  0  0  0  0  0  0
    1.5090   -1.5660   -0.1230 N   0  0  0  0  0  0  0  0  0  0  0  0
    2.8370   -1.7480    0.4330 C   0  0  0  0  0  0  0  0  0  0  0  0
    3.8600   -0.9540   -0.3400 C   0  0  0  0  0  0  0  0  0  0  0  0
    5.2060   -1.2200    0.3280 C   0  0  0  0  0  0  0  0  0  0  0  0
    6.2530   -0.4450   -0.4150 C   0  0  0  0  0  0  0  0  0  0  0  0
    5.8480    1.3710   -0.3440 P   0  0  0  0  0  0  0  0  0  0  0  0
    7.0540    2.2930   -1.1850 O   0  0  0  0  0  0  0  0  0  0  0  0
    5.6970    1.8820    1.2920 O   0  0  0  0  0  0  0  0  0  0  0  0
   -1.5050   -0.9380    0.0120 C   0  0  0  0  0  0  0  0  0  0  0  0
   -1.6960   -2.1750    0.1060 O   0  0  0  0  0  0  0  0  0  0  0  0
   -5.3560    0.9020    0.3820 O   0  0  0  0  0  0  0  0  0  0  0  0
  1  2  2  0
  2  3  1  0
  2  4  1  0
  4  5  2  0
  4 25  1  0
  5  6  1  0
  6  7  2  0
  7  8  1  0
  7 25  1  0
  8  9  1  0
  9 10  1  0
  9 23  1  0
 10 11  1  0
 11 12  1  0
 12 13  1  1
 12 23  1  0
 13 14  2  0
 13 15  1  0
 15 16  1  0
 16 17  1  0
 17 18  1  0
 18 19  1  0
 19 20  1  0
 20 21  1  0
 20 22  1  0
 23 24  2  0
M  END
