
     RDKit          3D

 25 25  0  0  0  0  0  0  0  0999 V2000
   -5.4350   -3.8030   -0.1570 C   0  0  0  0  0  0  0  0  0  0  0  0
   -4.6360   -2.5490   -0.4060 C   0  0  0  0  0  0  0  0  0  0  0  0
   -3.4270   -2.5570    0.2880 O   0  0  0  0  0  0  0  0  0  0  0  0
   -2.5820   -1.0900   -0.0560 P   0  0  0  0  0  0  0  0  0  0  0  0
   -3.6050   -0.0070   -0.9520 O   0  0  0  0  0  0  0  0  0  0  0  0
   -2.8640    1.0250   -1.5280 C   0  0  0  0  0  0  0  0  0  0  0  0
   -2.3470    1.8760   -0.4210 C   0  0  0  0  0  0  0  0  0  0  0  0
   -1.4440    2.8970   -0.8750 O   0  0  0  0  0  0  0  0  0  0  0  0
   -0.2720    3.2020   -0.1690 C   0  0  0  0  0  0  0  0  0  0  0  0
    0.1160    4.4570   -0.0360 C   0  0  0  0  0  0  0  0  0  0  0  0
   -0.7050    5.5270   -0.6450 C   0  0  0  0  0  0  0  0  0  0  0  0
    1.3070    4.7420    0.6920 N   0  0  0  0  0  0  0  0  0  0  0  0
    0.4160    2.1100    0.3560 O   0  0  0  0  0  0  0  0  0  0  0  0
    0.7480    0.9440   -0.3820 C   0  0  0  0  0  0  0  0  0  0  0  0
    1.3240   -0.0720    0.5790 C   0  0  2  0  0  0  0  0  0  0  0  0
    2.3760   -0.7110   -0.0430 O   0  0  0  0  0  0  0  0  0  0  0  0
    3.5420   -0.5990    0.5900 N   0  0  0  0  0  0  0  0  0  0  0  0
    3.7620    0.6370    1.2540 C   0  0  0  0  0  0  0  0  0  0  0  0
    4.0080   -1.7550    1.2650 C   0  0  0  0  0  0  0  0  0  0  0  0
    3.7080   -2.9900    0.4480 C   0  0  0  0  0  0  0  0  0  0  0  0
    4.3510   -2.8920   -0.7960 O   0  0  0  0  0  0  0  0  0  0  0  0
    4.1030   -3.9510   -1.5160 O   0  0  0  0  0  0  0  0  0  0  0  0
    0.2170   -1.0630    0.9570 C   0  0  0  0  0  0  0  0  0  0  0  0
   -0.1580   -1.9560   -0.1760 C   0  0  0  0  0  0  0  0  0  0  0  0
   -1.1730   -1.4950   -0.9780 O   0  0  0  0  0  0  0  0  0  0  0  0
  1  2  1  0
  2  3  1  0
  3  4  1  0
  4  5  1  0
  4 25  1  0
  5  6  1  0
  6  7  1  0
  7  8  1  0
  8  9  1  0
  9 10  2  3
  9 13  1  0
 10 11  1  0
 10 12  1  0
 13 14  1  0
 14 15  1  0
 15 16  1  6
 15 23  1  0
 16 17  1  0
 17 18  1  0
 17 19  1  0
 19 20  1  0
 20 21  1  0
 21 22  1  0
 23 24  1  0
 24 25  1  0
M  END
