
     RDKit          3D

 24 26  0  0  0  0  0  0  0  0999 V2000
   -5.3650    1.1920   -0.9370 N   0  0  0  0  0  0  0  0  0  0  0  0
   -4.5860    0.4100   -0.0600 C   0  0  0  0  0  0  0  0  0  0  0  0
   -3.2440    0.5110   -0.1440 N   0  0  0  0  0  0  0  0  0  0  0  0
   -2.4070   -0.1800    0.6290 C   0  0  0  0  0  0  0  0  0  0  0  0
   -2.9360   -1.0450    1.5660 C   0  0  0  0  0  0  0  0  0  0  0  0
   -1.9170   -1.6030    2.2080 N   0  0  0  0  0  0  0  0  0  0  0  0
   -0.7610   -1.1180    1.7090 C   0  0  0  0  0  0  0  0  0  0  0  0
   -1.0460   -0.2490    0.7440 N   0  0  0  0  0  0  0  0  0  0  0  0
   -0.2120    0.5570   -0.1230 C   0  0  1  0  0  0  0  0  0  0  0  0
    1.2390    0.5310    0.2770 C   0  0  0  0  0  0  0  0  0  0  0  0
    1.9260   -0.1740   -0.8140 N   0  0  0  0  0  0  0  0  0  0  0  0
    3.2240   -0.0090   -1.3230 C   0  0  0  0  0  0  0  0  0  0  0  0
    3.5540   -0.8180   -2.2810 O   0  0  0  0  0  0  0  0  0  0  0  0
    4.2330    0.9530   -0.9140 C   0  0  0  0  0  0  0  0  0  0  0  0
    4.8110    0.5000    0.7580 P   0  0  2  0  0  0  0  0  0  0  0  0
    6.2990    0.7330    0.9090 O   0  0  0  0  0  0  0  0  0  0  0  0
    4.3800   -1.0860    1.1280 O   0  0  0  0  0  0  0  0  0  0  0  0
    4.0450    1.5220    1.9000 O   0  0  0  0  0  0  0  0  0  0  0  0
    0.9200   -1.1110   -1.3140 C   0  0  0  0  0  0  0  0  0  0  0  0
   -0.2150   -0.0930   -1.4820 C   0  0  1  0  0  0  0  0  0  0  0  0
   -1.4170   -0.6980   -1.8010 O   0  0  0  0  0  0  0  0  0  0  0  0
   -4.3180   -1.1380    1.6400 C   0  0  0  0  0  0  0  0  0  0  0  0
   -4.8380   -1.9140    2.4810 O   0  0  0  0  0  0  0  0  0  0  0  0
   -5.1300   -0.4250    0.8420 N   0  0  0  0  0  0  0  0  0  0  0  0
  1  2  1  0
  2  3  2  0
  2 24  1  0
  3  4  1  0
  4  5  2  0
  4  8  1  0
  5  6  1  0
  5 22  1  0
  6  7  2  0
  7  8  1  0
  9  8  1  1
  9 10  1  0
  9 20  1  0
 10 11  1  0
 11 12  1  0
 11 19  1  0
 12 13  2  0
 12 14  1  0
 14 15  1  0
 15 16  2  0
 15 17  1  1
 15 18  1  0
 19 20  1  0
 20 21  1  1
 22 23  2  0
 22 24  1  0
M  END
