
     RDKit          3D

 25 26  0  0  0  0  0  0  0  0999 V2000
    0.4480    5.5180   -0.3530 C   0  0  0  0  0  0  0  0  0  0  0  0
    1.3180    4.3990   -0.3020 O   0  0  0  0  0  0  0  0  0  0  0  0
    1.1090    3.4070    0.6380 C   0  0  0  0  0  0  0  0  0  0  0  0
    0.1430    3.5290    1.4290 O   0  0  0  0  0  0  0  0  0  0  0  0
    1.9880    2.2180    0.7350 C   0  0  0  0  0  0  0  0  0  0  0  0
    1.3560    0.9920    0.1040 C   0  0  2  0  0  0  0  0  0  0  0  0
    2.3530   -0.1660    0.2660 C   0  0  0  0  0  0  0  0  0  0  0  0
    1.8580   -1.2900   -0.3550 O   0  0  0  0  0  0  0  0  0  0  0  0
    2.6690   -2.4050   -0.2620 C   0  0  0  0  0  0  0  0  0  0  0  0
    4.0020   -2.1740   -0.8850 C   0  0  0  0  0  0  0  0  0  0  0  0
    5.1020   -3.6650   -0.7810 P   0  0  0  0  0  0  0  0  0  0  0  0
    4.9900   -4.4800    0.7180 O   0  0  0  0  0  0  0  0  0  0  0  0
    4.9520   -4.6890   -2.1450 O   0  0  0  0  0  0  0  0  0  0  0  0
    1.1880    1.2300   -1.2370 O   0  0  0  0  0  0  0  0  0  0  0  0
   -0.1660    1.2570   -1.5140 C   0  0  0  0  0  0  0  0  0  0  0  0
   -0.8620    0.8310   -0.2780 C   0  0  0  0  0  0  0  0  0  0  0  0
   -2.1350    0.6760   -0.2020 N   0  0  0  0  0  0  0  0  0  0  0  0
   -2.8100    0.2810    0.9310 N   0  0  0  0  0  0  0  0  0  0  0  0
   -4.0250   -0.4500    0.8260 C   0  0  0  0  0  0  0  0  0  0  0  0
   -4.4170   -1.0110   -0.3050 C   0  0  0  0  0  0  0  0  0  0  0  0
   -5.6490   -1.7790   -0.4990 C   0  0  0  0  0  0  0  0  0  0  0  0
   -6.4010   -1.8640    0.6710 O   0  0  0  0  0  0  0  0  0  0  0  0
   -6.0480   -1.3010    1.8850 C   0  0  0  0  0  0  0  0  0  0  0  0
   -4.9170   -0.6220    1.9810 C   0  0  0  0  0  0  0  0  0  0  0  0
    0.1330    0.6620    0.6730 O   0  0  0  0  0  0  0  0  0  0  0  0
  1  2  1  0
  2  3  1  0
  3  4  2  0
  3  5  1  0
  6  5  1  1
  6  7  1  0
  6 14  1  0
  6 25  1  0
  7  8  1  0
  8  9  1  0
  9 10  1  0
 10 11  1  0
 11 12  1  0
 11 13  1  0
 14 15  1  0
 15 16  1  0
 16 17  2  3
 16 25  1  0
 17 18  1  0
 18 19  1  0
 19 20  2  0
 19 24  1  0
 20 21  1  0
 21 22  1  0
 22 23  1  0
 23 24  2  0
M  END
