
     RDKit          3D

 25 25  0  0  0  0  0  0  0  0999 V2000
   -5.1020    2.0370   -2.9820 C   0  0  0  0  0  0  0  0  0  0  0  0
   -4.3650    0.7560   -2.5970 C   0  0  0  0  0  0  0  0  0  0  0  0
   -4.6620    0.4890   -1.2820 O   0  0  0  0  0  0  0  0  0  0  0  0
   -3.8610   -0.9620   -0.7540 P   0  0  0  0  0  0  0  0  0  0  0  0
   -4.2180   -1.2140    0.9320 O   0  0  0  0  0  0  0  0  0  0  0  0
   -5.6110   -1.2950    1.0330 C   0  0  0  0  0  0  0  0  0  0  0  0
   -5.9830   -1.5150    2.4860 C   0  0  0  0  0  0  0  0  0  0  0  0
   -2.1440   -0.7030   -0.9150 O   0  0  0  0  0  0  0  0  0  0  0  0
   -1.8190    0.4180   -0.1580 C   0  0  0  0  0  0  0  0  0  0  0  0
   -0.3340    0.6970   -0.2560 C   0  0  0  0  0  0  0  0  0  0  0  0
    0.4080   -0.4520    0.2440 N   0  0  0  0  0  0  0  0  0  0  0  0
    1.8250   -0.3840    0.2350 C   0  0  0  0  0  0  0  0  0  0  0  0
    2.4920   -1.5130    0.1370 C   0  0  0  0  0  0  0  0  0  0  0  0
    3.9770   -1.4140    0.1290 C   0  0  0  0  0  0  0  0  0  0  0  0
    4.6870   -2.5150    0.0330 C   0  0  0  0  0  0  0  0  0  0  0  0
    6.1110   -2.6340    0.0080 C   0  0  0  0  0  0  0  0  0  0  0  0
    6.6150   -3.8200   -0.0920 O   0  0  0  0  0  0  0  0  0  0  0  0
    7.0580   -1.6350    0.0780 O   0  0  0  0  0  0  0  0  0  0  0  0
    4.5600   -0.0730    0.2300 C   0  0  0  0  0  0  0  0  0  0  0  0
    3.8440    1.0090    0.3250 C   0  0  0  0  0  0  0  0  0  0  0  0
    4.3340    2.3070    0.4230 N   0  0  0  0  0  0  0  0  0  0  0  0
    5.6840    2.6760    0.4390 C   0  0  0  0  0  0  0  0  0  0  0  0
    6.5990    1.8460    0.3620 O   0  0  0  0  0  0  0  0  0  0  0  0
    6.0650    4.0430    0.5440 O   0  0  0  0  0  0  0  0  0  0  0  0
    2.4440    0.8400    0.3260 O   0  0  0  0  0  0  0  0  0  0  0  0
  1  2  1  0
  2  3  1  0
  3  4  1  0
  4  5  1  0
  4  8  1  0
  5  6  1  0
  6  7  1  0
  8  9  1  0
  9 10  1  0
 10 11  1  0
 11 12  1  0
 12 13  2  0
 12 25  1  0
 13 14  1  0
 14 15  2  3
 14 19  1  0
 15 16  1  0
 16 17  2  0
 16 18  1  0
 19 20  2  0
 20 21  1  0
 20 25  1  0
 21 22  1  0
 22 23  2  0
 22 24  1  0
M  END
