
     RDKit          3D

 25 27  0  0  0  0  0  0  0  0999 V2000
    1.6880    0.6170    1.7840 O   0  0  0  0  0  0  0  0  0  0  0  0
    1.8960    0.1300    0.6520 C   0  0  0  0  0  0  0  0  0  0  0  0
    0.8440   -0.3370   -0.0870 O   0  0  0  0  0  0  0  0  0  0  0  0
   -0.5120   -0.2930    0.3840 C   0  0  0  0  0  0  0  0  0  0  0  0
   -1.4210   -0.8820   -0.6650 C   0  0  0  0  0  0  0  0  0  0  0  0
   -2.7600   -0.9110   -0.3630 O   0  0  0  0  0  0  0  0  0  0  0  0
   -3.5700    0.1600   -0.1420 C   0  0  0  0  0  0  0  0  0  0  0  0
   -3.3470    1.5190   -0.1610 C   0  0  0  0  0  0  0  0  0  0  0  0
   -4.5050    2.1500    0.1300 N   0  0  0  0  0  0  0  0  0  0  0  0
   -5.4650    1.2470    0.3340 C   0  0  0  0  0  0  0  0  0  0  0  0
   -6.8030    1.3560    0.6530 C   0  0  0  0  0  0  0  0  0  0  0  0
   -7.5240    0.2920    0.7970 O   0  0  0  0  0  0  0  0  0  0  0  0
   -7.0770   -0.9190    0.6600 C   0  0  0  0  0  0  0  0  0  0  0  0
   -7.8000   -1.9360    0.8050 O   0  0  0  0  0  0  0  0  0  0  0  0
   -5.7360   -1.0980    0.3380 C   0  0  0  0  0  0  0  0  0  0  0  0
   -4.9220    0.0130    0.1740 C   0  0  0  0  0  0  0  0  0  0  0  0
    3.2640    0.0620    0.1260 C   0  0  2  0  0  0  0  0  0  0  0  0
    3.7600   -1.3420   -0.0670 C   0  0  0  0  0  0  0  0  0  0  0  0
    5.2600   -1.1430   -0.1350 C   0  0  1  0  0  0  0  0  0  0  0  0
    5.8370   -0.6960   -1.8300 P   0  0  0  0  0  0  0  0  0  0  0  0
    7.5480   -0.4220   -1.7560 O   0  0  0  0  0  0  0  0  0  0  0  0
    5.0860    0.7250   -2.4380 O   0  0  0  0  0  0  0  0  0  0  0  0
    5.4870   -0.0710    0.8550 C   0  0  0  0  0  0  0  0  0  0  0  0
    6.5960    0.1830    1.4140 O   0  0  0  0  0  0  0  0  0  0  0  0
    4.2410    0.6040    1.0520 N   0  0  0  0  0  0  0  0  0  0  0  0
  1  2  2  0
  2  3  1  0
 17  2  1  1
  3  4  1  0
  4  5  1  0
  5  6  1  0
  6  7  1  0
  7  8  2  0
  7 16  1  0
  8  9  1  0
  9 10  1  0
 10 11  2  0
 10 16  1  0
 11 12  1  0
 12 13  1  0
 13 14  2  0
 13 15  1  0
 15 16  2  0
 17 18  1  0
 17 25  1  0
 18 19  1  0
 19 20  1  6
 19 23  1  0
 20 21  1  0
 20 22  1  0
 23 24  2  0
 23 25  1  0
M  END
