
     RDKit          3D

 21 22  0  0  0  0  0  0  0  0999 V2000
    3.5710    2.4630   -1.0820 C   0  0  0  0  0  0  0  0  0  0  0  0
    3.4620    1.0580   -0.6200 C   0  0  0  0  0  0  0  0  0  0  0  0
    2.2340    0.4070   -0.6460 C   0  0  0  0  0  0  0  0  0  0  0  0
    2.0900   -0.8750   -0.2340 C   0  0  0  0  0  0  0  0  0  0  0  0
    0.8940   -1.6270   -0.2190 N   0  0  0  0  0  0  0  0  0  0  0  0
   -0.3540   -1.1160   -0.6500 C   0  0  0  0  0  0  0  0  0  0  0  0
   -0.4720    0.0420   -1.0720 O   0  0  0  0  0  0  0  0  0  0  0  0
   -1.5280   -2.0480   -0.5680 C   0  0  0  0  0  0  0  0  0  0  0  0
   -2.8000   -1.3500   -0.7680 C   0  0  0  0  0  0  0  0  0  0  0  0
   -3.2040   -0.3470    0.2430 C   0  0  2  0  0  0  0  0  0  0  0  0
   -4.5440    0.2320   -0.1760 C   0  0  0  0  0  0  0  0  0  0  0  0
   -4.9200    1.3550    0.6800 C   0  0  0  0  0  0  0  0  0  0  0  0
   -4.0490    2.0870    1.3450 C   0  0  0  0  0  0  0  0  0  0  0  0
   -2.6360    1.7820    1.2410 C   0  0  0  0  0  0  0  0  0  0  0  0
   -1.7530    2.4380    1.8440 O   0  0  0  0  0  0  0  0  0  0  0  0
   -2.2960    0.6900    0.4100 O   0  0  0  0  0  0  0  0  0  0  0  0
    3.2420   -1.5360    0.2290 C   0  0  0  0  0  0  0  0  0  0  0  0
    3.2100   -2.8360    0.6700 O   0  0  0  0  0  0  0  0  0  0  0  0
    4.4880   -0.8940    0.2610 C   0  0  0  0  0  0  0  0  0  0  0  0
    4.5650    0.4040   -0.1700 C   0  0  0  0  0  0  0  0  0  0  0  0
    6.1590    1.2160   -0.1250 S   0  0  0  0  0  0  0  0  0  0  0  0
  1  2  1  0
  2  3  2  0
  2 20  1  0
  3  4  1  0
  4  5  1  0
  4 17  2  0
  5  6  1  0
  6  7  2  0
  6  8  1  0
  8  9  1  0
 10  9  1  6
 10 11  1  0
 10 16  1  0
 11 12  1  0
 12 13  2  0
 13 14  1  0
 14 15  2  0
 14 16  1  0
 17 18  1  0
 17 19  1  0
 19 20  2  0
 20 21  1  0
M  END
