
     RDKit          3D

 21 22  0  0  0  0  0  0  0  0999 V2000
    4.8500    2.7200   -0.2840 C   0  0  0  0  0  0  0  0  0  0  0  0
    4.2460    1.4000   -0.0740 C   0  0  0  0  0  0  0  0  0  0  0  0
    4.8170    0.1670    0.1240 C   0  0  0  0  0  0  0  0  0  0  0  0
    4.0480   -0.9050    0.2920 C   0  0  0  0  0  0  0  0  0  0  0  0
    4.5840   -2.3080    0.5160 C   0  0  0  0  0  0  0  0  0  0  0  0
    2.6800   -0.7200    0.2590 C   0  0  0  0  0  0  0  0  0  0  0  0
    1.5950   -1.6860    0.4110 C   0  0  0  0  0  0  0  0  0  0  0  0
    1.9130   -2.8820    0.6020 O   0  0  0  0  0  0  0  0  0  0  0  0
    0.2670   -1.2880    0.3440 O   0  0  0  0  0  0  0  0  0  0  0  0
   -0.7110   -2.2720    0.4980 C   0  0  0  0  0  0  0  0  0  0  0  0
   -2.0920   -1.7020    0.4040 C   0  0  0  0  0  0  0  0  0  0  0  0
   -3.0660   -2.4640    0.5230 O   0  0  0  0  0  0  0  0  0  0  0  0
   -2.2920   -0.3240    0.1840 N   0  0  0  0  0  0  0  0  0  0  0  0
   -3.5370    0.3510    0.0730 C   0  0  0  0  0  0  0  0  0  0  0  0
   -4.7740   -0.2340    0.1630 C   0  0  0  0  0  0  0  0  0  0  0  0
   -5.9770    0.4430    0.0520 C   0  0  0  0  0  0  0  0  0  0  0  0
   -5.9680    1.7830   -0.1610 C   0  0  0  0  0  0  0  0  0  0  0  0
   -4.7730    2.4250   -0.2610 C   0  0  0  0  0  0  0  0  0  0  0  0
   -3.5570    1.7340   -0.1470 C   0  0  0  0  0  0  0  0  0  0  0  0
   -2.4250    2.4860   -0.2650 O   0  0  0  0  0  0  0  0  0  0  0  0
    2.4930    1.0220   -0.0180 S   0  0  0  0  0  0  0  0  0  0  0  0
  1  2  1  0
  2  3  2  0
  2 21  1  0
  3  4  1  0
  4  5  1  0
  4  6  2  0
  6  7  1  0
  6 21  1  0
  7  8  2  0
  7  9  1  0
  9 10  1  0
 10 11  1  0
 11 12  2  0
 11 13  1  0
 13 14  1  0
 14 15  2  0
 14 19  1  0
 15 16  1  0
 16 17  2  0
 17 18  1  0
 18 19  2  0
 19 20  1  0
M  END
