
     RDKit          3D

 21 22  0  0  0  0  0  0  0  0999 V2000
    5.0520   -2.2670   -0.6550 C   0  0  0  0  0  0  0  0  0  0  0  0
    4.1800   -1.1100   -0.2930 C   0  0  0  0  0  0  0  0  0  0  0  0
    2.8010   -1.4280   -0.3780 O   0  0  0  0  0  0  0  0  0  0  0  0
    1.8770   -0.4420   -0.0690 C   0  0  0  0  0  0  0  0  0  0  0  0
    2.3040    0.6870    0.2710 O   0  0  0  0  0  0  0  0  0  0  0  0
    0.4460   -0.6560   -0.1210 C   0  0  0  0  0  0  0  0  0  0  0  0
   -0.0430   -1.9010   -0.4620 C   0  0  0  0  0  0  0  0  0  0  0  0
   -1.3820   -2.2060   -0.5210 C   0  0  0  0  0  0  0  0  0  0  0  0
   -1.7980   -3.3460   -0.8330 O   0  0  0  0  0  0  0  0  0  0  0  0
   -2.2800   -1.2160   -0.2230 C   0  0  0  0  0  0  0  0  0  0  0  0
   -3.6370   -1.4850   -0.2710 C   0  0  0  0  0  0  0  0  0  0  0  0
   -4.1650   -3.1350   -0.7250 S   0  0  0  0  0  0  0  0  0  0  0  0
   -4.5260   -0.4760    0.0320 C   0  0  0  0  0  0  0  0  0  0  0  0
   -4.0520    0.7730    0.3740 C   0  0  0  0  0  0  0  0  0  0  0  0
   -2.7370    1.0440    0.4230 N   0  0  0  0  0  0  0  0  0  0  0  0
   -1.8160    0.1120    0.1410 C   0  0  0  0  0  0  0  0  0  0  0  0
   -0.4500    0.3460    0.1790 C   0  0  0  0  0  0  0  0  0  0  0  0
   -0.0150    1.7000    0.5290 C   0  0  0  0  0  0  0  0  0  0  0  0
    0.2320    2.0350    1.7030 O   0  0  0  0  0  0  0  0  0  0  0  0
    0.1290    2.6890   -0.5570 C   0  0  0  0  0  0  0  0  0  0  0  0
    0.6070    4.0050    0.0210 C   0  0  0  0  0  0  0  0  0  0  0  0
  1  2  1  0
  2  3  1  0
  3  4  1  0
  4  5  2  0
  4  6  1  0
  6  7  2  0
  6 17  1  0
  7  8  1  0
  8  9  2  0
  8 10  1  0
 10 11  2  0
 10 16  1  0
 11 12  1  0
 11 13  1  0
 13 14  2  0
 14 15  1  0
 15 16  1  0
 16 17  2  0
 17 18  1  0
 18 19  2  0
 18 20  1  0
 20 21  1  0
M  END
