
     RDKit          3D

 40 44  0  0  0  0  0  0  0  0999 V2000
    7.2270    1.8450    3.5380 C   0  0  0  0  0  0  0  0  0  0  0  0
    7.0900    0.9410    2.4510 O   0  0  0  0  0  0  0  0  0  0  0  0
    8.1150    0.1270    2.0330 C   0  0  0  0  0  0  0  0  0  0  0  0
    9.2110    0.1830    2.6300 O   0  0  0  0  0  0  0  0  0  0  0  0
    7.9740   -0.8190    0.8980 C   0  0  0  0  0  0  0  0  0  0  0  0
    6.5670   -0.6990    0.3490 C   0  0  0  0  0  0  0  0  0  0  0  0
    6.3630   -1.6250   -0.7940 C   0  0  0  0  0  0  0  0  0  0  0  0
    7.3290   -2.3620   -1.1600 O   0  0  0  0  0  0  0  0  0  0  0  0
    5.1770   -1.7130   -1.4640 O   0  0  0  0  0  0  0  0  0  0  0  0
    4.9140   -2.5580   -2.5440 C   0  0  0  0  0  0  0  0  0  0  0  0
    3.5500   -2.4550   -3.0820 C   0  0  0  0  0  0  0  0  0  0  0  0
    3.2270   -3.1980   -4.0750 O   0  0  0  0  0  0  0  0  0  0  0  0
    2.5310   -1.5980   -2.6020 N   0  0  0  0  0  0  0  0  0  0  0  0
    2.8230   -0.7290   -1.4820 C   0  0  0  0  0  0  0  0  0  0  0  0
    1.2380   -1.5610   -3.1770 C   0  0  0  0  0  0  0  0  0  0  0  0
    0.9830   -2.3110   -4.1460 O   0  0  0  0  0  0  0  0  0  0  0  0
    0.2110   -0.6670   -2.6580 C   0  0  0  0  0  0  0  0  0  0  0  0
   -0.6500   -1.0620   -1.6600 C   0  0  0  0  0  0  0  0  0  0  0  0
   -1.6380   -0.2310   -1.1460 C   0  0  0  0  0  0  0  0  0  0  0  0
   -2.4670   -0.6320   -0.1740 N   0  0  0  0  0  0  0  0  0  0  0  0
   -3.4420    0.1590    0.3470 C   0  0  0  0  0  0  0  0  0  0  0  0
   -3.5570    1.4440   -0.1750 C   0  0  0  0  0  0  0  0  0  0  0  0
   -2.7260    1.8980   -1.1750 C   0  0  0  0  0  0  0  0  0  0  0  0
   -2.8080    3.0520   -1.6670 O   0  0  0  0  0  0  0  0  0  0  0  0
   -1.7400    1.0360   -1.6740 C   0  0  0  0  0  0  0  0  0  0  0  0
   -0.8830    1.4400   -2.6730 C   0  0  0  0  0  0  0  0  0  0  0  0
    0.0760    0.6110   -3.1620 C   0  0  0  0  0  0  0  0  0  0  0  0
    0.9130    1.0630   -4.1660 O   0  0  0  0  0  0  0  0  0  0  0  0
    0.8190    2.3610   -4.7180 C   0  0  0  0  0  0  0  0  0  0  0  0
   -4.6690    2.1550    0.5710 C   0  0  1  0  0  0  0  0  0  0  0  0
   -6.0270    1.7960    0.0510 C   0  0  0  0  0  0  0  0  0  0  0  0
   -7.2530    1.5010    1.3370 S   0  0  0  0  0  0  0  0  0  0  0  0
   -6.9230    0.0080    2.3050 C   0  0  0  0  0  0  0  0  0  0  0  0
   -5.6960    0.1080    3.1830 C   0  0  2  0  0  0  0  0  0  0  0  0
   -5.2420    1.5750    3.0120 C   0  0  0  0  0  0  0  0  0  0  0  0
   -4.3620    1.5000    1.8840 C   0  0  1  0  0  0  0  0  0  0  0  0
   -4.4750    0.0710    1.3150 C   0  0  2  0  0  0  0  0  0  0  0  0
   -4.5020   -0.6570    2.5550 C   0  0  2  0  0  0  0  0  0  0  0  0
   -4.8060   -2.1020    2.3720 C   0  0  0  0  0  0  0  0  0  0  0  0
   -5.1020   -2.7150    3.5880 O   0  0  0  0  0  0  0  0  0  0  0  0
  1  2  1  0
  2  3  1  0
  3  4  2  0
  3  5  1  0
  5  6  1  0
  6  7  1  0
  7  8  2  0
  7  9  1  0
  9 10  1  0
 10 11  1  0
 11 12  2  0
 11 13  1  0
 13 14  1  0
 13 15  1  0
 15 16  2  0
 15 17  1  0
 17 18  2  0
 17 27  1  0
 18 19  1  0
 19 20  1  0
 19 25  2  0
 20 21  1  0
 21 22  2  0
 37 21  1  6
 22 23  1  0
 22 30  1  0
 23 24  2  0
 23 25  1  0
 25 26  1  0
 26 27  2  0
 27 28  1  0
 28 29  1  0
 30 31  1  6
 30 36  1  0
 31 32  1  0
 32 33  1  0
 34 33  1  6
 34 35  1  0
 34 38  1  0
 36 35  1  1
 36 37  1  0
 37 38  1  0
 38 39  1  6
 39 40  1  0
M  END
