
     RDKit          3D

 40 43  0  0  0  0  0  0  0  0999 V2000
   -1.3440    2.1060    4.7870 C   0  0  0  0  0  0  0  0  0  0  0  0
   -1.4790    2.0280    3.2370 C   0  0  1  0  0  0  0  0  0  0  0  0
   -0.3480    2.7190    2.5030 C   0  0  0  0  0  0  0  0  0  0  0  0
   -0.4740    1.2230    2.5790 C   0  0  2  0  0  0  0  0  0  0  0  0
   -0.4490    0.5010    1.2820 C   0  0  0  0  0  0  0  0  0  0  0  0
   -1.3930   -0.4570    1.0990 O   0  0  0  0  0  0  0  0  0  0  0  0
   -2.7400   -0.4680    0.9140 C   0  0  0  0  0  0  0  0  0  0  0  0
   -3.5000    0.6920    0.8240 C   0  0  0  0  0  0  0  0  0  0  0  0
   -4.8580    0.7060    0.6340 C   0  0  0  0  0  0  0  0  0  0  0  0
   -5.6750    1.9510    0.5490 C   0  0  0  0  0  0  0  0  0  0  0  0
   -5.8990    2.5260   -1.0910 S   0  0  2  0  0  0  0  0  0  0  0  0
   -7.0380    1.7330   -1.7060 O   0  0  0  0  0  0  0  0  0  0  0  0
   -4.6690    2.1890   -1.8960 O   0  0  0  0  0  0  0  0  0  0  0  0
   -5.4750   -0.5220    0.5310 C   0  0  0  0  0  0  0  0  0  0  0  0
   -4.7470   -1.6870    0.6170 C   0  0  0  0  0  0  0  0  0  0  0  0
   -3.3660   -1.7250    0.8090 C   0  0  0  0  0  0  0  0  0  0  0  0
   -2.6430   -3.0030    0.9000 C   0  0  1  0  0  0  0  0  0  0  0  0
   -3.6440   -4.1690    0.9170 C   0  0  0  0  0  0  0  0  0  0  0  0
   -1.6490   -3.2240   -0.1190 N   0  0  0  0  0  0  0  0  0  0  0  0
   -0.5360   -4.0710    0.0570 C   0  0  0  0  0  0  0  0  0  0  0  0
   -0.4580   -4.6480    1.1930 O   0  0  0  0  0  0  0  0  0  0  0  0
    0.4810   -4.3480   -0.8740 N   0  0  0  0  0  0  0  0  0  0  0  0
    1.4930   -5.3420   -0.4980 C   0  0  0  0  0  0  0  0  0  0  0  0
    0.6240   -3.6650   -2.1700 C   0  0  0  0  0  0  0  0  0  0  0  0
    1.5630   -2.4820   -1.9050 C   0  0  2  0  0  0  0  0  0  0  0  0
    0.8700   -1.7290   -0.9140 O   0  0  0  0  0  0  0  0  0  0  0  0
    1.7790   -1.6480   -3.1280 C   0  0  0  0  0  0  0  0  0  0  0  0
    2.5000   -0.4720   -2.7790 O   0  0  0  0  0  0  0  0  0  0  0  0
    3.7450   -0.5020   -2.2200 C   0  0  0  0  0  0  0  0  0  0  0  0
    4.3280   -1.5820   -1.9980 O   0  0  0  0  0  0  0  0  0  0  0  0
    4.4260    0.7450   -1.8600 C   0  0  0  0  0  0  0  0  0  0  0  0
    5.6930    0.6740   -1.2780 C   0  0  0  0  0  0  0  0  0  0  0  0
    6.4060    1.7820   -0.8890 C   0  0  0  0  0  0  0  0  0  0  0  0
    5.8290    3.0170   -1.0900 C   0  0  0  0  0  0  0  0  0  0  0  0
    4.5890    3.1040   -1.6610 C   0  0  0  0  0  0  0  0  0  0  0  0
    3.8860    1.9770   -2.0460 C   0  0  0  0  0  0  0  0  0  0  0  0
    3.9490    4.4560   -1.8910 C   0  0  0  0  0  0  0  0  0  0  0  0
    4.9610    5.3900   -1.9530 O   0  0  0  0  0  0  0  0  0  0  0  0
    5.7220    5.3910   -0.7790 C   0  0  0  0  0  0  0  0  0  0  0  0
    6.4740    4.2100   -0.7300 O   0  0  0  0  0  0  0  0  0  0  0  0
  2  1  1  1
  2  3  1  0
  2  4  1  0
  3  4  1  0
  4  5  1  6
  5  6  1  0
  6  7  1  0
  7  8  2  0
  7 16  1  0
  8  9  1  0
  9 10  1  0
  9 14  2  0
 11 10  1  1
 11 12  2  0
 11 13  2  0
 14 15  1  0
 15 16  2  0
 16 17  1  0
 17 18  1  6
 17 19  1  0
 19 20  1  0
 20 21  2  0
 20 22  1  0
 22 23  1  0
 22 24  1  0
 24 25  1  0
 25 26  1  1
 25 27  1  0
 27 28  1  0
 28 29  1  0
 29 30  2  0
 29 31  1  0
 31 32  2  0
 31 36  1  0
 32 33  1  0
 33 34  2  0
 34 35  1  0
 34 40  1  0
 35 36  2  0
 35 37  1  0
 37 38  1  0
 38 39  1  0
 39 40  1  0
M  END
