
     RDKit          3D

 40 44  0  0  0  0  0  0  0  0999 V2000
    9.7430   -0.9940   -2.2510 C   0  0  0  0  0  0  0  0  0  0  0  0
    8.8330   -0.5780   -3.1890 O   0  0  0  0  0  0  0  0  0  0  0  0
    7.6550   -0.0690   -2.6200 C   0  0  0  0  0  0  0  0  0  0  0  0
    7.9030    1.0980   -1.7300 C   0  0  0  0  0  0  0  0  0  0  0  0
    6.7090    1.5870   -1.1820 O   0  0  0  0  0  0  0  0  0  0  0  0
    5.8040    0.9030   -0.4320 C   0  0  0  0  0  0  0  0  0  0  0  0
    6.0240   -0.3150   -0.1980 O   0  0  0  0  0  0  0  0  0  0  0  0
    4.6430    1.5310    0.0800 C   0  0  0  0  0  0  0  0  0  0  0  0
    4.1060    2.7500    0.0690 C   0  0  0  0  0  0  0  0  0  0  0  0
    2.9570    3.0630    0.6740 C   0  0  0  0  0  0  0  0  0  0  0  0
    2.3160    2.0180    1.3440 C   0  0  0  0  0  0  0  0  0  0  0  0
    1.0940    2.0890    2.1300 N   0  0  0  0  0  0  0  0  0  0  0  0
    0.4420    0.9830    2.6960 C   0  0  0  0  0  0  0  0  0  0  0  0
   -0.1010   -0.0400    1.8280 N   0  0  0  0  0  0  0  0  0  0  0  0
   -1.3070    0.0300    1.0010 C   0  0  0  0  0  0  0  0  0  0  0  0
   -1.7100    1.2600    0.3380 C   0  0  0  0  0  0  0  0  0  0  0  0
   -1.0190    2.3090    0.5810 O   0  0  0  0  0  0  0  0  0  0  0  0
   -2.7320    1.4760   -0.5380 O   0  0  0  0  0  0  0  0  0  0  0  0
   -2.9870    2.7650   -1.1170 C   0  0  0  0  0  0  0  0  0  0  0  0
   -1.8350   -1.1920    0.8890 C   0  0  0  0  0  0  0  0  0  0  0  0
   -3.0090   -1.6880    0.2400 C   0  0  0  0  0  0  0  0  0  0  0  0
   -3.0510   -2.9990    0.1200 O   0  0  0  0  0  0  0  0  0  0  0  0
   -4.1820   -1.0950   -0.3130 C   0  0  0  0  0  0  0  0  0  0  0  0
   -4.9030   -1.6460   -1.3610 C   0  0  0  0  0  0  0  0  0  0  0  0
   -6.1460   -1.2040   -1.7380 C   0  0  0  0  0  0  0  0  0  0  0  0
   -6.8370   -1.7770   -2.7880 O   0  0  0  0  0  0  0  0  0  0  0  0
   -6.7200   -0.1690   -1.0580 C   0  0  0  0  0  0  0  0  0  0  0  0
   -6.0660    0.4420    0.0070 C   0  0  0  0  0  0  0  0  0  0  0  0
   -4.8200   -0.0440    0.3400 C   0  0  0  0  0  0  0  0  0  0  0  0
   -6.6730    1.4700    0.6560 O   0  0  0  0  0  0  0  0  0  0  0  0
   -7.9550    1.9630    0.3580 C   0  0  0  0  0  0  0  0  0  0  0  0
   -8.7680    0.8770   -0.3050 C   0  0  0  0  0  0  0  0  0  0  0  0
   -7.9740    0.3450   -1.3660 O   0  0  0  0  0  0  0  0  0  0  0  0
   -0.9190   -2.1460    1.6440 C   0  0  1  0  0  0  0  0  0  0  0  0
   -0.5810   -3.3820    0.8600 C   0  0  0  0  0  0  0  0  0  0  0  0
    0.0790   -2.7710   -0.3710 C   0  0  0  0  0  0  0  0  0  0  0  0
    0.8760   -1.5980    0.1890 C   0  0  0  0  0  0  0  0  0  0  0  0
    0.4130   -1.3680    1.5990 C   0  0  1  0  0  0  0  0  0  0  0  0
    1.3540   -1.8860    2.6250 C   0  0  0  0  0  0  0  0  0  0  0  0
    3.3670    0.6310    1.0890 S   0  0  0  0  0  0  0  0  0  0  0  0
  1  2  1  0
  2  3  1  0
  3  4  1  0
  4  5  1  0
  5  6  1  0
  6  7  2  0
  6  8  1  0
  8  9  2  0
  8 40  1  0
  9 10  1  0
 10 11  2  0
 11 12  1  0
 11 40  1  0
 12 13  1  0
 13 14  1  0
 14 15  1  0
 14 38  1  0
 15 16  1  0
 15 20  2  0
 16 17  2  0
 16 18  1  0
 18 19  1  0
 20 21  1  0
 20 34  1  0
 21 22  2  0
 21 23  1  0
 23 24  2  0
 23 29  1  0
 24 25  1  0
 25 26  1  0
 25 27  2  0
 27 28  1  0
 27 33  1  0
 28 29  2  0
 28 30  1  0
 30 31  1  0
 31 32  1  0
 32 33  1  0
 34 35  1  6
 34 38  1  0
 35 36  1  0
 36 37  1  0
 37 38  1  0
 38 39  1  1
M  END
