
     RDKit          3D

 40 43  0  0  0  0  0  0  0  0999 V2000
    4.8020    1.7680   -0.2970 C   0  0  0  0  0  0  0  0  0  0  0  0
    5.6760    0.6430    0.2620 C   0  0  1  0  0  0  0  0  0  0  0  0
    6.4680    1.1430    1.4190 C   0  0  0  0  0  0  0  0  0  0  0  0
    6.4690    0.2860    2.5460 O   0  0  0  0  0  0  0  0  0  0  0  0
    6.2960   -1.0760    2.4590 C   0  0  0  0  0  0  0  0  0  0  0  0
    6.5120   -1.8130    3.4340 O   0  0  0  0  0  0  0  0  0  0  0  0
    5.8420   -1.6060    1.1460 C   0  0  0  0  0  0  0  0  0  0  0  0
    4.8740   -0.5650    0.6060 C   0  0  2  0  0  0  0  0  0  0  0  0
    4.0620   -1.0680   -0.4510 N   0  0  0  0  0  0  0  0  0  0  0  0
    2.6390   -1.2250   -0.3600 C   0  0  0  0  0  0  0  0  0  0  0  0
    2.0740   -0.9080    0.6940 O   0  0  0  0  0  0  0  0  0  0  0  0
    1.8350   -1.7540   -1.4880 C   0  0  0  0  0  0  0  0  0  0  0  0
    0.4940   -1.7390   -1.1840 O   0  0  0  0  0  0  0  0  0  0  0  0
   -0.3020   -0.6120   -0.9180 C   0  0  0  0  0  0  0  0  0  0  0  0
    0.2490    0.6340   -0.9800 C   0  0  0  0  0  0  0  0  0  0  0  0
   -0.4880    1.7970   -0.7230 C   0  0  0  0  0  0  0  0  0  0  0  0
    0.1730    3.0660   -0.7930 C   0  0  0  0  0  0  0  0  0  0  0  0
    1.4540    2.9960   -1.0320 O   0  0  0  0  0  0  0  0  0  0  0  0
   -0.3130    4.3680   -0.6520 N   0  0  0  0  0  0  0  0  0  0  0  0
   -1.6530    4.8120   -0.4130 C   0  0  0  0  0  0  0  0  0  0  0  0
    0.6800    5.4740   -0.7790 C   0  0  0  0  0  0  0  0  0  0  0  0
    1.3510    5.7840    0.5120 C   0  0  2  0  0  0  0  0  0  0  0  0
    0.4700    6.2820    1.6160 C   0  0  0  0  0  0  0  0  0  0  0  0
    1.1750    7.3950    2.1060 O   0  0  0  0  0  0  0  0  0  0  0  0
    1.6720    7.9170    0.8910 C   0  0  0  0  0  0  0  0  0  0  0  0
    2.2770    6.8340    0.3090 O   0  0  0  0  0  0  0  0  0  0  0  0
   -1.8120    1.5640   -0.4030 C   0  0  0  0  0  0  0  0  0  0  0  0
   -2.3730    0.3320   -0.3390 C   0  0  0  0  0  0  0  0  0  0  0  0
   -1.6500   -0.7890   -0.5900 C   0  0  0  0  0  0  0  0  0  0  0  0
   -2.3220   -1.9640   -0.4920 O   0  0  0  0  0  0  0  0  0  0  0  0
   -3.7080   -1.9130   -0.7380 C   0  0  1  0  0  0  0  0  0  0  0  0
   -4.0160   -1.7850   -2.1880 C   0  0  0  0  0  0  0  0  0  0  0  0
   -4.4710   -2.9760   -0.0160 C   0  0  2  0  0  0  0  0  0  0  0  0
   -4.2840   -2.8270    1.3550 O   0  0  0  0  0  0  0  0  0  0  0  0
   -3.9450   -4.3110   -0.5060 C   0  0  0  0  0  0  0  0  0  0  0  0
   -4.6160   -5.4830    0.1290 C   0  0  2  0  0  0  0  0  0  0  0  0
   -4.4340   -5.4780    1.6460 C   0  0  0  0  0  0  0  0  0  0  0  0
   -3.8600   -6.7290   -0.3480 C   0  0  0  0  0  0  0  0  0  0  0  0
   -6.0500   -5.6580   -0.2490 C   0  0  0  0  0  0  0  0  0  0  0  0
   -4.0170   -0.2540    0.0190 S   0  0  0  0  0  0  0  0  0  0  0  0
  2  1  1  1
  2  3  1  0
  2  8  1  0
  3  4  1  0
  4  5  1  0
  5  6  2  0
  5  7  1  0
  7  8  1  0
  8  9  1  6
  9 10  1  0
 10 11  2  0
 10 12  1  0
 12 13  1  0
 13 14  1  0
 14 15  2  0
 14 29  1  0
 15 16  1  0
 16 17  1  0
 16 27  2  0
 17 18  2  0
 17 19  1  0
 19 20  1  0
 19 21  1  0
 22 21  1  6
 22 23  1  0
 22 26  1  0
 23 24  1  0
 24 25  1  0
 25 26  1  0
 27 28  1  0
 28 29  2  0
 28 40  1  0
 29 30  1  0
 30 31  1  0
 31 32  1  6
 31 33  1  0
 31 40  1  0
 33 34  1  1
 33 35  1  0
 35 36  1  0
 36 37  1  1
 36 38  1  0
 36 39  1  0
M  END
