
     RDKit          3D

 40 44  0  0  0  0  0  0  0  0999 V2000
   -7.6780   -2.1480    0.3120 C   0  0  0  0  0  0  0  0  0  0  0  0
   -6.3800   -2.8780    0.3910 C   0  0  0  0  0  0  0  0  0  0  0  0
   -5.5350   -2.7590   -0.8170 C   0  0  0  0  0  0  0  0  0  0  0  0
   -5.0510   -1.4180   -1.1560 C   0  0  0  0  0  0  0  0  0  0  0  0
   -3.7920   -1.0180   -1.2410 C   0  0  0  0  0  0  0  0  0  0  0  0
   -2.6090   -1.9250   -0.9860 C   0  0  1  0  0  0  0  0  0  0  0  0
   -1.8280   -1.9970   -2.1570 O   0  0  0  0  0  0  0  0  0  0  0  0
   -1.7480   -1.3840    0.1500 C   0  0  2  0  0  0  0  0  0  0  0  0
   -2.5570   -1.3320    1.2620 O   0  0  0  0  0  0  0  0  0  0  0  0
   -2.6580   -0.0210    1.6480 C   0  0  0  0  0  0  0  0  0  0  0  0
   -1.4170    0.6080    1.0290 C   0  0  1  0  0  0  0  0  0  0  0  0
   -0.2620    0.3040    1.9310 C   0  0  0  0  0  0  0  0  0  0  0  0
    0.9420    0.6260    1.3570 O   0  0  0  0  0  0  0  0  0  0  0  0
    1.4150    1.8440    1.0190 C   0  0  0  0  0  0  0  0  0  0  0  0
    0.7970    3.0360    1.2300 C   0  0  0  0  0  0  0  0  0  0  0  0
    1.3490    4.2680    0.8440 C   0  0  0  0  0  0  0  0  0  0  0  0
    2.5780    4.2370    0.2250 C   0  0  0  0  0  0  0  0  0  0  0  0
    3.2320    3.0420   -0.0010 C   0  0  0  0  0  0  0  0  0  0  0  0
    2.6720    1.8530    0.3840 C   0  0  0  0  0  0  0  0  0  0  0  0
    3.2820    0.6330    0.1820 O   0  0  0  0  0  0  0  0  0  0  0  0
    4.5290    0.6230   -0.4450 C   0  0  0  0  0  0  0  0  0  0  0  0
    5.0940   -0.7480   -0.6030 C   0  0  0  0  0  0  0  0  0  0  0  0
    6.2080   -0.8540   -1.1560 O   0  0  0  0  0  0  0  0  0  0  0  0
    4.4370   -1.9070   -0.1620 N   0  0  0  0  0  0  0  0  0  0  0  0
    4.8510   -3.2340   -0.2450 C   0  0  0  0  0  0  0  0  0  0  0  0
    6.0110   -3.6420   -0.8140 C   0  0  0  0  0  0  0  0  0  0  0  0
    6.3910   -4.9900   -0.8730 C   0  0  0  0  0  0  0  0  0  0  0  0
    5.5850   -5.9660   -0.3460 C   0  0  0  0  0  0  0  0  0  0  0  0
    4.4000   -5.5730    0.2380 C   0  0  0  0  0  0  0  0  0  0  0  0
    4.0410   -4.2450    0.2880 C   0  0  0  0  0  0  0  0  0  0  0  0
    2.9380    5.6400   -0.0810 C   0  0  0  0  0  0  0  0  0  0  0  0
    2.0840    6.4200    0.8940 C   0  0  1  0  0  0  0  0  0  0  0  0
    1.7760    7.8120    0.4220 C   0  0  0  0  0  0  0  0  0  0  0  0
    0.9170    5.5920    0.9480 O   0  0  0  0  0  0  0  0  0  0  0  0
   -1.2450   -0.1480   -0.1250 O   0  0  0  0  0  0  0  0  0  0  0  0
   -3.5890    0.3450   -1.6220 C   0  0  0  0  0  0  0  0  0  0  0  0
   -4.6190    1.0550   -1.8420 N   0  0  0  0  0  0  0  0  0  0  0  0
   -5.9750    0.0170   -1.5680 S   0  0  1  0  0  0  0  0  0  0  0  0
   -6.8050   -0.1710   -2.7810 O   0  0  0  0  0  0  0  0  0  0  0  0
   -6.7510    0.5760   -0.4070 O   0  0  0  0  0  0  0  0  0  0  0  0
  1  2  1  0
  2  3  1  0
  3  4  1  0
  4  5  2  0
  4 38  1  0
  5  6  1  0
  5 36  1  0
  6  7  1  6
  6  8  1  0
  8  9  1  1
  8 35  1  0
  9 10  1  0
 10 11  1  0
 11 12  1  1
 11 35  1  0
 12 13  1  0
 13 14  1  0
 14 15  2  0
 14 19  1  0
 15 16  1  0
 16 17  2  0
 16 34  1  0
 17 18  1  0
 17 31  1  0
 18 19  2  0
 19 20  1  0
 20 21  1  0
 21 22  1  0
 22 23  2  0
 22 24  1  0
 24 25  1  0
 25 26  2  0
 25 30  1  0
 26 27  1  0
 27 28  2  0
 28 29  1  0
 29 30  2  0
 31 32  1  0
 32 33  1  6
 32 34  1  0
 36 37  2  0
 38 37  1  6
 38 39  2  0
 38 40  2  0
M  END
