
     RDKit          3D

 40 43  0  0  0  0  0  0  0  0999 V2000
   12.6710    1.1280    2.2490 C   0  0  0  0  0  0  0  0  0  0  0  0
   11.7490    0.0580    2.3870 O   0  0  0  0  0  0  0  0  0  0  0  0
   10.5510    0.1460    1.6790 C   0  0  0  0  0  0  0  0  0  0  0  0
   10.2450    1.2160    0.8710 C   0  0  0  0  0  0  0  0  0  0  0  0
    9.0360    1.2390    0.1950 C   0  0  0  0  0  0  0  0  0  0  0  0
    8.0930    0.2390    0.2780 C   0  0  0  0  0  0  0  0  0  0  0  0
    6.8430    0.3660   -0.4740 C   0  0  0  0  0  0  0  0  0  0  0  0
    6.6220    1.4810   -0.9960 O   0  0  0  0  0  0  0  0  0  0  0  0
    5.9270   -0.6870   -0.6150 N   0  0  0  0  0  0  0  0  0  0  0  0
    4.7040   -0.6140   -1.3250 C   0  0  0  0  0  0  0  0  0  0  0  0
    4.1090    0.5200   -1.8070 C   0  0  0  0  0  0  0  0  0  0  0  0
    2.8960    0.4780   -2.5080 C   0  0  0  0  0  0  0  0  0  0  0  0
    2.2480   -0.7110   -2.7430 C   0  0  0  0  0  0  0  0  0  0  0  0
    1.0340   -0.7320   -3.4440 O   0  0  0  0  0  0  0  0  0  0  0  0
   -0.0950   -0.6400   -2.6200 C   0  0  0  0  0  0  0  0  0  0  0  0
   -0.5410    0.6270   -2.3480 C   0  0  0  0  0  0  0  0  0  0  0  0
   -1.6610    0.8050   -1.5320 C   0  0  0  0  0  0  0  0  0  0  0  0
   -2.3250   -0.2770   -0.9960 C   0  0  0  0  0  0  0  0  0  0  0  0
   -3.4520   -0.0620   -0.1540 N   0  0  0  0  0  0  0  0  0  0  0  0
   -4.7550   -0.2900   -0.6860 C   0  0  0  0  0  0  0  0  0  0  0  0
   -4.8630   -0.6860   -1.9000 O   0  0  0  0  0  0  0  0  0  0  0  0
   -6.0060   -0.1000    0.0650 C   0  0  1  0  0  0  0  0  0  0  0  0
   -6.2880    1.3840    0.1700 C   0  0  0  0  0  0  0  0  0  0  0  0
   -7.5120    1.5250    1.0670 C   0  0  0  0  0  0  0  0  0  0  0  0
   -8.6830    0.9580    0.2540 C   0  0  2  0  0  0  0  0  0  0  0  0
   -9.9350    1.2300    1.0240 C   0  0  0  0  0  0  0  0  0  0  0  0
   -8.4690   -0.4950   -0.0110 C   0  0  0  0  0  0  0  0  0  0  0  0
   -7.1520   -0.6930   -0.7330 C   0  0  0  0  0  0  0  0  0  0  0  0
   -3.2430    0.3620    1.1910 C   0  0  1  0  0  0  0  0  0  0  0  0
   -2.3320   -0.5930    1.9380 C   0  0  0  0  0  0  0  0  0  0  0  0
   -2.6440    1.7770    1.2870 C   0  0  0  0  0  0  0  0  0  0  0  0
   -1.8540   -1.5450   -1.2890 C   0  0  0  0  0  0  0  0  0  0  0  0
   -2.4930   -2.7440   -0.7930 C   0  0  0  0  0  0  0  0  0  0  0  0
   -3.5160   -2.7140   -0.0800 O   0  0  0  0  0  0  0  0  0  0  0  0
   -1.9670   -3.9970   -1.1080 O   0  0  0  0  0  0  0  0  0  0  0  0
   -0.7340   -1.7130   -2.1050 C   0  0  0  0  0  0  0  0  0  0  0  0
    2.8260   -1.8660   -2.2690 C   0  0  0  0  0  0  0  0  0  0  0  0
    4.0150   -1.8090   -1.5840 C   0  0  0  0  0  0  0  0  0  0  0  0
    8.4020   -0.8300    1.0870 C   0  0  0  0  0  0  0  0  0  0  0  0
    9.6180   -0.8620    1.7720 C   0  0  0  0  0  0  0  0  0  0  0  0
  1  2  1  0
  2  3  1  0
  3  4  2  0
  3 40  1  0
  4  5  1  0
  5  6  2  0
  6  7  1  0
  6 39  1  0
  7  8  2  0
  7  9  1  0
  9 10  1  0
 10 11  2  0
 10 38  1  0
 11 12  1  0
 12 13  2  0
 13 14  1  0
 13 37  1  0
 14 15  1  0
 15 16  2  0
 15 36  1  0
 16 17  1  0
 17 18  2  0
 18 19  1  0
 18 32  1  0
 19 20  1  0
 19 29  1  0
 20 21  2  0
 22 20  1  6
 22 23  1  0
 22 28  1  0
 23 24  1  0
 24 25  1  0
 25 26  1  1
 25 27  1  0
 27 28  1  0
 29 30  1  6
 29 31  1  0
 32 33  1  0
 32 36  2  0
 33 34  2  0
 33 35  1  0
 37 38  2  0
 39 40  2  0
M  END
