
     RDKit          3D

 35 38  0  0  0  0  0  0  0  0999 V2000
    7.3860    1.8050   -0.0380 C   0  0  0  0  0  0  0  0  0  0  0  0
    7.1830    0.4960    0.1530 C   0  0  0  0  0  0  0  0  0  0  0  0
    5.8340   -0.0630    0.2550 C   0  0  0  0  0  0  0  0  0  0  0  0
    4.9430    0.3550   -0.5600 C   0  0  0  0  0  0  0  0  0  0  0  0
    3.5390    0.0080   -0.6900 C   0  0  0  0  0  0  0  0  0  0  0  0
    2.9560   -1.0800   -0.0980 C   0  0  0  0  0  0  0  0  0  0  0  0
    1.6200   -1.3690   -0.2330 C   0  0  0  0  0  0  0  0  0  0  0  0
    0.7930   -0.5420   -0.9930 C   0  0  0  0  0  0  0  0  0  0  0  0
   -0.5540   -1.0050   -1.1410 C   0  0  0  0  0  0  0  0  0  0  0  0
   -0.9780   -2.0520   -1.4170 O   0  0  0  0  0  0  0  0  0  0  0  0
   -1.5920   -0.0050   -0.8940 N   0  0  0  0  0  0  0  0  0  0  0  0
   -2.9570   -0.1200   -0.8120 C   0  0  0  0  0  0  0  0  0  0  0  0
   -3.3780    1.1310   -0.5930 O   0  0  0  0  0  0  0  0  0  0  0  0
   -4.0130   -0.9360   -0.8430 N   0  0  0  0  0  0  0  0  0  0  0  0
   -5.4080   -0.9150   -0.7900 C   0  0  0  0  0  0  0  0  0  0  0  0
   -6.1530   -0.1290    0.1680 C   0  0  0  0  0  0  0  0  0  0  0  0
   -6.0830   -0.4540    1.5070 C   0  0  0  0  0  0  0  0  0  0  0  0
   -5.0730   -1.3270    1.9810 O   0  0  0  0  0  0  0  0  0  0  0  0
   -4.9250   -1.6720    3.3360 C   0  0  0  0  0  0  0  0  0  0  0  0
   -6.9930    0.0660    2.4050 C   0  0  0  0  0  0  0  0  0  0  0  0
   -7.9570    0.9170    1.9440 C   0  0  0  0  0  0  0  0  0  0  0  0
   -8.0510    1.2750    0.5930 C   0  0  0  0  0  0  0  0  0  0  0  0
   -7.1460    0.7490   -0.3010 C   0  0  0  0  0  0  0  0  0  0  0  0
   -7.5010    1.2930   -1.6300 C   0  0  0  0  0  0  0  0  0  0  0  0
   -8.9180    1.7810   -1.4500 C   0  0  0  0  0  0  0  0  0  0  0  0
   -8.9530    2.1060   -0.0770 O   0  0  0  0  0  0  0  0  0  0  0  0
    1.3530    0.5260   -1.5780 C   0  0  0  0  0  0  0  0  0  0  0  0
    2.7010    0.8370   -1.4580 C   0  0  0  0  0  0  0  0  0  0  0  0
    3.2560    1.9700   -2.2240 C   0  0  0  0  0  0  0  0  0  0  0  0
    2.2710    2.7510   -2.8200 O   0  0  0  0  0  0  0  0  0  0  0  0
    5.6940   -1.0770    1.3410 C   0  0  0  0  0  0  0  0  0  0  0  0
    6.9380   -1.1420    2.2260 C   0  0  0  0  0  0  0  0  0  0  0  0
    8.1620   -1.3600    1.3890 C   0  0  0  0  0  0  0  0  0  0  0  0
    8.3780   -0.4090    0.2970 C   0  0  1  0  0  0  0  0  0  0  0  0
    8.6440   -1.0650   -0.8940 O   0  0  0  0  0  0  0  0  0  0  0  0
  1  2  2  0
  2  3  1  0
  2 34  1  0
  3  4  2  3
  3 31  1  0
  4  5  1  0
  5  6  2  0
  5 28  1  0
  6  7  1  0
  7  8  2  0
  8  9  1  0
  8 27  1  0
  9 10  2  0
  9 11  1  0
 11 12  1  0
 12 13  2  0
 12 14  1  0
 14 15  1  0
 15 16  1  0
 16 17  2  0
 16 23  1  0
 17 18  1  0
 17 20  1  0
 18 19  1  0
 20 21  2  0
 21 22  1  0
 22 23  2  0
 22 26  1  0
 23 24  1  0
 24 25  1  0
 25 26  1  0
 27 28  2  0
 28 29  1  0
 29 30  1  0
 31 32  1  0
 32 33  1  0
 33 34  1  0
 34 35  1  6
M  END
