
     RDKit          3D

 35 41  0  0  0  0  0  0  0  0999 V2000
   -4.6640   -3.7470   -1.6200 C   0  0  0  0  0  0  0  0  0  0  0  0
   -4.5330   -3.3810   -0.1750 C   0  0  0  0  0  0  0  0  0  0  0  0
   -4.1250   -1.9620    0.0210 C   0  0  0  0  0  0  0  0  0  0  0  0
   -2.8510   -1.7150    0.3520 N   0  0  0  0  0  0  0  0  0  0  0  0
   -2.4050   -0.4460    0.5430 C   0  0  0  0  0  0  0  0  0  0  0  0
   -3.2680    0.6140    0.3970 C   0  0  0  0  0  0  0  0  0  0  0  0
   -4.6120    0.4290    0.0550 C   0  0  0  0  0  0  0  0  0  0  0  0
   -4.9930   -0.8870   -0.1240 C   0  0  0  0  0  0  0  0  0  0  0  0
   -6.4240   -1.0180   -0.4990 C   0  0  0  0  0  0  0  0  0  0  0  0
   -6.9130    0.2980   -0.3870 N   0  0  0  0  0  0  0  0  0  0  0  0
   -5.8070    1.2200   -0.1640 C   0  0  0  0  0  0  0  0  0  0  0  0
   -2.7480    1.9650    0.6070 C   0  0  0  0  0  0  0  0  0  0  0  0
   -3.5570    3.0420    0.4380 C   0  0  0  0  0  0  0  0  0  0  0  0
   -3.0030    4.3260    0.6160 C   0  0  0  0  0  0  0  0  0  0  0  0
   -1.6880    4.4640    0.9490 C   0  0  0  0  0  0  0  0  0  0  0  0
   -0.8660    3.3880    1.1210 C   0  0  0  0  0  0  0  0  0  0  0  0
   -1.4050    2.1070    0.9480 C   0  0  0  0  0  0  0  0  0  0  0  0
   -0.4320    1.0250    1.1720 C   0  0  1  0  0  0  0  0  0  0  0  0
   -1.0300   -0.2390    0.8980 N   0  0  0  0  0  0  0  0  0  0  0  0
    0.7180    1.2560    0.3520 N   0  0  0  0  0  0  0  0  0  0  0  0
    1.6270    0.1660    0.2630 C   0  0  0  0  0  0  0  0  0  0  0  0
    2.3320   -0.1550    1.5410 C   0  0  0  0  0  0  0  0  0  0  0  0
    3.1900   -1.2000    1.4360 O   0  0  0  0  0  0  0  0  0  0  0  0
    4.3290   -1.4520    0.7520 C   0  0  0  0  0  0  0  0  0  0  0  0
    4.9230   -2.7150    0.8920 C   0  0  0  0  0  0  0  0  0  0  0  0
    6.0720   -3.0640    0.2470 C   0  0  0  0  0  0  0  0  0  0  0  0
    6.6980   -2.1650   -0.5780 C   0  0  0  0  0  0  0  0  0  0  0  0
    6.1390   -0.9160   -0.7350 C   0  0  0  0  0  0  0  0  0  0  0  0
    4.9690   -0.5590   -0.0790 C   0  0  0  0  0  0  0  0  0  0  0  0
    6.8180   -0.0470   -1.5820 O   0  0  0  0  0  0  0  0  0  0  0  0
    8.2540   -0.0710   -1.5220 C   0  0  0  0  0  0  0  0  0  0  0  0
    8.7830   -1.4630   -1.6020 C   0  0  0  0  0  0  0  0  0  0  0  0
    7.8620   -2.4590   -1.2580 O   0  0  0  0  0  0  0  0  0  0  0  0
    1.3330    2.5210    0.5320 C   0  0  0  0  0  0  0  0  0  0  0  0
    0.5700    3.4360    1.4690 C   0  0  0  0  0  0  0  0  0  0  0  0
  1  2  1  0
  2  3  1  0
  3  4  2  0
  3  8  1  0
  4  5  1  0
  5  6  2  0
  5 19  1  0
  6  7  1  0
  6 12  1  0
  7  8  2  0
  7 11  1  0
  8  9  1  0
  9 10  1  0
 10 11  1  0
 12 13  2  0
 12 17  1  0
 13 14  1  0
 14 15  2  0
 15 16  1  0
 16 17  2  0
 16 35  1  0
 17 18  1  0
 18 19  1  6
 18 20  1  0
 20 21  1  0
 20 34  1  0
 21 22  1  0
 22 23  1  0
 23 24  1  0
 24 25  2  0
 24 29  1  0
 25 26  1  0
 26 27  2  0
 27 28  1  0
 27 33  1  0
 28 29  2  0
 28 30  1  0
 30 31  1  0
 31 32  1  0
 32 33  1  0
 34 35  1  0
M  CHG  1  10   1
M  END
