
     RDKit          3D

 35 38  0  0  0  0  0  0  0  0999 V2000
    2.7010    0.4100    2.2880 C   0  0  0  0  0  0  0  0  0  0  0  0
    1.5540   -0.1730    1.6270 N   0  0  0  0  0  0  0  0  0  0  0  0
    1.3520   -1.4640    1.3510 C   0  0  0  0  0  0  0  0  0  0  0  0
    2.2190   -2.6420    1.6200 C   0  0  0  0  0  0  0  0  0  0  0  0
    3.5860   -2.2860    1.7700 N   0  0  0  0  0  0  0  0  0  0  0  0
    4.3980   -1.7070    0.7730 C   0  0  0  0  0  0  0  0  0  0  0  0
    5.6930   -1.3330    1.0530 C   0  0  0  0  0  0  0  0  0  0  0  0
    6.5280   -0.7600    0.0900 C   0  0  0  0  0  0  0  0  0  0  0  0
    6.0850   -0.5460   -1.1870 C   0  0  0  0  0  0  0  0  0  0  0  0
    6.8870    0.0430   -2.2360 C   0  0  0  0  0  0  0  0  0  0  0  0
    6.3640    0.2330   -3.5590 N   0  0  0  0  0  0  0  0  0  0  0  0
    8.0810    0.4080   -2.0200 N   0  0  0  0  0  0  0  0  0  0  0  0
    4.7710   -0.9270   -1.4660 C   0  0  0  0  0  0  0  0  0  0  0  0
    3.9450   -1.4930   -0.5170 C   0  0  0  0  0  0  0  0  0  0  0  0
    0.1270   -1.5110    0.7340 N   0  0  0  0  0  0  0  0  0  0  0  0
   -0.3860   -0.2860    0.6440 C   0  0  0  0  0  0  0  0  0  0  0  0
   -1.5800    0.1740    0.1130 C   0  0  0  0  0  0  0  0  0  0  0  0
   -1.9290    1.5010    0.1220 C   0  0  0  0  0  0  0  0  0  0  0  0
   -3.1740    2.0390   -0.3580 C   0  0  0  0  0  0  0  0  0  0  0  0
   -3.2220    3.3080   -0.4970 O   0  0  0  0  0  0  0  0  0  0  0  0
   -4.3230    1.3050   -0.6790 N   0  0  0  0  0  0  0  0  0  0  0  0
   -5.3300    2.0390   -1.4930 C   0  0  0  0  0  0  0  0  0  0  0  0
   -6.3030    2.7860   -0.6530 C   0  0  0  0  0  0  0  0  0  0  0  0
   -7.1450    1.9520    0.1870 C   0  0  0  0  0  0  0  0  0  0  0  0
   -7.1550    0.7180    0.1170 O   0  0  0  0  0  0  0  0  0  0  0  0
   -8.0080    2.5530    1.1380 O   0  0  0  0  0  0  0  0  0  0  0  0
   -4.5540   -0.0510   -0.3480 C   0  0  0  0  0  0  0  0  0  0  0  0
   -4.8540   -1.0270   -1.2940 C   0  0  0  0  0  0  0  0  0  0  0  0
   -5.0820   -2.3270   -0.9300 C   0  0  0  0  0  0  0  0  0  0  0  0
   -5.0110   -2.6730    0.4010 C   0  0  0  0  0  0  0  0  0  0  0  0
   -4.7110   -1.7050    1.3510 C   0  0  0  0  0  0  0  0  0  0  0  0
   -4.5010   -0.4640    0.9440 N   0  0  0  0  0  0  0  0  0  0  0  0
   -0.9760    2.3520    0.7120 C   0  0  0  0  0  0  0  0  0  0  0  0
    0.2030    1.9100    1.2380 C   0  0  0  0  0  0  0  0  0  0  0  0
    0.5060    0.5750    1.2060 C   0  0  0  0  0  0  0  0  0  0  0  0
  1  2  1  0
  2  3  1  0
  2 35  1  0
  3  4  1  0
  3 15  2  0
  4  5  1  0
  5  6  1  0
  6  7  2  0
  6 14  1  0
  7  8  1  0
  8  9  2  0
  9 10  1  0
  9 13  1  0
 10 11  1  0
 10 12  2  0
 13 14  2  0
 15 16  1  0
 16 17  2  0
 16 35  1  0
 17 18  1  0
 18 19  1  0
 18 33  2  0
 19 20  2  0
 19 21  1  0
 21 22  1  0
 21 27  1  0
 22 23  1  0
 23 24  1  0
 24 25  2  0
 24 26  1  0
 27 28  2  0
 27 32  1  0
 28 29  1  0
 29 30  2  0
 30 31  1  0
 31 32  2  0
 33 34  1  0
 34 35  2  0
M  CHG  1  12   1
M  END
