
     RDKit          3D

 35 40  0  0  0  0  0  0  0  0999 V2000
    3.9570   -3.3920    1.2260 C   0  0  0  0  0  0  0  0  0  0  0  0
    4.1680   -2.4090    0.4120 C   0  0  0  0  0  0  0  0  0  0  0  0
    5.5350   -2.1590    0.0810 O   0  0  0  0  0  0  0  0  0  0  0  0
    3.1690   -1.5550   -0.1750 C   0  0  0  0  0  0  0  0  0  0  0  0
    3.6730   -0.6570   -1.0530 C   0  0  0  0  0  0  0  0  0  0  0  0
    2.9240    0.3340   -1.8020 C   0  0  0  0  0  0  0  0  0  0  0  0
    1.6830   -1.6610    0.0340 C   0  0  0  0  0  0  0  0  0  0  0  0
    1.3300   -0.9980    1.2380 N   0  0  0  0  0  0  0  0  0  0  0  0
    1.7170   -1.3350    2.5850 C   0  0  0  0  0  0  0  0  0  0  0  0
    2.5650   -0.1460    3.0620 C   0  0  0  0  0  0  0  0  0  0  0  0
    2.3030    0.9920    2.2720 O   0  0  0  0  0  0  0  0  0  0  0  0
    1.0840    1.2510    1.6990 C   0  0  0  0  0  0  0  0  0  0  0  0
    0.4740    0.1860    1.0840 C   0  0  0  0  0  0  0  0  0  0  0  0
   -0.7170    0.2750    0.2880 C   0  0  1  0  0  0  0  0  0  0  0  0
   -0.5430    0.5370   -1.1800 C   0  0  0  0  0  0  0  0  0  0  0  0
   -0.7970   -0.4440   -2.1350 C   0  0  0  0  0  0  0  0  0  0  0  0
   -0.6690   -0.2650   -3.4760 C   0  0  0  0  0  0  0  0  0  0  0  0
   -0.2680    0.9460   -3.9450 C   0  0  0  0  0  0  0  0  0  0  0  0
   -0.0010    1.9550   -3.0640 C   0  0  0  0  0  0  0  0  0  0  0  0
   -0.1380    1.7530   -1.6830 C   0  0  0  0  0  0  0  0  0  0  0  0
   -1.6970   -0.8570    0.3190 C   0  0  0  0  0  0  0  0  0  0  0  0
   -1.4370   -2.0870    0.8510 C   0  0  0  0  0  0  0  0  0  0  0  0
   -2.3980   -3.1080    0.7160 C   0  0  0  0  0  0  0  0  0  0  0  0
   -3.5800   -2.8790    0.0650 C   0  0  0  0  0  0  0  0  0  0  0  0
   -3.8100   -1.6200   -0.4560 C   0  0  0  0  0  0  0  0  0  0  0  0
   -2.9060   -0.6050   -0.3450 C   0  0  0  0  0  0  0  0  0  0  0  0
   -3.2460    0.7920   -0.7800 C   0  0  0  0  0  0  0  0  0  0  0  0
   -2.8410    1.6760    0.3950 C   0  0  2  0  0  0  0  0  0  0  0  0
   -3.3500    2.9880    0.3890 N   0  0  0  0  0  0  0  0  0  0  0  0
   -2.7000    4.0130    0.7550 C   0  0  0  0  0  0  0  0  0  0  0  0
   -3.2480    5.3110    0.7450 O   0  0  0  0  0  0  0  0  0  0  0  0
   -1.3730    3.9000    1.1850 N   0  0  0  0  0  0  0  0  0  0  0  0
   -0.7050    2.6350    1.2160 C   0  0  0  0  0  0  0  0  0  0  0  0
    0.4550    2.5110    1.7320 N   0  0  0  0  0  0  0  0  0  0  0  0
   -1.4960    1.4500    0.8940 C   0  0  2  0  0  0  0  0  0  0  0  0
  1  2  2  0
  2  3  1  0
  2  4  1  0
  4  5  2  3
  4  7  1  0
  5  6  1  0
  7  8  1  0
  8  9  1  0
  8 13  1  0
  9 10  1  0
 10 11  1  0
 11 12  1  0
 12 13  2  0
 12 34  1  0
 13 14  1  0
 14 15  1  6
 14 21  1  0
 14 35  1  0
 15 16  2  0
 15 20  1  0
 16 17  1  0
 17 18  2  0
 18 19  1  0
 19 20  2  0
 21 22  2  0
 21 26  1  0
 22 23  1  0
 23 24  2  0
 24 25  1  0
 25 26  2  0
 26 27  1  0
 28 27  1  6
 28 29  1  0
 28 35  1  0
 29 30  2  0
 30 31  1  0
 30 32  1  0
 32 33  1  0
 33 34  2  0
 35 33  1  6
M  CHG  1  29   1
M  END
