
     RDKit          3D

 35 38  0  0  0  0  0  0  0  0999 V2000
   -1.7980    4.5940   -0.7140 C   0  0  0  0  0  0  0  0  0  0  0  0
   -1.4210    3.6820    0.3000 O   0  0  0  0  0  0  0  0  0  0  0  0
   -1.8250    2.3530    0.2970 C   0  0  0  0  0  0  0  0  0  0  0  0
   -3.0110    2.0690    0.9440 C   0  0  0  0  0  0  0  0  0  0  0  0
   -3.8170    3.1310    1.6100 C   0  0  0  0  0  0  0  0  0  0  0  0
   -3.4250    0.7530    0.9500 C   0  0  0  0  0  0  0  0  0  0  0  0
   -2.6570   -0.2260    0.3210 C   0  0  0  0  0  0  0  0  0  0  0  0
   -1.4800    0.0830   -0.3160 C   0  0  0  0  0  0  0  0  0  0  0  0
   -1.0540    1.3960   -0.3290 C   0  0  0  0  0  0  0  0  0  0  0  0
    0.1560    1.4930   -1.0240 O   0  0  0  0  0  0  0  0  0  0  0  0
    0.4230    0.3300   -1.7280 C   0  0  1  0  0  0  0  0  0  0  0  0
    1.8420   -0.0920   -1.4710 C   0  0  0  0  0  0  0  0  0  0  0  0
    2.2240   -1.1340   -2.0470 O   0  0  0  0  0  0  0  0  0  0  0  0
    2.6250    0.7050   -0.6120 N   0  0  0  0  0  0  0  0  0  0  0  0
    3.9490    0.4020   -0.3000 C   0  0  0  0  0  0  0  0  0  0  0  0
    4.5170   -0.8150   -0.5110 C   0  0  0  0  0  0  0  0  0  0  0  0
    5.8620   -1.0600   -0.1980 C   0  0  0  0  0  0  0  0  0  0  0  0
    6.6200   -0.0490    0.3330 C   0  0  0  0  0  0  0  0  0  0  0  0
    8.0120   -0.2060    0.6870 C   0  0  0  0  0  0  0  0  0  0  0  0
    8.6330   -1.3670    0.5080 C   0  0  0  0  0  0  0  0  0  0  0  0
   10.0520   -1.4430    0.8940 C   0  0  0  0  0  0  0  0  0  0  0  0
   10.6950   -0.3190    1.4280 N   0  0  0  0  0  0  0  0  0  0  0  0
   10.6640   -2.5160    0.7390 O   0  0  0  0  0  0  0  0  0  0  0  0
    6.0250    1.1930    0.5450 C   0  0  0  0  0  0  0  0  0  0  0  0
    4.7120    1.4450    0.2430 C   0  0  0  0  0  0  0  0  0  0  0  0
   -0.4580   -0.7070   -1.0600 C   0  0  0  0  0  0  0  0  0  0  0  0
   -3.1230   -1.6350    0.3420 C   0  0  0  0  0  0  0  0  0  0  0  0
   -4.6610   -1.5780    0.2390 C   0  0  1  0  0  0  0  0  0  0  0  0
   -4.9700   -0.6370   -0.9070 C   0  0  0  0  0  0  0  0  0  0  0  0
   -5.2160   -2.9220   -0.0840 C   0  0  0  0  0  0  0  0  0  0  0  0
   -6.7110   -2.8520   -0.1960 C   0  0  0  0  0  0  0  0  0  0  0  0
   -7.2360   -4.1210   -0.5120 O   0  0  0  0  0  0  0  0  0  0  0  0
   -5.1200   -1.0260    1.5580 C   0  0  0  0  0  0  0  0  0  0  0  0
   -4.6700    0.4080    1.6200 C   0  0  0  0  0  0  0  0  0  0  0  0
   -5.3950    1.2160    2.2440 O   0  0  0  0  0  0  0  0  0  0  0  0
  1  2  1  0
  2  3  1  0
  3  4  2  0
  3  9  1  0
  4  5  1  0
  4  6  1  0
  6  7  2  0
  6 34  1  0
  7  8  1  0
  7 27  1  0
  8  9  2  0
  8 26  1  0
  9 10  1  0
 10 11  1  0
 11 12  1  1
 11 26  1  0
 12 13  2  0
 12 14  1  0
 14 15  1  0
 15 16  2  0
 15 25  1  0
 16 17  1  0
 17 18  2  0
 18 19  1  0
 18 24  1  0
 19 20  2  3
 20 21  1  0
 21 22  1  0
 21 23  2  0
 24 25  2  0
 27 28  1  0
 28 29  1  6
 28 30  1  0
 28 33  1  0
 30 31  1  0
 31 32  1  0
 33 34  1  0
 34 35  2  0
M  END
