
     RDKit          3D

 35 38  0  0  0  0  0  0  0  0999 V2000
    9.9210    0.9360    2.1160 C   0  0  0  0  0  0  0  0  0  0  0  0
    8.8930    0.4880    1.1430 C   0  0  0  0  0  0  0  0  0  0  0  0
    8.7810    1.0570   -0.0960 C   0  0  0  0  0  0  0  0  0  0  0  0
    7.8460    0.6800   -1.0280 C   0  0  0  0  0  0  0  0  0  0  0  0
    6.9660   -0.3300   -0.7020 C   0  0  0  0  0  0  0  0  0  0  0  0
    6.0140   -0.7480   -1.5820 O   0  0  0  0  0  0  0  0  0  0  0  0
    4.6710   -0.5010   -1.4010 C   0  0  0  0  0  0  0  0  0  0  0  0
    3.8670   -1.6390   -1.2680 C   0  0  0  0  0  0  0  0  0  0  0  0
    2.5140   -1.4700   -1.0850 C   0  0  0  0  0  0  0  0  0  0  0  0
    1.8970   -0.2520   -1.0220 C   0  0  0  0  0  0  0  0  0  0  0  0
    0.5160   -0.0110   -0.8160 N   0  0  0  0  0  0  0  0  0  0  0  0
   -0.4610   -0.9150   -0.3850 C   0  0  0  0  0  0  0  0  0  0  0  0
   -0.0610   -2.1050   -0.1340 O   0  0  0  0  0  0  0  0  0  0  0  0
   -1.8980   -0.6190   -0.1940 C   0  0  0  0  0  0  0  0  0  0  0  0
   -2.6540   -1.5330    0.5540 C   0  0  0  0  0  0  0  0  0  0  0  0
   -4.0010   -1.2910    0.7860 C   0  0  0  0  0  0  0  0  0  0  0  0
   -4.5730   -0.1560    0.2770 C   0  0  0  0  0  0  0  0  0  0  0  0
   -3.8660    0.7370   -0.4470 N   0  0  0  0  0  0  0  0  0  0  0  0
   -4.4880    1.9150   -0.9940 C   0  0  0  0  0  0  0  0  0  0  0  0
   -4.9610    1.6080   -2.3840 C   0  0  0  0  0  0  0  0  0  0  0  0
   -5.5880    2.6850   -3.0050 O   0  0  0  0  0  0  0  0  0  0  0  0
   -2.5510    0.4760   -0.6590 C   0  0  0  0  0  0  0  0  0  0  0  0
   -1.9170    1.3320   -1.3430 O   0  0  0  0  0  0  0  0  0  0  0  0
   -5.9800    0.1540    0.5150 C   0  0  0  0  0  0  0  0  0  0  0  0
   -6.8140   -1.0370    0.8500 C   0  0  2  0  0  0  0  0  0  0  0  0
   -8.1120   -0.5190    1.4850 C   0  0  0  0  0  0  0  0  0  0  0  0
   -7.7470    0.1940    2.6260 O   0  0  0  0  0  0  0  0  0  0  0  0
   -6.1650   -1.9150    1.8970 C   0  0  0  0  0  0  0  0  0  0  0  0
   -4.7680   -2.2750    1.5800 C   0  0  2  0  0  0  0  0  0  0  0  0
   -4.1000   -2.5980    2.7700 O   0  0  0  0  0  0  0  0  0  0  0  0
    2.7240    0.8490   -1.1570 C   0  0  0  0  0  0  0  0  0  0  0  0
    4.1060    0.7300   -1.3460 C   0  0  0  0  0  0  0  0  0  0  0  0
    4.9350    1.9530   -1.4960 C   0  0  0  0  0  0  0  0  0  0  0  0
    7.0730   -0.9190    0.5650 C   0  0  0  0  0  0  0  0  0  0  0  0
    8.0180   -0.5220    1.4760 C   0  0  0  0  0  0  0  0  0  0  0  0
  1  2  1  0
  2  3  2  0
  2 35  1  0
  3  4  1  0
  4  5  2  0
  5  6  1  0
  5 34  1  0
  6  7  1  0
  7  8  2  0
  7 32  1  0
  8  9  1  0
  9 10  2  0
 10 11  1  0
 10 31  1  0
 11 12  1  0
 12 13  2  0
 12 14  1  0
 14 15  2  0
 14 22  1  0
 15 16  1  0
 16 17  2  0
 16 29  1  0
 17 18  1  0
 17 24  1  0
 18 19  1  0
 18 22  1  0
 19 20  1  0
 20 21  1  0
 22 23  2  0
 24 25  1  0
 25 26  1  1
 25 28  1  0
 26 27  1  0
 28 29  1  0
 29 30  1  1
 31 32  2  0
 32 33  1  0
 34 35  2  0
M  END
