
     RDKit          3D

 35 40  0  0  0  0  0  0  0  0999 V2000
    2.7980   -4.2730   -0.0270 C   0  0  0  0  0  0  0  0  0  0  0  0
    3.7650   -3.5550   -0.9700 C   0  0  0  0  0  0  0  0  0  0  0  0
    2.9580   -2.7230   -1.9080 C   0  0  0  0  0  0  0  0  0  0  0  0
    2.2080   -1.7600   -1.3380 O   0  0  0  0  0  0  0  0  0  0  0  0
    2.3610   -0.6420   -0.6100 C   0  0  0  0  0  0  0  0  0  0  0  0
    3.5990   -0.1870   -0.2160 C   0  0  0  0  0  0  0  0  0  0  0  0
    3.7070    0.9640    0.5190 C   0  0  0  0  0  0  0  0  0  0  0  0
    2.5910    1.6740    0.8690 C   0  0  0  0  0  0  0  0  0  0  0  0
    1.3580    1.2120    0.4710 C   0  0  0  0  0  0  0  0  0  0  0  0
    1.1980    0.0680   -0.2630 C   0  0  0  0  0  0  0  0  0  0  0  0
   -0.1390   -0.4950   -0.6520 C   0  0  2  0  0  0  0  0  0  0  0  0
   -1.1510    0.5930   -0.8830 C   0  0  0  0  0  0  0  0  0  0  0  0
   -2.4920    0.2840   -0.3630 C   0  0  0  0  0  0  0  0  0  0  0  0
   -2.6000   -0.4210    0.7740 C   0  0  0  0  0  0  0  0  0  0  0  0
   -3.8650   -0.7590    1.3240 C   0  0  0  0  0  0  0  0  0  0  0  0
   -3.8820   -1.4440    2.4240 N   0  0  0  0  0  0  0  0  0  0  0  0
   -2.7160   -1.8700    3.1050 C   0  0  0  0  0  0  0  0  0  0  0  0
   -2.7890   -2.6250    4.3820 C   0  0  0  0  0  0  0  0  0  0  0  0
   -1.5180   -1.5760    2.6300 C   0  0  0  0  0  0  0  0  0  0  0  0
   -1.3220   -0.8060    1.4060 C   0  0  1  0  0  0  0  0  0  0  0  0
   -0.5450   -1.4570    0.3940 N   0  0  0  0  0  0  0  0  0  0  0  0
   -5.0250   -0.3260    0.6290 N   0  0  0  0  0  0  0  0  0  0  0  0
   -5.0060    0.1960   -0.7100 C   0  0  0  0  0  0  0  0  0  0  0  0
   -3.6790    0.7600   -1.0550 C   0  0  0  0  0  0  0  0  0  0  0  0
   -3.5610    1.7240   -1.9780 C   0  0  0  0  0  0  0  0  0  0  0  0
   -4.6580    2.2650   -2.7260 C   0  0  0  0  0  0  0  0  0  0  0  0
   -4.7850    3.6160   -3.0610 C   0  0  0  0  0  0  0  0  0  0  0  0
   -5.9610    3.7070   -3.7700 C   0  0  0  0  0  0  0  0  0  0  0  0
   -6.4950    2.4520   -3.8400 C   0  0  0  0  0  0  0  0  0  0  0  0
   -5.6970    1.6030   -3.2060 O   0  0  0  0  0  0  0  0  0  0  0  0
    3.0230    2.7680    1.5970 O   0  0  0  0  0  0  0  0  0  0  0  0
    4.3330    2.4860    2.1160 C   0  0  0  0  0  0  0  0  0  0  0  0
    4.8690    1.6510    1.0420 N   0  0  0  0  0  0  0  0  0  0  0  0
    6.2330    1.5250    0.5770 C   0  0  0  0  0  0  0  0  0  0  0  0
    6.6800    2.8270   -0.1080 C   0  0  0  0  0  0  0  0  0  0  0  0
  1  2  1  0
  2  3  1  0
  3  4  1  0
  4  5  1  0
  5  6  2  0
  5 10  1  0
  6  7  1  0
  7  8  2  0
  7 33  1  0
  8  9  1  0
  8 31  1  0
  9 10  2  0
 11 10  1  1
 11 12  1  0
 11 21  1  0
 12 13  1  0
 13 14  2  0
 13 24  1  0
 14 15  1  0
 14 20  1  0
 15 16  2  0
 15 22  1  0
 16 17  1  0
 17 18  1  0
 17 19  2  0
 19 20  1  0
 20 21  1  6
 22 23  1  0
 23 24  1  0
 24 25  2  3
 25 26  1  0
 26 27  2  0
 26 30  1  0
 27 28  1  0
 28 29  2  0
 29 30  1  0
 31 32  1  0
 32 33  1  0
 33 34  1  0
 34 35  1  0
M  CHG  1  16   1
M  END
