
     RDKit          3D

 10 10  0  0  0  0  0  0  0  0999 V2000
    2.2760    1.0120    0.1570 C   0  0  0  0  0  0  0  0  0  0  0  0
    0.9280    0.7640   -0.2810 N   0  0  0  0  0  0  0  0  0  0  0  0
    0.1680   -0.3280    0.3590 C   0  0  0  0  0  0  0  0  0  0  0  0
    0.7960   -1.0300    1.3500 C   0  0  0  0  0  0  0  0  0  0  0  0
   -0.4360   -2.2370    1.8560 S   0  0  0  0  0  0  0  0  0  0  0  0
   -1.7160   -1.6860    0.6710 C   0  0  0  0  0  0  0  0  0  0  0  0
   -1.0830   -0.6240   -0.0090 C   0  0  0  0  0  0  0  0  0  0  0  0
   -1.8930    0.0590   -1.0770 C   0  0  0  0  0  0  0  0  0  0  0  0
   -3.0650   -0.3200   -1.3240 O   0  0  0  0  0  0  0  0  0  0  0  0
   -1.4370    1.1030   -1.8350 O   0  0  0  0  0  0  0  0  0  0  0  0
  1  2  1  0
  2  3  1  0
  3  4  2  0
  3  7  1  0
  4  5  1  0
  5  6  1  0
  6  7  2  0
  7  8  1  0
  8  9  2  0
  8 10  1  0
M  END
