
     RDKit          3D

 10 10  0  0  0  0  0  0  0  0999 V2000
   -0.9490    2.6910   -0.4550 O   0  0  0  0  0  0  0  0  0  0  0  0
   -0.6000    1.5200   -0.1720 C   0  0  0  0  0  0  0  0  0  0  0  0
    0.7670    1.2290   -0.1830 C   0  0  0  0  0  0  0  0  0  0  0  0
    1.3910    0.0030   -0.1690 C   0  0  0  0  0  0  0  0  0  0  0  0
    2.7760    0.0430   -0.0900 O   0  0  0  0  0  0  0  0  0  0  0  0
    0.7690   -1.2240   -0.2240 C   0  0  0  0  0  0  0  0  0  0  0  0
   -0.5870   -1.5440   -0.1070 C   0  0  0  0  0  0  0  0  0  0  0  0
   -1.6220   -0.6800    0.2320 C   0  0  0  0  0  0  0  0  0  0  0  0
   -2.9850   -1.3660    0.8240 S   0  0  0  0  0  0  0  0  0  0  0  0
   -1.6000    0.6610    0.1170 N   0  0  0  0  0  0  0  0  0  0  0  0
  1  2  2  0
  2  3  1  0
  2 10  1  0
  3  4  2  0
  4  5  1  0
  4  6  1  0
  6  7  2  0
  7  8  1  0
  8  9  2  0
  8 10  1  0
M  END
