
     RDKit          3D

 10 10  0  0  0  0  0  0  0  0999 V2000
    3.0090    0.1840   -0.3460 C   0  0  0  0  0  0  0  0  0  0  0  0
    1.6490   -0.4420   -0.2390 C   0  0  0  0  0  0  0  0  0  0  0  0
    1.6240   -1.6610   -0.0980 O   0  0  0  0  0  0  0  0  0  0  0  0
    0.4730    0.3140   -0.2960 N   0  0  0  0  0  0  0  0  0  0  0  0
   -0.8580   -0.2570   -0.1960 C   0  0  0  0  0  0  0  0  0  0  0  0
   -1.0450   -1.5750   -0.0400 C   0  0  0  0  0  0  0  0  0  0  0  0
   -2.8740   -1.7680    0.0290 S   0  0  0  0  0  0  0  0  0  0  0  0
   -3.1750   -0.0300   -0.1640 C   0  0  0  0  0  0  0  0  0  0  0  0
   -1.9450    0.5550   -0.2620 C   0  0  0  0  0  0  0  0  0  0  0  0
   -1.9220    1.9790   -0.4260 O   0  0  0  0  0  0  0  0  0  0  0  0
  1  2  1  0
  2  3  2  0
  2  4  1  0
  4  5  1  0
  5  6  2  0
  5  9  1  0
  6  7  1  0
  7  8  1  0
  8  9  2  0
  9 10  1  0
M  END
