
     RDKit          3D

 10 10  0  0  0  0  0  0  0  0999 V2000
   -2.9610   -1.0590   -0.0640 O   0  0  0  0  0  0  0  0  0  0  0  0
   -2.7950    0.3150   -0.2420 C   0  0  0  0  0  0  0  0  0  0  0  0
   -1.6300    0.8580    0.5180 C   0  0  0  0  0  0  0  0  0  0  0  0
   -0.3480    0.1850    0.0540 C   0  0  0  0  0  0  0  0  0  0  0  0
   -0.3850   -0.7570   -0.9440 C   0  0  0  0  0  0  0  0  0  0  0  0
    1.3750   -1.1870   -1.0590 S   0  0  0  0  0  0  0  0  0  0  0  0
    1.8940   -0.0860    0.1980 C   0  0  0  0  0  0  0  0  0  0  0  0
    3.3280    0.0920    0.6600 C   0  0  0  0  0  0  0  0  0  0  0  0
    4.1200   -0.7560   -0.0820 O   0  0  0  0  0  0  0  0  0  0  0  0
    0.8080    0.4550    0.5590 N   0  0  0  0  0  0  0  0  0  0  0  0
  1  2  1  0
  2  3  1  0
  3  4  1  0
  4  5  2  0
  4 10  1  0
  5  6  1  0
  6  7  1  0
  7  8  1  0
  7 10  2  0
  8  9  1  0
M  END
