
     RDKit          3D

  9  9  0  0  0  0  0  0  0  0999 V2000
    2.9950    0.2070    0.2170 N   0  0  0  0  0  0  0  0  0  0  0  0
    1.8390   -0.5580    0.4930 C   0  0  0  0  0  0  0  0  0  0  0  0
    1.5090   -0.7470    1.6880 O   0  0  0  0  0  0  0  0  0  0  0  0
    1.0020   -1.1460   -0.5690 C   0  0  0  0  0  0  0  0  0  0  0  0
   -0.4410   -0.7010   -0.4510 C   0  0  2  0  0  0  0  0  0  0  0  0
   -0.4870    0.8380   -0.5800 C   0  0  0  0  0  0  0  0  0  0  0  0
   -1.7540    1.1760    0.1360 C   0  0  0  0  0  0  0  0  0  0  0  0
   -2.1420   -0.1250    0.7830 C   0  0  0  0  0  0  0  0  0  0  0  0
   -0.9930   -0.9140    0.7840 O   0  0  0  0  0  0  0  0  0  0  0  0
  1  2  1  0
  2  3  2  0
  2  4  1  0
  5  4  1  1
  5  6  1  0
  5  9  1  0
  6  7  1  0
  7  8  1  0
  8  9  1  0
M  END
