
     RDKit          3D

 33 36  0  0  0  0  0  0  0  0999 V2000
   11.2350    1.7290   -0.4840 C   0  0  0  0  0  0  0  0  0  0  0  0
   10.1480    2.0240    0.5040 C   0  0  0  0  0  0  0  0  0  0  0  0
    8.8940    1.3510    0.1250 N   0  0  0  0  0  0  0  0  0  0  0  0
    7.7280    1.4820    0.9070 C   0  0  0  0  0  0  0  0  0  0  0  0
    7.6760    2.1500    1.9340 O   0  0  0  0  0  0  0  0  0  0  0  0
    6.4850    0.7800    0.4790 C   0  0  0  0  0  0  0  0  0  0  0  0
    6.2720    0.0050   -0.5750 C   0  0  0  0  0  0  0  0  0  0  0  0
    5.0570   -0.5380   -0.7800 C   0  0  0  0  0  0  0  0  0  0  0  0
    4.0720   -0.2650    0.1240 C   0  0  0  0  0  0  0  0  0  0  0  0
    2.6820   -0.6530    0.2410 C   0  0  0  0  0  0  0  0  0  0  0  0
    2.0290   -0.2210    1.2160 O   0  0  0  0  0  0  0  0  0  0  0  0
    2.1270   -1.4930   -0.7400 N   0  0  0  0  0  0  0  0  0  0  0  0
    0.7390   -1.9120   -0.6730 C   0  0  0  0  0  0  0  0  0  0  0  0
   -0.1880   -0.7330   -0.7090 C   0  0  0  0  0  0  0  0  0  0  0  0
   -1.6250   -1.2640   -0.6440 C   0  0  1  0  0  0  0  0  0  0  0  0
   -1.7780   -2.0200    0.6240 C   0  0  0  0  0  0  0  0  0  0  0  0
   -3.1930   -2.2380    1.0910 C   0  0  0  0  0  0  0  0  0  0  0  0
   -4.0300   -1.0670    0.7790 N   0  0  0  0  0  0  0  0  0  0  0  0
   -5.4100   -1.2740    0.8240 C   0  0  0  0  0  0  0  0  0  0  0  0
   -5.9290   -2.4440    1.3190 N   0  0  0  0  0  0  0  0  0  0  0  0
   -7.2670   -2.5320    1.3280 C   0  0  0  0  0  0  0  0  0  0  0  0
   -8.1160   -1.6120    0.9110 N   0  0  0  0  0  0  0  0  0  0  0  0
   -7.6660   -0.4120    0.4010 C   0  0  0  0  0  0  0  0  0  0  0  0
   -8.4100    0.6010   -0.0610 C   0  0  0  0  0  0  0  0  0  0  0  0
   -7.8000    1.7160   -0.5380 C   0  0  0  0  0  0  0  0  0  0  0  0
   -8.3500    2.9420   -1.0890 C   0  0  0  0  0  0  0  0  0  0  0  0
   -7.4590    3.9460   -1.5120 N   0  0  0  0  0  0  0  0  0  0  0  0
   -9.5760    3.0580   -1.1680 O   0  0  0  0  0  0  0  0  0  0  0  0
   -6.0810    1.3370   -0.3330 S   0  0  0  0  0  0  0  0  0  0  0  0
   -6.3070   -0.3010    0.3820 C   0  0  0  0  0  0  0  0  0  0  0  0
   -3.3010    0.1220    0.4800 C   0  0  0  0  0  0  0  0  0  0  0  0
   -2.6030   -0.1430   -0.8610 C   0  0  0  0  0  0  0  0  0  0  0  0
    4.9620    0.8150    1.2960 S   0  0  0  0  0  0  0  0  0  0  0  0
  1  2  1  0
  2  3  1  0
  3  4  1  0
  4  5  2  0
  4  6  1  0
  6  7  2  0
  6 33  1  0
  7  8  1  0
  8  9  2  0
  9 10  1  0
  9 33  1  0
 10 11  2  0
 10 12  1  0
 12 13  1  0
 13 14  1  0
 15 14  1  1
 15 16  1  0
 15 32  1  0
 16 17  1  0
 17 18  1  0
 18 19  1  0
 18 31  1  0
 19 20  2  0
 19 30  1  0
 20 21  1  0
 21 22  2  0
 22 23  1  0
 23 24  1  0
 23 30  2  0
 24 25  2  0
 25 26  1  0
 25 29  1  0
 26 27  1  0
 26 28  2  0
 29 30  1  0
 31 32  1  0
M  END
