
     RDKit          3D

 32 35  0  0  0  0  0  0  0  0999 V2000
    9.3420   -0.7530    0.4490 C   0  0  0  0  0  0  0  0  0  0  0  0
    7.8780   -0.8400    0.1580 C   0  0  0  0  0  0  0  0  0  0  0  0
    7.0000    0.1070    0.6330 C   0  0  0  0  0  0  0  0  0  0  0  0
    5.6260    0.0470    0.3680 C   0  0  0  0  0  0  0  0  0  0  0  0
    5.0950   -0.9720   -0.3860 C   0  0  0  0  0  0  0  0  0  0  0  0
    3.6800   -1.1000   -0.7140 C   0  0  0  0  0  0  0  0  0  0  0  0
    3.2720   -2.1320   -1.2910 O   0  0  0  0  0  0  0  0  0  0  0  0
    2.7530   -0.0860   -0.3990 N   0  0  0  0  0  0  0  0  0  0  0  0
    1.3500   -0.2430   -0.7390 C   0  0  0  0  0  0  0  0  0  0  0  0
    0.5620    0.9810   -0.3070 C   0  0  2  0  0  0  0  0  0  0  0  0
    1.1350    2.2040   -1.0150 C   0  0  0  0  0  0  0  0  0  0  0  0
    0.8550    3.3120   -0.0280 C   0  0  0  0  0  0  0  0  0  0  0  0
    0.1300    2.6410    1.1440 C   0  0  0  0  0  0  0  0  0  0  0  0
    0.7230    1.3230    1.0740 N   0  0  1  0  0  0  0  0  0  0  0  0
    0.0960    0.3300    1.8800 C   0  0  0  0  0  0  0  0  0  0  0  0
   -1.3580    0.2040    1.6340 C   0  0  0  0  0  0  0  0  0  0  0  0
   -1.8090    0.2250    0.2180 C   0  0  2  0  0  0  0  0  0  0  0  0
   -2.2370   -1.0070   -0.3400 N   0  0  0  0  0  0  0  0  0  0  0  0
   -3.3630   -1.6680    0.1610 C   0  0  2  0  0  0  0  0  0  0  0  0
   -4.0500   -2.3470   -1.0440 C   0  0  0  0  0  0  0  0  0  0  0  0
   -4.6810   -1.3870   -1.8850 N   0  0  0  0  0  0  0  0  0  0  0  0
   -5.5500   -0.4610   -1.2500 C   0  0  0  0  0  0  0  0  0  0  0  0
   -5.5270   -0.4160    0.2120 C   0  0  0  0  0  0  0  0  0  0  0  0
   -6.5430    0.1020    0.9040 C   0  0  0  0  0  0  0  0  0  0  0  0
   -7.7730    0.6730    0.3070 C   0  0  1  0  0  0  0  0  0  0  0  0
   -7.4660    1.7320   -0.5480 F   0  0  0  0  0  0  0  0  0  0  0  0
   -8.4890   -0.3210   -0.3230 F   0  0  0  0  0  0  0  0  0  0  0  0
   -4.3490   -0.9420    0.9750 C   0  0  0  0  0  0  0  0  0  0  0  0
   -0.8740    0.8920   -0.7340 C   0  0  0  0  0  0  0  0  0  0  0  0
    6.0070   -1.9320   -0.8620 C   0  0  0  0  0  0  0  0  0  0  0  0
    7.3510   -1.8620   -0.5960 C   0  0  0  0  0  0  0  0  0  0  0  0
    8.2160   -2.7990   -1.0660 F   0  0  0  0  0  0  0  0  0  0  0  0
  1  2  1  0
  2  3  2  0
  2 31  1  0
  3  4  1  0
  4  5  2  0
  5  6  1  0
  5 30  1  0
  6  7  2  0
  6  8  1  0
  8  9  1  0
 10  9  1  6
 10 11  1  0
 10 14  1  0
 10 29  1  0
 11 12  1  0
 12 13  1  0
 14 13  1  6
 14 15  1  0
 15 16  1  0
 16 17  1  0
 17 18  1  6
 17 29  1  0
 19 18  1  6
 19 20  1  0
 19 28  1  0
 20 21  1  0
 21 22  1  0
 22 23  1  0
 23 24  2  3
 23 28  1  0
 24 25  1  0
 25 26  1  6
 25 27  1  0
 30 31  2  0
 31 32  1  0
M  CHG  2  14   1  21   1
M  END
