
     RDKit          3D

 33 36  0  0  0  0  0  0  0  0999 V2000
   -7.1310    2.4520    1.8650 C   0  0  0  0  0  0  0  0  0  0  0  0
   -6.1610    1.8960    0.8320 C   0  0  0  0  0  0  0  0  0  0  0  0
   -6.2940    0.4740    0.6850 N   0  0  0  0  0  0  0  0  0  0  0  0
   -5.0790   -0.2360    1.0470 C   0  0  1  0  0  0  0  0  0  0  0  0
   -5.1170   -1.6080    0.4980 C   0  0  0  0  0  0  0  0  0  0  0  0
   -4.2080   -2.1710   -0.2640 C   0  0  0  0  0  0  0  0  0  0  0  0
   -4.6400   -3.5380   -0.5830 C   0  0  0  0  0  0  0  0  0  0  0  0
   -5.9370   -3.6850    0.1080 C   0  0  0  0  0  0  0  0  0  0  0  0
   -6.1920   -2.5510    0.7290 C   0  0  0  0  0  0  0  0  0  0  0  0
   -3.8650    0.5090    0.6520 C   0  0  0  0  0  0  0  0  0  0  0  0
   -3.7290    1.0900   -0.5880 C   0  0  0  0  0  0  0  0  0  0  0  0
   -2.5720    1.7970   -0.9410 C   0  0  0  0  0  0  0  0  0  0  0  0
   -1.5250    1.9420   -0.0700 C   0  0  0  0  0  0  0  0  0  0  0  0
   -0.2920    2.6570   -0.3840 C   0  0  0  0  0  0  0  0  0  0  0  0
    0.8870    1.7970   -0.6060 C   0  0  0  0  0  0  0  0  0  0  0  0
    2.0110    1.4910    0.6840 S   0  0  0  0  0  0  0  0  0  0  0  0
    3.0930    0.3920   -0.2120 C   0  0  0  0  0  0  0  0  0  0  0  0
    4.2860   -0.2440    0.3350 C   0  0  0  0  0  0  0  0  0  0  0  0
    4.6400   -0.0510    1.5180 O   0  0  0  0  0  0  0  0  0  0  0  0
    5.0560   -1.0800   -0.4510 O   0  0  0  0  0  0  0  0  0  0  0  0
    6.2200   -1.7270    0.0050 C   0  0  0  0  0  0  0  0  0  0  0  0
    7.2970   -0.7680    0.4670 C   0  0  1  0  0  0  0  0  0  0  0  0
    8.5010   -1.6020    0.8530 C   0  0  0  0  0  0  0  0  0  0  0  0
    9.6480   -0.9120    0.1890 C   0  0  0  0  0  0  0  0  0  0  0  0
    9.0220    0.1930   -0.6050 C   0  0  0  0  0  0  0  0  0  0  0  0
    7.6580    0.0420   -0.5790 O   0  0  0  0  0  0  0  0  0  0  0  0
    2.5130    0.3510   -1.4050 C   0  0  0  0  0  0  0  0  0  0  0  0
    1.3780    1.0620   -1.6440 C   0  0  0  0  0  0  0  0  0  0  0  0
    0.7010    1.1040   -2.9640 C   0  0  0  0  0  0  0  0  0  0  0  0
    1.1310    0.1630   -4.0130 C   0  0  0  0  0  0  0  0  0  0  0  0
   -0.2070    1.9300   -3.1430 O   0  0  0  0  0  0  0  0  0  0  0  0
   -1.6870    1.3430    1.1860 C   0  0  0  0  0  0  0  0  0  0  0  0
   -2.8210    0.6460    1.5400 C   0  0  0  0  0  0  0  0  0  0  0  0
  1  2  1  0
  2  3  1  0
  4  3  1  6
  4  5  1  0
  4 10  1  0
  5  6  2  0
  5  9  1  0
  6  7  1  0
  7  8  1  0
  8  9  2  0
 10 11  2  0
 10 33  1  0
 11 12  1  0
 12 13  2  0
 13 14  1  0
 13 32  1  0
 14 15  1  0
 15 16  1  0
 15 28  2  0
 16 17  1  0
 17 18  1  0
 17 27  2  0
 18 19  2  0
 18 20  1  0
 20 21  1  0
 22 21  1  6
 22 23  1  0
 22 26  1  0
 23 24  1  0
 24 25  1  0
 25 26  1  0
 27 28  1  0
 28 29  1  0
 29 30  1  0
 29 31  2  0
 32 33  2  0
M  CHG  1   3   1
M  END
