
     RDKit          3D

 32 34  0  0  0  0  0  0  0  0999 V2000
   -5.0320   -2.8890    0.6650 C   0  0  0  0  0  0  0  0  0  0  0  0
   -3.9580   -1.9600    0.0730 C   0  0  1  0  0  0  0  0  0  0  0  0
   -3.7240   -2.5340   -1.3350 C   0  0  0  0  0  0  0  0  0  0  0  0
   -4.5150   -0.6060   -0.0830 C   0  0  0  0  0  0  0  0  0  0  0  0
   -4.1860    0.4000    0.9600 C   0  0  0  0  0  0  0  0  0  0  0  0
   -3.0050    0.0540    1.8200 C   0  0  0  0  0  0  0  0  0  0  0  0
   -2.0840   -0.8740    1.1650 C   0  0  2  0  0  0  0  0  0  0  0  0
   -1.2180   -0.4950    0.0380 C   0  0  0  0  0  0  0  0  0  0  0  0
   -0.1830    0.5390    0.1470 C   0  0  1  0  0  0  0  0  0  0  0  0
    0.6270    0.6940   -1.1420 C   0  0  0  0  0  0  0  0  0  0  0  0
    1.3720   -0.5170   -1.5630 C   0  0  1  0  0  0  0  0  0  0  0  0
    2.1260   -0.3170   -2.8630 C   0  0  0  0  0  0  0  0  0  0  0  0
    2.7600    1.0160   -3.0390 C   0  0  0  0  0  0  0  0  0  0  0  0
    4.1900    1.0300   -2.5490 C   0  0  1  0  0  0  0  0  0  0  0  0
    4.7650    2.4420   -2.7660 C   0  0  2  0  0  0  0  0  0  0  0  0
    3.9750    3.2900   -2.0390 F   0  0  0  0  0  0  0  0  0  0  0  0
    4.8110    2.7560   -4.0980 F   0  0  0  0  0  0  0  0  0  0  0  0
    6.0280    2.4170   -2.2060 F   0  0  0  0  0  0  0  0  0  0  0  0
    4.2510    0.7350   -1.1420 N   0  0  0  0  0  0  0  0  0  0  0  0
    3.6600   -0.3030   -0.4020 C   0  0  0  0  0  0  0  0  0  0  0  0
    2.4670   -0.8420   -0.5580 C   0  0  0  0  0  0  0  0  0  0  0  0
    2.0680   -1.9300    0.3090 C   0  0  0  0  0  0  0  0  0  0  0  0
    1.4030   -2.9270   -0.1340 O   0  0  0  0  0  0  0  0  0  0  0  0
    2.4700   -1.8400    1.7540 C   0  0  0  0  0  0  0  0  0  0  0  0
    3.6170   -0.8850    1.9380 C   0  0  0  0  0  0  0  0  0  0  0  0
    4.5320   -0.8270    0.7120 C   0  0  0  0  0  0  0  0  0  0  0  0
   -0.7160    1.8440    0.4650 N   0  0  0  0  0  0  0  0  0  0  0  0
   -0.2030    2.3780    1.7110 C   0  0  0  0  0  0  0  0  0  0  0  0
   -1.0620    3.5920    2.0490 C   0  0  0  0  0  0  0  0  0  0  0  0
   -0.5850    4.1740    3.3090 C   0  0  0  0  0  0  0  0  0  0  0  0
   -0.1900    4.6390    4.2970 N   0  0  0  0  0  0  0  0  0  0  0  0
   -2.7510   -2.1320    0.7890 N   0  0  0  0  0  0  0  0  0  0  0  0
  2  1  1  1
  2  3  1  0
  2  4  1  0
  2 32  1  0
  4  5  1  0
  5  6  1  0
  6  7  1  0
  7  8  1  6
  7 32  1  0
  9  8  1  6
  9 10  1  0
  9 27  1  0
 11 10  1  1
 11 12  1  0
 11 21  1  0
 12 13  1  0
 14 13  1  1
 14 15  1  0
 14 19  1  0
 15 16  1  1
 15 17  1  0
 15 18  1  0
 19 20  1  0
 20 21  2  0
 20 26  1  0
 21 22  1  0
 22 23  2  0
 22 24  1  0
 24 25  1  0
 25 26  1  0
 27 28  1  0
 28 29  1  0
 29 30  1  0
 30 31  3  0
M  CHG  2  27   1  32   1
M  END
