
     RDKit          3D

 11 11  0  0  0  0  0  0  0  0999 V2000
   -2.7690   -0.9110   -0.4110 N   0  0  0  0  0  0  0  0  0  0  0  0
   -2.3280    0.2190   -1.1650 C   0  0  0  0  0  0  0  0  0  0  0  0
   -1.0140    0.7830   -0.7160 C   0  0  1  0  0  0  0  0  0  0  0  0
   -1.0340    1.4010    0.6370 C   0  0  0  0  0  0  0  0  0  0  0  0
   -0.8820    0.4500    1.7740 C   0  0  0  0  0  0  0  0  0  0  0  0
    0.2430   -0.5270    1.6120 C   0  0  0  0  0  0  0  0  0  0  0  0
    0.8890   -0.4260    0.2790 C   0  0  0  0  0  0  0  0  0  0  0  0
    2.1990   -0.5960    0.1130 C   0  0  0  0  0  0  0  0  0  0  0  0
    2.8440   -0.5010   -1.1760 C   0  0  0  0  0  0  0  0  0  0  0  0
    4.0960   -0.6710   -1.2870 N   0  0  0  0  0  0  0  0  0  0  0  0
    0.0440   -0.1410   -0.7960 O   0  0  0  0  0  0  0  0  0  0  0  0
  1  2  1  0
  3  2  1  1
  3  4  1  0
  3 11  1  0
  4  5  1  0
  5  6  1  0
  6  7  1  0
  7  8  2  3
  7 11  1  0
  8  9  1  0
  9 10  2  0
M  CHG  1  10   1
M  END
