
     RDKit          3D

 13 13  0  0  0  0  0  0  0  0999 V2000
    4.4590    0.1400    0.8820 C   0  0  0  0  0  0  0  0  0  0  0  0
    3.6220    0.1010   -0.2170 O   0  0  0  0  0  0  0  0  0  0  0  0
    2.2830   -0.0490    0.1430 C   0  0  0  0  0  0  0  0  0  0  0  0
    1.4250   -0.0860   -1.0790 C   0  0  0  0  0  0  0  0  0  0  0  0
   -0.0320   -0.2420   -0.8380 C   0  0  1  0  0  0  0  0  0  0  0  0
   -0.6280   -0.2500   -2.1190 O   0  0  0  0  0  0  0  0  0  0  0  0
   -0.3730   -1.4930   -0.0730 C   0  0  0  0  0  0  0  0  0  0  0  0
   -1.6720   -1.6550    0.2290 O   0  0  0  0  0  0  0  0  0  0  0  0
   -2.6040   -1.2530   -0.6950 C   0  0  0  0  0  0  0  0  0  0  0  0
   -2.8170    0.2460   -0.7060 C   0  0  0  0  0  0  0  0  0  0  0  0
   -1.9510    0.9530    0.1600 N   0  0  0  0  0  0  0  0  0  0  0  0
   -2.3800    1.1300    1.4930 C   0  0  0  0  0  0  0  0  0  0  0  0
   -0.5790    0.9280   -0.0940 C   0  0  0  0  0  0  0  0  0  0  0  0
  1  2  1  0
  2  3  1  0
  3  4  1  0
  4  5  1  0
  5  6  1  6
  5  7  1  0
  5 13  1  0
  7  8  1  0
  8  9  1  0
  9 10  1  0
 10 11  1  0
 11 12  1  0
 11 13  1  0
M  END
