
     RDKit          3D

  8  8  0  0  0  0  0  0  0  0999 V2000
   -1.7440    1.7870   -0.1570 O   0  0  0  0  0  0  0  0  0  0  0  0
   -0.8070    0.8260   -0.2780 N   0  0  0  0  0  0  0  0  0  0  0  0
   -1.2130   -0.5450   -0.3690 C   0  0  0  0  0  0  0  0  0  0  0  0
   -0.3100   -1.3910    0.4410 C   0  0  0  0  0  0  0  0  0  0  0  0
    0.9820   -1.1190    0.5290 C   0  0  0  0  0  0  0  0  0  0  0  0
    1.6180    0.0520   -0.1780 C   0  0  0  0  0  0  0  0  0  0  0  0
    0.5780    1.1050   -0.3210 C   0  0  0  0  0  0  0  0  0  0  0  0
    1.0140    2.6610   -0.5380 S   0  0  0  0  0  0  0  0  0  0  0  0
  1  2  1  0
  2  3  1  0
  2  7  1  0
  3  4  1  0
  4  5  2  0
  5  6  1  0
  6  7  1  0
  7  8  2  0
M  END
