
     RDKit          3D

 14 14  0  0  0  0  0  0  0  0999 V2000
   -4.0840   -1.2200    0.7460 C   0  0  0  0  0  0  0  0  0  0  0  0
   -4.4020    0.1910    0.2850 C   0  0  0  0  0  0  0  0  0  0  0  0
   -2.9740    1.2720    0.3690 S   0  0  0  0  0  0  0  0  0  0  0  0
   -1.7150    0.7910   -0.7770 C   0  0  0  0  0  0  0  0  0  0  0  0
   -0.4530    0.6370   -0.4330 C   0  0  0  0  0  0  0  0  0  0  0  0
    0.6830    0.2490   -1.2590 C   0  0  0  0  0  0  0  0  0  0  0  0
    1.6770   -0.0830   -0.4860 C   0  0  0  0  0  0  0  0  0  0  0  0
    2.9980   -0.5310   -0.9090 C   0  0  0  0  0  0  0  0  0  0  0  0
    3.3170   -0.6450   -2.1170 O   0  0  0  0  0  0  0  0  0  0  0  0
    3.9880   -0.8610    0.0210 O   0  0  0  0  0  0  0  0  0  0  0  0
    5.2790   -1.2980   -0.3870 C   0  0  0  0  0  0  0  0  0  0  0  0
    1.2900    0.0540    0.8490 O   0  0  0  0  0  0  0  0  0  0  0  0
    0.1140    0.8320    0.9320 C   0  0  1  0  0  0  0  0  0  0  0  0
    0.5350    2.2060    1.1390 N   0  0  0  0  0  0  0  0  0  0  0  0
  1  2  1  0
  2  3  1  0
  3  4  1  0
  4  5  2  3
  5  6  1  0
  5 13  1  0
  6  7  2  0
  7  8  1  0
  7 12  1  0
  8  9  2  0
  8 10  1  0
 10 11  1  0
 12 13  1  0
 13 14  1  6
M  END
