
     RDKit          3D

 14 14  0  0  0  0  0  0  0  0999 V2000
    3.5490    1.2250   -0.5610 C   0  0  0  0  0  0  0  0  0  0  0  0
    2.5770    0.4420    0.0840 O   0  0  0  0  0  0  0  0  0  0  0  0
    1.3160    0.2100   -0.4290 C   0  0  0  0  0  0  0  0  0  0  0  0
    0.9880    0.7020   -1.5150 O   0  0  0  0  0  0  0  0  0  0  0  0
    0.3710   -0.6390    0.3510 C   0  0  2  0  0  0  0  0  0  0  0  0
    0.9290   -2.0720    0.2930 C   0  0  0  0  0  0  0  0  0  0  0  0
   -0.1340   -2.7840   -0.4360 C   0  0  0  0  0  0  0  0  0  0  0  0
   -0.0430   -3.7400   -1.1400 O   0  0  0  0  0  0  0  0  0  0  0  0
   -1.3540   -2.0410   -0.0980 C   0  0  0  0  0  0  0  0  0  0  0  0
   -0.8900   -0.6620   -0.3150 N   0  0  0  0  0  0  0  0  0  0  0  0
   -1.8470    0.2710    0.2420 C   0  0  0  0  0  0  0  0  0  0  0  0
   -1.3970    1.6880   -0.0030 C   0  0  0  0  0  0  0  0  0  0  0  0
   -2.4370    2.5890    0.6210 C   0  0  0  0  0  0  0  0  0  0  0  0
   -3.1840    2.1800    1.7700 S   0  0  0  0  0  0  0  0  0  0  0  0
  1  2  1  0
  2  3  1  0
  3  4  2  0
  5  3  1  6
  5  6  1  0
  5 10  1  0
  6  7  1  0
  7  8  2  0
  7  9  1  0
  9 10  1  0
 10 11  1  0
 11 12  1  0
 12 13  1  0
 13 14  2  0
M  END
