
     RDKit          3D

 14 14  0  0  0  0  0  0  0  0999 V2000
   -3.8670    1.2670   -0.3180 C   0  0  0  0  0  0  0  0  0  0  0  0
   -3.1790    0.0900    0.3910 C   0  0  2  0  0  0  0  0  0  0  0  0
   -1.8060    0.4800    0.7140 C   0  0  0  0  0  0  0  0  0  0  0  0
   -0.7610   -0.5400    0.4300 C   0  0  2  0  0  0  0  0  0  0  0  0
    0.5770   -0.1310    0.5540 N   0  0  0  0  0  0  0  0  0  0  0  0
    1.0360    0.8950   -0.3080 C   0  0  0  0  0  0  0  0  0  0  0  0
    2.5130    1.1540    0.0180 C   0  0  0  0  0  0  0  0  0  0  0  0
    3.3850   -0.3780   -0.2710 S   0  0  2  0  0  0  0  0  0  0  0  0
    5.1050   -0.2310    0.0660 C   0  0  0  0  0  0  0  0  0  0  0  0
    3.1350   -0.8410   -1.6990 O   0  0  0  0  0  0  0  0  0  0  0  0
    2.8090   -1.4100    0.6600 O   0  0  0  0  0  0  0  0  0  0  0  0
   -1.0940   -1.0850   -0.9660 C   0  0  0  0  0  0  0  0  0  0  0  0
   -2.4170   -1.8000   -0.7550 C   0  0  0  0  0  0  0  0  0  0  0  0
   -3.4160   -1.0130   -0.3280 O   0  0  0  0  0  0  0  0  0  0  0  0
  2  1  1  6
  2  3  1  0
  2 14  1  0
  3  4  1  0
  4  5  1  6
  4 12  1  0
  5  6  1  0
  6  7  1  0
  7  8  1  0
  8  9  1  1
  8 10  2  0
  8 11  2  0
 12 13  1  0
 13 14  1  0
M  END
