
     RDKit          3D

 14 14  0  0  0  0  0  0  0  0999 V2000
    4.8520   -0.2990    0.4410 C   0  0  0  0  0  0  0  0  0  0  0  0
    3.6850    0.4360    0.1420 O   0  0  0  0  0  0  0  0  0  0  0  0
    2.5160    0.1560    0.8290 C   0  0  0  0  0  0  0  0  0  0  0  0
    2.5460   -0.7460    1.6940 O   0  0  0  0  0  0  0  0  0  0  0  0
    1.2360    0.8690    0.5910 C   0  0  2  0  0  0  0  0  0  0  0  0
    0.2700    0.3600    1.4260 O   0  0  0  0  0  0  0  0  0  0  0  0
    0.9040    0.6950   -0.8740 C   0  0  0  0  0  0  0  0  0  0  0  0
   -0.5760    1.4300   -1.4460 S   0  0  0  0  0  0  0  0  0  0  0  0
   -2.1030    0.7270   -0.9760 C   0  0  0  0  0  0  0  0  0  0  0  0
   -3.2200    1.4300   -1.0990 N   0  0  0  0  0  0  0  0  0  0  0  0
   -4.3180    0.6510   -0.6520 C   0  0  0  0  0  0  0  0  0  0  0  0
   -3.7520   -0.6230   -0.2260 C   0  0  0  0  0  0  0  0  0  0  0  0
   -2.4170   -0.5580   -0.4320 C   0  0  0  0  0  0  0  0  0  0  0  0
   -1.5660   -1.7190   -0.1280 C   0  0  0  0  0  0  0  0  0  0  0  0
  1  2  1  0
  2  3  1  0
  3  4  2  0
  3  5  1  0
  5  6  1  1
  5  7  1  0
  7  8  1  0
  8  9  1  0
  9 10  2  0
  9 13  1  0
 10 11  1  0
 11 12  1  0
 12 13  2  0
 13 14  1  0
M  END
