
     RDKit          3D

 14 14  0  0  0  0  0  0  0  0999 V2000
    2.9180    0.9520   -2.3310 C   0  0  0  0  0  0  0  0  0  0  0  0
    2.6050    0.4630   -1.0430 O   0  0  0  0  0  0  0  0  0  0  0  0
    1.9740   -0.7750   -0.8860 C   0  0  0  0  0  0  0  0  0  0  0  0
    1.6930   -1.4360   -1.9100 O   0  0  0  0  0  0  0  0  0  0  0  0
    1.6740   -1.2330    0.4800 C   0  0  2  0  0  0  0  0  0  0  0  0
    1.0160   -2.5700    0.4570 C   0  0  0  0  0  0  0  0  0  0  0  0
    0.7610    0.0220    1.3940 S   0  0  0  0  0  0  0  0  0  0  0  0
   -0.8610    0.3090    0.7250 C   0  0  0  0  0  0  0  0  0  0  0  0
   -1.4190   -0.2650   -0.3180 C   0  0  0  0  0  0  0  0  0  0  0  0
   -2.7830    0.2750   -0.5190 C   0  0  2  0  0  0  0  0  0  0  0  0
   -2.9270    0.8710   -1.7720 O   0  0  0  0  0  0  0  0  0  0  0  0
   -2.9240    1.2290    0.5430 N   0  0  0  0  0  0  0  0  0  0  0  0
   -1.8490    1.2420    1.2330 C   0  0  0  0  0  0  0  0  0  0  0  0
   -1.6290    2.1200    2.4280 C   0  0  0  0  0  0  0  0  0  0  0  0
  1  2  1  0
  2  3  1  0
  3  4  2  0
  3  5  1  0
  5  6  1  6
  5  7  1  0
  7  8  1  0
  8  9  2  0
  8 13  1  0
  9 10  1  0
 10 11  1  6
 10 12  1  0
 12 13  2  0
 13 14  1  0
M  END
