
     RDKit          3D

 14 14  0  0  0  0  0  0  0  0999 V2000
   -2.6500   -2.2870    0.7080 N   0  0  0  0  0  0  0  0  0  0  0  0
   -1.8940   -1.2930    0.9870 C   0  0  0  0  0  0  0  0  0  0  0  0
   -1.9980    0.0360    0.4090 C   0  0  0  0  0  0  0  0  0  0  0  0
   -2.9500    0.2630   -0.4780 C   0  0  0  0  0  0  0  0  0  0  0  0
   -3.1190    1.5820   -1.1040 C   0  0  0  0  0  0  0  0  0  0  0  0
   -2.1400    2.8250   -0.7180 S   0  0  0  0  0  0  0  0  0  0  0  0
   -1.1600    1.0690    0.7320 O   0  0  0  0  0  0  0  0  0  0  0  0
    0.1090    0.9960    1.3130 C   0  0  0  0  0  0  0  0  0  0  0  0
    1.0320    0.2220    0.4410 C   0  0  1  0  0  0  0  0  0  0  0  0
    1.2490    0.8610   -0.9280 C   0  0  0  0  0  0  0  0  0  0  0  0
    1.5990   -0.1990   -1.7920 O   0  0  0  0  0  0  0  0  0  0  0  0
    2.3770   -1.1030   -1.1010 C   0  0  0  0  0  0  0  0  0  0  0  0
    3.1190   -0.4990    0.0490 C   0  0  0  0  0  0  0  0  0  0  0  0
    2.3140    0.1070    0.9900 O   0  0  0  0  0  0  0  0  0  0  0  0
  1  2  2  0
  2  3  1  0
  3  4  2  3
  3  7  1  0
  4  5  1  0
  5  6  2  0
  7  8  1  0
  9  8  1  1
  9 10  1  0
  9 14  1  0
 10 11  1  0
 11 12  1  0
 12 13  1  0
 13 14  1  0
M  END
