
     RDKit          3D

 12 12  0  0  0  0  0  0  0  0999 V2000
   -2.1470    0.0250   -1.4700 C   0  0  0  0  0  0  0  0  0  0  0  0
   -2.4770   -0.2070   -0.0010 C   0  0  2  0  0  0  0  0  0  0  0  0
   -3.2340   -1.4750    0.1730 C   0  0  0  0  0  0  0  0  0  0  0  0
   -3.4500    0.9300    0.3540 C   0  0  0  0  0  0  0  0  0  0  0  0
   -1.3530   -0.0480    0.8450 N   0  0  0  0  0  0  0  0  0  0  0  0
   -0.2210   -0.8870    0.7190 C   0  0  0  0  0  0  0  0  0  0  0  0
    0.7280    0.2730    0.4960 C   0  0  1  0  0  0  0  0  0  0  0  0
    1.2860    0.3610   -0.7470 O   0  0  0  0  0  0  0  0  0  0  0  0
    2.6210    0.6270   -0.7620 C   0  0  0  0  0  0  0  0  0  0  0  0
    3.4740   -0.4230   -0.0950 C   0  0  0  0  0  0  0  0  0  0  0  0
    4.8840   -0.0750   -0.1490 N   0  0  0  0  0  0  0  0  0  0  0  0
   -0.5440    1.1140    0.6790 C   0  0  0  0  0  0  0  0  0  0  0  0
  2  1  1  6
  2  3  1  0
  2  4  1  0
  2  5  1  0
  5  6  1  0
  5 12  1  0
  6  7  1  0
  7  8  1  6
  7 12  1  0
  8  9  1  0
  9 10  1  0
 10 11  1  0
M  CHG  1  11   1
M  END
