
     RDKit          3D

 10 10  0  0  0  0  0  0  0  0999 V2000
    2.3390   -0.8450    0.2490 C   0  0  0  0  0  0  0  0  0  0  0  0
    0.9230   -0.7960   -0.0090 N   0  0  0  0  0  0  0  0  0  0  0  0
    0.1790    0.4260    0.2060 C   0  0  0  0  0  0  0  0  0  0  0  0
    0.8420    1.5600    0.6830 C   0  0  0  0  0  0  0  0  0  0  0  0
   -0.3960    2.8090    0.8090 S   0  0  0  0  0  0  0  0  0  0  0  0
   -1.7210    1.7910    0.2320 C   0  0  0  0  0  0  0  0  0  0  0  0
   -1.1440    0.5600   -0.0220 C   0  0  0  0  0  0  0  0  0  0  0  0
   -2.0380   -0.5350   -0.5350 C   0  0  0  0  0  0  0  0  0  0  0  0
   -3.2460   -0.2980   -0.7090 O   0  0  0  0  0  0  0  0  0  0  0  0
   -1.6070   -1.7990   -0.8300 O   0  0  0  0  0  0  0  0  0  0  0  0
  1  2  1  0
  2  3  1  0
  3  4  2  0
  3  7  1  0
  4  5  1  0
  5  6  1  0
  6  7  2  0
  7  8  1  0
  8  9  2  0
  8 10  1  0
M  END
