
     RDKit          3D

 10 10  0  0  0  0  0  0  0  0999 V2000
    3.1310   -0.5100   -1.4800 C   0  0  0  0  0  0  0  0  0  0  0  0
    1.7850   -0.2810   -0.8740 C   0  0  0  0  0  0  0  0  0  0  0  0
    0.5920   -0.0330   -1.4160 C   0  0  0  0  0  0  0  0  0  0  0  0
   -0.4750    0.1340   -0.6110 C   0  0  0  0  0  0  0  0  0  0  0  0
   -0.2840    0.0420    0.7300 C   0  0  0  0  0  0  0  0  0  0  0  0
   -1.2070    0.1690    1.8340 N   0  0  0  0  0  0  0  0  0  0  0  0
   -2.5800    0.4340    1.7130 C   0  0  0  0  0  0  0  0  0  0  0  0
   -3.0750    0.5750    0.5700 O   0  0  0  0  0  0  0  0  0  0  0  0
   -3.4230    0.5450    2.8420 O   0  0  0  0  0  0  0  0  0  0  0  0
    1.4190   -0.2850    0.8570 S   0  0  0  0  0  0  0  0  0  0  0  0
  1  2  1  0
  2  3  2  0
  2 10  1  0
  3  4  1  0
  4  5  2  0
  5  6  1  0
  5 10  1  0
  6  7  1  0
  7  8  2  0
  7  9  1  0
M  END
