
     RDKit          3D

 10 10  0  0  0  0  0  0  0  0999 V2000
   -2.6980   -0.6830   -0.9280 N   0  0  0  0  0  0  0  0  0  0  0  0
   -1.9350    0.2570    0.3000 S   0  0  2  0  0  0  0  0  0  0  0  0
   -2.3340   -0.3500    1.6250 O   0  0  0  0  0  0  0  0  0  0  0  0
   -2.3150    1.6960    0.2440 O   0  0  0  0  0  0  0  0  0  0  0  0
   -0.1890    0.1530    0.1860 C   0  0  0  0  0  0  0  0  0  0  0  0
    0.4990   -0.8350    0.8710 C   0  0  0  0  0  0  0  0  0  0  0  0
    1.8730   -0.9480    0.8060 C   0  0  0  0  0  0  0  0  0  0  0  0
    2.5760   -0.0400    0.0280 C   0  0  0  0  0  0  0  0  0  0  0  0
    1.9270    0.9570   -0.6670 C   0  0  0  0  0  0  0  0  0  0  0  0
    0.5530    1.0360   -0.5760 C   0  0  0  0  0  0  0  0  0  0  0  0
  2  1  1  6
  2  3  2  0
  2  4  2  0
  2  5  1  0
  5  6  2  0
  5 10  1  0
  6  7  1  0
  7  8  2  0
  8  9  1  0
  9 10  2  0
M  END
