
     RDKit          3D

 10 10  0  0  0  0  0  0  0  0999 V2000
    3.0280   -0.8650    0.7000 C   0  0  0  0  0  0  0  0  0  0  0  0
    1.6410   -0.5700    0.5410 O   0  0  0  0  0  0  0  0  0  0  0  0
    1.1700    0.1630   -0.5320 C   0  0  0  0  0  0  0  0  0  0  0  0
    1.9570    0.5910   -1.4010 O   0  0  0  0  0  0  0  0  0  0  0  0
   -0.2520    0.4670   -0.6970 C   0  0  0  0  0  0  0  0  0  0  0  0
   -0.9280    1.4190   -2.0770 S   0  0  0  0  0  0  0  0  0  0  0  0
   -2.6740    1.2940   -1.4760 C   0  0  0  0  0  0  0  0  0  0  0  0
   -2.5470    0.5570   -0.3180 C   0  0  0  0  0  0  0  0  0  0  0  0
   -1.3430    0.1460    0.0690 C   0  0  0  0  0  0  0  0  0  0  0  0
   -1.1280   -0.6350    1.2780 N   0  0  0  0  0  0  0  0  0  0  0  0
  1  2  1  0
  2  3  1  0
  3  4  2  0
  3  5  1  0
  5  6  1  0
  5  9  2  0
  6  7  1  0
  7  8  2  0
  8  9  1  0
  9 10  1  0
M  END
