
     RDKit          3D

 10 10  0  0  0  0  0  0  0  0999 V2000
    2.7160   -0.3260    1.1290 O   0  0  0  0  0  0  0  0  0  0  0  0
    2.3460   -1.0480    0.0040 C   0  0  0  0  0  0  0  0  0  0  0  0
    1.6420   -0.2010   -1.0160 C   0  0  0  0  0  0  0  0  0  0  0  0
    0.3740    0.3970   -0.4070 C   0  0  0  0  0  0  0  0  0  0  0  0
    0.4900    1.6540    0.2430 C   0  0  0  0  0  0  0  0  0  0  0  0
   -1.1910    1.9100    0.7550 S   0  0  0  0  0  0  0  0  0  0  0  0
   -1.8620    0.4400    0.1130 C   0  0  0  0  0  0  0  0  0  0  0  0
   -3.2720   -0.0740    0.1490 C   0  0  0  0  0  0  0  0  0  0  0  0
   -3.5040   -0.8490    1.2810 O   0  0  0  0  0  0  0  0  0  0  0  0
   -0.7670   -0.1450   -0.4450 N   0  0  0  0  0  0  0  0  0  0  0  0
  1  2  1  0
  2  3  1  0
  3  4  1  0
  4  5  2  0
  4 10  1  0
  5  6  1  0
  6  7  1  0
  7  8  1  0
  7 10  2  0
  8  9  1  0
M  END
