
     RDKit          3D

  9  9  0  0  0  0  0  0  0  0999 V2000
    2.4800    1.2300   -0.1280 N   0  0  0  0  0  0  0  0  0  0  0  0
    2.3530   -0.1890   -0.2770 C   0  0  0  0  0  0  0  0  0  0  0  0
    3.3020   -0.7440   -0.9040 O   0  0  0  0  0  0  0  0  0  0  0  0
    1.2150   -0.9470    0.2470 C   0  0  0  0  0  0  0  0  0  0  0  0
   -0.0840   -0.7400   -0.5040 C   0  0  2  0  0  0  0  0  0  0  0  0
   -0.5220    0.7100   -0.4600 C   0  0  0  0  0  0  0  0  0  0  0  0
   -1.9610    0.6850    0.0040 C   0  0  0  0  0  0  0  0  0  0  0  0
   -2.2790   -0.7760   -0.0250 C   0  0  0  0  0  0  0  0  0  0  0  0
   -1.0730   -1.3840    0.2510 O   0  0  0  0  0  0  0  0  0  0  0  0
  1  2  1  0
  2  3  2  0
  2  4  1  0
  5  4  1  1
  5  6  1  0
  5  9  1  0
  6  7  1  0
  7  8  1  0
  8  9  1  0
M  END
