
     RDKit          3D

 10 10  0  0  0  0  0  0  0  0999 V2000
   -1.2740    1.9050    0.0190 C   0  0  0  0  0  0  0  0  0  0  0  0
   -0.1010    0.9780   -0.0580 C   0  0  0  0  0  0  0  0  0  0  0  0
    1.5160    1.4590   -0.2830 S   0  0  0  0  0  0  0  0  0  0  0  0
    2.6010    0.1500   -0.3240 C   0  0  0  0  0  0  0  0  0  0  0  0
    3.8640    0.2690   -0.4820 O   0  0  0  0  0  0  0  0  0  0  0  0
    2.0590   -1.0700   -0.1770 N   0  0  0  0  0  0  0  0  0  0  0  0
    0.7510   -1.3030   -0.0050 C   0  0  0  0  0  0  0  0  0  0  0  0
    0.4280   -2.5420    0.1170 O   0  0  0  0  0  0  0  0  0  0  0  0
   -0.2530   -0.3890    0.0520 C   0  0  0  0  0  0  0  0  0  0  0  0
   -1.6680   -0.8870    0.2550 C   0  0  0  0  0  0  0  0  0  0  0  0
  1  2  1  0
  2  3  1  0
  2  9  2  0
  3  4  1  0
  4  5  2  0
  4  6  1  0
  6  7  1  0
  7  8  2  0
  7  9  1  0
  9 10  1  0
M  END
