
     RDKit          3D

 20 22  0  0  0  0  0  0  0  0999 V2000
   -0.3650   -2.8970    0.0120 O   0  0  0  0  0  0  0  0  0  0  0  0
   -1.2490   -2.0360   -0.1390 C   0  0  0  0  0  0  0  0  0  0  0  0
   -2.4980   -2.4270   -0.2010 O   0  0  0  0  0  0  0  0  0  0  0  0
   -3.4920   -1.5500   -0.3620 C   0  0  0  0  0  0  0  0  0  0  0  0
   -3.2000   -0.2080   -0.4650 C   0  0  0  0  0  0  0  0  0  0  0  0
   -1.8820    0.2100   -0.4000 C   0  0  0  0  0  0  0  0  0  0  0  0
   -1.5210    1.5320   -0.4960 C   0  0  0  0  0  0  0  0  0  0  0  0
   -0.2100    1.9530   -0.4320 C   0  0  0  0  0  0  0  0  0  0  0  0
    0.1390    3.2770   -0.5290 O   0  0  0  0  0  0  0  0  0  0  0  0
    0.8380    1.0230   -0.2610 C   0  0  0  0  0  0  0  0  0  0  0  0
    2.1300    1.4540   -0.1960 O   0  0  0  0  0  0  0  0  0  0  0  0
    3.3400    0.8750   -0.0210 C   0  0  0  0  0  0  0  0  0  0  0  0
    3.5680    0.1770    1.2920 C   0  0  0  0  0  0  0  0  0  0  0  0
    4.9800   -0.4250    1.3480 C   0  0  0  0  0  0  0  0  0  0  0  0
    5.0860   -1.3500    0.2870 O   0  0  0  0  0  0  0  0  0  0  0  0
    0.4550   -0.2900   -0.1680 C   0  0  0  0  0  0  0  0  0  0  0  0
   -0.8800   -0.7120   -0.2340 C   0  0  0  0  0  0  0  0  0  0  0  0
   -4.3270    0.4820   -0.6190 C   0  0  0  0  0  0  0  0  0  0  0  0
   -5.4490   -0.4750   -0.6170 C   0  0  0  0  0  0  0  0  0  0  0  0
   -4.7880   -1.7860   -0.4420 C   0  0  0  0  0  0  0  0  0  0  0  0
  1  2  2  0
  2  3  1  0
  2 17  1  0
  3  4  1  0
  4  5  1  0
  4 20  2  0
  5  6  1  0
  5 18  2  0
  6  7  2  0
  6 17  1  0
  7  8  1  0
  8  9  1  0
  8 10  2  0
 10 11  1  0
 10 16  1  0
 11 12  1  0
 12 13  1  0
 13 14  1  0
 14 15  1  0
 16 17  2  0
 18 19  1  0
 19 20  1  0
M  END
