
     RDKit          3D

  9  9  0  0  0  0  0  0  0  0999 V2000
    0.1800    1.9280   -1.0800 C   0  0  0  0  0  0  0  0  0  0  0  0
   -0.3160    0.9650   -0.3520 C   0  0  0  0  0  0  0  0  0  0  0  0
   -1.5480    1.3170    0.4260 C   0  0  0  0  0  0  0  0  0  0  0  0
   -2.1910   -0.1810    1.2540 S   0  0  0  0  0  0  0  0  0  0  0  0
   -1.7830   -1.5140    0.0600 C   0  0  0  0  0  0  0  0  0  0  0  0
   -0.3350   -1.4680   -0.1380 C   0  0  0  0  0  0  0  0  0  0  0  0
    0.3040   -0.3220   -0.3240 C   0  0  0  0  0  0  0  0  0  0  0  0
    1.6910   -0.4330   -0.5010 O   0  0  0  0  0  0  0  0  0  0  0  0
    2.5720   -0.6290    0.5820 C   0  0  0  0  0  0  0  0  0  0  0  0
  1  2  2  0
  2  3  1  0
  2  7  1  0
  3  4  1  0
  4  5  1  0
  5  6  1  0
  6  7  2  0
  7  8  1  0
  8  9  1  0
M  END
