
     RDKit          3D

 17 18  0  0  0  0  0  0  0  0999 V2000
    4.9580    0.6570    0.9010 N   0  0  0  0  0  0  0  0  0  0  0  0
    3.6210    0.4090    0.4800 C   0  0  0  0  0  0  0  0  0  0  0  0
    2.8200    1.4530    0.0900 C   0  0  0  0  0  0  0  0  0  0  0  0
    1.5250    1.2010   -0.3150 C   0  0  0  0  0  0  0  0  0  0  0  0
    1.0180   -0.0620   -0.3400 N   0  0  0  0  0  0  0  0  0  0  0  0
   -0.3290   -0.2220   -0.7740 C   0  0  2  0  0  0  0  0  0  0  0  0
   -1.0830    0.8160   -0.1890 O   0  0  0  0  0  0  0  0  0  0  0  0
   -2.4070    0.5030   -0.3770 C   0  0  2  0  0  0  0  0  0  0  0  0
   -3.2580    1.1110    0.7340 C   0  0  0  0  0  0  0  0  0  0  0  0
   -3.0670    2.4920    0.6690 O   0  0  0  0  0  0  0  0  0  0  0  0
   -2.4920   -1.0080   -0.3150 C   0  0  1  0  0  0  0  0  0  0  0  0
   -3.0910   -1.4290   -1.5090 O   0  0  0  0  0  0  0  0  0  0  0  0
   -1.0200   -1.4410   -0.2750 C   0  0  1  0  0  0  0  0  0  0  0  0
   -0.9280   -2.5230   -1.1580 O   0  0  0  0  0  0  0  0  0  0  0  0
    1.8370   -1.0390    0.0480 C   0  0  0  0  0  0  0  0  0  0  0  0
    1.4150   -2.2070    0.0410 O   0  0  0  0  0  0  0  0  0  0  0  0
    3.1060   -0.8340    0.4510 N   0  0  0  0  0  0  0  0  0  0  0  0
  1  2  1  0
  2  3  1  0
  2 17  2  0
  3  4  2  0
  4  5  1  0
  6  5  1  1
  5 15  1  0
  6  7  1  0
  6 13  1  0
  7  8  1  0
  8  9  1  1
  8 11  1  0
  9 10  1  0
 11 12  1  6
 11 13  1  0
 13 14  1  6
 15 16  2  0
 15 17  1  0
M  CHG  1  17   1
M  END
