
     RDKit          3D

 20 21  0  0  0  0  0  0  0  0999 V2000
   -5.5120   -1.1840    0.4010 C   0  0  0  0  0  0  0  0  0  0  0  0
   -4.1150   -0.8190    0.0430 C   0  0  0  0  0  0  0  0  0  0  0  0
   -3.3960    0.1270    0.7420 C   0  0  0  0  0  0  0  0  0  0  0  0
   -2.0840    0.4540    0.3870 C   0  0  0  0  0  0  0  0  0  0  0  0
   -1.3440    1.4770    1.1640 C   0  0  0  0  0  0  0  0  0  0  0  0
   -1.4590   -0.1540   -0.6700 C   0  0  0  0  0  0  0  0  0  0  0  0
   -0.0780    0.1560   -1.0820 C   0  0  0  0  0  0  0  0  0  0  0  0
    0.4030   -0.4440   -2.0520 O   0  0  0  0  0  0  0  0  0  0  0  0
    0.6450    1.0630   -0.4320 O   0  0  0  0  0  0  0  0  0  0  0  0
    1.8420    1.6420   -0.4080 C   0  0  0  0  0  0  0  0  0  0  0  0
    3.0390    0.8360   -0.0270 C   0  0  0  0  0  0  0  0  0  0  0  0
    3.7760    1.1770    1.0590 C   0  0  0  0  0  0  0  0  0  0  0  0
    4.8670    0.2100    1.1640 C   0  0  1  0  0  0  0  0  0  0  0  0
    4.8660   -0.4650    2.3930 O   0  0  0  0  0  0  0  0  0  0  0  0
    4.6940   -0.6930    0.0320 C   0  0  0  0  0  0  0  0  0  0  0  0
    3.6240   -0.3190   -0.6530 C   0  0  0  0  0  0  0  0  0  0  0  0
    3.1700   -0.9880   -1.8230 O   0  0  0  0  0  0  0  0  0  0  0  0
   -2.1870   -1.1090   -1.3750 C   0  0  0  0  0  0  0  0  0  0  0  0
   -3.4820   -1.4310   -1.0240 C   0  0  0  0  0  0  0  0  0  0  0  0
   -4.2180   -2.3920   -1.7310 O   0  0  0  0  0  0  0  0  0  0  0  0
  1  2  1  0
  2  3  2  0
  2 19  1  0
  3  4  1  0
  4  5  1  0
  4  6  2  0
  6  7  1  0
  6 18  1  0
  7  8  2  0
  7  9  1  0
  9 10  1  0
 10 11  1  0
 11 12  2  0
 11 16  1  0
 12 13  1  0
 13 14  1  1
 13 15  1  0
 15 16  2  0
 16 17  1  0
 18 19  2  0
 19 20  1  0
M  END
