
     RDKit          3D

 20 22  0  0  0  0  0  0  0  0999 V2000
   -3.3900   -1.7380   -2.0480 O   0  0  0  0  0  0  0  0  0  0  0  0
   -4.1030   -0.7160   -1.4130 C   0  0  0  0  0  0  0  0  0  0  0  0
   -3.5840    0.1090   -0.5400 C   0  0  0  0  0  0  0  0  0  0  0  0
   -4.4030    1.0930    0.0250 O   0  0  0  0  0  0  0  0  0  0  0  0
   -3.9180    1.9930    0.9470 C   0  0  0  0  0  0  0  0  0  0  0  0
   -2.6550    1.9550    1.3290 C   0  0  0  0  0  0  0  0  0  0  0  0
   -1.7790    0.9350    0.7530 C   0  0  0  0  0  0  0  0  0  0  0  0
   -2.2110    0.0420   -0.1440 C   0  0  0  0  0  0  0  0  0  0  0  0
   -1.2690   -0.9610   -0.6430 C   0  0  2  0  0  0  0  0  0  0  0  0
   -1.6930   -2.2590   -0.2580 O   0  0  0  0  0  0  0  0  0  0  0  0
    0.1170   -0.7440   -0.1140 C   0  0  0  0  0  0  0  0  0  0  0  0
    0.4840   -1.1690    1.1600 C   0  0  0  0  0  0  0  0  0  0  0  0
    1.7720   -0.9390    1.5860 C   0  0  0  0  0  0  0  0  0  0  0  0
    2.7290   -0.3060    0.8170 C   0  0  0  0  0  0  0  0  0  0  0  0
    2.3510    0.1070   -0.4370 C   0  0  0  0  0  0  0  0  0  0  0  0
    1.0670   -0.1130   -0.8840 C   0  0  0  0  0  0  0  0  0  0  0  0
    3.2900    0.7520   -1.2480 O   0  0  0  0  0  0  0  0  0  0  0  0
    4.3800    1.3610   -0.5570 C   0  0  0  0  0  0  0  0  0  0  0  0
    4.9990    0.2510    0.2950 C   0  0  0  0  0  0  0  0  0  0  0  0
    4.0250   -0.0870    1.2740 O   0  0  0  0  0  0  0  0  0  0  0  0
  1  2  1  0
  2  3  2  3
  3  4  1  0
  3  8  1  0
  4  5  1  0
  5  6  2  0
  6  7  1  0
  7  8  2  0
  8  9  1  0
  9 10  1  1
  9 11  1  0
 11 12  2  0
 11 16  1  0
 12 13  1  0
 13 14  2  0
 14 15  1  0
 14 20  1  0
 15 16  2  0
 15 17  1  0
 17 18  1  0
 18 19  1  0
 19 20  1  0
M  END
