
     RDKit          3D

 20 22  0  0  0  0  0  0  0  0999 V2000
    6.1400    0.2670    0.9680 C   0  0  0  0  0  0  0  0  0  0  0  0
    4.8800    0.2170    0.6150 O   0  0  0  0  0  0  0  0  0  0  0  0
    3.6850   -0.0540    0.2220 C   0  0  0  0  0  0  0  0  0  0  0  0
    3.3970   -1.3500   -0.2840 C   0  0  0  0  0  0  0  0  0  0  0  0
    2.1000   -1.6460   -0.7130 C   0  0  0  0  0  0  0  0  0  0  0  0
    1.2070   -0.6410   -0.5940 C   0  0  0  0  0  0  0  0  0  0  0  0
   -0.0540   -0.9000   -0.9990 C   0  0  0  0  0  0  0  0  0  0  0  0
   -0.7150    0.3080   -0.7390 C   0  0  0  0  0  0  0  0  0  0  0  0
   -2.1280    0.6150   -0.9960 C   0  0  2  0  0  0  0  0  0  0  0  0
   -2.2470    2.0320   -1.2860 O   0  0  0  0  0  0  0  0  0  0  0  0
   -3.0460    0.4060    0.1660 C   0  0  2  0  0  0  0  0  0  0  0  0
   -2.9920   -1.1360    0.4480 C   0  0  0  0  0  0  0  0  0  0  0  0
   -4.4490    0.7130   -0.2390 C   0  0  0  0  0  0  0  0  0  0  0  0
   -2.7100    1.0910    1.4590 C   0  0  0  0  0  0  0  0  0  0  0  0
    0.1760    1.1690   -0.2200 O   0  0  0  0  0  0  0  0  0  0  0  0
    1.3610    0.6130   -0.1260 C   0  0  0  0  0  0  0  0  0  0  0  0
    2.6570    0.9170    0.2960 C   0  0  0  0  0  0  0  0  0  0  0  0
    2.8900    2.1680    0.7710 O   0  0  0  0  0  0  0  0  0  0  0  0
   -0.0010   -2.2950   -1.4800 C   0  0  0  0  0  0  0  0  0  0  0  0
    1.3730   -2.6950   -1.2540 O   0  0  0  0  0  0  0  0  0  0  0  0
  1  2  1  0
  2  3  1  0
  3  4  2  0
  3 17  1  0
  4  5  1  0
  5  6  2  0
  5 20  1  0
  6  7  1  0
  6 16  1  0
  7  8  2  0
  7 19  1  0
  8  9  1  0
  8 15  1  0
  9 10  1  1
  9 11  1  0
 11 12  1  1
 11 13  1  0
 11 14  1  0
 15 16  1  0
 16 17  2  0
 17 18  1  0
 19 20  1  0
M  END
