
     RDKit          3D

  9  9  0  0  0  0  0  0  0  0999 V2000
   -0.0410    2.5600   -0.0660 C   0  0  0  0  0  0  0  0  0  0  0  0
    0.3880    1.3150   -0.1140 C   0  0  0  0  0  0  0  0  0  0  0  0
    2.1390    1.0150   -0.2800 S   0  0  0  0  0  0  0  0  0  0  0  0
    2.6340   -0.4940    0.5900 C   0  0  0  0  0  0  0  0  0  0  0  0
    1.7280   -1.6260    0.1340 C   0  0  0  0  0  0  0  0  0  0  0  0
    0.0140   -1.3570    0.6010 S   0  0  0  0  0  0  0  0  0  0  0  0
   -0.5580    0.2130   -0.0330 C   0  0  0  0  0  0  0  0  0  0  0  0
   -1.8280    0.3440   -0.4170 C   0  0  0  0  0  0  0  0  0  0  0  0
   -2.7900   -0.7800   -0.3330 C   0  0  0  0  0  0  0  0  0  0  0  0
  1  2  2  0
  2  3  1  0
  2  7  1  0
  3  4  1  0
  4  5  1  0
  5  6  1  0
  6  7  1  0
  7  8  2  3
  8  9  1  0
M  END
