
     RDKit          3D

  9  9  0  0  0  0  0  0  0  0999 V2000
    2.2780    0.9840    0.0730 C   0  0  0  0  0  0  0  0  0  0  0  0
    1.1140    0.0160    0.0060 C   0  0  0  0  0  0  0  0  0  0  0  0
    1.3430   -1.2580   -0.1320 C   0  0  0  0  0  0  0  0  0  0  0  0
    0.4300   -2.3930   -0.2230 C   0  0  0  0  0  0  0  0  0  0  0  0
   -1.2740   -1.8790   -0.1210 S   0  0  0  0  0  0  0  0  0  0  0  0
   -1.3110   -0.1270    0.0610 C   0  0  0  0  0  0  0  0  0  0  0  0
   -2.6680    0.5200    0.1670 C   0  0  0  0  0  0  0  0  0  0  0  0
   -0.2150    0.5790    0.1030 C   0  0  0  0  0  0  0  0  0  0  0  0
   -0.4120    2.3510    0.2920 S   0  0  0  0  0  0  0  0  0  0  0  0
  1  2  1  0
  2  3  2  0
  2  8  1  0
  3  4  1  0
  4  5  1  0
  5  6  1  0
  6  7  1  0
  6  8  2  0
  8  9  1  0
M  END
