
     RDKit          3D

 17 18  0  0  0  0  0  0  0  0999 V2000
    5.0940    0.5780    0.5350 O   0  0  0  0  0  0  0  0  0  0  0  0
    3.9120    0.2490    0.2950 C   0  0  0  0  0  0  0  0  0  0  0  0
    3.0840    1.2140   -0.2370 C   0  0  0  0  0  0  0  0  0  0  0  0
    1.7850    0.8730   -0.5060 C   0  0  0  0  0  0  0  0  0  0  0  0
    1.3060   -0.3570   -0.2700 N   0  0  0  0  0  0  0  0  0  0  0  0
   -0.0560   -0.6520   -0.5710 C   0  0  2  0  0  0  0  0  0  0  0  0
   -0.6730    0.4140   -1.1660 O   0  0  0  0  0  0  0  0  0  0  0  0
   -1.9760    0.4840   -0.7710 C   0  0  2  0  0  0  0  0  0  0  0  0
   -2.1960    1.6790    0.1660 C   0  0  0  0  0  0  0  0  0  0  0  0
   -1.8810    2.8670   -0.4450 O   0  0  0  0  0  0  0  0  0  0  0  0
   -2.2800   -0.7440    0.0690 C   0  0  1  0  0  0  0  0  0  0  0  0
   -2.6300   -1.7750   -0.7760 O   0  0  0  0  0  0  0  0  0  0  0  0
   -0.8790   -1.0030    0.6490 C   0  0  1  0  0  0  0  0  0  0  0  0
   -0.8300   -2.3520    0.9540 O   0  0  0  0  0  0  0  0  0  0  0  0
    2.1500   -1.2660    0.2500 C   0  0  0  0  0  0  0  0  0  0  0  0
    1.7670   -2.4530    0.5010 O   0  0  0  0  0  0  0  0  0  0  0  0
    3.4360   -0.9900    0.5360 N   0  0  0  0  0  0  0  0  0  0  0  0
  1  2  2  0
  2  3  1  0
  2 17  1  0
  3  4  2  0
  4  5  1  0
  6  5  1  1
  5 15  1  0
  6  7  1  0
  6 13  1  0
  7  8  1  0
  8  9  1  1
  8 11  1  0
  9 10  1  0
 11 12  1  6
 11 13  1  0
 13 14  1  6
 15 16  2  0
 15 17  1  0
M  END
