
     RDKit          3D

 17 17  0  0  0  0  0  0  0  0999 V2000
    6.3140   -0.0140   -0.1440 N   0  0  0  0  0  0  0  0  0  0  0  0
    5.2230    0.8310    0.0100 O   0  0  0  0  0  0  0  0  0  0  0  0
    3.9740    0.3740    0.3730 C   0  0  0  0  0  0  0  0  0  0  0  0
    3.8430   -0.8520    0.5650 O   0  0  0  0  0  0  0  0  0  0  0  0
    2.8570    1.2850    0.5250 C   0  0  0  0  0  0  0  0  0  0  0  0
    1.6400    0.6830    0.8990 O   0  0  0  0  0  0  0  0  0  0  0  0
    0.9800   -0.2750    0.1840 C   0  0  0  0  0  0  0  0  0  0  0  0
    1.5430   -0.6190   -0.8960 O   0  0  0  0  0  0  0  0  0  0  0  0
   -0.2960   -0.9060    0.5740 C   0  0  2  0  0  0  0  0  0  0  0  0
   -0.6960   -1.8760   -0.4260 N   0  0  0  0  0  0  0  0  0  0  0  0
   -1.4330    0.1200    0.6610 C   0  0  1  0  0  0  0  0  0  0  0  0
   -1.6780    0.8080   -0.6140 C   0  0  0  0  0  0  0  0  0  0  0  0
   -2.9920    0.6080   -1.2580 C   0  0  0  0  0  0  0  0  0  0  0  0
   -3.9980    0.1500   -0.4500 O   0  0  0  0  0  0  0  0  0  0  0  0
   -3.6750   -0.9540    0.2950 C   0  0  1  0  0  0  0  0  0  0  0  0
   -3.3850   -2.0770   -0.4580 O   0  0  0  0  0  0  0  0  0  0  0  0
   -2.6030   -0.5840    1.2700 C   0  0  0  0  0  0  0  0  0  0  0  0
  1  2  1  0
  2  3  1  0
  3  4  2  0
  3  5  1  0
  5  6  1  0
  6  7  1  0
  7  8  2  0
  7  9  1  0
  9 10  1  6
  9 11  1  0
 11 12  1  6
 11 17  1  0
 12 13  1  0
 13 14  1  0
 14 15  1  0
 15 16  1  6
 15 17  1  0
M  END
