
     RDKit          3D

 28 27  0  0  0  0  0  0  0  0999 V2000
   -5.6290   -1.7890    2.4680 C   0  0  0  0  0  0  0  0  0  0  0  0
   -4.8350   -1.8860    1.4960 C   0  0  0  0  0  0  0  0  0  0  0  0
   -3.9660   -1.1540    0.6220 C   0  0  0  0  0  0  0  0  0  0  0  0
   -3.3510   -1.9760   -0.2820 C   0  0  0  0  0  0  0  0  0  0  0  0
   -3.5670   -3.4120   -0.3190 C   0  0  0  0  0  0  0  0  0  0  0  0
   -3.5720    0.2490    0.5810 C   0  0  0  0  0  0  0  0  0  0  0  0
   -4.1960    1.1520    1.3780 C   0  0  0  0  0  0  0  0  0  0  0  0
   -3.8190    2.6050    1.3720 C   0  0  0  0  0  0  0  0  0  0  0  0
   -5.1850    0.7990    2.2090 O   0  0  0  0  0  0  0  0  0  0  0  0
   -2.5170    0.8390   -0.2590 C   0  0  2  0  0  0  0  0  0  0  0  0
   -2.6180    0.8480   -1.7090 C   0  0  0  0  0  0  0  0  0  0  0  0
   -3.6840    1.4650   -2.4900 C   0  0  0  0  0  0  0  0  0  0  0  0
   -5.0900    1.0620   -2.5110 C   0  0  0  0  0  0  0  0  0  0  0  0
   -5.9730    1.1750   -1.3410 C   0  0  0  0  0  0  0  0  0  0  0  0
   -1.1050    0.5170    0.2060 C   0  0  0  0  0  0  0  0  0  0  0  0
   -0.5660   -0.8080    0.3240 C   0  0  0  0  0  0  0  0  0  0  0  0
    0.8420   -0.6550    0.8170 N   0  0  0  0  0  0  0  0  0  0  0  0
    1.6610   -1.6800    0.2030 C   0  0  0  0  0  0  0  0  0  0  0  0
    2.3070   -1.1050   -1.0250 C   0  0  0  0  0  0  0  0  0  0  0  0
    3.1020   -0.0190   -0.7000 O   0  0  0  0  0  0  0  0  0  0  0  0
    4.2040   -0.1410    0.1130 C   0  0  0  0  0  0  0  0  0  0  0  0
    4.5060   -1.2650    0.5720 O   0  0  0  0  0  0  0  0  0  0  0  0
    4.9900    1.0160    0.4240 N   0  0  0  0  0  0  0  0  0  0  0  0
    4.6180    2.3050   -0.1030 C   0  0  0  0  0  0  0  0  0  0  0  0
    6.1560    0.9140    1.2510 C   0  0  0  0  0  0  0  0  0  0  0  0
    7.3860    0.6620    0.4090 C   0  0  0  0  0  0  0  0  0  0  0  0
    7.3090   -0.5950   -0.3950 C   0  0  0  0  0  0  0  0  0  0  0  0
    8.6240   -0.6960   -1.1790 C   0  0  0  0  0  0  0  0  0  0  0  0
  1  2  2  0
  2  3  1  0
  3  4  2  3
  3  6  1  0
  4  5  1  0
  6  7  2  3
  6 10  1  0
  7  8  1  0
  7  9  1  0
 10 11  1  6
 10 15  1  0
 11 12  1  0
 12 13  1  0
 13 14  1  0
 15 16  1  0
 16 17  1  0
 17 18  1  0
 18 19  1  0
 19 20  1  0
 20 21  1  0
 21 22  2  0
 21 23  1  0
 23 24  1  0
 23 25  1  0
 25 26  1  0
 26 27  1  0
 27 28  1  0
M  CHG  2   9  -1  17   1
M  END
