
     RDKit          3D

 17 17  0  0  0  0  0  0  0  0999 V2000
    3.6510   -0.9040    1.0660 N   0  0  0  0  0  0  0  0  0  0  0  0
    3.2630   -0.5510   -0.2420 C   0  0  0  0  0  0  0  0  0  0  0  0
    4.0270   -0.6980   -1.2290 O   0  0  0  0  0  0  0  0  0  0  0  0
    1.9060    0.0260   -0.5400 C   0  0  1  0  0  0  0  0  0  0  0  0
    1.2190   -0.9940   -1.4390 C   0  0  0  0  0  0  0  0  0  0  0  0
    0.4040   -1.7910   -0.6500 O   0  0  0  0  0  0  0  0  0  0  0  0
   -0.9370   -1.5090   -0.8970 C   0  0  0  0  0  0  0  0  0  0  0  0
   -1.7160   -1.4420    0.3750 C   0  0  2  0  0  0  0  0  0  0  0  0
   -2.2760   -2.7220    0.5970 O   0  0  0  0  0  0  0  0  0  0  0  0
   -2.8610   -0.4690    0.3060 C   0  0  0  0  0  0  0  0  0  0  0  0
   -2.6680    0.6590   -0.4430 O   0  0  0  0  0  0  0  0  0  0  0  0
   -2.4920    1.9720   -0.1660 C   0  0  0  0  0  0  0  0  0  0  0  0
   -3.3750    2.8990   -0.3280 O   0  0  0  0  0  0  0  0  0  0  0  0
   -1.2540    2.4400    0.3490 N   0  0  0  0  0  0  0  0  0  0  0  0
    0.0620    2.0540   -0.0950 C   0  0  0  0  0  0  0  0  0  0  0  0
    0.9070    1.4330    0.9980 C   0  0  0  0  0  0  0  0  0  0  0  0
    1.2060    0.1190    0.6370 O   0  0  0  0  0  0  0  0  0  0  0  0
  1  2  1  0
  2  3  2  0
  4  2  1  1
  4  5  1  0
  4 17  1  0
  5  6  1  0
  6  7  1  0
  7  8  1  0
  8  9  1  6
  8 10  1  0
 10 11  1  0
 11 12  1  0
 12 13  2  0
 12 14  1  0
 14 15  1  0
 15 16  1  0
 16 17  1  0
M  END
