
     RDKit          3D

 17 17  0  0  0  0  0  0  0  0999 V2000
    3.5060    2.7950    0.7170 C   0  0  0  0  0  0  0  0  0  0  0  0
    3.1390    1.6270    0.0420 O   0  0  0  0  0  0  0  0  0  0  0  0
    1.8990    1.0460    0.3150 C   0  0  0  0  0  0  0  0  0  0  0  0
    1.1650    1.5970    1.1580 O   0  0  0  0  0  0  0  0  0  0  0  0
    1.4690   -0.1940   -0.3780 C   0  0  1  0  0  0  0  0  0  0  0  0
    2.3510   -1.3770    0.0450 C   0  0  0  0  0  0  0  0  0  0  0  0
    1.4050   -2.3700    0.6930 C   0  0  2  0  0  0  0  0  0  0  0  0
    1.7450   -3.6750    0.4620 O   0  0  0  0  0  0  0  0  0  0  0  0
    0.0920   -1.9790   -0.0020 C   0  0  0  0  0  0  0  0  0  0  0  0
    0.1800   -0.5610    0.0870 N   0  0  0  0  0  0  0  0  0  0  0  0
   -0.9140    0.1740   -0.3950 C   0  0  1  0  0  0  0  0  0  0  0  0
   -1.2120   -0.0160   -1.7380 O   0  0  0  0  0  0  0  0  0  0  0  0
   -2.0620   -0.0180    0.4560 N   0  0  0  0  0  0  0  0  0  0  0  0
   -3.3180    0.5960    0.2250 C   0  0  0  0  0  0  0  0  0  0  0  0
   -3.8780    1.3910    1.2090 O   0  0  0  0  0  0  0  0  0  0  0  0
   -3.9770    0.4360   -0.9020 C   0  0  0  0  0  0  0  0  0  0  0  0
   -5.2040    1.0410   -1.1190 O   0  0  0  0  0  0  0  0  0  0  0  0
  1  2  1  0
  2  3  1  0
  3  4  2  0
  5  3  1  1
  5  6  1  0
  5 10  1  0
  6  7  1  0
  7  8  1  6
  7  9  1  0
  9 10  1  0
 10 11  1  0
 11 12  1  6
 11 13  1  0
 13 14  1  0
 14 15  1  0
 14 16  2  3
 16 17  1  0
M  END
