
     RDKit          3D

 21 22  0  0  0  0  0  0  0  0999 V2000
   -3.1840    0.8030   -1.0000 O   0  0  0  0  0  0  0  0  0  0  0  0
   -2.5490    0.5300    0.0490 C   0  0  0  0  0  0  0  0  0  0  0  0
   -3.3170    0.1550    1.2510 C   0  0  0  0  0  0  0  0  0  0  0  0
   -4.8130    0.1780    0.9510 C   0  0  0  0  0  0  0  0  0  0  0  0
   -5.3670   -0.9830    0.4390 C   0  0  0  0  0  0  0  0  0  0  0  0
   -7.0740   -0.5180    0.2530 S   0  0  0  0  0  0  0  0  0  0  0  0
   -6.8800    1.1500    0.8670 C   0  0  0  0  0  0  0  0  0  0  0  0
   -7.7790    2.0010    0.9780 O   0  0  0  0  0  0  0  0  0  0  0  0
   -5.5820    1.1950    1.1460 N   0  0  0  0  0  0  0  0  0  0  0  0
   -1.1640    0.5840    0.0630 O   0  0  0  0  0  0  0  0  0  0  0  0
   -0.5030    0.9570   -1.1460 C   0  0  0  0  0  0  0  0  0  0  0  0
    1.0000    0.9600   -0.9370 C   0  0  0  0  0  0  0  0  0  0  0  0
    1.4560   -0.3190   -0.5530 O   0  0  0  0  0  0  0  0  0  0  0  0
    2.8140   -0.4860   -0.3220 C   0  0  0  0  0  0  0  0  0  0  0  0
    3.7150    0.5620   -0.4590 C   0  0  0  0  0  0  0  0  0  0  0  0
    5.0610    0.3760   -0.2250 C   0  0  0  0  0  0  0  0  0  0  0  0
    5.5680   -0.8530    0.1530 C   0  0  0  0  0  0  0  0  0  0  0  0
    6.9260   -1.0320    0.3880 O   0  0  0  0  0  0  0  0  0  0  0  0
    4.6810   -1.9020    0.2920 C   0  0  0  0  0  0  0  0  0  0  0  0
    5.1720   -3.1630    0.6760 O   0  0  0  0  0  0  0  0  0  0  0  0
    3.3370   -1.7110    0.0570 C   0  0  0  0  0  0  0  0  0  0  0  0
  1  2  2  0
  2  3  1  0
  2 10  1  0
  3  4  1  0
  4  5  2  0
  4  9  1  0
  5  6  1  0
  6  7  1  0
  7  8  2  0
  7  9  1  0
 10 11  1  0
 11 12  1  0
 12 13  1  0
 13 14  1  0
 14 15  2  0
 14 21  1  0
 15 16  1  0
 16 17  2  0
 17 18  1  0
 17 19  1  0
 19 20  1  0
 19 21  2  0
M  END
