
     RDKit          3D

 22 23  0  0  0  0  0  0  0  0999 V2000
   -3.3260   -2.8010    0.4420 C   0  0  0  0  0  0  0  0  0  0  0  0
   -3.1370   -1.6740    1.0540 C   0  0  0  0  0  0  0  0  0  0  0  0
   -3.4860   -1.5150    2.4000 O   0  0  0  0  0  0  0  0  0  0  0  0
   -2.5380   -0.5120    0.3270 C   0  0  0  0  0  0  0  0  0  0  0  0
   -2.3530    0.6020    1.0130 C   0  0  0  0  0  0  0  0  0  0  0  0
   -1.7810    1.8580    0.5200 C   0  0  0  0  0  0  0  0  0  0  0  0
   -3.0630    3.1600    0.6670 S   0  0  0  0  0  0  0  0  0  0  0  0
   -2.1820   -0.6070   -1.3630 S   0  0  1  0  0  0  0  0  0  0  0  0
   -3.2410   -1.4460   -2.1080 O   0  0  0  0  0  0  0  0  0  0  0  0
   -2.3450    0.7740   -1.9980 O   0  0  0  0  0  0  0  0  0  0  0  0
   -0.6210   -1.2200   -1.7100 N   0  0  0  0  0  0  0  0  0  0  0  0
    0.6140   -0.6700   -1.3380 C   0  0  0  0  0  0  0  0  0  0  0  0
    1.5530   -0.5050   -2.3760 C   0  0  0  0  0  0  0  0  0  0  0  0
    2.7700    0.0470   -2.0480 C   0  0  0  0  0  0  0  0  0  0  0  0
    3.0730    0.4290   -0.7540 C   0  0  0  0  0  0  0  0  0  0  0  0
    2.1620    0.2730    0.2760 C   0  0  0  0  0  0  0  0  0  0  0  0
    0.9400   -0.2830   -0.0600 C   0  0  0  0  0  0  0  0  0  0  0  0
    2.4760    0.6600    1.5720 O   0  0  0  0  0  0  0  0  0  0  0  0
    3.7190    1.2170    1.8700 C   0  0  0  0  0  0  0  0  0  0  0  0
    3.9160    1.9600    2.8670 O   0  0  0  0  0  0  0  0  0  0  0  0
    4.8280    0.8700    0.9130 C   0  0  0  0  0  0  0  0  0  0  0  0
    4.3160    0.9930   -0.4220 O   0  0  0  0  0  0  0  0  0  0  0  0
  1  2  2  0
  2  3  1  0
  2  4  1  0
  4  5  2  3
  4  8  1  0
  5  6  1  0
  6  7  1  0
  8  9  2  0
  8 10  2  0
  8 11  1  1
 11 12  1  0
 12 13  2  0
 12 17  1  0
 13 14  1  0
 14 15  2  0
 15 16  1  0
 15 22  1  0
 16 17  2  0
 16 18  1  0
 18 19  1  0
 19 20  2  0
 19 21  1  0
 21 22  1  0
M  END
