
     RDKit          3D

 22 23  0  0  0  0  0  0  0  0999 V2000
   -3.9230   -0.7170    0.2520 O   0  0  0  0  0  0  0  0  0  0  0  0
   -2.8900   -1.4290    0.2550 C   0  0  0  0  0  0  0  0  0  0  0  0
   -2.9850   -2.8990    0.3680 C   0  0  0  0  0  0  0  0  0  0  0  0
   -4.3270   -3.2720    0.4610 O   0  0  0  0  0  0  0  0  0  0  0  0
   -1.5910   -0.8320    0.1480 N   0  0  0  0  0  0  0  0  0  0  0  0
   -1.5090    0.5630    0.0410 C   0  0  0  0  0  0  0  0  0  0  0  0
   -2.9340    1.6680    0.0280 S   0  0  0  0  0  0  0  0  0  0  0  0
   -1.9780    3.1830   -0.1300 C   0  0  0  0  0  0  0  0  0  0  0  0
   -2.5650    4.5190   -0.2010 C   0  0  0  0  0  0  0  0  0  0  0  0
   -1.8000    5.4990   -0.3100 O   0  0  0  0  0  0  0  0  0  0  0  0
   -3.9290    4.7230   -0.1500 O   0  0  0  0  0  0  0  0  0  0  0  0
   -0.6970    2.7400   -0.1600 C   0  0  0  0  0  0  0  0  0  0  0  0
   -0.4320    1.4400   -0.0760 C   0  0  0  0  0  0  0  0  0  0  0  0
    0.9500    0.8950   -0.1030 C   0  0  0  0  0  0  0  0  0  0  0  0
    1.9640    1.6620   -0.2090 O   0  0  0  0  0  0  0  0  0  0  0  0
    1.2220   -0.4330   -0.0180 O   0  0  0  0  0  0  0  0  0  0  0  0
    2.5480   -0.9290   -0.0460 C   0  0  0  0  0  0  0  0  0  0  0  0
    3.0770   -1.2320   -1.1940 C   0  0  0  0  0  0  0  0  0  0  0  0
    4.4070   -1.7560   -1.4980 C   0  0  0  0  0  0  0  0  0  0  0  0
    5.3760   -1.9800   -0.0220 S   0  0  0  0  0  0  0  0  0  0  0  0
    4.4220   -1.4950    1.3960 C   0  0  0  0  0  0  0  0  0  0  0  0
    3.1950   -1.0520    1.2430 C   0  0  0  0  0  0  0  0  0  0  0  0
  1  2  2  0
  2  3  1  0
  2  5  1  0
  3  4  1  0
  5  6  1  0
  6  7  1  0
  6 13  2  0
  7  8  1  0
  8  9  1  0
  8 12  2  0
  9 10  2  0
  9 11  1  0
 12 13  1  0
 13 14  1  0
 14 15  2  0
 14 16  1  0
 16 17  1  0
 17 18  2  0
 17 22  1  0
 18 19  1  0
 19 20  1  0
 20 21  1  0
 21 22  2  0
M  END
