
     RDKit          3D

 32 33  0  0  0  0  0  0  0  0999 V2000
   -6.9280    2.7270   -3.6340 O   0  0  0  0  0  0  0  0  0  0  0  0
   -7.0580    3.2920   -2.1960 P   0  0  0  0  0  0  0  0  0  0  0  0
   -6.1230    2.5370   -0.7920 C   0  0  0  0  0  0  0  0  0  0  0  0
   -6.7570    2.3790    0.2530 O   0  0  0  0  0  0  0  0  0  0  0  0
   -4.7470    2.1730   -0.9550 C   0  0  0  0  0  0  0  0  0  0  0  0
   -4.1990    2.3370   -2.1160 O   0  0  0  0  0  0  0  0  0  0  0  0
   -3.9390    1.6410    0.0610 N   0  0  0  0  0  0  0  0  0  0  0  0
   -2.5610    1.2550   -0.2950 C   0  0  0  0  0  0  0  0  0  0  0  0
   -2.2930   -0.5130    0.1700 P   0  0  0  0  0  0  0  0  0  0  0  0
   -0.6350   -1.0030   -0.2930 N   0  0  0  0  0  0  0  0  0  0  0  0
    0.4770   -0.1280   -0.1570 C   0  0  0  0  0  0  0  0  0  0  0  0
    0.2620    1.0230    0.3050 O   0  0  0  0  0  0  0  0  0  0  0  0
    1.7630   -0.5410   -0.5270 O   0  0  0  0  0  0  0  0  0  0  0  0
    2.8240    0.3790   -0.3680 C   0  0  0  0  0  0  0  0  0  0  0  0
    4.1170   -0.2340   -0.8070 C   0  0  2  0  0  0  0  0  0  0  0  0
    4.1690   -0.6360   -2.1060 O   0  0  0  0  0  0  0  0  0  0  0  0
    4.4850   -1.3090    0.2030 C   0  0  0  0  0  0  0  0  0  0  0  0
    5.8470   -1.3660    0.2960 O   0  0  0  0  0  0  0  0  0  0  0  0
    6.3380   -0.1840    0.8110 C   0  0  2  0  0  0  0  0  0  0  0  0
    7.7000   -0.1330    0.6780 O   0  0  0  0  0  0  0  0  0  0  0  0
    5.8710    0.1010    2.0800 O   0  0  0  0  0  0  0  0  0  0  0  0
    6.1720   -0.8030    2.9650 O   0  0  0  0  0  0  0  0  0  0  0  0
    5.4880    1.0000   -0.3970 P   0  0  0  0  0  0  0  0  0  0  0  0
    6.5130    1.0670   -1.7960 O   0  0  0  0  0  0  0  0  0  0  0  0
   -2.4540   -0.6730    1.8850 O   0  0  0  0  0  0  0  0  0  0  0  0
   -3.9980   -0.0330    2.3560 P   0  0  0  0  0  0  0  0  0  0  0  0
   -5.5150   -1.4950    1.9380 S   0  0  0  0  0  0  0  0  0  0  0  0
   -5.1800   -2.2870   -0.0410 P   0  0  0  0  0  0  0  0  0  0  0  0
   -6.5800   -3.1940   -0.5700 O   0  0  0  0  0  0  0  0  0  0  0  0
   -6.3720   -4.4450   -0.2430 O   0  0  0  0  0  0  0  0  0  0  0  0
   -4.3780    1.4860    1.3880 C   0  0  0  0  0  0  0  0  0  0  0  0
   -5.0430    2.3770    1.9630 O   0  0  0  0  0  0  0  0  0  0  0  0
  1  2  2  0
  2  3  1  0
  3  4  2  0
  3  5  1  0
  5  6  2  0
  5  7  1  0
  7  8  1  0
  7 31  1  0
  8  9  1  0
  9 10  1  0
  9 25  1  0
 10 11  1  0
 11 12  2  0
 11 13  1  0
 13 14  1  0
 14 15  1  0
 15 16  1  6
 15 17  1  0
 15 23  1  0
 17 18  1  0
 18 19  1  0
 19 20  1  1
 19 21  1  0
 19 23  1  0
 21 22  1  0
 23 24  1  0
 25 26  1  0
 26 27  1  0
 26 31  1  0
 27 28  1  0
 28 29  1  0
 29 30  1  0
 31 32  2  0
M  END
