
     RDKit          3D

 32 34  0  0  0  0  0  0  0  0999 V2000
    4.5860    2.1290   -0.6260 C   0  0  0  0  0  0  0  0  0  0  0  0
    4.6800    1.1890    0.3840 O   0  0  0  0  0  0  0  0  0  0  0  0
    4.2340   -0.0340   -0.1360 C   0  0  2  0  0  0  0  0  0  0  0  0
    2.9380    0.0720   -0.5560 O   0  0  0  0  0  0  0  0  0  0  0  0
    2.1220    0.4230    0.4880 C   0  0  0  0  0  0  0  0  0  0  0  0
    0.3470    0.5790   -0.0400 P   0  0  0  0  0  0  0  0  0  0  0  0
   -0.2660    2.1270    0.3680 O   0  0  0  0  0  0  0  0  0  0  0  0
   -1.1000    2.0970    1.3840 O   0  0  0  0  0  0  0  0  0  0  0  0
   -2.4190    3.1570    0.9960 P   0  0  0  0  0  0  0  0  0  0  0  0
   -2.8160    2.9060   -0.7810 C   0  0  0  0  0  0  0  0  0  0  0  0
   -2.3840    3.7460   -1.5970 O   0  0  0  0  0  0  0  0  0  0  0  0
   -3.6070    1.7490   -1.1410 C   0  0  0  0  0  0  0  0  0  0  0  0
   -3.3800    1.2490   -2.3010 O   0  0  0  0  0  0  0  0  0  0  0  0
   -4.6230    1.0920   -0.3480 C   0  0  2  0  0  0  0  0  0  0  0  0
   -5.2880    1.8640    0.6400 N   0  0  0  0  0  0  0  0  0  0  0  0
   -4.2630    2.4160    1.9790 P   0  0  0  0  0  0  0  0  0  0  0  0
   -3.8760    1.1240    3.0710 O   0  0  0  0  0  0  0  0  0  0  0  0
   -4.0300   -0.0360    0.2650 O   0  0  0  0  0  0  0  0  0  0  0  0
   -3.1160   -0.5730   -0.4800 O   0  0  0  0  0  0  0  0  0  0  0  0
   -3.5410   -1.7050   -1.1630 C   0  0  0  0  0  0  0  0  0  0  0  0
   -2.2360   -3.0250   -0.9380 P   0  0  0  0  0  0  0  0  0  0  0  0
   -2.7620   -4.1570    0.2740 O   0  0  0  0  0  0  0  0  0  0  0  0
   -2.3420   -5.3650   -0.0690 O   0  0  0  0  0  0  0  0  0  0  0  0
   -0.3140   -2.1300   -0.3380 P   0  0  0  0  0  0  0  0  0  0  0  0
    0.5990   -3.3180    0.5310 O   0  0  0  0  0  0  0  0  0  0  0  0
   -0.5690   -0.7110    0.6520 O   0  0  0  0  0  0  0  0  0  0  0  0
    4.3490   -1.0570    0.8490 O   0  0  0  0  0  0  0  0  0  0  0  0
    5.4920   -0.9840    1.6380 N   0  0  0  0  0  0  0  0  0  0  0  0
    6.6610   -0.9490    1.1130 C   0  0  0  0  0  0  0  0  0  0  0  0
    6.7740   -0.9970   -0.6790 S   0  0  0  0  0  0  0  0  0  0  0  0
    5.1750   -0.3880   -1.2350 C   0  0  0  0  0  0  0  0  0  0  0  0
    4.8870   -0.2770   -2.3940 O   0  0  0  0  0  0  0  0  0  0  0  0
  1  2  1  0
  3  2  1  1
  3  4  1  0
  3 27  1  0
  3 31  1  0
  4  5  1  0
  5  6  1  0
  6  7  1  0
  6 26  1  0
  7  8  1  0
  8  9  1  0
  9 10  1  0
  9 16  1  0
 10 11  2  0
 10 12  1  0
 12 13  2  0
 12 14  1  0
 14 15  1  1
 14 18  1  0
 15 16  1  0
 16 17  1  0
 18 19  1  0
 19 20  1  0
 20 21  1  0
 21 22  1  0
 21 24  1  0
 22 23  1  0
 24 25  1  0
 24 26  1  0
 27 28  1  0
 28 29  2  0
 29 30  1  0
 30 31  1  0
 31 32  2  0
M  END
