
     RDKit          3D

 32 33  0  0  0  0  0  0  0  0999 V2000
    2.8210   -3.7690    2.3480 O   0  0  0  0  0  0  0  0  0  0  0  0
    2.0520   -2.6490    1.5600 P   0  0  0  0  0  0  0  0  0  0  0  0
    0.3790   -3.0560    0.8880 C   0  0  0  0  0  0  0  0  0  0  0  0
   -0.4520   -1.8730    0.7380 N   0  0  0  0  0  0  0  0  0  0  0  0
   -0.5830   -1.2000    2.3740 S   0  0  0  0  0  0  0  0  0  0  0  0
   -0.6010    0.4900    2.3570 O   0  0  0  0  0  0  0  0  0  0  0  0
   -1.3630    1.1030    0.9280 P   0  0  0  0  0  0  0  0  0  0  0  0
   -1.0560    2.7710    0.7020 O   0  0  0  0  0  0  0  0  0  0  0  0
   -1.7730    3.4510    1.5480 O   0  0  0  0  0  0  0  0  0  0  0  0
   -3.3420    3.6970    0.8740 P   0  0  0  0  0  0  0  0  0  0  0  0
   -0.8440    0.0660   -0.5610 C   0  0  2  0  0  0  0  0  0  0  0  0
   -0.2890    1.2690   -1.8770 P   0  0  0  0  0  0  0  0  0  0  0  0
   -0.2990    2.7910   -1.7240 O   0  0  0  0  0  0  0  0  0  0  0  0
   -2.0620   -0.5090   -1.0820 N   0  0  0  0  0  0  0  0  0  0  0  0
   -2.4600   -1.8430   -1.2530 C   0  0  0  0  0  0  0  0  0  0  0  0
   -3.8790   -1.9970   -0.7640 C   0  0  0  0  0  0  0  0  0  0  0  0
   -4.2160   -2.9540   -0.0050 O   0  0  0  0  0  0  0  0  0  0  0  0
   -4.7870   -1.0460   -1.1870 O   0  0  0  0  0  0  0  0  0  0  0  0
   -4.3760    0.1870   -1.5620 O   0  0  0  0  0  0  0  0  0  0  0  0
   -3.0250    0.4820   -1.5190 C   0  0  0  0  0  0  0  0  0  0  0  0
   -2.6270    1.6450   -1.8690 O   0  0  0  0  0  0  0  0  0  0  0  0
    0.2130   -0.8770   -0.1250 C   0  0  1  0  0  0  0  0  0  0  0  0
    1.1060   -0.2810    0.7360 O   0  0  0  0  0  0  0  0  0  0  0  0
    1.9180    0.6980    0.3230 C   0  0  0  0  0  0  0  0  0  0  0  0
    2.8520    1.1630    1.4410 C   0  0  0  0  0  0  0  0  0  0  0  0
    2.8040    0.6620    2.5300 O   0  0  0  0  0  0  0  0  0  0  0  0
    4.0100    2.5080    0.9760 P   0  0  0  0  0  0  0  0  0  0  0  0
    5.5190    2.3620    1.8370 O   0  0  0  0  0  0  0  0  0  0  0  0
    4.3810    2.4170   -0.7170 O   0  0  0  0  0  0  0  0  0  0  0  0
    0.9020   -1.5180   -1.2520 C   0  0  0  0  0  0  0  0  0  0  0  0
    0.2950   -2.0750   -2.2020 O   0  0  0  0  0  0  0  0  0  0  0  0
    2.2870   -1.5580   -1.3500 O   0  0  0  0  0  0  0  0  0  0  0  0
  1  2  2  0
  2  3  1  0
  3  4  1  0
  4  5  1  0
  4 22  1  0
  5  6  1  0
  6  7  1  0
  7  8  1  0
  7 11  1  0
  8  9  1  0
  9 10  1  0
 11 12  1  0
 11 14  1  6
 11 22  1  0
 12 13  2  0
 14 15  1  0
 14 20  1  0
 15 16  1  0
 16 17  2  0
 16 18  1  0
 18 19  1  0
 19 20  1  0
 20 21  2  0
 22 23  1  1
 22 30  1  0
 23 24  1  0
 24 25  1  0
 25 26  2  0
 25 27  1  0
 27 28  1  0
 27 29  1  0
 30 31  2  0
 30 32  1  0
M  END
