
     RDKit          3D

 31 33  0  0  0  0  0  0  0  0999 V2000
    7.0470   -0.2560   -3.9710 O   0  0  0  0  0  0  0  0  0  0  0  0
    7.3510   -0.7610   -2.5320 P   0  0  0  0  0  0  0  0  0  0  0  0
    6.0880   -1.1630   -1.3880 O   0  0  0  0  0  0  0  0  0  0  0  0
    6.1520   -0.6730   -0.0900 C   0  0  0  0  0  0  0  0  0  0  0  0
    5.2230    0.0310    0.5520 C   0  0  0  0  0  0  0  0  0  0  0  0
    4.0160    0.3700   -0.0570 O   0  0  0  0  0  0  0  0  0  0  0  0
    3.2420    1.3420    0.4190 O   0  0  0  0  0  0  0  0  0  0  0  0
    1.9830    0.7020    1.3910 P   0  0  0  0  0  0  0  0  0  0  0  0
    2.5060    0.1500    2.9230 O   0  0  0  0  0  0  0  0  0  0  0  0
    0.6700   -0.6430    0.3450 P   0  0  0  0  0  0  0  0  0  0  0  0
   -0.1300   -1.7880    1.3290 O   0  0  0  0  0  0  0  0  0  0  0  0
   -1.8200   -1.3760    1.3230 P   0  0  0  0  0  0  0  0  0  0  0  0
   -1.9060    0.4710    1.7030 C   0  0  0  0  0  0  0  0  0  0  0  0
   -2.1150    0.9470    0.3360 N   0  0  0  0  0  0  0  0  0  0  0  0
   -2.9320   -0.0170   -0.3450 C   0  0  2  0  0  0  0  0  0  0  0  0
   -3.1900    0.5190   -1.7300 C   0  0  0  0  0  0  0  0  0  0  0  0
   -4.1250   -0.2740   -2.3470 O   0  0  0  0  0  0  0  0  0  0  0  0
   -5.4220   -0.0380   -1.8960 C   0  0  0  0  0  0  0  0  0  0  0  0
   -5.4230   -0.0050   -0.4250 N   0  0  0  0  0  0  0  0  0  0  0  0
   -6.6140    0.2870    0.2750 C   0  0  0  0  0  0  0  0  0  0  0  0
   -7.6590    0.5170   -0.3670 O   0  0  0  0  0  0  0  0  0  0  0  0
   -6.6480    0.3250    1.6510 O   0  0  0  0  0  0  0  0  0  0  0  0
   -4.2360   -0.2670    0.3130 C   0  0  0  0  0  0  0  0  0  0  0  0
   -4.3660   -0.6970    1.4870 O   0  0  0  0  0  0  0  0  0  0  0  0
   -2.2540   -1.2300   -0.3810 O   0  0  0  0  0  0  0  0  0  0  0  0
    1.4380   -1.4210   -1.5130 P   0  0  0  0  0  0  0  0  0  0  0  0
    1.3540   -0.2210   -2.7650 O   0  0  0  0  0  0  0  0  0  0  0  0
    3.0170   -2.0930   -1.4020 O   0  0  0  0  0  0  0  0  0  0  0  0
    5.6670    0.3310    1.8340 O   0  0  0  0  0  0  0  0  0  0  0  0
    7.0670    0.1550    1.8040 C   0  0  0  0  0  0  0  0  0  0  0  0
    7.2150   -0.8320    0.7940 O   0  0  0  0  0  0  0  0  0  0  0  0
  1  2  2  0
  2  3  1  0
  3  4  1  0
  4  5  2  0
  4 31  1  0
  5  6  1  0
  5 29  1  0
  6  7  1  0
  7  8  1  0
  8  9  1  0
  8 10  1  0
 10 11  1  0
 10 26  1  0
 11 12  1  0
 12 13  1  0
 12 25  1  0
 13 14  1  0
 14 15  1  0
 15 16  1  6
 15 23  1  0
 15 25  1  0
 16 17  1  0
 17 18  1  0
 18 19  1  0
 19 20  1  0
 19 23  1  0
 20 21  2  0
 20 22  1  0
 23 24  2  0
 26 27  1  0
 26 28  1  0
 29 30  1  0
 30 31  1  0
M  END
