
     RDKit          3D

 13 14  0  0  0  0  0  0  0  0999 V2000
    2.6960    0.1400   -0.5600 C   0  0  0  0  0  0  0  0  0  0  0  0
    1.2550    0.5810   -0.4310 C   0  0  0  0  0  0  0  0  0  0  0  0
    0.8740    1.7200   -0.9590 C   0  0  0  0  0  0  0  0  0  0  0  0
   -0.8800    2.2060   -0.7740 P   0  0  0  0  0  0  0  0  0  0  0  0
   -0.9060    3.8570   -0.2170 O   0  0  0  0  0  0  0  0  0  0  0  0
   -1.6280    1.1470    0.3480 O   0  0  0  0  0  0  0  0  0  0  0  0
   -0.7420    0.3770    1.0850 C   0  0  1  0  0  0  0  0  0  0  0  0
   -1.5020   -0.8190    1.3860 O   0  0  0  0  0  0  0  0  0  0  0  0
   -1.5540   -1.4670    0.1410 C   0  0  0  0  0  0  0  0  0  0  0  0
   -2.6600   -2.3040   -0.2370 N   0  0  0  0  0  0  0  0  0  0  0  0
   -0.4710   -1.1810   -0.5650 C   0  0  0  0  0  0  0  0  0  0  0  0
    0.3400   -0.2860    0.2790 C   0  0  1  0  0  0  0  0  0  0  0  0
    1.0740   -1.1480    1.1960 N   0  0  0  0  0  0  0  0  0  0  0  0
  1  2  1  0
  2  3  2  0
  2 12  1  0
  3  4  1  0
  4  5  1  0
  4  6  1  0
  7  6  1  6
  7  8  1  0
  7 12  1  0
  8  9  1  0
  9 10  1  0
  9 11  2  0
 11 12  1  0
 12 13  1  1
M  END
