
     RDKit          3D

 13 13  0  0  0  0  0  0  0  0999 V2000
   -1.4590    1.2560   -1.3320 C   0  0  0  0  0  0  0  0  0  0  0  0
   -0.8700    0.2490   -0.7220 C   0  0  0  0  0  0  0  0  0  0  0  0
   -1.5400   -1.0060   -0.6740 N   0  0  0  0  0  0  0  0  0  0  0  0
   -2.5800   -1.1450    0.0480 C   0  0  0  0  0  0  0  0  0  0  0  0
   -3.0970   -0.0220    0.8350 C   0  0  0  0  0  0  0  0  0  0  0  0
    0.4470    0.4550   -0.0780 C   0  0  0  0  0  0  0  0  0  0  0  0
    0.7320    1.6820    0.3300 N   0  0  0  0  0  0  0  0  0  0  0  0
    1.8410    2.0790    0.9000 O   0  0  0  0  0  0  0  0  0  0  0  0
    2.9950    0.9110    1.1270 P   0  0  0  0  0  0  0  0  0  0  0  0
    4.6590    1.2530    1.4840 O   0  0  0  0  0  0  0  0  0  0  0  0
    2.5130   -0.6110    0.5660 N   0  0  0  0  0  0  0  0  0  0  0  0
    1.2810   -0.6520    0.0240 C   0  0  0  0  0  0  0  0  0  0  0  0
    0.7860   -1.9790   -0.5110 C   0  0  0  0  0  0  0  0  0  0  0  0
  1  2  2  0
  2  3  1  0
  2  6  1  0
  3  4  2  3
  4  5  1  0
  6  7  1  0
  6 12  2  0
  7  8  1  0
  8  9  1  0
  9 10  1  0
  9 11  1  0
 11 12  1  0
 12 13  1  0
M  END
