
     RDKit          3D

 11 10  0  0  0  0  0  0  0  0999 V2000
   -3.4320    0.0490   -1.1280 O   0  0  0  0  0  0  0  0  0  0  0  0
   -2.4680   -0.2350   -0.3750 C   0  0  0  0  0  0  0  0  0  0  0  0
   -2.5870   -1.3200    0.4640 O   0  0  0  0  0  0  0  0  0  0  0  0
   -1.2570    0.5960   -0.4150 C   0  0  2  0  0  0  0  0  0  0  0  0
   -1.4070    1.6230   -1.3500 O   0  0  0  0  0  0  0  0  0  0  0  0
   -1.3680    2.7780   -0.7620 O   0  0  0  0  0  0  0  0  0  0  0  0
   -0.1280   -0.1220   -0.7530 O   0  0  0  0  0  0  0  0  0  0  0  0
    0.7810   -0.0300    0.2980 C   0  0  0  0  0  0  0  0  0  0  0  0
    2.0380   -0.8050   -0.0320 C   0  0  0  0  0  0  0  0  0  0  0  0
    2.5830   -0.2440   -1.1910 O   0  0  0  0  0  0  0  0  0  0  0  0
    3.6830   -0.9240   -1.4760 O   0  0  0  0  0  0  0  0  0  0  0  0
  1  2  2  0
  2  3  1  0
  2  4  1  0
  4  5  1  6
  4  7  1  0
  5  6  1  0
  7  8  1  0
  8  9  1  0
  9 10  1  0
 10 11  1  0
M  END
