
     RDKit          3D

 13 14  0  0  0  0  0  0  0  0999 V2000
   -1.8840    0.2200    1.2070 C   0  0  0  0  0  0  0  0  0  0  0  0
   -1.0890    0.1790   -0.1130 C   0  0  2  0  0  0  0  0  0  0  0  0
   -2.0280   -0.3600   -1.1640 C   0  0  0  0  0  0  0  0  0  0  0  0
   -2.2760   -1.7260   -0.5500 C   0  0  0  0  0  0  0  0  0  0  0  0
   -1.1790   -2.1010    0.1340 C   0  0  0  0  0  0  0  0  0  0  0  0
   -0.1830   -0.9980   -0.0100 C   0  0  0  0  0  0  0  0  0  0  0  0
    1.0640   -1.0430   -0.0890 N   0  0  0  0  0  0  0  0  0  0  0  0
    1.9790   -0.0220   -0.3030 N   0  0  0  0  0  0  0  0  0  0  0  0
    3.4140   -0.1830   -0.3740 C   0  0  0  0  0  0  0  0  0  0  0  0
    4.0490    1.0790   -0.6050 N   0  0  0  0  0  0  0  0  0  0  0  0
    1.1910    1.5830   -0.4930 P   0  0  0  0  0  0  0  0  0  0  0  0
   -0.4900    1.4560   -0.3570 C   0  0  0  0  0  0  0  0  0  0  0  0
   -1.2970    2.5770   -0.4780 O   0  0  0  0  0  0  0  0  0  0  0  0
  2  1  1  1
  2  3  1  0
  2  6  1  0
  2 12  1  0
  3  4  1  0
  4  5  2  0
  5  6  1  0
  6  7  2  0
  7  8  1  0
  8  9  1  0
  8 11  1  0
  9 10  1  0
 11 12  2  0
 12 13  1  0
M  END
