
     RDKit          3D

 13 14  0  0  0  0  0  0  0  0999 V2000
    2.9400   -0.0860   -0.8010 C   0  0  0  0  0  0  0  0  0  0  0  0
    2.7540   -0.1000    0.7180 C   0  0  0  0  0  0  0  0  0  0  0  0
    1.4550   -0.3410    1.0860 O   0  0  0  0  0  0  0  0  0  0  0  0
    0.5740    0.5410    0.9010 N   0  0  0  0  0  0  0  0  0  0  0  0
    0.6350    1.8320    1.1650 N   0  0  0  0  0  0  0  0  0  0  0  0
    0.0160    2.6500    0.2120 O   0  0  0  0  0  0  0  0  0  0  0  0
   -1.3800    2.3410    0.2380 C   0  0  0  0  0  0  0  0  0  0  0  0
   -1.5420    1.0120   -0.2590 N   0  0  0  0  0  0  0  0  0  0  0  0
   -2.5270    0.3470   -1.1250 C   0  0  0  0  0  0  0  0  0  0  0  0
   -2.2870   -1.1130   -0.8210 C   0  0  0  0  0  0  0  0  0  0  0  0
   -1.0600   -1.1800    0.0170 C   0  0  0  0  0  0  0  0  0  0  0  0
   -0.4880   -2.4590    0.5770 C   0  0  0  0  0  0  0  0  0  0  0  0
   -0.6170    0.0450    0.1870 C   0  0  0  0  0  0  0  0  0  0  0  0
  1  2  1  0
  2  3  1  0
  3  4  1  0
  4  5  1  0
  4 13  1  0
  5  6  1  0
  6  7  1  0
  7  8  1  0
  8  9  1  0
  8 13  1  0
  9 10  1  0
 10 11  1  0
 11 12  1  0
 11 13  2  0
M  END
