
     RDKit          3D

 11 10  0  0  0  0  0  0  0  0999 V2000
    2.4240   -0.3890    0.1010 O   0  0  0  0  0  0  0  0  0  0  0  0
    2.1050    0.0300   -1.0400 C   0  0  0  0  0  0  0  0  0  0  0  0
    3.0830    0.7200   -1.7810 O   0  0  0  0  0  0  0  0  0  0  0  0
    0.8420   -0.1910   -1.5200 O   0  0  0  0  0  0  0  0  0  0  0  0
   -0.1850   -0.8580   -0.8590 C   0  0  0  0  0  0  0  0  0  0  0  0
   -0.5320   -0.1360    0.4140 C   0  0  2  0  0  0  0  0  0  0  0  0
   -1.6390   -0.9400    1.0760 C   0  0  0  0  0  0  0  0  0  0  0  0
   -1.1710   -2.2320    1.2890 O   0  0  0  0  0  0  0  0  0  0  0  0
   -0.9490    1.1730    0.1760 O   0  0  0  0  0  0  0  0  0  0  0  0
   -0.1880    2.0630    0.7660 O   0  0  0  0  0  0  0  0  0  0  0  0
   -0.9180    3.1430    0.9840 O   0  0  0  0  0  0  0  0  0  0  0  0
  1  2  2  0
  2  3  1  0
  2  4  1  0
  4  5  1  0
  6  5  1  6
  6  7  1  0
  6  9  1  0
  7  8  1  0
  9 10  1  0
 10 11  1  0
M  END
