
     RDKit          3D

 13 13  0  0  0  0  0  0  0  0999 V2000
    4.8170    0.9720    0.5560 C   0  0  0  0  0  0  0  0  0  0  0  0
    4.0490   -0.0580    0.4850 N   0  0  0  0  0  0  0  0  0  0  0  0
    2.6360    0.0240    0.4220 C   0  0  0  0  0  0  0  0  0  0  0  0
    1.9070    0.2810    1.4390 N   0  0  0  0  0  0  0  0  0  0  0  0
    0.5900    0.3930    1.5520 O   0  0  0  0  0  0  0  0  0  0  0  0
   -0.3050    0.2400    0.5090 C   0  0  0  0  0  0  0  0  0  0  0  0
   -1.7310    0.4000    0.8240 C   0  0  0  0  0  0  0  0  0  0  0  0
   -2.1380    0.6790    2.0500 C   0  0  0  0  0  0  0  0  0  0  0  0
   -2.6710    0.2510   -0.2160 N   0  0  0  0  0  0  0  0  0  0  0  0
   -3.7150   -0.7400   -0.0530 C   0  0  0  0  0  0  0  0  0  0  0  0
   -0.0030   -0.0370   -0.7420 C   0  0  0  0  0  0  0  0  0  0  0  0
    1.7590   -0.2410   -1.1610 P   0  0  0  0  0  0  0  0  0  0  0  0
    2.0700   -1.7880   -1.8280 O   0  0  0  0  0  0  0  0  0  0  0  0
  1  2  2  0
  2  3  1  0
  3  4  2  0
  3 12  1  0
  4  5  1  0
  5  6  1  0
  6  7  1  0
  6 11  2  0
  7  8  2  0
  7  9  1  0
  9 10  1  0
 11 12  1  0
 12 13  1  0
M  END
