
     RDKit          3D

 11 10  0  0  0  0  0  0  0  0999 V2000
    2.1020    1.5250    0.2320 O   0  0  0  0  0  0  0  0  0  0  0  0
    2.2100    0.3780   -0.2710 C   0  0  0  0  0  0  0  0  0  0  0  0
    3.5300   -0.3100   -0.2730 C   0  0  0  0  0  0  0  0  0  0  0  0
    4.1190   -0.2530    0.9440 O   0  0  0  0  0  0  0  0  0  0  0  0
    1.1360   -0.2430   -0.8280 O   0  0  0  0  0  0  0  0  0  0  0  0
   -0.0180    0.4890   -1.0290 O   0  0  0  0  0  0  0  0  0  0  0  0
   -0.8920    0.1820   -0.0350 C   0  0  0  0  0  0  0  0  0  0  0  0
   -2.1570   -0.2520   -0.7720 C   0  0  0  0  0  0  0  0  0  0  0  0
   -2.9620   -0.9200    0.1510 O   0  0  0  0  0  0  0  0  0  0  0  0
   -3.6490   -0.2110    0.9280 O   0  0  0  0  0  0  0  0  0  0  0  0
   -4.5140    0.5760    0.4070 O   0  0  0  0  0  0  0  0  0  0  0  0
  1  2  2  0
  2  3  1  0
  2  5  1  0
  3  4  1  0
  5  6  1  0
  6  7  1  0
  7  8  1  0
  8  9  1  0
  9 10  1  0
 10 11  1  0
M  END
