
     RDKit          3D

 11 11  0  0  0  0  0  0  0  0999 V2000
    4.0600   -0.2430   -0.3810 O   0  0  0  0  0  0  0  0  0  0  0  0
    3.0220   -0.2180    0.4300 O   0  0  0  0  0  0  0  0  0  0  0  0
    2.4570    0.9440    0.4900 O   0  0  0  0  0  0  0  0  0  0  0  0
    1.1720    0.9710    0.3540 O   0  0  0  0  0  0  0  0  0  0  0  0
    0.5560   -0.2350    0.1430 C   0  0  2  0  0  0  0  0  0  0  0  0
   -0.1610   -0.1910   -1.1810 C   0  0  0  0  0  0  0  0  0  0  0  0
   -1.3270   -0.9010   -1.2160 O   0  0  0  0  0  0  0  0  0  0  0  0
   -2.1840   -0.6930   -0.1700 C   0  0  0  0  0  0  0  0  0  0  0  0
   -2.0530    0.6480    0.4900 C   0  0  0  0  0  0  0  0  0  0  0  0
   -1.0700    0.5270    1.4920 O   0  0  0  0  0  0  0  0  0  0  0  0
   -0.2960   -0.4940    1.2090 O   0  0  0  0  0  0  0  0  0  0  0  0
  1  2  1  0
  2  3  1  0
  3  4  1  0
  5  4  1  1
  5  6  1  0
  5 11  1  0
  6  7  1  0
  7  8  1  0
  8  9  1  0
  9 10  1  0
 10 11  1  0
M  END
