
     RDKit          3D

 11 12  0  0  0  0  0  0  0  0999 V2000
    2.7690   -0.2280   -0.5440 C   0  0  0  0  0  0  0  0  0  0  0  0
    1.4760    0.4960   -0.4190 C   0  0  0  0  0  0  0  0  0  0  0  0
    0.3120   -0.0630   -0.2180 C   0  0  0  0  0  0  0  0  0  0  0  0
   -0.1900   -1.4690   -0.0450 C   0  0  0  0  0  0  0  0  0  0  0  0
   -1.3020   -1.4720    0.7920 O   0  0  0  0  0  0  0  0  0  0  0  0
   -2.3450   -0.7430    0.1980 C   0  0  0  0  0  0  0  0  0  0  0  0
   -1.9490    0.6820    0.0380 C   0  0  0  0  0  0  0  0  0  0  0  0
   -0.6830    1.0000   -0.1600 C   0  0  0  0  0  0  0  0  0  0  0  0
    0.0400    2.2530   -0.3530 C   0  0  0  0  0  0  0  0  0  0  0  0
   -0.4600    3.4200   -0.3700 O   0  0  0  0  0  0  0  0  0  0  0  0
    1.3730    1.8790   -0.5080 O   0  0  0  0  0  0  0  0  0  0  0  0
  1  2  1  0
  2  3  2  0
  2 11  1  0
  3  4  1  0
  3  8  1  0
  4  5  1  0
  5  6  1  0
  6  7  1  0
  7  8  2  0
  8  9  1  0
  9 10  2  0
  9 11  1  0
M  END
