
     RDKit          3D

 11 12  0  0  0  0  0  0  0  0999 V2000
   -0.8240    3.0370    0.2140 O   0  0  0  0  0  0  0  0  0  0  0  0
   -1.0020    1.8020    0.2340 C   0  0  0  0  0  0  0  0  0  0  0  0
   -2.2130    1.1570    0.3550 O   0  0  0  0  0  0  0  0  0  0  0  0
   -2.3120   -0.1020   -0.3290 C   0  0  0  0  0  0  0  0  0  0  0  0
   -1.3350   -1.0360    0.3220 C   0  0  0  0  0  0  0  0  0  0  0  0
    0.0320   -0.4940    0.1410 C   0  0  0  0  0  0  0  0  0  0  0  0
    1.0880   -1.2950    0.0190 C   0  0  0  0  0  0  0  0  0  0  0  0
    2.4310   -0.7190   -0.1590 C   0  0  0  0  0  0  0  0  0  0  0  0
    2.4830    0.6800   -0.1250 O   0  0  0  0  0  0  0  0  0  0  0  0
    1.4000    1.5150   -0.0210 C   0  0  0  0  0  0  0  0  0  0  0  0
    0.1960    0.9510    0.1180 C   0  0  0  0  0  0  0  0  0  0  0  0
  1  2  2  0
  2  3  1  0
  2 11  1  0
  3  4  1  0
  4  5  1  0
  5  6  1  0
  6  7  2  0
  6 11  1  0
  7  8  1  0
  8  9  1  0
  9 10  1  0
 10 11  2  0
M  END
