
     RDKit          3D

 12 12  0  0  0  0  0  0  0  0999 V2000
    2.3700    2.1230   -0.7420 O   0  0  0  0  0  0  0  0  0  0  0  0
    2.8680    1.0610    0.0130 C   0  0  0  0  0  0  0  0  0  0  0  0
    1.8390   -0.0450   -0.0270 C   0  0  1  0  0  0  0  0  0  0  0  0
    0.6360    0.3840    0.5030 O   0  0  0  0  0  0  0  0  0  0  0  0
   -0.2590   -0.5760    0.0690 C   0  0  1  0  0  0  0  0  0  0  0  0
   -1.5690    0.0470   -0.3940 C   0  0  1  0  0  0  0  0  0  0  0  0
   -2.4280   -0.9660   -0.8180 O   0  0  0  0  0  0  0  0  0  0  0  0
   -2.2590    0.7700    0.7360 C   0  0  0  0  0  0  0  0  0  0  0  0
   -3.4580    1.2810    0.2060 O   0  0  0  0  0  0  0  0  0  0  0  0
    0.4170   -1.2680   -1.0830 C   0  0  2  0  0  0  0  0  0  0  0  0
    1.0190   -2.4670   -0.7040 O   0  0  0  0  0  0  0  0  0  0  0  0
    1.4820   -0.3730   -1.3460 O   0  0  0  0  0  0  0  0  0  0  0  0
  1  2  1  0
  3  2  1  6
  3  4  1  0
  3 12  1  0
  5  4  1  6
  5  6  1  0
  5 10  1  0
  6  7  1  1
  6  8  1  0
  8  9  1  0
 10 11  1  1
 10 12  1  0
M  END
