
     RDKit          3D

 11 12  0  0  0  0  0  0  0  0999 V2000
   -2.7050    0.3520    0.0350 C   0  0  0  0  0  0  0  0  0  0  0  0
   -1.4840   -0.5300    0.0540 C   0  0  0  0  0  0  0  0  0  0  0  0
   -0.2570   -0.1240   -0.1290 C   0  0  0  0  0  0  0  0  0  0  0  0
    0.3260    1.2260   -0.3930 C   0  0  0  0  0  0  0  0  0  0  0  0
    1.7090    1.3090    0.2350 C   0  0  0  0  0  0  0  0  0  0  0  0
    2.4090   -0.0170    0.1450 C   0  0  0  0  0  0  0  0  0  0  0  0
    1.6420   -0.9930    0.8240 O   0  0  0  0  0  0  0  0  0  0  0  0
    0.6250   -1.3220   -0.0560 C   0  0  1  0  0  0  0  0  0  0  0  0
   -0.1800   -2.3830    0.2820 O   0  0  0  0  0  0  0  0  0  0  0  0
   -1.4950   -1.9640    0.3190 C   0  0  0  0  0  0  0  0  0  0  0  0
   -2.5230   -2.6610    0.5350 O   0  0  0  0  0  0  0  0  0  0  0  0
  1  2  1  0
  2  3  2  0
  2 10  1  0
  3  4  1  0
  3  8  1  0
  4  5  1  0
  5  6  1  0
  6  7  1  0
  8  7  1  1
  8  9  1  0
  9 10  1  0
 10 11  2  0
M  END
