
     RDKit          3D

 11 12  0  0  0  0  0  0  0  0999 V2000
    2.3440    0.5350   -0.1750 C   0  0  0  0  0  0  0  0  0  0  0  0
    1.5300    0.7590    1.0510 C   0  0  0  0  0  0  0  0  0  0  0  0
    0.2870   -0.0630    1.0850 C   0  0  0  0  0  0  0  0  0  0  0  0
   -0.1080   -0.6160   -0.2670 C   0  0  2  0  0  0  0  0  0  0  0  0
   -0.6720    0.4290   -1.1850 C   0  0  0  0  0  0  0  0  0  0  0  0
   -1.5250    1.2240   -0.4230 O   0  0  0  0  0  0  0  0  0  0  0  0
   -2.6210    0.4270   -0.1070 C   0  0  0  0  0  0  0  0  0  0  0  0
   -2.2620   -0.8690    0.5310 C   0  0  0  0  0  0  0  0  0  0  0  0
   -1.1730   -1.5030   -0.0060 O   0  0  0  0  0  0  0  0  0  0  0  0
    0.9100   -1.3110   -0.8260 O   0  0  0  0  0  0  0  0  0  0  0  0
    2.1320   -0.7430   -0.8650 C   0  0  0  0  0  0  0  0  0  0  0  0
  1  2  1  0
  1 11  1  0
  2  3  1  0
  4  3  1  1
  4  5  1  0
  4  9  1  0
  4 10  1  0
  5  6  1  0
  6  7  1  0
  7  8  1  0
  8  9  1  0
 10 11  1  0
M  END
