
     RDKit          3D

 11 12  0  0  0  0  0  0  0  0999 V2000
   -2.8510   -1.3230    1.6190 O   0  0  0  0  0  0  0  0  0  0  0  0
   -2.0440   -0.7040    0.8840 C   0  0  0  0  0  0  0  0  0  0  0  0
   -1.1600   -1.4040   -0.1150 C   0  0  0  0  0  0  0  0  0  0  0  0
    0.0970   -0.5720   -0.1380 C   0  0  0  0  0  0  0  0  0  0  0  0
    0.0590    0.7470   -0.1180 C   0  0  0  0  0  0  0  0  0  0  0  0
    1.2320    1.6120   -0.1380 C   0  0  0  0  0  0  0  0  0  0  0  0
    2.4150    1.0310   -0.1780 C   0  0  0  0  0  0  0  0  0  0  0  0
    2.4660   -0.3330   -0.1980 O   0  0  0  0  0  0  0  0  0  0  0  0
    1.4160   -1.2410   -0.1820 C   0  0  0  0  0  0  0  0  0  0  0  0
   -1.3230    1.3520   -0.0730 C   0  0  0  0  0  0  0  0  0  0  0  0
   -1.9800    0.6900    1.0160 O   0  0  0  0  0  0  0  0  0  0  0  0
  1  2  2  0
  2  3  1  0
  2 11  1  0
  3  4  1  0
  4  5  2  0
  4  9  1  0
  5  6  1  0
  5 10  1  0
  6  7  2  0
  7  8  1  0
  8  9  1  0
 10 11  1  0
M  END
