
     RDKit          3D

 11 12  0  0  0  0  0  0  0  0999 V2000
    2.1930    0.8340   -0.1790 C   0  0  0  0  0  0  0  0  0  0  0  0
    1.3420   -0.4120   -0.2730 C   0  0  1  0  0  0  0  0  0  0  0  0
    1.5040   -1.2870    0.8900 C   0  0  0  0  0  0  0  0  0  0  0  0
    2.6090   -1.8090    1.2730 O   0  0  0  0  0  0  0  0  0  0  0  0
    0.2680   -1.4300    1.4720 O   0  0  0  0  0  0  0  0  0  0  0  0
   -0.6830   -0.6800    0.7270 C   0  0  0  0  0  0  0  0  0  0  0  0
   -0.1090   -0.0860   -0.2760 C   0  0  0  0  0  0  0  0  0  0  0  0
   -0.8670    0.7670   -1.2250 C   0  0  0  0  0  0  0  0  0  0  0  0
   -2.1580    0.9030   -1.0140 C   0  0  0  0  0  0  0  0  0  0  0  0
   -2.7830    0.2770    0.0500 O   0  0  0  0  0  0  0  0  0  0  0  0
   -2.1500   -0.5350    0.9800 C   0  0  0  0  0  0  0  0  0  0  0  0
  2  1  1  1
  2  3  1  0
  2  7  1  0
  3  4  2  0
  3  5  1  0
  5  6  1  0
  6  7  2  0
  6 11  1  0
  7  8  1  0
  8  9  2  0
  9 10  1  0
 10 11  1  0
M  END
