
     RDKit          3D

 46 48  0  0  0  0  0  0  0  0999 V2000
    3.2750   -4.8600    1.1510 C   0  0  0  0  0  0  0  0  0  0  0  0
    1.9530   -4.6900    0.4660 C   0  0  0  0  0  0  0  0  0  0  0  0
    1.8830   -3.5300   -0.4810 C   0  0  0  0  0  0  0  0  0  0  0  0
    2.1240   -2.3660    0.2190 O   0  0  0  0  0  0  0  0  0  0  0  0
    2.0110   -1.2190   -0.6810 C   0  0  2  0  0  0  0  0  0  0  0  0
    3.4040   -0.6470   -0.6270 C   0  0  1  0  0  0  0  0  0  0  0  0
    4.4070   -1.7880   -1.0150 C   0  0  0  0  0  0  0  0  0  0  0  0
    3.6970    0.3790   -1.7070 C   0  0  0  0  0  0  0  0  0  0  0  0
    5.0710    0.8890   -1.5470 N   0  0  0  0  0  0  0  0  0  0  0  0
    5.3840    1.5920   -0.3600 C   0  0  0  0  0  0  0  0  0  0  0  0
    4.5190    1.8020    0.5660 O   0  0  0  0  0  0  0  0  0  0  0  0
    6.7190    2.1470   -0.0830 C   0  0  0  0  0  0  0  0  0  0  0  0
    6.7450    3.1000    1.0720 C   0  0  1  0  0  0  0  0  0  0  0  0
    6.2710    2.3850    2.3280 C   0  0  0  0  0  0  0  0  0  0  0  0
    8.1990    3.4500    1.2850 C   0  0  0  0  0  0  0  0  0  0  0  0
    8.7250    3.2450    2.4160 O   0  0  0  0  0  0  0  0  0  0  0  0
    8.9780    3.9900    0.2830 O   0  0  0  0  0  0  0  0  0  0  0  0
    0.9780   -0.3700    0.0250 C   0  0  1  0  0  0  0  0  0  0  0  0
    0.5920    0.8900   -0.6340 C   0  0  0  0  0  0  0  0  0  0  0  0
    0.1360    0.7840   -2.0600 C   0  0  0  0  0  0  0  0  0  0  0  0
   -0.8570    1.7600   -2.3390 O   0  0  0  0  0  0  0  0  0  0  0  0
   -2.1160    1.2310   -2.4650 C   0  0  2  0  0  0  0  0  0  0  0  0
   -2.6970    1.5810   -3.7110 O   0  0  0  0  0  0  0  0  0  0  0  0
   -2.6890    2.9650   -3.8660 C   0  0  0  0  0  0  0  0  0  0  0  0
   -3.2570    3.6450   -2.6380 C   0  0  0  0  0  0  0  0  0  0  0  0
   -3.8920    2.7400   -1.7390 N   0  0  2  0  0  0  0  0  0  0  0  0
   -4.5310    3.4390   -0.6880 C   0  0  0  0  0  0  0  0  0  0  0  0
   -3.7480    3.7600    0.5270 C   0  0  0  0  0  0  0  0  0  0  0  0
   -2.5420    4.6380    0.3340 C   0  0  0  0  0  0  0  0  0  0  0  0
   -3.0670    1.6170   -1.3390 C   0  0  1  0  0  0  0  0  0  0  0  0
   -3.8790    0.4400   -0.9180 C   0  0  0  0  0  0  0  0  0  0  0  0
   -5.2610    0.5010   -0.7830 O   0  0  0  0  0  0  0  0  0  0  0  0
   -6.0510   -0.4350   -1.4950 C   0  0  0  0  0  0  0  0  0  0  0  0
   -3.2990   -0.6810   -0.6680 C   0  0  0  0  0  0  0  0  0  0  0  0
   -3.0400   -1.1850    0.5010 C   0  0  0  0  0  0  0  0  0  0  0  0
   -3.4620   -2.5890    0.6980 C   0  0  0  0  0  0  0  0  0  0  0  0
   -2.8240   -3.5990    0.0250 C   0  0  0  0  0  0  0  0  0  0  0  0
   -3.2360   -4.8960    0.2240 C   0  0  0  0  0  0  0  0  0  0  0  0
   -4.2690   -5.1950    1.0800 C   0  0  0  0  0  0  0  0  0  0  0  0
   -4.8850   -4.1600    1.7370 C   0  0  0  0  0  0  0  0  0  0  0  0
   -4.4850   -2.8660    1.5480 C   0  0  0  0  0  0  0  0  0  0  0  0
   -5.2260   -1.8100    2.3080 C   0  0  0  0  0  0  0  0  0  0  0  0
   -2.3870   -0.4870    1.6120 C   0  0  0  0  0  0  0  0  0  0  0  0
   -0.9070   -0.6050    1.6900 C   0  0  1  0  0  0  0  0  0  0  0  0
   -0.4780   -1.3720    2.9290 C   0  0  0  0  0  0  0  0  0  0  0  0
   -0.2310   -1.1830    0.4780 C   0  0  0  0  0  0  0  0  0  0  0  0
  1  2  1  0
  2  3  1  0
  3  4  1  0
  5  4  1  1
  5  6  1  0
  5 18  1  0
  6  7  1  6
  6  8  1  0
  8  9  1  0
  9 10  1  0
 10 11  2  0
 10 12  1  0
 12 13  1  0
 13 14  1  1
 13 15  1  0
 15 16  2  0
 15 17  1  0
 18 19  1  6
 18 46  1  0
 19 20  1  0
 20 21  1  0
 22 21  1  1
 22 23  1  0
 22 30  1  0
 23 24  1  0
 24 25  1  0
 25 26  1  0
 26 27  1  1
 26 30  1  0
 27 28  1  0
 28 29  1  0
 30 31  1  6
 31 32  1  0
 31 34  2  0
 32 33  1  0
 34 35  2  0
 35 36  1  0
 35 43  1  0
 36 37  2  0
 36 41  1  0
 37 38  1  0
 38 39  2  0
 39 40  1  0
 40 41  2  0
 41 42  1  0
 43 44  1  0
 44 45  1  1
 44 46  1  0
M  CHG  1  26   1
M  END
