
     RDKit          3D

 46 50  0  0  0  0  0  0  0  0999 V2000
   -6.7920    4.6960   -0.3140 C   0  0  0  0  0  0  0  0  0  0  0  0
   -5.5230    4.4230   -1.0510 C   0  0  0  0  0  0  0  0  0  0  0  0
   -4.6730    3.4930   -0.3860 O   0  0  0  0  0  0  0  0  0  0  0  0
   -5.0670    2.1930   -0.1050 C   0  0  0  0  0  0  0  0  0  0  0  0
   -6.2380    1.8870   -0.4800 O   0  0  0  0  0  0  0  0  0  0  0  0
   -4.2250    1.1860    0.5830 C   0  0  1  0  0  0  0  0  0  0  0  0
   -5.0570   -0.0680    0.6990 C   0  0  0  0  0  0  0  0  0  0  0  0
   -5.3150   -0.8120   -0.5530 C   0  0  0  0  0  0  0  0  0  0  0  0
   -5.4980   -2.2850   -0.3920 C   0  0  0  0  0  0  0  0  0  0  0  0
   -4.5320   -3.1580   -0.1940 C   0  0  0  0  0  0  0  0  0  0  0  0
   -3.0830   -2.8160   -0.0950 C   0  0  0  0  0  0  0  0  0  0  0  0
   -2.4400   -2.5500   -1.3550 N   0  0  0  0  0  0  0  0  0  0  0  0
   -1.6230   -1.4390   -1.6700 C   0  0  0  0  0  0  0  0  0  0  0  0
   -1.8000   -1.0320   -2.8870 O   0  0  0  0  0  0  0  0  0  0  0  0
   -0.6610   -0.7100   -0.8990 C   0  0  0  0  0  0  0  0  0  0  0  0
   -0.8520   -0.2910    0.4910 C   0  0  1  0  0  0  0  0  0  0  0  0
    0.4900    0.2400    0.9320 C   0  0  0  0  0  0  0  0  0  0  0  0
    0.7620    1.4780    1.2440 C   0  0  0  0  0  0  0  0  0  0  0  0
    2.1160    1.7910    1.6480 C   0  0  0  0  0  0  0  0  0  0  0  0
    2.3020    2.7410    2.4360 O   0  0  0  0  0  0  0  0  0  0  0  0
    3.3530    1.0450    1.1830 C   0  0  1  0  0  0  0  0  0  0  0  0
    4.1410    0.7200    2.4100 C   0  0  0  0  0  0  0  0  0  0  0  0
    5.3760    0.0840    2.2260 O   0  0  0  0  0  0  0  0  0  0  0  0
    6.4440    0.7010    1.5670 C   0  0  0  0  0  0  0  0  0  0  0  0
    6.2350    1.8610    1.1440 O   0  0  0  0  0  0  0  0  0  0  0  0
    7.7550    0.0850    1.3490 C   0  0  2  0  0  0  0  0  0  0  0  0
    7.7320   -1.1840    0.5510 C   0  0  0  0  0  0  0  0  0  0  0  0
    8.4780   -0.2280    2.6530 C   0  0  0  0  0  0  0  0  0  0  0  0
    2.9120   -0.1350    0.3600 C   0  0  2  0  0  0  0  0  0  0  0  0
    3.9190   -1.2740    0.4290 C   0  0  0  0  0  0  0  0  0  0  0  0
    3.5030   -2.4350   -0.4270 C   0  0  0  0  0  0  0  0  0  0  0  0
    2.9120   -2.1810   -1.7390 C   0  0  0  0  0  0  0  0  0  0  0  0
    2.7740   -0.7550   -2.0480 C   0  0  0  0  0  0  0  0  0  0  0  0
    2.6480   -0.4090   -3.4020 C   0  0  0  0  0  0  0  0  0  0  0  0
    2.5020    0.9090   -3.7820 C   0  0  0  0  0  0  0  0  0  0  0  0
    2.4820    1.8640   -2.8180 C   0  0  0  0  0  0  0  0  0  0  0  0
    2.6080    1.5110   -1.4780 C   0  0  0  0  0  0  0  0  0  0  0  0
    2.7540    0.2070   -1.0790 C   0  0  0  0  0  0  0  0  0  0  0  0
    1.6720   -0.6900    1.0050 C   0  0  0  0  0  0  0  0  0  0  0  0
   -1.8650    0.5650    0.9110 N   0  0  0  0  0  0  0  0  0  0  0  0
   -2.8660    0.9970   -0.0390 C   0  0  2  0  0  0  0  0  0  0  0  0
   -2.3450    2.3080   -0.6400 C   0  0  0  0  0  0  0  0  0  0  0  0
   -5.0630   -4.4620   -0.0900 O   0  0  0  0  0  0  0  0  0  0  0  0
   -6.3860   -4.4920   -0.5450 C   0  0  0  0  0  0  0  0  0  0  0  0
   -6.7690   -3.0510   -0.4210 C   0  0  0  0  0  0  0  0  0  0  0  0
   -7.9440   -2.6090   -0.3560 O   0  0  0  0  0  0  0  0  0  0  0  0
  1  2  1  0
  2  3  1  0
  3  4  1  0
  4  5  2  0
  6  4  1  6
  6  7  1  0
  6 41  1  0
  7  8  1  0
  8  9  1  0
  9 10  2  0
  9 45  1  0
 10 11  1  0
 10 43  1  0
 11 12  1  0
 12 13  1  0
 13 14  2  0
 13 15  1  0
 15 16  1  0
 16 17  1  6
 16 40  1  0
 17 18  2  0
 17 39  1  0
 18 19  1  0
 19 20  2  0
 19 21  1  0
 21 22  1  1
 21 29  1  0
 22 23  1  0
 23 24  1  0
 24 25  2  0
 24 26  1  0
 26 27  1  1
 26 28  1  0
 29 30  1  6
 29 38  1  0
 29 39  1  0
 30 31  1  0
 31 32  1  0
 32 33  1  0
 33 34  2  0
 33 38  1  0
 34 35  1  0
 35 36  2  0
 36 37  1  0
 37 38  2  0
 40 41  1  0
 41 42  1  1
 43 44  1  0
 44 45  1  0
 45 46  2  0
M  CHG  1  40   1
M  END
