
     RDKit          3D

 46 49  0  0  0  0  0  0  0  0999 V2000
   -3.9130   -0.9720    3.4910 C   0  0  0  0  0  0  0  0  0  0  0  0
   -2.5650   -0.6420    2.8370 C   0  0  0  0  0  0  0  0  0  0  0  0
   -2.6920   -0.9590    1.3470 C   0  0  1  0  0  0  0  0  0  0  0  0
   -1.3630   -0.6270    0.7260 C   0  0  0  0  0  0  0  0  0  0  0  0
   -1.2640    0.8520    0.2680 C   0  0  1  0  0  0  0  0  0  0  0  0
   -1.1410    0.8450   -1.2480 C   0  0  0  0  0  0  0  0  0  0  0  0
   -1.8940   -0.2310   -1.9410 C   0  0  0  0  0  0  0  0  0  0  0  0
   -1.0650   -1.2730   -2.5560 C   0  0  0  0  0  0  0  0  0  0  0  0
    0.1040   -1.0420   -2.8720 O   0  0  0  0  0  0  0  0  0  0  0  0
   -1.6130   -2.5210   -2.7770 O   0  0  0  0  0  0  0  0  0  0  0  0
   -2.9470   -2.8920   -2.5420 C   0  0  0  0  0  0  0  0  0  0  0  0
   -3.0410   -4.0370   -1.5970 C   0  0  0  0  0  0  0  0  0  0  0  0
   -3.4680   -3.9970   -0.3630 C   0  0  0  0  0  0  0  0  0  0  0  0
   -3.9550   -2.7910    0.3630 C   0  0  1  0  0  0  0  0  0  0  0  0
   -5.1380   -3.2660    1.2220 C   0  0  0  0  0  0  0  0  0  0  0  0
   -2.9170   -2.3870    1.2790 N   0  0  0  0  0  0  0  0  0  0  0  0
   -2.2990    1.6160    0.7630 N   0  0  0  0  0  0  0  0  0  0  0  0
   -3.1000    2.5220    0.7230 C   0  0  0  0  0  0  0  0  0  0  0  0
   -3.9960    2.6670    1.8400 O   0  0  0  0  0  0  0  0  0  0  0  0
   -3.3700    3.5700   -0.2900 C   0  0  0  0  0  0  0  0  0  0  0  0
   -4.6930    3.6690   -0.6960 C   0  0  0  0  0  0  0  0  0  0  0  0
   -5.0800    4.5720   -1.6520 C   0  0  0  0  0  0  0  0  0  0  0  0
   -4.1410    5.3790   -2.2040 C   0  0  0  0  0  0  0  0  0  0  0  0
   -2.8220    5.2950   -1.8120 C   0  0  0  0  0  0  0  0  0  0  0  0
   -2.3700    4.3910   -0.8370 C   0  0  0  0  0  0  0  0  0  0  0  0
   -1.0740    4.3420   -0.4770 O   0  0  0  0  0  0  0  0  0  0  0  0
   -0.2220    4.4970    0.5280 C   0  0  0  0  0  0  0  0  0  0  0  0
   -0.3210    4.6710    1.7690 O   0  0  0  0  0  0  0  0  0  0  0  0
    1.2430    4.4580    0.0960 C   0  0  0  0  0  0  0  0  0  0  0  0
    1.3470    3.5110   -1.0670 C   0  0  0  0  0  0  0  0  0  0  0  0
    1.9680    2.2240   -0.5440 C   0  0  2  0  0  0  0  0  0  0  0  0
    2.7330    1.5110   -1.6350 C   0  0  0  0  0  0  0  0  0  0  0  0
    3.5010    0.4310   -1.1690 O   0  0  0  0  0  0  0  0  0  0  0  0
    4.5390    0.4920   -0.2640 C   0  0  0  0  0  0  0  0  0  0  0  0
    4.8520    1.6150    0.2020 O   0  0  0  0  0  0  0  0  0  0  0  0
    5.3060   -0.6790    0.1910 C   0  0  1  0  0  0  0  0  0  0  0  0
    4.4470   -1.7080    0.8830 C   0  0  0  0  0  0  0  0  0  0  0  0
    5.2360   -2.9990    0.9540 C   0  0  2  0  0  0  0  0  0  0  0  0
    5.1060   -3.6270    2.3460 C   0  0  0  0  0  0  0  0  0  0  0  0
    6.5840   -2.8030    0.7340 O   0  0  0  0  0  0  0  0  0  0  0  0
    6.8870   -2.4550   -0.5640 C   0  0  2  0  0  0  0  0  0  0  0  0
    8.3650   -2.0800   -0.5920 C   0  0  0  0  0  0  0  0  0  0  0  0
    6.0560   -1.2670   -0.9830 C   0  0  0  0  0  0  0  0  0  0  0  0
    1.0890    1.5000    0.1570 O   0  0  0  0  0  0  0  0  0  0  0  0
    0.0120    1.3740    0.8790 C   0  0  0  0  0  0  0  0  0  0  0  0
   -0.0750    1.6560    2.1020 O   0  0  0  0  0  0  0  0  0  0  0  0
  1  2  1  0
  3  2  1  1
  3  4  1  0
  3 16  1  0
  5  4  1  1
  5  6  1  0
  5 17  1  0
  5 45  1  0
  6  7  1  0
  7  8  1  0
  8  9  2  0
  8 10  1  0
 10 11  1  0
 11 12  1  0
 12 13  2  0
 13 14  1  0
 14 15  1  1
 14 16  1  0
 17 18  2  0
 18 19  1  0
 18 20  1  0
 20 21  2  0
 20 25  1  0
 21 22  1  0
 22 23  2  0
 23 24  1  0
 24 25  2  0
 25 26  1  0
 26 27  1  0
 27 28  2  0
 27 29  1  0
 29 30  1  0
 30 31  1  0
 31 32  1  6
 31 44  1  0
 32 33  1  0
 33 34  1  0
 34 35  2  0
 36 34  1  6
 36 37  1  0
 36 43  1  0
 37 38  1  0
 38 39  1  1
 38 40  1  0
 40 41  1  0
 41 42  1  1
 41 43  1  0
 44 45  1  0
 45 46  2  0
M  CHG  1  16   1
M  END
