
     RDKit          3D

 40 42  0  0  0  0  0  0  0  0999 V2000
   -7.1570    4.6940    0.3780 C   0  0  0  0  0  0  0  0  0  0  0  0
   -8.1440    3.5960    0.1050 C   0  0  0  0  0  0  0  0  0  0  0  0
   -7.8270    2.4000    0.7020 O   0  0  0  0  0  0  0  0  0  0  0  0
   -8.7770    1.4560    0.4020 C   0  0  0  0  0  0  0  0  0  0  0  0
   -8.4840    0.1120    1.0340 C   0  0  1  0  0  0  0  0  0  0  0  0
   -9.4680   -0.8250    0.7090 O   0  0  0  0  0  0  0  0  0  0  0  0
   -8.9470   -2.0360    1.1160 C   0  0  0  0  0  0  0  0  0  0  0  0
   -7.4670   -1.9970    0.8810 C   0  0  0  0  0  0  0  0  0  0  0  0
   -7.2500   -0.5390    0.4600 C   0  0  2  0  0  0  0  0  0  0  0  0
   -5.9820    0.0080    1.0690 C   0  0  0  0  0  0  0  0  0  0  0  0
   -4.8340   -0.6400    0.4920 N   0  0  0  0  0  0  0  0  0  0  0  0
   -3.5400   -0.2750    0.9230 C   0  0  0  0  0  0  0  0  0  0  0  0
   -3.4590    0.6220    1.8150 O   0  0  0  0  0  0  0  0  0  0  0  0
   -2.3020   -0.8520    0.4220 C   0  0  0  0  0  0  0  0  0  0  0  0
   -1.0970   -0.4610    0.9810 C   0  0  0  0  0  0  0  0  0  0  0  0
    0.0800   -1.0080    0.5040 C   0  0  0  0  0  0  0  0  0  0  0  0
    0.1030   -1.9170   -0.5010 C   0  0  0  0  0  0  0  0  0  0  0  0
    1.2530   -2.4590   -1.1200 C   0  0  0  0  0  0  0  0  0  0  0  0
    1.1000   -3.6150   -1.6850 O   0  0  0  0  0  0  0  0  0  0  0  0
    2.6260   -1.9010   -1.2210 C   0  0  0  0  0  0  0  0  0  0  0  0
    2.8410   -0.7020   -0.8560 C   0  0  0  0  0  0  0  0  0  0  0  0
    3.8070    0.2500   -0.7220 N   0  0  0  0  0  0  0  0  0  0  0  0
    5.1700    0.3780   -0.9470 C   0  0  0  0  0  0  0  0  0  0  0  0
    5.8240   -0.5520   -1.3920 O   0  0  0  0  0  0  0  0  0  0  0  0
    5.8920    1.6210   -0.6670 N   0  0  0  0  0  0  0  0  0  0  0  0
    7.3200    1.6650   -0.9320 C   0  0  1  0  0  0  0  0  0  0  0  0
    7.6130    2.7770   -1.8810 C   0  0  0  0  0  0  0  0  0  0  0  0
    7.9620    1.9320    0.3830 C   0  0  0  0  0  0  0  0  0  0  0  0
    7.9050    1.6030    1.5400 N   0  0  0  0  0  0  0  0  0  0  0  0
    8.6530    2.0360    2.5250 C   0  0  0  0  0  0  0  0  0  0  0  0
    9.6000    2.9480    2.2600 C   0  0  0  0  0  0  0  0  0  0  0  0
   10.6240    3.6840    3.0090 C   0  0  0  0  0  0  0  0  0  0  0  0
    9.3270    3.1460    0.4240 S   0  0  0  0  0  0  0  0  0  0  0  0
    3.5880   -2.8500   -1.7530 C   0  0  0  0  0  0  0  0  0  0  0  0
    4.7760   -2.7290   -1.9710 O   0  0  0  0  0  0  0  0  0  0  0  0
    3.0870   -4.1490   -2.0850 O   0  0  0  0  0  0  0  0  0  0  0  0
    4.0410   -5.0850   -2.6110 C   0  0  0  0  0  0  0  0  0  0  0  0
    5.1420   -5.3190   -1.6040 C   0  0  0  0  0  0  0  0  0  0  0  0
   -1.1590   -2.2950   -1.0500 C   0  0  0  0  0  0  0  0  0  0  0  0
   -2.3200   -1.7690   -0.5920 C   0  0  0  0  0  0  0  0  0  0  0  0
  1  2  1  0
  2  3  1  0
  3  4  1  0
  5  4  1  6
  5  6  1  0
  5  9  1  0
  6  7  1  0
  7  8  1  0
  8  9  1  0
  9 10  1  1
 10 11  1  0
 11 12  1  0
 12 13  2  0
 12 14  1  0
 14 15  2  0
 14 40  1  0
 15 16  1  0
 16 17  2  0
 17 18  1  0
 17 39  1  0
 18 19  2  0
 18 20  1  0
 20 21  2  3
 20 34  1  0
 21 22  1  0
 22 23  1  0
 23 24  2  0
 23 25  1  0
 25 26  1  0
 26 27  1  6
 26 28  1  0
 28 29  2  0
 28 33  1  0
 29 30  1  0
 30 31  2  0
 31 32  1  0
 31 33  1  0
 34 35  2  0
 34 36  1  0
 36 37  1  0
 37 38  1  0
 39 40  2  0
M  END
