
     RDKit          3D

 46 49  0  0  0  0  0  0  0  0999 V2000
  -10.6360    3.2440   -0.2110 C   0  0  0  0  0  0  0  0  0  0  0  0
   -9.4670    2.7820    0.4400 O   0  0  0  0  0  0  0  0  0  0  0  0
   -9.0280    1.4740    0.2750 C   0  0  0  0  0  0  0  0  0  0  0  0
   -9.7320    0.7570   -0.4750 O   0  0  0  0  0  0  0  0  0  0  0  0
   -7.8370    0.9220    0.9100 C   0  0  0  0  0  0  0  0  0  0  0  0
   -7.5180   -0.4290    0.6500 N   0  0  1  0  0  0  0  0  0  0  0  0
   -8.5880   -1.2940    0.2660 C   0  0  0  0  0  0  0  0  0  0  0  0
   -6.3710   -0.6100   -0.2750 C   0  0  1  0  0  0  0  0  0  0  0  0
   -6.6050    0.1520   -1.5610 C   0  0  0  0  0  0  0  0  0  0  0  0
   -5.5350   -0.2600   -2.5340 C   0  0  0  0  0  0  0  0  0  0  0  0
   -4.9790   -1.5950   -2.2410 C   0  0  0  0  0  0  0  0  0  0  0  0
   -4.1090   -1.7900   -1.0790 C   0  0  0  0  0  0  0  0  0  0  0  0
   -3.8360   -0.7310   -0.1290 C   0  0  1  0  0  0  0  0  0  0  0  0
   -3.3510   -1.4640    1.1700 C   0  0  0  0  0  0  0  0  0  0  0  0
   -2.8850    0.3520   -0.3030 C   0  0  0  0  0  0  0  0  0  0  0  0
   -1.4170    0.0830   -0.5270 C   0  0  1  0  0  0  0  0  0  0  0  0
   -1.2880   -0.6260   -1.8180 C   0  0  0  0  0  0  0  0  0  0  0  0
   -0.7280    1.3970   -0.4970 C   0  0  0  0  0  0  0  0  0  0  0  0
    0.7570    1.4760   -0.6010 C   0  0  2  0  0  0  0  0  0  0  0  0
    1.4610    0.9890   -1.7930 C   0  0  0  0  0  0  0  0  0  0  0  0
    1.9420   -0.4010   -1.7140 C   0  0  0  0  0  0  0  0  0  0  0  0
    2.2780   -0.9950   -2.6910 O   0  0  0  0  0  0  0  0  0  0  0  0
    1.9930   -1.0350   -0.3790 C   0  0  0  0  0  0  0  0  0  0  0  0
    2.3420   -0.0120    0.6830 C   0  0  2  0  0  0  0  0  0  0  0  0
    3.7890    0.3590    0.6140 C   0  0  0  0  0  0  0  0  0  0  0  0
    4.4600    1.4660    0.1500 C   0  0  0  0  0  0  0  0  0  0  0  0
    5.8380    1.4740    0.1970 C   0  0  0  0  0  0  0  0  0  0  0  0
    6.5690    0.4170    0.6910 C   0  0  0  0  0  0  0  0  0  0  0  0
    8.0030    0.4190    0.7440 C   0  0  0  0  0  0  0  0  0  0  0  0
    8.5940   -0.5790    1.2530 O   0  0  0  0  0  0  0  0  0  0  0  0
    8.8190    1.4760    0.2600 N   0  0  0  0  0  0  0  0  0  0  0  0
   10.2480    1.4800    0.3140 C   0  0  0  0  0  0  0  0  0  0  0  0
   10.8900    0.3410   -0.4350 C   0  0  0  0  0  0  0  0  0  0  0  0
   12.3700    0.4070   -0.3380 C   0  0  0  0  0  0  0  0  0  0  0  0
   13.2470   -0.6010   -0.9760 C   0  0  0  0  0  0  0  0  0  0  0  0
   12.8820    1.3150    0.2830 O   0  0  0  0  0  0  0  0  0  0  0  0
    5.8710   -0.6860    1.1540 C   0  0  0  0  0  0  0  0  0  0  0  0
    4.4840   -0.7160    1.1170 C   0  0  0  0  0  0  0  0  0  0  0  0
    3.5100   -1.7330    1.5860 C   0  0  0  0  0  0  0  0  0  0  0  0
    3.6840   -2.9370    1.6100 O   0  0  0  0  0  0  0  0  0  0  0  0
    2.3530   -0.8380    1.9760 C   0  0  1  0  0  0  0  0  0  0  0  0
    2.8300   -0.0290    3.1460 C   0  0  0  0  0  0  0  0  0  0  0  0
    1.1270   -1.6170    2.2340 C   0  0  0  0  0  0  0  0  0  0  0  0
    1.3930    1.0940    0.7100 C   0  0  1  0  0  0  0  0  0  0  0  0
    1.8880    2.2490    1.3280 O   0  0  0  0  0  0  0  0  0  0  0  0
   -5.1460   -0.0540    0.3620 C   0  0  0  0  0  0  0  0  0  0  0  0
  1  2  1  0
  2  3  1  0
  3  4  2  0
  3  5  1  0
  5  6  1  0
  6  7  1  6
  6  8  1  0
  8  9  1  6
  8 46  1  0
  9 10  1  0
 10 11  1  0
 11 12  1  0
 12 13  1  0
 13 14  1  1
 13 15  1  0
 13 46  1  0
 15 16  1  0
 16 17  1  6
 16 18  1  0
 19 18  1  1
 19 20  1  0
 19 44  1  0
 20 21  1  0
 21 22  2  0
 21 23  1  0
 24 23  1  6
 24 25  1  0
 24 41  1  0
 24 44  1  0
 25 26  2  0
 25 38  1  0
 26 27  1  0
 27 28  2  0
 28 29  1  0
 28 37  1  0
 29 30  2  0
 29 31  1  0
 31 32  1  0
 32 33  1  0
 33 34  1  0
 34 35  1  0
 34 36  2  0
 37 38  2  0
 38 39  1  0
 39 40  2  0
 39 41  1  0
 41 42  1  1
 41 43  1  0
 44 45  1  6
M  CHG  1   6   1
M  END
