
     RDKit          3D

 40 42  0  0  0  0  0  0  0  0999 V2000
   -2.7360    7.8280   -1.5830 C   0  0  0  0  0  0  0  0  0  0  0  0
   -1.9460    6.6460   -2.0840 C   0  0  0  0  0  0  0  0  0  0  0  0
   -1.3740    5.8530   -0.8930 C   0  0  2  0  0  0  0  0  0  0  0  0
   -0.4920    6.7690   -0.1200 C   0  0  0  0  0  0  0  0  0  0  0  0
   -0.7810    4.7310   -1.4220 O   0  0  0  0  0  0  0  0  0  0  0  0
   -1.2440    3.4310   -1.4820 C   0  0  0  0  0  0  0  0  0  0  0  0
   -2.4640    3.0730   -1.0060 C   0  0  0  0  0  0  0  0  0  0  0  0
   -2.8710    1.7430   -1.1010 C   0  0  0  0  0  0  0  0  0  0  0  0
   -2.0840    0.7770   -1.6580 C   0  0  0  0  0  0  0  0  0  0  0  0
   -2.4740   -0.5710   -1.8130 N   0  0  0  0  0  0  0  0  0  0  0  0
   -3.6370   -1.1700   -1.2890 C   0  0  0  0  0  0  0  0  0  0  0  0
   -4.4460   -0.5230   -0.6200 O   0  0  0  0  0  0  0  0  0  0  0  0
   -3.9460   -2.5910   -1.5120 C   0  0  0  0  0  0  0  0  0  0  0  0
   -3.2190   -3.3530   -2.1930 O   0  0  0  0  0  0  0  0  0  0  0  0
   -5.1190   -3.1970   -0.9420 N   0  0  0  0  0  0  0  0  0  0  0  0
   -5.4160   -4.5980   -1.1580 C   0  0  2  0  0  0  0  0  0  0  0  0
   -6.7780   -4.8400   -1.7310 C   0  0  0  0  0  0  0  0  0  0  0  0
   -5.2330   -5.3840    0.0880 C   0  0  0  0  0  0  0  0  0  0  0  0
   -4.1760   -5.2900    0.9910 C   0  0  0  0  0  0  0  0  0  0  0  0
   -4.4280   -6.2020    1.9870 C   0  0  0  0  0  0  0  0  0  0  0  0
   -5.6250   -6.8030    1.6360 C   0  0  0  0  0  0  0  0  0  0  0  0
   -6.0510   -6.2880    0.5210 O   0  0  0  0  0  0  0  0  0  0  0  0
   -0.8250    1.1560   -2.1440 C   0  0  0  0  0  0  0  0  0  0  0  0
    0.0430    0.0940   -2.7030 C   0  0  0  0  0  0  0  0  0  0  0  0
    0.6830   -0.7110   -1.5700 C   0  0  0  0  0  0  0  0  0  0  0  0
    1.5650    0.1910   -0.7220 C   0  0  0  0  0  0  0  0  0  0  0  0
    2.1530   -0.5500    0.4140 C   0  0  0  0  0  0  0  0  0  0  0  0
    1.7290   -1.7050    0.6680 O   0  0  0  0  0  0  0  0  0  0  0  0
    3.1570    0.0070    1.2030 N   0  0  0  0  0  0  0  0  0  0  0  0
    3.7850    1.3040    0.9920 C   0  0  0  0  0  0  0  0  0  0  0  0
    5.1580    1.2070    1.5590 C   0  0  0  0  0  0  0  0  0  0  0  0
    5.2320   -0.1550    2.1920 C   0  0  2  0  0  0  0  0  0  0  0  0
    5.9080   -1.0890    1.2330 C   0  0  0  0  0  0  0  0  0  0  0  0
    6.0900   -2.7370    1.7920 S   0  0  2  0  0  0  0  0  0  0  0  0
    6.8760   -3.5330    0.7490 O   0  0  0  0  0  0  0  0  0  0  0  0
    4.7800   -3.4290    1.9650 O   0  0  0  0  0  0  0  0  0  0  0  0
    6.9880   -2.8670    3.2470 N   0  0  0  0  0  0  0  0  0  0  0  0
    8.3330   -2.3940    3.1480 C   0  0  0  0  0  0  0  0  0  0  0  0
    3.7940   -0.5280    2.4120 C   0  0  0  0  0  0  0  0  0  0  0  0
   -0.4280    2.4700   -2.0500 C   0  0  0  0  0  0  0  0  0  0  0  0
  1  2  1  0
  2  3  1  0
  3  4  1  6
  3  5  1  0
  5  6  1  0
  6  7  2  0
  6 40  1  0
  7  8  1  0
  8  9  2  0
  9 10  1  0
  9 23  1  0
 10 11  1  0
 11 12  2  0
 11 13  1  0
 13 14  2  0
 13 15  1  0
 15 16  1  0
 16 17  1  1
 16 18  1  0
 18 19  2  0
 18 22  1  0
 19 20  1  0
 20 21  2  0
 21 22  1  0
 23 24  1  0
 23 40  2  0
 24 25  1  0
 25 26  1  0
 26 27  1  0
 27 28  2  0
 27 29  1  0
 29 30  1  0
 29 39  1  0
 30 31  1  0
 31 32  1  0
 32 33  1  6
 32 39  1  0
 34 33  1  6
 34 35  2  0
 34 36  2  0
 34 37  1  0
 37 38  1  0
M  END
