
     RDKit          3D

 40 44  0  0  0  0  0  0  0  0999 V2000
   -7.0780   -4.1730    0.7800 N   0  0  0  0  0  0  0  0  0  0  0  0
   -6.0860   -3.8430   -0.1780 C   0  0  0  0  0  0  0  0  0  0  0  0
   -6.2280   -4.2290   -1.3890 N   0  0  0  0  0  0  0  0  0  0  0  0
   -4.9280   -3.0690    0.2570 C   0  0  0  0  0  0  0  0  0  0  0  0
   -3.9120   -2.7010   -0.5910 C   0  0  0  0  0  0  0  0  0  0  0  0
   -2.8110   -1.9600   -0.1610 C   0  0  0  0  0  0  0  0  0  0  0  0
   -2.7040   -1.5650    1.1530 C   0  0  0  0  0  0  0  0  0  0  0  0
   -1.6670   -0.8360    1.6780 O   0  0  0  0  0  0  0  0  0  0  0  0
   -0.5660   -0.3840    1.0120 C   0  0  0  0  0  0  0  0  0  0  0  0
    0.5230   -1.2040    0.8480 C   0  0  0  0  0  0  0  0  0  0  0  0
    1.6500   -0.7410    0.1660 C   0  0  0  0  0  0  0  0  0  0  0  0
    1.6270    0.5340   -0.3210 C   0  0  0  0  0  0  0  0  0  0  0  0
    2.7570    1.0170   -1.0390 N   0  0  0  0  0  0  0  0  0  0  0  0
    4.2900    1.1470   -0.3130 S   0  0  2  0  0  0  0  0  0  0  0  0
    4.2740    2.1550    0.8150 O   0  0  0  0  0  0  0  0  0  0  0  0
    5.2840    1.6620   -1.3420 O   0  0  0  0  0  0  0  0  0  0  0  0
    4.8890   -0.3890    0.2210 C   0  0  0  0  0  0  0  0  0  0  0  0
    4.7800   -0.7800    1.5530 C   0  0  0  0  0  0  0  0  0  0  0  0
    5.2720   -2.0090    1.9280 C   0  0  0  0  0  0  0  0  0  0  0  0
    5.8650   -2.8470    1.0070 C   0  0  0  0  0  0  0  0  0  0  0  0
    6.3550   -4.0770    1.3940 C   0  0  0  0  0  0  0  0  0  0  0  0
    6.9460   -4.9060    0.4610 C   0  0  0  0  0  0  0  0  0  0  0  0
    7.0560   -4.5250   -0.8610 C   0  0  0  0  0  0  0  0  0  0  0  0
    6.5660   -3.2940   -1.2460 C   0  0  0  0  0  0  0  0  0  0  0  0
    5.9660   -2.4480   -0.3110 C   0  0  0  0  0  0  0  0  0  0  0  0
    5.4750   -1.2190   -0.6900 C   0  0  0  0  0  0  0  0  0  0  0  0
    0.5090    1.3610   -0.1470 C   0  0  0  0  0  0  0  0  0  0  0  0
    0.6040    2.6270   -0.6840 O   0  0  0  0  0  0  0  0  0  0  0  0
   -0.3440    3.5920   -0.6390 C   0  0  0  0  0  0  0  0  0  0  0  0
   -0.4150    4.5150    0.3740 C   0  0  0  0  0  0  0  0  0  0  0  0
   -1.4170    5.5030    0.3840 C   0  0  0  0  0  0  0  0  0  0  0  0
   -2.3390    5.5690   -0.6060 C   0  0  0  0  0  0  0  0  0  0  0  0
   -3.3870    6.5650   -0.6400 C   0  0  0  0  0  0  0  0  0  0  0  0
   -4.3250    6.5450   -1.7430 N   0  0  0  0  0  0  0  0  0  0  0  0
   -3.5130    7.4530    0.2630 N   0  0  0  0  0  0  0  0  0  0  0  0
   -2.2730    4.6400   -1.6310 C   0  0  0  0  0  0  0  0  0  0  0  0
   -1.2890    3.6790   -1.6310 C   0  0  0  0  0  0  0  0  0  0  0  0
   -0.5340    0.8580    0.5120 N   0  0  0  0  0  0  0  0  0  0  0  0
   -3.7320   -1.9420    1.9910 C   0  0  0  0  0  0  0  0  0  0  0  0
   -4.8140   -2.6660    1.5870 C   0  0  0  0  0  0  0  0  0  0  0  0
  1  2  1  0
  2  3  2  0
  2  4  1  0
  4  5  2  0
  4 40  1  0
  5  6  1  0
  6  7  2  0
  7  8  1  0
  7 39  1  0
  8  9  1  0
  9 10  2  0
  9 38  1  0
 10 11  1  0
 11 12  2  0
 12 13  1  0
 12 27  1  0
 14 13  1  6
 14 15  2  0
 14 16  2  0
 14 17  1  0
 17 18  2  0
 17 26  1  0
 18 19  1  0
 19 20  2  0
 20 21  1  0
 20 25  1  0
 21 22  2  0
 22 23  1  0
 23 24  2  0
 24 25  1  0
 25 26  2  0
 27 28  1  0
 27 38  2  0
 28 29  1  0
 29 30  2  0
 29 37  1  0
 30 31  1  0
 31 32  2  0
 32 33  1  0
 32 36  1  0
 33 34  1  0
 33 35  2  0
 36 37  2  0
 39 40  2  0
M  CHG  2   3   1  35   1
M  END
