
     RDKit          3D

 47 52  0  0  0  0  0  0  0  0999 V2000
    7.6320   -1.6500    0.4930 C   0  0  0  0  0  0  0  0  0  0  0  0
    7.4990   -0.9310   -0.7020 O   0  0  0  0  0  0  0  0  0  0  0  0
    6.9080    0.3390   -0.7830 C   0  0  0  0  0  0  0  0  0  0  0  0
    7.6610    1.4890   -0.6360 C   0  0  0  0  0  0  0  0  0  0  0  0
    9.0270    1.3940   -0.4040 O   0  0  0  0  0  0  0  0  0  0  0  0
    7.0470    2.7250   -0.7220 C   0  0  0  0  0  0  0  0  0  0  0  0
    5.7000    2.8650   -0.9500 C   0  0  0  0  0  0  0  0  0  0  0  0
    4.9540    1.7280   -1.0960 C   0  0  0  0  0  0  0  0  0  0  0  0
    5.5410    0.4570   -1.0150 C   0  0  0  0  0  0  0  0  0  0  0  0
    4.6920   -0.6250   -1.1760 O   0  0  0  0  0  0  0  0  0  0  0  0
    3.4510   -0.6310   -0.4950 C   0  0  1  0  0  0  0  0  0  0  0  0
    2.8890    0.7690   -0.3370 C   0  0  0  0  0  0  0  0  0  0  0  0
    3.4940    1.6860   -1.3550 C   0  0  1  0  0  0  0  0  0  0  0  0
    2.8360    2.9580   -1.5320 C   0  0  0  0  0  0  0  0  0  0  0  0
    3.3520    3.7390   -2.4100 O   0  0  0  0  0  0  0  0  0  0  0  0
    1.7510    3.3640   -0.8590 O   0  0  0  0  0  0  0  0  0  0  0  0
    1.4580    3.6150    0.4730 C   0  0  1  0  0  0  0  0  0  0  0  0
    1.8510    5.0560    0.7840 C   0  0  0  0  0  0  0  0  0  0  0  0
    0.0230    3.2230    0.7400 C   0  0  0  0  0  0  0  0  0  0  0  0
   -1.0290    4.0780    0.5120 C   0  0  0  0  0  0  0  0  0  0  0  0
   -2.3600    3.6580    0.7740 C   0  0  0  0  0  0  0  0  0  0  0  0
   -2.6910    2.4180    1.2520 C   0  0  0  0  0  0  0  0  0  0  0  0
   -1.6180    1.5910    1.4670 C   0  0  0  0  0  0  0  0  0  0  0  0
   -0.2710    1.9630    1.2210 C   0  0  0  0  0  0  0  0  0  0  0  0
   -4.0330    2.0120    1.5080 O   0  0  0  0  0  0  0  0  0  0  0  0
   -4.9340    1.4560    0.6120 C   0  0  1  0  0  0  0  0  0  0  0  0
   -5.2530    2.3500   -0.5650 C   0  0  0  0  0  0  0  0  0  0  0  0
   -4.4300    1.9720   -1.7780 C   0  0  0  0  0  0  0  0  0  0  0  0
   -4.9540    0.6390   -2.2640 C   0  0  0  0  0  0  0  0  0  0  0  0
   -5.4940   -0.1620   -1.1100 C   0  0  0  0  0  0  0  0  0  0  0  0
   -4.5630    0.0910    0.0840 C   0  0  2  0  0  0  0  0  0  0  0  0
   -4.8590   -0.8970    1.1130 N   0  0  0  0  0  0  0  0  0  0  0  0
   -6.0630   -0.6380    1.9020 C   0  0  0  0  0  0  0  0  0  0  0  0
   -4.0530   -2.0320    1.3430 C   0  0  0  0  0  0  0  0  0  0  0  0
   -4.5960   -3.0690    1.8010 O   0  0  0  0  0  0  0  0  0  0  0  0
   -2.5940   -2.1180    1.0890 C   0  0  0  0  0  0  0  0  0  0  0  0
   -2.3330   -3.4930    0.4670 C   0  0  1  0  0  0  0  0  0  0  0  0
   -3.1830   -3.7240   -0.7430 C   0  0  0  0  0  0  0  0  0  0  0  0
   -0.9270   -3.7300    0.2480 N   0  0  1  0  0  0  0  0  0  0  0  0
   -0.4960   -3.6890   -1.1090 C   0  0  0  0  0  0  0  0  0  0  0  0
    0.2140   -2.4490   -1.5520 C   0  0  0  0  0  0  0  0  0  0  0  0
    1.1990   -1.9110   -0.5800 C   0  0  1  0  0  0  0  0  0  0  0  0
    1.3110   -2.9520    0.5440 C   0  0  0  0  0  0  0  0  0  0  0  0
   -0.0990   -2.9470    1.1560 C   0  0  2  0  0  0  0  0  0  0  0  0
    0.0180   -3.5780    2.5160 C   0  0  0  0  0  0  0  0  0  0  0  0
    2.4960   -1.5580   -1.1680 C   0  0  0  0  0  0  0  0  0  0  0  0
    2.8010   -2.0410   -2.2460 O   0  0  0  0  0  0  0  0  0  0  0  0
  1  2  1  0
  2  3  1  0
  3  4  2  0
  3  9  1  0
  4  5  1  0
  4  6  1  0
  6  7  2  0
  7  8  1  0
  8  9  2  0
  8 13  1  0
  9 10  1  0
 11 10  1  6
 11 12  1  0
 11 46  1  0
 12 13  1  0
 13 14  1  1
 14 15  2  0
 14 16  1  0
 16 17  1  0
 17 18  1  6
 17 19  1  0
 19 20  2  0
 19 24  1  0
 20 21  1  0
 21 22  2  0
 22 23  1  0
 22 25  1  0
 23 24  2  0
 25 26  1  0
 26 27  1  6
 26 31  1  0
 27 28  1  0
 28 29  1  0
 29 30  1  0
 31 30  1  6
 31 32  1  0
 32 33  1  0
 32 34  1  0
 34 35  2  0
 34 36  1  0
 36 37  1  0
 37 38  1  6
 37 39  1  0
 39 40  1  6
 39 44  1  0
 40 41  1  0
 41 42  1  0
 42 43  1  1
 42 46  1  0
 43 44  1  0
 44 45  1  1
 46 47  2  0
M  CHG  1  39   1
M  END
