
     RDKit          3D

 46 51  0  0  0  0  0  0  0  0999 V2000
    8.3710   -2.9910    1.6890 C   0  0  0  0  0  0  0  0  0  0  0  0
    7.2910   -2.4890    0.7470 C   0  0  1  0  0  0  0  0  0  0  0  0
    6.5620   -1.3290    1.3710 C   0  0  0  0  0  0  0  0  0  0  0  0
    6.0330   -0.3740    0.2860 C   0  0  2  0  0  0  0  0  0  0  0  0
    5.0670   -1.1240   -0.4510 N   0  0  0  0  0  0  0  0  0  0  0  0
    3.9070   -0.4390   -0.8910 C   0  0  0  0  0  0  0  0  0  0  0  0
    2.8280   -0.2240    0.1190 C   0  0  2  0  0  0  0  0  0  0  0  0
    2.2810   -1.4830    0.7060 C   0  0  0  0  0  0  0  0  0  0  0  0
    1.6990    0.4840   -0.5960 C   0  0  0  0  0  0  0  0  0  0  0  0
    0.7410    1.1730    0.3320 C   0  0  1  0  0  0  0  0  0  0  0  0
   -0.3670    0.3580    0.7190 N   0  0  0  0  0  0  0  0  0  0  0  0
   -1.6170    0.7740    0.1140 C   0  0  2  0  0  0  0  0  0  0  0  0
   -2.2330    1.9480    0.8240 C   0  0  0  0  0  0  0  0  0  0  0  0
   -3.7060    1.8450    0.4850 C   0  0  0  0  0  0  0  0  0  0  0  0
   -3.9490    0.4850   -0.0670 C   0  0  2  0  0  0  0  0  0  0  0  0
   -5.1480   -0.2010    0.5560 C   0  0  0  0  0  0  0  0  0  0  0  0
   -6.4320    0.5910    0.3280 C   0  0  2  0  0  0  0  0  0  0  0  0
   -7.5270   -0.1750    0.9820 C   0  0  0  0  0  0  0  0  0  0  0  0
   -8.5680   -0.6440    0.1090 N   0  0  0  0  0  0  0  0  0  0  0  0
   -9.2310   -1.8810    0.3620 C   0  0  0  0  0  0  0  0  0  0  0  0
  -10.1830   -1.9950    1.3370 C   0  0  0  0  0  0  0  0  0  0  0  0
  -10.7830   -3.2270    1.5300 C   0  0  0  0  0  0  0  0  0  0  0  0
  -10.4660   -4.3350    0.7880 C   0  0  0  0  0  0  0  0  0  0  0  0
   -9.5020   -4.1720   -0.1840 C   0  0  0  0  0  0  0  0  0  0  0  0
   -8.8910   -2.9670   -0.3970 C   0  0  0  0  0  0  0  0  0  0  0  0
   -8.8970    0.1790   -0.9990 C   0  0  0  0  0  0  0  0  0  0  0  0
   -9.9230   -0.0700   -1.6560 O   0  0  0  0  0  0  0  0  0  0  0  0
   -7.9790    1.3000   -1.3060 C   0  0  1  0  0  0  0  0  0  0  0  0
   -8.2930    2.5640   -0.5580 C   0  0  0  0  0  0  0  0  0  0  0  0
   -9.6640    3.0900   -0.8440 C   0  0  0  0  0  0  0  0  0  0  0  0
  -10.6370    2.1730   -0.4940 O   0  0  0  0  0  0  0  0  0  0  0  0
   -6.6480    0.8420   -1.0590 N   0  0  0  0  0  0  0  0  0  0  0  0
   -2.6780   -0.2710    0.2150 C   0  0  0  0  0  0  0  0  0  0  0  0
    1.4380    1.8150    1.5100 C   0  0  0  0  0  0  0  0  0  0  0  0
    2.9050    1.8440    1.1490 C   0  0  0  0  0  0  0  0  0  0  0  0
    3.3630    0.5390    1.1480 O   0  0  0  0  0  0  0  0  0  0  0  0
    7.1750    0.0770   -0.5690 C   0  0  0  0  0  0  0  0  0  0  0  0
    8.0230   -0.8390   -0.9590 C   0  0  0  0  0  0  0  0  0  0  0  0
    9.1690   -0.4260   -1.8120 C   0  0  0  0  0  0  0  0  0  0  0  0
    9.7480    0.8650   -1.2810 C   0  0  2  0  0  0  0  0  0  0  0  0
   10.9070    1.3290   -2.1350 C   0  0  0  0  0  0  0  0  0  0  0  0
   10.2910    0.5770    0.1030 C   0  0  0  0  0  0  0  0  0  0  0  0
    8.7220    1.9750   -1.2700 C   0  0  0  0  0  0  0  0  0  0  0  0
    7.3620    1.4520   -0.9590 C   0  0  0  0  0  0  0  0  0  0  0  0
    6.3810    2.2100   -1.0360 O   0  0  0  0  0  0  0  0  0  0  0  0
    7.8220   -2.1850   -0.5540 N   0  0  0  0  0  0  0  0  0  0  0  0
  2  1  1  1
  2  3  1  0
  2 46  1  0
  3  4  1  0
  4  5  1  6
  4 37  1  0
  5  6  1  0
  6  7  1  0
  7  8  1  1
  7  9  1  0
  7 36  1  0
  9 10  1  0
 10 11  1  1
 10 34  1  0
 12 11  1  1
 12 13  1  0
 12 33  1  0
 13 14  1  0
 14 15  1  0
 15 16  1  1
 15 33  1  0
 17 16  1  6
 17 18  1  0
 17 32  1  0
 18 19  1  0
 19 20  1  0
 19 26  1  0
 20 21  2  0
 20 25  1  0
 21 22  1  0
 22 23  2  0
 23 24  1  0
 24 25  2  0
 26 27  2  0
 26 28  1  0
 28 29  1  1
 28 32  1  0
 29 30  1  0
 30 31  1  0
 34 35  1  0
 35 36  1  0
 37 38  2  0
 37 44  1  0
 38 39  1  0
 38 46  1  0
 39 40  1  0
 40 41  1  6
 40 42  1  0
 40 43  1  0
 43 44  1  0
 44 45  2  0
M  CHG  3   5   1  11   1  32   1
M  END
