
     RDKit          3D

 46 50  0  0  0  0  0  0  0  0999 V2000
    9.2780    2.0200   -0.1340 C   0  0  0  0  0  0  0  0  0  0  0  0
    8.2640    1.4690   -1.0740 C   0  0  0  0  0  0  0  0  0  0  0  0
    8.5800    1.3850   -2.4090 C   0  0  0  0  0  0  0  0  0  0  0  0
    7.6330    0.8740   -3.2590 C   0  0  0  0  0  0  0  0  0  0  0  0
    6.4040    0.4640   -2.7540 C   0  0  0  0  0  0  0  0  0  0  0  0
    6.0650    0.5380   -1.4210 C   0  0  0  0  0  0  0  0  0  0  0  0
    4.8520    0.1360   -0.8970 O   0  0  0  0  0  0  0  0  0  0  0  0
    3.7520   -0.3930   -1.5340 C   0  0  1  0  0  0  0  0  0  0  0  0
    3.5980   -1.8950   -1.2430 C   0  0  0  0  0  0  0  0  0  0  0  0
    2.4940    0.3520   -1.4280 C   0  0  0  0  0  0  0  0  0  0  0  0
    1.8460    0.6380   -0.1630 C   0  0  2  0  0  0  0  0  0  0  0  0
    2.6360    1.4420    0.8400 C   0  0  0  0  0  0  0  0  0  0  0  0
    2.4150    2.8630    0.8020 N   0  0  0  0  0  0  0  0  0  0  0  0
    1.5980    3.6300    1.7010 C   0  0  0  0  0  0  0  0  0  0  0  0
    2.1030    4.7000    2.1320 O   0  0  0  0  0  0  0  0  0  0  0  0
    0.2870    3.2380    2.1060 C   0  0  0  0  0  0  0  0  0  0  0  0
   -0.8490    3.0730    1.4450 C   0  0  0  0  0  0  0  0  0  0  0  0
   -1.2970    3.2050    0.1170 C   0  0  0  0  0  0  0  0  0  0  0  0
   -2.4310    3.5240   -0.5030 C   0  0  0  0  0  0  0  0  0  0  0  0
   -3.7460    3.8770   -0.0040 C   0  0  0  0  0  0  0  0  0  0  0  0
   -4.2620    5.0880   -0.4210 C   0  0  0  0  0  0  0  0  0  0  0  0
   -5.4940    5.5300   -0.0080 C   0  0  0  0  0  0  0  0  0  0  0  0
   -6.2150    4.7480    0.8330 C   0  0  0  0  0  0  0  0  0  0  0  0
   -5.7250    3.5460    1.2570 C   0  0  0  0  0  0  0  0  0  0  0  0
   -4.4640    3.0280    0.8700 C   0  0  0  0  0  0  0  0  0  0  0  0
   -4.1060    1.8090    1.3290 N   0  0  0  0  0  0  0  0  0  0  0  0
   -3.7790    0.6340    1.1690 C   0  0  0  0  0  0  0  0  0  0  0  0
   -3.5450   -0.2960    0.0750 C   0  0  0  0  0  0  0  0  0  0  0  0
   -2.3970   -0.6240   -0.5280 C   0  0  0  0  0  0  0  0  0  0  0  0
   -1.0480   -0.0780   -0.1740 C   0  0  0  0  0  0  0  0  0  0  0  0
    0.0090   -1.0540   -0.0490 N   0  0  2  0  0  0  0  0  0  0  0  0
   -0.3760   -2.2390    0.6410 C   0  0  1  0  0  0  0  0  0  0  0  0
    0.4930   -3.3750    0.0700 C   0  0  0  0  0  0  0  0  0  0  0  0
    0.1520   -4.5650    0.7000 O   0  0  0  0  0  0  0  0  0  0  0  0
   -0.1110   -2.2300    2.1260 C   0  0  2  0  0  0  0  0  0  0  0  0
   -0.4940   -3.4080    2.9510 C   0  0  0  0  0  0  0  0  0  0  0  0
   -1.3070   -2.1130    3.0510 C   0  0  0  0  0  0  0  0  0  0  0  0
    1.1920   -0.5040    0.5790 C   0  0  0  0  0  0  0  0  0  0  0  0
   -2.4540   -1.5060   -1.6590 N   0  0  0  0  0  0  0  0  0  0  0  0
   -3.3060   -2.6530   -1.6180 C   0  0  0  0  0  0  0  0  0  0  0  0
   -4.3430   -2.5140   -0.6170 N   0  0  2  0  0  0  0  0  0  0  0  0
   -5.4850   -3.2790   -1.0620 C   0  0  0  0  0  0  0  0  0  0  0  0
   -5.2660   -4.7650   -0.9130 C   0  0  0  0  0  0  0  0  0  0  0  0
   -6.4470   -5.3840   -1.3800 O   0  0  0  0  0  0  0  0  0  0  0  0
   -4.7140   -1.1090   -0.4670 C   0  0  0  0  0  0  0  0  0  0  0  0
    7.0560    1.0630   -0.5890 C   0  0  0  0  0  0  0  0  0  0  0  0
  1  2  1  0
  2  3  2  0
  2 46  1  0
  3  4  1  0
  4  5  2  0
  5  6  1  0
  6  7  1  0
  6 46  2  0
  7  8  1  0
  8  9  1  1
  8 10  1  0
 11 10  1  6
 11 12  1  0
 11 38  1  0
 12 13  1  0
 13 14  1  0
 14 15  2  0
 14 16  1  0
 16 17  2  0
 17 18  1  0
 18 19  2  0
 19 20  1  0
 20 21  2  0
 20 25  1  0
 21 22  1  0
 22 23  2  0
 23 24  1  0
 24 25  2  0
 25 26  1  0
 26 27  2  0
 27 28  1  0
 28 29  2  0
 28 45  1  0
 29 30  1  0
 29 39  1  0
 31 30  1  1
 31 32  1  0
 31 38  1  0
 32 33  1  6
 32 35  1  0
 33 34  1  0
 35 36  1  1
 35 37  1  0
 36 37  1  0
 39 40  1  0
 40 41  1  0
 41 42  1  6
 41 45  1  0
 42 43  1  0
 43 44  1  0
M  CHG  2  31   1  41   1
M  END
