
     RDKit          3D

 37 40  0  0  0  0  0  0  0  0999 V2000
    7.7470    0.5280    1.6210 N   0  0  0  0  0  0  0  0  0  0  0  0
    7.2800   -0.3390    0.5510 C   0  0  0  0  0  0  0  0  0  0  0  0
    8.1130   -0.7890   -0.3040 N   0  0  0  0  0  0  0  0  0  0  0  0
    5.8670   -0.6690    0.4900 C   0  0  0  0  0  0  0  0  0  0  0  0
    5.0420   -0.1210    1.4780 C   0  0  0  0  0  0  0  0  0  0  0  0
    3.7080   -0.4360    1.4150 C   0  0  0  0  0  0  0  0  0  0  0  0
    3.2080   -1.2480    0.4300 C   0  0  0  0  0  0  0  0  0  0  0  0
    1.8640   -1.5180    0.4320 O   0  0  0  0  0  0  0  0  0  0  0  0
    0.9380   -0.7080   -0.2580 C   0  0  0  0  0  0  0  0  0  0  0  0
    1.3370    0.4020   -0.9730 C   0  0  0  0  0  0  0  0  0  0  0  0
    0.4060    1.1720   -1.6360 C   0  0  0  0  0  0  0  0  0  0  0  0
   -0.9290    0.8730   -1.6130 C   0  0  0  0  0  0  0  0  0  0  0  0
   -1.9220    1.6210   -2.2780 N   0  0  0  0  0  0  0  0  0  0  0  0
   -1.7560    3.2290   -2.8170 S   0  0  1  0  0  0  0  0  0  0  0  0
   -0.6670    3.3530   -3.8740 O   0  0  0  0  0  0  0  0  0  0  0  0
   -3.0220    3.6750   -3.5190 O   0  0  0  0  0  0  0  0  0  0  0  0
   -1.4600    4.3810   -1.5430 C   0  0  0  0  0  0  0  0  0  0  0  0
   -0.1870    4.7590   -1.1870 C   0  0  0  0  0  0  0  0  0  0  0  0
    0.0370    5.6830   -0.1580 C   0  0  0  0  0  0  0  0  0  0  0  0
   -1.0190    6.2420    0.5280 C   0  0  0  0  0  0  0  0  0  0  0  0
   -0.8350    7.1440    1.5350 F   0  0  0  0  0  0  0  0  0  0  0  0
   -2.2860    5.8740    0.1830 C   0  0  0  0  0  0  0  0  0  0  0  0
   -2.5080    4.9630   -0.8310 C   0  0  0  0  0  0  0  0  0  0  0  0
   -1.3200   -0.2720   -0.8720 C   0  0  0  0  0  0  0  0  0  0  0  0
   -2.6510   -0.5740   -0.8460 O   0  0  0  0  0  0  0  0  0  0  0  0
   -3.2600   -1.6060   -0.2140 C   0  0  0  0  0  0  0  0  0  0  0  0
   -4.6590   -1.7140   -0.3310 C   0  0  0  0  0  0  0  0  0  0  0  0
   -5.3410   -2.7250    0.2760 C   0  0  0  0  0  0  0  0  0  0  0  0
   -4.7240   -3.6810    1.0230 C   0  0  0  0  0  0  0  0  0  0  0  0
   -5.4490   -4.7540    1.6670 C   0  0  0  0  0  0  0  0  0  0  0  0
   -4.7250   -5.7050    2.4260 N   0  0  0  0  0  0  0  0  0  0  0  0
   -6.7140   -4.8820    1.5830 N   0  0  0  0  0  0  0  0  0  0  0  0
   -3.3290   -3.6020    1.1600 C   0  0  0  0  0  0  0  0  0  0  0  0
   -2.6710   -2.5810    0.5420 C   0  0  0  0  0  0  0  0  0  0  0  0
   -0.3660   -0.9740   -0.2530 N   0  0  0  0  0  0  0  0  0  0  0  0
    4.0150   -1.7830   -0.5360 C   0  0  0  0  0  0  0  0  0  0  0  0
    5.3710   -1.4760   -0.4900 C   0  0  0  0  0  0  0  0  0  0  0  0
  1  2  1  0
  2  3  2  0
  2  4  1  0
  4  5  2  0
  4 37  1  0
  5  6  1  0
  6  7  2  0
  7  8  1  0
  7 36  1  0
  8  9  1  0
  9 10  2  0
  9 35  1  0
 10 11  1  0
 11 12  2  0
 12 13  1  0
 12 24  1  0
 14 13  1  1
 14 15  2  0
 14 16  2  0
 14 17  1  0
 17 18  2  0
 17 23  1  0
 18 19  1  0
 19 20  2  0
 20 21  1  0
 20 22  1  0
 22 23  2  0
 24 25  1  0
 24 35  2  0
 25 26  1  0
 26 27  2  0
 26 34  1  0
 27 28  1  0
 28 29  2  0
 29 30  1  0
 29 33  1  0
 30 31  1  0
 30 32  2  0
 33 34  2  0
 36 37  2  0
M  CHG  2   3   1  32   1
M  END
