
     RDKit          3D

 46 50  0  0  0  0  0  0  0  0999 V2000
   -3.8050   -3.6150    3.5950 C   0  0  0  0  0  0  0  0  0  0  0  0
   -3.9620   -2.2120    3.0960 C   0  0  0  0  0  0  0  0  0  0  0  0
   -3.9760   -1.9860    1.7190 C   0  0  0  0  0  0  0  0  0  0  0  0
   -4.1150   -0.7430    1.1850 C   0  0  0  0  0  0  0  0  0  0  0  0
   -4.1500   -0.4180   -0.2250 C   0  0  2  0  0  0  0  0  0  0  0  0
   -4.3070   -1.5530   -1.1910 C   0  0  0  0  0  0  0  0  0  0  0  0
   -3.8140   -1.1440   -2.4830 N   0  0  0  0  0  0  0  0  0  0  0  0
   -4.1860    0.1960   -2.8700 C   0  0  2  0  0  0  0  0  0  0  0  0
   -3.4870    0.4730   -4.1930 C   0  0  1  0  0  0  0  0  0  0  0  0
   -3.9370   -0.5240   -5.2230 C   0  0  0  0  0  0  0  0  0  0  0  0
   -3.7030    1.8750   -4.6740 C   0  0  0  0  0  0  0  0  0  0  0  0
   -3.7080    1.2450   -1.9000 C   0  0  0  0  0  0  0  0  0  0  0  0
   -3.1600    0.4660   -0.7470 N   0  0  0  0  0  0  0  0  0  0  0  0
   -1.8690    0.7100   -0.3680 C   0  0  0  0  0  0  0  0  0  0  0  0
   -1.2920    1.6640   -1.0660 O   0  0  0  0  0  0  0  0  0  0  0  0
   -0.9860    0.1150    0.6770 C   0  0  1  0  0  0  0  0  0  0  0  0
   -0.8500   -1.3800    0.5700 C   0  0  0  0  0  0  0  0  0  0  0  0
    0.2500    0.8130    0.8040 N   0  0  1  0  0  0  0  0  0  0  0  0
    0.3580    1.3900    2.1590 C   0  0  0  0  0  0  0  0  0  0  0  0
    0.4300    2.8640    2.1430 C   0  0  0  0  0  0  0  0  0  0  0  0
    1.6560    3.4820    2.2510 C   0  0  0  0  0  0  0  0  0  0  0  0
    1.7550    4.8680    2.2340 C   0  0  0  0  0  0  0  0  0  0  0  0
    0.6030    5.6550    2.1060 C   0  0  0  0  0  0  0  0  0  0  0  0
   -0.6220    5.0350    1.9980 C   0  0  0  0  0  0  0  0  0  0  0  0
   -0.6990    3.6440    2.0170 C   0  0  0  0  0  0  0  0  0  0  0  0
    1.4940    0.3070    0.4910 C   0  0  1  0  0  0  0  0  0  0  0  0
    2.0910   -0.8040    1.2690 C   0  0  0  0  0  0  0  0  0  0  0  0
    2.9340   -1.5580    0.2290 C   0  0  0  0  0  0  0  0  0  0  0  0
    3.2890   -0.4510   -0.6650 N   0  0  1  0  0  0  0  0  0  0  0  0
    3.7790   -0.8820   -1.9370 C   0  0  0  0  0  0  0  0  0  0  0  0
    5.2400   -1.1410   -1.9850 C   0  0  0  0  0  0  0  0  0  0  0  0
    5.6950   -1.5190   -3.0880 O   0  0  0  0  0  0  0  0  0  0  0  0
    6.1150   -0.9910   -0.9000 N   0  0  0  0  0  0  0  0  0  0  0  0
    7.4990   -1.2100   -0.8580 C   0  0  0  0  0  0  0  0  0  0  0  0
    8.2850   -1.5210   -1.9140 C   0  0  0  0  0  0  0  0  0  0  0  0
    9.6400   -1.7270   -1.7830 C   0  0  0  0  0  0  0  0  0  0  0  0
   10.2690   -1.6290   -0.5770 C   0  0  0  0  0  0  0  0  0  0  0  0
    9.4940   -1.3130    0.5200 C   0  0  0  0  0  0  0  0  0  0  0  0
    8.1380   -1.1080    0.3810 C   0  0  0  0  0  0  0  0  0  0  0  0
    1.9220    0.0720   -0.9140 C   0  0  0  0  0  0  0  0  0  0  0  0
   -4.2480    0.3310    2.0770 C   0  0  0  0  0  0  0  0  0  0  0  0
   -4.3930    1.6260    1.5880 O   0  0  0  0  0  0  0  0  0  0  0  0
   -4.2340    0.1120    3.4360 C   0  0  0  0  0  0  0  0  0  0  0  0
   -4.0910   -1.1670    3.9680 C   0  0  0  0  0  0  0  0  0  0  0  0
   -4.0770   -1.3910    5.4060 C   0  0  0  0  0  0  0  0  0  0  0  0
   -3.9530   -2.5060    5.9460 O   0  0  0  0  0  0  0  0  0  0  0  0
  1  2  1  0
  2  3  2  0
  2 44  1  0
  3  4  1  0
  5  4  1  1
  4 41  2  0
  5  6  1  0
  5 13  1  0
  6  7  1  0
  7  8  1  0
  8  9  1  0
  8 12  1  1
  9 10  1  6
  9 11  1  0
 12 13  1  0
 13 14  1  0
 14 15  2  0
 14 16  1  0
 16 17  1  6
 16 18  1  0
 18 19  1  1
 18 26  1  0
 19 20  1  0
 20 21  2  0
 20 25  1  0
 21 22  1  0
 22 23  2  0
 23 24  1  0
 24 25  2  0
 26 27  1  1
 26 40  1  0
 27 28  1  0
 28 29  1  0
 29 30  1  6
 29 40  1  0
 30 31  1  0
 31 32  2  0
 31 33  1  0
 33 34  1  0
 34 35  2  0
 34 39  1  0
 35 36  1  0
 36 37  2  0
 37 38  1  0
 38 39  2  0
 41 42  1  0
 41 43  1  0
 43 44  2  0
 44 45  1  0
 45 46  2  0
M  CHG  3   7   1  18   1  29   1
M  END
