
     RDKit          3D

 46 49  0  0  0  0  0  0  0  0999 V2000
   -2.4920   -0.0850    5.9020 C   0  0  0  0  0  0  0  0  0  0  0  0
   -2.3350    0.0890    4.4440 C   0  0  0  0  0  0  0  0  0  0  0  0
   -3.3750    0.4270    3.6990 C   0  0  0  0  0  0  0  0  0  0  0  0
   -3.1650    0.5820    2.2840 C   0  0  0  0  0  0  0  0  0  0  0  0
   -4.1980    0.9040    1.5490 C   0  0  0  0  0  0  0  0  0  0  0  0
   -5.5180    1.1240    2.1240 C   0  0  0  0  0  0  0  0  0  0  0  0
   -5.7600    0.9930    3.4030 C   0  0  0  0  0  0  0  0  0  0  0  0
   -4.6950    0.6100    4.3450 C   0  0  0  0  0  0  0  0  0  0  0  0
   -6.6580    1.5240    1.3650 O   0  0  0  0  0  0  0  0  0  0  0  0
   -6.5140    2.6040    0.4310 C   0  0  0  0  0  0  0  0  0  0  0  0
   -7.5030    3.7140    0.4760 C   0  0  0  0  0  0  0  0  0  0  0  0
   -5.5410    2.6640   -0.4800 C   0  0  0  0  0  0  0  0  0  0  0  0
   -4.4350    1.7210   -0.7730 C   0  0  0  0  0  0  0  0  0  0  0  0
   -3.8320    1.8240   -2.0960 C   0  0  1  0  0  0  0  0  0  0  0  0
   -4.5250    1.1270   -3.2140 C   0  0  0  0  0  0  0  0  0  0  0  0
   -5.7420    1.8560   -3.7300 C   0  0  0  0  0  0  0  0  0  0  0  0
   -5.5680    3.2100   -3.8230 O   0  0  0  0  0  0  0  0  0  0  0  0
   -4.2870    3.6750   -3.7290 C   0  0  0  0  0  0  0  0  0  0  0  0
   -3.5400    3.2820   -2.4770 C   0  0  0  0  0  0  0  0  0  0  0  0
   -3.8430    0.9190    0.1140 C   0  0  0  0  0  0  0  0  0  0  0  0
   -3.0220   -0.0770   -0.3860 N   0  0  0  0  0  0  0  0  0  0  0  0
   -2.2660   -1.1370    0.1410 C   0  0  0  0  0  0  0  0  0  0  0  0
   -2.2600   -1.4460    1.3190 O   0  0  0  0  0  0  0  0  0  0  0  0
   -1.4190   -1.9540   -0.7100 N   0  0  0  0  0  0  0  0  0  0  0  0
   -0.5870   -3.0230   -0.1670 C   0  0  1  0  0  0  0  0  0  0  0  0
   -1.3940   -4.3470   -0.2300 C   0  0  0  0  0  0  0  0  0  0  0  0
    0.6080   -3.2690   -1.0660 C   0  0  0  0  0  0  0  0  0  0  0  0
    1.4750   -2.0900   -1.2420 C   0  0  1  0  0  0  0  0  0  0  0  0
    2.0950   -1.5750    0.0710 C   0  0  2  0  0  0  0  0  0  0  0  0
    1.2090   -0.6080    0.8060 C   0  0  0  0  0  0  0  0  0  0  0  0
    3.2490   -0.8150   -0.4570 C   0  0  1  0  0  0  0  0  0  0  0  0
    4.2700   -0.3680    0.4050 N   0  0  0  0  0  0  0  0  0  0  0  0
    4.7320   -1.2210    1.4300 C   0  0  0  0  0  0  0  0  0  0  0  0
    5.1740   -0.4730    2.6470 C   0  0  0  0  0  0  0  0  0  0  0  0
    6.2850    0.4750    2.5530 C   0  0  0  0  0  0  0  0  0  0  0  0
    6.1850    1.6970    1.7330 C   0  0  0  0  0  0  0  0  0  0  0  0
    5.1480    2.6340    2.1350 N   0  0  2  0  0  0  0  0  0  0  0  0
    4.8150    3.4450    0.9800 C   0  0  0  0  0  0  0  0  0  0  0  0
    5.6890    3.5930    3.1200 C   0  0  0  0  0  0  0  0  0  0  0  0
    3.7080   -1.7210   -1.5900 C   0  0  0  0  0  0  0  0  0  0  0  0
    2.4270   -2.0720   -2.2530 N   0  0  1  0  0  0  0  0  0  0  0  0
    2.6480   -3.0970   -3.1810 C   0  0  2  0  0  0  0  0  0  0  0  0
    2.6840   -4.5090   -2.7460 C   0  0  0  0  0  0  0  0  0  0  0  0
    4.0780   -2.8380   -3.7410 C   0  0  0  0  0  0  0  0  0  0  0  0
    1.7630   -2.8850   -4.4160 C   0  0  0  0  0  0  0  0  0  0  0  0
    2.0790   -1.6380   -5.0160 O   0  0  0  0  0  0  0  0  0  0  0  0
  1  2  1  0
  2  3  2  3
  3  4  1  0
  3  8  1  0
  4  5  2  0
  5  6  1  0
  5 20  1  0
  6  7  2  0
  6  9  1  0
  7  8  1  0
  9 10  1  0
 10 11  1  0
 10 12  2  0
 12 13  1  0
 14 13  1  1
 13 20  2  0
 14 15  1  0
 14 19  1  0
 15 16  1  0
 16 17  1  0
 17 18  1  0
 18 19  1  0
 20 21  1  0
 21 22  1  0
 22 23  2  0
 22 24  1  0
 24 25  1  0
 25 26  1  6
 25 27  1  0
 28 27  1  1
 28 29  1  0
 28 41  1  0
 29 30  1  6
 29 31  1  0
 31 32  1  1
 31 40  1  0
 32 33  1  0
 33 34  1  0
 34 35  1  0
 35 36  1  0
 36 37  1  0
 37 38  1  6
 37 39  1  0
 41 40  1  1
 41 42  1  0
 42 43  1  1
 42 44  1  0
 42 45  1  0
 45 46  1  0
M  CHG  3  32   1  37   1  41   1
M  END
