
     RDKit          3D

 46 50  0  0  0  0  0  0  0  0999 V2000
    0.0780   -3.7500    1.0720 C   0  0  0  0  0  0  0  0  0  0  0  0
    0.9710   -3.2100    0.0400 C   0  0  0  0  0  0  0  0  0  0  0  0
    0.7800   -2.0670   -0.5200 C   0  0  0  0  0  0  0  0  0  0  0  0
   -0.2850   -1.1470   -0.2660 C   0  0  0  0  0  0  0  0  0  0  0  0
   -0.2700   -0.0400   -0.9610 O   0  0  0  0  0  0  0  0  0  0  0  0
   -1.3780   -1.1960    0.6070 N   0  0  0  0  0  0  0  0  0  0  0  0
   -2.3800   -0.1300    0.6970 C   0  0  0  0  0  0  0  0  0  0  0  0
   -3.1810    0.1020   -0.5510 C   0  0  1  0  0  0  0  0  0  0  0  0
   -3.8570   -0.9840   -0.9300 N   0  0  0  0  0  0  0  0  0  0  0  0
   -4.8200   -1.8350   -0.5960 C   0  0  2  0  0  0  0  0  0  0  0  0
   -4.5320   -2.6160    0.6560 C   0  0  0  0  0  0  0  0  0  0  0  0
   -5.5350   -3.7090    0.8360 C   0  0  0  0  0  0  0  0  0  0  0  0
   -6.2710   -4.1920   -0.1170 C   0  0  0  0  0  0  0  0  0  0  0  0
   -6.1840   -3.6920   -1.5120 C   0  0  0  0  0  0  0  0  0  0  0  0
   -4.8990   -2.9380   -1.6960 C   0  0  0  0  0  0  0  0  0  0  0  0
   -3.7850    1.4630   -0.4790 C   0  0  1  0  0  0  0  0  0  0  0  0
   -4.6220    1.7900   -1.7000 C   0  0  0  0  0  0  0  0  0  0  0  0
   -5.0750    3.2150   -1.7270 C   0  0  0  0  0  0  0  0  0  0  0  0
   -5.1310    3.9290   -0.4560 C   0  0  0  0  0  0  0  0  0  0  0  0
   -4.5390    3.3730    0.6940 N   0  0  2  0  0  0  0  0  0  0  0  0
   -3.1700    3.8360    0.9250 C   0  0  0  0  0  0  0  0  0  0  0  0
   -4.5390    1.8920    0.6980 C   0  0  1  0  0  0  0  0  0  0  0  0
   -6.0200    1.5500    0.7030 C   0  0  0  0  0  0  0  0  0  0  0  0
   -6.5950    2.0570    1.9460 N   0  0  0  0  0  0  0  0  0  0  0  0
    1.8000   -1.6210   -1.5480 C   0  0  1  0  0  0  0  0  0  0  0  0
    2.7840   -0.6680   -0.9700 C   0  0  0  0  0  0  0  0  0  0  0  0
    3.5830   -0.9640    0.1150 C   0  0  0  0  0  0  0  0  0  0  0  0
    4.4970   -0.0390    0.6210 C   0  0  0  0  0  0  0  0  0  0  0  0
    4.6510    1.2110    0.0700 C   0  0  0  0  0  0  0  0  0  0  0  0
    5.6270    2.1960    0.6230 C   0  0  1  0  0  0  0  0  0  0  0  0
    5.0610    2.8590    1.8510 C   0  0  0  0  0  0  0  0  0  0  0  0
    6.8610    1.5970    0.9300 O   0  0  0  0  0  0  0  0  0  0  0  0
    8.0790    1.9380    0.4160 C   0  0  0  0  0  0  0  0  0  0  0  0
    8.1320    2.8760   -0.4180 O   0  0  0  0  0  0  0  0  0  0  0  0
    9.3280    1.2810    0.7750 C   0  0  0  0  0  0  0  0  0  0  0  0
   10.5340    1.6580    0.2260 C   0  0  0  0  0  0  0  0  0  0  0  0
   11.7370    1.0430    0.5580 C   0  0  0  0  0  0  0  0  0  0  0  0
   11.7450    0.0090    1.4740 C   0  0  0  0  0  0  0  0  0  0  0  0
   10.5470   -0.3830    2.0340 C   0  0  0  0  0  0  0  0  0  0  0  0
    9.3610    0.2380    1.6940 C   0  0  0  0  0  0  0  0  0  0  0  0
    3.8580    1.5200   -1.0150 C   0  0  0  0  0  0  0  0  0  0  0  0
    2.9540    0.6070   -1.5160 C   0  0  0  0  0  0  0  0  0  0  0  0
    2.3960   -2.7400   -2.3210 C   0  0  0  0  0  0  0  0  0  0  0  0
    2.9800   -3.6830   -1.3340 C   0  0  0  0  0  0  0  0  0  0  0  0
    4.1500   -4.0710   -1.3900 O   0  0  0  0  0  0  0  0  0  0  0  0
    2.0810   -4.1010   -0.3200 N   0  0  0  0  0  0  0  0  0  0  0  0
  1  2  1  0
  2  3  2  0
  2 46  1  0
  3  4  1  0
  3 25  1  0
  4  5  2  0
  4  6  1  0
  6  7  1  0
  8  7  1  1
  8  9  1  0
  8 16  1  0
 10  9  1  6
 10 11  1  0
 10 15  1  0
 11 12  1  0
 12 13  2  0
 13 14  1  0
 14 15  1  0
 16 17  1  6
 16 22  1  0
 17 18  1  0
 18 19  1  0
 19 20  1  0
 20 21  1  6
 20 22  1  0
 22 23  1  6
 23 24  1  0
 25 26  1  1
 25 43  1  0
 26 27  2  0
 26 42  1  0
 27 28  1  0
 28 29  2  0
 29 30  1  0
 29 41  1  0
 30 31  1  1
 30 32  1  0
 32 33  1  0
 33 34  2  0
 33 35  1  0
 35 36  2  0
 35 40  1  0
 36 37  1  0
 37 38  2  0
 38 39  1  0
 39 40  2  0
 41 42  2  0
 43 44  1  0
 44 45  2  0
 44 46  1  0
M  CHG  2  20   1  24   1
M  END
