
     RDKit          3D

 46 50  0  0  0  0  0  0  0  0999 V2000
    4.5260   -5.8890   -0.8810 C   0  0  0  0  0  0  0  0  0  0  0  0
    5.0470   -4.6160   -0.5870 O   0  0  0  0  0  0  0  0  0  0  0  0
    4.2630   -3.7240    0.1820 C   0  0  0  0  0  0  0  0  0  0  0  0
    3.1240   -4.1450    0.5590 O   0  0  0  0  0  0  0  0  0  0  0  0
    4.7100   -2.4960    0.4930 O   0  0  0  0  0  0  0  0  0  0  0  0
    4.0390   -1.4540    1.2500 C   0  0  1  0  0  0  0  0  0  0  0  0
    4.6470   -1.7850    2.6150 C   0  0  0  0  0  0  0  0  0  0  0  0
    4.1020   -3.0660    3.2430 C   0  0  0  0  0  0  0  0  0  0  0  0
    5.5160   -1.0800    3.1970 C   0  0  0  0  0  0  0  0  0  0  0  0
    6.0590    0.1560    2.6730 C   0  0  0  0  0  0  0  0  0  0  0  0
    5.5790    0.5630    1.5020 C   0  0  0  0  0  0  0  0  0  0  0  0
    4.5420   -0.1680    0.7430 C   0  0  0  0  0  0  0  0  0  0  0  0
    4.0450    0.3350   -0.4050 C   0  0  0  0  0  0  0  0  0  0  0  0
    3.0240   -0.2500   -1.2290 C   0  0  0  0  0  0  0  0  0  0  0  0
    2.7530    0.4260   -2.3380 O   0  0  0  0  0  0  0  0  0  0  0  0
    2.2250   -1.3750   -1.1400 N   0  0  0  0  0  0  0  0  0  0  0  0
    1.2360   -1.7680   -2.1510 C   0  0  0  0  0  0  0  0  0  0  0  0
    0.1300   -0.7590   -2.3300 C   0  0  1  0  0  0  0  0  0  0  0  0
   -0.7890   -1.3690   -3.4060 C   0  0  0  0  0  0  0  0  0  0  0  0
   -0.5520   -0.6740   -1.0800 N   0  0  0  0  0  0  0  0  0  0  0  0
   -1.6020    0.2750   -0.9540 C   0  0  2  0  0  0  0  0  0  0  0  0
   -1.4240    1.4110   -1.8950 C   0  0  0  0  0  0  0  0  0  0  0  0
   -0.2840    2.3260   -1.5930 C   0  0  0  0  0  0  0  0  0  0  0  0
   -0.8660    3.5850   -0.9830 C   0  0  0  0  0  0  0  0  0  0  0  0
   -1.9150    3.1780    0.0630 C   0  0  0  0  0  0  0  0  0  0  0  0
   -1.4930    2.0370    0.8660 C   0  0  0  0  0  0  0  0  0  0  0  0
   -1.8750    0.6610    0.4680 C   0  0  1  0  0  0  0  0  0  0  0  0
   -3.2020    0.1880    0.9900 C   0  0  0  0  0  0  0  0  0  0  0  0
   -4.3710    0.6330    0.3250 N   0  0  2  0  0  0  0  0  0  0  0  0
   -4.9200    1.7470    1.0540 C   0  0  0  0  0  0  0  0  0  0  0  0
   -6.0470    1.3910    1.9900 C   0  0  0  0  0  0  0  0  0  0  0  0
   -7.2550    0.8790    1.2250 C   0  0  0  0  0  0  0  0  0  0  0  0
   -6.6770    0.2260   -0.0210 C   0  0  0  0  0  0  0  0  0  0  0  0
   -5.3870   -0.4530    0.3760 C   0  0  1  0  0  0  0  0  0  0  0  0
   -5.0710   -1.5140   -0.6210 C   0  0  0  0  0  0  0  0  0  0  0  0
   -5.9310   -2.6350   -0.6970 N   0  0  2  0  0  0  0  0  0  0  0  0
   -6.4800   -2.7710   -2.0620 C   0  0  0  0  0  0  0  0  0  0  0  0
   -7.0330   -2.7130    0.1930 C   0  0  0  0  0  0  0  0  0  0  0  0
    4.5700    1.5990   -0.8540 N   0  0  0  0  0  0  0  0  0  0  0  0
    5.5480    2.3140   -0.1690 C   0  0  0  0  0  0  0  0  0  0  0  0
    6.0100    3.5380   -0.6670 C   0  0  0  0  0  0  0  0  0  0  0  0
    6.9700    4.2590   -0.0100 C   0  0  0  0  0  0  0  0  0  0  0  0
    7.4800    5.5610   -0.5110 C   0  0  0  0  0  0  0  0  0  0  0  0
    7.4900    3.7690    1.1640 C   0  0  0  0  0  0  0  0  0  0  0  0
    7.0410    2.5460    1.6800 C   0  0  0  0  0  0  0  0  0  0  0  0
    6.0850    1.8540    1.0010 C   0  0  0  0  0  0  0  0  0  0  0  0
  1  2  1  0
  2  3  1  0
  3  4  2  0
  3  5  1  0
  6  5  1  6
  6  7  1  0
  6 12  1  0
  7  8  1  0
  7  9  2  0
  9 10  1  0
 10 11  2  0
 11 12  1  0
 11 46  1  0
 12 13  2  0
 13 14  1  0
 13 39  1  0
 14 15  2  0
 14 16  1  0
 16 17  1  0
 17 18  1  0
 18 19  1  6
 18 20  1  0
 21 20  1  1
 21 22  1  0
 21 27  1  0
 22 23  1  0
 23 24  1  0
 24 25  1  0
 25 26  1  0
 26 27  1  0
 27 28  1  6
 29 28  1  1
 29 30  1  0
 29 34  1  0
 30 31  1  0
 31 32  1  0
 32 33  1  0
 33 34  1  0
 34 35  1  6
 35 36  1  0
 36 37  1  6
 36 38  1  0
 39 40  1  0
 40 41  2  0
 40 46  1  0
 41 42  1  0
 42 43  1  0
 42 44  2  0
 44 45  1  0
 45 46  2  0
M  CHG  3  20   1  29   1  36   1
M  END
