
     RDKit          3D

 46 50  0  0  0  0  0  0  0  0999 V2000
    9.2930   -1.1650    0.1840 C   0  0  0  0  0  0  0  0  0  0  0  0
    8.0020   -0.9760    0.2060 C   0  0  0  0  0  0  0  0  0  0  0  0
    7.3420   -0.0920    1.2270 C   0  0  0  0  0  0  0  0  0  0  0  0
    6.1410    0.5870    0.5940 C   0  0  0  0  0  0  0  0  0  0  0  0
    5.0920   -0.3980    0.1910 C   0  0  1  0  0  0  0  0  0  0  0  0
    4.1460    0.2600   -0.7450 C   0  0  0  0  0  0  0  0  0  0  0  0
    2.7830   -0.3650   -0.5390 N   0  0  0  0  0  0  0  0  0  0  0  0
    1.8280    0.5120   -0.0650 C   0  0  0  0  0  0  0  0  0  0  0  0
    2.2660    1.7900   -0.0160 O   0  0  0  0  0  0  0  0  0  0  0  0
    0.5030    0.3950    0.3810 C   0  0  0  0  0  0  0  0  0  0  0  0
   -0.1280    1.5590    0.7140 C   0  0  0  0  0  0  0  0  0  0  0  0
    0.5240    2.7860    0.6080 N   0  0  0  0  0  0  0  0  0  0  0  0
    0.2950    3.5970   -0.5940 C   0  0  0  0  0  0  0  0  0  0  0  0
   -1.1560    4.0680   -0.5250 C   0  0  2  0  0  0  0  0  0  0  0  0
   -1.4510    4.9100   -1.7390 C   0  0  0  0  0  0  0  0  0  0  0  0
   -0.6350    6.1810   -1.7510 C   0  0  0  0  0  0  0  0  0  0  0  0
   -0.6440    6.8470   -0.4090 C   0  0  0  0  0  0  0  0  0  0  0  0
   -1.5790    6.2190    0.4750 N   0  0  0  0  0  0  0  0  0  0  0  0
   -2.6380    6.9720    1.0470 C   0  0  0  0  0  0  0  0  0  0  0  0
   -2.4020    8.0340    1.7050 N   0  0  0  0  0  0  0  0  0  0  0  0
   -1.4090    4.7940    0.7680 C   0  0  0  0  0  0  0  0  0  0  0  0
   -0.3350   -0.7890    0.5950 C   0  0  0  0  0  0  0  0  0  0  0  0
    0.0780   -1.9120    0.3820 O   0  0  0  0  0  0  0  0  0  0  0  0
   -1.6950   -0.6110    1.0750 C   0  0  0  0  0  0  0  0  0  0  0  0
   -2.5610   -1.8850    1.1130 C   0  0  1  0  0  0  0  0  0  0  0  0
   -3.8500   -1.3820    1.7110 C   0  0  0  0  0  0  0  0  0  0  0  0
   -4.9290   -2.3690    1.9410 C   0  0  0  0  0  0  0  0  0  0  0  0
   -6.0740   -1.6610    2.5750 N   0  0  0  0  0  0  0  0  0  0  0  0
   -7.3070   -2.2700    2.1750 C   0  0  2  0  0  0  0  0  0  0  0  0
   -8.5240   -1.3840    2.3080 C   0  0  0  0  0  0  0  0  0  0  0  0
   -9.1620   -2.4320    3.0110 O   0  0  0  0  0  0  0  0  0  0  0  0
   -7.9800   -3.1510    3.1950 C   0  0  0  0  0  0  0  0  0  0  0  0
   -2.6430   -2.5190   -0.2070 C   0  0  1  0  0  0  0  0  0  0  0  0
   -3.4560   -3.7800   -0.3200 C   0  0  0  0  0  0  0  0  0  0  0  0
   -2.7770   -4.6450   -1.4220 C   0  0  0  0  0  0  0  0  0  0  0  0
   -2.4440   -3.6820   -2.5600 C   0  0  0  0  0  0  0  0  0  0  0  0
   -3.3600   -2.5000   -2.5870 C   0  0  0  0  0  0  0  0  0  0  0  0
   -3.1030   -1.6240   -1.3510 C   0  0  0  0  0  0  0  0  0  0  0  0
    2.5370   -1.7190   -0.8610 C   0  0  0  0  0  0  0  0  0  0  0  0
    3.7110   -2.2150   -1.7690 C   0  0  0  0  0  0  0  0  0  0  0  0
    4.8010   -2.6480   -0.8900 C   0  0  0  0  0  0  0  0  0  0  0  0
    5.6790   -1.7100   -0.2140 C   0  0  2  0  0  0  0  0  0  0  0  0
    5.9040   -2.3540    1.0740 O   0  0  0  0  0  0  0  0  0  0  0  0
    7.0400   -1.5880   -0.7720 C   0  0  0  0  0  0  0  0  0  0  0  0
    7.5210   -1.9030   -1.9260 C   0  0  0  0  0  0  0  0  0  0  0  0
    6.9280   -2.5060   -3.1240 C   0  0  0  0  0  0  0  0  0  0  0  0
  1  2  2  0
  2  3  1  0
  2 44  1  0
  3  4  1  0
  5  4  1  6
  5  6  1  0
  5 42  1  0
  6  7  1  0
  7  8  1  0
  7 39  1  0
  8  9  2  0
  8 10  1  0
 10 11  2  3
 10 22  1  0
 11 12  1  0
 12 13  1  0
 14 13  1  6
 14 15  1  0
 14 21  1  0
 15 16  1  0
 16 17  1  0
 17 18  1  0
 18 19  1  0
 18 21  1  0
 19 20  2  0
 22 23  2  0
 22 24  1  0
 25 24  1  6
 25 26  1  0
 25 33  1  0
 26 27  1  0
 27 28  1  0
 29 28  1  1
 29 30  1  0
 29 32  1  0
 30 31  1  0
 31 32  1  0
 33 34  1  1
 33 38  1  0
 34 35  1  0
 35 36  1  0
 36 37  1  0
 37 38  1  0
 39 40  1  0
 40 41  1  0
 41 42  1  0
 42 43  1  1
 42 44  1  0
 44 45  2  3
 45 46  1  0
M  CHG  2  20   1  28   1
M  END
