
     RDKit          3D

 36 39  0  0  0  0  0  0  0  0999 V2000
   -3.7360   -6.5620   -1.6950 N   0  0  0  0  0  0  0  0  0  0  0  0
   -4.6430   -5.5720   -1.2100 C   0  0  0  0  0  0  0  0  0  0  0  0
   -5.8370   -5.5850   -1.6090 N   0  0  0  0  0  0  0  0  0  0  0  0
   -4.1420   -4.5990   -0.2840 C   0  0  0  0  0  0  0  0  0  0  0  0
   -4.9290   -3.6130    0.2280 C   0  0  0  0  0  0  0  0  0  0  0  0
   -4.4470   -2.6610    1.1310 C   0  0  0  0  0  0  0  0  0  0  0  0
   -3.1350   -2.7080    1.5270 C   0  0  0  0  0  0  0  0  0  0  0  0
   -2.6340   -1.7870    2.4140 O   0  0  0  0  0  0  0  0  0  0  0  0
   -2.0720   -0.6040    1.9050 C   0  0  0  0  0  0  0  0  0  0  0  0
   -0.7490   -0.6210    1.5070 C   0  0  0  0  0  0  0  0  0  0  0  0
   -0.1360    0.4990    1.0010 C   0  0  0  0  0  0  0  0  0  0  0  0
    1.2500    0.5600    0.5610 C   0  0  0  0  0  0  0  0  0  0  0  0
    1.7440    1.6660    0.2280 O   0  0  0  0  0  0  0  0  0  0  0  0
    2.0470   -0.5910    0.5000 N   0  0  0  0  0  0  0  0  0  0  0  0
    3.4300   -0.5380    0.0640 C   0  0  1  0  0  0  0  0  0  0  0  0
    4.2710   -1.0550    1.2160 C   0  0  0  0  0  0  0  0  0  0  0  0
    5.6450   -1.3870    0.7240 C   0  0  0  0  0  0  0  0  0  0  0  0
    5.5620   -2.4800   -0.3110 C   0  0  2  0  0  0  0  0  0  0  0  0
    6.2800   -2.0790   -1.5250 N   0  0  0  0  0  0  0  0  0  0  0  0
    4.1230   -2.7430   -0.7270 C   0  0  0  0  0  0  0  0  0  0  0  0
    3.5650   -1.3950   -1.1720 C   0  0  0  0  0  0  0  0  0  0  0  0
   -0.9380    1.6450    0.9190 C   0  0  0  0  0  0  0  0  0  0  0  0
   -2.2550    1.6710    1.3130 C   0  0  0  0  0  0  0  0  0  0  0  0
   -3.0350    2.8260    1.2220 O   0  0  0  0  0  0  0  0  0  0  0  0
   -2.4050    3.9660    0.7020 C   0  0  0  0  0  0  0  0  0  0  0  0
   -1.7500    4.8350    1.5510 C   0  0  0  0  0  0  0  0  0  0  0  0
   -1.1340    5.9440    1.0670 C   0  0  0  0  0  0  0  0  0  0  0  0
   -1.1270    6.2650   -0.2980 C   0  0  0  0  0  0  0  0  0  0  0  0
   -0.4460    7.4660   -0.7440 C   0  0  0  0  0  0  0  0  0  0  0  0
    0.2070    8.2950    0.2310 N   0  0  0  0  0  0  0  0  0  0  0  0
   -0.4080    7.8040   -1.9620 N   0  0  0  0  0  0  0  0  0  0  0  0
   -1.7900    5.3750   -1.1140 C   0  0  0  0  0  0  0  0  0  0  0  0
   -2.4170    4.2490   -0.6340 C   0  0  0  0  0  0  0  0  0  0  0  0
   -2.7600    0.5240    1.7930 N   0  0  0  0  0  0  0  0  0  0  0  0
   -2.3040   -3.6880    1.0350 C   0  0  0  0  0  0  0  0  0  0  0  0
   -2.8080   -4.6110    0.1460 C   0  0  0  0  0  0  0  0  0  0  0  0
  1  2  1  0
  2  3  2  0
  2  4  1  0
  4  5  2  0
  4 36  1  0
  5  6  1  0
  6  7  2  0
  7  8  1  0
  7 35  1  0
  8  9  1  0
  9 10  2  0
  9 34  1  0
 10 11  1  0
 11 12  1  0
 11 22  2  0
 12 13  2  0
 12 14  1  0
 15 14  1  1
 15 16  1  0
 15 21  1  0
 16 17  1  0
 17 18  1  0
 18 19  1  6
 18 20  1  0
 20 21  1  0
 22 23  1  0
 23 24  1  0
 23 34  2  0
 24 25  1  0
 25 26  2  0
 25 33  1  0
 26 27  1  0
 27 28  2  0
 28 29  1  0
 28 32  1  0
 29 30  1  0
 29 31  2  0
 32 33  2  0
 35 36  2  0
M  CHG  3   3   1  19   1  31   1
M  END
