
     RDKit          3D

 36 39  0  0  0  0  0  0  0  0999 V2000
   -1.4300    0.2380    2.7640 C   0  0  0  0  0  0  0  0  0  0  0  0
   -2.3290   -0.6710    2.8840 C   0  0  0  0  0  0  0  0  0  0  0  0
   -3.5900   -0.7760    2.2750 C   0  0  0  0  0  0  0  0  0  0  0  0
   -4.4540   -1.7250    2.6930 C   0  0  0  0  0  0  0  0  0  0  0  0
   -5.8330   -1.9710    2.2030 C   0  0  0  0  0  0  0  0  0  0  0  0
   -6.6300   -1.0090    1.6930 C   0  0  0  0  0  0  0  0  0  0  0  0
   -6.2670    0.3960    1.5350 O   0  0  0  0  0  0  0  0  0  0  0  0
   -5.0660    0.6500    0.7730 C   0  0  0  0  0  0  0  0  0  0  0  0
   -5.2020    1.5150   -0.2630 C   0  0  0  0  0  0  0  0  0  0  0  0
   -4.0670    1.7410   -1.0530 C   0  0  0  0  0  0  0  0  0  0  0  0
   -4.1410    2.6760   -2.1940 C   0  0  0  0  0  0  0  0  0  0  0  0
   -5.4220    3.2070   -2.2910 O   0  0  0  0  0  0  0  0  0  0  0  0
   -2.8490    1.1200   -0.8150 C   0  0  0  0  0  0  0  0  0  0  0  0
   -1.7640    1.3660   -1.6250 O   0  0  0  0  0  0  0  0  0  0  0  0
   -2.7490    0.2460    0.2510 C   0  0  0  0  0  0  0  0  0  0  0  0
   -1.6740   -0.6640    0.4020 N   0  0  0  0  0  0  0  0  0  0  0  0
   -0.3510   -0.3910    0.0320 C   0  0  0  0  0  0  0  0  0  0  0  0
    0.0890    0.6730   -0.4550 O   0  0  0  0  0  0  0  0  0  0  0  0
    0.7180   -1.4470    0.2100 C   0  0  2  0  0  0  0  0  0  0  0  0
    0.6870   -2.0970    1.5460 C   0  0  0  0  0  0  0  0  0  0  0  0
    1.9780   -1.0230   -0.2030 O   0  0  0  0  0  0  0  0  0  0  0  0
    2.6520   -1.5030   -1.2870 C   0  0  0  0  0  0  0  0  0  0  0  0
    2.0290   -2.4140   -1.9400 O   0  0  0  0  0  0  0  0  0  0  0  0
    3.9650   -1.0790   -1.7410 C   0  0  0  0  0  0  0  0  0  0  0  0
    4.4760   -1.6640   -2.8450 C   0  0  0  0  0  0  0  0  0  0  0  0
    5.7570   -1.3120   -3.4160 C   0  0  0  0  0  0  0  0  0  0  0  0
    6.4850   -0.3440   -2.8810 C   0  0  0  0  0  0  0  0  0  0  0  0
    5.9470    0.3920   -1.7060 C   0  0  0  0  0  0  0  0  0  0  0  0
    6.4290    1.5720   -1.3840 C   0  0  0  0  0  0  0  0  0  0  0  0
    5.9240    2.3350   -0.2520 C   0  0  0  0  0  0  0  0  0  0  0  0
    6.3840    3.4510    0.0530 O   0  0  0  0  0  0  0  0  0  0  0  0
    4.8480    1.7220    0.5080 C   0  0  0  0  0  0  0  0  0  0  0  0
    4.2690    2.3570    1.6130 O   0  0  0  0  0  0  0  0  0  0  0  0
    4.3840    0.5140    0.1550 C   0  0  0  0  0  0  0  0  0  0  0  0
    4.8890   -0.2470   -0.9430 C   0  0  1  0  0  0  0  0  0  0  0  0
   -3.8510    0.0100    1.0700 C   0  0  0  0  0  0  0  0  0  0  0  0
  1  2  2  0
  2  3  1  0
  3  4  2  0
  3 36  1  0
  4  5  1  0
  5  6  2  0
  6  7  1  0
  7  8  1  0
  8  9  2  0
  8 36  1  0
  9 10  1  0
 10 11  1  0
 10 13  2  0
 11 12  1  0
 13 14  1  0
 13 15  1  0
 15 16  1  0
 15 36  2  0
 16 17  1  0
 17 18  2  0
 17 19  1  0
 19 20  1  1
 19 21  1  0
 21 22  1  0
 22 23  2  0
 22 24  1  0
 24 25  2  0
 24 35  1  0
 25 26  1  0
 26 27  2  0
 27 28  1  0
 28 29  2  0
 28 35  1  0
 29 30  1  0
 30 31  2  0
 30 32  1  0
 32 33  1  0
 32 34  2  0
 35 34  1  6
M  END
