
     RDKit          3D

 37 40  0  0  0  0  0  0  0  0999 V2000
   -6.9640   -1.5840    3.1300 C   0  0  0  0  0  0  0  0  0  0  0  0
   -6.0740   -1.6570    2.1640 C   0  0  0  0  0  0  0  0  0  0  0  0
   -5.0250   -0.6550    2.0450 C   0  0  0  0  0  0  0  0  0  0  0  0
   -4.1180   -0.6910    1.0970 C   0  0  0  0  0  0  0  0  0  0  0  0
   -3.8980   -1.8790   -0.2390 S   0  0  0  0  0  0  0  0  0  0  0  0
   -2.4720   -0.9550   -0.9740 C   0  0  2  0  0  0  0  0  0  0  0  0
   -1.7030   -1.7560   -1.8060 N   0  0  0  0  0  0  0  0  0  0  0  0
   -1.2000   -1.2150   -3.0480 C   0  0  0  0  0  0  0  0  0  0  0  0
   -0.4080   -1.9940   -3.9360 N   0  0  0  0  0  0  0  0  0  0  0  0
   -1.4820   -0.0260   -3.3310 O   0  0  0  0  0  0  0  0  0  0  0  0
   -1.8540   -0.4960    0.3730 C   0  0  2  0  0  0  0  0  0  0  0  0
   -3.0170    0.2810    0.8860 C   0  0  0  0  0  0  0  0  0  0  0  0
   -2.9870    1.5690    1.0510 N   0  0  0  0  0  0  0  0  0  0  0  0
   -1.8530    2.3220    0.8060 N   0  0  0  0  0  0  0  0  0  0  0  0
   -0.6790    1.6170    0.3540 C   0  0  0  0  0  0  0  0  0  0  0  0
    0.4770    2.3770    0.1180 O   0  0  0  0  0  0  0  0  0  0  0  0
    0.3940    3.3570   -0.8930 C   0  0  0  0  0  0  0  0  0  0  0  0
   -0.7520    3.5700   -1.6250 C   0  0  0  0  0  0  0  0  0  0  0  0
   -0.8250    4.5350   -2.6160 C   0  0  0  0  0  0  0  0  0  0  0  0
    0.2780    5.3210   -2.8970 C   0  0  0  0  0  0  0  0  0  0  0  0
    1.4180    5.1210   -2.1810 C   0  0  0  0  0  0  0  0  0  0  0  0
    1.4880    4.1530   -1.1880 C   0  0  0  0  0  0  0  0  0  0  0  0
   -0.6350    0.3250    0.1540 C   0  0  0  0  0  0  0  0  0  0  0  0
    0.5800   -0.4200   -0.2000 C   0  0  0  0  0  0  0  0  0  0  0  0
    0.4920   -1.6820   -0.3600 O   0  0  0  0  0  0  0  0  0  0  0  0
    1.8620    0.1010   -0.3890 N   0  0  0  0  0  0  0  0  0  0  0  0
    3.0110   -0.7290   -0.7430 C   0  0  0  0  0  0  0  0  0  0  0  0
    3.3260   -1.7610    0.2390 C   0  0  0  0  0  0  0  0  0  0  0  0
    4.3470   -1.9810    0.9870 C   0  0  0  0  0  0  0  0  0  0  0  0
    5.6060   -1.3540    1.2160 C   0  0  0  0  0  0  0  0  0  0  0  0
    5.9650   -0.1320    0.7410 C   0  0  0  0  0  0  0  0  0  0  0  0
    7.2490    0.3960    0.9720 C   0  0  0  0  0  0  0  0  0  0  0  0
    8.1830   -0.3110    1.6900 C   0  0  0  0  0  0  0  0  0  0  0  0
    7.8240   -1.5380    2.1680 C   0  0  0  0  0  0  0  0  0  0  0  0
    6.5770   -2.0530    1.9430 C   0  0  0  0  0  0  0  0  0  0  0  0
   -6.1580   -2.7010    1.2670 O   0  0  0  0  0  0  0  0  0  0  0  0
   -7.0510   -3.7720    1.4540 C   0  0  0  0  0  0  0  0  0  0  0  0
  1  2  2  0
  2  3  1  0
  2 36  1  0
  3  4  2  3
  4  5  1  0
  4 12  1  0
  5  6  1  0
  6  7  1  1
  6 11  1  0
  7  8  1  0
  8  9  1  0
  8 10  2  0
 11 12  1  0
 11 23  1  6
 12 13  2  0
 13 14  1  0
 14 15  1  0
 15 16  1  0
 15 23  2  0
 16 17  1  0
 17 18  2  0
 17 22  1  0
 18 19  1  0
 19 20  2  0
 20 21  1  0
 21 22  2  0
 23 24  1  0
 24 25  2  0
 24 26  1  0
 26 27  1  0
 27 28  1  0
 28 29  2  3
 29 30  1  0
 30 31  2  0
 30 35  1  0
 31 32  1  0
 32 33  2  0
 33 34  1  0
 34 35  2  0
 36 37  1  0
M  CHG  1  13   1
M  END
