
     RDKit          3D

 35 38  0  0  0  0  0  0  0  0999 V2000
   -4.5740   -1.4670    0.0490 N   0  0  0  0  0  0  0  0  0  0  0  0
   -3.7120   -0.3330    0.2430 C   0  0  0  0  0  0  0  0  0  0  0  0
   -4.2090    0.9120   -0.0330 C   0  0  0  0  0  0  0  0  0  0  0  0
   -5.6030    1.1150   -0.5210 C   0  0  0  0  0  0  0  0  0  0  0  0
   -5.7530    0.7470   -1.9740 C   0  0  0  0  0  0  0  0  0  0  0  0
   -7.0870    0.9740   -2.3180 O   0  0  0  0  0  0  0  0  0  0  0  0
   -3.3380    1.9460    0.1710 C   0  0  0  0  0  0  0  0  0  0  0  0
   -1.9950    1.8360    0.6340 C   0  0  0  0  0  0  0  0  0  0  0  0
   -1.5200    0.5930    0.9050 C   0  0  0  0  0  0  0  0  0  0  0  0
   -2.4330   -0.4690    0.6870 C   0  0  0  0  0  0  0  0  0  0  0  0
   -1.9190   -1.8620    0.9420 C   0  0  1  0  0  0  0  0  0  0  0  0
   -1.3480   -2.4700   -0.2520 C   0  0  0  0  0  0  0  0  0  0  0  0
   -0.2520   -3.0640   -0.5420 C   0  0  0  0  0  0  0  0  0  0  0  0
    0.9370   -3.3770    0.3030 C   0  0  0  0  0  0  0  0  0  0  0  0
    2.2100   -3.3220   -0.5580 C   0  0  0  0  0  0  0  0  0  0  0  0
    3.3600   -3.0190    0.3780 C   0  0  0  0  0  0  0  0  0  0  0  0
    3.7390   -1.5520    0.3950 C   0  0  0  0  0  0  0  0  0  0  0  0
    3.1420   -0.7890    1.3780 C   0  0  0  0  0  0  0  0  0  0  0  0
    3.3970    0.6090    1.4390 C   0  0  0  0  0  0  0  0  0  0  0  0
    4.2130    1.2410    0.5580 C   0  0  0  0  0  0  0  0  0  0  0  0
    4.7790    0.4600   -0.3890 C   0  0  0  0  0  0  0  0  0  0  0  0
    4.5770   -0.9790   -0.5260 C   0  0  0  0  0  0  0  0  0  0  0  0
    5.4490   -1.4100   -1.6690 C   0  0  0  0  0  0  0  0  0  0  0  0
    6.0450   -2.4300   -1.9260 O   0  0  0  0  0  0  0  0  0  0  0  0
    4.4570    2.6140    0.6240 O   0  0  0  0  0  0  0  0  0  0  0  0
    3.7560    3.6760    0.0910 C   0  0  0  0  0  0  0  0  0  0  0  0
    2.9780    3.3810   -1.1360 C   0  0  0  0  0  0  0  0  0  0  0  0
    3.5470    3.0460   -2.2230 O   0  0  0  0  0  0  0  0  0  0  0  0
    1.5960    3.4610   -1.1400 O   0  0  0  0  0  0  0  0  0  0  0  0
    0.7660    2.8520   -0.1460 C   0  0  0  0  0  0  0  0  0  0  0  0
   -0.3200    3.7730    0.3380 C   0  0  0  0  0  0  0  0  0  0  0  0
   -1.4780    3.1210    0.6930 O   0  0  0  0  0  0  0  0  0  0  0  0
   -1.2260   -1.8890    2.2210 C   0  0  0  0  0  0  0  0  0  0  0  0
   -0.3750   -0.8530    2.4710 O   0  0  0  0  0  0  0  0  0  0  0  0
   -0.2200    0.0420    1.4260 C   0  0  0  0  0  0  0  0  0  0  0  0
  1  2  1  0
  2  3  2  0
  2 10  1  0
  3  4  1  0
  3  7  1  0
  4  5  1  0
  5  6  1  0
  7  8  2  0
  8  9  1  0
  8 32  1  0
  9 10  2  0
  9 35  1  0
 10 11  1  0
 11 12  1  0
 11 33  1  1
 12 13  2  0
 13 14  1  0
 14 15  1  0
 15 16  1  0
 16 17  1  0
 17 18  2  0
 17 22  1  0
 18 19  1  0
 19 20  2  0
 20 21  1  0
 20 25  1  0
 21 22  2  0
 22 23  1  0
 23 24  2  0
 25 26  1  0
 26 27  1  0
 27 28  2  0
 27 29  1  0
 29 30  1  0
 30 31  1  0
 31 32  1  0
 33 34  1  0
 34 35  1  0
M  END
