
     RDKit          3D

 37 40  0  0  0  0  0  0  0  0999 V2000
    8.5770    0.0140   -2.8910 C   0  0  0  0  0  0  0  0  0  0  0  0
    8.0280    1.2530   -2.2230 C   0  0  0  0  0  0  0  0  0  0  0  0
    7.5960    0.8690   -0.8440 C   0  0  0  0  0  0  0  0  0  0  0  0
    6.2470    0.7120   -0.5290 C   0  0  0  0  0  0  0  0  0  0  0  0
    5.8080    0.3620    0.7230 C   0  0  0  0  0  0  0  0  0  0  0  0
    4.4560    0.1900    1.0850 N   0  0  0  0  0  0  0  0  0  0  0  0
    3.3710    0.4000    0.2160 C   0  0  0  0  0  0  0  0  0  0  0  0
    3.5030    0.7580   -0.9510 O   0  0  0  0  0  0  0  0  0  0  0  0
    2.0060    0.1790    0.7350 C   0  0  0  0  0  0  0  0  0  0  0  0
    0.9470    0.4930   -0.2710 C   0  0  0  0  0  0  0  0  0  0  0  0
   -0.4000    0.2400    0.3290 C   0  0  0  0  0  0  0  0  0  0  0  0
   -0.4680   -0.2060    1.4880 O   0  0  0  0  0  0  0  0  0  0  0  0
   -1.5930    0.4910   -0.3800 N   0  0  0  0  0  0  0  0  0  0  0  0
   -2.9200    0.2900    0.0740 C   0  0  0  0  0  0  0  0  0  0  0  0
   -3.3020   -0.2290    1.2810 C   0  0  0  0  0  0  0  0  0  0  0  0
   -4.6290   -0.3950    1.6320 C   0  0  0  0  0  0  0  0  0  0  0  0
   -5.6550   -0.0340    0.7480 C   0  0  0  0  0  0  0  0  0  0  0  0
   -5.2700    0.4700   -0.4230 N   0  0  0  0  0  0  0  0  0  0  0  0
   -3.9690    0.6350   -0.7720 C   0  0  0  0  0  0  0  0  0  0  0  0
   -3.6950    1.1210   -1.9060 O   0  0  0  0  0  0  0  0  0  0  0  0
   -6.2930    0.8830   -1.4070 C   0  0  0  0  0  0  0  0  0  0  0  0
   -7.4940   -0.0050   -1.1280 C   0  0  2  0  0  0  0  0  0  0  0  0
   -8.6050    0.2440   -2.1240 C   0  0  1  0  0  0  0  0  0  0  0  0
   -8.3940    0.0470   -3.5610 C   0  0  0  0  0  0  0  0  0  0  0  0
   -9.1020   -1.0530   -2.8190 C   0  0  0  0  0  0  0  0  0  0  0  0
   -7.9400    0.3820    0.2030 N   0  0  0  0  0  0  0  0  0  0  0  0
   -7.0720   -0.2370    1.1680 C   0  0  1  0  0  0  0  0  0  0  0  0
   -7.4060   -1.6700    1.2720 C   0  0  0  0  0  0  0  0  0  0  0  0
   -6.7440   -2.5910    2.1250 N   0  0  0  0  0  0  0  0  0  0  0  0
   -8.3370   -2.1190    0.5650 O   0  0  0  0  0  0  0  0  0  0  0  0
    6.7580    0.1490    1.7400 C   0  0  0  0  0  0  0  0  0  0  0  0
    6.3350   -0.2250    3.0860 C   0  0  0  0  0  0  0  0  0  0  0  0
    6.4710   -1.5770    3.6560 C   0  0  0  0  0  0  0  0  0  0  0  0
    5.6600    0.9310    4.0450 S   0  0  0  0  0  0  0  0  0  0  0  0
    8.0850    0.3040    1.4260 C   0  0  0  0  0  0  0  0  0  0  0  0
    8.5110    0.6600    0.1510 C   0  0  0  0  0  0  0  0  0  0  0  0
    9.9520    0.8090   -0.1150 C   0  0  0  0  0  0  0  0  0  0  0  0
  1  2  1  0
  2  3  1  0
  3  4  2  0
  3 36  1  0
  4  5  1  0
  5  6  1  0
  5 31  2  0
  6  7  1  0
  7  8  2  0
  7  9  1  0
  9 10  1  0
 10 11  1  0
 11 12  2  0
 11 13  1  0
 13 14  1  0
 14 15  2  0
 14 19  1  0
 15 16  1  0
 16 17  2  0
 17 18  1  0
 17 27  1  0
 18 19  1  0
 18 21  1  0
 19 20  2  0
 22 21  1  6
 22 23  1  0
 22 26  1  0
 23 24  1  6
 23 25  1  0
 24 25  1  0
 26 27  1  0
 27 28  1  6
 28 29  1  0
 28 30  2  0
 31 32  1  0
 31 35  1  0
 32 33  1  0
 32 34  2  0
 35 36  2  0
 36 37  1  0
M  CHG  1  26   1
M  END
