
     RDKit          3D

 37 40  0  0  0  0  0  0  0  0999 V2000
   10.6770   -0.7820   -0.6490 N   0  0  0  0  0  0  0  0  0  0  0  0
    9.0560   -1.1190   -0.1230 S   0  0  1  0  0  0  0  0  0  0  0  0
    8.6720   -2.4490   -0.7120 O   0  0  0  0  0  0  0  0  0  0  0  0
    8.9560   -1.1300    1.3580 O   0  0  0  0  0  0  0  0  0  0  0  0
    8.0150    0.1130   -0.8600 C   0  0  2  0  0  0  0  0  0  0  0  0
    8.3420    1.4980   -0.4160 C   0  0  0  0  0  0  0  0  0  0  0  0
    7.3830    2.0580    0.5860 C   0  0  0  0  0  0  0  0  0  0  0  0
    5.9710    2.1490    0.0820 C   0  0  0  0  0  0  0  0  0  0  0  0
    5.7780    1.0630   -0.9630 C   0  0  2  0  0  0  0  0  0  0  0  0
    4.4410    0.8850   -1.3550 N   0  0  0  0  0  0  0  0  0  0  0  0
    3.4550    0.5080   -0.4240 C   0  0  0  0  0  0  0  0  0  0  0  0
    3.4890   -0.8650    0.1370 C   0  0  0  0  0  0  0  0  0  0  0  0
    2.3940   -1.0400    1.0720 N   0  0  0  0  0  0  0  0  0  0  0  0
    1.0480   -0.9420    0.7170 C   0  0  0  0  0  0  0  0  0  0  0  0
    0.7130   -0.6960   -0.4650 O   0  0  0  0  0  0  0  0  0  0  0  0
   -0.0430   -1.1220    1.7090 C   0  0  0  0  0  0  0  0  0  0  0  0
    0.3030   -1.3670    2.8730 O   0  0  0  0  0  0  0  0  0  0  0  0
   -1.3930   -1.0230    1.3630 N   0  0  0  0  0  0  0  0  0  0  0  0
   -2.5120   -1.1710    2.2370 C   0  0  0  0  0  0  0  0  0  0  0  0
   -2.4060   -1.2060    3.5840 C   0  0  0  0  0  0  0  0  0  0  0  0
   -3.5340   -1.2790    4.4000 C   0  0  0  0  0  0  0  0  0  0  0  0
   -4.7660   -1.3160    3.8150 C   0  0  0  0  0  0  0  0  0  0  0  0
   -4.8710   -1.2820    2.4410 C   0  0  0  0  0  0  0  0  0  0  0  0
   -3.7930   -1.2100    1.6060 C   0  0  0  0  0  0  0  0  0  0  0  0
   -3.8540   -1.3090    0.1880 C   0  0  0  0  0  0  0  0  0  0  0  0
   -4.6000   -1.0010   -0.7760 C   0  0  0  0  0  0  0  0  0  0  0  0
   -5.8460   -0.3570   -1.0730 C   0  0  0  0  0  0  0  0  0  0  0  0
   -6.2730   -0.2720   -2.3570 C   0  0  0  0  0  0  0  0  0  0  0  0
   -7.5160    0.3860   -2.6790 C   0  0  0  0  0  0  0  0  0  0  0  0
   -7.9990    0.3630   -4.0040 C   0  0  0  0  0  0  0  0  0  0  0  0
   -9.2200    0.8930   -4.3300 C   0  0  0  0  0  0  0  0  0  0  0  0
   -9.9670    1.4510   -3.3250 C   0  0  0  0  0  0  0  0  0  0  0  0
   -9.5290    1.4940   -2.0140 C   0  0  0  0  0  0  0  0  0  0  0  0
   -8.2810    0.9500   -1.7030 C   0  0  0  0  0  0  0  0  0  0  0  0
   -7.7590    1.0620   -0.3930 N   0  0  0  0  0  0  0  0  0  0  0  0
   -6.7240    0.1740   -0.0230 C   0  0  0  0  0  0  0  0  0  0  0  0
    6.5330   -0.1530   -0.5120 C   0  0  0  0  0  0  0  0  0  0  0  0
  2  1  1  1
  2  3  2  0
  2  4  2  0
  2  5  1  0
  5  6  1  1
  5 37  1  0
  6  7  1  0
  7  8  1  0
  8  9  1  0
  9 10  1  1
  9 37  1  0
 10 11  1  0
 11 12  1  0
 12 13  1  0
 13 14  1  0
 14 15  2  0
 14 16  1  0
 16 17  2  0
 16 18  1  0
 18 19  1  0
 19 20  2  0
 19 24  1  0
 20 21  1  0
 21 22  2  0
 22 23  1  0
 23 24  2  0
 24 25  1  0
 25 26  2  3
 26 27  1  0
 27 28  2  0
 27 36  1  0
 28 29  1  0
 29 30  2  0
 29 34  1  0
 30 31  1  0
 31 32  2  0
 32 33  1  0
 33 34  2  0
 34 35  1  0
 35 36  1  0
M  CHG  1  35   1
M  END
