
     RDKit          3D

 37 40  0  0  0  0  0  0  0  0999 V2000
   -4.2630    1.2990    3.0760 C   0  0  0  0  0  0  0  0  0  0  0  0
   -3.7020    2.2680    2.0350 C   0  0  0  0  0  0  0  0  0  0  0  0
   -4.2870    1.9310    0.7480 C   0  0  0  0  0  0  0  0  0  0  0  0
   -5.3750    2.6260    0.3230 C   0  0  0  0  0  0  0  0  0  0  0  0
   -6.0060    2.3260   -0.8650 C   0  0  0  0  0  0  0  0  0  0  0  0
   -7.1940    3.1050   -1.3060 C   0  0  0  0  0  0  0  0  0  0  0  0
   -5.5000    1.2950   -1.6090 C   0  0  0  0  0  0  0  0  0  0  0  0
   -4.3620    0.5400   -1.2010 C   0  0  0  0  0  0  0  0  0  0  0  0
   -4.0590   -0.5930   -2.0430 C   0  0  0  0  0  0  0  0  0  0  0  0
   -3.5080   -0.5650   -3.1570 O   0  0  0  0  0  0  0  0  0  0  0  0
   -4.4380   -1.9200   -1.5770 N   0  0  0  0  0  0  0  0  0  0  0  0
   -4.1730   -3.0900   -2.3840 C   0  0  0  0  0  0  0  0  0  0  0  0
   -3.7740    0.8720   -0.0350 C   0  0  0  0  0  0  0  0  0  0  0  0
   -2.5540    0.3160    0.5000 C   0  0  0  0  0  0  0  0  0  0  0  0
   -1.8220   -0.7110   -0.1120 N   0  0  0  0  0  0  0  0  0  0  0  0
   -0.4490   -0.2330   -0.5270 C   0  0  2  0  0  0  0  0  0  0  0  0
   -0.6170    0.9780   -1.3960 C   0  0  0  0  0  0  0  0  0  0  0  0
    0.0960   -1.3620   -1.3690 C   0  0  0  0  0  0  0  0  0  0  0  0
    0.2160   -2.6440   -0.5920 C   0  0  0  0  0  0  0  0  0  0  0  0
    1.2220   -2.4880    0.5550 C   0  0  0  0  0  0  0  0  0  0  0  0
    2.5520   -2.2230    0.0060 C   0  0  0  0  0  0  0  0  0  0  0  0
    2.7730   -2.4970   -1.2230 O   0  0  0  0  0  0  0  0  0  0  0  0
    3.6640   -1.6810    0.7030 N   0  0  0  0  0  0  0  0  0  0  0  0
    3.4530   -1.3250    2.1070 C   0  0  0  0  0  0  0  0  0  0  0  0
    3.4430    0.2110    2.0580 C   0  0  0  0  0  0  0  0  0  0  0  0
    4.7930    0.5460    1.4600 C   0  0  0  0  0  0  0  0  0  0  0  0
    5.7700    2.0210    1.7870 S   0  0  0  0  0  0  0  0  0  0  0  0
    7.1090    1.5420    0.7050 C   0  0  0  0  0  0  0  0  0  0  0  0
    8.2720    2.1750    0.4100 N   0  0  0  0  0  0  0  0  0  0  0  0
    9.1410    1.6000   -0.4530 C   0  0  0  0  0  0  0  0  0  0  0  0
   10.2270    2.1310   -0.7650 O   0  0  0  0  0  0  0  0  0  0  0  0
    8.8140    0.4190   -0.9850 N   0  0  0  0  0  0  0  0  0  0  0  0
    7.6830   -0.1980   -0.6980 C   0  0  0  0  0  0  0  0  0  0  0  0
    7.4730   -1.3190   -1.2610 O   0  0  0  0  0  0  0  0  0  0  0  0
    6.7230    0.3400    0.1960 C   0  0  0  0  0  0  0  0  0  0  0  0
    5.5120   -0.1430    0.6140 C   0  0  0  0  0  0  0  0  0  0  0  0
    4.9290   -1.4760    0.1420 C   0  0  0  0  0  0  0  0  0  0  0  0
  1  2  1  0
  2  3  1  0
  3  4  2  0
  3 13  1  0
  4  5  1  0
  5  6  1  0
  5  7  2  0
  7  8  1  0
  8  9  1  0
  8 13  2  0
  9 10  2  0
  9 11  1  0
 11 12  1  0
 13 14  1  0
 14 15  1  0
 15 16  1  0
 16 17  1  6
 16 18  1  0
 18 19  1  0
 19 20  1  0
 20 21  1  0
 21 22  2  0
 21 23  1  0
 23 24  1  0
 23 37  1  0
 24 25  1  0
 25 26  1  0
 26 27  1  0
 26 36  2  0
 27 28  1  0
 28 29  1  0
 28 35  2  0
 29 30  1  0
 30 31  2  0
 30 32  1  0
 32 33  1  0
 33 34  2  0
 33 35  1  0
 35 36  1  0
 36 37  1  0
M  CHG  1  15   1
M  END
