
     RDKit          3D

 31 33  0  0  0  0  0  0  0  0999 V2000
   -2.5620   -2.9260   -0.3420 C   0  0  0  0  0  0  0  0  0  0  0  0
   -2.3380   -2.3470    1.0050 C   0  0  2  0  0  0  0  0  0  0  0  0
   -2.7410   -3.4390    2.0150 C   0  0  0  0  0  0  0  0  0  0  0  0
   -3.3310   -1.2070    1.2720 C   0  0  0  0  0  0  0  0  0  0  0  0
   -3.2110   -0.2410    0.1470 C   0  0  0  0  0  0  0  0  0  0  0  0
   -4.4130    0.6720   -0.0220 C   0  0  0  0  0  0  0  0  0  0  0  0
   -3.9110    1.8310   -0.8950 C   0  0  1  0  0  0  0  0  0  0  0  0
   -5.1750    2.4370   -1.5080 C   0  0  0  0  0  0  0  0  0  0  0  0
   -3.3150    2.8990   -0.0240 C   0  0  0  0  0  0  0  0  0  0  0  0
   -3.0120    1.3600   -1.9720 C   0  0  0  0  0  0  0  0  0  0  0  0
   -3.5960    1.0400   -3.0670 O   0  0  0  0  0  0  0  0  0  0  0  0
   -1.6630    1.2320   -1.9280 O   0  0  0  0  0  0  0  0  0  0  0  0
   -0.6830    2.0640   -1.4230 C   0  0  0  0  0  0  0  0  0  0  0  0
    0.7270    1.5000   -1.6560 C   0  0  0  0  0  0  0  0  0  0  0  0
    1.5990    1.8740   -0.6510 O   0  0  0  0  0  0  0  0  0  0  0  0
    1.9430    1.3180    0.5330 C   0  0  0  0  0  0  0  0  0  0  0  0
    1.6200    1.8870    1.6120 O   0  0  0  0  0  0  0  0  0  0  0  0
    2.7010    0.0470    0.7210 C   0  0  2  0  0  0  0  0  0  0  0  0
    4.1410    0.4520    0.6140 C   0  0  0  0  0  0  0  0  0  0  0  0
    4.9830   -0.3560    0.0230 C   0  0  0  0  0  0  0  0  0  0  0  0
    6.4150    0.0780   -0.0680 C   0  0  0  0  0  0  0  0  0  0  0  0
    6.6710    1.1590    0.9270 C   0  0  0  0  0  0  0  0  0  0  0  0
    5.7580    2.1980    0.6270 O   0  0  0  0  0  0  0  0  0  0  0  0
    4.5580    1.7890    1.2010 C   0  0  0  0  0  0  0  0  0  0  0  0
    4.5610   -1.6650   -0.5510 C   0  0  0  0  0  0  0  0  0  0  0  0
    3.2190   -1.3460   -1.2370 C   0  0  0  0  0  0  0  0  0  0  0  0
    2.3160   -0.9960   -0.1590 N   0  0  0  0  0  0  0  0  0  0  0  0
    1.1180   -1.7230   -0.0470 C   0  0  0  0  0  0  0  0  0  0  0  0
    1.1000   -2.9820   -0.2870 O   0  0  0  0  0  0  0  0  0  0  0  0
   -0.2090   -1.1600    0.3400 C   0  0  0  0  0  0  0  0  0  0  0  0
   -0.9330   -1.9810    1.3260 C   0  0  0  0  0  0  0  0  0  0  0  0
  2  1  1  6
  2  3  1  0
  2  4  1  0
  2 31  1  0
  4  5  1  0
  5  6  1  0
  6  7  1  0
  7  8  1  6
  7  9  1  0
  7 10  1  0
 10 11  2  0
 10 12  1  0
 12 13  1  0
 13 14  1  0
 14 15  1  0
 15 16  1  0
 16 17  2  0
 18 16  1  6
 18 19  1  0
 18 27  1  0
 19 20  2  0
 19 24  1  0
 20 21  1  0
 20 25  1  0
 21 22  1  0
 22 23  1  0
 23 24  1  0
 25 26  1  0
 26 27  1  0
 27 28  1  0
 28 29  2  0
 28 30  1  0
 30 31  1  0
M  END
