
     RDKit          3D

 31 33  0  0  0  0  0  0  0  0999 V2000
   -1.3680    2.8400    3.7730 C   0  0  0  0  0  0  0  0  0  0  0  0
   -0.6260    2.4760    2.4890 C   0  0  0  0  0  0  0  0  0  0  0  0
    0.5360    3.0400    2.2210 C   0  0  0  0  0  0  0  0  0  0  0  0
    1.4150    2.8610    1.0940 C   0  0  0  0  0  0  0  0  0  0  0  0
    2.2650    1.8460    0.8150 C   0  0  0  0  0  0  0  0  0  0  0  0
    3.0620    1.8830   -0.3980 C   0  0  0  0  0  0  0  0  0  0  0  0
    3.2440    3.0680   -1.1070 C   0  0  0  0  0  0  0  0  0  0  0  0
    3.9540    3.0930   -2.2880 C   0  0  0  0  0  0  0  0  0  0  0  0
    4.5170    1.9550   -2.8240 C   0  0  0  0  0  0  0  0  0  0  0  0
    5.2800    1.9990   -4.0980 C   0  0  0  0  0  0  0  0  0  0  0  0
    4.3310    0.8320   -2.1320 N   0  0  0  0  0  0  0  0  0  0  0  0
    3.6230    0.7760   -0.9470 C   0  0  0  0  0  0  0  0  0  0  0  0
    3.5150   -0.6180   -0.4320 C   0  0  0  0  0  0  0  0  0  0  0  0
    2.4890    0.7770    1.7780 C   0  0  0  0  0  0  0  0  0  0  0  0
    3.7300    0.5150    2.0880 O   0  0  0  0  0  0  0  0  0  0  0  0
    1.6010   -0.0020    2.4250 O   0  0  0  0  0  0  0  0  0  0  0  0
    0.6380   -0.9170    2.0990 C   0  0  0  0  0  0  0  0  0  0  0  0
    0.9870   -2.3630    2.1780 C   0  0  0  0  0  0  0  0  0  0  0  0
   -0.0750   -3.2110    2.3200 O   0  0  0  0  0  0  0  0  0  0  0  0
   -1.2390   -2.8580    1.7090 C   0  0  0  0  0  0  0  0  0  0  0  0
   -1.1860   -2.7930    0.2000 C   0  0  0  0  0  0  0  0  0  0  0  0
   -2.2220   -1.9120   -0.4060 C   0  0  1  0  0  0  0  0  0  0  0  0
   -2.6140   -2.4930   -1.7530 C   0  0  0  0  0  0  0  0  0  0  0  0
   -3.9450   -2.0100   -2.2400 C   0  0  0  0  0  0  0  0  0  0  0  0
   -4.9730   -1.8370   -1.1470 C   0  0  0  0  0  0  0  0  0  0  0  0
   -4.3900   -2.5800    0.0650 C   0  0  0  0  0  0  0  0  0  0  0  0
   -3.2960   -1.8400    0.4670 O   0  0  0  0  0  0  0  0  0  0  0  0
   -1.8430   -0.6210   -0.6580 O   0  0  0  0  0  0  0  0  0  0  0  0
   -2.4460    0.3970   -0.0060 C   0  0  0  0  0  0  0  0  0  0  0  0
   -1.5210    1.5440    0.3440 C   0  0  0  0  0  0  0  0  0  0  0  0
   -1.3080    1.5520    1.7290 O   0  0  0  0  0  0  0  0  0  0  0  0
  1  2  1  0
  2  3  2  0
  2 31  1  0
  3  4  1  0
  4  5  2  0
  5  6  1  0
  5 14  1  0
  6  7  2  0
  6 12  1  0
  7  8  1  0
  8  9  2  0
  9 10  1  0
  9 11  1  0
 11 12  2  0
 12 13  1  0
 14 15  2  0
 14 16  1  0
 16 17  1  0
 17 18  1  0
 18 19  1  0
 19 20  1  0
 20 21  1  0
 22 21  1  1
 22 23  1  0
 22 27  1  0
 22 28  1  0
 23 24  1  0
 24 25  1  0
 25 26  1  0
 26 27  1  0
 28 29  1  0
 29 30  1  0
 30 31  1  0
M  END
