
     RDKit          3D

 29 32  0  0  0  0  0  0  0  0999 V2000
   -6.9710   -1.7150   -1.0130 C   0  0  0  0  0  0  0  0  0  0  0  0
   -5.9480   -1.4520    0.0710 C   0  0  0  0  0  0  0  0  0  0  0  0
   -4.8850   -0.5650   -0.5030 C   0  0  0  0  0  0  0  0  0  0  0  0
   -3.8030   -0.2370    0.5010 C   0  0  2  0  0  0  0  0  0  0  0  0
   -4.3870    0.4810    1.7060 C   0  0  0  0  0  0  0  0  0  0  0  0
   -2.8150    0.6050   -0.0610 O   0  0  0  0  0  0  0  0  0  0  0  0
   -1.4540    0.2180   -0.0900 C   0  0  0  0  0  0  0  0  0  0  0  0
   -1.2170   -0.8800    0.4030 O   0  0  0  0  0  0  0  0  0  0  0  0
   -0.4430    1.0820   -0.6670 C   0  0  0  0  0  0  0  0  0  0  0  0
    0.9020    0.7590   -0.7420 C   0  0  0  0  0  0  0  0  0  0  0  0
    1.3170   -0.5350   -0.3500 N   0  0  0  0  0  0  0  0  0  0  0  0
    2.6060   -0.9580    0.0410 C   0  0  0  0  0  0  0  0  0  0  0  0
    3.0980   -2.1940   -0.3360 C   0  0  0  0  0  0  0  0  0  0  0  0
    4.3190   -2.6710    0.0930 C   0  0  0  0  0  0  0  0  0  0  0  0
    5.1160   -1.9230    0.9310 C   0  0  0  0  0  0  0  0  0  0  0  0
    4.6530   -0.6890    1.3240 C   0  0  0  0  0  0  0  0  0  0  0  0
    3.4290   -0.2090    0.8950 C   0  0  0  0  0  0  0  0  0  0  0  0
    5.6340   -0.1460    2.1570 O   0  0  0  0  0  0  0  0  0  0  0  0
    6.8370   -0.8770    2.0350 C   0  0  0  0  0  0  0  0  0  0  0  0
    6.3640   -2.1130    1.5260 O   0  0  0  0  0  0  0  0  0  0  0  0
    1.7960    1.6780   -1.2570 N   0  0  0  0  0  0  0  0  0  0  0  0
    1.3460    2.8780   -1.6720 C   0  0  0  0  0  0  0  0  0  0  0  0
    0.0240    3.2160   -1.6090 C   0  0  0  0  0  0  0  0  0  0  0  0
   -0.9130    2.3430   -1.1110 C   0  0  0  0  0  0  0  0  0  0  0  0
   -2.1270    2.6270   -1.0450 O   0  0  0  0  0  0  0  0  0  0  0  0
    2.7760    3.8270   -2.1720 S   0  0  0  0  0  0  0  0  0  0  0  0
    3.9770    2.7200   -1.2500 C   0  0  0  0  0  0  0  0  0  0  0  0
    3.1640    1.4730   -1.5560 C   0  0  0  0  0  0  0  0  0  0  0  0
    3.7360    0.4390   -2.0240 O   0  0  0  0  0  0  0  0  0  0  0  0
  1  2  1  0
  2  3  1  0
  3  4  1  0
  4  5  1  1
  4  6  1  0
  6  7  1  0
  7  8  2  0
  7  9  1  0
  9 10  2  0
  9 24  1  0
 10 11  1  0
 10 21  1  0
 11 12  1  0
 12 13  2  0
 12 17  1  0
 13 14  1  0
 14 15  2  0
 15 16  1  0
 15 20  1  0
 16 17  2  0
 16 18  1  0
 18 19  1  0
 19 20  1  0
 21 22  1  0
 21 28  1  0
 22 23  2  0
 22 26  1  0
 23 24  1  0
 24 25  2  0
 26 27  1  0
 27 28  1  0
 28 29  2  0
M  END
