
     RDKit          3D

 31 33  0  0  0  0  0  0  0  0999 V2000
    1.3570   -4.2820    1.2350 C   0  0  0  0  0  0  0  0  0  0  0  0
    1.2720   -3.2610    0.1290 C   0  0  0  0  0  0  0  0  0  0  0  0
    1.0220   -1.8660    0.6810 C   0  0  0  0  0  0  0  0  0  0  0  0
    0.9290   -0.8230   -0.3910 C   0  0  1  0  0  0  0  0  0  0  0  0
   -0.1110   -0.9730   -1.3980 C   0  0  0  0  0  0  0  0  0  0  0  0
   -0.2050   -0.0010   -2.2340 O   0  0  0  0  0  0  0  0  0  0  0  0
   -1.0800   -2.0450   -1.6380 C   0  0  0  0  0  0  0  0  0  0  0  0
   -1.1840   -2.7570   -2.7880 C   0  0  0  0  0  0  0  0  0  0  0  0
   -2.2500   -3.7550   -2.7030 C   0  0  0  0  0  0  0  0  0  0  0  0
   -2.7650   -3.5210   -1.3490 C   0  0  0  0  0  0  0  0  0  0  0  0
   -2.0880   -2.5410   -0.7480 C   0  0  0  0  0  0  0  0  0  0  0  0
   -2.3900   -2.0530    0.6360 C   0  0  0  0  0  0  0  0  0  0  0  0
   -2.0660   -0.7450    0.7100 O   0  0  0  0  0  0  0  0  0  0  0  0
   -3.0670    0.0760    1.2170 C   0  0  0  0  0  0  0  0  0  0  0  0
   -3.4600    1.0580    0.1820 C   0  0  0  0  0  0  0  0  0  0  0  0
   -2.9770    2.3580    0.3210 O   0  0  0  0  0  0  0  0  0  0  0  0
   -2.4800    3.0400    1.3910 C   0  0  0  0  0  0  0  0  0  0  0  0
   -3.2730    4.1680    2.0300 C   0  0  0  0  0  0  0  0  0  0  0  0
   -1.2940    2.7960    1.9560 C   0  0  0  0  0  0  0  0  0  0  0  0
   -0.3330    1.8100    1.5730 C   0  0  0  0  0  0  0  0  0  0  0  0
    0.1840    1.0780    2.4860 O   0  0  0  0  0  0  0  0  0  0  0  0
    0.1310    1.5550    0.1660 C   0  0  1  0  0  0  0  0  0  0  0  0
    0.7090    2.8860   -0.2940 C   0  0  0  0  0  0  0  0  0  0  0  0
    1.2340    2.8430   -1.7050 C   0  0  0  0  0  0  0  0  0  0  0  0
    2.3460    1.8320   -1.7930 C   0  0  0  0  0  0  0  0  0  0  0  0
    2.3810    1.1420   -0.5240 N   0  0  0  0  0  0  0  0  0  0  0  0
    3.6200    1.0280    0.1510 C   0  0  0  0  0  0  0  0  0  0  0  0
    3.7850    0.4600    1.2560 O   0  0  0  0  0  0  0  0  0  0  0  0
    4.7460    1.5780   -0.4360 O   0  0  0  0  0  0  0  0  0  0  0  0
    6.0380    1.5300    0.1360 C   0  0  0  0  0  0  0  0  0  0  0  0
    1.2090    0.5510    0.1060 C   0  0  2  0  0  0  0  0  0  0  0  0
  1  2  1  0
  2  3  1  0
  4  3  1  1
  4  5  1  0
  4 31  1  0
  5  6  2  0
  5  7  1  0
  7  8  2  0
  7 11  1  0
  8  9  1  0
  9 10  1  0
 10 11  2  0
 11 12  1  0
 12 13  1  0
 13 14  1  0
 14 15  1  0
 15 16  1  0
 16 17  1  0
 17 18  1  0
 17 19  2  0
 19 20  1  0
 20 21  2  0
 20 22  1  0
 22 23  1  1
 22 31  1  0
 23 24  1  0
 24 25  1  0
 25 26  1  0
 26 27  1  0
 31 26  1  6
 27 28  2  0
 27 29  1  0
 29 30  1  0
M  END
