
     RDKit          3D

 30 34  0  0  0  0  0  0  0  0999 V2000
    5.9910   -0.8740   -1.7860 C   0  0  0  0  0  0  0  0  0  0  0  0
    6.6800    0.0010   -0.8660 N   0  0  0  0  0  0  0  0  0  0  0  0
    7.7710    0.7330   -1.2110 C   0  0  0  0  0  0  0  0  0  0  0  0
    8.1160    1.4100   -0.0750 C   0  0  0  0  0  0  0  0  0  0  0  0
    7.2580    1.0790    0.8790 N   0  0  0  0  0  0  0  0  0  0  0  0
    6.3510    0.2020    0.4170 C   0  0  0  0  0  0  0  0  0  0  0  0
    5.2580   -0.3630    1.2250 C   0  0  0  0  0  0  0  0  0  0  0  0
    4.0440   -0.6040    0.5030 N   0  0  0  0  0  0  0  0  0  0  0  0
    3.5680    0.6650   -0.0180 C   0  0  0  0  0  0  0  0  0  0  0  0
    2.2510    0.4940   -0.7750 C   0  0  0  0  0  0  0  0  0  0  0  0
    1.2590   -0.1740    0.1270 C   0  0  2  0  0  0  0  0  0  0  0  0
    1.8040   -0.4530    1.5120 C   0  0  0  0  0  0  0  0  0  0  0  0
    3.0840   -1.2170    1.3700 C   0  0  0  0  0  0  0  0  0  0  0  0
    0.7840   -1.4580   -0.5090 C   0  0  0  0  0  0  0  0  0  0  0  0
   -0.3720   -0.9720   -1.3760 C   0  0  0  0  0  0  0  0  0  0  0  0
   -1.0570   -0.0960   -0.4320 N   0  0  0  0  0  0  0  0  0  0  0  0
   -2.4640    0.0000   -0.2540 C   0  0  0  0  0  0  0  0  0  0  0  0
   -3.2980   -1.0910   -0.5080 C   0  0  0  0  0  0  0  0  0  0  0  0
   -4.6610   -1.0190   -0.3420 C   0  0  0  0  0  0  0  0  0  0  0  0
   -5.2710    0.1500    0.0880 C   0  0  0  0  0  0  0  0  0  0  0  0
   -6.7240    0.2260    0.2640 C   0  0  0  0  0  0  0  0  0  0  0  0
   -7.5760   -0.5060   -0.5300 C   0  0  0  0  0  0  0  0  0  0  0  0
   -8.9510   -0.4420   -0.3720 C   0  0  0  0  0  0  0  0  0  0  0  0
   -9.4400    0.3810    0.6110 C   0  0  0  0  0  0  0  0  0  0  0  0
   -8.6270    1.1340    1.4320 C   0  0  0  0  0  0  0  0  0  0  0  0
   -7.2480    1.0330    1.2300 C   0  0  0  0  0  0  0  0  0  0  0  0
   -4.4530    1.2300    0.3400 C   0  0  0  0  0  0  0  0  0  0  0  0
   -3.0890    1.1490    0.1710 C   0  0  0  0  0  0  0  0  0  0  0  0
   -0.0220    0.6070    0.2380 C   0  0  0  0  0  0  0  0  0  0  0  0
   -0.1960    1.7120    0.8220 O   0  0  0  0  0  0  0  0  0  0  0  0
  1  2  1  0
  2  3  1  0
  2  6  1  0
  3  4  2  0
  4  5  1  0
  5  6  2  0
  6  7  1  0
  7  8  1  0
  8  9  1  0
  8 13  1  0
  9 10  1  0
 11 10  1  6
 11 12  1  0
 11 14  1  0
 11 29  1  0
 12 13  1  0
 14 15  1  0
 15 16  1  0
 16 17  1  0
 16 29  1  0
 17 18  2  0
 17 28  1  0
 18 19  1  0
 19 20  2  0
 20 21  1  0
 20 27  1  0
 21 22  2  0
 21 26  1  0
 22 23  1  0
 23 24  2  0
 24 25  1  0
 25 26  2  0
 27 28  2  0
 29 30  2  0
M  END
