
     RDKit          3D

 29 32  0  0  0  0  0  0  0  0999 V2000
   -3.4730   -2.5520   -1.4850 C   0  0  0  0  0  0  0  0  0  0  0  0
   -3.9650   -1.2220   -1.0590 C   0  0  0  0  0  0  0  0  0  0  0  0
   -4.7020   -0.4740   -1.9560 C   0  0  0  0  0  0  0  0  0  0  0  0
   -5.1790    0.7590   -1.6140 C   0  0  0  0  0  0  0  0  0  0  0  0
   -4.9180    1.2520   -0.3610 C   0  0  0  0  0  0  0  0  0  0  0  0
   -4.1720    0.5020    0.5570 C   0  0  0  0  0  0  0  0  0  0  0  0
   -3.6880   -0.7340    0.2230 C   0  0  0  0  0  0  0  0  0  0  0  0
   -2.7970   -1.7700    1.2780 S   0  0  1  0  0  0  0  0  0  0  0  0
   -3.6950   -2.9510    1.7200 O   0  0  0  0  0  0  0  0  0  0  0  0
   -1.5850   -2.3520    0.6140 O   0  0  0  0  0  0  0  0  0  0  0  0
   -2.3230   -0.9550    2.7620 C   0  0  0  0  0  0  0  0  0  0  0  0
   -1.4100    0.1740    2.5210 C   0  0  0  0  0  0  0  0  0  0  0  0
   -0.0590   -0.2230    1.9610 C   0  0  0  0  0  0  0  0  0  0  0  0
    0.2860   -1.4190    1.9330 O   0  0  0  0  0  0  0  0  0  0  0  0
    0.8220    0.7540    1.4650 N   0  0  0  0  0  0  0  0  0  0  0  0
    2.1060    0.5640    0.9170 C   0  0  0  0  0  0  0  0  0  0  0  0
    2.7770   -0.6160    0.9670 C   0  0  0  0  0  0  0  0  0  0  0  0
    4.0540   -0.7710    0.3940 C   0  0  0  0  0  0  0  0  0  0  0  0
    4.6730    0.2750   -0.2420 C   0  0  0  0  0  0  0  0  0  0  0  0
    6.0050    0.1240   -0.8430 C   0  0  0  0  0  0  0  0  0  0  0  0
    6.6510    1.0740   -1.4620 C   0  0  0  0  0  0  0  0  0  0  0  0
    7.9640    0.4950   -1.9170 C   0  0  0  0  0  0  0  0  0  0  0  0
    8.0210   -0.7860   -1.4090 O   0  0  0  0  0  0  0  0  0  0  0  0
    6.8080   -1.0300   -0.8670 N   0  0  0  0  0  0  0  0  0  0  0  0
    4.0020    1.4770   -0.2990 C   0  0  0  0  0  0  0  0  0  0  0  0
    2.7580    1.6180    0.2630 C   0  0  0  0  0  0  0  0  0  0  0  0
   -5.5180    2.5110   -0.2900 O   0  0  0  0  0  0  0  0  0  0  0  0
   -6.3910    2.6390   -1.4190 C   0  0  0  0  0  0  0  0  0  0  0  0
   -5.9300    1.6670   -2.3480 O   0  0  0  0  0  0  0  0  0  0  0  0
  1  2  1  0
  2  3  2  0
  2  7  1  0
  3  4  1  0
  4  5  2  0
  4 29  1  0
  5  6  1  0
  5 27  1  0
  6  7  2  0
  7  8  1  0
  8  9  2  0
  8 10  2  0
  8 11  1  1
 11 12  1  0
 12 13  1  0
 13 14  2  0
 13 15  1  0
 15 16  1  0
 16 17  2  0
 16 26  1  0
 17 18  1  0
 18 19  2  0
 19 20  1  0
 19 25  1  0
 20 21  2  0
 20 24  1  0
 21 22  1  0
 22 23  1  0
 23 24  1  0
 25 26  2  0
 27 28  1  0
 28 29  1  0
M  END
