
     RDKit          3D

 24 25  0  0  0  0  0  0  0  0999 V2000
    3.2270    0.5850   -3.2190 C   0  0  0  0  0  0  0  0  0  0  0  0
    2.9880   -0.7690   -2.8140 O   0  0  0  0  0  0  0  0  0  0  0  0
    2.5280   -0.9490   -1.5190 C   0  0  0  0  0  0  0  0  0  0  0  0
    1.2820   -0.4840   -1.2510 C   0  0  0  0  0  0  0  0  0  0  0  0
    0.3880    0.1460   -2.0810 O   0  0  0  0  0  0  0  0  0  0  0  0
   -0.7710    0.4540   -1.3850 C   0  0  0  0  0  0  0  0  0  0  0  0
   -0.5180   -0.0530    0.0240 C   0  0  0  0  0  0  0  0  0  0  0  0
   -1.4830    0.1640    1.0720 C   0  0  0  0  0  0  0  0  0  0  0  0
   -1.2780   -0.1610    2.3840 O   0  0  0  0  0  0  0  0  0  0  0  0
   -1.1940    1.0600    3.6560 P   0  0  0  0  0  0  0  0  0  0  0  0
   -2.6700    0.7190    0.8120 C   0  0  0  0  0  0  0  0  0  0  0  0
   -3.6300    0.9320    1.8790 N   0  0  0  0  0  0  0  0  0  0  0  0
   -4.7940    0.4680    1.7850 O   0  0  0  0  0  0  0  0  0  0  0  0
   -3.0510    1.1130   -0.4940 N   0  0  0  0  0  0  0  0  0  0  0  0
   -3.8180    2.1070   -0.7210 C   0  0  0  0  0  0  0  0  0  0  0  0
   -4.1680    2.4540   -2.1140 C   0  0  0  0  0  0  0  0  0  0  0  0
   -4.3200    2.8570    0.2800 F   0  0  0  0  0  0  0  0  0  0  0  0
    0.7080   -0.6120    0.0800 C   0  0  0  0  0  0  0  0  0  0  0  0
    1.5200   -1.2600    1.1040 C   0  0  2  0  0  0  0  0  0  0  0  0
    0.8220   -1.8930    2.2710 C   0  0  0  0  0  0  0  0  0  0  0  0
    2.3690   -0.2510    1.6280 O   0  0  0  0  0  0  0  0  0  0  0  0
    2.4690   -2.2690    0.4780 C   0  0  2  0  0  0  0  0  0  0  0  0
    3.2390   -2.9030    1.4560 O   0  0  0  0  0  0  0  0  0  0  0  0
    3.2680   -1.5790   -0.4860 N   0  0  0  0  0  0  0  0  0  0  0  0
  1  2  1  0
  2  3  1  0
  3  4  2  0
  3 24  1  0
  4  5  1  0
  4 18  1  0
  5  6  1  0
  6  7  1  0
  7  8  1  0
  7 18  2  0
  8  9  1  0
  8 11  2  3
  9 10  1  0
 11 12  1  0
 11 14  1  0
 12 13  2  0
 14 15  2  3
 15 16  1  0
 15 17  1  0
 18 19  1  0
 19 20  1  1
 19 21  1  0
 19 22  1  0
 22 23  1  1
 22 24  1  0
M  END
