
     RDKit          3D

 24 24  0  0  0  0  0  0  0  0999 V2000
   -3.5220   -2.8320    1.1850 C   0  0  0  0  0  0  0  0  0  0  0  0
   -4.0490   -1.7900    0.5560 C   0  0  0  0  0  0  0  0  0  0  0  0
   -3.2000   -0.6440    0.1560 C   0  0  1  0  0  0  0  0  0  0  0  0
   -4.0170    0.4660   -0.4250 C   0  0  0  0  0  0  0  0  0  0  0  0
   -4.7860    0.0620   -1.6490 C   0  0  0  0  0  0  0  0  0  0  0  0
   -2.5680   -0.1070    1.4460 C   0  0  0  0  0  0  0  0  0  0  0  0
   -1.7090    1.0490    1.0820 C   0  0  0  0  0  0  0  0  0  0  0  0
   -0.9780    1.0640   -0.0190 C   0  0  0  0  0  0  0  0  0  0  0  0
   -0.1960    2.1930   -0.2870 N   0  0  0  0  0  0  0  0  0  0  0  0
    0.5290    2.8210    0.5560 C   0  0  0  0  0  0  0  0  0  0  0  0
   -1.0440   -0.0830   -0.8590 N   0  0  0  0  0  0  0  0  0  0  0  0
   -0.0490   -0.2090   -1.8590 C   0  0  0  0  0  0  0  0  0  0  0  0
    1.5800   -0.2100   -1.5580 P   0  0  0  0  0  0  0  0  0  0  0  0
    2.2920   -0.0500    0.1000 C   0  0  0  0  0  0  0  0  0  0  0  0
    1.9250   -0.8610    1.0490 C   0  0  0  0  0  0  0  0  0  0  0  0
    3.2170    0.9280    0.3500 O   0  0  0  0  0  0  0  0  0  0  0  0
    3.5550    1.9070   -0.4840 O   0  0  0  0  0  0  0  0  0  0  0  0
    4.7690    1.6840   -0.9850 O   0  0  0  0  0  0  0  0  0  0  0  0
    5.3570    0.7580   -0.2080 N   0  0  0  0  0  0  0  0  0  0  0  0
    6.3630    0.1520   -0.8560 O   0  0  0  0  0  0  0  0  0  0  0  0
    6.9210   -0.8210   -0.0080 C   0  0  0  0  0  0  0  0  0  0  0  0
    5.7600    1.2620    0.9870 O   0  0  0  0  0  0  0  0  0  0  0  0
    5.7700    2.5850    0.9740 F   0  0  0  0  0  0  0  0  0  0  0  0
   -2.0750   -1.1000   -0.7210 C   0  0  0  0  0  0  0  0  0  0  0  0
  1  2  2  0
  2  3  1  0
  3  4  1  6
  3  6  1  0
  3 24  1  0
  4  5  1  0
  6  7  1  0
  7  8  2  0
  8  9  1  0
  8 11  1  0
  9 10  2  0
 11 12  1  0
 11 24  1  0
 12 13  2  3
 13 14  1  0
 14 15  2  0
 14 16  1  0
 16 17  1  0
 17 18  1  0
 18 19  1  0
 19 20  1  0
 19 22  1  0
 20 21  1  0
 22 23  1  0
M  END
