
     RDKit          3D

 24 24  0  0  0  0  0  0  0  0999 V2000
    0.9050    0.9230   -0.2110 C   0  0  0  0  0  0  0  0  0  0  0  0
    1.1060   -0.2290   -0.7980 C   0  0  0  0  0  0  0  0  0  0  0  0
    2.4240   -0.5500   -1.2360 N   0  0  0  0  0  0  0  0  0  0  0  0
    3.3880    0.4060   -1.5430 N   0  0  0  0  0  0  0  0  0  0  0  0
    3.0390    1.2360   -2.5240 O   0  0  0  0  0  0  0  0  0  0  0  0
    3.9350    1.0070   -0.4530 O   0  0  0  0  0  0  0  0  0  0  0  0
    5.2610    0.8690   -0.1210 C   0  0  0  0  0  0  0  0  0  0  0  0
    5.7760    1.5690    0.8590 C   0  0  0  0  0  0  0  0  0  0  0  0
    6.2960   -0.2970   -1.0570 P   0  0  0  0  0  0  0  0  0  0  0  0
    7.1820   -1.4920    0.0570 C   0  0  0  0  0  0  0  0  0  0  0  0
    0.0980   -1.1610   -1.0170 O   0  0  0  0  0  0  0  0  0  0  0  0
   -1.2520   -0.8380   -0.9050 C   0  0  0  0  0  0  0  0  0  0  0  0
   -1.8230   -0.9250    0.2740 C   0  0  0  0  0  0  0  0  0  0  0  0
   -1.1710   -1.3470    1.5680 C   0  0  0  0  0  0  0  0  0  0  0  0
   -1.9440   -0.5690    2.4690 O   0  0  0  0  0  0  0  0  0  0  0  0
   -3.2380   -0.4320    1.9310 C   0  0  0  0  0  0  0  0  0  0  0  0
   -4.3460   -0.1300    2.7080 O   0  0  0  0  0  0  0  0  0  0  0  0
   -3.2190   -0.6320    0.6270 C   0  0  0  0  0  0  0  0  0  0  0  0
   -4.3070   -0.5700   -0.3500 C   0  0  0  0  0  0  0  0  0  0  0  0
   -4.0620   -0.8550   -1.6080 N   0  0  0  0  0  0  0  0  0  0  0  0
   -5.6890   -0.1400   -0.0470 C   0  0  1  0  0  0  0  0  0  0  0  0
   -6.2110   -0.8030    1.0490 F   0  0  0  0  0  0  0  0  0  0  0  0
   -5.8480    1.3260    0.2010 C   0  0  0  0  0  0  0  0  0  0  0  0
   -7.2100    1.5810    0.4830 O   0  0  0  0  0  0  0  0  0  0  0  0
  1  2  2  0
  2  3  1  0
  2 11  1  0
  3  4  1  0
  4  5  1  0
  4  6  1  0
  6  7  1  0
  7  8  2  0
  7  9  1  0
  9 10  1  0
 11 12  1  0
 12 13  2  3
 13 14  1  0
 13 18  1  0
 14 15  1  0
 15 16  1  0
 16 17  1  0
 16 18  2  0
 18 19  1  0
 19 20  2  0
 19 21  1  0
 21 22  1  1
 21 23  1  0
 23 24  1  0
M  END
