
     RDKit          3D

 24 25  0  0  0  0  0  0  0  0999 V2000
    9.0170    1.6780    0.5130 C   0  0  0  0  0  0  0  0  0  0  0  0
    7.5450    1.3680    0.5280 C   0  0  0  0  0  0  0  0  0  0  0  0
    6.7560    2.1880    1.0700 O   0  0  0  0  0  0  0  0  0  0  0  0
    7.0320    0.2240   -0.0270 O   0  0  0  0  0  0  0  0  0  0  0  0
    5.6600   -0.0100    0.0160 C   0  0  0  0  0  0  0  0  0  0  0  0
    5.1030   -0.6580    1.0220 C   0  0  0  0  0  0  0  0  0  0  0  0
    3.7790   -0.9330    1.1520 O   0  0  0  0  0  0  0  0  0  0  0  0
    2.7380   -0.6300    0.3270 C   0  0  0  0  0  0  0  0  0  0  0  0
    1.5060   -1.0060    0.6640 C   0  0  0  0  0  0  0  0  0  0  0  0
    0.3830   -0.7270   -0.1400 N   0  0  0  0  0  0  0  0  0  0  0  0
   -0.8450   -0.2580    0.4490 C   0  0  1  0  0  0  0  0  0  0  0  0
   -1.9020   -0.0300   -0.6180 C   0  0  0  0  0  0  0  0  0  0  0  0
   -2.4230   -1.3770   -0.7880 N   0  0  0  0  0  0  0  0  0  0  0  0
   -3.7630   -1.3440   -0.9030 O   0  0  0  0  0  0  0  0  0  0  0  0
   -4.5590   -0.2250   -0.9630 C   0  0  0  0  0  0  0  0  0  0  0  0
   -4.5640    0.6000   -2.1780 C   0  0  0  0  0  0  0  0  0  0  0  0
   -5.3010    0.0880    0.0640 C   0  0  0  0  0  0  0  0  0  0  0  0
   -5.3320   -0.7170    1.3220 C   0  0  0  0  0  0  0  0  0  0  0  0
   -6.1550    1.2980   -0.0130 C   0  0  0  0  0  0  0  0  0  0  0  0
   -1.9340   -2.1250    0.2640 N   0  0  0  0  0  0  0  0  0  0  0  0
   -2.8150   -2.9940    0.7690 F   0  0  0  0  0  0  0  0  0  0  0  0
   -1.4400   -1.2900    1.1890 O   0  0  0  0  0  0  0  0  0  0  0  0
    2.9010    0.1090   -0.9460 C   0  0  0  0  0  0  0  0  0  0  0  0
    4.4720    0.5310   -1.2710 P   0  0  0  0  0  0  0  0  0  0  0  0
  1  2  1  0
  2  3  2  0
  2  4  1  0
  4  5  1  0
  5  6  2  0
  5 24  1  0
  6  7  1  0
  7  8  1  0
  8  9  2  3
  8 23  1  0
  9 10  1  0
 11 10  1  6
 11 12  1  0
 11 22  1  0
 12 13  1  0
 13 14  1  0
 13 20  1  0
 14 15  1  0
 15 16  1  0
 15 17  2  3
 17 18  1  0
 17 19  1  0
 20 21  1  0
 20 22  1  0
 23 24  2  0
M  END
