
     RDKit          3D

 24 26  0  0  0  0  0  0  0  0999 V2000
    5.2470   -1.5910   -0.4340 C   0  0  0  0  0  0  0  0  0  0  0  0
    4.9790   -0.6840    0.4800 C   0  0  0  0  0  0  0  0  0  0  0  0
    4.5880    0.6400    0.1550 N   0  0  0  0  0  0  0  0  0  0  0  0
    3.0430    1.2570    0.6690 P   0  0  0  0  0  0  0  0  0  0  0  0
    2.4810    2.8100   -0.0200 C   0  0  0  0  0  0  0  0  0  0  0  0
    1.9460    0.2080    1.3490 O   0  0  0  0  0  0  0  0  0  0  0  0
    1.1100   -0.3220    0.3750 C   0  0  2  0  0  0  0  0  0  0  0  0
    1.9250   -0.9980   -0.5380 O   0  0  0  0  0  0  0  0  0  0  0  0
    0.4330    0.6700   -0.3570 O   0  0  0  0  0  0  0  0  0  0  0  0
   -0.9410    0.4180   -0.3300 C   0  0  0  0  0  0  0  0  0  0  0  0
   -2.0250    0.9620   -0.8050 C   0  0  0  0  0  0  0  0  0  0  0  0
   -1.8560    2.1890   -1.6070 C   0  0  0  0  0  0  0  0  0  0  0  0
   -0.7040    2.6310   -1.7830 O   0  0  0  0  0  0  0  0  0  0  0  0
   -2.9090    2.8180   -2.1350 F   0  0  0  0  0  0  0  0  0  0  0  0
   -3.3710    0.4090   -0.5730 C   0  0  0  0  0  0  0  0  0  0  0  0
   -3.4790   -0.7830    0.2080 N   0  0  0  0  0  0  0  0  0  0  0  0
   -4.7740   -1.3870    0.4740 C   0  0  0  0  0  0  0  0  0  0  0  0
   -5.5370   -0.4420    1.1580 O   0  0  0  0  0  0  0  0  0  0  0  0
   -2.3450   -1.4120    0.7460 C   0  0  0  0  0  0  0  0  0  0  0  0
   -2.3320   -2.4970    1.4720 C   0  0  0  0  0  0  0  0  0  0  0  0
   -1.2300   -2.9630    1.8970 N   0  0  0  0  0  0  0  0  0  0  0  0
    0.0100   -2.3980    1.6470 O   0  0  0  0  0  0  0  0  0  0  0  0
    0.0930   -1.2220    0.8710 C   0  0  0  0  0  0  0  0  0  0  0  0
   -1.0690   -0.7840    0.4590 C   0  0  0  0  0  0  0  0  0  0  0  0
  1  2  2  0
  2  3  1  0
  3  4  1  0
  4  5  1  0
  4  6  1  0
  6  7  1  0
  7  8  1  6
  7  9  1  0
  7 23  1  0
  9 10  1  0
 10 11  2  0
 10 24  1  0
 11 12  1  0
 11 15  1  0
 12 13  2  0
 12 14  1  0
 15 16  1  0
 16 17  1  0
 16 19  1  0
 17 18  1  0
 19 20  2  0
 19 24  1  0
 20 21  2  0
 21 22  1  0
 22 23  1  0
 23 24  2  0
M  END
