
     RDKit          3D

 25 25  0  0  0  0  0  0  0  0999 V2000
    6.7750   -0.6650   -0.5610 O   0  0  0  0  0  0  0  0  0  0  0  0
    7.0020    0.4090    0.0150 C   0  0  0  0  0  0  0  0  0  0  0  0
    6.1640    1.4860   -0.1380 O   0  0  0  0  0  0  0  0  0  0  0  0
    5.0200    1.4280   -0.9420 C   0  0  0  0  0  0  0  0  0  0  0  0
    4.0300    0.3960   -0.4690 C   0  0  0  0  0  0  0  0  0  0  0  0
    2.9270    0.4360   -1.3550 O   0  0  0  0  0  0  0  0  0  0  0  0
    1.8120   -0.7590   -0.7830 P   0  0  0  0  0  0  0  0  0  0  0  0
    1.7420   -0.7900    0.9510 O   0  0  0  0  0  0  0  0  0  0  0  0
    0.5640   -1.4580    1.2860 C   0  0  0  0  0  0  0  0  0  0  0  0
   -0.5290   -0.4520    1.3960 C   0  0  0  0  0  0  0  0  0  0  0  0
   -1.3480   -0.2400    0.1820 C   0  0  1  0  0  0  0  0  0  0  0  0
   -1.9630   -1.4030   -0.4900 C   0  0  0  0  0  0  0  0  0  0  0  0
   -2.9740   -2.0120    0.1570 O   0  0  0  0  0  0  0  0  0  0  0  0
   -3.0980   -2.7450    1.2750 C   0  0  0  0  0  0  0  0  0  0  0  0
   -2.0830   -2.9950    1.9500 O   0  0  0  0  0  0  0  0  0  0  0  0
   -4.3640   -3.2470    1.7110 O   0  0  0  0  0  0  0  0  0  0  0  0
   -2.3640    0.6740    0.5120 O   0  0  0  0  0  0  0  0  0  0  0  0
   -3.3330    1.2000   -0.2680 C   0  0  0  0  0  0  0  0  0  0  0  0
   -3.3820    0.8740   -1.4590 O   0  0  0  0  0  0  0  0  0  0  0  0
   -4.3010    2.1150    0.2180 O   0  0  0  0  0  0  0  0  0  0  0  0
   -5.2690    2.6160   -0.6410 C   0  0  0  0  0  0  0  0  0  0  0  0
   -5.2370    2.2230   -1.8360 O   0  0  0  0  0  0  0  0  0  0  0  0
   -6.2510    3.5240   -0.2090 O   0  0  0  0  0  0  0  0  0  0  0  0
   -0.4250    0.4310   -0.8880 C   0  0  0  0  0  0  0  0  0  0  0  0
    0.2620   -0.6120   -1.4970 O   0  0  0  0  0  0  0  0  0  0  0  0
  1  2  2  0
  2  3  1  0
  3  4  1  0
  4  5  1  0
  5  6  1  0
  6  7  1  0
  7  8  1  0
  7 25  1  0
  8  9  1  0
  9 10  1  0
 10 11  1  0
 11 12  1  6
 11 17  1  0
 11 24  1  0
 12 13  1  0
 13 14  1  0
 14 15  2  0
 14 16  1  0
 17 18  1  0
 18 19  2  0
 18 20  1  0
 20 21  1  0
 21 22  2  0
 21 23  1  0
 24 25  1  0
M  END
