
     RDKit          3D

 25 26  0  0  0  0  0  0  0  0999 V2000
   -2.9380    2.5910    1.6960 O   0  0  0  0  0  0  0  0  0  0  0  0
   -2.9320    2.9900    0.5130 C   0  0  0  0  0  0  0  0  0  0  0  0
   -4.0530    3.7740    0.1520 O   0  0  0  0  0  0  0  0  0  0  0  0
   -1.9350    2.6990   -0.3590 O   0  0  0  0  0  0  0  0  0  0  0  0
   -0.8100    1.9530   -0.1530 C   0  0  0  0  0  0  0  0  0  0  0  0
   -1.0190    0.4730    0.1260 C   0  0  2  0  0  0  0  0  0  0  0  0
    0.3900   -0.0990    0.0020 C   0  0  0  0  0  0  0  0  0  0  0  0
    0.6230   -0.8720   -0.9240 O   0  0  0  0  0  0  0  0  0  0  0  0
    1.3670    0.2380    0.8970 O   0  0  0  0  0  0  0  0  0  0  0  0
    2.6940   -0.2430    0.8550 C   0  0  0  0  0  0  0  0  0  0  0  0
    3.3430    0.1640   -0.4390 C   0  0  0  0  0  0  0  0  0  0  0  0
    5.0940   -0.4760   -0.4800 P   0  0  0  0  0  0  0  0  0  0  0  0
    5.1880   -1.8050    0.6320 O   0  0  0  0  0  0  0  0  0  0  0  0
    5.9670   -2.7660    0.1840 O   0  0  0  0  0  0  0  0  0  0  0  0
    6.1900    0.7490    0.0330 O   0  0  0  0  0  0  0  0  0  0  0  0
    5.7810    1.9570   -0.3350 O   0  0  0  0  0  0  0  0  0  0  0  0
   -1.7190   -0.0990   -0.9130 O   0  0  0  0  0  0  0  0  0  0  0  0
   -2.6130   -1.0640   -0.5790 C   0  0  2  0  0  0  0  0  0  0  0  0
   -2.1510   -2.4700   -0.3880 C   0  0  0  0  0  0  0  0  0  0  0  0
   -2.1360   -2.5960   -1.7770 O   0  0  0  0  0  0  0  0  0  0  0  0
   -3.2600   -1.7340   -1.7700 C   0  0  0  0  0  0  0  0  0  0  0  0
   -3.5710   -0.5850    0.4890 C   0  0  0  0  0  0  0  0  0  0  0  0
   -2.7600   -0.4030    1.6470 O   0  0  0  0  0  0  0  0  0  0  0  0
   -1.5340    0.2140    1.4650 C   0  0  0  0  0  0  0  0  0  0  0  0
   -0.8290    0.5660    2.4810 O   0  0  0  0  0  0  0  0  0  0  0  0
  1  2  2  0
  2  3  1  0
  2  4  1  0
  4  5  1  0
  6  5  1  6
  6  7  1  0
  6 17  1  0
  6 24  1  0
  7  8  2  0
  7  9  1  0
  9 10  1  0
 10 11  1  0
 11 12  1  0
 12 13  1  0
 12 15  1  0
 13 14  1  0
 15 16  1  0
 17 18  1  0
 18 19  1  1
 18 21  1  0
 18 22  1  0
 19 20  1  0
 20 21  1  0
 22 23  1  0
 23 24  1  0
 24 25  2  0
M  END
