
     RDKit          3D

 23 23  0  0  0  0  0  0  0  0999 V2000
   -3.7030   -1.5330    1.8750 C   0  0  0  0  0  0  0  0  0  0  0  0
   -3.1840   -1.8480    0.7110 C   0  0  0  0  0  0  0  0  0  0  0  0
   -1.8530   -2.1800    0.5300 O   0  0  0  0  0  0  0  0  0  0  0  0
   -1.1880   -1.8690   -0.6350 C   0  0  2  0  0  0  0  0  0  0  0  0
   -1.6400   -2.4020   -1.9380 C   0  0  0  0  0  0  0  0  0  0  0  0
    0.3500   -2.0150   -0.5710 C   0  0  0  0  0  0  0  0  0  0  0  0
    0.3370   -0.9210   -1.4790 O   0  0  0  0  0  0  0  0  0  0  0  0
   -0.6360   -0.3870   -0.6800 C   0  0  2  0  0  0  0  0  0  0  0  0
   -0.2820   -0.1460    0.6740 O   0  0  0  0  0  0  0  0  0  0  0  0
    0.3290    0.9450    1.1800 C   0  0  0  0  0  0  0  0  0  0  0  0
   -0.1320    1.7320    2.3090 C   0  0  0  0  0  0  0  0  0  0  0  0
    1.4120    1.2750    0.5780 N   0  0  0  0  0  0  0  0  0  0  0  0
    2.5420    1.2450    0.0370 N   0  0  0  0  0  0  0  0  0  0  0  0
    3.5610    0.9010    0.8940 O   0  0  0  0  0  0  0  0  0  0  0  0
    4.7870    0.4260    0.5530 C   0  0  0  0  0  0  0  0  0  0  0  0
    5.2430   -0.6900    1.0710 C   0  0  0  0  0  0  0  0  0  0  0  0
    5.5790    1.1120   -0.3470 O   0  0  0  0  0  0  0  0  0  0  0  0
   -1.6990    0.4760   -1.2480 C   0  0  2  0  0  0  0  0  0  0  0  0
   -2.4730    0.9210   -0.1370 O   0  0  0  0  0  0  0  0  0  0  0  0
   -2.5600   -0.3430   -2.0170 F   0  0  0  0  0  0  0  0  0  0  0  0
   -1.2110    1.8140   -2.2630 S   0  0  0  0  0  0  0  0  0  0  0  0
   -0.3910    3.2130   -1.5710 C   0  0  0  0  0  0  0  0  0  0  0  0
   -1.4540    4.1260   -0.4440 Cl  0  0  0  0  0  0  0  0  0  0  0  0
  1  2  2  0
  2  3  1  0
  3  4  1  0
  4  5  1  6
  4  6  1  0
  4  8  1  0
  6  7  1  0
  7  8  1  0
  8  9  1  1
  8 18  1  0
  9 10  1  0
 10 11  1  0
 10 12  2  0
 12 13  2  0
 13 14  1  0
 14 15  1  0
 15 16  2  0
 15 17  1  0
 18 19  1  1
 18 20  1  0
 18 21  1  0
 21 22  1  0
 22 23  1  0
M  CHG  1  12   1
M  END
