
     RDKit          3D

 27 28  0  0  0  0  0  0  0  0999 V2000
    4.2210    2.5500    1.3540 C   0  0  0  0  0  0  0  0  0  0  0  0
    4.0260    1.8620    0.1670 O   0  0  0  0  0  0  0  0  0  0  0  0
    3.1590    0.8150    0.2480 C   0  0  2  0  0  0  0  0  0  0  0  0
    3.8120   -0.3590   -0.0340 O   0  0  0  0  0  0  0  0  0  0  0  0
    3.0160   -1.4530    0.3550 C   0  0  2  0  0  0  0  0  0  0  0  0
    3.8510   -2.6930    0.3190 C   0  0  0  0  0  0  0  0  0  0  0  0
    4.9150   -2.5220    1.2040 O   0  0  0  0  0  0  0  0  0  0  0  0
    1.8640   -1.4820   -0.6110 C   0  0  2  0  0  0  0  0  0  0  0  0
    2.3030   -1.4470   -1.9250 O   0  0  0  0  0  0  0  0  0  0  0  0
    1.0340   -0.2170   -0.3410 C   0  0  2  0  0  0  0  0  0  0  0  0
   -0.1380   -0.2520   -1.0720 O   0  0  0  0  0  0  0  0  0  0  0  0
   -1.2150   -0.3680   -0.2360 C   0  0  2  0  0  0  0  0  0  0  0  0
   -1.8120   -1.6250   -0.4980 O   0  0  0  0  0  0  0  0  0  0  0  0
   -2.6420   -2.0140    0.5290 C   0  0  2  0  0  0  0  0  0  0  0  0
   -3.7570   -2.8660   -0.0400 C   0  0  0  0  0  0  0  0  0  0  0  0
   -4.5110   -2.1720   -0.9800 O   0  0  0  0  0  0  0  0  0  0  0  0
   -3.1980   -0.8910    1.3450 C   0  0  1  0  0  0  0  0  0  0  0  0
   -2.4940   -0.7710    2.5630 O   0  0  0  0  0  0  0  0  0  0  0  0
   -3.3270    0.4110    0.6340 C   0  0  2  0  0  0  0  0  0  0  0  0
   -4.6110    0.5800    0.1010 O   0  0  0  0  0  0  0  0  0  0  0  0
   -2.3420    0.6040   -0.4660 C   0  0  1  0  0  0  0  0  0  0  0  0
   -1.8310    1.9070   -0.6300 N   0  0  0  0  0  0  0  0  0  0  0  0
   -1.8660    2.6910   -1.8160 C   0  0  0  0  0  0  0  0  0  0  0  0
   -1.2910    4.0600   -1.8670 C   0  0  0  0  0  0  0  0  0  0  0  0
   -2.4120    2.1500   -2.8090 O   0  0  0  0  0  0  0  0  0  0  0  0
    1.9460    0.9390   -0.6430 C   0  0  1  0  0  0  0  0  0  0  0  0
    1.2600    2.1190   -0.3960 O   0  0  0  0  0  0  0  0  0  0  0  0
  1  2  1  0
  3  2  1  6
  3  4  1  0
  3 26  1  0
  4  5  1  0
  5  6  1  6
  5  8  1  0
  6  7  1  0
  8  9  1  6
  8 10  1  0
 10 11  1  6
 10 26  1  0
 12 11  1  6
 12 13  1  0
 12 21  1  0
 13 14  1  0
 14 15  1  6
 14 17  1  0
 15 16  1  0
 17 18  1  1
 17 19  1  0
 19 20  1  6
 19 21  1  0
 21 22  1  1
 22 23  1  0
 23 24  1  0
 23 25  2  0
 26 27  1  1
M  END
