
     RDKit          3D

 23 24  0  0  0  0  0  0  0  0999 V2000
   -2.9110    2.1500   -1.5550 C   0  0  0  0  0  0  0  0  0  0  0  0
   -1.8740    1.0490   -1.4650 C   0  0  0  0  0  0  0  0  0  0  0  0
   -1.6870    0.4130   -0.3560 C   0  0  0  0  0  0  0  0  0  0  0  0
   -2.5680    0.8760    0.7500 C   0  0  0  0  0  0  0  0  0  0  0  0
   -2.9690    0.1980    1.8100 C   0  0  0  0  0  0  0  0  0  0  0  0
   -2.6410   -1.1260    2.1180 O   0  0  0  0  0  0  0  0  0  0  0  0
   -2.1480   -2.0990    1.2290 C   0  0  0  0  0  0  0  0  0  0  0  0
   -1.3250   -1.9390    0.2130 C   0  0  0  0  0  0  0  0  0  0  0  0
   -0.9660   -3.1490   -0.5650 C   0  0  0  0  0  0  0  0  0  0  0  0
   -0.7050   -0.6500   -0.2450 C   0  0  1  0  0  0  0  0  0  0  0  0
    0.0710   -0.9780   -1.3910 N   0  0  0  0  0  0  0  0  0  0  0  0
   -0.3020   -1.2270   -2.9170 S   0  0  0  0  0  0  0  0  0  0  0  0
    1.3800   -1.0950   -0.9100 O   0  0  0  0  0  0  0  0  0  0  0  0
    1.2790   -1.3960    0.4200 O   0  0  0  0  0  0  0  0  0  0  0  0
    0.3790   -0.3450    0.7830 C   0  0  2  0  0  0  0  0  0  0  0  0
   -0.0750   -0.5880    2.0780 O   0  0  0  0  0  0  0  0  0  0  0  0
    1.0770    0.7960    0.6460 O   0  0  0  0  0  0  0  0  0  0  0  0
    1.8350    0.9760   -0.4340 N   0  0  0  0  0  0  0  0  0  0  0  0
    1.2830    2.3130   -1.4390 Cl  0  0  0  0  0  0  0  0  0  0  0  0
    3.2310    1.2340   -0.0730 C   0  0  2  0  0  0  0  0  0  0  0  0
    3.8360    0.1230    0.7450 C   0  0  0  0  0  0  0  0  0  0  0  0
    3.3100    2.4020    0.7030 O   0  0  0  0  0  0  0  0  0  0  0  0
    3.9660    1.3480   -1.2520 O   0  0  0  0  0  0  0  0  0  0  0  0
  1  2  1  0
  2  3  2  3
  3  4  1  0
 10  3  1  6
  4  5  2  0
  5  6  1  0
  6  7  1  0
  7  8  2  0
  8  9  1  0
  8 10  1  0
 10 11  1  0
 10 15  1  0
 11 12  2  0
 11 13  1  0
 13 14  1  0
 14 15  1  0
 15 16  1  1
 15 17  1  0
 17 18  1  0
 18 19  1  0
 18 20  1  0
 20 21  1  1
 20 22  1  0
 20 23  1  0
M  CHG  1  11   1
M  END
