
     RDKit          3D

 22 22  0  0  0  0  0  0  0  0999 V2000
   -3.2230   -1.5890   -0.7340 C   0  0  0  0  0  0  0  0  0  0  0  0
   -4.3590   -0.8420   -0.2680 N   0  0  0  0  0  0  0  0  0  0  0  0
   -4.3280    0.3820    0.0370 C   0  0  0  0  0  0  0  0  0  0  0  0
   -5.5770    1.0470    0.5080 C   0  0  0  0  0  0  0  0  0  0  0  0
   -6.6000    0.1130    0.5080 O   0  0  0  0  0  0  0  0  0  0  0  0
   -3.1820    1.1390   -0.0470 O   0  0  0  0  0  0  0  0  0  0  0  0
   -2.0100    0.6500   -0.4690 O   0  0  0  0  0  0  0  0  0  0  0  0
   -0.8540    0.7180    0.2590 N   0  0  0  0  0  0  0  0  0  0  0  0
   -0.8650    1.3720    1.3130 O   0  0  0  0  0  0  0  0  0  0  0  0
    0.3520    0.0850   -0.1220 C   0  0  0  0  0  0  0  0  0  0  0  0
    0.2500   -0.5520   -1.2040 O   0  0  0  0  0  0  0  0  0  0  0  0
    1.5230    0.2190    0.7150 C   0  0  2  0  0  0  0  0  0  0  0  0
    1.2030   -0.3920    2.0920 C   0  0  0  0  0  0  0  0  0  0  0  0
    1.7110    2.0150    1.0880 S   0  0  0  0  0  0  0  0  0  0  0  0
    2.8280   -0.2660    0.3050 C   0  0  1  0  0  0  0  0  0  0  0  0
    4.0200    0.0780    1.6140 Cl  0  0  0  0  0  0  0  0  0  0  0  0
    2.7740   -1.7230    0.0320 C   0  0  0  0  0  0  0  0  0  0  0  0
    2.6890   -1.8240   -1.2600 C   0  0  0  0  0  0  0  0  0  0  0  0
    2.8570   -0.7200   -1.9470 C   0  0  0  0  0  0  0  0  0  0  0  0
    3.4440    0.2000   -0.9450 C   0  0  2  0  0  0  0  0  0  0  0  0
    4.9350   -0.1990   -0.8870 C   0  0  0  0  0  0  0  0  0  0  0  0
    3.3810    1.8770   -1.3220 Cl  0  0  0  0  0  0  0  0  0  0  0  0
  1  2  1  0
  2  3  2  3
  3  4  1  0
  3  6  1  0
  4  5  1  0
  6  7  1  0
  7  8  1  0
  8  9  2  0
  8 10  1  0
 10 11  2  0
 10 12  1  0
 12 13  1  1
 12 14  1  0
 12 15  1  0
 15 16  1  1
 15 17  1  0
 15 20  1  0
 17 18  2  0
 18 19  2  0
 19 20  1  0
 20 21  1  1
 20 22  1  0
M  CHG  1   8   1
M  END
