
     RDKit          3D

 23 23  0  0  0  0  0  0  0  0999 V2000
   -3.8880   -0.7730    1.1740 C   0  0  0  0  0  0  0  0  0  0  0  0
   -2.4260   -1.1420    1.0180 C   0  0  0  0  0  0  0  0  0  0  0  0
   -2.1570   -1.2710   -0.4350 C   0  0  0  0  0  0  0  0  0  0  0  0
   -2.8870   -2.1350   -1.0380 O   0  0  0  0  0  0  0  0  0  0  0  0
   -1.2170   -0.5560   -1.1810 N   0  0  0  0  0  0  0  0  0  0  0  0
   -1.1170   -0.8630   -2.6110 C   0  0  0  0  0  0  0  0  0  0  0  0
   -0.2100   -1.8460   -2.9130 O   0  0  0  0  0  0  0  0  0  0  0  0
   -0.3790    0.4470   -0.7060 N   0  0  0  0  0  0  0  0  0  0  0  0
    0.7420    0.4230   -0.0940 C   0  0  0  0  0  0  0  0  0  0  0  0
    1.5890   -0.6980    0.3550 C   0  0  2  0  0  0  0  0  0  0  0  0
    2.2200   -0.3360    1.7170 C   0  0  0  0  0  0  0  0  0  0  0  0
    2.8980   -0.9950   -0.8230 Cl  0  0  0  0  0  0  0  0  0  0  0  0
    0.8950   -1.9980    0.5930 C   0  0  0  0  0  0  0  0  0  0  0  0
    1.9990   -2.9420    1.0530 C   0  0  0  0  0  0  0  0  0  0  0  0
    2.1350   -3.2200    2.2400 O   0  0  0  0  0  0  0  0  0  0  0  0
    3.0810   -3.6200   -0.2140 S   0  0  0  0  0  0  0  0  0  0  0  0
    4.5560   -4.8120    0.6850 Cl  0  0  0  0  0  0  0  0  0  0  0  0
    1.1840    1.7480    0.1530 O   0  0  0  0  0  0  0  0  0  0  0  0
    0.2460    2.6240   -0.3570 C   0  0  0  0  0  0  0  0  0  0  0  0
    0.2710    3.9490   -0.3380 C   0  0  0  0  0  0  0  0  0  0  0  0
    1.4170    4.6470    0.2920 C   0  0  0  0  0  0  0  0  0  0  0  0
   -0.7390    4.6830   -0.8920 O   0  0  0  0  0  0  0  0  0  0  0  0
   -0.7300    1.8030   -0.8930 O   0  0  0  0  0  0  0  0  0  0  0  0
  1  2  1  0
  2  3  1  0
  3  4  2  0
  3  5  1  0
  5  6  1  0
  5  8  1  0
  6  7  1  0
  8  9  2  0
  8 23  1  0
  9 10  1  0
  9 18  1  0
 10 11  1  1
 10 12  1  0
 10 13  1  0
 13 14  1  0
 14 15  2  0
 14 16  1  0
 16 17  1  0
 18 19  1  0
 19 20  2  3
 19 23  1  0
 20 21  1  0
 20 22  1  0
M  CHG  1   8   1
M  END
