
     RDKit          3D

 25 26  0  0  0  0  0  0  0  0999 V2000
   -2.3740   -2.6930   -1.9590 C   0  0  0  0  0  0  0  0  0  0  0  0
   -2.3250   -1.8090   -0.9160 O   0  0  0  0  0  0  0  0  0  0  0  0
   -1.1160   -1.6930   -0.2960 C   0  0  2  0  0  0  0  0  0  0  0  0
   -0.5130   -2.9340    0.2440 C   0  0  0  0  0  0  0  0  0  0  0  0
   -1.2270   -0.7370    0.7610 O   0  0  0  0  0  0  0  0  0  0  0  0
   -0.9670    0.5440    0.2840 C   0  0  0  0  0  0  0  0  0  0  0  0
   -1.4000    1.7410    0.1390 N   0  0  0  0  0  0  0  0  0  0  0  0
   -2.6430    2.2860    0.5490 N   0  0  0  0  0  0  0  0  0  0  0  0
   -3.2760    3.3450   -0.1700 C   0  0  0  0  0  0  0  0  0  0  0  0
   -3.4060    1.6390    1.9630 Cl  0  0  0  0  0  0  0  0  0  0  0  0
   -0.4590    2.5380   -0.5930 C   0  0  0  0  0  0  0  0  0  0  0  0
   -0.6460    3.9050   -0.9220 O   0  0  0  0  0  0  0  0  0  0  0  0
    0.5880    1.8000   -0.9030 C   0  0  0  0  0  0  0  0  0  0  0  0
    1.7600    2.2940   -1.6690 C   0  0  0  0  0  0  0  0  0  0  0  0
    0.4300    0.5060   -0.3230 C   0  0  1  0  0  0  0  0  0  0  0  0
    1.4260    0.1790    0.7300 C   0  0  0  0  0  0  0  0  0  0  0  0
    2.3360    0.9970    0.9490 O   0  0  0  0  0  0  0  0  0  0  0  0
    1.3750   -0.9830    1.4610 O   0  0  0  0  0  0  0  0  0  0  0  0
    2.2720   -1.3330    2.4470 C   0  0  0  0  0  0  0  0  0  0  0  0
    1.9920   -0.8780    4.1040 Cl  0  0  0  0  0  0  0  0  0  0  0  0
    3.3460   -2.0170    2.1170 C   0  0  0  0  0  0  0  0  0  0  0  0
    3.6100   -2.4020    0.8100 O   0  0  0  0  0  0  0  0  0  0  0  0
    4.2610   -2.3810    3.0820 O   0  0  0  0  0  0  0  0  0  0  0  0
    5.9500   -2.5780    2.7490 Cl  0  0  0  0  0  0  0  0  0  0  0  0
    0.1310   -0.9040   -1.4130 S   0  0  0  0  0  0  0  0  0  0  0  0
  1  2  1  0
  2  3  1  0
  3  4  1  1
  3  5  1  0
  3 25  1  0
  5  6  1  0
  6  7  2  0
  6 15  1  0
  7  8  1  0
  7 11  1  0
  8  9  1  0
  8 10  1  0
 11 12  1  0
 11 13  2  0
 13 14  1  0
 13 15  1  0
 15 16  1  1
 15 25  1  0
 16 17  2  0
 16 18  1  0
 18 19  1  0
 19 20  1  0
 19 21  2  3
 21 22  1  0
 21 23  1  0
 23 24  1  0
M  CHG  1   7   1
M  END
