
     RDKit          3D

 20 21  0  0  0  0  0  0  0  0999 V2000
    3.0950    3.1850    0.0290 C   0  0  0  0  0  0  0  0  0  0  0  0
    2.9710    1.9250    0.3270 C   0  0  0  0  0  0  0  0  0  0  0  0
    2.2330    1.0400   -0.5510 C   0  0  0  0  0  0  0  0  0  0  0  0
    1.5520   -0.0280   -0.1910 C   0  0  0  0  0  0  0  0  0  0  0  0
    0.9080   -0.7410   -1.2400 N   0  0  0  0  0  0  0  0  0  0  0  0
    1.4120   -2.0410   -1.6010 C   0  0  0  0  0  0  0  0  0  0  0  0
    0.7810   -3.1670   -0.8410 C   0  0  0  0  0  0  0  0  0  0  0  0
   -0.4260   -0.0810   -2.0540 S   0  0  1  0  0  0  0  0  0  0  0  0
   -0.0730    1.2460   -2.7200 O   0  0  0  0  0  0  0  0  0  0  0  0
   -0.8800   -0.9590   -3.2070 O   0  0  0  0  0  0  0  0  0  0  0  0
   -1.8330    0.2350   -1.0530 C   0  0  2  0  0  0  0  0  0  0  0  0
   -1.6060    1.2740   -0.0160 C   0  0  0  0  0  0  0  0  0  0  0  0
   -2.3080    1.0190    1.2870 C   0  0  0  0  0  0  0  0  0  0  0  0
   -3.6100    0.3330    1.1830 C   0  0  0  0  0  0  0  0  0  0  0  0
   -3.7880   -0.6290    0.0700 C   0  0  0  0  0  0  0  0  0  0  0  0
   -2.4280   -1.0350   -0.4560 C   0  0  0  0  0  0  0  0  0  0  0  0
    1.4200   -0.5270    1.1980 C   0  0  0  0  0  0  0  0  0  0  0  0
    2.1800    0.5190    2.4040 S   0  0  0  0  0  0  0  0  0  0  0  0
    2.6580   -0.2300    3.6350 O   0  0  0  0  0  0  0  0  0  0  0  0
    3.5760    1.3410    1.5760 C   0  0  0  0  0  0  0  0  0  0  0  0
  1  2  2  0
  2  3  1  0
  2 20  1  0
  3  4  2  0
  4  5  1  0
  4 17  1  0
  5  6  1  0
  8  5  1  1
  6  7  1  0
  8  9  2  0
  8 10  2  0
  8 11  1  0
 11 12  1  1
 11 16  1  0
 12 13  1  0
 13 14  1  0
 14 15  1  0
 15 16  1  0
 18 17  1  6
 18 19  2  0
 18 20  1  0
M  END
