
     RDKit          3D

 20 21  0  0  0  0  0  0  0  0999 V2000
    4.8560    0.5520   -1.4310 C   0  0  0  0  0  0  0  0  0  0  0  0
    4.6230   -0.8960   -1.0720 C   0  0  0  0  0  0  0  0  0  0  0  0
    3.8570   -0.9280    0.1560 N   0  0  0  0  0  0  0  0  0  0  0  0
    4.5490   -0.9500    1.4180 C   0  0  0  0  0  0  0  0  0  0  0  0
    2.4300   -0.9380    0.1310 C   0  0  0  0  0  0  0  0  0  0  0  0
    1.8600   -0.9180   -0.9760 O   0  0  0  0  0  0  0  0  0  0  0  0
    1.6290   -0.9690    1.3680 C   0  0  0  0  0  0  0  0  0  0  0  0
    0.1420   -1.0140    1.1570 C   0  0  0  0  0  0  0  0  0  0  0  0
   -0.3110    0.0920    0.4480 O   0  0  0  0  0  0  0  0  0  0  0  0
   -1.6350    0.3780    0.1270 C   0  0  0  0  0  0  0  0  0  0  0  0
   -2.3160    1.2040    0.8960 C   0  0  0  0  0  0  0  0  0  0  0  0
   -3.7410    1.5690    0.6290 C   0  0  0  0  0  0  0  0  0  0  0  0
   -4.3780    1.0900   -0.3760 C   0  0  0  0  0  0  0  0  0  0  0  0
   -5.7940    1.5010   -0.5750 C   0  0  0  0  0  0  0  0  0  0  0  0
   -5.7680    3.0800    0.3680 S   0  0  0  0  0  0  0  0  0  0  0  0
   -4.4890    2.5130    1.5310 C   0  0  0  0  0  0  0  0  0  0  0  0
   -3.6740    0.1940   -1.2300 O   0  0  0  0  0  0  0  0  0  0  0  0
   -2.3480   -0.1690   -1.0120 C   0  0  0  0  0  0  0  0  0  0  0  0
   -1.7210   -0.9990   -1.8170 C   0  0  0  0  0  0  0  0  0  0  0  0
   -2.6150   -1.6610   -3.2130 S   0  0  0  0  0  0  0  0  0  0  0  0
  1  2  1  0
  2  3  1  0
  3  4  1  0
  3  5  1  0
  5  6  2  0
  5  7  1  0
  7  8  1  0
  8  9  1  0
  9 10  1  0
 10 11  2  0
 10 18  1  0
 11 12  1  0
 12 13  2  0
 12 16  1  0
 13 14  1  0
 13 17  1  0
 14 15  1  0
 15 16  1  0
 17 18  1  0
 18 19  2  3
 19 20  1  0
M  END
