
     RDKit          3D

 20 21  0  0  0  0  0  0  0  0999 V2000
   -4.7270   -0.1330   -0.4440 C   0  0  0  0  0  0  0  0  0  0  0  0
   -3.6370    0.3590   -1.3600 C   0  0  0  0  0  0  0  0  0  0  0  0
   -2.3520    0.6120   -0.6710 C   0  0  0  0  0  0  0  0  0  0  0  0
   -1.0250   -0.1610   -1.0710 S   0  0  1  0  0  0  0  0  0  0  0  0
   -1.5370   -1.6400   -1.9550 C   0  0  0  0  0  0  0  0  0  0  0  0
   -0.2410    0.7360   -1.9860 O   0  0  0  0  0  0  0  0  0  0  0  0
   -0.1230   -0.5680    0.3420 N   0  0  0  0  0  0  0  0  0  0  0  0
    0.8600   -1.5350    0.3040 C   0  0  0  0  0  0  0  0  0  0  0  0
    2.2900   -1.2440    0.4500 C   0  0  0  0  0  0  0  0  0  0  0  0
    2.8580   -0.3110   -0.5990 C   0  0  0  0  0  0  0  0  0  0  0  0
    4.6000   -0.1290   -0.1970 S   0  0  1  0  0  0  0  0  0  0  0  0
    5.3990    0.9470   -1.3570 C   0  0  0  0  0  0  0  0  0  0  0  0
    4.6920    0.4960    1.1540 O   0  0  0  0  0  0  0  0  0  0  0  0
    5.2620   -1.4740   -0.1420 O   0  0  0  0  0  0  0  0  0  0  0  0
   -0.4440    0.1420    1.5260 C   0  0  0  0  0  0  0  0  0  0  0  0
    0.0810    0.0170    2.7300 C   0  0  0  0  0  0  0  0  0  0  0  0
   -0.5590    0.9640    3.6720 C   0  0  0  0  0  0  0  0  0  0  0  0
   -1.5390    1.6520    2.8020 C   0  0  0  0  0  0  0  0  0  0  0  0
   -1.4790    1.1840    1.5630 C   0  0  0  0  0  0  0  0  0  0  0  0
   -2.2910    1.6080    0.4110 C   0  0  0  0  0  0  0  0  0  0  0  0
  1  2  1  0
  2  3  1  0
  3  4  2  0
  3 20  1  0
  4  5  1  6
  4  6  2  0
  4  7  1  0
  7  8  1  0
  7 15  1  0
  8  9  1  0
  9 10  1  0
 10 11  1  0
 11 12  1  6
 11 13  2  0
 11 14  2  0
 15 16  2  0
 15 19  1  0
 16 17  1  0
 17 18  1  0
 18 19  2  0
 19 20  1  0
M  END
