
     RDKit          3D

 20 21  0  0  0  0  0  0  0  0999 V2000
   -3.2340    1.9970    1.2370 C   0  0  0  0  0  0  0  0  0  0  0  0
   -2.8080    0.9960    0.4920 C   0  0  0  0  0  0  0  0  0  0  0  0
   -1.5390    0.4030    0.6370 C   0  0  0  0  0  0  0  0  0  0  0  0
   -1.4260   -0.5880   -0.2790 C   0  0  0  0  0  0  0  0  0  0  0  0
   -0.2800   -1.4920   -0.5140 C   0  0  2  0  0  0  0  0  0  0  0  0
   -0.4400   -2.2610   -1.8220 C   0  0  0  0  0  0  0  0  0  0  0  0
   -0.0840   -2.7320    0.7970 S   0  0  0  0  0  0  0  0  0  0  0  0
    1.6760   -2.4290    1.0820 C   0  0  0  0  0  0  0  0  0  0  0  0
    2.4770   -3.1750    1.7160 O   0  0  0  0  0  0  0  0  0  0  0  0
    1.9280   -1.1910    0.4430 N   0  0  0  0  0  0  0  0  0  0  0  0
    3.0960   -0.3760    0.8240 C   0  0  0  0  0  0  0  0  0  0  0  0
    4.2980   -0.7550   -0.0260 C   0  0  0  0  0  0  0  0  0  0  0  0
    5.6690    0.3150    0.5350 S   0  0  0  0  0  0  0  0  0  0  0  0
    5.3300    2.0520    0.1430 C   0  0  0  0  0  0  0  0  0  0  0  0
    1.0220   -0.8230   -0.5410 C   0  0  0  0  0  0  0  0  0  0  0  0
    1.2720    0.0540   -1.4450 O   0  0  0  0  0  0  0  0  0  0  0  0
   -2.5230   -0.6260   -0.9480 O   0  0  0  0  0  0  0  0  0  0  0  0
   -3.3960    0.3020   -0.5330 C   0  0  0  0  0  0  0  0  0  0  0  0
   -4.5960    0.4850   -1.0430 C   0  0  0  0  0  0  0  0  0  0  0  0
   -5.5950    1.4790   -0.6350 C   0  0  0  0  0  0  0  0  0  0  0  0
  1  2  2  0
  2  3  1  0
  2 18  1  0
  3  4  2  0
  4  5  1  0
  4 17  1  0
  5  6  1  6
  5  7  1  0
  5 15  1  0
  7  8  1  0
  8  9  2  0
  8 10  1  0
 10 11  1  0
 10 15  1  0
 11 12  1  0
 12 13  1  0
 13 14  1  0
 15 16  2  0
 17 18  1  0
 18 19  2  3
 19 20  1  0
M  END
