
     RDKit          3D

 20 21  0  0  0  0  0  0  0  0999 V2000
    1.9310   -2.0040   -1.5920 C   0  0  0  0  0  0  0  0  0  0  0  0
    2.5690   -1.1240   -0.8570 C   0  0  0  0  0  0  0  0  0  0  0  0
    3.4690   -1.6450    0.2680 C   0  0  0  0  0  0  0  0  0  0  0  0
    2.5130    0.3050   -0.9870 C   0  0  0  0  0  0  0  0  0  0  0  0
    3.2510    1.0440   -0.1370 C   0  0  0  0  0  0  0  0  0  0  0  0
    1.5360    1.0890   -2.1870 S   0  0  1  0  0  0  0  0  0  0  0  0
    2.1990    2.4090   -2.6050 O   0  0  0  0  0  0  0  0  0  0  0  0
    1.3970    0.2110   -3.3940 O   0  0  0  0  0  0  0  0  0  0  0  0
   -0.0190    1.4020   -1.5510 N   0  0  0  0  0  0  0  0  0  0  0  0
   -0.7920    0.2910   -1.1500 C   0  0  0  0  0  0  0  0  0  0  0  0
   -0.7240    0.2240    0.3330 C   0  0  0  0  0  0  0  0  0  0  0  0
   -1.1220   -0.7630    1.0950 C   0  0  0  0  0  0  0  0  0  0  0  0
   -1.7430   -2.0650    0.6680 C   0  0  0  0  0  0  0  0  0  0  0  0
   -2.8030   -2.2540    1.7390 C   0  0  0  0  0  0  0  0  0  0  0  0
   -2.2560   -1.5410    2.9510 C   0  0  0  0  0  0  0  0  0  0  0  0
   -1.0770   -0.8670    2.4830 O   0  0  0  0  0  0  0  0  0  0  0  0
   -0.1180    1.5000    0.7660 C   0  0  2  0  0  0  0  0  0  0  0  0
   -1.2850    2.3780    1.8420 S   0  0  0  0  0  0  0  0  0  0  0  0
   -2.7600    2.9020    0.9730 C   0  0  0  0  0  0  0  0  0  0  0  0
    0.0650    2.3330   -0.4800 C   0  0  0  0  0  0  0  0  0  0  0  0
  1  2  2  0
  2  3  1  0
  2  4  1  0
  4  5  2  0
  4  6  1  0
  6  7  2  0
  6  8  2  0
  6  9  1  1
  9 10  1  0
  9 20  1  0
 10 11  1  0
 11 12  2  3
 11 17  1  0
 12 13  1  0
 12 16  1  0
 13 14  1  0
 14 15  1  0
 15 16  1  0
 17 18  1  1
 17 20  1  0
 18 19  1  0
M  END
