
     RDKit          3D

 20 21  0  0  0  0  0  0  0  0999 V2000
   -4.4780   -0.2490    1.5980 C   0  0  0  0  0  0  0  0  0  0  0  0
   -3.4140   -0.5090    0.8560 C   0  0  0  0  0  0  0  0  0  0  0  0
   -2.4840   -1.6080    1.2880 C   0  0  0  0  0  0  0  0  0  0  0  0
   -1.6610   -1.9520    0.0520 C   0  0  0  0  0  0  0  0  0  0  0  0
   -0.9310   -0.7430   -0.3100 N   0  0  0  0  0  0  0  0  0  0  0  0
    0.4880   -0.6890   -0.2240 C   0  0  0  0  0  0  0  0  0  0  0  0
    1.1640   -1.6940    0.1720 O   0  0  0  0  0  0  0  0  0  0  0  0
    1.1690    0.5580   -0.6030 C   0  0  0  0  0  0  0  0  0  0  0  0
    2.5740    0.4730   -0.4720 O   0  0  0  0  0  0  0  0  0  0  0  0
    3.2120    0.2060    0.7310 C   0  0  0  0  0  0  0  0  0  0  0  0
    2.4900    0.0340    1.7380 O   0  0  0  0  0  0  0  0  0  0  0  0
    4.7050    0.1290    0.8000 C   0  0  0  0  0  0  0  0  0  0  0  0
    5.5250    0.2920   -0.1850 C   0  0  0  0  0  0  0  0  0  0  0  0
    7.2430    0.1380    0.2320 S   0  0  0  0  0  0  0  0  0  0  0  0
    7.1840    0.3900    2.0560 C   0  0  0  0  0  0  0  0  0  0  0  0
    5.5060   -0.2270    2.3410 S   0  0  0  0  0  0  0  0  0  0  0  0
   -1.7000    0.3970   -0.7580 C   0  0  0  0  0  0  0  0  0  0  0  0
   -3.1220    0.2380   -0.3610 C   0  0  0  0  0  0  0  0  0  0  0  0
   -4.1020    0.7410   -1.0650 C   0  0  0  0  0  0  0  0  0  0  0  0
   -3.8730    1.5110   -2.3140 C   0  0  0  0  0  0  0  0  0  0  0  0
  1  2  2  0
  2  3  1  0
  2 18  1  0
  3  4  1  0
  4  5  1  0
  5  6  1  0
  5 17  1  0
  6  7  2  0
  6  8  1  0
  8  9  1  0
  9 10  1  0
 10 11  2  0
 10 12  1  0
 12 13  2  0
 12 16  1  0
 13 14  1  0
 14 15  1  0
 15 16  1  0
 17 18  1  0
 18 19  2  3
 19 20  1  0
M  END
