
     RDKit          3D

 27 29  0  0  0  0  0  0  0  0999 V2000
   -3.2640   -1.8360   -0.9240 O   0  0  0  0  0  0  0  0  0  0  0  0
   -1.9170   -1.7640   -1.2690 C   0  0  0  0  0  0  0  0  0  0  0  0
   -1.0410   -1.2730   -0.1190 C   0  0  1  0  0  0  0  0  0  0  0  0
    0.3800   -1.4430   -0.5020 C   0  0  0  0  0  0  0  0  0  0  0  0
    0.7580   -1.8000   -1.8030 C   0  0  0  0  0  0  0  0  0  0  0  0
    2.0930   -1.9300   -2.1720 C   0  0  0  0  0  0  0  0  0  0  0  0
    2.6520   -2.2500   -3.3160 O   0  0  0  0  0  0  0  0  0  0  0  0
    3.9730   -2.2400   -3.1590 C   0  0  0  0  0  0  0  0  0  0  0  0
    4.2350   -1.9030   -1.8700 N   0  0  0  0  0  0  0  0  0  0  0  0
    3.0700   -1.7030   -1.2300 C   0  0  0  0  0  0  0  0  0  0  0  0
    2.7040   -1.3640    0.0110 N   0  0  0  0  0  0  0  0  0  0  0  0
    1.3920   -1.2350    0.3750 C   0  0  0  0  0  0  0  0  0  0  0  0
    1.1400   -0.9450    1.7270 N   0  0  0  0  0  0  0  0  0  0  0  0
    2.2360   -0.6700    2.6340 C   0  0  0  0  0  0  0  0  0  0  0  0
    2.8010    0.6990    2.4150 C   0  0  0  0  0  0  0  0  0  0  0  0
    3.2890    0.8830    1.1450 O   0  0  0  0  0  0  0  0  0  0  0  0
    3.9050    2.4890    1.0080 P   0  0  0  0  0  0  0  0  0  0  0  0
    5.1610    2.8240    2.1550 O   0  0  0  0  0  0  0  0  0  0  0  0
    4.3770    2.8700   -0.6090 O   0  0  0  0  0  0  0  0  0  0  0  0
   -1.3910    0.0350    0.3140 N   0  0  0  0  0  0  0  0  0  0  0  0
   -1.2200    1.1160   -0.5380 C   0  0  0  0  0  0  0  0  0  0  0  0
   -2.3780    1.6230   -1.3300 C   0  0  0  0  0  0  0  0  0  0  0  0
   -3.4210    2.1860   -0.3920 C   0  0  0  0  0  0  0  0  0  0  0  0
   -4.2040    1.1460    0.1580 N   0  0  0  0  0  0  0  0  0  0  0  0
   -5.1350    0.6080   -0.6170 O   0  0  0  0  0  0  0  0  0  0  0  0
   -3.7000    0.3910    1.2230 C   0  0  0  0  0  0  0  0  0  0  0  0
   -2.2510    0.2080    1.3950 C   0  0  0  0  0  0  0  0  0  0  0  0
  1  2  1  0
  3  2  1  6
  3  4  1  0
  3 20  1  0
  4  5  2  0
  4 12  1  0
  5  6  1  0
  6  7  1  0
  6 10  2  0
  7  8  1  0
  8  9  2  0
  9 10  1  0
 10 11  1  0
 11 12  2  0
 12 13  1  0
 13 14  1  0
 14 15  1  0
 15 16  1  0
 16 17  1  0
 17 18  1  0
 17 19  1  0
 20 21  1  0
 20 27  1  0
 21 22  1  0
 22 23  1  0
 23 24  1  0
 24 25  1  0
 24 26  1  0
 26 27  1  0
M  END
