
     RDKit          3D

 27 30  0  0  0  0  0  0  0  0999 V2000
    8.5070    1.0520    0.7520 O   0  0  0  0  0  0  0  0  0  0  0  0
    8.7220   -0.4860    0.7570 P   0  0  0  0  0  0  0  0  0  0  0  0
    7.6180   -1.6010   -0.2590 C   0  0  0  0  0  0  0  0  0  0  0  0
    6.2260   -1.1240   -0.1520 C   0  0  0  0  0  0  0  0  0  0  0  0
    5.6630   -0.1920   -1.0230 C   0  0  0  0  0  0  0  0  0  0  0  0
    4.4270   -0.0090   -0.6290 O   0  0  0  0  0  0  0  0  0  0  0  0
    4.1480   -0.7400    0.4150 C   0  0  0  0  0  0  0  0  0  0  0  0
    2.8940   -0.7930    1.1090 N   0  0  0  0  0  0  0  0  0  0  0  0
    1.8090    0.0040    0.6620 C   0  0  0  0  0  0  0  0  0  0  0  0
    1.9070    1.2550    0.2620 C   0  0  0  0  0  0  0  0  0  0  0  0
    0.5730    1.7020   -0.1090 C   0  0  0  0  0  0  0  0  0  0  0  0
    0.3070    2.8360   -0.5310 O   0  0  0  0  0  0  0  0  0  0  0  0
   -0.3530    0.6470    0.0870 N   0  0  0  0  0  0  0  0  0  0  0  0
   -1.7530    0.6110   -0.1350 C   0  0  0  0  0  0  0  0  0  0  0  0
   -2.3460    1.2860   -1.1780 C   0  0  0  0  0  0  0  0  0  0  0  0
   -3.7140    1.1910   -1.3100 C   0  0  0  0  0  0  0  0  0  0  0  0
   -4.2300    1.8250   -2.2830 O   0  0  0  0  0  0  0  0  0  0  0  0
   -4.4930    0.4770   -0.4780 N   0  0  0  0  0  0  0  0  0  0  0  0
   -3.8870   -0.1760    0.5370 C   0  0  0  0  0  0  0  0  0  0  0  0
   -2.5480   -0.0970    0.6860 N   0  0  0  0  0  0  0  0  0  0  0  0
   -4.9360   -0.8970    1.3280 C   0  0  0  0  0  0  0  0  0  0  0  0
   -6.1390    0.0160    1.0540 C   0  0  2  0  0  0  0  0  0  0  0  0
   -7.3360   -0.5910    1.3260 O   0  0  0  0  0  0  0  0  0  0  0  0
   -5.9280    0.2540   -0.4480 C   0  0  0  0  0  0  0  0  0  0  0  0
    0.4280   -0.4500    0.5830 C   0  0  0  0  0  0  0  0  0  0  0  0
    0.0140   -1.5980    0.8960 O   0  0  0  0  0  0  0  0  0  0  0  0
    5.2550   -1.4370    0.7220 N   0  0  0  0  0  0  0  0  0  0  0  0
  1  2  2  0
  2  3  1  0
  3  4  1  0
  4  5  2  0
  4 27  1  0
  5  6  1  0
  6  7  1  0
  7  8  1  0
  7 27  2  0
  8  9  1  0
  9 10  2  0
  9 25  1  0
 10 11  1  0
 11 12  2  0
 11 13  1  0
 13 14  1  0
 13 25  1  0
 14 15  2  0
 14 20  1  0
 15 16  1  0
 16 17  2  0
 16 18  1  0
 18 19  1  0
 18 24  1  0
 19 20  2  0
 19 21  1  0
 21 22  1  0
 22 23  1  6
 22 24  1  0
 25 26  2  0
M  END
