
     RDKit          3D

 27 29  0  0  0  0  0  0  0  0999 V2000
   -3.8860   -2.2810    0.3240 C   0  0  0  0  0  0  0  0  0  0  0  0
   -3.1040   -1.6640   -0.8270 C   0  0  1  0  0  0  0  0  0  0  0  0
   -3.6680   -0.3550   -1.2930 C   0  0  0  0  0  0  0  0  0  0  0  0
   -2.6520    0.6120   -1.4120 O   0  0  0  0  0  0  0  0  0  0  0  0
   -2.0950    0.6910   -0.0370 C   0  0  2  0  0  0  0  0  0  0  0  0
   -1.9220    2.1240    0.1660 C   0  0  0  0  0  0  0  0  0  0  0  0
   -2.0730    2.3990    1.5580 O   0  0  0  0  0  0  0  0  0  0  0  0
   -3.4800    3.5490    1.5590 P   0  0  0  0  0  0  0  0  0  0  0  0
   -3.4460    4.5630    0.1840 O   0  0  0  0  0  0  0  0  0  0  0  0
   -4.8760    2.4200    1.4050 O   0  0  0  0  0  0  0  0  0  0  0  0
   -1.1770   -0.3720   -0.0270 C   0  0  0  0  0  0  0  0  0  0  0  0
    0.2140   -0.5380    0.2300 N   0  0  0  0  0  0  0  0  0  0  0  0
    0.7430   -1.8930    0.2680 C   0  0  0  0  0  0  0  0  0  0  0  0
   -0.0400   -3.0200    0.2280 N   0  0  0  0  0  0  0  0  0  0  0  0
    0.7910   -4.0860    0.1960 N   0  0  0  0  0  0  0  0  0  0  0  0
    2.0390   -3.6150    0.2100 C   0  0  0  0  0  0  0  0  0  0  0  0
    2.0130   -2.2740    0.2510 N   0  0  0  0  0  0  0  0  0  0  0  0
    3.0710   -1.3200    0.2540 C   0  0  0  0  0  0  0  0  0  0  0  0
    3.4120   -0.6960   -0.9250 C   0  0  0  0  0  0  0  0  0  0  0  0
    4.4060    0.2510   -0.9070 C   0  0  0  0  0  0  0  0  0  0  0  0
    5.0680    0.5740    0.2620 C   0  0  0  0  0  0  0  0  0  0  0  0
    6.0970    1.5600    0.2260 O   0  0  0  0  0  0  0  0  0  0  0  0
    5.6590    2.8610   -0.0420 C   0  0  0  0  0  0  0  0  0  0  0  0
    4.5040    3.1630   -0.2510 O   0  0  0  0  0  0  0  0  0  0  0  0
    4.7300   -0.0510    1.4150 C   0  0  0  0  0  0  0  0  0  0  0  0
    3.7120   -1.0150    1.4220 C   0  0  0  0  0  0  0  0  0  0  0  0
   -1.7140   -1.5450   -0.4320 N   0  0  0  0  0  0  0  0  0  0  0  0
  2  1  1  1
  2  3  1  0
  2 27  1  0
  3  4  1  0
  4  5  1  0
  5  6  1  6
  5 11  1  0
  6  7  1  0
  7  8  1  0
  8  9  1  0
  8 10  1  0
 11 12  1  0
 11 27  2  0
 12 13  1  0
 13 14  2  0
 13 17  1  0
 14 15  1  0
 15 16  2  0
 16 17  1  0
 17 18  1  0
 18 19  2  0
 18 26  1  0
 19 20  1  0
 20 21  2  0
 21 22  1  0
 21 25  1  0
 22 23  1  0
 23 24  2  0
 25 26  2  0
M  END
