
     RDKit          3D

 31 34  0  0  0  0  0  0  0  0999 V2000
   -5.2470   -1.5020   -1.4430 C   0  0  0  0  0  0  0  0  0  0  0  0
   -5.6420   -0.0920   -1.1550 C   0  0  2  0  0  0  0  0  0  0  0  0
   -4.4900    0.8050   -0.7970 C   0  0  0  0  0  0  0  0  0  0  0  0
   -3.9410    0.5960    0.4960 N   0  0  2  0  0  0  0  0  0  0  0  0
   -2.5850    0.0310    0.4400 C   0  0  0  0  0  0  0  0  0  0  0  0
   -1.6310    0.9950   -0.1310 C   0  0  0  0  0  0  0  0  0  0  0  0
   -2.0630    2.1220   -0.4800 O   0  0  0  0  0  0  0  0  0  0  0  0
   -0.2590    0.7110   -0.3040 N   0  0  0  0  0  0  0  0  0  0  0  0
    0.3060   -0.5640    0.0750 C   0  0  0  0  0  0  0  0  0  0  0  0
    1.0310   -1.1220   -1.1360 C   0  0  0  0  0  0  0  0  0  0  0  0
    2.0260   -0.1600   -1.6190 N   0  0  0  0  0  0  0  0  0  0  0  0
    3.1540   -0.1000   -0.7600 C   0  0  0  0  0  0  0  0  0  0  0  0
    4.1640    0.8760   -1.2570 C   0  0  0  0  0  0  0  0  0  0  0  0
    5.3440    0.8560   -0.3140 C   0  0  0  0  0  0  0  0  0  0  0  0
    5.6520    1.8000    0.6360 C   0  0  0  0  0  0  0  0  0  0  0  0
    6.7970    1.4100    1.2730 N   0  0  0  0  0  0  0  0  0  0  0  0
    7.2360    0.2400    0.7620 C   0  0  0  0  0  0  0  0  0  0  0  0
    8.3250   -0.5550    1.0550 C   0  0  0  0  0  0  0  0  0  0  0  0
    9.2750   -0.2060    2.0820 C   0  0  0  0  0  0  0  0  0  0  0  0
   10.2470   -0.9450    2.3200 O   0  0  0  0  0  0  0  0  0  0  0  0
    8.4890   -1.7110    0.3300 C   0  0  0  0  0  0  0  0  0  0  0  0
    7.5940   -2.0840   -0.6710 C   0  0  0  0  0  0  0  0  0  0  0  0
    6.5140   -1.2720   -0.9430 C   0  0  0  0  0  0  0  0  0  0  0  0
    6.3250   -0.1010   -0.2290 C   0  0  0  0  0  0  0  0  0  0  0  0
    1.4180    1.0670   -2.0030 C   0  0  0  0  0  0  0  0  0  0  0  0
    0.6300    1.7030   -0.8740 C   0  0  0  0  0  0  0  0  0  0  0  0
   -4.6910   -0.2050    1.3970 C   0  0  0  0  0  0  0  0  0  0  0  0
   -6.1800   -0.0980    1.2940 C   0  0  2  0  0  0  0  0  0  0  0  0
   -6.6460    1.0780    2.1280 C   0  0  0  0  0  0  0  0  0  0  0  0
   -6.7600   -1.3420    1.9490 C   0  0  0  0  0  0  0  0  0  0  0  0
   -6.7010   -0.0240   -0.1020 C   0  0  0  0  0  0  0  0  0  0  0  0
  2  1  1  1
  2  3  1  0
  2 31  1  0
  3  4  1  0
  4  5  1  6
  4 27  1  0
  5  6  1  0
  6  7  2  0
  6  8  1  0
  8  9  1  0
  8 26  1  0
  9 10  1  0
 10 11  1  0
 11 12  1  0
 11 25  1  0
 12 13  1  0
 13 14  1  0
 14 15  2  0
 14 24  1  0
 15 16  1  0
 16 17  1  0
 17 18  2  0
 17 24  1  0
 18 19  1  0
 18 21  1  0
 19 20  2  0
 21 22  2  0
 22 23  1  0
 23 24  2  0
 25 26  1  0
 27 28  1  0
 28 29  1  1
 28 30  1  0
 28 31  1  0
M  CHG  1   4   1
M  END
