
     RDKit          3D

 31 33  0  0  0  0  0  0  0  0999 V2000
    6.3230    2.6250    0.3780 C   0  0  0  0  0  0  0  0  0  0  0  0
    6.4650    2.0420    1.7920 C   0  0  0  0  0  0  0  0  0  0  0  0
    6.3580    0.6110    1.6270 N   0  0  0  0  0  0  0  0  0  0  0  0
    5.1360    0.0850    1.0520 C   0  0  0  0  0  0  0  0  0  0  0  0
    4.2190    0.8700    0.7230 O   0  0  0  0  0  0  0  0  0  0  0  0
    4.9650   -1.2990    0.8570 N   0  0  0  0  0  0  0  0  0  0  0  0
    3.8410   -1.9400    0.3110 C   0  0  0  0  0  0  0  0  0  0  0  0
    2.6880   -1.3610   -0.1220 C   0  0  0  0  0  0  0  0  0  0  0  0
    1.6220   -2.0680   -0.6580 C   0  0  0  0  0  0  0  0  0  0  0  0
    0.4030   -1.5150   -1.0830 N   0  0  0  0  0  0  0  0  0  0  0  0
   -0.1160   -0.3440   -0.5300 C   0  0  0  0  0  0  0  0  0  0  0  0
    0.4680    0.2960    0.4030 O   0  0  0  0  0  0  0  0  0  0  0  0
   -1.3820    0.2580   -0.9690 C   0  0  0  0  0  0  0  0  0  0  0  0
   -2.1450   -0.2250   -2.0050 C   0  0  0  0  0  0  0  0  0  0  0  0
   -3.3220    0.3340   -2.4400 C   0  0  0  0  0  0  0  0  0  0  0  0
   -3.9070   -0.2470   -3.4230 O   0  0  0  0  0  0  0  0  0  0  0  0
   -3.9220    1.4160   -1.9490 N   0  0  0  0  0  0  0  0  0  0  0  0
   -3.4860    2.1720   -0.9280 C   0  0  0  0  0  0  0  0  0  0  0  0
   -4.1750    3.2170   -0.5120 N   0  0  0  0  0  0  0  0  0  0  0  0
   -5.3310    3.5040   -1.1520 N   0  0  0  0  0  0  0  0  0  0  0  0
   -6.4700    3.0670   -0.9670 C   0  0  0  0  0  0  0  0  0  0  0  0
   -6.8710    2.0930    0.0370 C   0  0  0  0  0  0  0  0  0  0  0  0
   -8.1170    1.6100    0.1880 C   0  0  0  0  0  0  0  0  0  0  0  0
   -8.1330    0.6590    1.2970 C   0  0  0  0  0  0  0  0  0  0  0  0
   -6.7820    0.6730    1.7600 N   0  0  0  0  0  0  0  0  0  0  0  0
   -6.0620    1.4710    1.0620 C   0  0  0  0  0  0  0  0  0  0  0  0
   -2.0230    1.6550   -0.2310 S   0  0  0  0  0  0  0  0  0  0  0  0
    1.7430   -3.4640   -0.7590 C   0  0  0  0  0  0  0  0  0  0  0  0
    2.9000   -4.0730   -0.3270 C   0  0  0  0  0  0  0  0  0  0  0  0
    3.9130   -3.3330    0.1900 C   0  0  0  0  0  0  0  0  0  0  0  0
    5.1470   -4.0690    0.6400 C   0  0  0  0  0  0  0  0  0  0  0  0
  1  2  1  0
  2  3  1  0
  3  4  1  0
  4  5  2  0
  4  6  1  0
  6  7  1  0
  7  8  2  0
  7 30  1  0
  8  9  1  0
  9 10  1  0
  9 28  2  0
 10 11  1  0
 11 12  2  0
 11 13  1  0
 13 14  2  0
 13 27  1  0
 14 15  1  0
 15 16  2  0
 15 17  1  0
 17 18  1  0
 18 19  2  3
 18 27  1  0
 19 20  1  0
 20 21  2  3
 21 22  1  0
 22 23  2  0
 22 26  1  0
 23 24  1  0
 24 25  1  0
 25 26  2  0
 28 29  1  0
 29 30  2  0
 30 31  1  0
M  CHG  1  25   1
M  END
