
     RDKit          3D

 31 34  0  0  0  0  0  0  0  0999 V2000
    4.8890   -4.6220    0.2360 C   0  0  0  0  0  0  0  0  0  0  0  0
    3.6950   -3.7330    0.3960 C   0  0  0  0  0  0  0  0  0  0  0  0
    4.1480   -2.3610    0.4820 N   0  0  0  0  0  0  0  0  0  0  0  0
    3.6600   -1.4160   -0.2370 C   0  0  0  0  0  0  0  0  0  0  0  0
    4.0980   -0.0760   -0.1580 N   0  0  0  0  0  0  0  0  0  0  0  0
    5.4770    0.3660   -0.0460 C   0  0  0  0  0  0  0  0  0  0  0  0
    5.4050    1.5510    0.8900 C   0  0  0  0  0  0  0  0  0  0  0  0
    3.9090    1.8470    1.0640 C   0  0  0  0  0  0  0  0  0  0  0  0
    3.3520    1.1680   -0.1650 C   0  0  2  0  0  0  0  0  0  0  0  0
    1.8830    0.9960   -0.1410 C   0  0  0  0  0  0  0  0  0  0  0  0
    1.2460    2.2940   -0.1510 N   0  0  0  0  0  0  0  0  0  0  0  0
   -0.1630    2.4620   -0.1340 C   0  0  0  0  0  0  0  0  0  0  0  0
   -0.9480    1.3730   -0.1070 N   0  0  0  0  0  0  0  0  0  0  0  0
   -2.2980    1.4600   -0.0890 C   0  0  0  0  0  0  0  0  0  0  0  0
   -3.1190    0.3480   -0.0620 C   0  0  0  0  0  0  0  0  0  0  0  0
   -4.4890    0.3930   -0.0430 C   0  0  0  0  0  0  0  0  0  0  0  0
   -5.0640    1.6630   -0.0530 C   0  0  0  0  0  0  0  0  0  0  0  0
   -4.2910    2.7970   -0.0810 C   0  0  0  0  0  0  0  0  0  0  0  0
   -4.9170    4.1290   -0.0910 C   0  0  0  0  0  0  0  0  0  0  0  0
   -2.9060    2.6950   -0.0990 C   0  0  0  0  0  0  0  0  0  0  0  0
   -2.1480    3.8430   -0.1260 C   0  0  0  0  0  0  0  0  0  0  0  0
   -0.7620    3.6920   -0.1430 C   0  0  0  0  0  0  0  0  0  0  0  0
    0.0440    4.9200   -0.1720 C   0  0  0  0  0  0  0  0  0  0  0  0
   -5.3780   -0.7770   -0.0140 C   0  0  0  0  0  0  0  0  0  0  0  0
   -4.7190   -2.0980   -0.0040 C   0  0  0  0  0  0  0  0  0  0  0  0
   -3.2480   -2.0980   -0.0240 C   0  0  0  0  0  0  0  0  0  0  0  0
   -2.5570   -3.3710   -0.0150 C   0  0  0  0  0  0  0  0  0  0  0  0
   -1.3180   -3.4160   -0.0320 O   0  0  0  0  0  0  0  0  0  0  0  0
   -3.2890   -4.5420    0.0120 O   0  0  0  0  0  0  0  0  0  0  0  0
   -2.6600   -5.8120    0.0220 C   0  0  0  0  0  0  0  0  0  0  0  0
   -2.5110   -0.9740   -0.0510 C   0  0  0  0  0  0  0  0  0  0  0  0
  1  2  1  0
  2  3  1  0
  3  4  2  3
  4  5  1  0
  5  6  1  0
  5  9  1  0
  6  7  1  0
  7  8  1  0
  8  9  1  0
  9 10  1  1
 10 11  1  0
 11 12  1  0
 12 13  2  0
 12 22  1  0
 13 14  1  0
 14 15  2  0
 14 20  1  0
 15 16  1  0
 15 31  1  0
 16 17  2  0
 16 24  1  0
 17 18  1  0
 18 19  1  0
 18 20  2  0
 20 21  1  0
 21 22  2  0
 22 23  1  0
 24 25  1  0
 25 26  1  0
 26 27  1  0
 26 31  2  0
 27 28  2  0
 27 29  1  0
 29 30  1  0
M  CHG  1   3   1
M  END
