
     RDKit          3D

 31 33  0  0  0  0  0  0  0  0999 V2000
   -4.3640    2.5730   -0.4610 C   0  0  0  0  0  0  0  0  0  0  0  0
   -4.1110    1.1820   -0.0320 C   0  0  0  0  0  0  0  0  0  0  0  0
   -5.1790    0.4850    0.3140 C   0  0  0  0  0  0  0  0  0  0  0  0
   -5.4040   -0.8890    0.7910 C   0  0  0  0  0  0  0  0  0  0  0  0
   -6.7160   -1.4290    0.5100 C   0  0  0  0  0  0  0  0  0  0  0  0
   -7.7680   -0.6730    1.3030 C   0  0  0  0  0  0  0  0  0  0  0  0
   -9.1260   -1.2070    1.0490 C   0  0  0  0  0  0  0  0  0  0  0  0
   -9.2730   -2.1280    0.2880 O   0  0  0  0  0  0  0  0  0  0  0  0
   -4.5820   -1.7040    1.4120 C   0  0  0  0  0  0  0  0  0  0  0  0
   -5.2150   -3.0040    1.7150 C   0  0  0  0  0  0  0  0  0  0  0  0
   -3.2060   -1.6230    1.8690 N   0  0  0  0  0  0  0  0  0  0  0  0
   -2.1580   -0.9640    1.5190 C   0  0  0  0  0  0  0  0  0  0  0  0
   -1.8190    0.0590    0.4570 C   0  0  0  0  0  0  0  0  0  0  0  0
   -0.4370    0.0540    0.1500 C   0  0  0  0  0  0  0  0  0  0  0  0
    0.2320   -0.7700    0.9250 O   0  0  0  0  0  0  0  0  0  0  0  0
    0.3520    0.7080   -0.7640 N   0  0  0  0  0  0  0  0  0  0  0  0
   -0.1490    1.5410   -1.8720 C   0  0  0  0  0  0  0  0  0  0  0  0
    0.9120    1.6300   -2.9890 C   0  0  0  0  0  0  0  0  0  0  0  0
    1.5710    0.3140   -3.1970 C   0  0  0  0  0  0  0  0  0  0  0  0
    2.2680   -0.0790   -1.9300 C   0  0  0  0  0  0  0  0  0  0  0  0
    1.8390    0.7040   -0.7150 C   0  0  2  0  0  0  0  0  0  0  0  0
    2.3430    0.2500    0.5590 C   0  0  0  0  0  0  0  0  0  0  0  0
    3.8450    0.2710    0.7690 C   0  0  2  0  0  0  0  0  0  0  0  0
    4.5050    1.5840    0.6250 C   0  0  0  0  0  0  0  0  0  0  0  0
    5.8680    1.5230   -0.0220 C   0  0  0  0  0  0  0  0  0  0  0  0
    6.7120    0.4810    0.4010 N   0  0  0  0  0  0  0  0  0  0  0  0
    7.4570   -0.2000   -0.6060 C   0  0  0  0  0  0  0  0  0  0  0  0
    6.3290   -0.3030    1.5140 C   0  0  0  0  0  0  0  0  0  0  0  0
    5.4250   -1.4400    1.1010 C   0  0  0  0  0  0  0  0  0  0  0  0
    4.4690   -0.8500    0.1340 N   0  0  0  0  0  0  0  0  0  0  0  0
   -2.6560    0.8760   -0.1060 C   0  0  0  0  0  0  0  0  0  0  0  0
  1  2  1  0
  2  3  2  0
  2 31  1  0
  3  4  1  0
  4  5  1  0
  4  9  2  0
  5  6  1  0
  6  7  1  0
  7  8  2  0
  9 10  1  0
  9 11  1  0
 11 12  2  0
 12 13  1  0
 13 14  1  0
 13 31  2  0
 14 15  2  0
 14 16  1  0
 16 17  1  0
 16 21  1  0
 17 18  1  0
 18 19  1  0
 19 20  1  0
 20 21  1  0
 21 22  1  1
 23 22  1  6
 23 24  1  0
 23 30  1  0
 24 25  1  0
 25 26  1  0
 26 27  1  0
 26 28  1  0
 28 29  1  0
 29 30  1  0
M  CHG  1  30   1
M  END
