
     RDKit          3D

 31 33  0  0  0  0  0  0  0  0999 V2000
   -4.6910    0.7970   -4.7310 C   0  0  0  0  0  0  0  0  0  0  0  0
   -4.3420    0.3400   -3.5480 C   0  0  0  0  0  0  0  0  0  0  0  0
   -4.1850   -1.1230   -3.3910 C   0  0  0  0  0  0  0  0  0  0  0  0
   -4.1250    1.2660   -2.4460 C   0  0  0  0  0  0  0  0  0  0  0  0
   -3.7710    0.8420   -1.2310 C   0  0  0  0  0  0  0  0  0  0  0  0
   -3.5740    1.8110   -0.1890 C   0  0  0  0  0  0  0  0  0  0  0  0
   -3.2170    1.5020    1.0300 C   0  0  0  0  0  0  0  0  0  0  0  0
   -3.0750    2.6610    1.9620 C   0  0  0  0  0  0  0  0  0  0  0  0
   -3.3260    2.6780    3.2470 N   0  0  0  0  0  0  0  0  0  0  0  0
   -3.7990    1.5820    4.0610 C   0  0  0  0  0  0  0  0  0  0  0  0
   -3.7650    0.2670    3.8640 C   0  0  0  0  0  0  0  0  0  0  0  0
   -4.3490   -0.6050    4.9150 C   0  0  0  0  0  0  0  0  0  0  0  0
   -5.3910   -1.3390    4.3040 O   0  0  0  0  0  0  0  0  0  0  0  0
   -3.1850   -0.3840    2.6820 C   0  0  0  0  0  0  0  0  0  0  0  0
   -2.9500    0.1490    1.4660 C   0  0  0  0  0  0  0  0  0  0  0  0
   -2.3460   -0.6810    0.5000 N   0  0  0  0  0  0  0  0  0  0  0  0
   -1.1030   -0.8830    0.3690 C   0  0  0  0  0  0  0  0  0  0  0  0
   -0.1750   -0.1820    1.3210 C   0  0  0  0  0  0  0  0  0  0  0  0
    1.2090   -0.7300    1.0420 C   0  0  0  0  0  0  0  0  0  0  0  0
    1.5300   -0.4470   -0.3440 N   0  0  1  0  0  0  0  0  0  0  0  0
    2.9440   -0.7470   -0.5070 C   0  0  1  0  0  0  0  0  0  0  0  0
    3.3070   -0.8580   -1.9740 C   0  0  0  0  0  0  0  0  0  0  0  0
    3.7870    0.3150    0.0960 C   0  0  0  0  0  0  0  0  0  0  0  0
    3.2670    1.3540    0.6090 O   0  0  0  0  0  0  0  0  0  0  0  0
    5.1860    0.1840    0.1100 N   0  0  0  0  0  0  0  0  0  0  0  0
    6.0410   -0.8740   -0.3710 C   0  0  0  0  0  0  0  0  0  0  0  0
    7.1460   -0.1100   -1.0760 C   0  0  0  0  0  0  0  0  0  0  0  0
    7.0500    1.3170   -0.5760 C   0  0  0  0  0  0  0  0  0  0  0  0
    6.1390    1.1740    0.6510 C   0  0  0  0  0  0  0  0  0  0  0  0
    0.7490   -1.2080   -1.2660 C   0  0  0  0  0  0  0  0  0  0  0  0
   -0.5230   -1.7600   -0.6580 C   0  0  0  0  0  0  0  0  0  0  0  0
  1  2  2  0
  2  3  1  0
  2  4  1  0
  4  5  2  3
  5  6  1  0
  6  7  2  3
  7  8  1  0
  7 15  1  0
  8  9  2  0
  9 10  1  0
 10 11  2  0
 11 12  1  0
 11 14  1  0
 12 13  1  0
 14 15  2  0
 15 16  1  0
 16 17  2  3
 17 18  1  0
 17 31  1  0
 18 19  1  0
 20 19  1  1
 20 21  1  0
 20 30  1  0
 21 22  1  6
 21 23  1  0
 23 24  2  0
 23 25  1  0
 25 26  1  0
 25 29  1  0
 26 27  1  0
 27 28  1  0
 28 29  1  0
 30 31  1  0
M  CHG  1  20   1
M  END
