
     RDKit          3D

 31 34  0  0  0  0  0  0  0  0999 V2000
    2.3920   -0.7600    1.6260 C   0  0  0  0  0  0  0  0  0  0  0  0
    3.1230    0.3240    0.8210 C   0  0  1  0  0  0  0  0  0  0  0  0
    2.2220    1.5440    0.7190 C   0  0  0  0  0  0  0  0  0  0  0  0
    0.9690    1.2350    0.0550 N   0  0  0  0  0  0  0  0  0  0  0  0
   -0.2390    0.7920    0.6590 C   0  0  0  0  0  0  0  0  0  0  0  0
   -0.4650    0.5800    1.8780 O   0  0  0  0  0  0  0  0  0  0  0  0
   -1.2410    0.6030   -0.3660 N   0  0  0  0  0  0  0  0  0  0  0  0
   -2.3920   -0.2200   -0.2390 C   0  0  0  0  0  0  0  0  0  0  0  0
   -3.6160    0.4540    0.3290 C   0  0  1  0  0  0  0  0  0  0  0  0
   -4.1220    1.6080   -0.4540 C   0  0  0  0  0  0  0  0  0  0  0  0
   -5.6500    1.6890   -0.4870 C   0  0  0  0  0  0  0  0  0  0  0  0
   -6.0720    0.3850   -1.1850 C   0  0  0  0  0  0  0  0  0  0  0  0
   -5.7980   -0.6790   -0.1770 C   0  0  0  0  0  0  0  0  0  0  0  0
   -6.4650   -1.7900    0.2680 C   0  0  0  0  0  0  0  0  0  0  0  0
   -5.7650   -2.4260    1.2190 N   0  0  0  0  0  0  0  0  0  0  0  0
   -6.1620   -3.6520    1.9290 C   0  0  0  0  0  0  0  0  0  0  0  0
   -4.6360   -1.7250    1.3910 C   0  0  0  0  0  0  0  0  0  0  0  0
   -4.6240   -0.6200    0.5290 C   0  0  0  0  0  0  0  0  0  0  0  0
   -0.7930    1.4030   -1.4840 C   0  0  2  0  0  0  0  0  0  0  0  0
   -1.1370    2.8670   -1.3500 C   0  0  0  0  0  0  0  0  0  0  0  0
   -1.2360    0.8430   -2.8200 C   0  0  0  0  0  0  0  0  0  0  0  0
    0.6860    1.3100   -1.3320 C   0  0  0  0  0  0  0  0  0  0  0  0
    1.5020    1.3020   -2.2810 O   0  0  0  0  0  0  0  0  0  0  0  0
    4.2930    0.6730    1.5620 N   0  0  0  0  0  0  0  0  0  0  0  0
    5.4710    0.8540    0.7550 C   0  0  2  0  0  0  0  0  0  0  0  0
    5.2890    1.8010   -0.3810 C   0  0  0  0  0  0  0  0  0  0  0  0
    6.0610   -0.4320    0.3150 C   0  0  0  0  0  0  0  0  0  0  0  0
    6.3820   -0.6950   -0.9380 C   0  0  0  0  0  0  0  0  0  0  0  0
    6.9440   -2.0640   -1.0230 C   0  0  0  0  0  0  0  0  0  0  0  0
    6.8980   -2.5510    0.3710 C   0  0  0  0  0  0  0  0  0  0  0  0
    6.3840   -1.5910    1.1290 C   0  0  0  0  0  0  0  0  0  0  0  0
  2  1  1  1
  2  3  1  0
  2 24  1  0
  3  4  1  0
  4  5  1  0
  4 22  1  0
  5  6  2  0
  5  7  1  0
  7  8  1  0
  7 19  1  0
  9  8  1  6
  9 10  1  0
  9 18  1  0
 10 11  1  0
 11 12  1  0
 12 13  1  0
 13 14  2  0
 13 18  1  0
 14 15  1  0
 15 16  1  0
 15 17  1  0
 17 18  2  0
 19 20  1  1
 19 21  1  0
 19 22  1  0
 22 23  2  0
 24 25  1  0
 25 26  1  6
 25 27  1  0
 27 28  2  0
 27 31  1  0
 28 29  1  0
 29 30  1  0
 30 31  2  0
M  CHG  1  24   1
M  END
