
     RDKit          3D

 31 34  0  0  0  0  0  0  0  0999 V2000
    3.3460   -3.6400    0.4890 C   0  0  0  0  0  0  0  0  0  0  0  0
    2.5120   -2.3950    0.2450 C   0  0  0  0  0  0  0  0  0  0  0  0
    3.1540   -1.2740    0.8990 N   0  0  0  0  0  0  0  0  0  0  0  0
    2.5950   -0.1260    0.8480 C   0  0  0  0  0  0  0  0  0  0  0  0
    1.2870    0.1030    0.1280 C   0  0  2  0  0  0  0  0  0  0  0  0
    1.6220    1.1140   -0.9470 C   0  0  0  0  0  0  0  0  0  0  0  0
    0.3460    0.5280    1.0780 N   0  0  0  0  0  0  0  0  0  0  0  0
   -0.9820    0.7780    0.6770 C   0  0  2  0  0  0  0  0  0  0  0  0
   -1.7080   -0.4240    0.1480 C   0  0  0  0  0  0  0  0  0  0  0  0
   -1.6950   -1.6610    0.8730 C   0  0  0  0  0  0  0  0  0  0  0  0
   -1.0350   -1.6730    1.9860 O   0  0  0  0  0  0  0  0  0  0  0  0
   -2.3010   -2.8990    0.5620 N   0  0  0  0  0  0  0  0  0  0  0  0
   -3.0580   -3.0630   -0.6490 C   0  0  0  0  0  0  0  0  0  0  0  0
   -3.5510   -4.4810   -0.8190 C   0  0  0  0  0  0  0  0  0  0  0  0
   -2.5900   -5.3560   -0.3600 O   0  0  0  0  0  0  0  0  0  0  0  0
   -2.6120   -5.2920    1.0470 C   0  0  0  0  0  0  0  0  0  0  0  0
   -2.1150   -3.9880    1.5470 C   0  0  0  0  0  0  0  0  0  0  0  0
   -2.2490   -0.0360   -0.9730 C   0  0  0  0  0  0  0  0  0  0  0  0
   -1.9540    1.3810   -1.2800 C   0  0  0  0  0  0  0  0  0  0  0  0
   -2.2910    2.2230   -2.3130 C   0  0  0  0  0  0  0  0  0  0  0  0
   -1.8360    3.5420   -2.2950 C   0  0  0  0  0  0  0  0  0  0  0  0
   -2.2070    4.4380   -3.4100 C   0  0  0  0  0  0  0  0  0  0  0  0
   -1.0590    4.0310   -1.2790 C   0  0  0  0  0  0  0  0  0  0  0  0
   -0.5720    5.4250   -1.2510 C   0  0  0  0  0  0  0  0  0  0  0  0
   -0.7330    3.1530   -0.2460 C   0  0  0  0  0  0  0  0  0  0  0  0
   -1.1780    1.8650   -0.2620 C   0  0  0  0  0  0  0  0  0  0  0  0
    3.2540    0.9620    1.5000 N   0  0  0  0  0  0  0  0  0  0  0  0
    4.0650    1.8590    0.9390 C   0  0  0  0  0  0  0  0  0  0  0  0
    4.4640    2.7240    1.9630 C   0  0  0  0  0  0  0  0  0  0  0  0
    3.8680    2.3100    3.1230 C   0  0  0  0  0  0  0  0  0  0  0  0
    3.1110    1.2060    2.8310 C   0  0  0  0  0  0  0  0  0  0  0  0
  1  2  1  0
  2  3  1  0
  3  4  2  3
  4  5  1  0
  4 27  1  0
  5  6  1  6
  5  7  1  0
  8  7  1  6
  8  9  1  0
  8 26  1  0
  9 10  1  0
  9 18  2  0
 10 11  2  0
 10 12  1  0
 12 13  1  0
 12 17  1  0
 13 14  1  0
 14 15  1  0
 15 16  1  0
 16 17  1  0
 18 19  1  0
 19 20  2  0
 19 26  1  0
 20 21  1  0
 21 22  1  0
 21 23  2  0
 23 24  1  0
 23 25  1  0
 25 26  2  0
 27 28  1  0
 27 31  1  0
 28 29  2  0
 29 30  1  0
 30 31  2  0
M  CHG  1   3   1
M  END
