
     RDKit          3D

 31 33  0  0  0  0  0  0  0  0999 V2000
   -5.7600   -2.5990    1.1640 C   0  0  0  0  0  0  0  0  0  0  0  0
   -5.2130   -1.3700    1.1050 C   0  0  0  0  0  0  0  0  0  0  0  0
   -3.7850   -1.2730    1.3820 C   0  0  0  0  0  0  0  0  0  0  0  0
   -2.9720   -0.9960    0.3010 N   0  0  0  0  0  0  0  0  0  0  0  0
   -2.8880    0.1680   -0.4270 C   0  0  0  0  0  0  0  0  0  0  0  0
   -1.7920    0.1910   -1.4800 C   0  0  0  0  0  0  0  0  0  0  0  0
   -0.5320   -0.0920   -0.8480 N   0  0  0  0  0  0  0  0  0  0  0  0
    0.6980    0.4300   -1.3190 C   0  0  0  0  0  0  0  0  0  0  0  0
    0.6960    1.1690   -2.3230 O   0  0  0  0  0  0  0  0  0  0  0  0
    1.9490    0.1030   -0.6380 C   0  0  0  0  0  0  0  0  0  0  0  0
    3.0710    0.7410   -1.2930 N   0  0  0  0  0  0  0  0  0  0  0  0
    4.3750    0.5530   -0.7860 C   0  0  0  0  0  0  0  0  0  0  0  0
    4.5720   -0.2270    0.3230 C   0  0  0  0  0  0  0  0  0  0  0  0
    5.8270   -0.4260    0.8360 C   0  0  0  0  0  0  0  0  0  0  0  0
    6.9010    0.1830    0.2050 C   0  0  0  0  0  0  0  0  0  0  0  0
    8.1970    0.0380    0.6490 C   0  0  0  0  0  0  0  0  0  0  0  0
    9.2690    0.6520    0.0080 C   0  0  0  0  0  0  0  0  0  0  0  0
   10.6760    0.4910    0.4980 C   0  0  0  0  0  0  0  0  0  0  0  0
    8.9780    1.4150   -1.0960 C   0  0  0  0  0  0  0  0  0  0  0  0
    7.7150    1.5780   -1.5590 N   0  0  0  0  0  0  0  0  0  0  0  0
    6.6900    0.9650   -0.9100 C   0  0  0  0  0  0  0  0  0  0  0  0
    5.4260    1.1300   -1.3780 N   0  0  0  0  0  0  0  0  0  0  0  0
   -0.5270   -0.9510    0.3130 C   0  0  0  0  0  0  0  0  0  0  0  0
   -1.7550   -1.8150    0.2530 C   0  0  0  0  0  0  0  0  0  0  0  0
   -6.1110   -0.2880    0.8380 C   0  0  0  0  0  0  0  0  0  0  0  0
   -7.5030   -0.6990    0.6000 N   0  0  0  0  0  0  0  0  0  0  0  0
   -5.8640    1.0030    0.7690 C   0  0  0  0  0  0  0  0  0  0  0  0
   -7.1290    2.1730    0.4190 S   0  0  2  0  0  0  0  0  0  0  0  0
   -7.9990    1.7930   -1.0120 N   0  0  0  0  0  0  0  0  0  0  0  0
   -6.5460    3.5300    0.3290 O   0  0  0  0  0  0  0  0  0  0  0  0
   -8.1050    2.1500    1.5850 O   0  0  0  0  0  0  0  0  0  0  0  0
  1  2  2  0
  2  3  1  0
  2 25  1  0
  3  4  1  0
  4  5  1  0
  4 24  1  0
  5  6  1  0
  6  7  1  0
  7  8  1  0
  7 23  1  0
  8  9  2  0
  8 10  1  0
 10 11  1  0
 11 12  1  0
 12 13  2  0
 12 22  1  0
 13 14  1  0
 14 15  2  0
 15 16  1  0
 15 21  1  0
 16 17  2  0
 17 18  1  0
 17 19  1  0
 19 20  2  0
 20 21  1  0
 21 22  2  0
 23 24  1  0
 25 26  1  0
 25 27  2  3
 27 28  1  0
 28 29  1  6
 28 30  2  0
 28 31  2  0
M  CHG  1  29   1
M  END
