
     RDKit          3D

 31 33  0  0  0  0  0  0  0  0999 V2000
   -5.0880    3.8190    1.5770 C   0  0  0  0  0  0  0  0  0  0  0  0
   -5.0900    2.9280    0.3710 C   0  0  1  0  0  0  0  0  0  0  0  0
   -5.4780    3.7510   -0.8630 C   0  0  0  0  0  0  0  0  0  0  0  0
   -3.7870    2.4200    0.1090 O   0  0  0  0  0  0  0  0  0  0  0  0
   -3.6100    1.0200   -0.0030 C   0  0  0  0  0  0  0  0  0  0  0  0
   -4.5980    0.3200    0.1320 O   0  0  0  0  0  0  0  0  0  0  0  0
   -2.3510    0.4860   -0.2590 N   0  0  0  0  0  0  0  0  0  0  0  0
   -1.9270   -0.8390   -0.4120 C   0  0  0  0  0  0  0  0  0  0  0  0
   -0.5780   -1.1710   -0.6720 C   0  0  0  0  0  0  0  0  0  0  0  0
    0.5080   -0.2140   -0.8100 C   0  0  0  0  0  0  0  0  0  0  0  0
    1.6990   -0.6830   -1.0490 N   0  0  0  0  0  0  0  0  0  0  0  0
    2.7430    0.2350   -1.1820 N   0  0  0  0  0  0  0  0  0  0  0  0
    3.9940    0.1030   -0.5410 C   0  0  0  0  0  0  0  0  0  0  0  0
    4.1810   -0.9000    0.1930 O   0  0  0  0  0  0  0  0  0  0  0  0
    5.0970    1.0780   -0.6850 C   0  0  0  0  0  0  0  0  0  0  0  0
    6.2630    0.6890    0.0850 N   0  0  2  0  0  0  0  0  0  0  0  0
    7.0740    1.8650    0.2680 C   0  0  0  0  0  0  0  0  0  0  0  0
    8.4650    1.5710    0.7430 C   0  0  0  0  0  0  0  0  0  0  0  0
    8.6090   -0.0890    1.4760 S   0  0  0  0  0  0  0  0  0  0  0  0
    7.7650   -1.2350    0.3200 C   0  0  0  0  0  0  0  0  0  0  0  0
    6.9360   -0.3720   -0.6170 C   0  0  0  0  0  0  0  0  0  0  0  0
   -0.4660   -2.5030   -0.7690 N   0  0  0  0  0  0  0  0  0  0  0  0
   -1.6730   -3.0350   -0.5850 C   0  0  0  0  0  0  0  0  0  0  0  0
   -2.0260   -4.4110   -0.6010 N   0  0  0  0  0  0  0  0  0  0  0  0
   -2.5590   -1.9860   -0.3660 N   0  0  0  0  0  0  0  0  0  0  0  0
   -3.9150   -2.3020   -0.1420 C   0  0  0  0  0  0  0  0  0  0  0  0
   -4.8430   -2.4320   -1.1830 C   0  0  0  0  0  0  0  0  0  0  0  0
   -6.1460   -2.7940   -0.9260 C   0  0  0  0  0  0  0  0  0  0  0  0
   -6.6050   -3.0450    0.3500 C   0  0  0  0  0  0  0  0  0  0  0  0
   -5.7140   -2.9240    1.3800 C   0  0  0  0  0  0  0  0  0  0  0  0
   -4.4200   -2.5660    1.1370 C   0  0  0  0  0  0  0  0  0  0  0  0
  2  1  1  1
  2  3  1  0
  2  4  1  0
  4  5  1  0
  5  6  2  0
  5  7  1  0
  7  8  1  0
  8  9  2  0
  8 25  1  0
  9 10  1  0
  9 22  1  0
 10 11  2  3
 11 12  1  0
 12 13  1  0
 13 14  2  0
 13 15  1  0
 16 15  1  6
 16 17  1  0
 16 21  1  0
 17 18  1  0
 18 19  1  0
 19 20  1  0
 20 21  1  0
 22 23  2  0
 23 24  1  0
 23 25  1  0
 25 26  1  0
 26 27  2  0
 26 31  1  0
 27 28  1  0
 28 29  2  0
 29 30  1  0
 30 31  2  0
M  CHG  1  16   1
M  END
