
     RDKit          3D

 29 32  0  0  0  0  0  0  0  0999 V2000
    7.5930   -1.9880    2.1430 N   0  0  0  0  0  0  0  0  0  0  0  0
    6.6500   -1.2980    1.9480 C   0  0  0  0  0  0  0  0  0  0  0  0
    5.5030   -0.4740    1.7350 C   0  0  0  0  0  0  0  0  0  0  0  0
    4.2180   -0.8570    2.1340 C   0  0  0  0  0  0  0  0  0  0  0  0
    3.1950    0.0070    1.8730 C   0  0  0  0  0  0  0  0  0  0  0  0
    3.3350    1.2160    1.2510 C   0  0  0  0  0  0  0  0  0  0  0  0
    2.2150    2.1550    0.9710 C   0  0  0  0  0  0  0  0  0  0  0  0
    1.5680    1.8480   -0.3290 C   0  0  0  0  0  0  0  0  0  0  0  0
    2.0650    2.3330   -1.5200 C   0  0  0  0  0  0  0  0  0  0  0  0
    1.4160    2.0170   -2.6990 C   0  0  0  0  0  0  0  0  0  0  0  0
    1.8630    2.4720   -3.9360 O   0  0  0  0  0  0  0  0  0  0  0  0
    0.3110    1.2450   -2.6870 N   0  0  0  0  0  0  0  0  0  0  0  0
   -0.4560    0.8270   -3.6760 N   0  0  0  0  0  0  0  0  0  0  0  0
   -1.4270    0.0880   -3.1290 C   0  0  0  0  0  0  0  0  0  0  0  0
   -1.2700    0.0390   -1.7740 C   0  0  0  0  0  0  0  0  0  0  0  0
   -2.0820   -0.6510   -0.7470 C   0  0  0  0  0  0  0  0  0  0  0  0
   -1.5210   -1.1760    0.2130 O   0  0  0  0  0  0  0  0  0  0  0  0
   -3.4960   -0.7160   -0.8550 N   0  0  0  0  0  0  0  0  0  0  0  0
   -4.3840   -1.3410    0.0390 C   0  0  0  0  0  0  0  0  0  0  0  0
   -5.7410   -1.1290   -0.1610 C   0  0  0  0  0  0  0  0  0  0  0  0
   -6.7170   -1.6820    0.6200 C   0  0  0  0  0  0  0  0  0  0  0  0
   -6.3690   -2.4950    1.6650 C   0  0  0  0  0  0  0  0  0  0  0  0
   -7.3740   -3.0230    2.4150 F   0  0  0  0  0  0  0  0  0  0  0  0
   -5.0500   -2.7260    1.8910 C   0  0  0  0  0  0  0  0  0  0  0  0
   -4.0480   -2.1540    1.0840 C   0  0  0  0  0  0  0  0  0  0  0  0
   -0.1390    0.7940   -1.4970 C   0  0  0  0  0  0  0  0  0  0  0  0
    0.4710    1.0840   -0.3390 N   0  0  0  0  0  0  0  0  0  0  0  0
    4.6300    1.5660    0.8660 C   0  0  0  0  0  0  0  0  0  0  0  0
    5.6770    0.7400    1.1040 C   0  0  0  0  0  0  0  0  0  0  0  0
  1  2  3  0
  2  3  1  0
  3  4  2  0
  3 29  1  0
  4  5  1  0
  5  6  2  0
  6  7  1  0
  6 28  1  0
  7  8  1  0
  8  9  1  0
  8 27  2  0
  9 10  2  0
 10 11  1  0
 10 12  1  0
 12 13  1  0
 12 26  1  0
 13 14  2  0
 14 15  1  0
 15 16  1  0
 15 26  2  0
 16 17  2  0
 16 18  1  0
 18 19  1  0
 19 20  2  0
 19 25  1  0
 20 21  1  0
 21 22  2  0
 22 23  1  0
 22 24  1  0
 24 25  2  0
 26 27  1  0
 28 29  2  0
M  END
