
     RDKit          3D

 19 21  0  0  0  0  0  0  0  0999 V2000
   -1.3810   -2.5520    1.0250 O   0  0  0  0  0  0  0  0  0  0  0  0
   -1.4230   -1.1590    1.6340 S   0  0  1  0  0  0  0  0  0  0  0  0
   -1.6230   -1.3000    3.1140 O   0  0  0  0  0  0  0  0  0  0  0  0
    0.0860   -0.3920    1.2970 N   0  0  0  0  0  0  0  0  0  0  0  0
    0.1970    0.3240    0.2400 C   0  0  0  0  0  0  0  0  0  0  0  0
    1.4800    0.9410    0.0070 N   0  0  0  0  0  0  0  0  0  0  0  0
    2.5660    0.6700    0.8970 C   0  0  2  0  0  0  0  0  0  0  0  0
    3.7870    1.4600    0.4140 C   0  0  0  0  0  0  0  0  0  0  0  0
    4.2330    0.9290   -0.9140 C   0  0  0  0  0  0  0  0  0  0  0  0
    4.4960   -0.5410   -0.9320 C   0  0  0  0  0  0  0  0  0  0  0  0
    3.3400   -1.3450   -0.3840 C   0  0  0  0  0  0  0  0  0  0  0  0
    2.9590   -0.7840    0.9550 C   0  0  0  0  0  0  0  0  0  0  0  0
   -0.8800    0.4530   -0.5810 O   0  0  0  0  0  0  0  0  0  0  0  0
   -2.2190    0.6650   -0.1790 C   0  0  1  0  0  0  0  0  0  0  0  0
   -3.1150    0.7350   -1.3950 C   0  0  0  0  0  0  0  0  0  0  0  0
   -4.5450    0.8650   -0.8870 C   0  0  0  0  0  0  0  0  0  0  0  0
   -4.9370   -0.4580   -0.2380 C   0  0  0  0  0  0  0  0  0  0  0  0
   -3.7140   -1.2190    0.1670 C   0  0  0  0  0  0  0  0  0  0  0  0
   -2.7250   -0.2800    0.8530 C   0  0  1  0  0  0  0  0  0  0  0  0
  1  2  2  0
  2  3  2  0
  2  4  1  1
  2 19  1  0
  4  5  2  0
  5  6  1  0
  5 13  1  0
  7  6  1  6
  7  8  1  0
  7 12  1  0
  8  9  1  0
  9 10  1  0
 10 11  1  0
 11 12  1  0
 13 14  1  0
 14 15  1  6
 14 19  1  0
 15 16  1  0
 16 17  1  0
 17 18  1  0
 19 18  1  6
M  END
