
     RDKit          3D

 12 12  0  0  0  0  0  0  0  0999 V2000
    3.2890   -0.6330   -0.0700 C   0  0  0  0  0  0  0  0  0  0  0  0
    2.2590   -0.1860    0.9530 C   0  0  0  0  0  0  0  0  0  0  0  0
    1.1520    0.5760    0.3620 C   0  0  0  0  0  0  0  0  0  0  0  0
    1.4130    1.7950    0.0770 O   0  0  0  0  0  0  0  0  0  0  0  0
   -0.1490    0.0540    0.0980 C   0  0  0  0  0  0  0  0  0  0  0  0
   -1.0940    0.8140   -0.4350 C   0  0  0  0  0  0  0  0  0  0  0  0
   -0.8210    2.2330   -0.7750 C   0  0  0  0  0  0  0  0  0  0  0  0
   -2.3980    0.2830   -0.6860 N   0  0  0  0  0  0  0  0  0  0  0  0
   -2.8850   -0.8420    0.0950 C   0  0  0  0  0  0  0  0  0  0  0  0
   -1.8190   -1.8500    0.1260 N   0  0  0  0  0  0  0  0  0  0  0  0
   -0.4960   -1.3510    0.4040 C   0  0  0  0  0  0  0  0  0  0  0  0
    0.2970   -2.1680    0.9000 O   0  0  0  0  0  0  0  0  0  0  0  0
  1  2  1  0
  2  3  1  0
  3  4  2  0
  3  5  1  0
  5  6  2  0
  5 11  1  0
  6  7  1  0
  6  8  1  0
  8  9  1  0
  9 10  1  0
 10 11  1  0
 11 12  2  0
M  END
