
     RDKit          3D

 12 12  0  0  0  0  0  0  0  0999 V2000
   -3.7770    0.9350    1.1400 C   0  0  0  0  0  0  0  0  0  0  0  0
   -3.1990    0.1230    0.0400 C   0  0  0  0  0  0  0  0  0  0  0  0
   -1.8870   -0.0250   -0.0940 C   0  0  0  0  0  0  0  0  0  0  0  0
   -0.9380    0.5950    0.8240 C   0  0  0  0  0  0  0  0  0  0  0  0
    0.3380    0.4750    0.7270 N   0  0  0  0  0  0  0  0  0  0  0  0
    0.9120   -0.3000   -0.3220 C   0  0  0  0  0  0  0  0  0  0  0  0
    2.3700   -0.4470   -0.4470 C   0  0  0  0  0  0  0  0  0  0  0  0
    2.8240   -1.1390   -1.3870 O   0  0  0  0  0  0  0  0  0  0  0  0
    3.2650    0.1410    0.4240 O   0  0  0  0  0  0  0  0  0  0  0  0
    4.6660   -0.0030    0.3000 C   0  0  0  0  0  0  0  0  0  0  0  0
    0.0990   -0.8850   -1.1830 C   0  0  0  0  0  0  0  0  0  0  0  0
   -1.3200   -0.7990   -1.1420 N   0  0  0  0  0  0  0  0  0  0  0  0
  1  2  1  0
  2  3  2  3
  3  4  1  0
  3 12  1  0
  4  5  2  0
  5  6  1  0
  6  7  1  0
  6 11  2  0
  7  8  2  0
  7  9  1  0
  9 10  1  0
 11 12  1  0
M  END
