
     RDKit          3D

 12 12  0  0  0  0  0  0  0  0999 V2000
    4.0050   -0.2220    0.2230 C   0  0  0  0  0  0  0  0  0  0  0  0
    2.5130   -0.4010    0.1670 C   0  0  0  0  0  0  0  0  0  0  0  0
    1.8880   -0.9790    1.0970 O   0  0  0  0  0  0  0  0  0  0  0  0
    1.7450    0.0710   -0.9310 N   0  0  0  0  0  0  0  0  0  0  0  0
    0.3400   -0.1280   -0.9270 N   0  0  0  0  0  0  0  0  0  0  0  0
   -0.4590    0.4130    0.1190 C   0  0  0  0  0  0  0  0  0  0  0  0
    0.1520    1.0600    1.0120 O   0  0  0  0  0  0  0  0  0  0  0  0
   -1.8960    0.2330    0.1580 C   0  0  0  0  0  0  0  0  0  0  0  0
   -2.7710    0.6660    1.0500 C   0  0  0  0  0  0  0  0  0  0  0  0
   -4.1150    0.2310    0.6620 C   0  0  0  0  0  0  0  0  0  0  0  0
   -3.9360   -0.3920   -0.4750 C   0  0  0  0  0  0  0  0  0  0  0  0
   -2.6670   -0.5020   -0.8390 C   0  0  0  0  0  0  0  0  0  0  0  0
  1  2  1  0
  2  3  2  0
  2  4  1  0
  4  5  1  0
  5  6  1  0
  6  7  2  0
  6  8  1  0
  8  9  2  0
  8 12  1  0
  9 10  1  0
 10 11  2  0
 11 12  2  0
M  END
