
     RDKit          3D

 12 12  0  0  0  0  0  0  0  0999 V2000
   -2.3020    2.2740    0.1190 C   0  0  0  0  0  0  0  0  0  0  0  0
   -1.0730    1.5140   -0.1550 C   0  0  0  0  0  0  0  0  0  0  0  0
   -0.9930    0.2050   -0.1630 C   0  0  0  0  0  0  0  0  0  0  0  0
   -2.0580   -0.7270    0.0900 C   0  0  0  0  0  0  0  0  0  0  0  0
   -3.2860   -0.5660    0.2560 O   0  0  0  0  0  0  0  0  0  0  0  0
   -1.4660   -2.1130    0.1410 C   0  0  0  0  0  0  0  0  0  0  0  0
    0.0150   -1.9350   -0.0780 C   0  0  0  0  0  0  0  0  0  0  0  0
    0.2200   -0.5470   -0.4050 N   0  0  0  0  0  0  0  0  0  0  0  0
    1.4340    0.0290   -0.8810 C   0  0  0  0  0  0  0  0  0  0  0  0
    2.4980    0.0840    0.1520 C   0  0  0  0  0  0  0  0  0  0  0  0
    3.7880    0.6070   -0.0710 N   0  0  0  0  0  0  0  0  0  0  0  0
    2.2050   -0.3660    1.2870 O   0  0  0  0  0  0  0  0  0  0  0  0
  1  2  1  0
  2  3  2  3
  3  4  1  0
  3  8  1  0
  4  5  2  0
  4  6  1  0
  6  7  1  0
  7  8  1  0
  8  9  1  0
  9 10  1  0
 10 11  1  0
 10 12  2  0
M  END
