
     RDKit          3D

 12 12  0  0  0  0  0  0  0  0999 V2000
    2.8650    1.4400   -0.2980 C   0  0  0  0  0  0  0  0  0  0  0  0
    2.6900   -0.0390   -0.1840 C   0  0  2  0  0  0  0  0  0  0  0  0
    3.9620   -0.8100   -0.5110 C   0  0  0  0  0  0  0  0  0  0  0  0
    1.6560   -0.5260   -1.0470 N   0  0  0  0  0  0  0  0  0  0  0  0
    0.4280   -0.0000   -0.8120 O   0  0  0  0  0  0  0  0  0  0  0  0
   -0.5870   -0.7630   -0.2800 C   0  0  0  0  0  0  0  0  0  0  0  0
   -0.3070   -1.9780   -0.0260 O   0  0  0  0  0  0  0  0  0  0  0  0
   -1.9150   -0.2310   -0.0150 C   0  0  0  0  0  0  0  0  0  0  0  0
   -2.2870    1.0070   -0.2470 C   0  0  0  0  0  0  0  0  0  0  0  0
   -3.6370    1.1540    0.1330 N   0  0  0  0  0  0  0  0  0  0  0  0
   -4.2480   -0.1570    0.1440 C   0  0  0  0  0  0  0  0  0  0  0  0
   -3.0460   -1.0100    0.5510 C   0  0  0  0  0  0  0  0  0  0  0  0
  2  1  1  6
  2  3  1  0
  2  4  1  0
  4  5  1  0
  5  6  1  0
  6  7  2  0
  6  8  1  0
  8  9  2  0
  8 12  1  0
  9 10  1  0
 10 11  1  0
 11 12  1  0
M  END
