
     RDKit          3D

 12 12  0  0  0  0  0  0  0  0999 V2000
   -2.4360   -2.4740    0.0560 C   0  0  0  0  0  0  0  0  0  0  0  0
   -2.0080   -1.2210    0.0630 C   0  0  0  0  0  0  0  0  0  0  0  0
   -2.9870   -0.1210   -0.0220 C   0  0  0  0  0  0  0  0  0  0  0  0
   -2.3740    1.1720   -0.0030 N   0  0  0  0  0  0  0  0  0  0  0  0
   -1.1160    1.3640    0.0790 C   0  0  0  0  0  0  0  0  0  0  0  0
   -0.6240    2.7860    0.0880 C   0  0  0  0  0  0  0  0  0  0  0  0
   -0.1490    0.2640    0.1630 C   0  0  0  0  0  0  0  0  0  0  0  0
    1.2080    0.5530    0.2500 O   0  0  0  0  0  0  0  0  0  0  0  0
    2.1190   -0.5140   -0.0200 C   0  0  0  0  0  0  0  0  0  0  0  0
    3.5350    0.0150    0.1300 C   0  0  0  0  0  0  0  0  0  0  0  0
    4.4440   -0.9940   -0.1250 O   0  0  0  0  0  0  0  0  0  0  0  0
   -0.6310   -0.9120    0.1510 N   0  0  0  0  0  0  0  0  0  0  0  0
  1  2  2  0
  2  3  1  0
  2 12  1  0
  3  4  1  0
  4  5  2  0
  5  6  1  0
  5  7  1  0
  7  8  1  0
  7 12  2  0
  8  9  1  0
  9 10  1  0
 10 11  1  0
M  END
