
     RDKit          3D

 10 10  0  0  0  0  0  0  0  0999 V2000
   -0.8920    1.9080    0.0910 N   0  0  0  0  0  0  0  0  0  0  0  0
    0.1230    0.9230    0.0290 C   0  0  0  0  0  0  0  0  0  0  0  0
   -0.1950   -0.3600   -0.0020 C   0  0  0  0  0  0  0  0  0  0  0  0
   -1.6350   -0.7960    0.0270 C   0  0  0  0  0  0  0  0  0  0  0  0
   -2.4810    0.2950    0.0860 O   0  0  0  0  0  0  0  0  0  0  0  0
    0.8880   -1.3310   -0.0650 C   0  0  0  0  0  0  0  0  0  0  0  0
    0.5660   -2.6860   -0.0990 O   0  0  0  0  0  0  0  0  0  0  0  0
    2.1650   -0.9950   -0.0920 C   0  0  0  0  0  0  0  0  0  0  0  0
    2.4630    0.3570   -0.0580 O   0  0  0  0  0  0  0  0  0  0  0  0
    1.5300    1.3940    0.0030 C   0  0  0  0  0  0  0  0  0  0  0  0
  1  2  1  0
  2  3  2  0
  2 10  1  0
  3  4  1  0
  3  6  1  0
  4  5  1  0
  6  7  1  0
  6  8  2  0
  8  9  1  0
  9 10  1  0
M  END
