
     RDKit          3D

 10 10  0  0  0  0  0  0  0  0999 V2000
    2.6210   -0.5980    0.6930 O   0  0  0  0  0  0  0  0  0  0  0  0
    1.9690   -0.5160   -0.5230 C   0  0  0  0  0  0  0  0  0  0  0  0
    0.5240   -0.2120   -0.4200 C   0  0  1  0  0  0  0  0  0  0  0  0
   -0.0220   -0.1540   -1.6930 O   0  0  0  0  0  0  0  0  0  0  0  0
   -0.2130   -1.3420    0.3080 C   0  0  0  0  0  0  0  0  0  0  0  0
   -1.6820   -1.0500    0.0590 C   0  0  0  0  0  0  0  0  0  0  0  0
   -2.0330    0.1330    0.7410 N   0  0  0  0  0  0  0  0  0  0  0  0
   -1.2200    1.2660    0.5690 C   0  0  0  0  0  0  0  0  0  0  0  0
    0.2150    1.0500    0.3130 C   0  0  2  0  0  0  0  0  0  0  0  0
    0.7380    2.1780   -0.3180 O   0  0  0  0  0  0  0  0  0  0  0  0
  1  2  1  0
  2  3  1  0
  3  4  1  6
  3  5  1  0
  3  9  1  0
  5  6  1  0
  6  7  1  0
  7  8  1  0
  8  9  1  0
  9 10  1  6
M  END
