
     RDKit          3D

 26 28  0  0  0  0  0  0  0  0999 V2000
   -5.0840   -2.5980    1.6260 C   0  0  0  0  0  0  0  0  0  0  0  0
   -4.8370   -1.4620    0.7550 N   0  0  0  0  0  0  0  0  0  0  0  0
   -5.8950   -0.9220   -0.0810 C   0  0  0  0  0  0  0  0  0  0  0  0
   -3.5670   -0.8240    0.6710 C   0  0  0  0  0  0  0  0  0  0  0  0
   -2.5880   -1.1980   -0.2170 C   0  0  0  0  0  0  0  0  0  0  0  0
   -1.3590   -0.5480   -0.2670 C   0  0  0  0  0  0  0  0  0  0  0  0
   -1.1300    0.4890    0.5960 C   0  0  0  0  0  0  0  0  0  0  0  0
    0.1670    1.1910    0.5610 C   0  0  2  0  0  0  0  0  0  0  0  0
    0.2020    2.3600   -0.3390 C   0  0  0  0  0  0  0  0  0  0  0  0
   -0.9220    3.1410   -0.4790 C   0  0  0  0  0  0  0  0  0  0  0  0
   -0.9430    4.2650   -1.3010 C   0  0  0  0  0  0  0  0  0  0  0  0
    0.1740    4.6400   -2.0110 C   0  0  0  0  0  0  0  0  0  0  0  0
    0.1900    5.7600   -2.8450 O   0  0  0  0  0  0  0  0  0  0  0  0
    1.3090    3.8690   -1.8820 C   0  0  0  0  0  0  0  0  0  0  0  0
    1.3150    2.7430   -1.0530 C   0  0  0  0  0  0  0  0  0  0  0  0
    1.3040    0.2640    0.3700 C   0  0  0  0  0  0  0  0  0  0  0  0
    1.7390   -0.1560   -0.8690 C   0  0  0  0  0  0  0  0  0  0  0  0
    2.8020   -1.0270   -1.0140 C   0  0  0  0  0  0  0  0  0  0  0  0
    3.4670   -1.5080    0.0940 C   0  0  0  0  0  0  0  0  0  0  0  0
    4.5760   -2.4160   -0.0370 N   0  0  0  0  0  0  0  0  0  0  0  0
    5.2440   -2.8960    1.1570 C   0  0  0  0  0  0  0  0  0  0  0  0
    5.0310   -2.8540   -1.3320 C   0  0  0  0  0  0  0  0  0  0  0  0
    3.0540   -1.1060    1.3470 C   0  0  0  0  0  0  0  0  0  0  0  0
    2.0000   -0.2440    1.4540 C   0  0  0  0  0  0  0  0  0  0  0  0
   -2.1330    0.8670    1.5020 C   0  0  0  0  0  0  0  0  0  0  0  0
   -3.3400    0.2230    1.5450 C   0  0  0  0  0  0  0  0  0  0  0  0
  1  2  1  0
  2  3  1  0
  2  4  1  0
  4  5  2  0
  4 26  1  0
  5  6  1  0
  6  7  2  0
  8  7  1  6
  7 25  1  0
  8  9  1  0
  8 16  1  0
  9 10  2  0
  9 15  1  0
 10 11  1  0
 11 12  2  0
 12 13  1  0
 12 14  1  0
 14 15  2  0
 16 17  2  0
 16 24  1  0
 17 18  1  0
 18 19  2  0
 19 20  1  0
 19 23  1  0
 20 21  1  0
 20 22  1  0
 23 24  2  0
 25 26  2  0
M  END
