
     RDKit          3D

 10 10  0  0  0  0  0  0  0  0999 V2000
    3.7690   -0.0150    0.4230 O   0  0  0  0  0  0  0  0  0  0  0  0
    2.6330   -0.4420   -0.2780 C   0  0  0  0  0  0  0  0  0  0  0  0
    1.5510   -0.8070    0.6230 N   0  0  0  0  0  0  0  0  0  0  0  0
    0.3060   -0.4400    0.0020 C   0  0  1  0  0  0  0  0  0  0  0  0
   -0.7340   -1.4910    0.2640 C   0  0  0  0  0  0  0  0  0  0  0  0
   -1.9990   -1.1420   -0.1480 O   0  0  0  0  0  0  0  0  0  0  0  0
   -2.4250    0.1040    0.2430 C   0  0  0  0  0  0  0  0  0  0  0  0
   -1.4700    1.1700   -0.2520 C   0  0  1  0  0  0  0  0  0  0  0  0
   -1.9320    2.4500   -0.0240 O   0  0  0  0  0  0  0  0  0  0  0  0
   -0.1630    0.9260    0.4950 C   0  0  0  0  0  0  0  0  0  0  0  0
  1  2  1  0
  2  3  1  0
  4  3  1  1
  4  5  1  0
  4 10  1  0
  5  6  1  0
  6  7  1  0
  7  8  1  0
  8  9  1  1
  8 10  1  0
M  END
