
     RDKit          3D

 10 10  0  0  0  0  0  0  0  0999 V2000
    0.4830   -1.4820    0.9580 N   0  0  0  0  0  0  0  0  0  0  0  0
    0.6210   -0.3910    0.0470 C   0  0  1  0  0  0  0  0  0  0  0  0
    1.7430    0.5090    0.4730 C   0  0  0  0  0  0  0  0  0  0  0  0
    1.9290    1.5840   -0.3670 O   0  0  0  0  0  0  0  0  0  0  0  0
    0.8160   -0.9560   -1.3420 C   0  0  0  0  0  0  0  0  0  0  0  0
   -0.4310   -1.3760   -1.7290 O   0  0  0  0  0  0  0  0  0  0  0  0
   -1.3830   -0.6520   -1.0580 C   0  0  0  0  0  0  0  0  0  0  0  0
   -0.6690    0.3630   -0.1920 C   0  0  1  0  0  0  0  0  0  0  0  0
   -1.4110    0.6630    1.0780 C   0  0  0  0  0  0  0  0  0  0  0  0
   -2.5750    1.3570    0.7140 O   0  0  0  0  0  0  0  0  0  0  0  0
  2  1  1  1
  2  3  1  0
  2  5  1  0
  2  8  1  0
  3  4  1  0
  5  6  1  0
  6  7  1  0
  7  8  1  0
  8  9  1  1
  9 10  1  0
M  END
