
     RDKit          3D

 10 10  0  0  0  0  0  0  0  0999 V2000
   -2.3440    0.7560   -0.4990 N   0  0  0  0  0  0  0  0  0  0  0  0
   -1.6540   -0.4960   -0.1480 C   0  0  2  0  0  0  0  0  0  0  0  0
   -2.3240   -1.0280    0.9500 O   0  0  0  0  0  0  0  0  0  0  0  0
   -0.2570   -0.0780    0.2310 C   0  0  2  0  0  0  0  0  0  0  0  0
   -0.3720    0.7990    1.3170 O   0  0  0  0  0  0  0  0  0  0  0  0
    0.3410    0.6190   -0.9810 C   0  0  0  0  0  0  0  0  0  0  0  0
    1.7900    0.2380   -1.0560 C   0  0  0  0  0  0  0  0  0  0  0  0
    2.3500    0.2960    0.3550 C   0  0  0  0  0  0  0  0  0  0  0  0
    1.8010   -0.6680    1.1630 O   0  0  0  0  0  0  0  0  0  0  0  0
    0.6200   -1.2120    0.6410 C   0  0  0  0  0  0  0  0  0  0  0  0
  2  1  1  1
  2  3  1  0
  2  4  1  0
  4  5  1  1
  4  6  1  0
  4 10  1  0
  6  7  1  0
  7  8  1  0
  8  9  1  0
  9 10  1  0
M  END
