
     RDKit          3D

 43 46  0  0  0  0  0  0  0  0999 V2000
   -4.3360    2.7690    3.1930 C   0  0  0  0  0  0  0  0  0  0  0  0
   -3.3310    1.6430    2.9700 C   0  0  2  0  0  0  0  0  0  0  0  0
   -2.1370    2.2730    2.2530 C   0  0  0  0  0  0  0  0  0  0  0  0
   -1.6910    1.0720    1.4320 C   0  0  2  0  0  0  0  0  0  0  0  0
   -0.5010    1.4300    0.6600 C   0  0  0  0  0  0  0  0  0  0  0  0
    0.7200    0.7710    1.2440 C   0  0  0  0  0  0  0  0  0  0  0  0
    1.5280    0.0180    0.2460 C   0  0  0  0  0  0  0  0  0  0  0  0
    2.3080    0.7640   -0.6180 C   0  0  0  0  0  0  0  0  0  0  0  0
    2.3610    2.1720   -0.5350 N   0  0  0  0  0  0  0  0  0  0  0  0
    3.2060    2.8870   -1.5030 C   0  0  0  0  0  0  0  0  0  0  0  0
    3.1210    4.3640   -1.2150 C   0  0  0  0  0  0  0  0  0  0  0  0
    1.7940    4.7760   -1.3370 O   0  0  0  0  0  0  0  0  0  0  0  0
    1.7380    6.0540   -1.0860 O   0  0  0  0  0  0  0  0  0  0  0  0
    3.0780    0.1580   -1.5640 N   0  0  0  0  0  0  0  0  0  0  0  0
    3.0880   -1.1760   -1.6700 C   0  0  0  0  0  0  0  0  0  0  0  0
    3.8970   -1.7150   -2.6590 O   0  0  0  0  0  0  0  0  0  0  0  0
    4.0570   -3.0620   -2.9420 C   0  0  0  0  0  0  0  0  0  0  0  0
    4.6160   -3.7500   -1.6950 C   0  0  0  0  0  0  0  0  0  0  0  0
    5.8570   -3.1860   -1.3530 O   0  0  0  0  0  0  0  0  0  0  0  0
    6.2870   -3.8040   -0.2910 O   0  0  0  0  0  0  0  0  0  0  0  0
    2.3430   -1.8770   -0.8420 N   0  0  0  0  0  0  0  0  0  0  0  0
    1.5400   -1.3380    0.1380 C   0  0  0  0  0  0  0  0  0  0  0  0
    0.8400   -2.3360    0.9280 C   0  0  0  0  0  0  0  0  0  0  0  0
    1.5820   -3.2450    1.5230 O   0  0  0  0  0  0  0  0  0  0  0  0
   -0.5300   -2.4950    1.1670 N   0  0  0  0  0  0  0  0  0  0  0  0
   -0.9090   -2.9680    2.5200 C   0  0  0  0  0  0  0  0  0  0  0  0
   -2.3300   -3.4040    2.5960 C   0  0  0  0  0  0  0  0  0  0  0  0
   -2.5960   -4.2420    1.4550 O   0  0  0  0  0  0  0  0  0  0  0  0
   -2.4290   -3.6040    0.2110 C   0  0  0  0  0  0  0  0  0  0  0  0
   -2.8610   -4.0510   -0.8600 O   0  0  0  0  0  0  0  0  0  0  0  0
   -1.6650   -2.3070    0.3220 C   0  0  2  0  0  0  0  0  0  0  0  0
   -1.4580   -1.6390   -0.9560 C   0  0  0  0  0  0  0  0  0  0  0  0
   -0.6180   -2.1590   -1.7240 O   0  0  0  0  0  0  0  0  0  0  0  0
   -2.1530   -0.4390   -1.3770 N   0  0  0  0  0  0  0  0  0  0  0  0
   -1.8370    0.0300   -2.6660 C   0  0  0  0  0  0  0  0  0  0  0  0
   -1.0210   -0.6620   -3.3750 O   0  0  0  0  0  0  0  0  0  0  0  0
   -2.3500    1.2630   -3.3140 C   0  0  0  0  0  0  0  0  0  0  0  0
   -3.0990    2.0780   -2.5190 O   0  0  0  0  0  0  0  0  0  0  0  0
   -3.0860    0.2240   -0.5250 C   0  0  0  0  0  0  0  0  0  0  0  0
   -4.2230    0.4540   -1.0220 O   0  0  0  0  0  0  0  0  0  0  0  0
   -2.8740    0.6500    0.8190 N   0  0  0  0  0  0  0  0  0  0  0  0
   -3.8310    0.7420    1.9030 C   0  0  0  0  0  0  0  0  0  0  0  0
   -4.9620    0.1550    1.9840 O   0  0  0  0  0  0  0  0  0  0  0  0
  2  1  1  6
  2  3  1  0
  2 42  1  0
  4  3  1  6
  4  5  1  0
  4 41  1  0
  5  6  1  0
  6  7  1  0
  7  8  2  0
  7 22  1  0
  8  9  1  0
  8 14  1  0
  9 10  1  0
 10 11  1  0
 11 12  1  0
 12 13  1  0
 14 15  2  0
 15 16  1  0
 15 21  1  0
 16 17  1  0
 17 18  1  0
 18 19  1  0
 19 20  1  0
 21 22  2  0
 22 23  1  0
 23 24  2  0
 23 25  1  0
 25 26  1  0
 25 31  1  0
 26 27  1  0
 27 28  1  0
 28 29  1  0
 29 30  2  0
 31 29  1  6
 31 32  1  0
 32 33  2  0
 32 34  1  0
 34 35  1  0
 34 39  1  0
 35 36  2  0
 35 37  1  0
 37 38  1  0
 39 40  2  0
 39 41  1  0
 41 42  1  0
 42 43  2  0
M  END
