
     RDKit          3D

 44 46  0  0  0  0  0  0  0  0999 V2000
    4.1690    1.6030   -2.2820 C   0  0  0  0  0  0  0  0  0  0  0  0
    4.0310    2.7020   -1.6280 C   0  0  0  0  0  0  0  0  0  0  0  0
    3.5830    2.9300   -0.2860 C   0  0  0  0  0  0  0  0  0  0  0  0
    3.1380    2.1950    0.8420 C   0  0  0  0  0  0  0  0  0  0  0  0
    2.7280    1.2360    1.5090 C   0  0  0  0  0  0  0  0  0  0  0  0
    2.3310   -0.1670    1.4000 C   0  0  0  0  0  0  0  0  0  0  0  0
    2.1200   -0.7720    2.6120 C   0  0  0  0  0  0  0  0  0  0  0  0
    1.7360   -2.0550    3.0550 C   0  0  0  0  0  0  0  0  0  0  0  0
    0.7400   -2.6020    3.7060 C   0  0  0  0  0  0  0  0  0  0  0  0
    0.8190   -4.1110    3.9340 C   0  0  0  0  0  0  0  0  0  0  0  0
   -0.4580   -1.9960    4.3020 C   0  0  0  0  0  0  0  0  0  0  0  0
   -0.9070   -2.5040    5.3930 O   0  0  0  0  0  0  0  0  0  0  0  0
   -1.1850   -0.9070    3.8070 N   0  0  0  0  0  0  0  0  0  0  0  0
   -1.9400   -0.1140    4.7600 C   0  0  0  0  0  0  0  0  0  0  0  0
   -1.2580   -0.4920    2.4460 C   0  0  0  0  0  0  0  0  0  0  0  0
   -1.6960    0.7210    2.3090 O   0  0  0  0  0  0  0  0  0  0  0  0
   -0.9520   -1.1380    1.3540 O   0  0  0  0  0  0  0  0  0  0  0  0
   -1.1760   -2.2260    0.5810 C   0  0  1  0  0  0  0  0  0  0  0  0
   -1.5710   -3.5240    1.2630 C   0  0  0  0  0  0  0  0  0  0  0  0
   -3.0820   -3.7110    1.0330 C   0  0  0  0  0  0  0  0  0  0  0  0
   -3.4180   -2.3290    0.7970 N   0  0  0  0  0  0  0  0  0  0  0  0
   -4.3870   -1.4910    1.3480 C   0  0  0  0  0  0  0  0  0  0  0  0
   -5.2430   -1.8990    2.2020 O   0  0  0  0  0  0  0  0  0  0  0  0
   -4.3820   -0.1620    0.9220 O   0  0  0  0  0  0  0  0  0  0  0  0
   -3.9680    0.0370   -0.4170 C   0  0  2  0  0  0  0  0  0  0  0  0
   -5.0520   -0.5200   -1.3110 C   0  0  0  0  0  0  0  0  0  0  0  0
   -2.6140   -0.5690   -0.6930 C   0  0  0  0  0  0  0  0  0  0  0  0
   -2.4220   -1.9630   -0.2340 C   0  0  1  0  0  0  0  0  0  0  0  0
   -2.7150   -2.9530   -1.3260 C   0  0  0  0  0  0  0  0  0  0  0  0
    0.1110   -2.5170   -0.1310 C   0  0  0  0  0  0  0  0  0  0  0  0
    0.9490   -1.4110   -0.5180 N   0  0  0  0  0  0  0  0  0  0  0  0
    0.5560   -1.0170   -1.8940 C   0  0  0  0  0  0  0  0  0  0  0  0
   -0.2380   -1.7230   -2.5510 O   0  0  0  0  0  0  0  0  0  0  0  0
    1.0670    0.1610   -2.4570 N   0  0  0  0  0  0  0  0  0  0  0  0
    0.6620    0.5270   -3.8050 C   0  0  0  0  0  0  0  0  0  0  0  0
    1.2110    1.8330   -4.2790 C   0  0  0  0  0  0  0  0  0  0  0  0
    0.8040    2.9890   -3.3990 C   0  0  0  0  0  0  0  0  0  0  0  0
    1.4380    4.5950   -4.1470 P   0  0  0  0  0  0  0  0  0  0  0  0
    0.7910    4.7030   -5.7750 O   0  0  0  0  0  0  0  0  0  0  0  0
    0.8240    5.9370   -3.1960 O   0  0  0  0  0  0  0  0  0  0  0  0
    2.0560   -0.8180    0.1190 C   0  0  0  0  0  0  0  0  0  0  0  0
    3.1220   -0.8560   -0.6180 O   0  0  0  0  0  0  0  0  0  0  0  0
    3.7180    4.3220    0.0020 C   0  0  0  0  0  0  0  0  0  0  0  0
    4.2220    5.3030   -0.9230 C   0  0  0  0  0  0  0  0  0  0  0  0
  1  2  2  0
  2  3  1  0
  3  4  1  0
  3 43  2  3
  4  5  2  3
  5  6  1  0
  6  7  2  0
  6 41  1  0
  7  8  1  0
  8  9  2  0
  9 10  1  0
  9 11  1  0
 11 12  2  0
 11 13  1  0
 13 14  1  0
 13 15  1  0
 15 16  2  0
 15 17  1  0
 17 18  1  0
 18 19  1  1
 18 28  1  0
 18 30  1  0
 19 20  1  0
 20 21  1  0
 21 22  1  0
 21 28  1  0
 22 23  2  0
 22 24  1  0
 24 25  1  0
 25 26  1  6
 25 27  1  0
 27 28  1  0
 28 29  1  6
 30 31  1  0
 31 32  1  0
 31 41  1  0
 32 33  2  0
 32 34  1  0
 34 35  1  0
 35 36  1  0
 36 37  1  0
 37 38  1  0
 38 39  1  0
 38 40  1  0
 41 42  2  0
 43 44  1  0
M  END
