
     RDKit          3D

 43 46  0  0  0  0  0  0  0  0999 V2000
    6.3050   -0.4330    0.5440 O   0  0  0  0  0  0  0  0  0  0  0  0
    5.4400    0.1610    1.2640 C   0  0  0  0  0  0  0  0  0  0  0  0
    5.7850    0.8080    2.4460 O   0  0  0  0  0  0  0  0  0  0  0  0
    4.1020    0.1230    0.7860 N   0  0  0  0  0  0  0  0  0  0  0  0
    3.7070   -0.5380   -0.4300 C   0  0  0  0  0  0  0  0  0  0  0  0
    2.2170   -0.3650   -0.6130 C   0  0  1  0  0  0  0  0  0  0  0  0
    1.9810    1.1450   -0.6290 C   0  0  0  0  0  0  0  0  0  0  0  0
    0.8490    1.4310   -1.5390 C   0  0  0  0  0  0  0  0  0  0  0  0
    0.1500    2.7610   -1.3100 C   0  0  2  0  0  0  0  0  0  0  0  0
    0.9540    3.8780   -1.6650 N   0  0  0  0  0  0  0  0  0  0  0  0
    0.6070    4.7400   -2.7330 C   0  0  0  0  0  0  0  0  0  0  0  0
   -0.4390    4.4920   -3.3630 O   0  0  0  0  0  0  0  0  0  0  0  0
    1.3540    5.8350   -3.1170 O   0  0  0  0  0  0  0  0  0  0  0  0
   -0.4960    2.8630    0.0160 C   0  0  0  0  0  0  0  0  0  0  0  0
    0.2640    3.0220    1.0090 O   0  0  0  0  0  0  0  0  0  0  0  0
   -1.8900    2.7960    0.2640 N   0  0  0  0  0  0  0  0  0  0  0  0
   -2.8670    2.0400   -0.4630 C   0  0  0  0  0  0  0  0  0  0  0  0
   -3.2940    0.7530    0.1670 C   0  0  1  0  0  0  0  0  0  0  0  0
   -3.9210   -0.2030   -0.8650 C   0  0  0  0  0  0  0  0  0  0  0  0
   -2.8450   -0.6480   -1.7670 C   0  0  0  0  0  0  0  0  0  0  0  0
   -2.7270    0.0130   -2.8590 O   0  0  0  0  0  0  0  0  0  0  0  0
   -1.9430   -1.7100   -1.5560 N   0  0  0  0  0  0  0  0  0  0  0  0
   -2.2530   -3.0900   -1.2780 C   0  0  0  0  0  0  0  0  0  0  0  0
   -0.9800   -3.9290   -1.5050 C   0  0  0  0  0  0  0  0  0  0  0  0
   -0.3000   -3.3130   -2.6220 N   0  0  0  0  0  0  0  0  0  0  0  0
    1.0690   -3.0260   -2.7400 C   0  0  0  0  0  0  0  0  0  0  0  0
    1.6660   -3.4050   -3.8130 O   0  0  0  0  0  0  0  0  0  0  0  0
    1.9160   -2.3220   -1.7500 C   0  0  0  0  0  0  0  0  0  0  0  0
    1.7460   -0.9670   -1.7480 O   0  0  0  0  0  0  0  0  0  0  0  0
   -2.2070   -0.0060    0.8310 C   0  0  0  0  0  0  0  0  0  0  0  0
   -2.1250    0.5500    2.2100 C   0  0  1  0  0  0  0  0  0  0  0  0
   -3.5360    1.1090    2.3810 C   0  0  0  0  0  0  0  0  0  0  0  0
   -4.2060    0.9620    1.2020 O   0  0  0  0  0  0  0  0  0  0  0  0
   -1.9450   -0.4120    3.2050 O   0  0  0  0  0  0  0  0  0  0  0  0
   -1.1450   -1.5280    3.2170 C   0  0  0  0  0  0  0  0  0  0  0  0
   -1.5180   -2.8440    3.4020 C   0  0  0  0  0  0  0  0  0  0  0  0
   -0.3880   -3.6190    3.3350 N   0  0  0  0  0  0  0  0  0  0  0  0
    0.6040   -2.8470    3.1250 O   0  0  0  0  0  0  0  0  0  0  0  0
    0.2180   -1.5680    3.0440 C   0  0  0  0  0  0  0  0  0  0  0  0
    1.0940   -0.3950    2.8100 C   0  0  2  0  0  0  0  0  0  0  0  0
    0.7950    0.6280    3.7130 O   0  0  0  0  0  0  0  0  0  0  0  0
    1.1410    0.0460    1.5090 O   0  0  0  0  0  0  0  0  0  0  0  0
    1.5030   -0.9310    0.5870 C   0  0  0  0  0  0  0  0  0  0  0  0
  1  2  2  0
  2  3  1  0
  2  4  1  0
  4  5  1  0
  6  5  1  1
  6  7  1  0
  6 29  1  0
  6 43  1  0
  7  8  1  0
  8  9  1  0
  9 10  1  1
  9 14  1  0
 10 11  1  0
 11 12  2  0
 11 13  1  0
 14 15  2  0
 14 16  1  0
 16 17  1  0
 17 18  1  0
 18 19  1  6
 18 30  1  0
 18 33  1  0
 19 20  1  0
 20 21  2  0
 20 22  1  0
 22 23  1  0
 23 24  1  0
 24 25  1  0
 25 26  1  0
 26 27  2  0
 26 28  1  0
 28 29  1  0
 30 31  1  0
 31 32  1  1
 31 34  1  0
 32 33  1  0
 34 35  1  0
 35 36  1  0
 35 39  2  0
 36 37  2  0
 37 38  1  0
 38 39  1  0
 39 40  1  0
 40 41  1  1
 40 42  1  0
 42 43  1  0
M  END
