
     RDKit          3D

 44 46  0  0  0  0  0  0  0  0999 V2000
   -4.9040   -4.6120   -1.6600 C   0  0  0  0  0  0  0  0  0  0  0  0
   -3.8400   -3.5480   -1.5910 C   0  0  0  0  0  0  0  0  0  0  0  0
   -4.4880   -2.2700   -1.8430 O   0  0  0  0  0  0  0  0  0  0  0  0
   -4.3980   -1.3300   -0.5230 P   0  0  0  0  0  0  0  0  0  0  0  0
   -4.5260   -2.5090    0.8740 O   0  0  0  0  0  0  0  0  0  0  0  0
   -3.1100   -0.1530    0.0190 C   0  0  2  0  0  0  0  0  0  0  0  0
   -1.7970   -0.4960   -0.4230 N   0  0  0  0  0  0  0  0  0  0  0  0
   -1.1820   -0.3870   -1.6600 C   0  0  0  0  0  0  0  0  0  0  0  0
   -0.8110   -1.5290   -2.2200 O   0  0  0  0  0  0  0  0  0  0  0  0
   -0.8270    0.7160   -2.5600 C   0  0  2  0  0  0  0  0  0  0  0  0
   -1.2520    0.2620   -3.8700 O   0  0  0  0  0  0  0  0  0  0  0  0
    0.6810    0.8370   -2.7480 C   0  0  0  0  0  0  0  0  0  0  0  0
    1.5030    0.0270   -1.8060 C   0  0  0  0  0  0  0  0  0  0  0  0
    2.3970    0.8920   -1.1610 O   0  0  0  0  0  0  0  0  0  0  0  0
    3.5140    0.6760   -0.4680 C   0  0  0  0  0  0  0  0  0  0  0  0
    4.0670    1.6460    0.1530 O   0  0  0  0  0  0  0  0  0  0  0  0
    4.2130   -0.6650   -0.3460 C   0  0  1  0  0  0  0  0  0  0  0  0
    5.1090   -0.7040   -1.5460 C   0  0  0  0  0  0  0  0  0  0  0  0
    5.9410   -1.9240   -1.6910 C   0  0  0  0  0  0  0  0  0  0  0  0
    6.8400   -2.0970   -0.6490 O   0  0  0  0  0  0  0  0  0  0  0  0
    4.9530   -0.6200    0.9360 C   0  0  0  0  0  0  0  0  0  0  0  0
    4.9380   -1.8180    1.8010 C   0  0  0  0  0  0  0  0  0  0  0  0
    3.7770   -2.7240    1.6830 C   0  0  0  0  0  0  0  0  0  0  0  0
    2.5880   -2.6430    2.1700 C   0  0  0  0  0  0  0  0  0  0  0  0
    1.8430   -1.6920    3.0070 C   0  0  0  0  0  0  0  0  0  0  0  0
    1.0660   -0.8160    2.6090 N   0  0  0  0  0  0  0  0  0  0  0  0
    0.1920    0.2050    2.6650 C   0  0  0  0  0  0  0  0  0  0  0  0
    0.1910    1.5170    2.9500 C   0  0  0  0  0  0  0  0  0  0  0  0
   -0.8930    2.4320    2.9640 C   0  0  0  0  0  0  0  0  0  0  0  0
   -1.6390    3.1130    2.1550 C   0  0  0  0  0  0  0  0  0  0  0  0
   -1.6440    3.2230    0.6930 C   0  0  0  0  0  0  0  0  0  0  0  0
   -0.5410    4.1670    0.1840 C   0  0  0  0  0  0  0  0  0  0  0  0
    0.0830    3.3980   -0.9720 C   0  0  0  0  0  0  0  0  0  0  0  0
   -0.8860    3.2430   -2.0520 N   0  0  0  0  0  0  0  0  0  0  0  0
   -1.2260    4.4930   -2.7480 C   0  0  0  0  0  0  0  0  0  0  0  0
   -1.4850    2.0050   -2.4190 C   0  0  0  0  0  0  0  0  0  0  0  0
   -2.7450    2.1000   -2.6520 O   0  0  0  0  0  0  0  0  0  0  0  0
   -1.1110   -0.3250    2.3250 O   0  0  0  0  0  0  0  0  0  0  0  0
   -2.3900   -0.2570    2.5630 C   0  0  0  0  0  0  0  0  0  0  0  0
   -3.0000   -0.3080    3.8100 C   0  0  0  0  0  0  0  0  0  0  0  0
   -4.2770   -0.2580    4.1580 N   0  0  0  0  0  0  0  0  0  0  0  0
   -5.1640   -0.1410    3.1150 C   0  0  0  0  0  0  0  0  0  0  0  0
   -4.6470   -0.0830    1.8520 C   0  0  0  0  0  0  0  0  0  0  0  0
   -3.3020   -0.1360    1.5140 C   0  0  0  0  0  0  0  0  0  0  0  0
  1  2  1  0
  2  3  1  0
  3  4  1  0
  4  5  1  0
  6  4  1  6
  6  7  1  0
  6 44  1  0
  7  8  1  0
  8  9  2  0
  8 10  1  0
 10 11  1  6
 10 12  1  0
 10 36  1  0
 12 13  1  0
 13 14  1  0
 14 15  1  0
 15 16  2  0
 15 17  1  0
 17 18  1  6
 17 21  1  0
 18 19  1  0
 19 20  1  0
 21 22  1  0
 22 23  1  0
 23 24  2  0
 24 25  1  0
 25 26  2  0
 26 27  1  0
 27 28  2  0
 27 38  1  0
 28 29  1  0
 29 30  2  0
 30 31  1  0
 31 32  1  0
 32 33  1  0
 33 34  1  0
 34 35  1  0
 34 36  1  0
 36 37  2  0
 38 39  1  0
 39 40  2  0
 39 44  1  0
 40 41  1  0
 41 42  2  0
 42 43  1  0
 43 44  2  0
M  END
