
     RDKit          3D

 44 46  0  0  0  0  0  0  0  0999 V2000
   -2.4170    2.4030   -3.2380 C   0  0  0  0  0  0  0  0  0  0  0  0
   -1.8530    2.3230   -1.9730 O   0  0  0  0  0  0  0  0  0  0  0  0
   -0.7750    1.4750   -1.9970 C   0  0  2  0  0  0  0  0  0  0  0  0
   -0.8650    0.2920   -1.1420 C   0  0  0  0  0  0  0  0  0  0  0  0
   -0.2630    0.4160    0.2770 C   0  0  2  0  0  0  0  0  0  0  0  0
   -1.2320    1.2070    1.0430 C   0  0  0  0  0  0  0  0  0  0  0  0
   -2.0710    0.5160    1.7450 O   0  0  0  0  0  0  0  0  0  0  0  0
   -1.5110    2.5830    1.2280 N   0  0  0  0  0  0  0  0  0  0  0  0
   -2.7930    2.9850    1.7700 C   0  0  0  0  0  0  0  0  0  0  0  0
   -3.8420    3.2200    0.7170 C   0  0  0  0  0  0  0  0  0  0  0  0
   -3.4300    4.2340   -0.1440 O   0  0  0  0  0  0  0  0  0  0  0  0
   -4.2890    4.4900   -1.0790 O   0  0  0  0  0  0  0  0  0  0  0  0
   -0.5720    3.6290    0.9130 C   0  0  0  0  0  0  0  0  0  0  0  0
   -1.0420    4.7720    0.7950 O   0  0  0  0  0  0  0  0  0  0  0  0
    0.8470    3.5060    0.7170 N   0  0  0  0  0  0  0  0  0  0  0  0
    1.6240    4.7320    0.7360 C   0  0  0  0  0  0  0  0  0  0  0  0
    1.4830    2.2670    0.5150 C   0  0  0  0  0  0  0  0  0  0  0  0
    2.7450    2.3330    0.7750 O   0  0  0  0  0  0  0  0  0  0  0  0
    1.1170    0.9150    0.0900 C   0  0  2  0  0  0  0  0  0  0  0  0
    1.3180    1.0980   -1.4520 C   0  0  0  0  0  0  0  0  0  0  0  0
    0.4400    2.1270   -1.7810 O   0  0  0  0  0  0  0  0  0  0  0  0
    2.1060   -0.1050    0.3610 N   0  0  0  0  0  0  0  0  0  0  0  0
    3.2150   -0.4440    1.0700 C   0  0  0  0  0  0  0  0  0  0  0  0
    3.0740   -0.3370    2.3830 O   0  0  0  0  0  0  0  0  0  0  0  0
    4.4830   -0.8860    0.7120 O   0  0  0  0  0  0  0  0  0  0  0  0
    4.9680   -2.1600    0.3520 C   0  0  0  0  0  0  0  0  0  0  0  0
    5.9260   -2.1220   -0.5880 C   0  0  0  0  0  0  0  0  0  0  0  0
    6.4360   -0.9250   -1.1940 C   0  0  0  0  0  0  0  0  0  0  0  0
    5.9340    0.3760   -0.8220 N   0  0  0  0  0  0  0  0  0  0  0  0
    7.3330   -0.9190   -2.0720 O   0  0  0  0  0  0  0  0  0  0  0  0
    4.5260   -3.4270    0.9020 C   0  0  0  0  0  0  0  0  0  0  0  0
    3.3700   -4.0170    0.9810 C   0  0  0  0  0  0  0  0  0  0  0  0
    3.3230   -5.3040    1.6190 O   0  0  0  0  0  0  0  0  0  0  0  0
    2.0220   -3.6290    0.5270 C   0  0  0  0  0  0  0  0  0  0  0  0
    1.2120   -2.8440    1.5230 C   0  0  0  0  0  0  0  0  0  0  0  0
    0.3860   -1.9370    1.2710 N   0  0  0  0  0  0  0  0  0  0  0  0
   -0.4110   -1.0390    0.7590 C   0  0  0  0  0  0  0  0  0  0  0  0
   -1.6880   -1.3060    0.5710 N   0  0  0  0  0  0  0  0  0  0  0  0
   -2.4360   -2.4140    0.7970 C   0  0  0  0  0  0  0  0  0  0  0  0
   -3.6550   -2.3360    1.2980 C   0  0  0  0  0  0  0  0  0  0  0  0
   -4.5070   -3.5250    1.5610 C   0  0  0  0  0  0  0  0  0  0  0  0
   -5.6850   -3.4090    0.7960 O   0  0  0  0  0  0  0  0  0  0  0  0
   -6.4540   -4.4370    1.0040 O   0  0  0  0  0  0  0  0  0  0  0  0
   -6.2940   -5.3000    0.0150 O   0  0  0  0  0  0  0  0  0  0  0  0
  1  2  1  0
  3  2  1  1
  3  4  1  0
  3 21  1  0
  5  4  1  6
  5  6  1  0
  5 19  1  0
  5 37  1  0
  6  7  2  0
  6  8  1  0
  8  9  1  0
  8 13  1  0
  9 10  1  0
 10 11  1  0
 11 12  1  0
 13 14  2  0
 13 15  1  0
 15 16  1  0
 15 17  1  0
 17 18  2  0
 17 19  1  0
 19 20  1  6
 19 22  1  0
 20 21  1  0
 22 23  1  0
 23 24  2  0
 23 25  1  0
 25 26  1  0
 26 27  2  3
 26 31  1  0
 27 28  1  0
 28 29  1  0
 28 30  2  0
 31 32  2  0
 32 33  1  0
 32 34  1  0
 34 35  1  0
 35 36  2  0
 36 37  1  0
 37 38  2  3
 38 39  1  0
 39 40  2  3
 40 41  1  0
 41 42  1  0
 42 43  1  0
 43 44  1  0
M  END
