
     RDKit          3D

 44 45  0  0  0  0  0  0  0  0999 V2000
    1.3320    5.0590    0.7640 C   0  0  0  0  0  0  0  0  0  0  0  0
    1.4300    3.8710    1.6180 C   0  0  0  0  0  0  0  0  0  0  0  0
    1.9660    2.6910    1.2410 C   0  0  0  0  0  0  0  0  0  0  0  0
    2.4970    2.5400   -0.0980 C   0  0  0  0  0  0  0  0  0  0  0  0
    3.7180    2.1990   -0.4810 C   0  0  0  0  0  0  0  0  0  0  0  0
    3.8200    2.1680   -1.9250 O   0  0  0  0  0  0  0  0  0  0  0  0
    4.8870    1.8770    0.2880 C   0  0  0  0  0  0  0  0  0  0  0  0
    5.4280    0.8450    0.8190 C   0  0  0  0  0  0  0  0  0  0  0  0
    5.0230   -0.5860    0.8470 C   0  0  0  0  0  0  0  0  0  0  0  0
    5.4900   -1.3200    1.8370 C   0  0  0  0  0  0  0  0  0  0  0  0
    5.2940   -2.7150    2.1740 C   0  0  0  0  0  0  0  0  0  0  0  0
    4.2500   -1.2640   -0.1230 N   0  0  0  0  0  0  0  0  0  0  0  0
    2.9250   -0.9520   -0.5160 C   0  0  0  0  0  0  0  0  0  0  0  0
    1.9840   -2.0890   -0.7600 C   0  0  2  0  0  0  0  0  0  0  0  0
    2.0060   -3.2220    0.1870 C   0  0  0  0  0  0  0  0  0  0  0  0
    0.9390   -4.2280   -0.2850 C   0  0  0  0  0  0  0  0  0  0  0  0
    0.9270   -5.3340    0.5960 O   0  0  0  0  0  0  0  0  0  0  0  0
    2.3890   -2.6580   -2.1310 C   0  0  0  0  0  0  0  0  0  0  0  0
    3.2820   -3.7610   -1.8450 N   0  0  0  0  0  0  0  0  0  0  0  0
    4.6200   -3.3550   -1.7120 C   0  0  0  0  0  0  0  0  0  0  0  0
    4.9850   -2.3590   -0.7330 C   0  0  0  0  0  0  0  0  0  0  0  0
    6.1890   -2.4490   -0.3180 O   0  0  0  0  0  0  0  0  0  0  0  0
    0.6420   -1.5090   -0.9090 C   0  0  0  0  0  0  0  0  0  0  0  0
    0.3370   -1.0340   -2.0350 O   0  0  0  0  0  0  0  0  0  0  0  0
   -0.3530   -1.4330    0.1110 N   0  0  0  0  0  0  0  0  0  0  0  0
   -1.7380   -1.4780   -0.3560 C   0  0  0  0  0  0  0  0  0  0  0  0
   -2.3170   -0.1740   -0.6730 C   0  0  0  0  0  0  0  0  0  0  0  0
   -1.6040    0.8580   -0.5360 O   0  0  0  0  0  0  0  0  0  0  0  0
   -3.6520   -0.1040   -1.1220 N   0  0  0  0  0  0  0  0  0  0  0  0
   -4.4240   -1.3120   -1.2620 C   0  0  0  0  0  0  0  0  0  0  0  0
   -4.2380    1.1770   -1.4370 C   0  0  0  0  0  0  0  0  0  0  0  0
   -5.0520    1.9260    0.0520 P   0  0  0  0  0  0  0  0  0  0  0  0
   -5.8590    3.3920   -0.4210 O   0  0  0  0  0  0  0  0  0  0  0  0
   -6.0400    3.4280   -1.8150 C   0  0  0  0  0  0  0  0  0  0  0  0
   -6.7410    4.7100   -2.1790 C   0  0  0  0  0  0  0  0  0  0  0  0
   -6.2610    0.8680    0.6980 O   0  0  0  0  0  0  0  0  0  0  0  0
   -6.6860    1.2840    1.9560 C   0  0  0  0  0  0  0  0  0  0  0  0
   -7.7330    0.3870    2.5370 C   0  0  0  0  0  0  0  0  0  0  0  0
   -0.1370   -1.3420    1.4940 C   0  0  0  0  0  0  0  0  0  0  0  0
   -0.7670   -2.2340    2.2020 O   0  0  0  0  0  0  0  0  0  0  0  0
    0.6600   -0.4390    2.2820 C   0  0  0  0  0  0  0  0  0  0  0  0
    1.5940   -0.9630    2.9900 O   0  0  0  0  0  0  0  0  0  0  0  0
    0.5590    1.0160    2.3960 C   0  0  0  0  0  0  0  0  0  0  0  0
    1.9210    1.6370    2.2940 C   0  0  0  0  0  0  0  0  0  0  0  0
  1  2  1  0
  2  3  2  3
  3  4  1  0
  3 44  1  0
  4  5  2  0
  5  6  1  0
  5  7  1  0
  7  8  2  0
  8  9  1  0
  9 10  2  3
  9 12  1  0
 10 11  1  0
 12 13  1  0
 12 21  1  0
 13 14  1  0
 14 15  1  1
 14 18  1  0
 14 23  1  0
 15 16  1  0
 16 17  1  0
 18 19  1  0
 19 20  1  0
 20 21  1  0
 21 22  2  0
 23 24  2  0
 23 25  1  0
 25 26  1  0
 25 39  1  0
 26 27  1  0
 27 28  2  0
 27 29  1  0
 29 30  1  0
 29 31  1  0
 31 32  1  0
 32 33  1  0
 32 36  1  0
 33 34  1  0
 34 35  1  0
 36 37  1  0
 37 38  1  0
 39 40  2  0
 39 41  1  0
 41 42  2  0
 41 43  1  0
 43 44  1  0
M  END
