
     RDKit          3D

 43 47  0  0  0  0  0  0  0  0999 V2000
   -1.7050    2.5700   -1.4810 O   0  0  0  0  0  0  0  0  0  0  0  0
   -1.2430    2.7540   -0.3250 C   0  0  0  0  0  0  0  0  0  0  0  0
   -0.0560    1.9380    0.0300 C   0  0  0  0  0  0  0  0  0  0  0  0
    0.4660    1.2200   -1.1910 C   0  0  1  0  0  0  0  0  0  0  0  0
    1.8380    1.3000   -1.2440 O   0  0  0  0  0  0  0  0  0  0  0  0
    2.3810    0.1210   -0.8980 N   0  0  0  0  0  0  0  0  0  0  0  0
    3.7990   -0.1180   -0.8840 C   0  0  0  0  0  0  0  0  0  0  0  0
    4.5170    0.8510   -1.2200 O   0  0  0  0  0  0  0  0  0  0  0  0
    4.3150   -1.4490   -0.4890 C   0  0  0  0  0  0  0  0  0  0  0  0
    5.6090   -1.6570   -0.3520 O   0  0  0  0  0  0  0  0  0  0  0  0
    6.4140   -1.1990    0.5920 C   0  0  0  0  0  0  0  0  0  0  0  0
    6.5610    0.2760    0.7970 C   0  0  0  0  0  0  0  0  0  0  0  0
    7.5820    0.5100    1.9280 C   0  0  0  0  0  0  0  0  0  0  0  0
    8.7760   -0.0660    1.5090 O   0  0  0  0  0  0  0  0  0  0  0  0
    9.7440    0.0590    2.3830 O   0  0  0  0  0  0  0  0  0  0  0  0
   10.8810    0.2350    1.7230 O   0  0  0  0  0  0  0  0  0  0  0  0
    1.3610   -0.8130   -0.5710 C   0  0  0  0  0  0  0  0  0  0  0  0
    1.4880   -1.8280    0.1120 O   0  0  0  0  0  0  0  0  0  0  0  0
    0.1610   -0.2250   -1.2670 C   0  0  2  0  0  0  0  0  0  0  0  0
    0.2690   -0.6700   -2.7210 C   0  0  0  0  0  0  0  0  0  0  0  0
   -0.3100   -1.9790   -2.8460 O   0  0  0  0  0  0  0  0  0  0  0  0
   -1.6840   -2.0360   -2.5420 C   0  0  0  0  0  0  0  0  0  0  0  0
   -2.3680   -2.9660   -2.9890 O   0  0  0  0  0  0  0  0  0  0  0  0
   -2.1770   -0.9280   -1.6850 C   0  0  2  0  0  0  0  0  0  0  0  0
   -1.1150   -0.6620   -0.6340 C   0  0  0  0  0  0  0  0  0  0  0  0
   -3.4480   -1.2640   -1.0890 N   0  0  0  0  0  0  0  0  0  0  0  0
   -3.6560   -2.3900   -0.2700 C   0  0  0  0  0  0  0  0  0  0  0  0
   -4.8540   -2.6650    0.2590 N   0  0  0  0  0  0  0  0  0  0  0  0
   -5.0390   -3.7590    1.0510 C   0  0  0  0  0  0  0  0  0  0  0  0
   -3.9780   -4.5900    1.3050 C   0  0  0  0  0  0  0  0  0  0  0  0
   -2.7830   -4.2980    0.7640 N   0  0  0  0  0  0  0  0  0  0  0  0
   -2.6460   -3.2190   -0.0020 N   0  0  0  0  0  0  0  0  0  0  0  0
   -4.6070   -0.3920   -1.3370 C   0  0  0  0  0  0  0  0  0  0  0  0
   -4.6610    0.5880   -0.2320 C   0  0  2  0  0  0  0  0  0  0  0  0
   -4.2430    0.1050    1.0130 O   0  0  0  0  0  0  0  0  0  0  0  0
   -3.8410    1.2170    1.8030 C   0  0  0  0  0  0  0  0  0  0  0  0
   -4.6770    2.4530    1.3910 C   0  0  0  0  0  0  0  0  0  0  0  0
   -4.0450    3.5640    1.3270 C   0  0  0  0  0  0  0  0  0  0  0  0
   -2.5630    3.5660    1.6630 C   0  0  0  0  0  0  0  0  0  0  0  0
   -1.7700    3.6240    0.5430 O   0  0  0  0  0  0  0  0  0  0  0  0
   -6.0260    2.0320    1.1570 N   0  0  0  0  0  0  0  0  0  0  0  0
   -6.0300    1.1590   -0.0090 C   0  0  0  0  0  0  0  0  0  0  0  0
   -7.0240    0.9310   -0.7060 O   0  0  0  0  0  0  0  0  0  0  0  0
  1  2  2  0
  2  3  1  0
  2 40  1  0
  4  3  1  1
  4  5  1  0
  4 19  1  0
  5  6  1  0
  6  7  1  0
  6 17  1  0
  7  8  2  0
  7  9  1  0
  9 10  1  0
 10 11  1  0
 11 12  1  0
 12 13  1  0
 13 14  1  0
 14 15  1  0
 15 16  1  0
 17 18  2  0
 17 19  1  0
 19 20  1  6
 19 25  1  0
 20 21  1  0
 21 22  1  0
 22 23  2  0
 22 24  1  0
 24 25  1  0
 24 26  1  1
 26 27  1  0
 26 33  1  0
 27 28  2  0
 27 32  1  0
 28 29  1  0
 29 30  2  0
 30 31  1  0
 31 32  2  0
 34 33  1  6
 34 35  1  0
 34 42  1  0
 35 36  1  0
 36 37  1  0
 37 38  2  0
 37 41  1  0
 38 39  1  0
 39 40  1  0
 41 42  1  0
 42 43  2  0
M  END
