
     RDKit          3D

 44 47  0  0  0  0  0  0  0  0999 V2000
    3.8950   -2.6720   -4.2330 C   0  0  0  0  0  0  0  0  0  0  0  0
    4.6840   -2.3360   -3.2400 C   0  0  0  0  0  0  0  0  0  0  0  0
    5.9360   -2.9780   -3.2620 O   0  0  0  0  0  0  0  0  0  0  0  0
    4.3840   -1.3990   -2.1550 C   0  0  0  0  0  0  0  0  0  0  0  0
    5.2890   -1.1670   -1.2390 C   0  0  0  0  0  0  0  0  0  0  0  0
    6.6390   -1.7020   -1.0780 C   0  0  0  0  0  0  0  0  0  0  0  0
    6.6990   -2.3770    0.1810 O   0  0  0  0  0  0  0  0  0  0  0  0
    3.0790   -0.7890   -2.1170 C   0  0  0  0  0  0  0  0  0  0  0  0
    2.3090   -1.1230   -3.1660 O   0  0  0  0  0  0  0  0  0  0  0  0
    2.3730    0.0690   -1.2770 N   0  0  0  0  0  0  0  0  0  0  0  0
    2.8720    0.6370   -0.0570 C   0  0  0  0  0  0  0  0  0  0  0  0
    2.7920   -0.2210    1.1640 C   0  0  0  0  0  0  0  0  0  0  0  0
    1.9970    0.2850    2.1920 O   0  0  0  0  0  0  0  0  0  0  0  0
    0.9410   -0.5680    2.4730 C   0  0  0  0  0  0  0  0  0  0  0  0
   -0.3960    0.0640    2.3310 C   0  0  0  0  0  0  0  0  0  0  0  0
   -1.0520    0.8970    3.0200 C   0  0  0  0  0  0  0  0  0  0  0  0
   -1.2620    1.7460    4.1430 N   0  0  0  0  0  0  0  0  0  0  0  0
   -2.4110    1.8860    4.7040 C   0  0  0  0  0  0  0  0  0  0  0  0
   -2.5080    2.7970    5.8710 C   0  0  0  0  0  0  0  0  0  0  0  0
   -1.7790    1.7840    1.8080 N   0  0  0  0  0  0  0  0  0  0  0  0
   -0.9400    2.0540    0.6940 C   0  0  2  0  0  0  0  0  0  0  0  0
   -0.1920    3.3870    1.1230 C   0  0  0  0  0  0  0  0  0  0  0  0
   -1.0480    4.5830    1.0210 C   0  0  0  0  0  0  0  0  0  0  0  0
   -1.4440    4.7450   -0.4480 C   0  0  0  0  0  0  0  0  0  0  0  0
   -2.1580    3.5070   -0.8030 C   0  0  0  0  0  0  0  0  0  0  0  0
   -1.2520    2.2210   -0.6910 C   0  0  1  0  0  0  0  0  0  0  0  0
    0.0850    2.8020   -1.2930 C   0  0  0  0  0  0  0  0  0  0  0  0
    0.6400    1.7080   -2.1240 C   0  0  2  0  0  0  0  0  0  0  0  0
    1.5870    2.1580   -3.0490 O   0  0  0  0  0  0  0  0  0  0  0  0
   -0.7140    1.5790   -2.8380 C   0  0  0  0  0  0  0  0  0  0  0  0
   -1.5820    1.3170   -1.7670 C   0  0  0  0  0  0  0  0  0  0  0  0
   -2.5970    0.3050   -2.0590 C   0  0  0  0  0  0  0  0  0  0  0  0
   -3.5540    0.7250   -2.9160 O   0  0  0  0  0  0  0  0  0  0  0  0
   -2.8660   -1.0220   -1.6920 N   0  0  0  0  0  0  0  0  0  0  0  0
   -4.2540   -1.4340   -1.4190 C   0  0  0  0  0  0  0  0  0  0  0  0
   -1.8860   -2.1210   -1.6020 C   0  0  0  0  0  0  0  0  0  0  0  0
   -1.9130   -2.8910    0.0560 P   0  0  0  0  0  0  0  0  0  0  0  0
   -2.4660   -4.5380    0.0330 O   0  0  0  0  0  0  0  0  0  0  0  0
   -2.9420   -4.8970    1.3140 C   0  0  0  0  0  0  0  0  0  0  0  0
   -3.4300   -6.3290    1.2760 C   0  0  0  0  0  0  0  0  0  0  0  0
   -2.7630   -2.0030    1.2080 O   0  0  0  0  0  0  0  0  0  0  0  0
   -2.4710   -0.7080    1.2670 C   0  0  0  0  0  0  0  0  0  0  0  0
   -1.0310   -0.5130    1.1270 O   0  0  0  0  0  0  0  0  0  0  0  0
    0.9710    0.3870   -1.6570 C   0  0  0  0  0  0  0  0  0  0  0  0
  1  2  2  0
  2  3  1  0
  2  4  1  0
  4  5  2  3
  4  8  1  0
  5  6  1  0
  6  7  1  0
  8  9  2  0
  8 10  1  0
 10 11  1  0
 10 44  1  0
 11 12  1  0
 12 13  1  0
 13 14  1  0
 14 15  1  0
 15 16  2  0
 15 43  1  0
 16 17  1  0
 16 20  1  0
 17 18  2  3
 18 19  1  0
 20 21  1  0
 21 22  1  1
 21 26  1  0
 22 23  1  0
 23 24  1  0
 24 25  1  0
 26 25  1  1
 26 27  1  0
 26 31  1  0
 27 28  1  0
 28 29  1  6
 28 30  1  0
 28 44  1  0
 30 31  2  0
 31 32  1  0
 32 33  2  0
 32 34  1  0
 34 35  1  0
 34 36  1  0
 36 37  1  0
 37 38  1  0
 37 41  1  0
 38 39  1  0
 39 40  1  0
 41 42  1  0
 42 43  1  0
M  END
