
     RDKit          3D

 20 21  0  0  0  0  0  0  0  0999 V2000
   -4.1180    2.2300    0.2190 C   0  0  0  0  0  0  0  0  0  0  0  0
   -3.6020    0.8190    0.2580 C   0  0  0  0  0  0  0  0  0  0  0  0
   -4.3860   -0.2030    0.5030 C   0  0  0  0  0  0  0  0  0  0  0  0
   -3.8680   -1.5690    0.5380 C   0  0  0  0  0  0  0  0  0  0  0  0
   -2.5290   -1.6330    0.2570 O   0  0  0  0  0  0  0  0  0  0  0  0
   -1.6440   -0.5990   -0.0040 C   0  0  0  0  0  0  0  0  0  0  0  0
   -0.2500   -0.9360   -0.2410 C   0  0  0  0  0  0  0  0  0  0  0  0
    0.0880   -2.2960   -0.3150 C   0  0  0  0  0  0  0  0  0  0  0  0
    1.3570   -2.7680   -0.5180 C   0  0  0  0  0  0  0  0  0  0  0  0
    1.7090   -4.6600   -0.6020 Br  0  0  0  0  0  0  0  0  0  0  0  0
    2.3770   -1.8610   -0.6600 C   0  0  0  0  0  0  0  0  0  0  0  0
    3.6500   -2.2740   -0.8620 F   0  0  0  0  0  0  0  0  0  0  0  0
    2.1090   -0.5150   -0.5960 C   0  0  0  0  0  0  0  0  0  0  0  0
    3.1770    0.4900   -0.7480 C   0  0  0  0  0  0  0  0  0  0  0  0
    4.0390    0.5530    0.5200 C   0  0  0  0  0  0  0  0  0  0  0  0
    5.0890    1.5780    0.3340 C   0  0  0  0  0  0  0  0  0  0  0  0
    4.8040    2.7380    0.0990 O   0  0  0  0  0  0  0  0  0  0  0  0
    0.7900   -0.0630   -0.3850 C   0  0  0  0  0  0  0  0  0  0  0  0
    0.6170    1.3470   -0.3200 N   0  0  0  0  0  0  0  0  0  0  0  0
   -2.1560    0.6040   -0.0080 C   0  0  0  0  0  0  0  0  0  0  0  0
  1  2  1  0
  2  3  2  0
  2 20  1  0
  3  4  1  0
  4  5  1  0
  5  6  1  0
  6  7  1  0
  6 20  2  0
  7  8  2  0
  7 18  1  0
  8  9  1  0
  9 10  1  0
  9 11  2  0
 11 12  1  0
 11 13  1  0
 13 14  1  0
 13 18  2  0
 14 15  1  0
 15 16  1  0
 16 17  2  0
 18 19  1  0
M  END
