
     RDKit          3D

 20 22  0  0  0  0  0  0  0  0999 V2000
   -3.2240    0.1330   -1.9380 O   0  0  0  0  0  0  0  0  0  0  0  0
   -3.0760    0.1570   -0.5540 C   0  0  1  0  0  0  0  0  0  0  0  0
   -1.6990    0.5340   -0.1370 C   0  0  0  0  0  0  0  0  0  0  0  0
   -0.6790   -0.3570   -0.6170 N   0  0  0  0  0  0  0  0  0  0  0  0
    0.6780   -0.0850   -0.2730 C   0  0  0  0  0  0  0  0  0  0  0  0
    1.0150    1.0050    0.5030 C   0  0  0  0  0  0  0  0  0  0  0  0
    2.3210    1.2220    0.8030 C   0  0  0  0  0  0  0  0  0  0  0  0
    3.3310    0.3920    0.3630 C   0  0  0  0  0  0  0  0  0  0  0  0
    4.6640    0.6230    0.6760 C   0  0  0  0  0  0  0  0  0  0  0  0
    4.9460    1.7050    1.4400 F   0  0  0  0  0  0  0  0  0  0  0  0
    5.6910   -0.1920    0.2480 C   0  0  0  0  0  0  0  0  0  0  0  0
    7.5170    0.1420    0.6900 Br  0  0  0  0  0  0  0  0  0  0  0  0
    5.3670   -1.2910   -0.5320 C   0  0  0  0  0  0  0  0  0  0  0  0
    4.0470   -1.5280   -0.8480 C   0  0  0  0  0  0  0  0  0  0  0  0
    3.0330   -0.6990   -0.4090 C   0  0  0  0  0  0  0  0  0  0  0  0
    1.7080   -0.9220   -0.7160 C   0  0  0  0  0  0  0  0  0  0  0  0
   -4.0310    1.2120    0.0020 C   0  0  0  0  0  0  0  0  0  0  0  0
   -4.8580    0.4730    1.0230 C   0  0  0  0  0  0  0  0  0  0  0  0
   -4.8430   -0.8390    0.5980 O   0  0  0  0  0  0  0  0  0  0  0  0
   -3.5830   -1.1010    0.0740 C   0  0  0  0  0  0  0  0  0  0  0  0
  2  1  1  6
  2  3  1  0
  2 17  1  0
  2 20  1  0
  3  4  1  0
  4  5  1  0
  5  6  2  0
  5 16  1  0
  6  7  1  0
  7  8  2  0
  8  9  1  0
  8 15  1  0
  9 10  1  0
  9 11  2  0
 11 12  1  0
 11 13  1  0
 13 14  2  0
 14 15  1  0
 15 16  2  0
 17 18  1  0
 18 19  1  0
 19 20  1  0
M  END
