
     RDKit          3D

 20 21  0  0  0  0  0  0  0  0999 V2000
    4.3510    0.7760   -0.1810 C   0  0  0  0  0  0  0  0  0  0  0  0
    3.2150    0.8320    0.8250 C   0  0  1  0  0  0  0  0  0  0  0  0
    2.4480    1.9740    0.6950 O   0  0  0  0  0  0  0  0  0  0  0  0
    2.3430   -0.3610    0.5560 C   0  0  0  0  0  0  0  0  0  0  0  0
    2.8890   -1.4690    0.6320 O   0  0  0  0  0  0  0  0  0  0  0  0
    0.9850   -0.2390    0.2340 N   0  0  0  0  0  0  0  0  0  0  0  0
    0.0710   -1.2940   -0.0410 C   0  0  0  0  0  0  0  0  0  0  0  0
    0.4580   -2.6060   -0.1550 C   0  0  0  0  0  0  0  0  0  0  0  0
   -0.4670   -3.6030   -0.4690 C   0  0  0  0  0  0  0  0  0  0  0  0
   -1.7890   -3.3200   -0.6760 C   0  0  0  0  0  0  0  0  0  0  0  0
   -2.6620   -4.3080   -0.9820 F   0  0  0  0  0  0  0  0  0  0  0  0
   -2.1530   -1.9980   -0.5570 C   0  0  0  0  0  0  0  0  0  0  0  0
   -1.2750   -0.9900   -0.2490 C   0  0  0  0  0  0  0  0  0  0  0  0
   -1.8220    0.3380   -0.1160 C   0  0  0  0  0  0  0  0  0  0  0  0
   -1.6100    1.0750    1.0180 C   0  0  0  0  0  0  0  0  0  0  0  0
   -2.1600    2.3520    1.1780 C   0  0  0  0  0  0  0  0  0  0  0  0
   -2.9300    2.8660    0.1640 C   0  0  0  0  0  0  0  0  0  0  0  0
   -3.1550    2.1470   -0.9770 C   0  0  0  0  0  0  0  0  0  0  0  0
   -2.5970    0.8780   -1.1140 C   0  0  0  0  0  0  0  0  0  0  0  0
   -2.9170   -0.0980   -2.7080 Br  0  0  0  0  0  0  0  0  0  0  0  0
  2  1  1  6
  2  3  1  0
  2  4  1  0
  4  5  2  0
  4  6  1  0
  6  7  1  0
  7  8  2  0
  7 13  1  0
  8  9  1  0
  9 10  2  0
 10 11  1  0
 10 12  1  0
 12 13  2  0
 13 14  1  0
 14 15  2  0
 14 19  1  0
 15 16  1  0
 16 17  2  0
 17 18  1  0
 18 19  2  0
 19 20  1  0
M  END
