
     RDKit          3D

 22 23  0  0  0  0  0  0  0  0999 V2000
   -0.4070    0.7370    3.4840 C   0  0  0  0  0  0  0  0  0  0  0  0
    0.1300    0.3650    2.1430 C   0  0  0  0  0  0  0  0  0  0  0  0
    1.4500    0.2130    2.0330 C   0  0  0  0  0  0  0  0  0  0  0  0
    2.0940   -0.1440    0.7980 C   0  0  0  0  0  0  0  0  0  0  0  0
    3.4360   -0.2830    0.7530 C   0  0  0  0  0  0  0  0  0  0  0  0
    4.2010   -0.6360   -0.4190 C   0  0  0  0  0  0  0  0  0  0  0  0
    3.6270   -0.8970   -1.7370 C   0  0  0  0  0  0  0  0  0  0  0  0
    5.5400   -0.7420   -0.3270 C   0  0  0  0  0  0  0  0  0  0  0  0
    6.4050   -1.0870   -1.4220 C   0  0  0  0  0  0  0  0  0  0  0  0
    7.6440   -1.1570   -1.2230 O   0  0  0  0  0  0  0  0  0  0  0  0
    5.9800   -1.3550   -2.7100 O   0  0  0  0  0  0  0  0  0  0  0  0
   -0.6500    0.1690    0.9590 C   0  0  0  0  0  0  0  0  0  0  0  0
   -1.9500    0.2700    0.8590 C   0  0  0  0  0  0  0  0  0  0  0  0
   -2.8400    0.6110    1.9850 C   0  0  0  0  0  0  0  0  0  0  0  0
   -4.2490    0.9460    1.4810 C   0  0  0  0  0  0  0  0  0  0  0  0
   -4.1790    1.6960    0.1760 C   0  0  0  0  0  0  0  0  0  0  0  0
   -3.6830    0.7460   -0.8350 C   0  0  0  0  0  0  0  0  0  0  0  0
   -4.2920    0.5720   -2.0590 C   0  0  0  0  0  0  0  0  0  0  0  0
   -3.7500   -0.3390   -2.9420 C   0  0  0  0  0  0  0  0  0  0  0  0
   -2.6120   -1.0550   -2.5780 C   0  0  0  0  0  0  0  0  0  0  0  0
   -2.0050   -0.8810   -1.3540 C   0  0  0  0  0  0  0  0  0  0  0  0
   -2.5500    0.0260   -0.4850 C   0  0  0  0  0  0  0  0  0  0  0  0
  1  2  1  0
  2  3  2  3
  2 12  1  0
  3  4  1  0
  4  5  2  3
  5  6  1  0
  6  7  1  0
  6  8  2  3
  8  9  1  0
  9 10  2  0
  9 11  1  0
 12 13  2  3
 13 14  1  0
 13 22  1  0
 14 15  1  0
 15 16  1  0
 16 17  1  0
 17 18  2  0
 17 22  1  0
 18 19  1  0
 19 20  2  0
 20 21  1  0
 21 22  2  0
M  END
