
     RDKit          3D

 20 21  0  0  0  0  0  0  0  0999 V2000
   -2.3450   -2.4350   -0.5570 C   0  0  0  0  0  0  0  0  0  0  0  0
   -3.2720   -1.3500   -0.2460 C   0  0  0  0  0  0  0  0  0  0  0  0
   -2.9740   -0.0430   -0.1380 C   0  0  0  0  0  0  0  0  0  0  0  0
   -4.0930    0.8190    0.1750 C   0  0  0  0  0  0  0  0  0  0  0  0
   -4.1760    2.0810    0.3960 C   0  0  0  0  0  0  0  0  0  0  0  0
   -3.1650    2.9340    0.3890 F   0  0  0  0  0  0  0  0  0  0  0  0
   -5.9130    2.8500    0.7770 Br  0  0  0  0  0  0  0  0  0  0  0  0
   -1.6090    0.4130   -0.2370 C   0  0  0  0  0  0  0  0  0  0  0  0
   -0.6020   -0.3610    0.3240 C   0  0  0  0  0  0  0  0  0  0  0  0
    0.7240   -0.0340    0.1520 C   0  0  0  0  0  0  0  0  0  0  0  0
    1.7160   -0.8360    0.7300 C   0  0  0  0  0  0  0  0  0  0  0  0
    3.0460   -0.5360    0.5780 C   0  0  0  0  0  0  0  0  0  0  0  0
    4.0400   -1.3100    1.1370 O   0  0  0  0  0  0  0  0  0  0  0  0
    5.3950   -1.0160    0.9900 C   0  0  0  0  0  0  0  0  0  0  0  0
    3.3780    0.5780   -0.1610 C   0  0  0  0  0  0  0  0  0  0  0  0
    2.4110    1.3850   -0.7420 C   0  0  0  0  0  0  0  0  0  0  0  0
    1.0760    1.0720   -0.5800 C   0  0  0  0  0  0  0  0  0  0  0  0
    0.0680    1.8250   -1.1270 C   0  0  0  0  0  0  0  0  0  0  0  0
    0.3790    2.8500   -1.8060 O   0  0  0  0  0  0  0  0  0  0  0  0
   -1.2250    1.5090   -0.9640 N   0  0  0  0  0  0  0  0  0  0  0  0
  1  2  1  0
  2  3  2  3
  3  4  1  0
  3  8  1  0
  4  5  2  3
  5  6  1  0
  5  7  1  0
  8  9  2  0
  8 20  1  0
  9 10  1  0
 10 11  2  0
 10 17  1  0
 11 12  1  0
 12 13  1  0
 12 15  2  0
 13 14  1  0
 15 16  1  0
 16 17  2  0
 17 18  1  0
 18 19  2  0
 18 20  1  0
M  END
