
     RDKit          3D

 19 20  0  0  0  0  0  0  0  0999 V2000
   -2.4180    3.3490   -0.6860 C   0  0  0  0  0  0  0  0  0  0  0  0
   -1.2020    2.4980   -0.5340 C   0  0  0  0  0  0  0  0  0  0  0  0
   -1.3330    1.1890   -0.6470 C   0  0  0  0  0  0  0  0  0  0  0  0
   -2.6640    0.6220   -0.9190 C   0  0  0  0  0  0  0  0  0  0  0  0
   -2.6420   -0.8690   -0.9290 C   0  0  0  0  0  0  0  0  0  0  0  0
   -3.4990   -1.4520   -1.6280 O   0  0  0  0  0  0  0  0  0  0  0  0
   -1.6540   -1.6070   -0.1500 C   0  0  0  0  0  0  0  0  0  0  0  0
   -2.0090   -2.9550    0.3870 C   0  0  0  0  0  0  0  0  0  0  0  0
   -3.0810   -2.9360    1.2360 O   0  0  0  0  0  0  0  0  0  0  0  0
   -0.4890   -1.0240    0.0320 C   0  0  0  0  0  0  0  0  0  0  0  0
   -0.1470    0.3210   -0.5130 C   0  0  2  0  0  0  0  0  0  0  0  0
    0.9050    0.8840    0.3020 N   0  0  0  0  0  0  0  0  0  0  0  0
    2.1730    0.2700    0.4200 C   0  0  0  0  0  0  0  0  0  0  0  0
    2.4870   -0.8230   -0.3590 C   0  0  0  0  0  0  0  0  0  0  0  0
    3.7180   -1.4330   -0.2450 C   0  0  0  0  0  0  0  0  0  0  0  0
    4.6480   -0.9580    0.6470 C   0  0  0  0  0  0  0  0  0  0  0  0
    4.3410    0.1280    1.4240 C   0  0  0  0  0  0  0  0  0  0  0  0
    5.6050    0.8260    2.6820 Br  0  0  0  0  0  0  0  0  0  0  0  0
    3.1150    0.7410    1.3160 C   0  0  0  0  0  0  0  0  0  0  0  0
  1  2  1  0
  2  3  2  3
  3  4  1  0
  3 11  1  0
  4  5  1  0
  5  6  2  0
  5  7  1  0
  7  8  1  0
  7 10  2  0
  8  9  1  0
 10 11  1  0
 11 12  1  1
 12 13  1  0
 13 14  2  0
 13 19  1  0
 14 15  1  0
 15 16  2  0
 16 17  1  0
 17 18  1  0
 17 19  2  0
M  END
