
     RDKit          3D

 23 22  0  0  0  0  0  0  0  0999 V2000
   -6.7920    1.6410   -0.6080 C   0  0  0  0  0  0  0  0  0  0  0  0
   -5.4330    1.0550   -0.2220 C   0  0  1  0  0  0  0  0  0  0  0  0
   -5.5660    0.5840    1.0820 O   0  0  0  0  0  0  0  0  0  0  0  0
   -5.1760   -0.1140   -1.1560 C   0  0  0  0  0  0  0  0  0  0  0  0
   -3.8400   -0.7770   -0.8590 C   0  0  0  0  0  0  0  0  0  0  0  0
   -3.6880   -1.8210   -1.7510 O   0  0  0  0  0  0  0  0  0  0  0  0
   -2.5720   -2.4750   -1.5960 O   0  0  0  0  0  0  0  0  0  0  0  0
   -1.5100   -1.6940   -1.4930 O   0  0  0  0  0  0  0  0  0  0  0  0
   -0.6540   -2.2830   -0.6390 O   0  0  0  0  0  0  0  0  0  0  0  0
    0.5630   -1.6320   -0.2980 C   0  0  0  0  0  0  0  0  0  0  0  0
    0.7620   -0.5230   -0.8300 O   0  0  0  0  0  0  0  0  0  0  0  0
    1.4710   -2.2270    0.5910 N   0  0  0  0  0  0  0  0  0  0  0  0
    2.6250   -1.7040    0.9700 O   0  0  0  0  0  0  0  0  0  0  0  0
    2.4510   -0.4630    1.5400 C   0  0  1  0  0  0  0  0  0  0  0  0
    2.2540   -0.7740    2.9530 O   0  0  0  0  0  0  0  0  0  0  0  0
    3.7120    0.3440    1.5450 C   0  0  0  0  0  0  0  0  0  0  0  0
    4.2170    0.5500    0.1830 C   0  0  0  0  0  0  0  0  0  0  0  0
    3.7060    0.0800   -0.8630 O   0  0  0  0  0  0  0  0  0  0  0  0
    5.3750    1.3310   -0.0540 O   0  0  0  0  0  0  0  0  0  0  0  0
    5.8310    1.5130   -1.3190 O   0  0  0  0  0  0  0  0  0  0  0  0
    7.2110    1.4510   -1.5640 C   0  0  0  0  0  0  0  0  0  0  0  0
    7.9750    1.6180   -0.5330 N   0  0  0  0  0  0  0  0  0  0  0  0
    7.7350    1.2270   -2.8300 O   0  0  0  0  0  0  0  0  0  0  0  0
  2  1  1  6
  2  3  1  0
  2  4  1  0
  4  5  1  0
  5  6  1  0
  6  7  1  0
  7  8  1  0
  8  9  1  0
  9 10  1  0
 10 11  2  0
 10 12  1  0
 12 13  1  0
 13 14  1  0
 14 15  1  1
 14 16  1  0
 16 17  1  0
 17 18  2  0
 17 19  1  0
 19 20  1  0
 20 21  1  0
 21 22  2  0
 21 23  1  0
M  END
