
     RDKit          3D

 23 24  0  0  0  0  0  0  0  0999 V2000
   -3.8020   -0.7900   -0.3940 C   0  0  0  0  0  0  0  0  0  0  0  0
   -2.6420   -1.0040    0.1800 C   0  0  0  0  0  0  0  0  0  0  0  0
   -2.4830   -2.0800    1.0340 O   0  0  0  0  0  0  0  0  0  0  0  0
   -3.2660   -3.1670    0.9310 O   0  0  0  0  0  0  0  0  0  0  0  0
   -2.7280   -3.9960   -0.0570 C   0  0  0  0  0  0  0  0  0  0  0  0
   -1.5680   -0.1430   -0.0720 N   0  0  0  0  0  0  0  0  0  0  0  0
   -1.1930    1.1500    0.4680 C   0  0  0  0  0  0  0  0  0  0  0  0
    0.1330    1.1130   -0.2170 C   0  0  1  0  0  0  0  0  0  0  0  0
    0.3310    2.2050   -1.0420 O   0  0  0  0  0  0  0  0  0  0  0  0
    0.2860    3.3410   -0.3920 O   0  0  0  0  0  0  0  0  0  0  0  0
    0.0070    3.1930    0.8820 O   0  0  0  0  0  0  0  0  0  0  0  0
   -0.5870    4.3830    1.3070 C   0  0  0  0  0  0  0  0  0  0  0  0
    1.2280    0.7770    0.5800 O   0  0  0  0  0  0  0  0  0  0  0  0
    2.2880    0.7980   -0.1910 O   0  0  0  0  0  0  0  0  0  0  0  0
    3.1650   -0.2380    0.1010 C   0  0  1  0  0  0  0  0  0  0  0  0
    3.3790   -0.9490   -1.0850 O   0  0  0  0  0  0  0  0  0  0  0  0
    4.2860   -1.8650   -0.9810 O   0  0  0  0  0  0  0  0  0  0  0  0
    5.4820   -1.3760   -0.6020 O   0  0  0  0  0  0  0  0  0  0  0  0
    5.5280   -0.4150    0.4260 C   0  0  0  0  0  0  0  0  0  0  0  0
    6.5250   -0.2850    1.1710 O   0  0  0  0  0  0  0  0  0  0  0  0
    4.3820    0.3740    0.5460 O   0  0  0  0  0  0  0  0  0  0  0  0
   -0.4160   -0.0920   -0.8970 C   0  0  0  0  0  0  0  0  0  0  0  0
    0.0190   -0.8290   -1.8940 C   0  0  0  0  0  0  0  0  0  0  0  0
  1  2  2  0
  2  3  1  0
  2  6  1  0
  3  4  1  0
  4  5  1  0
  6  7  1  0
  6 22  1  0
  7  8  1  0
  8  9  1  6
  8 13  1  0
  8 22  1  0
  9 10  1  0
 10 11  1  0
 11 12  1  0
 13 14  1  0
 15 14  1  6
 15 16  1  0
 15 21  1  0
 16 17  1  0
 17 18  1  0
 18 19  1  0
 19 20  2  0
 19 21  1  0
 22 23  2  0
M  END
