
     RDKit          3D

 21 21  0  0  0  0  0  0  0  0999 V2000
    6.4460   -0.7510    0.0800 C   0  0  0  0  0  0  0  0  0  0  0  0
    5.1890   -0.3140    0.0620 O   0  0  0  0  0  0  0  0  0  0  0  0
    4.7720    0.9010    0.1290 N   0  0  0  0  0  0  0  0  0  0  0  0
    3.4820    0.9480   -0.6080 C   0  0  0  0  0  0  0  0  0  0  0  0
    2.5540    1.2230    0.3510 O   0  0  0  0  0  0  0  0  0  0  0  0
    1.3200    1.2890   -0.0380 O   0  0  0  0  0  0  0  0  0  0  0  0
    0.5670    0.6580    0.9020 O   0  0  0  0  0  0  0  0  0  0  0  0
   -0.6770    0.3170    0.1860 C   0  0  2  0  0  0  0  0  0  0  0  0
   -1.6290    0.9560    0.8460 O   0  0  0  0  0  0  0  0  0  0  0  0
   -1.8200    2.1260    0.9610 O   0  0  0  0  0  0  0  0  0  0  0  0
   -2.3270    3.1180    0.2770 C   0  0  0  0  0  0  0  0  0  0  0  0
   -2.2510    4.4210    1.1010 C   0  0  0  0  0  0  0  0  0  0  0  0
   -0.9500    4.7240    1.4190 O   0  0  0  0  0  0  0  0  0  0  0  0
   -0.7090   -1.0910    0.3090 N   0  0  0  0  0  0  0  0  0  0  0  0
   -1.0660   -1.5590    1.5140 O   0  0  0  0  0  0  0  0  0  0  0  0
   -2.3250   -2.1660    1.4780 C   0  0  0  0  0  0  0  0  0  0  0  0
   -2.6050   -2.9490    0.2250 C   0  0  0  0  0  0  0  0  0  0  0  0
   -2.1380   -2.0610   -0.9620 C   0  0  2  0  0  0  0  0  0  0  0  0
   -2.3830   -2.7870   -2.2540 C   0  0  0  0  0  0  0  0  0  0  0  0
   -1.9510   -4.1140   -2.2220 O   0  0  0  0  0  0  0  0  0  0  0  0
   -0.7500   -1.9200   -0.6790 O   0  0  0  0  0  0  0  0  0  0  0  0
  1  2  1  0
  2  3  1  0
  3  4  1  0
  4  5  1  0
  5  6  1  0
  6  7  1  0
  8  7  1  1
  8  9  1  0
  8 14  1  0
  9 10  1  0
 10 11  1  0
 11 12  1  0
 12 13  1  0
 14 15  1  0
 14 21  1  0
 15 16  1  0
 16 17  1  0
 17 18  1  0
 18 19  1  6
 18 21  1  0
 19 20  1  0
M  END
