
     RDKit          3D

 23 24  0  0  0  0  0  0  0  0999 V2000
    7.4060    0.2210    0.6320 C   0  0  0  0  0  0  0  0  0  0  0  0
    6.6650    0.0950   -0.5530 O   0  0  0  0  0  0  0  0  0  0  0  0
    5.2960    1.1770   -0.5070 P   0  0  0  0  0  0  0  0  0  0  0  0
    4.6960    1.4760   -2.1010 O   0  0  0  0  0  0  0  0  0  0  0  0
    3.9910    0.4330   -2.4620 O   0  0  0  0  0  0  0  0  0  0  0  0
    2.9740    0.1000   -1.4990 C   0  0  0  0  0  0  0  0  0  0  0  0
    3.5070   -0.5560   -0.3880 N   0  0  0  0  0  0  0  0  0  0  0  0
    2.4860   -1.0040    0.4460 O   0  0  0  0  0  0  0  0  0  0  0  0
    1.8830    0.0900    0.8100 O   0  0  0  0  0  0  0  0  0  0  0  0
    0.4980   -0.0530    1.0420 C   0  0  0  0  0  0  0  0  0  0  0  0
   -0.0800   -0.2020   -0.3170 C   0  0  0  0  0  0  0  0  0  0  0  0
   -1.4690   -0.3040   -0.2670 N   0  0  0  0  0  0  0  0  0  0  0  0
   -2.2470    0.9620   -0.2000 C   0  0  0  0  0  0  0  0  0  0  0  0
   -3.6290    0.8100    0.4130 C   0  0  1  0  0  0  0  0  0  0  0  0
   -3.6120    0.6360    1.7670 O   0  0  0  0  0  0  0  0  0  0  0  0
   -4.2650    2.0180    0.1230 O   0  0  0  0  0  0  0  0  0  0  0  0
   -4.3680   -0.3410   -0.2250 C   0  0  2  0  0  0  0  0  0  0  0  0
   -5.5550   -0.7600    0.6800 C   0  0  0  0  0  0  0  0  0  0  0  0
   -6.7410   -0.2310    0.2820 O   0  0  0  0  0  0  0  0  0  0  0  0
   -3.5640   -1.5030   -0.2980 O   0  0  0  0  0  0  0  0  0  0  0  0
   -2.1770   -1.5090   -0.2760 C   0  0  0  0  0  0  0  0  0  0  0  0
   -1.5460   -2.6390   -0.3120 O   0  0  0  0  0  0  0  0  0  0  0  0
    4.0780    0.4040    0.4270 O   0  0  0  0  0  0  0  0  0  0  0  0
  1  2  1  0
  2  3  1  0
  3  4  1  0
  3 23  1  0
  4  5  1  0
  5  6  1  0
  6  7  1  0
  7  8  1  0
  7 23  1  0
  8  9  1  0
  9 10  1  0
 10 11  1  0
 11 12  1  0
 12 13  1  0
 12 21  1  0
 13 14  1  0
 14 15  1  1
 14 16  1  0
 14 17  1  0
 17 18  1  1
 17 20  1  0
 18 19  1  0
 20 21  1  0
 21 22  2  0
M  END
