
     RDKit          3D

 23 23  0  0  0  0  0  0  0  0999 V2000
    2.3690    3.6360   -0.7240 C   0  0  0  0  0  0  0  0  0  0  0  0
    2.6190    2.5590    0.1300 O   0  0  0  0  0  0  0  0  0  0  0  0
    1.9640    1.4880   -0.3190 O   0  0  0  0  0  0  0  0  0  0  0  0
    1.1460    0.6630    0.8800 P   0  0  0  0  0  0  0  0  0  0  0  0
    1.8320   -0.9070    1.4560 C   0  0  0  0  0  0  0  0  0  0  0  0
    2.8630   -1.3280    0.5170 N   0  0  0  0  0  0  0  0  0  0  0  0
    3.8130   -0.3190    0.2060 N   0  0  0  0  0  0  0  0  0  0  0  0
    4.1130   -0.2070   -0.9950 O   0  0  0  0  0  0  0  0  0  0  0  0
    2.9390   -2.6330   -0.0560 C   0  0  0  0  0  0  0  0  0  0  0  0
    1.7880   -3.0850   -0.6400 O   0  0  0  0  0  0  0  0  0  0  0  0
    0.7640   -2.3070   -0.5490 O   0  0  0  0  0  0  0  0  0  0  0  0
   -0.3610   -3.0040   -0.2450 O   0  0  0  0  0  0  0  0  0  0  0  0
   -1.6020   -2.5000   -0.5860 C   0  0  0  0  0  0  0  0  0  0  0  0
   -2.6460   -3.2250   -0.5470 O   0  0  0  0  0  0  0  0  0  0  0  0
   -1.7860   -1.1390   -1.0020 N   0  0  0  0  0  0  0  0  0  0  0  0
   -2.9250   -0.7960   -1.8320 C   0  0  0  0  0  0  0  0  0  0  0  0
   -0.9160   -0.2000   -0.6290 O   0  0  0  0  0  0  0  0  0  0  0  0
   -1.3940    0.6690    0.3250 C   0  0  1  0  0  0  0  0  0  0  0  0
   -1.8890    1.9710   -0.3010 C   0  0  0  0  0  0  0  0  0  0  0  0
   -2.7710   -0.0990    1.3420 P   0  0  0  0  0  0  0  0  0  0  0  0
   -3.8520    1.1870    1.8480 O   0  0  0  0  0  0  0  0  0  0  0  0
   -2.0970   -0.7570    2.8210 O   0  0  0  0  0  0  0  0  0  0  0  0
   -0.4160    1.0490    1.2520 O   0  0  0  0  0  0  0  0  0  0  0  0
  1  2  1  0
  2  3  1  0
  3  4  1  0
  4  5  1  0
  4 23  1  0
  5  6  1  0
  6  7  1  0
  6  9  1  0
  7  8  2  0
  9 10  1  0
 10 11  1  0
 11 12  1  0
 12 13  1  0
 13 14  2  0
 13 15  1  0
 15 16  1  0
 15 17  1  0
 17 18  1  0
 18 19  1  6
 18 20  1  0
 18 23  1  0
 20 21  1  0
 20 22  1  0
M  END
