
     RDKit          3D

 23 24  0  0  0  0  0  0  0  0999 V2000
   -4.3380   -1.7010   -0.1880 O   0  0  0  0  0  0  0  0  0  0  0  0
   -3.1440   -1.5170   -0.5140 C   0  0  0  0  0  0  0  0  0  0  0  0
   -2.4320   -0.4370    0.0430 N   0  0  0  0  0  0  0  0  0  0  0  0
   -2.8070    0.5910    0.9870 C   0  0  2  0  0  0  0  0  0  0  0  0
   -2.4880    1.8030    0.1030 C   0  0  0  0  0  0  0  0  0  0  0  0
   -1.2490    1.2670   -0.6010 C   0  0  2  0  0  0  0  0  0  0  0  0
   -1.4760    1.3310   -1.9780 O   0  0  0  0  0  0  0  0  0  0  0  0
   -0.7020    2.2280   -2.4990 O   0  0  0  0  0  0  0  0  0  0  0  0
   -1.0680   -0.1080   -0.2380 N   0  0  0  0  0  0  0  0  0  0  0  0
   -0.3660   -0.3690    0.9730 C   0  0  1  0  0  0  0  0  0  0  0  0
    1.0230   -0.8660    0.9210 C   0  0  1  0  0  0  0  0  0  0  0  0
    1.0150   -2.0880    0.2470 O   0  0  0  0  0  0  0  0  0  0  0  0
    1.2990   -3.1030    1.0310 O   0  0  0  0  0  0  0  0  0  0  0  0
    2.6280   -3.2040    1.0420 O   0  0  0  0  0  0  0  0  0  0  0  0
    2.9780   -4.2080    0.2770 O   0  0  0  0  0  0  0  0  0  0  0  0
    2.0890   -0.1120    0.4360 N   0  0  0  0  0  0  0  0  0  0  0  0
    3.1010    0.1680    1.3370 O   0  0  0  0  0  0  0  0  0  0  0  0
    2.3410    0.4330   -0.8220 C   0  0  0  0  0  0  0  0  0  0  0  0
    1.5190    0.2330   -1.7490 O   0  0  0  0  0  0  0  0  0  0  0  0
    3.4420    1.1990   -1.1700 O   0  0  0  0  0  0  0  0  0  0  0  0
    3.6230    1.6930   -2.4000 O   0  0  0  0  0  0  0  0  0  0  0  0
   -0.6990    0.7170    1.9540 C   0  0  0  0  0  0  0  0  0  0  0  0
   -2.0780    0.6220    2.1550 O   0  0  0  0  0  0  0  0  0  0  0  0
  1  2  2  0
  2  3  1  0
  3  4  1  0
  3  9  1  0
  4  5  1  6
  4 23  1  0
  5  6  1  0
  6  7  1  6
  6  9  1  0
  7  8  1  0
  9 10  1  0
 10 11  1  0
 10 22  1  1
 11 12  1  6
 11 16  1  0
 12 13  1  0
 13 14  1  0
 14 15  1  0
 16 17  1  0
 16 18  1  0
 18 19  2  0
 18 20  1  0
 20 21  1  0
 22 23  1  0
M  END
