
     RDKit          3D

 12 12  0  0  0  0  0  0  0  0999 V2000
   -2.4670    1.5210    0.1230 C   0  0  0  0  0  0  0  0  0  0  0  0
   -1.8560    0.1700    0.0140 C   0  0  0  0  0  0  0  0  0  0  0  0
   -0.5320    0.0470   -0.0990 C   0  0  0  0  0  0  0  0  0  0  0  0
    0.3240    1.1810   -0.1190 N   0  0  0  0  0  0  0  0  0  0  0  0
    1.6220    1.0880   -0.2280 C   0  0  0  0  0  0  0  0  0  0  0  0
    2.4350    2.2540   -0.2430 N   0  0  0  0  0  0  0  0  0  0  0  0
    2.1120    3.3150    0.3210 O   0  0  0  0  0  0  0  0  0  0  0  0
    3.6360    2.2380   -0.9030 O   0  0  0  0  0  0  0  0  0  0  0  0
    2.1780   -0.2190   -0.3300 N   0  0  0  0  0  0  0  0  0  0  0  0
    1.3650   -1.3750   -0.3150 C   0  0  0  0  0  0  0  0  0  0  0  0
    0.0390   -1.2840   -0.2030 C   0  0  0  0  0  0  0  0  0  0  0  0
   -0.7490   -2.5230   -0.1930 C   0  0  0  0  0  0  0  0  0  0  0  0
  1  2  1  0
  2  3  2  3
  3  4  1  0
  3 11  1  0
  4  5  2  0
  5  6  1  0
  5  9  1  0
  6  7  2  0
  6  8  1  0
  9 10  1  0
 10 11  2  0
 11 12  1  0
M  CHG  2   6   1   8  -1
M  END
