
     RDKit          3D

 12 12  0  0  0  0  0  0  0  0999 V2000
   -0.7190    2.4620   -0.9240 C   0  0  0  0  0  0  0  0  0  0  0  0
   -1.2040    1.1440   -0.5010 C   0  0  0  0  0  0  0  0  0  0  0  0
   -0.3630    0.1800   -0.1950 C   0  0  0  0  0  0  0  0  0  0  0  0
    1.0340    0.4080   -0.2710 N   0  0  0  0  0  0  0  0  0  0  0  0
    1.9970   -0.5960    0.0470 C   0  0  0  0  0  0  0  0  0  0  0  0
    3.3880   -0.3450   -0.0360 N   0  0  0  0  0  0  0  0  0  0  0  0
    4.2010   -1.2820   -0.0410 O   0  0  0  0  0  0  0  0  0  0  0  0
    3.8630    0.9350   -0.1130 O   0  0  0  0  0  0  0  0  0  0  0  0
    1.5280   -1.7430    0.4150 N   0  0  0  0  0  0  0  0  0  0  0  0
    0.1390   -2.0280    0.5100 C   0  0  0  0  0  0  0  0  0  0  0  0
   -0.8020   -1.1410    0.2290 C   0  0  0  0  0  0  0  0  0  0  0  0
   -2.2490   -1.4070    0.3170 C   0  0  0  0  0  0  0  0  0  0  0  0
  1  2  1  0
  2  3  2  3
  3  4  1  0
  3 11  1  0
  4  5  1  0
  5  6  1  0
  5  9  2  0
  6  7  2  0
  6  8  1  0
  9 10  1  0
 10 11  2  0
 11 12  1  0
M  CHG  2   6   1   8  -1
M  END
