
     RDKit          3D

 12 13  0  0  0  0  0  0  0  0999 V2000
   -0.5710    2.8000   -0.7730 O   0  0  0  0  0  0  0  0  0  0  0  0
   -1.2840    2.0020   -0.1800 N   0  0  0  0  0  0  0  0  0  0  0  0
   -2.4280    2.4810    0.4080 O   0  0  0  0  0  0  0  0  0  0  0  0
   -0.9980    0.6210   -0.0650 C   0  0  0  0  0  0  0  0  0  0  0  0
   -1.9870   -0.3350    0.0050 C   0  0  0  0  0  0  0  0  0  0  0  0
   -1.6230   -1.6810    0.1180 C   0  0  0  0  0  0  0  0  0  0  0  0
   -0.3400   -2.0450    0.1580 N   0  0  0  0  0  0  0  0  0  0  0  0
    0.6710   -1.1300    0.0910 C   0  0  0  0  0  0  0  0  0  0  0  0
    2.0110   -1.2750    0.1150 N   0  0  0  0  0  0  0  0  0  0  0  0
    2.5160   -0.0310    0.0170 C   0  0  0  0  0  0  0  0  0  0  0  0
    1.5190    0.8970   -0.0670 C   0  0  0  0  0  0  0  0  0  0  0  0
    0.3150    0.2080   -0.0210 C   0  0  0  0  0  0  0  0  0  0  0  0
  1  2  2  0
  2  3  1  0
  2  4  1  0
  4  5  2  0
  4 12  1  0
  5  6  1  0
  6  7  2  0
  7  8  1  0
  8  9  1  0
  8 12  2  0
  9 10  1  0
 10 11  2  0
 11 12  1  0
M  CHG  2   2   1   3  -1
M  END
