
     RDKit          3D

 26 28  0  0  0  0  0  0  0  0999 V2000
    2.1320   -1.6950   -2.6160 C   0  0  0  0  0  0  0  0  0  0  0  0
    1.8690   -0.9700   -1.5440 C   0  0  0  0  0  0  0  0  0  0  0  0
    2.9580   -0.2260   -0.9210 C   0  0  0  0  0  0  0  0  0  0  0  0
    4.1620   -0.0310   -1.5350 C   0  0  0  0  0  0  0  0  0  0  0  0
    5.1970    0.6750   -0.9030 C   0  0  0  0  0  0  0  0  0  0  0  0
    5.0280    1.1920    0.3560 C   0  0  0  0  0  0  0  0  0  0  0  0
    6.0710    1.9330    1.0550 C   0  0  0  0  0  0  0  0  0  0  0  0
    5.8780    2.3910    2.2080 O   0  0  0  0  0  0  0  0  0  0  0  0
    7.3200    2.1700    0.4940 O   0  0  0  0  0  0  0  0  0  0  0  0
    3.8200    1.0040    0.9880 C   0  0  0  0  0  0  0  0  0  0  0  0
    2.8090    0.3040    0.3480 C   0  0  0  0  0  0  0  0  0  0  0  0
    0.5170   -0.9230   -0.9700 C   0  0  0  0  0  0  0  0  0  0  0  0
   -0.0600    0.2810   -0.5940 C   0  0  0  0  0  0  0  0  0  0  0  0
   -1.3270    0.3470   -0.0260 C   0  0  0  0  0  0  0  0  0  0  0  0
   -2.0280   -0.8130    0.1690 C   0  0  0  0  0  0  0  0  0  0  0  0
   -1.4830   -2.0230   -0.1930 C   0  0  0  0  0  0  0  0  0  0  0  0
   -0.1970   -2.0650   -0.7660 C   0  0  0  0  0  0  0  0  0  0  0  0
    0.3050   -3.4190   -1.0880 C   0  0  0  0  0  0  0  0  0  0  0  0
   -3.3990   -0.8220    0.7750 C   0  0  2  0  0  0  0  0  0  0  0  0
   -3.3500   -1.8030    1.9230 C   0  0  0  0  0  0  0  0  0  0  0  0
   -4.4220   -1.2840   -0.2250 C   0  0  0  0  0  0  0  0  0  0  0  0
   -3.8000    0.5090    1.3130 C   0  0  0  0  0  0  0  0  0  0  0  0
   -3.4010    1.5890    0.3570 C   0  0  0  0  0  0  0  0  0  0  0  0
   -1.8730    1.6880    0.3500 C   0  0  1  0  0  0  0  0  0  0  0  0
   -1.4440    2.0820    1.7450 C   0  0  0  0  0  0  0  0  0  0  0  0
   -1.4980    2.7190   -0.6850 C   0  0  0  0  0  0  0  0  0  0  0  0
  1  2  2  0
  2  3  1  0
  2 12  1  0
  3  4  2  0
  3 11  1  0
  4  5  1  0
  5  6  2  0
  6  7  1  0
  6 10  1  0
  7  8  2  0
  7  9  1  0
 10 11  2  0
 12 13  2  0
 12 17  1  0
 13 14  1  0
 14 15  2  0
 14 24  1  0
 15 16  1  0
 15 19  1  0
 16 17  2  0
 17 18  1  0
 19 20  1  1
 19 21  1  0
 19 22  1  0
 22 23  1  0
 23 24  1  0
 24 25  1  1
 24 26  1  0
M  END
