
     RDKit          3D

 12 12  0  0  0  0  0  0  0  0999 V2000
    3.2190   -0.5070    0.0900 N   0  0  0  0  0  0  0  0  0  0  0  0
    1.8690   -0.1090   -0.0900 C   0  0  0  0  0  0  0  0  0  0  0  0
    1.7010    1.1690   -0.0740 N   0  0  0  0  0  0  0  0  0  0  0  0
    0.6140    2.0790   -0.2000 C   0  0  0  0  0  0  0  0  0  0  0  0
   -0.7040    1.9990   -0.1290 C   0  0  0  0  0  0  0  0  0  0  0  0
   -1.6160    0.8820    0.1220 C   0  0  0  0  0  0  0  0  0  0  0  0
   -1.5360   -0.4400    0.1140 C   0  0  0  0  0  0  0  0  0  0  0  0
   -2.7160   -1.1410    0.4320 N   0  0  0  0  0  0  0  0  0  0  0  0
   -2.8010   -1.7880    1.5120 O   0  0  0  0  0  0  0  0  0  0  0  0
   -3.7640   -1.1070   -0.4520 O   0  0  0  0  0  0  0  0  0  0  0  0
   -0.3930   -1.3310   -0.1800 C   0  0  0  0  0  0  0  0  0  0  0  0
    0.9230   -1.2050   -0.2590 C   0  0  0  0  0  0  0  0  0  0  0  0
  1  2  1  0
  2  3  2  0
  2 12  1  0
  3  4  1  0
  4  5  2  0
  5  6  1  0
  6  7  2  0
  7  8  1  0
  7 11  1  0
  8  9  2  0
  8 10  1  0
 11 12  2  0
M  CHG  2   8   1  10  -1
M  END
