
     RDKit          3D

 17 17  0  0  0  0  0  0  0  0999 V2000
    2.3390    1.5150   -0.2790 O   0  0  0  0  0  0  0  0  0  0  0  0
    1.8430    0.6100   -0.9720 C   0  0  0  0  0  0  0  0  0  0  0  0
    2.6160   -0.5520   -1.4850 C   0  0  0  0  0  0  0  0  0  0  0  0
    4.0540   -0.5330   -1.0830 C   0  0  0  0  0  0  0  0  0  0  0  0
    4.2690   -0.5540    0.3970 C   0  0  0  0  0  0  0  0  0  0  0  0
    3.6990   -1.7210    0.9290 O   0  0  0  0  0  0  0  0  0  0  0  0
    0.5090    0.6730   -1.2880 O   0  0  0  0  0  0  0  0  0  0  0  0
   -0.3540    1.7010   -0.8800 C   0  0  0  0  0  0  0  0  0  0  0  0
   -0.4760    1.8280    0.6060 C   0  0  0  0  0  0  0  0  0  0  0  0
   -0.9780    0.6070    1.1240 O   0  0  0  0  0  0  0  0  0  0  0  0
   -2.2090    0.0970    0.7400 C   0  0  0  0  0  0  0  0  0  0  0  0
   -2.4000   -0.7420   -0.2390 C   0  0  0  0  0  0  0  0  0  0  0  0
   -3.7340   -1.2760   -0.6320 C   0  0  0  0  0  0  0  0  0  0  0  0
   -4.7650   -0.7690    0.1780 O   0  0  0  0  0  0  0  0  0  0  0  0
   -4.5790    0.1170    1.2160 C   0  0  0  0  0  0  0  0  0  0  0  0
   -3.3700    0.5550    1.5160 C   0  0  0  0  0  0  0  0  0  0  0  0
   -3.2370    1.4420    2.5650 O   0  0  0  0  0  0  0  0  0  0  0  0
  1  2  2  0
  2  3  1  0
  2  7  1  0
  3  4  1  0
  4  5  1  0
  5  6  1  0
  7  8  1  0
  8  9  1  0
  9 10  1  0
 10 11  1  0
 11 12  2  0
 11 16  1  0
 12 13  1  0
 13 14  1  0
 14 15  1  0
 15 16  2  0
 16 17  1  0
M  END
