
     RDKit          3D

 17 17  0  0  0  0  0  0  0  0999 V2000
    0.0760    0.6460    1.2260 O   0  0  0  0  0  0  0  0  0  0  0  0
    0.1820   -0.5160    0.7780 C   0  0  0  0  0  0  0  0  0  0  0  0
   -0.9230   -1.5130    0.8680 C   0  0  0  0  0  0  0  0  0  0  0  0
   -2.2060   -1.0020    1.3430 C   0  0  0  0  0  0  0  0  0  0  0  0
   -3.0030   -0.0370    0.5930 C   0  0  2  0  0  0  0  0  0  0  0  0
   -3.3620   -0.6950   -0.7660 C   0  0  0  0  0  0  0  0  0  0  0  0
   -4.1250    0.1720   -1.5360 O   0  0  0  0  0  0  0  0  0  0  0  0
   -2.5620    1.3460    0.3640 C   0  0  0  0  0  0  0  0  0  0  0  0
   -3.5860    2.0490   -0.3670 O   0  0  0  0  0  0  0  0  0  0  0  0
    1.3820   -0.8230    0.1960 O   0  0  0  0  0  0  0  0  0  0  0  0
    2.4970   -0.0740    0.0100 C   0  0  0  0  0  0  0  0  0  0  0  0
    2.7070    1.1780    0.2990 C   0  0  0  0  0  0  0  0  0  0  0  0
    3.9950    1.8460    0.0260 C   0  0  0  0  0  0  0  0  0  0  0  0
    4.9640    1.0330   -0.5540 O   0  0  0  0  0  0  0  0  0  0  0  0
    4.7870   -0.2870   -0.8740 C   0  0  0  0  0  0  0  0  0  0  0  0
    5.8130   -1.0540   -1.4650 O   0  0  0  0  0  0  0  0  0  0  0  0
    3.6230   -0.8290   -0.6140 C   0  0  0  0  0  0  0  0  0  0  0  0
  1  2  2  0
  2  3  1  0
  2 10  1  0
  3  4  1  0
  5  4  1  6
  5  6  1  0
  5  8  1  0
  6  7  1  0
  8  9  1  0
 10 11  1  0
 11 12  2  0
 11 17  1  0
 12 13  1  0
 13 14  1  0
 14 15  1  0
 15 16  1  0
 15 17  2  0
M  END
