
     RDKit          3D

 18 20  0  0  0  0  0  0  0  0999 V2000
    5.6700   -1.2850    0.1010 O   0  0  0  0  0  0  0  0  0  0  0  0
    4.7090   -0.5090   -0.1850 C   0  0  0  0  0  0  0  0  0  0  0  0
    5.0180    0.6250   -0.8240 N   0  0  0  0  0  0  0  0  0  0  0  0
    4.0600    1.4930   -1.1600 C   0  0  0  0  0  0  0  0  0  0  0  0
    2.7490    1.1880   -0.8290 C   0  0  0  0  0  0  0  0  0  0  0  0
    2.3860    0.0460   -0.1790 C   0  0  0  0  0  0  0  0  0  0  0  0
    1.0930   -0.2490    0.1440 C   0  0  0  0  0  0  0  0  0  0  0  0
    0.0290    0.6200   -0.1780 N   0  0  0  0  0  0  0  0  0  0  0  0
   -1.3540    0.2800    0.1810 C   0  0  2  0  0  0  0  0  0  0  0  0
   -1.8030   -0.9990   -0.4500 C   0  0  0  0  0  0  0  0  0  0  0  0
   -3.2520   -1.0060   -0.8380 C   0  0  0  0  0  0  0  0  0  0  0  0
   -4.1420   -0.1860   -0.0000 C   0  0  0  0  0  0  0  0  0  0  0  0
   -3.6070    1.1180    0.4610 C   0  0  0  0  0  0  0  0  0  0  0  0
   -2.2830    1.4090   -0.2070 C   0  0  0  0  0  0  0  0  0  0  0  0
    0.8340   -1.4120    0.7930 N   0  0  0  0  0  0  0  0  0  0  0  0
    1.8370   -2.2370    1.1000 C   0  0  0  0  0  0  0  0  0  0  0  0
    3.1240   -1.9650    0.7890 N   0  0  0  0  0  0  0  0  0  0  0  0
    3.4240   -0.8330    0.1520 C   0  0  0  0  0  0  0  0  0  0  0  0
  1  2  2  0
  2  3  1  0
  2 18  1  0
  3  4  1  0
  4  5  2  0
  5  6  1  0
  6  7  2  0
  6 18  1  0
  7  8  1  0
  7 15  1  0
  9  8  1  6
  9 10  1  0
  9 14  1  0
 10 11  1  0
 11 12  1  0
 12 13  1  0
 13 14  1  0
 15 16  2  0
 16 17  1  0
 17 18  2  0
M  END
