
     RDKit          3D

 16 16  0  0  0  0  0  0  0  0999 V2000
   -0.6510    2.6640   -1.4930 O   0  0  0  0  0  0  0  0  0  0  0  0
   -0.8400    2.4210   -0.1340 C   0  0  0  0  0  0  0  0  0  0  0  0
   -1.7270    1.2730    0.1170 C   0  0  0  0  0  0  0  0  0  0  0  0
   -2.8670    1.3770    0.7870 C   0  0  0  0  0  0  0  0  0  0  0  0
   -3.6590    0.2860    0.9980 O   0  0  0  0  0  0  0  0  0  0  0  0
   -3.3950   -0.9960    0.5600 C   0  0  0  0  0  0  0  0  0  0  0  0
   -2.1290   -1.0980   -0.1810 C   0  0  0  0  0  0  0  0  0  0  0  0
   -1.7270   -2.3700   -0.6930 O   0  0  0  0  0  0  0  0  0  0  0  0
   -1.3610   -0.0600   -0.3870 C   0  0  0  0  0  0  0  0  0  0  0  0
   -0.1650   -0.1620   -1.0890 O   0  0  0  0  0  0  0  0  0  0  0  0
    0.7340   -1.2120   -1.0790 C   0  0  0  0  0  0  0  0  0  0  0  0
    1.2830   -1.4980    0.2950 C   0  0  0  0  0  0  0  0  0  0  0  0
    2.0130   -0.3570    0.9170 C   0  0  0  0  0  0  0  0  0  0  0  0
    3.2090    0.1020    0.1150 C   0  0  1  0  0  0  0  0  0  0  0  0
    3.8560    1.1690    0.7390 O   0  0  0  0  0  0  0  0  0  0  0  0
    4.0740   -0.9560   -0.0610 O   0  0  0  0  0  0  0  0  0  0  0  0
  1  2  1  0
  2  3  1  0
  3  4  2  0
  3  9  1  0
  4  5  1  0
  5  6  1  0
  6  7  1  0
  7  8  1  0
  7  9  2  0
  9 10  1  0
 10 11  1  0
 11 12  1  0
 12 13  1  0
 13 14  1  0
 14 15  1  1
 14 16  1  0
M  END
