
     RDKit          3D

 17 16  0  0  0  0  0  0  0  0999 V2000
    3.3310    2.7270   -0.8610 C   0  0  0  0  0  0  0  0  0  0  0  0
    3.7110    1.5750   -0.3390 C   0  0  0  0  0  0  0  0  0  0  0  0
    5.0250    1.4930    0.0540 O   0  0  0  0  0  0  0  0  0  0  0  0
    2.7990    0.4910   -0.1990 C   0  0  0  0  0  0  0  0  0  0  0  0
    3.1100   -0.6680    0.3090 C   0  0  0  0  0  0  0  0  0  0  0  0
    4.3880   -1.1500    0.8380 C   0  0  0  0  0  0  0  0  0  0  0  0
    4.2390   -1.5140    2.1970 O   0  0  0  0  0  0  0  0  0  0  0  0
    1.3950    0.7570   -0.6840 C   0  0  0  0  0  0  0  0  0  0  0  0
    0.5750   -0.3660   -0.5010 O   0  0  0  0  0  0  0  0  0  0  0  0
   -0.7750   -0.3550   -0.8800 C   0  0  0  0  0  0  0  0  0  0  0  0
   -1.1640    0.7190   -1.3790 O   0  0  0  0  0  0  0  0  0  0  0  0
   -1.6180   -1.3900   -0.7350 O   0  0  0  0  0  0  0  0  0  0  0  0
   -2.9360   -1.4930   -1.0520 C   0  0  0  0  0  0  0  0  0  0  0  0
   -3.9520   -0.6700   -0.3660 C   0  0  1  0  0  0  0  0  0  0  0  0
   -4.0570   -0.9640    1.1130 C   0  0  0  0  0  0  0  0  0  0  0  0
   -3.9230    0.8040   -0.5600 C   0  0  0  0  0  0  0  0  0  0  0  0
   -5.2110   -1.0830   -0.9160 O   0  0  0  0  0  0  0  0  0  0  0  0
  1  2  2  0
  2  3  1  0
  2  4  1  0
  4  5  2  3
  4  8  1  0
  5  6  1  0
  6  7  1  0
  8  9  1  0
  9 10  1  0
 10 11  2  0
 10 12  1  0
 12 13  1  0
 13 14  1  0
 14 15  1  1
 14 16  1  0
 14 17  1  0
M  END
