
     RDKit          3D

 17 17  0  0  0  0  0  0  0  0999 V2000
    4.8030   -0.8320    0.0370 C   0  0  0  0  0  0  0  0  0  0  0  0
    3.5860   -0.8910   -0.8580 C   0  0  0  0  0  0  0  0  0  0  0  0
    2.4520   -1.2910   -0.2070 O   0  0  0  0  0  0  0  0  0  0  0  0
    2.0590   -0.4830    0.8440 C   0  0  0  0  0  0  0  0  0  0  0  0
    1.7400    0.9220    0.5000 C   0  0  2  0  0  0  0  0  0  0  0  0
    1.3530    1.6270    1.6710 O   0  0  0  0  0  0  0  0  0  0  0  0
    0.8070    1.2250   -0.6030 C   0  0  0  0  0  0  0  0  0  0  0  0
   -0.5270    0.9930   -0.4820 O   0  0  0  0  0  0  0  0  0  0  0  0
   -1.1720   -0.1770   -0.3720 C   0  0  0  0  0  0  0  0  0  0  0  0
   -0.5670   -1.2610   -0.3830 O   0  0  0  0  0  0  0  0  0  0  0  0
   -2.6450   -0.2750   -0.2300 C   0  0  0  0  0  0  0  0  0  0  0  0
   -3.2660   -1.4280   -0.1230 C   0  0  0  0  0  0  0  0  0  0  0  0
   -4.7340   -1.4700    0.0170 C   0  0  0  0  0  0  0  0  0  0  0  0
   -5.3430   -0.2310    0.0210 O   0  0  0  0  0  0  0  0  0  0  0  0
   -4.6770    0.9490   -0.0910 C   0  0  0  0  0  0  0  0  0  0  0  0
   -3.3710    0.9860   -0.2150 C   0  0  0  0  0  0  0  0  0  0  0  0
   -2.7070    2.2010   -0.3280 O   0  0  0  0  0  0  0  0  0  0  0  0
  1  2  1  0
  2  3  1  0
  3  4  1  0
  4  5  1  0
  5  6  1  1
  5  7  1  0
  7  8  1  0
  8  9  1  0
  9 10  2  0
  9 11  1  0
 11 12  2  0
 11 16  1  0
 12 13  1  0
 13 14  1  0
 14 15  1  0
 15 16  2  0
 16 17  1  0
M  END
