
     RDKit          3D

 36 40  0  0  0  0  0  0  0  0999 V2000
   -5.6110   -2.0300    1.7380 C   0  0  0  0  0  0  0  0  0  0  0  0
   -5.2330   -0.5640    1.7670 C   0  0  0  0  0  0  0  0  0  0  0  0
   -4.3090   -0.3310    0.7280 O   0  0  0  0  0  0  0  0  0  0  0  0
   -3.7500    0.9000    0.4620 C   0  0  0  0  0  0  0  0  0  0  0  0
   -4.0610    2.0180    1.2080 C   0  0  0  0  0  0  0  0  0  0  0  0
   -3.4660    3.2320    0.8910 C   0  0  0  0  0  0  0  0  0  0  0  0
   -3.7980    4.4470    1.6950 C   0  0  0  0  0  0  0  0  0  0  0  0
   -2.5780    3.2940   -0.1610 C   0  0  0  0  0  0  0  0  0  0  0  0
   -1.8630    4.8620   -0.5040 Cl  0  0  0  0  0  0  0  0  0  0  0  0
   -2.2630    2.1810   -0.9090 C   0  0  0  0  0  0  0  0  0  0  0  0
   -2.8530    0.9710   -0.5980 C   0  0  0  0  0  0  0  0  0  0  0  0
   -2.5360   -0.1830   -1.3630 N   0  0  0  0  0  0  0  0  0  0  0  0
   -1.3570   -0.7800   -1.3800 N   0  0  0  0  0  0  0  0  0  0  0  0
   -1.3260   -1.8350   -2.1760 C   0  0  0  0  0  0  0  0  0  0  0  0
   -0.3180   -2.8070   -2.5440 C   0  0  0  0  0  0  0  0  0  0  0  0
   -0.4790   -3.8830   -3.4280 C   0  0  0  0  0  0  0  0  0  0  0  0
    0.7150   -4.5620   -3.5020 C   0  0  0  0  0  0  0  0  0  0  0  0
    1.5500   -3.9420   -2.7150 O   0  0  0  0  0  0  0  0  0  0  0  0
    0.9600   -2.8890   -2.1290 C   0  0  0  0  0  0  0  0  0  0  0  0
    1.6730   -2.0170   -1.1940 C   0  0  0  0  0  0  0  0  0  0  0  0
    1.0650   -1.0630   -0.6910 O   0  0  0  0  0  0  0  0  0  0  0  0
    3.0160   -2.2060   -0.8360 N   0  0  0  0  0  0  0  0  0  0  0  0
    3.8110   -1.4450    0.0440 C   0  0  0  0  0  0  0  0  0  0  0  0
    3.4170   -0.3350    0.7470 C   0  0  0  0  0  0  0  0  0  0  0  0
    4.3020    0.3480    1.6010 C   0  0  0  0  0  0  0  0  0  0  0  0
    5.6000   -0.0650    1.7700 C   0  0  0  0  0  0  0  0  0  0  0  0
    5.9710   -1.1530    1.0760 N   0  0  0  0  0  0  0  0  0  0  0  0
    5.1370   -1.8160    0.2560 C   0  0  0  0  0  0  0  0  0  0  0  0
    5.5720   -2.8390   -0.3650 O   0  0  0  0  0  0  0  0  0  0  0  0
    6.3040    0.8290    2.7170 C   0  0  0  0  0  0  0  0  0  0  0  0
    5.4480    1.9960    2.8070 N   0  0  1  0  0  0  0  0  0  0  0  0
    5.8850    3.0310    1.8860 C   0  0  0  0  0  0  0  0  0  0  0  0
    4.1160    1.5500    2.4510 C   0  0  0  0  0  0  0  0  0  0  0  0
   -2.6320   -1.8790   -2.6980 C   0  0  0  0  0  0  0  0  0  0  0  0
   -3.3860   -0.8450   -2.1880 C   0  0  0  0  0  0  0  0  0  0  0  0
   -4.8150   -0.5320   -2.4830 C   0  0  0  0  0  0  0  0  0  0  0  0
  1  2  1  0
  2  3  1  0
  3  4  1  0
  4  5  2  0
  4 11  1  0
  5  6  1  0
  6  7  1  0
  6  8  2  0
  8  9  1  0
  8 10  1  0
 10 11  2  0
 11 12  1  0
 12 13  1  0
 12 35  1  0
 13 14  2  0
 14 15  1  0
 14 34  1  0
 15 16  1  0
 15 19  2  0
 16 17  2  0
 17 18  1  0
 18 19  1  0
 19 20  1  0
 20 21  2  0
 20 22  1  0
 22 23  1  0
 23 24  2  0
 23 28  1  0
 24 25  1  0
 25 26  2  0
 25 33  1  0
 26 27  1  0
 26 30  1  0
 27 28  1  0
 28 29  2  0
 30 31  1  0
 31 32  1  6
 31 33  1  0
 34 35  2  0
 35 36  1  0
M  CHG  1  31   1
M  END
