
     RDKit          3D

 36 40  0  0  0  0  0  0  0  0999 V2000
   10.2550    2.4840   -0.0310 C   0  0  0  0  0  0  0  0  0  0  0  0
    9.1360    1.5720   -0.1580 N   0  0  0  0  0  0  0  0  0  0  0  0
    8.2630    1.7540    0.9850 C   0  0  2  0  0  0  0  0  0  0  0  0
    8.6950    0.8830    2.1260 C   0  0  0  0  0  0  0  0  0  0  0  0
    6.8800    1.4670    0.5500 C   0  0  0  0  0  0  0  0  0  0  0  0
    6.2960    1.9240   -0.6170 C   0  0  0  0  0  0  0  0  0  0  0  0
    5.0090    1.4020   -0.5860 C   0  0  0  0  0  0  0  0  0  0  0  0
    4.8680    0.6670    0.5720 C   0  0  0  0  0  0  0  0  0  0  0  0
    3.6490   -0.0470    0.9750 C   0  0  0  0  0  0  0  0  0  0  0  0
    3.4660   -0.7750    2.0900 N   0  0  0  0  0  0  0  0  0  0  0  0
    2.2130   -1.2790    2.1140 C   0  0  0  0  0  0  0  0  0  0  0  0
    1.5350   -2.0300    2.9380 O   0  0  0  0  0  0  0  0  0  0  0  0
    0.3140   -2.4040    2.7630 C   0  0  0  0  0  0  0  0  0  0  0  0
   -0.2840   -3.1410    3.6190 O   0  0  0  0  0  0  0  0  0  0  0  0
   -0.3750   -1.9960    1.6120 C   0  0  0  0  0  0  0  0  0  0  0  0
   -1.7030   -2.4210    1.4510 N   0  0  0  0  0  0  0  0  0  0  0  0
   -2.5180   -2.0930    0.3520 C   0  0  0  0  0  0  0  0  0  0  0  0
   -2.1340   -1.3870   -0.5930 O   0  0  0  0  0  0  0  0  0  0  0  0
   -3.9000   -2.6070    0.3050 C   0  0  0  0  0  0  0  0  0  0  0  0
   -4.7150   -2.2200   -0.8660 C   0  0  1  0  0  0  0  0  0  0  0  0
   -6.1260   -2.8460   -0.7450 C   0  0  0  0  0  0  0  0  0  0  0  0
   -6.8260   -2.3330    0.4630 C   0  0  0  0  0  0  0  0  0  0  0  0
   -6.6620   -0.8880    0.7780 C   0  0  0  0  0  0  0  0  0  0  0  0
   -5.9110   -0.1500   -0.2360 C   0  0  0  0  0  0  0  0  0  0  0  0
   -4.9810   -0.7720   -1.0300 C   0  0  0  0  0  0  0  0  0  0  0  0
   -4.3240    0.0160   -1.9840 C   0  0  0  0  0  0  0  0  0  0  0  0
   -4.5820    1.3610   -2.1360 C   0  0  0  0  0  0  0  0  0  0  0  0
   -3.8630    2.1520   -3.1550 C   0  0  0  0  0  0  0  0  0  0  0  0
   -5.5180    1.9180   -1.3140 C   0  0  0  0  0  0  0  0  0  0  0  0
   -5.8620    3.6450   -1.4940 Cl  0  0  0  0  0  0  0  0  0  0  0  0
   -6.1990    1.2030   -0.3590 C   0  0  0  0  0  0  0  0  0  0  0  0
   -7.2020    1.8310    0.5120 C   0  0  0  0  0  0  0  0  0  0  0  0
    0.3250   -1.2070    0.7360 C   0  0  0  0  0  0  0  0  0  0  0  0
    1.5950   -0.8540    0.9810 N   0  0  0  0  0  0  0  0  0  0  0  0
    2.4840   -0.1100    0.3080 N   0  0  0  0  0  0  0  0  0  0  0  0
    5.9940    0.7360    1.2050 O   0  0  0  0  0  0  0  0  0  0  0  0
  1  2  1  0
  2  3  1  0
  3  4  1  1
  3  5  1  0
  5  6  2  0
  5 36  1  0
  6  7  1  0
  7  8  2  0
  8  9  1  0
  8 36  1  0
  9 10  1  0
  9 35  2  0
 10 11  2  0
 11 12  1  0
 11 34  1  0
 12 13  1  0
 13 14  2  0
 13 15  1  0
 15 16  1  0
 15 33  2  0
 16 17  1  0
 17 18  2  0
 17 19  1  0
 20 19  1  1
 20 21  1  0
 20 25  1  0
 21 22  1  0
 22 23  1  0
 23 24  1  0
 24 25  2  0
 24 31  1  0
 25 26  1  0
 26 27  2  0
 27 28  1  0
 27 29  1  0
 29 30  1  0
 29 31  2  0
 31 32  1  0
 33 34  1  0
 34 35  1  0
M  CHG  1   2   1
M  END
