
     RDKit          3D

 36 40  0  0  0  0  0  0  0  0999 V2000
   -5.7940    0.1010   -5.2240 C   0  0  0  0  0  0  0  0  0  0  0  0
   -5.2010    0.0930   -3.8210 C   0  0  0  0  0  0  0  0  0  0  0  0
   -3.9570    0.7190   -3.5860 C   0  0  0  0  0  0  0  0  0  0  0  0
   -3.6130    0.8440   -2.2310 C   0  0  0  0  0  0  0  0  0  0  0  0
   -4.3270    0.4430   -1.2450 C   0  0  0  0  0  0  0  0  0  0  0  0
   -3.9550    0.4660    0.1730 N   0  0  0  0  0  0  0  0  0  0  0  0
   -4.7920    0.2150    1.1990 N   0  0  0  0  0  0  0  0  0  0  0  0
   -4.0950    0.1710    2.3080 C   0  0  0  0  0  0  0  0  0  0  0  0
   -4.5340   -0.2040    3.6820 C   0  0  2  0  0  0  0  0  0  0  0  0
   -4.6420   -1.7400    3.6640 C   0  0  0  0  0  0  0  0  0  0  0  0
   -5.8470    0.3670    4.1000 C   0  0  0  0  0  0  0  0  0  0  0  0
   -3.4890    0.1370    4.7090 C   0  0  0  0  0  0  0  0  0  0  0  0
   -2.7750    0.4220    2.0100 C   0  0  0  0  0  0  0  0  0  0  0  0
   -2.7350    0.6050    0.5890 C   0  0  0  0  0  0  0  0  0  0  0  0
   -1.4580    0.9710    0.0650 N   0  0  0  0  0  0  0  0  0  0  0  0
   -0.3760    0.0840   -0.1810 C   0  0  0  0  0  0  0  0  0  0  0  0
   -0.6090   -1.1560   -0.3830 O   0  0  0  0  0  0  0  0  0  0  0  0
    0.9330    0.5050   -0.2420 N   0  0  0  0  0  0  0  0  0  0  0  0
    2.1920   -0.0420   -0.5470 C   0  0  0  0  0  0  0  0  0  0  0  0
    2.8550    0.6670   -1.5530 C   0  0  0  0  0  0  0  0  0  0  0  0
    4.2220    0.5230   -1.7610 C   0  0  0  0  0  0  0  0  0  0  0  0
    4.8340   -0.3510   -0.9090 C   0  0  0  0  0  0  0  0  0  0  0  0
    6.2390   -0.0510   -0.5790 N   0  0  0  0  0  0  0  0  0  0  0  0
    6.5500    0.6010    0.5770 C   0  0  0  0  0  0  0  0  0  0  0  0
    7.8760    0.5240    0.7220 N   0  0  0  0  0  0  0  0  0  0  0  0
    8.3530   -0.1610   -0.3010 C   0  0  0  0  0  0  0  0  0  0  0  0
    9.6030   -0.6370   -0.6710 C   0  0  0  0  0  0  0  0  0  0  0  0
   10.5870   -0.5870    0.3610 N   0  0  0  0  0  0  0  0  0  0  0  0
    9.7420   -1.3220   -1.8090 N   0  0  0  0  0  0  0  0  0  0  0  0
    8.6890   -1.6140   -2.6410 C   0  0  0  0  0  0  0  0  0  0  0  0
    7.4830   -1.2120   -2.2770 N   0  0  0  0  0  0  0  0  0  0  0  0
    7.2990   -0.5090   -1.1570 C   0  0  0  0  0  0  0  0  0  0  0  0
    4.2030   -1.1060    0.0960 C   0  0  0  0  0  0  0  0  0  0  0  0
    2.8500   -0.9240    0.2500 C   0  0  0  0  0  0  0  0  0  0  0  0
   -5.5780   -0.1460   -1.4880 C   0  0  0  0  0  0  0  0  0  0  0  0
   -5.9500   -0.2970   -2.7790 C   0  0  0  0  0  0  0  0  0  0  0  0
  1  2  1  0
  2  3  2  0
  2 36  1  0
  3  4  1  0
  4  5  2  0
  5  6  1  0
  5 35  1  0
  6  7  1  0
  6 14  1  0
  7  8  2  0
  8  9  1  0
  8 13  1  0
  9 10  1  6
  9 11  1  0
  9 12  1  0
 13 14  2  0
 14 15  1  0
 15 16  1  0
 16 17  2  0
 16 18  1  0
 18 19  1  0
 19 20  2  0
 19 34  1  0
 20 21  1  0
 21 22  2  0
 22 23  1  0
 22 33  1  0
 23 24  1  0
 23 32  1  0
 24 25  2  0
 25 26  1  0
 26 27  2  0
 26 32  1  0
 27 28  1  0
 27 29  1  0
 29 30  2  0
 30 31  1  0
 31 32  2  0
 33 34  2  0
 35 36  2  0
M  END
