
     RDKit          3D

 36 40  0  0  0  0  0  0  0  0999 V2000
   -2.9360   -3.9400    1.1450 C   0  0  0  0  0  0  0  0  0  0  0  0
   -3.9540   -3.3880    0.2120 C   0  0  0  0  0  0  0  0  0  0  0  0
   -5.0940   -3.9120   -0.1660 O   0  0  0  0  0  0  0  0  0  0  0  0
   -5.7100   -3.1120   -1.0020 C   0  0  0  0  0  0  0  0  0  0  0  0
   -4.9490   -1.9740   -1.2100 C   0  0  0  0  0  0  0  0  0  0  0  0
   -3.8190   -2.1660   -0.4200 C   0  0  0  0  0  0  0  0  0  0  0  0
   -2.8450   -1.1400   -0.4340 N   0  0  0  0  0  0  0  0  0  0  0  0
   -2.9620   -0.0740   -1.1260 C   0  0  0  0  0  0  0  0  0  0  0  0
   -1.8730    0.8730   -1.0260 N   0  0  0  0  0  0  0  0  0  0  0  0
   -0.6170    0.4950   -0.4880 C   0  0  0  0  0  0  0  0  0  0  0  0
    0.2820    1.4340   -0.2480 C   0  0  0  0  0  0  0  0  0  0  0  0
   -0.0420    2.7490   -0.5310 O   0  0  0  0  0  0  0  0  0  0  0  0
   -0.8910    3.4310    0.3490 C   0  0  0  0  0  0  0  0  0  0  0  0
   -1.2550    4.7420    0.1300 C   0  0  0  0  0  0  0  0  0  0  0  0
   -2.0950    5.4180    0.9990 C   0  0  0  0  0  0  0  0  0  0  0  0
   -2.5860    4.7750    2.1170 C   0  0  0  0  0  0  0  0  0  0  0  0
   -2.2010    3.4580    2.3090 C   0  0  0  0  0  0  0  0  0  0  0  0
   -1.3830    2.8300    1.4440 N   0  0  0  0  0  0  0  0  0  0  0  0
    1.6310    1.1580    0.3140 C   0  0  0  0  0  0  0  0  0  0  0  0
    1.5760   -0.1260    0.9600 N   0  0  2  0  0  0  0  0  0  0  0  0
    2.7670   -0.4490    1.6890 C   0  0  0  0  0  0  0  0  0  0  0  0
    3.9320   -0.7200    0.8050 C   0  0  0  0  0  0  0  0  0  0  0  0
    3.8810   -0.6700   -0.4310 O   0  0  0  0  0  0  0  0  0  0  0  0
    5.1570   -1.0500    1.4410 N   0  0  0  0  0  0  0  0  0  0  0  0
    6.3630   -1.3360    0.7520 C   0  0  0  0  0  0  0  0  0  0  0  0
    6.5860   -1.3550   -0.5270 C   0  0  0  0  0  0  0  0  0  0  0  0
    8.0170   -1.7090   -0.8350 C   0  0  0  0  0  0  0  0  0  0  0  0
    8.5770   -1.8910    0.5130 C   0  0  0  0  0  0  0  0  0  0  0  0
    7.6310   -1.6770    1.3950 C   0  0  0  0  0  0  0  0  0  0  0  0
    7.8920   -1.7950    3.1340 Cl  0  0  0  0  0  0  0  0  0  0  0  0
    1.1890   -1.1040   -0.0030 C   0  0  0  0  0  0  0  0  0  0  0  0
   -0.3260   -0.9550   -0.2010 C   0  0  0  0  0  0  0  0  0  0  0  0
   -4.1190    0.1760   -1.9660 C   0  0  1  0  0  0  0  0  0  0  0  0
   -4.8130    1.4230   -1.3660 C   0  0  0  0  0  0  0  0  0  0  0  0
   -3.7370    0.6000   -3.3780 C   0  0  0  0  0  0  0  0  0  0  0  0
   -5.0590   -0.8290   -1.9450 O   0  0  0  0  0  0  0  0  0  0  0  0
  1  2  1  0
  2  3  1  0
  2  6  2  0
  3  4  1  0
  4  5  2  0
  5  6  1  0
  5 36  1  0
  6  7  1  0
  7  8  2  0
  8  9  1  0
  8 33  1  0
  9 10  1  0
 10 11  2  0
 10 32  1  0
 11 12  1  0
 11 19  1  0
 12 13  1  0
 13 14  2  0
 13 18  1  0
 14 15  1  0
 15 16  2  0
 16 17  1  0
 17 18  2  0
 19 20  1  0
 20 21  1  6
 20 31  1  0
 21 22  1  0
 22 23  2  0
 22 24  1  0
 24 25  1  0
 25 26  2  0
 25 29  1  0
 26 27  1  0
 27 28  1  0
 28 29  2  0
 29 30  1  0
 31 32  1  0
 33 34  1  1
 33 35  1  0
 33 36  1  0
M  CHG  1  20   1
M  END
