
     RDKit          3D

 36 40  0  0  0  0  0  0  0  0999 V2000
   -8.8700   -1.4290   -2.2210 C   0  0  0  0  0  0  0  0  0  0  0  0
   -8.3390   -0.7560   -1.2500 O   0  0  0  0  0  0  0  0  0  0  0  0
   -7.9920    0.0070   -0.2660 C   0  0  0  0  0  0  0  0  0  0  0  0
   -8.8800    0.9120    0.2990 C   0  0  0  0  0  0  0  0  0  0  0  0
   -8.5070    1.6910    1.3110 N   0  0  0  0  0  0  0  0  0  0  0  0
   -7.2870    1.6480    1.8280 C   0  0  0  0  0  0  0  0  0  0  0  0
   -6.3530    0.7750    1.3200 C   0  0  0  0  0  0  0  0  0  0  0  0
   -5.0230    0.4630    1.6010 C   0  0  0  0  0  0  0  0  0  0  0  0
   -4.6580   -0.5150    0.7180 C   0  0  0  0  0  0  0  0  0  0  0  0
   -3.3200   -1.1840    0.6180 C   0  0  0  0  0  0  0  0  0  0  0  0
   -2.4180   -0.7590    1.6280 N   0  0  0  0  0  0  0  0  0  0  0  0
   -1.0100   -0.7470    1.2430 C   0  0  0  0  0  0  0  0  0  0  0  0
   -0.7410    0.0110    0.0220 C   0  0  1  0  0  0  0  0  0  0  0  0
   -1.1300    1.4800    0.1350 C   0  0  0  0  0  0  0  0  0  0  0  0
   -0.3680    2.1120   -1.0020 C   0  0  0  0  0  0  0  0  0  0  0  0
    0.5290    1.0060   -1.5330 C   0  0  0  0  0  0  0  0  0  0  0  0
    0.6970    0.1660   -0.3470 N   0  0  0  0  0  0  0  0  0  0  0  0
    1.7380   -0.3790    0.3510 C   0  0  0  0  0  0  0  0  0  0  0  0
    1.4190   -1.1350    1.3570 O   0  0  0  0  0  0  0  0  0  0  0  0
    3.1720   -0.2660    0.1680 C   0  0  0  0  0  0  0  0  0  0  0  0
    4.0430   -1.0660    0.9150 C   0  0  0  0  0  0  0  0  0  0  0  0
    5.4070   -1.0350    0.8570 C   0  0  0  0  0  0  0  0  0  0  0  0
    6.2570   -1.9040    1.6730 C   0  0  0  0  0  0  0  0  0  0  0  0
    7.6320   -1.9330    1.6490 C   0  0  0  0  0  0  0  0  0  0  0  0
    8.0570   -2.8830    2.5590 C   0  0  0  0  0  0  0  0  0  0  0  0
    6.8920   -3.3910    3.0980 C   0  0  0  0  0  0  0  0  0  0  0  0
    6.8900   -4.6460    4.3210 Cl  0  0  0  0  0  0  0  0  0  0  0  0
    5.8520   -2.7780    2.5400 O   0  0  0  0  0  0  0  0  0  0  0  0
    5.9570   -0.1540    0.0030 N   0  0  0  0  0  0  0  0  0  0  0  0
    5.1940    0.6520   -0.7520 C   0  0  0  0  0  0  0  0  0  0  0  0
    5.7720    1.5780   -1.6540 N   0  0  0  0  0  0  0  0  0  0  0  0
    6.1830    2.9090   -1.2610 C   0  0  0  0  0  0  0  0  0  0  0  0
    5.9620    1.1790   -3.0290 C   0  0  0  0  0  0  0  0  0  0  0  0
    3.7920    0.6130   -0.6840 C   0  0  0  0  0  0  0  0  0  0  0  0
   -5.7000   -0.7650   -0.0350 O   0  0  0  0  0  0  0  0  0  0  0  0
   -6.7150   -0.0290    0.2870 C   0  0  0  0  0  0  0  0  0  0  0  0
  1  2  1  0
  2  3  1  0
  3  4  2  0
  3 36  1  0
  4  5  1  0
  5  6  2  0
  6  7  1  0
  7  8  1  0
  7 36  2  0
  8  9  2  0
  9 10  1  0
  9 35  1  0
 10 11  1  0
 11 12  1  0
 13 12  1  1
 13 14  1  0
 13 17  1  0
 14 15  1  0
 15 16  1  0
 16 17  1  0
 17 18  1  0
 18 19  2  0
 18 20  1  0
 20 21  2  0
 20 34  1  0
 21 22  1  0
 22 23  1  0
 22 29  2  0
 23 24  2  0
 23 28  1  0
 24 25  1  0
 25 26  2  0
 26 27  1  0
 26 28  1  0
 29 30  1  0
 30 31  1  0
 30 34  2  0
 31 32  1  0
 31 33  1  0
 35 36  1  0
M  CHG  1  11   1
M  END
