
     RDKit          3D

 36 40  0  0  0  0  0  0  0  0999 V2000
    6.9790   -2.9030   -1.4780 C   0  0  0  0  0  0  0  0  0  0  0  0
    7.5020   -2.0120   -0.4020 C   0  0  1  0  0  0  0  0  0  0  0  0
    8.4800   -0.9620   -0.8920 C   0  0  0  0  0  0  0  0  0  0  0  0
    8.5160   -0.0260    0.3100 C   0  0  0  0  0  0  0  0  0  0  0  0
    7.3830   -0.4690    1.2170 C   0  0  0  0  0  0  0  0  0  0  0  0
    6.5170   -1.2320    0.2870 N   0  0  1  0  0  0  0  0  0  0  0  0
    5.8830   -0.2190   -0.5200 C   0  0  0  0  0  0  0  0  0  0  0  0
    4.8810    0.4890    0.3640 C   0  0  0  0  0  0  0  0  0  0  0  0
    4.4250   -0.1610    1.3290 O   0  0  0  0  0  0  0  0  0  0  0  0
    4.5320    1.7870    0.0700 O   0  0  0  0  0  0  0  0  0  0  0  0
    3.6160    2.5040    0.8190 C   0  0  0  0  0  0  0  0  0  0  0  0
    2.2530    1.9730    0.6650 C   0  0  0  0  0  0  0  0  0  0  0  0
    1.2850    2.5910    1.2490 O   0  0  0  0  0  0  0  0  0  0  0  0
    1.8540    0.8350   -0.0720 N   0  0  0  0  0  0  0  0  0  0  0  0
    0.4520    0.5160   -0.2280 C   0  0  0  0  0  0  0  0  0  0  0  0
   -0.1110   -0.5280   -0.8350 N   0  0  0  0  0  0  0  0  0  0  0  0
   -1.4550   -0.4240   -0.7570 N   0  0  0  0  0  0  0  0  0  0  0  0
   -1.7130    0.7080   -0.0880 C   0  0  0  0  0  0  0  0  0  0  0  0
   -3.0330    1.2910    0.2630 C   0  0  0  0  0  0  0  0  0  0  0  0
   -3.0810    2.3980    1.0810 C   0  0  0  0  0  0  0  0  0  0  0  0
   -4.2360    3.0650    1.3800 C   0  0  0  0  0  0  0  0  0  0  0  0
   -5.4200    2.5990    0.8280 C   0  0  0  0  0  0  0  0  0  0  0  0
   -6.6470    3.0830    0.9340 N   0  0  0  0  0  0  0  0  0  0  0  0
   -7.4230    2.2800    0.1750 C   0  0  0  0  0  0  0  0  0  0  0  0
   -6.7060    1.2850   -0.4150 C   0  0  0  0  0  0  0  0  0  0  0  0
   -7.1440    0.2050   -1.3020 C   0  0  0  0  0  0  0  0  0  0  0  0
   -7.3090   -1.0570   -0.5790 C   0  0  0  0  0  0  0  0  0  0  0  0
   -6.3580   -2.0680   -0.5780 C   0  0  0  0  0  0  0  0  0  0  0  0
   -6.5670   -3.2180    0.1370 C   0  0  0  0  0  0  0  0  0  0  0  0
   -7.7010   -3.4470    0.8830 C   0  0  0  0  0  0  0  0  0  0  0  0
   -8.6510   -2.4620    0.8930 C   0  0  0  0  0  0  0  0  0  0  0  0
   -8.4450   -1.2910    0.1690 C   0  0  0  0  0  0  0  0  0  0  0  0
   -9.7200   -0.0950    0.1960 Cl  0  0  0  0  0  0  0  0  0  0  0  0
   -5.3920    1.4780   -0.0000 C   0  0  0  0  0  0  0  0  0  0  0  0
   -4.1980    0.8350   -0.2740 C   0  0  0  0  0  0  0  0  0  0  0  0
   -0.5520    1.2330    0.2110 O   0  0  0  0  0  0  0  0  0  0  0  0
  2  1  1  6
  2  3  1  0
  2  6  1  0
  3  4  1  0
  4  5  1  0
  5  6  1  0
  6  7  1  6
  7  8  1  0
  8  9  2  0
  8 10  1  0
 10 11  1  0
 11 12  1  0
 12 13  2  0
 12 14  1  0
 14 15  1  0
 15 16  2  0
 15 36  1  0
 16 17  1  0
 17 18  2  0
 18 19  1  0
 18 36  1  0
 19 20  2  0
 19 35  1  0
 20 21  1  0
 21 22  2  0
 22 23  1  0
 22 34  1  0
 23 24  1  0
 24 25  2  0
 25 26  1  0
 25 34  1  0
 26 27  1  0
 27 28  2  0
 27 32  1  0
 28 29  1  0
 29 30  2  0
 30 31  1  0
 31 32  2  0
 32 33  1  0
 34 35  2  0
M  CHG  1   6   1
M  END
