
     RDKit          3D

 33 36  0  0  0  0  0  0  0  0999 V2000
    4.9850   -3.3690    0.2590 C   0  0  0  0  0  0  0  0  0  0  0  0
    5.3370   -2.0860    1.0120 C   0  0  0  0  0  0  0  0  0  0  0  0
    4.8990   -0.9190    0.2980 N   0  0  0  0  0  0  0  0  0  0  0  0
    5.1130    0.4060    0.6470 N   0  0  0  0  0  0  0  0  0  0  0  0
    5.8410    0.8470    1.6830 C   0  0  0  0  0  0  0  0  0  0  0  0
    6.6180    0.1160    2.7080 C   0  0  0  0  0  0  0  0  0  0  0  0
    8.0640   -0.0750    2.2420 C   0  0  0  0  0  0  0  0  0  0  0  0
    5.7640    2.2180    1.6270 N   0  0  0  0  0  0  0  0  0  0  0  0
    5.0350    2.5570    0.6200 N   0  0  0  0  0  0  0  0  0  0  0  0
    4.5890    1.4670   -0.0440 C   0  0  0  0  0  0  0  0  0  0  0  0
    3.7000    1.4180   -1.2240 C   0  0  1  0  0  0  0  0  0  0  0  0
    4.4190    0.7590   -2.4120 C   0  0  0  0  0  0  0  0  0  0  0  0
    2.4280    0.8150   -1.0190 N   0  0  0  0  0  0  0  0  0  0  0  0
    1.2330    1.5610   -1.2350 C   0  0  0  0  0  0  0  0  0  0  0  0
    1.3690    2.7530   -1.6070 O   0  0  0  0  0  0  0  0  0  0  0  0
   -0.1170    0.9830   -1.0360 C   0  0  0  0  0  0  0  0  0  0  0  0
   -1.2070    1.9900   -1.3280 C   0  0  0  0  0  0  0  0  0  0  0  0
   -2.4990    1.2790   -1.0930 C   0  0  0  0  0  0  0  0  0  0  0  0
   -3.0420    0.3750   -1.9510 C   0  0  0  0  0  0  0  0  0  0  0  0
   -2.5370   -0.1180   -3.2630 C   0  0  0  0  0  0  0  0  0  0  0  0
   -4.1960   -0.0430   -1.3930 N   0  0  0  0  0  0  0  0  0  0  0  0
   -4.4460    0.5340   -0.2150 C   0  0  0  0  0  0  0  0  0  0  0  0
   -5.5450    0.2840    0.7280 C   0  0  0  0  0  0  0  0  0  0  0  0
   -5.9700    1.3260    1.4970 N   0  0  0  0  0  0  0  0  0  0  0  0
   -7.0370    1.1980    2.3270 C   0  0  0  0  0  0  0  0  0  0  0  0
   -7.7010    0.0370    2.4080 N   0  0  0  0  0  0  0  0  0  0  0  0
   -7.3470   -1.0330    1.6880 C   0  0  0  0  0  0  0  0  0  0  0  0
   -6.2420   -0.9030    0.8300 C   0  0  0  0  0  0  0  0  0  0  0  0
   -6.0570   -2.2450    0.2530 C   0  0  0  0  0  0  0  0  0  0  0  0
   -7.4930   -2.8090    0.2700 C   0  0  0  0  0  0  0  0  0  0  0  0
   -7.8920   -2.3480    1.5830 N   0  0  0  0  0  0  0  0  0  0  0  0
   -3.3630    1.3840   -0.0110 C   0  0  0  0  0  0  0  0  0  0  0  0
   -3.0800    2.2580    1.1460 C   0  0  0  0  0  0  0  0  0  0  0  0
  1  2  1  0
  2  3  1  0
  3  4  1  0
  4  5  1  0
  4 10  1  0
  5  6  1  0
  5  8  2  0
  6  7  1  0
  8  9  1  0
  9 10  2  0
 10 11  1  0
 11 12  1  6
 11 13  1  0
 13 14  1  0
 14 15  2  0
 14 16  1  0
 16 17  1  0
 17 18  1  0
 18 19  2  0
 18 32  1  0
 19 20  1  0
 19 21  1  0
 21 22  1  0
 22 23  1  0
 22 32  2  0
 23 24  2  0
 23 28  1  0
 24 25  1  0
 25 26  2  0
 26 27  1  0
 27 28  2  0
 27 31  1  0
 28 29  1  0
 29 30  1  0
 30 31  1  0
 32 33  1  0
M  CHG  1  24   1
M  END
