
     RDKit          3D

 33 36  0  0  0  0  0  0  0  0999 V2000
   -2.6870   -5.5230   -1.0100 C   0  0  0  0  0  0  0  0  0  0  0  0
   -2.7000   -4.0880   -1.1960 N   0  0  0  0  0  0  0  0  0  0  0  0
   -2.4170   -3.2600   -0.0660 C   0  0  0  0  0  0  0  0  0  0  0  0
   -2.1350   -3.6520    1.1780 N   0  0  0  0  0  0  0  0  0  0  0  0
   -1.9340   -2.6320    1.9540 N   0  0  0  0  0  0  0  0  0  0  0  0
   -2.0830   -1.4950    1.2170 C   0  0  0  0  0  0  0  0  0  0  0  0
   -2.3860   -1.8530   -0.0550 C   0  0  0  0  0  0  0  0  0  0  0  0
   -2.6220   -1.0300   -1.2210 C   0  0  0  0  0  0  0  0  0  0  0  0
   -2.5870    0.3740   -1.0700 N   0  0  0  0  0  0  0  0  0  0  0  0
   -3.5840    0.9220   -0.2910 C   0  0  0  0  0  0  0  0  0  0  0  0
   -3.7820    2.3390   -0.5540 C   0  0  0  0  0  0  0  0  0  0  0  0
   -3.2020    3.1340   -1.3090 O   0  0  0  0  0  0  0  0  0  0  0  0
   -4.8060    3.0010    0.1170 N   0  0  0  0  0  0  0  0  0  0  0  0
   -5.0690    4.3820   -0.0350 C   0  0  0  0  0  0  0  0  0  0  0  0
   -6.2820    4.6240    0.2110 N   0  0  0  0  0  0  0  0  0  0  0  0
   -6.5770    6.0070    0.0780 C   0  0  0  0  0  0  0  0  0  0  0  0
   -5.2710    6.6600   -0.1830 C   0  0  0  0  0  0  0  0  0  0  0  0
   -4.4430    5.6540   -0.2510 C   0  0  0  0  0  0  0  0  0  0  0  0
   -1.3330    0.9540   -1.2840 C   0  0  0  0  0  0  0  0  0  0  0  0
   -0.2140    0.4000   -0.4310 C   0  0  0  0  0  0  0  0  0  0  0  0
    0.5720   -0.7060   -0.7400 C   0  0  0  0  0  0  0  0  0  0  0  0
    1.4810   -0.8860    0.2770 C   0  0  0  0  0  0  0  0  0  0  0  0
    2.5150   -1.9440    0.3570 C   0  0  0  0  0  0  0  0  0  0  0  0
    3.7930   -1.5070   -0.1930 N   0  0  2  0  0  0  0  0  0  0  0  0
    4.8710   -1.9950    0.5940 C   0  0  0  0  0  0  0  0  0  0  0  0
    5.6730   -0.9580    1.3230 C   0  0  0  0  0  0  0  0  0  0  0  0
    6.3320    0.0510    0.4470 C   0  0  0  0  0  0  0  0  0  0  0  0
    6.2920   -0.2520   -1.0140 C   0  0  0  0  0  0  0  0  0  0  0  0
    4.9360    0.1090   -1.5420 C   0  0  0  0  0  0  0  0  0  0  0  0
    3.8350   -0.1040   -0.5050 C   0  0  0  0  0  0  0  0  0  0  0  0
    1.2490    0.0820    1.1740 N   0  0  0  0  0  0  0  0  0  0  0  0
    2.0050    0.2460    2.4280 C   0  0  0  0  0  0  0  0  0  0  0  0
    0.2500    0.8330    0.7480 N   0  0  0  0  0  0  0  0  0  0  0  0
  1  2  1  0
  2  3  1  0
  3  4  2  0
  3  7  1  0
  4  5  1  0
  5  6  1  0
  6  7  2  0
  7  8  1  0
  8  9  1  0
  9 10  1  0
  9 19  1  0
 10 11  1  0
 11 12  2  0
 11 13  1  0
 13 14  1  0
 14 15  2  0
 14 18  1  0
 15 16  1  0
 16 17  1  0
 17 18  2  0
 19 20  1  0
 20 21  1  0
 20 33  2  0
 21 22  2  0
 22 23  1  0
 22 31  1  0
 24 23  1  1
 24 25  1  0
 24 30  1  0
 25 26  1  0
 26 27  1  0
 27 28  1  0
 28 29  1  0
 29 30  1  0
 31 32  1  0
 31 33  1  0
M  CHG  1  24   1
M  END
