
     RDKit          3D

 33 36  0  0  0  0  0  0  0  0999 V2000
   -8.1410    1.5810    2.4120 C   0  0  0  0  0  0  0  0  0  0  0  0
   -8.2800    1.0510    1.2250 C   0  0  0  0  0  0  0  0  0  0  0  0
   -7.1170    0.6390    0.4720 C   0  0  0  0  0  0  0  0  0  0  0  0
   -7.2430    0.1070   -0.7230 C   0  0  0  0  0  0  0  0  0  0  0  0
   -8.6420   -0.0500   -1.2580 C   0  0  0  0  0  0  0  0  0  0  0  0
   -5.7570    0.7910    1.0590 C   0  0  0  0  0  0  0  0  0  0  0  0
   -4.6910    0.3100    0.3030 N   0  0  0  0  0  0  0  0  0  0  0  0
   -4.5040   -1.0620    0.1000 C   0  0  0  0  0  0  0  0  0  0  0  0
   -3.7670   -1.4180   -1.1640 C   0  0  0  0  0  0  0  0  0  0  0  0
   -2.4830   -0.7550   -1.1390 N   0  0  2  0  0  0  0  0  0  0  0  0
   -1.7090   -1.2660   -0.0110 C   0  0  0  0  0  0  0  0  0  0  0  0
   -0.2750   -1.2840   -0.2960 C   0  0  0  0  0  0  0  0  0  0  0  0
    0.6200   -0.6310    0.4190 C   0  0  0  0  0  0  0  0  0  0  0  0
    0.3420    0.1970    1.5870 C   0  0  0  0  0  0  0  0  0  0  0  0
    2.0160   -0.7420   -0.0290 C   0  0  0  0  0  0  0  0  0  0  0  0
    2.3440   -1.4470   -1.1290 N   0  0  0  0  0  0  0  0  0  0  0  0
    3.5710   -1.5620   -1.5600 N   0  0  0  0  0  0  0  0  0  0  0  0
    4.5690   -0.9590   -0.8900 C   0  0  0  0  0  0  0  0  0  0  0  0
    4.3380   -0.2380    0.2160 N   0  0  0  0  0  0  0  0  0  0  0  0
    3.0340   -0.1350    0.6430 C   0  0  0  0  0  0  0  0  0  0  0  0
    2.8570    0.5450    1.6770 O   0  0  0  0  0  0  0  0  0  0  0  0
    5.3660    0.4160    0.9420 C   0  0  0  0  0  0  0  0  0  0  0  0
    6.6460    0.3670    0.5850 C   0  0  0  0  0  0  0  0  0  0  0  0
    7.6860    1.0640    1.3720 C   0  0  0  0  0  0  0  0  0  0  0  0
    9.0100    0.9360    0.8130 N   0  0  0  0  0  0  0  0  0  0  0  0
    9.2830    0.1810   -0.3520 C   0  0  0  0  0  0  0  0  0  0  0  0
   10.5070    0.1190   -0.7580 N   0  0  0  0  0  0  0  0  0  0  0  0
   10.8210   -0.6480   -1.9480 C   0  0  0  0  0  0  0  0  0  0  0  0
    8.2140   -0.4640   -1.0160 N   0  0  0  0  0  0  0  0  0  0  0  0
    6.9860   -0.3970   -0.6090 C   0  0  0  0  0  0  0  0  0  0  0  0
    5.9290   -1.0480   -1.3240 N   0  0  0  0  0  0  0  0  0  0  0  0
   -2.6700    0.6440   -1.0520 C   0  0  0  0  0  0  0  0  0  0  0  0
   -3.6340    1.1710   -0.0670 C   0  0  0  0  0  0  0  0  0  0  0  0
  1  2  2  0
  2  3  1  0
  3  4  2  3
  3  6  1  0
  4  5  1  0
  6  7  1  0
  7  8  1  0
  7 33  1  0
  8  9  1  0
  9 10  1  0
 10 11  1  1
 10 32  1  0
 11 12  1  0
 12 13  2  3
 13 14  1  0
 13 15  1  0
 15 16  2  0
 15 20  1  0
 16 17  1  0
 17 18  2  0
 18 19  1  0
 18 31  1  0
 19 20  1  0
 19 22  1  0
 20 21  2  0
 22 23  2  0
 23 24  1  0
 23 30  1  0
 24 25  1  0
 25 26  1  0
 26 27  2  3
 26 29  1  0
 27 28  1  0
 29 30  2  0
 30 31  1  0
 32 33  1  0
M  CHG  1  10   1
M  END
