
     RDKit          3D

 33 36  0  0  0  0  0  0  0  0999 V2000
    4.2480    0.2000   -3.3400 C   0  0  0  0  0  0  0  0  0  0  0  0
    3.8900    0.0240   -1.8980 C   0  0  0  0  0  0  0  0  0  0  0  0
    2.5450   -0.1770   -1.6210 C   0  0  0  0  0  0  0  0  0  0  0  0
    2.0900   -0.3510   -0.3390 C   0  0  0  0  0  0  0  0  0  0  0  0
    0.6780   -0.5570   -0.0930 C   0  0  0  0  0  0  0  0  0  0  0  0
    0.2100   -0.7270    1.1170 N   0  0  0  0  0  0  0  0  0  0  0  0
   -1.1630   -0.9220    1.2990 N   0  0  0  0  0  0  0  0  0  0  0  0
   -1.7860   -2.0480    1.6900 C   0  0  0  0  0  0  0  0  0  0  0  0
   -3.1140   -1.8430    1.7480 N   0  0  0  0  0  0  0  0  0  0  0  0
   -3.3790   -0.5740    1.3950 C   0  0  0  0  0  0  0  0  0  0  0  0
   -4.6860    0.1350    1.3010 C   0  0  0  0  0  0  0  0  0  0  0  0
   -5.7680   -0.7270    1.6550 N   0  0  0  0  0  0  0  0  0  0  0  0
   -6.4820   -1.2840    0.5470 C   0  0  2  0  0  0  0  0  0  0  0  0
   -6.8150   -2.7460    0.7160 C   0  0  0  0  0  0  0  0  0  0  0  0
   -7.2870   -3.1180   -0.6800 C   0  0  0  0  0  0  0  0  0  0  0  0
   -6.2460   -2.4430   -1.5560 C   0  0  0  0  0  0  0  0  0  0  0  0
   -5.7170   -1.2700   -0.7460 C   0  0  0  0  0  0  0  0  0  0  0  0
   -2.1430   -0.0000    1.1130 C   0  0  0  0  0  0  0  0  0  0  0  0
   -1.9410    1.3620    0.6890 C   0  0  0  0  0  0  0  0  0  0  0  0
   -0.7540    1.7960    0.4530 N   0  0  0  0  0  0  0  0  0  0  0  0
   -0.4570    3.0810    0.0440 N   0  0  0  0  0  0  0  0  0  0  0  0
   -1.1410    4.2100    0.6790 C   0  0  0  0  0  0  0  0  0  0  0  0
    0.5090    3.3540   -0.9930 C   0  0  0  0  0  0  0  0  0  0  0  0
    3.0300   -0.3200    0.6720 C   0  0  0  0  0  0  0  0  0  0  0  0
    4.3590   -0.1200    0.3670 C   0  0  0  0  0  0  0  0  0  0  0  0
    5.3430   -0.0860    1.3940 N   0  0  0  0  0  0  0  0  0  0  0  0
    6.7280    0.1220    1.1120 C   0  0  1  0  0  0  0  0  0  0  0  0
    7.3260   -0.9110    0.2090 C   0  0  0  0  0  0  0  0  0  0  0  0
    8.3840   -0.2090   -0.5010 N   0  0  0  0  0  0  0  0  0  0  0  0
    8.2620    1.1770   -0.3340 C   0  0  0  0  0  0  0  0  0  0  0  0
    9.0410    2.0590   -0.7600 O   0  0  0  0  0  0  0  0  0  0  0  0
    7.0350    1.4410    0.4440 C   0  0  0  0  0  0  0  0  0  0  0  0
    4.7870    0.0520   -0.9140 N   0  0  0  0  0  0  0  0  0  0  0  0
  1  2  1  0
  2  3  2  0
  2 33  1  0
  3  4  1  0
  4  5  1  0
  4 24  2  0
  5  6  2  3
  6  7  1  0
  7  8  1  0
  7 18  1  0
  8  9  2  0
  9 10  1  0
 10 11  1  0
 10 18  2  0
 11 12  1  0
 13 12  1  1
 13 14  1  0
 13 17  1  0
 14 15  1  0
 15 16  1  0
 16 17  1  0
 18 19  1  0
 19 20  2  3
 20 21  1  0
 21 22  1  0
 21 23  1  0
 24 25  1  0
 25 26  1  0
 25 33  2  0
 27 26  1  6
 27 28  1  0
 27 32  1  0
 28 29  1  0
 29 30  1  0
 30 31  2  0
 30 32  1  0
M  CHG  1  12   1
M  END
