
     RDKit          3D

 33 36  0  0  0  0  0  0  0  0999 V2000
    8.2100   -0.5620   -1.1980 C   0  0  0  0  0  0  0  0  0  0  0  0
    6.6980   -0.3590   -1.2830 C   0  0  0  0  0  0  0  0  0  0  0  0
    6.1690    0.1500    0.0420 C   0  0  0  0  0  0  0  0  0  0  0  0
    4.7880    0.3340    0.0630 O   0  0  0  0  0  0  0  0  0  0  0  0
    4.1480    1.1970   -0.7860 C   0  0  0  0  0  0  0  0  0  0  0  0
    4.7640    1.9620   -1.7310 N   0  0  0  0  0  0  0  0  0  0  0  0
    4.0550    2.7890   -2.5280 C   0  0  0  0  0  0  0  0  0  0  0  0
    2.7070    2.8470   -2.3740 N   0  0  0  0  0  0  0  0  0  0  0  0
    2.0520    2.1060   -1.4530 C   0  0  0  0  0  0  0  0  0  0  0  0
    2.7530    1.2630   -0.6360 C   0  0  0  0  0  0  0  0  0  0  0  0
    2.1790    0.4470    0.3400 N   0  0  0  0  0  0  0  0  0  0  0  0
    1.7490    0.7480    1.5010 C   0  0  0  0  0  0  0  0  0  0  0  0
    1.7940    2.0970    2.0190 C   0  0  0  0  0  0  0  0  0  0  0  0
    1.3660    2.2890    3.2390 N   0  0  0  0  0  0  0  0  0  0  0  0
    0.8980    1.2090    3.9720 N   0  0  0  0  0  0  0  0  0  0  0  0
    0.8200    0.0120    3.6190 N   0  0  0  0  0  0  0  0  0  0  0  0
    1.2360   -0.4100    2.3230 C   0  0  1  0  0  0  0  0  0  0  0  0
    0.4100   -1.3030    1.6480 N   0  0  0  0  0  0  0  0  0  0  0  0
   -0.8830   -0.9940    1.1880 C   0  0  2  0  0  0  0  0  0  0  0  0
   -1.7680   -2.0960    1.8030 C   0  0  0  0  0  0  0  0  0  0  0  0
   -1.3310   -3.4060    1.3590 N   0  0  0  0  0  0  0  0  0  0  0  0
   -2.1970   -3.9440    0.3480 C   0  0  0  0  0  0  0  0  0  0  0  0
   -1.0000   -0.9150   -0.3000 C   0  0  0  0  0  0  0  0  0  0  0  0
   -2.3740   -0.6400   -0.8300 C   0  0  0  0  0  0  0  0  0  0  0  0
   -3.2780   -0.2710    0.1770 N   0  0  0  0  0  0  0  0  0  0  0  0
   -4.6540   -0.3190   -0.0570 C   0  0  0  0  0  0  0  0  0  0  0  0
   -5.2490    0.6670   -0.9600 C   0  0  0  0  0  0  0  0  0  0  0  0
   -4.6490    1.6510   -1.5760 C   0  0  0  0  0  0  0  0  0  0  0  0
   -5.6470    2.3790   -2.3750 C   0  0  0  0  0  0  0  0  0  0  0  0
   -6.9110    1.6600   -2.1270 C   0  0  0  0  0  0  0  0  0  0  0  0
   -6.6910    0.6600   -1.3030 C   0  0  0  0  0  0  0  0  0  0  0  0
   -2.8290    0.5590    1.2270 C   0  0  0  0  0  0  0  0  0  0  0  0
   -1.4540    0.2970    1.7450 C   0  0  0  0  0  0  0  0  0  0  0  0
  1  2  1  0
  2  3  1  0
  3  4  1  0
  4  5  1  0
  5  6  2  0
  5 10  1  0
  6  7  1  0
  7  8  2  0
  8  9  1  0
  9 10  2  0
 10 11  1  0
 11 12  2  3
 12 13  1  0
 12 17  1  0
 13 14  2  0
 14 15  1  0
 15 16  2  0
 16 17  1  0
 17 18  1  6
 18 19  1  0
 19 20  1  1
 19 23  1  0
 19 33  1  0
 20 21  1  0
 21 22  1  0
 23 24  1  0
 24 25  1  0
 25 26  1  0
 25 32  1  0
 26 27  1  0
 27 28  2  0
 27 31  1  0
 28 29  1  0
 29 30  1  0
 30 31  2  0
 32 33  1  0
M  CHG  1  21   1
M  END
