
     RDKit          3D

 32 35  0  0  0  0  0  0  0  0999 V2000
   -0.5010    5.0610    1.0800 C   0  0  0  0  0  0  0  0  0  0  0  0
   -1.0980    3.7210    0.7490 C   0  0  0  0  0  0  0  0  0  0  0  0
   -1.5360    2.8640    1.7340 C   0  0  0  0  0  0  0  0  0  0  0  0
   -2.0830    1.6260    1.4190 C   0  0  0  0  0  0  0  0  0  0  0  0
   -2.2120    1.2010    0.1170 C   0  0  0  0  0  0  0  0  0  0  0  0
   -2.8210   -0.0510   -0.1480 N   0  0  0  0  0  0  0  0  0  0  0  0
   -4.1850   -0.1540    0.0140 N   0  0  0  0  0  0  0  0  0  0  0  0
   -4.5760   -1.3620   -0.3300 C   0  0  0  0  0  0  0  0  0  0  0  0
   -5.9560   -1.9040   -0.3130 C   0  0  2  0  0  0  0  0  0  0  0  0
   -5.9120   -3.1630    0.5310 C   0  0  0  0  0  0  0  0  0  0  0  0
   -6.3660   -2.3390   -1.7280 C   0  0  0  0  0  0  0  0  0  0  0  0
   -6.9480   -0.9330    0.2220 C   0  0  0  0  0  0  0  0  0  0  0  0
   -3.4420   -2.0260   -0.7120 C   0  0  0  0  0  0  0  0  0  0  0  0
   -2.3190   -1.1630   -0.5850 C   0  0  0  0  0  0  0  0  0  0  0  0
   -1.0200   -1.6250   -0.8420 N   0  0  0  0  0  0  0  0  0  0  0  0
    0.1940   -1.0260   -0.4960 C   0  0  0  0  0  0  0  0  0  0  0  0
    0.2280   -0.0030    0.1650 O   0  0  0  0  0  0  0  0  0  0  0  0
    1.4200   -1.6220   -0.9220 N   0  0  0  0  0  0  0  0  0  0  0  0
    2.7090   -1.1270   -0.6310 C   0  0  0  0  0  0  0  0  0  0  0  0
    3.7940   -1.6010   -1.3750 C   0  0  0  0  0  0  0  0  0  0  0  0
    5.0850   -1.2200   -1.1700 C   0  0  0  0  0  0  0  0  0  0  0  0
    5.3580   -0.3110   -0.1720 C   0  0  0  0  0  0  0  0  0  0  0  0
    6.7220    0.1070    0.0670 C   0  0  0  0  0  0  0  0  0  0  0  0
    6.9970    1.3690    0.5410 C   0  0  0  0  0  0  0  0  0  0  0  0
    8.3180    1.7050    0.7480 C   0  0  0  0  0  0  0  0  0  0  0  0
    9.3110    0.7800    0.4770 C   0  0  0  0  0  0  0  0  0  0  0  0
    9.0040   -0.4350    0.0170 N   0  0  0  0  0  0  0  0  0  0  0  0
    7.7430   -0.7920   -0.1940 C   0  0  0  0  0  0  0  0  0  0  0  0
    4.3140    0.1760    0.5790 C   0  0  0  0  0  0  0  0  0  0  0  0
    3.0050   -0.2270    0.3520 C   0  0  0  0  0  0  0  0  0  0  0  0
   -1.7680    2.0710   -0.8790 C   0  0  0  0  0  0  0  0  0  0  0  0
   -1.2250    3.3020   -0.5580 C   0  0  0  0  0  0  0  0  0  0  0  0
  1  2  1  0
  2  3  2  0
  2 32  1  0
  3  4  1  0
  4  5  2  0
  5  6  1  0
  5 31  1  0
  6  7  1  0
  6 14  1  0
  7  8  2  0
  8  9  1  0
  8 13  1  0
  9 10  1  1
  9 11  1  0
  9 12  1  0
 13 14  2  0
 14 15  1  0
 15 16  1  0
 16 17  2  0
 16 18  1  0
 18 19  1  0
 19 20  2  0
 19 30  1  0
 20 21  1  0
 21 22  2  0
 22 23  1  0
 22 29  1  0
 23 24  2  0
 23 28  1  0
 24 25  1  0
 25 26  2  0
 26 27  1  0
 27 28  2  0
 29 30  2  0
 31 32  2  0
M  END
