
     RDKit          3D

 33 36  0  0  0  0  0  0  0  0999 V2000
   -2.0060    3.2700    0.8370 C   0  0  0  0  0  0  0  0  0  0  0  0
   -2.7260    2.0320    1.3100 C   0  0  2  0  0  0  0  0  0  0  0  0
   -1.9120    1.3130    2.3300 C   0  0  0  0  0  0  0  0  0  0  0  0
   -3.1540    1.1940    0.1550 C   0  0  2  0  0  0  0  0  0  0  0  0
   -2.0960    0.7310   -0.7040 N   0  0  0  0  0  0  0  0  0  0  0  0
   -1.1070   -0.2140   -0.3330 C   0  0  0  0  0  0  0  0  0  0  0  0
    0.2530   -0.1580   -0.8950 C   0  0  0  0  0  0  0  0  0  0  0  0
    0.8870    1.0710   -0.4840 N   0  0  0  0  0  0  0  0  0  0  0  0
    2.2300    1.3950   -0.8940 C   0  0  0  0  0  0  0  0  0  0  0  0
    2.8430    0.5840   -1.6200 O   0  0  0  0  0  0  0  0  0  0  0  0
    2.8480    2.6030   -0.4890 N   0  0  0  0  0  0  0  0  0  0  0  0
    4.1910    2.9570   -0.8800 C   0  0  0  0  0  0  0  0  0  0  0  0
    5.1640    1.9410   -0.3930 C   0  0  0  0  0  0  0  0  0  0  0  0
    5.7110    0.9060   -1.1160 C   0  0  0  0  0  0  0  0  0  0  0  0
    6.5530    0.1910   -0.3330 N   0  0  0  0  0  0  0  0  0  0  0  0
    7.3150   -0.9730   -0.7420 C   0  0  0  0  0  0  0  0  0  0  0  0
    6.5370    0.7760    0.8850 C   0  0  0  0  0  0  0  0  0  0  0  0
    5.7000    1.8270    0.8410 N   0  0  0  0  0  0  0  0  0  0  0  0
   -1.4510   -1.1330    0.5130 N   0  0  0  0  0  0  0  0  0  0  0  0
   -0.5790   -2.1380    0.9740 C   0  0  0  0  0  0  0  0  0  0  0  0
    0.5720   -2.0520    1.7110 C   0  0  0  0  0  0  0  0  0  0  0  0
    1.0630   -3.2640    1.9110 N   0  0  0  0  0  0  0  0  0  0  0  0
    0.2640   -4.1580    1.3220 N   0  0  0  0  0  0  0  0  0  0  0  0
   -0.7550   -3.5030    0.7380 C   0  0  0  0  0  0  0  0  0  0  0  0
   -1.6280   -4.4320    0.1070 N   0  0  0  0  0  0  0  0  0  0  0  0
   -2.5340   -4.1590   -0.9760 C   0  0  0  0  0  0  0  0  0  0  0  0
   -1.3880   -5.6800    0.8020 C   0  0  0  0  0  0  0  0  0  0  0  0
    0.0900   -5.5710    1.0720 C   0  0  0  0  0  0  0  0  0  0  0  0
   -4.2730    1.8100   -0.6400 C   0  0  0  0  0  0  0  0  0  0  0  0
   -5.4620    1.2630   -0.8070 C   0  0  0  0  0  0  0  0  0  0  0  0
   -6.2790    2.1600   -1.6400 C   0  0  0  0  0  0  0  0  0  0  0  0
   -5.4030    3.3010   -1.9330 C   0  0  0  0  0  0  0  0  0  0  0  0
   -4.2410    3.0810   -1.3450 C   0  0  0  0  0  0  0  0  0  0  0  0
  2  1  1  6
  2  3  1  0
  2  4  1  0
  4  5  1  6
  4 29  1  0
  5  6  1  0
  6  7  1  0
  6 19  2  3
  7  8  1  0
  8  9  1  0
  9 10  2  0
  9 11  1  0
 11 12  1  0
 12 13  1  0
 13 14  2  0
 13 18  1  0
 14 15  1  0
 15 16  1  0
 15 17  1  0
 17 18  2  0
 19 20  1  0
 20 21  1  0
 20 24  2  0
 21 22  2  0
 22 23  1  0
 23 24  1  0
 23 28  1  0
 24 25  1  0
 25 26  1  0
 25 27  1  0
 27 28  1  0
 29 30  2  0
 29 33  1  0
 30 31  1  0
 31 32  1  0
 32 33  2  0
M  CHG  1  18   1
M  END
