
     RDKit          3D

 32 35  0  0  0  0  0  0  0  0999 V2000
   -4.5450    2.6510    0.7340 C   0  0  0  0  0  0  0  0  0  0  0  0
   -4.0980    1.7880   -0.2780 O   0  0  0  0  0  0  0  0  0  0  0  0
   -2.3730    1.6120   -0.2760 P   0  0  0  0  0  0  0  0  0  0  0  0
   -1.7410    2.8180    0.8380 O   0  0  0  0  0  0  0  0  0  0  0  0
   -1.9450   -0.0020    0.3360 N   0  0  0  0  0  0  0  0  0  0  0  0
   -2.8550   -0.7650    1.1170 C   0  0  0  0  0  0  0  0  0  0  0  0
   -4.0920   -0.5740    1.0060 O   0  0  0  0  0  0  0  0  0  0  0  0
   -2.3430   -1.7360    2.0110 O   0  0  0  0  0  0  0  0  0  0  0  0
   -1.1050   -2.1510    1.7920 O   0  0  0  0  0  0  0  0  0  0  0  0
   -0.2570   -1.2440    1.3130 N   0  0  0  0  0  0  0  0  0  0  0  0
   -0.6460   -0.6370    0.0740 C   0  0  2  0  0  0  0  0  0  0  0  0
    0.3630    0.3720   -0.3170 C   0  0  0  0  0  0  0  0  0  0  0  0
    1.2880    1.0030    0.7000 C   0  0  0  0  0  0  0  0  0  0  0  0
    2.0530    0.0180    1.3310 O   0  0  0  0  0  0  0  0  0  0  0  0
    2.8640    0.6770    2.1580 O   0  0  0  0  0  0  0  0  0  0  0  0
    4.3960    0.9570    1.3800 P   0  0  0  0  0  0  0  0  0  0  0  0
    5.5230   -0.4890    1.4530 C   0  0  0  0  0  0  0  0  0  0  0  0
    5.1280    2.4400    1.8700 O   0  0  0  0  0  0  0  0  0  0  0  0
    0.4760    0.7320   -1.5930 C   0  0  0  0  0  0  0  0  0  0  0  0
    1.7550    1.9970   -1.9830 P   0  0  0  0  0  0  0  0  0  0  0  0
    1.2080    3.5460   -1.5130 O   0  0  0  0  0  0  0  0  0  0  0  0
    2.3500    1.8860   -3.5810 O   0  0  0  0  0  0  0  0  0  0  0  0
   -0.3190    0.1880   -2.6100 O   0  0  0  0  0  0  0  0  0  0  0  0
   -1.2740   -0.7880   -2.2290 C   0  0  0  0  0  0  0  0  0  0  0  0
   -2.3590   -0.9370   -2.8030 O   0  0  0  0  0  0  0  0  0  0  0  0
   -0.8230   -1.6020   -1.0700 C   0  0  1  0  0  0  0  0  0  0  0  0
    0.5420   -2.2520   -1.3310 C   0  0  0  0  0  0  0  0  0  0  0  0
    0.5480   -3.1870   -0.2690 O   0  0  0  0  0  0  0  0  0  0  0  0
   -0.7180   -3.8030   -0.3770 C   0  0  2  0  0  0  0  0  0  0  0  0
   -1.1430   -3.9170   -1.6980 O   0  0  0  0  0  0  0  0  0  0  0  0
   -1.6200   -2.8140   -0.7850 C   0  0  2  0  0  0  0  0  0  0  0  0
   -2.9950   -2.8300   -0.8150 O   0  0  0  0  0  0  0  0  0  0  0  0
  1  2  1  0
  2  3  1  0
  3  4  1  0
  3  5  1  0
  5  6  1  0
  5 11  1  0
  6  7  2  0
  6  8  1  0
  8  9  1  0
  9 10  1  0
 11 10  1  1
 11 12  1  0
 11 26  1  0
 12 13  1  0
 12 19  2  0
 13 14  1  0
 14 15  1  0
 15 16  1  0
 16 17  1  0
 16 18  1  0
 19 20  1  0
 19 23  1  0
 20 21  1  0
 20 22  1  0
 23 24  1  0
 24 25  2  0
 24 26  1  0
 26 27  1  6
 26 31  1  0
 27 28  1  0
 29 28  1  6
 29 30  1  0
 29 31  1  0
 30 31  1  0
 31 32  1  1
M  END
