
     RDKit          3D

 32 34  0  0  0  0  0  0  0  0999 V2000
    6.9870   -0.6080    0.6290 C   0  0  0  0  0  0  0  0  0  0  0  0
    5.5790   -0.6250    0.5970 O   0  0  0  0  0  0  0  0  0  0  0  0
    5.1130    0.4770   -0.1110 C   0  0  2  0  0  0  0  0  0  0  0  0
    5.5890    0.4660   -1.4280 O   0  0  0  0  0  0  0  0  0  0  0  0
    5.5740    1.6620    0.4690 O   0  0  0  0  0  0  0  0  0  0  0  0
    3.6160    0.4640   -0.0760 C   0  0  1  0  0  0  0  0  0  0  0  0
    3.1910   -0.7400   -0.6780 O   0  0  0  0  0  0  0  0  0  0  0  0
    2.1010   -0.4440   -1.3440 O   0  0  0  0  0  0  0  0  0  0  0  0
    1.1400    0.5980   -0.3390 P   0  0  0  0  0  0  0  0  0  0  0  0
   -0.5720    0.1670   -0.4730 N   0  0  0  0  0  0  0  0  0  0  0  0
   -1.7050    0.8640    0.0300 C   0  0  0  0  0  0  0  0  0  0  0  0
   -2.7330    0.0410    0.1470 C   0  0  0  0  0  0  0  0  0  0  0  0
   -3.9420    0.5090    0.6180 O   0  0  0  0  0  0  0  0  0  0  0  0
   -4.2200    1.8110    1.0300 C   0  0  2  0  0  0  0  0  0  0  0  0
   -5.4400    2.2920    0.2720 C   0  0  0  0  0  0  0  0  0  0  0  0
   -3.1370    2.7140    0.9010 O   0  0  0  0  0  0  0  0  0  0  0  0
   -1.9200    2.2640    0.4260 C   0  0  0  0  0  0  0  0  0  0  0  0
   -0.9710    3.0770    0.3310 O   0  0  0  0  0  0  0  0  0  0  0  0
   -2.3020   -1.3080   -0.2920 C   0  0  2  0  0  0  0  0  0  0  0  0
   -3.2970   -2.0550   -1.0620 C   0  0  0  0  0  0  0  0  0  0  0  0
   -3.8380   -1.6600   -2.0680 O   0  0  0  0  0  0  0  0  0  0  0  0
   -1.8610   -2.0220    0.8340 O   0  0  0  0  0  0  0  0  0  0  0  0
   -2.8580   -2.1000    1.6630 O   0  0  0  0  0  0  0  0  0  0  0  0
   -3.1150   -3.4090    1.8790 N   0  0  0  0  0  0  0  0  0  0  0  0
   -1.1040   -0.9910   -1.1440 C   0  0  1  0  0  0  0  0  0  0  0  0
   -1.5200   -0.5090   -2.5270 C   0  0  0  0  0  0  0  0  0  0  0  0
   -2.4620    0.4990   -2.4360 O   0  0  0  0  0  0  0  0  0  0  0  0
    1.8080    0.5230    1.3620 C   0  0  1  0  0  0  0  0  0  0  0  0
    1.4270   -0.5810    2.0830 O   0  0  0  0  0  0  0  0  0  0  0  0
    0.7700   -0.1680    3.6370 P   0  0  0  0  0  0  0  0  0  0  0  0
    0.0370   -1.2170    4.4790 O   0  0  0  0  0  0  0  0  0  0  0  0
    3.2190    0.4800    1.2660 O   0  0  0  0  0  0  0  0  0  0  0  0
  1  2  1  0
  2  3  1  0
  3  4  1  6
  3  5  1  0
  3  6  1  0
  6  7  1  1
  6 32  1  0
  7  8  1  0
  8  9  1  0
  9 10  1  0
  9 28  1  0
 10 11  1  0
 10 25  1  0
 11 12  2  0
 11 17  1  0
 12 13  1  0
 12 19  1  0
 13 14  1  0
 14 15  1  6
 14 16  1  0
 16 17  1  0
 17 18  2  0
 19 20  1  0
 19 22  1  1
 19 25  1  0
 20 21  2  0
 22 23  1  0
 23 24  1  0
 25 26  1  6
 26 27  1  0
 28 29  1  6
 28 32  1  0
 29 30  1  0
 30 31  2  0
M  END
