
     RDKit          3D

 32 32  0  0  0  0  0  0  0  0999 V2000
    4.9760   -0.2720   -3.7180 C   0  0  0  0  0  0  0  0  0  0  0  0
    4.8090   -1.5070   -2.6490 P   0  0  0  0  0  0  0  0  0  0  0  0
    5.0720   -1.3270   -0.8230 C   0  0  2  0  0  0  0  0  0  0  0  0
    6.1210   -2.2700   -0.4510 N   0  0  0  0  0  0  0  0  0  0  0  0
    3.9050   -1.6530   -0.0900 O   0  0  0  0  0  0  0  0  0  0  0  0
    2.8910   -0.7490    0.1930 C   0  0  0  0  0  0  0  0  0  0  0  0
    1.6840   -1.1460    0.9180 C   0  0  0  0  0  0  0  0  0  0  0  0
    1.5990   -2.3450    1.2770 O   0  0  0  0  0  0  0  0  0  0  0  0
    0.6200   -0.2300    1.2250 C   0  0  0  0  0  0  0  0  0  0  0  0
    0.7380    0.9610    0.8510 O   0  0  0  0  0  0  0  0  0  0  0  0
   -0.5250   -0.6630    1.9280 N   0  0  0  0  0  0  0  0  0  0  0  0
   -1.6340    0.3070    2.2390 C   0  0  2  0  0  0  0  0  0  0  0  0
   -1.4860    0.4850    3.6200 O   0  0  0  0  0  0  0  0  0  0  0  0
   -0.8700    1.6230    3.8240 O   0  0  0  0  0  0  0  0  0  0  0  0
   -2.7720   -0.3090    1.8500 O   0  0  0  0  0  0  0  0  0  0  0  0
   -3.4780    0.2860    0.8410 C   0  0  2  0  0  0  0  0  0  0  0  0
   -2.6140    0.3910   -0.3910 C   0  0  0  0  0  0  0  0  0  0  0  0
   -3.2770    0.7820   -1.5390 O   0  0  0  0  0  0  0  0  0  0  0  0
   -4.0870   -0.0880   -2.2470 C   0  0  0  0  0  0  0  0  0  0  0  0
   -4.2510   -1.2890   -1.9100 O   0  0  0  0  0  0  0  0  0  0  0  0
   -4.7740    0.3220   -3.3840 O   0  0  0  0  0  0  0  0  0  0  0  0
   -3.8290    1.6930    1.2970 C   0  0  0  0  0  0  0  0  0  0  0  0
   -3.5030    2.0430    2.4360 O   0  0  0  0  0  0  0  0  0  0  0  0
   -4.4960    2.5200    0.4220 O   0  0  0  0  0  0  0  0  0  0  0  0
   -4.7840   -0.3460    0.6240 C   0  0  0  0  0  0  0  0  0  0  0  0
   -5.0930   -1.4720    1.0790 O   0  0  0  0  0  0  0  0  0  0  0  0
   -5.7810    0.3230   -0.1260 O   0  0  0  0  0  0  0  0  0  0  0  0
   -6.9680   -0.2670   -0.3040 O   0  0  0  0  0  0  0  0  0  0  0  0
    3.1910    0.7920   -0.3660 P   0  0  0  0  0  0  0  0  0  0  0  0
    4.7200    0.9720   -1.1990 O   0  0  0  0  0  0  0  0  0  0  0  0
    5.5600    0.0730   -0.5130 C   0  0  2  0  0  0  0  0  0  0  0  0
    6.8830    0.2510   -0.8280 O   0  0  0  0  0  0  0  0  0  0  0  0
  1  2  2  0
  2  3  1  0
  3  4  1  1
  3  5  1  0
  3 31  1  0
  5  6  1  0
  6  7  1  0
  6 29  2  0
  7  8  2  0
  7  9  1  0
  9 10  2  0
  9 11  1  0
 12 11  1  1
 12 13  1  0
 12 15  1  0
 13 14  1  0
 15 16  1  0
 16 17  1  6
 16 22  1  0
 16 25  1  0
 17 18  1  0
 18 19  1  0
 19 20  2  0
 19 21  1  0
 22 23  2  0
 22 24  1  0
 25 26  2  0
 25 27  1  0
 27 28  1  0
 29 30  1  0
 30 31  1  0
 31 32  1  6
M  END
