
     RDKit          3D

 32 34  0  0  0  0  0  0  0  0999 V2000
    5.4420    2.0700    1.1750 C   0  0  0  0  0  0  0  0  0  0  0  0
    5.0910    1.4410   -0.1790 C   0  0  2  0  0  0  0  0  0  0  0  0
    6.2050    0.8910   -0.7760 O   0  0  0  0  0  0  0  0  0  0  0  0
    4.5150    2.4130   -0.9730 O   0  0  0  0  0  0  0  0  0  0  0  0
    4.1110    0.4690    0.1170 O   0  0  0  0  0  0  0  0  0  0  0  0
    3.1100    1.1340    0.6620 O   0  0  0  0  0  0  0  0  0  0  0  0
    1.9330    0.4680    0.2890 C   0  0  1  0  0  0  0  0  0  0  0  0
    2.0260   -0.9270    0.8160 C   0  0  0  0  0  0  0  0  0  0  0  0
    1.9660   -1.7930   -0.3360 N   0  0  0  0  0  0  0  0  0  0  0  0
    1.9330   -3.2190   -0.3010 C   0  0  0  0  0  0  0  0  0  0  0  0
    1.1090   -3.9540    0.4240 C   0  0  0  0  0  0  0  0  0  0  0  0
    0.0770   -3.4690    1.3260 C   0  0  0  0  0  0  0  0  0  0  0  0
    0.0900   -3.8810    2.5220 O   0  0  0  0  0  0  0  0  0  0  0  0
   -0.8790   -2.6060    0.9310 O   0  0  0  0  0  0  0  0  0  0  0  0
   -1.8550   -2.4370   -0.4550 P   0  0  0  0  0  0  0  0  0  0  0  0
   -1.0820   -1.4230   -1.7240 O   0  0  0  0  0  0  0  0  0  0  0  0
   -1.2320   -0.0230   -1.4630 C   0  0  0  0  0  0  0  0  0  0  0  0
   -1.3940    0.2240   -0.1940 C   0  0  0  0  0  0  0  0  0  0  0  0
   -0.5480    0.8220    0.7120 O   0  0  0  0  0  0  0  0  0  0  0  0
    0.7220    1.2090    0.7260 C   0  0  0  0  0  0  0  0  0  0  0  0
    0.9600    2.3910    1.1790 O   0  0  0  0  0  0  0  0  0  0  0  0
   -2.6980   -0.1770    0.5020 C   0  0  1  0  0  0  0  0  0  0  0  0
   -2.5120   -0.3690    1.8640 O   0  0  0  0  0  0  0  0  0  0  0  0
   -3.9910    1.1310    0.2660 P   0  0  0  0  0  0  0  0  0  0  0  0
   -5.0320    0.6850   -1.0400 O   0  0  0  0  0  0  0  0  0  0  0  0
   -6.2720    0.3270   -0.4730 C   0  0  0  0  0  0  0  0  0  0  0  0
   -6.8060    1.4130    0.2300 O   0  0  0  0  0  0  0  0  0  0  0  0
   -7.0110    2.4830   -0.5450 N   0  0  0  0  0  0  0  0  0  0  0  0
   -3.1930   -1.3700    0.0040 O   0  0  0  0  0  0  0  0  0  0  0  0
    1.9560   -0.9970   -1.4880 O   0  0  0  0  0  0  0  0  0  0  0  0
    1.8460    0.3210   -1.1720 C   0  0  0  0  0  0  0  0  0  0  0  0
    1.6930    1.2890   -1.9640 O   0  0  0  0  0  0  0  0  0  0  0  0
  2  1  1  1
  2  3  1  0
  2  4  1  0
  2  5  1  0
  5  6  1  0
  7  6  1  6
  7  8  1  0
  7 20  1  0
  7 31  1  0
  8  9  1  0
  9 10  1  0
  9 30  1  0
 10 11  2  0
 11 12  1  0
 12 13  2  0
 12 14  1  0
 14 15  1  0
 15 16  1  0
 15 29  1  0
 16 17  1  0
 17 18  2  0
 18 19  1  0
 18 22  1  0
 19 20  1  0
 20 21  2  0
 22 23  1  1
 22 24  1  0
 22 29  1  0
 24 25  1  0
 25 26  1  0
 26 27  1  0
 27 28  1  0
 30 31  1  0
 31 32  2  0
M  END
