
     RDKit          3D

 32 34  0  0  0  0  0  0  0  0999 V2000
   -4.8020    2.5360    1.3860 N   0  0  0  0  0  0  0  0  0  0  0  0
   -5.1690    1.2280    0.9580 C   0  0  0  0  0  0  0  0  0  0  0  0
   -4.2520    0.4090    0.4280 N   0  0  0  0  0  0  0  0  0  0  0  0
   -4.5920   -0.8360    0.0180 C   0  0  0  0  0  0  0  0  0  0  0  0
   -5.9120   -1.2230    0.1690 C   0  0  0  0  0  0  0  0  0  0  0  0
   -5.9640   -2.4850   -0.3130 N   0  0  0  0  0  0  0  0  0  0  0  0
   -4.7510   -2.8480   -0.7330 C   0  0  0  0  0  0  0  0  0  0  0  0
   -3.8760   -1.8230   -0.5320 N   0  0  0  0  0  0  0  0  0  0  0  0
   -2.4770   -1.8390   -0.8580 C   0  0  2  0  0  0  0  0  0  0  0  0
   -1.6850   -1.5390    0.2440 O   0  0  0  0  0  0  0  0  0  0  0  0
   -0.4450   -1.1990   -0.3000 C   0  0  2  0  0  0  0  0  0  0  0  0
    0.3530   -0.5430    0.7990 C   0  0  0  0  0  0  0  0  0  0  0  0
    1.5890   -0.1750    0.3540 O   0  0  0  0  0  0  0  0  0  0  0  0
    2.5820    0.5590    1.4400 P   0  0  0  0  0  0  0  0  0  0  0  0
    1.4880    1.4170    2.0600 O   0  0  0  0  0  0  0  0  0  0  0  0
    2.8840   -0.1750    2.9140 O   0  0  0  0  0  0  0  0  0  0  0  0
    3.4710    1.8760    1.0390 O   0  0  0  0  0  0  0  0  0  0  0  0
    4.2510    1.9800   -0.2650 P   0  0  0  0  0  0  0  0  0  0  0  0
    3.9230    3.6210   -0.3320 O   0  0  0  0  0  0  0  0  0  0  0  0
    3.2790    0.9960   -1.1160 O   0  0  0  0  0  0  0  0  0  0  0  0
    5.6050    1.4860    0.5160 O   0  0  0  0  0  0  0  0  0  0  0  0
    6.3350    0.2330   -0.1380 P   0  0  0  0  0  0  0  0  0  0  0  0
    5.4700   -1.0600   -0.7870 O   0  0  0  0  0  0  0  0  0  0  0  0
    7.9870    0.2750   -0.3830 O   0  0  0  0  0  0  0  0  0  0  0  0
    6.5260   -0.5550    1.1600 O   0  0  0  0  0  0  0  0  0  0  0  0
   -0.8490   -0.2140   -1.3730 C   0  0  1  0  0  0  0  0  0  0  0  0
    0.1550   -0.1300   -2.3470 O   0  0  0  0  0  0  0  0  0  0  0  0
   -2.1060   -0.8440   -1.9310 C   0  0  1  0  0  0  0  0  0  0  0  0
   -1.8880   -1.4500   -3.1530 O   0  0  0  0  0  0  0  0  0  0  0  0
   -6.8540   -0.3810    0.7140 C   0  0  0  0  0  0  0  0  0  0  0  0
   -8.0380   -0.7110    0.8560 O   0  0  0  0  0  0  0  0  0  0  0  0
   -6.4630    0.8420    1.1030 N   0  0  0  0  0  0  0  0  0  0  0  0
  1  2  1  0
  2  3  1  0
  2 32  2  0
  3  4  1  0
  4  5  2  0
  4  8  1  0
  5  6  1  0
  5 30  1  0
  6  7  2  0
  7  8  1  0
  9  8  1  1
  9 10  1  0
  9 28  1  0
 10 11  1  0
 11 12  1  1
 11 26  1  0
 12 13  1  0
 13 14  1  0
 14 15  1  0
 14 16  1  0
 14 17  1  0
 17 18  1  0
 18 19  1  0
 18 20  1  0
 18 21  1  0
 21 22  1  0
 22 23  1  0
 22 24  1  0
 22 25  1  0
 26 27  1  6
 26 28  1  0
 28 29  1  6
 30 31  2  0
 30 32  1  0
M  CHG  1  32   1
M  END
