
     RDKit          3D

 32 34  0  0  0  0  0  0  0  0999 V2000
    1.6960   -2.8150    0.2640 C   0  0  0  0  0  0  0  0  0  0  0  0
    0.7080   -1.6650   -0.0480 C   0  0  1  0  0  0  0  0  0  0  0  0
    1.4560   -0.5640   -0.2020 O   0  0  0  0  0  0  0  0  0  0  0  0
    0.9090    0.6340   -0.4950 C   0  0  0  0  0  0  0  0  0  0  0  0
    1.9440    1.7450   -0.6300 C   0  0  1  0  0  0  0  0  0  0  0  0
    1.2200    2.9060   -0.9300 O   0  0  0  0  0  0  0  0  0  0  0  0
    2.6720    1.9930    0.6600 C   0  0  0  0  0  0  0  0  0  0  0  0
    3.4300    0.9290    1.0910 O   0  0  0  0  0  0  0  0  0  0  0  0
    4.7820    0.7840   -0.0150 P   0  0  0  0  0  0  0  0  0  0  0  0
    5.5790   -0.7370    0.2230 O   0  0  0  0  0  0  0  0  0  0  0  0
    4.0790    0.8400   -1.6430 O   0  0  0  0  0  0  0  0  0  0  0  0
    2.8310    1.4370   -1.7580 C   0  0  0  0  0  0  0  0  0  0  0  0
    2.4430    1.7310   -2.9170 O   0  0  0  0  0  0  0  0  0  0  0  0
    0.0070   -2.0120   -1.2980 N   0  0  0  0  0  0  0  0  0  0  0  0
   -1.1890   -1.6160   -1.4400 C   0  0  0  0  0  0  0  0  0  0  0  0
   -2.1830   -1.7200   -2.4190 O   0  0  0  0  0  0  0  0  0  0  0  0
   -3.3860   -1.7320   -1.8320 O   0  0  0  0  0  0  0  0  0  0  0  0
   -3.2170   -1.6150   -0.4390 C   0  0  0  0  0  0  0  0  0  0  0  0
   -1.9140   -0.8090   -0.4010 C   0  0  2  0  0  0  0  0  0  0  0  0
   -2.2820    0.4550   -0.9770 O   0  0  0  0  0  0  0  0  0  0  0  0
   -2.9620    1.3920   -0.2360 C   0  0  0  0  0  0  0  0  0  0  0  0
   -3.2410    1.0860    0.9620 O   0  0  0  0  0  0  0  0  0  0  0  0
   -3.3630    2.7170   -0.7970 C   0  0  2  0  0  0  0  0  0  0  0  0
   -4.8240    2.7570   -0.7570 N   0  0  0  0  0  0  0  0  0  0  0  0
   -2.9320    2.7730   -2.1060 O   0  0  0  0  0  0  0  0  0  0  0  0
   -1.2920   -0.7100    0.7740 O   0  0  0  0  0  0  0  0  0  0  0  0
   -0.3560   -1.6560    1.0220 C   0  0  2  0  0  0  0  0  0  0  0  0
    0.2320   -1.5610    2.3830 C   0  0  0  0  0  0  0  0  0  0  0  0
   -0.1680   -0.6470    3.1400 O   0  0  0  0  0  0  0  0  0  0  0  0
    1.1830   -2.4330    2.8200 O   0  0  0  0  0  0  0  0  0  0  0  0
    1.8930   -2.3390    4.4310 P   0  0  0  0  0  0  0  0  0  0  0  0
    2.0870   -3.6760    5.2280 O   0  0  0  0  0  0  0  0  0  0  0  0
  2  1  1  1
  2  3  1  0
  2 14  1  0
  2 27  1  0
  3  4  1  0
  4  5  1  0
  5  6  1  6
  5  7  1  0
  5 12  1  0
  7  8  1  0
  8  9  1  0
  9 10  1  0
  9 11  1  0
 11 12  1  0
 12 13  2  0
 14 15  2  0
 15 16  1  0
 15 19  1  0
 16 17  1  0
 17 18  1  0
 18 19  1  0
 19 20  1  6
 19 26  1  0
 20 21  1  0
 21 22  2  0
 21 23  1  0
 23 24  1  6
 23 25  1  0
 26 27  1  0
 27 28  1  1
 28 29  2  0
 28 30  1  0
 30 31  1  0
 31 32  2  0
M  END
