
     RDKit          3D

 32 34  0  0  0  0  0  0  0  0999 V2000
    6.5660    0.7300    0.5780 C   0  0  0  0  0  0  0  0  0  0  0  0
    5.5510    1.4880    0.2330 C   0  0  0  0  0  0  0  0  0  0  0  0
    5.6780    2.9300    0.3410 C   0  0  0  0  0  0  0  0  0  0  0  0
    6.7220    3.4970    0.7540 O   0  0  0  0  0  0  0  0  0  0  0  0
    4.6210    3.7790   -0.0160 O   0  0  0  0  0  0  0  0  0  0  0  0
    4.3010    0.9220   -0.2570 C   0  0  0  0  0  0  0  0  0  0  0  0
    3.3190    1.6260   -0.5920 O   0  0  0  0  0  0  0  0  0  0  0  0
    4.1230   -0.4650   -0.3820 O   0  0  0  0  0  0  0  0  0  0  0  0
    2.9070   -1.0090   -0.8570 C   0  0  0  0  0  0  0  0  0  0  0  0
    1.7560   -0.6550   -0.0250 C   0  0  0  0  0  0  0  0  0  0  0  0
    1.8680    0.0600    1.0000 O   0  0  0  0  0  0  0  0  0  0  0  0
    0.4390   -1.1440   -0.3920 C   0  0  0  0  0  0  0  0  0  0  0  0
    0.2660   -1.8630   -1.4060 O   0  0  0  0  0  0  0  0  0  0  0  0
   -0.6520   -0.8390    0.3520 O   0  0  0  0  0  0  0  0  0  0  0  0
   -1.9710   -1.2140    0.1530 C   0  0  1  0  0  0  0  0  0  0  0  0
   -2.1510   -3.0930    0.1750 P   0  0  0  0  0  0  0  0  0  0  0  0
   -1.5490   -3.7440    1.6430 O   0  0  0  0  0  0  0  0  0  0  0  0
   -1.5060   -3.8060   -1.2300 O   0  0  0  0  0  0  0  0  0  0  0  0
   -2.6930   -0.8330    1.3130 O   0  0  0  0  0  0  0  0  0  0  0  0
   -2.5280    0.4780    1.5030 C   0  0  2  0  0  0  0  0  0  0  0  0
   -1.2530    0.9770    1.3220 O   0  0  0  0  0  0  0  0  0  0  0  0
   -1.1530    2.2520    1.5180 O   0  0  0  0  0  0  0  0  0  0  0  0
   -3.1750    1.2110    2.5000 N   0  0  0  0  0  0  0  0  0  0  0  0
   -3.2770    2.5880    2.1540 C   0  0  0  0  0  0  0  0  0  0  0  0
   -3.5370    2.7870    0.8830 N   0  0  0  0  0  0  0  0  0  0  0  0
   -3.6510    1.2330    0.1380 P   0  0  0  0  0  0  0  0  0  0  0  0
   -2.6570    0.7550   -1.2980 C   0  0  0  0  0  0  0  0  0  0  0  0
   -2.6040   -0.7770   -1.1200 C   0  0  2  0  0  0  0  0  0  0  0  0
   -3.9710   -1.1430   -1.0290 O   0  0  0  0  0  0  0  0  0  0  0  0
   -4.2070   -2.0630   -2.0150 C   0  0  0  0  0  0  0  0  0  0  0  0
   -3.2020   -1.8190   -2.9310 O   0  0  0  0  0  0  0  0  0  0  0  0
   -2.1910   -1.4320   -2.2260 O   0  0  0  0  0  0  0  0  0  0  0  0
  1  2  2  0
  2  3  1  0
  2  6  1  0
  3  4  2  0
  3  5  1  0
  6  7  2  0
  6  8  1  0
  8  9  1  0
  9 10  1  0
 10 11  2  0
 10 12  1  0
 12 13  2  0
 12 14  1  0
 15 14  1  1
 15 16  1  0
 15 19  1  0
 15 28  1  0
 16 17  1  0
 16 18  1  0
 19 20  1  0
 20 21  1  6
 20 23  1  0
 20 26  1  0
 21 22  1  0
 23 24  1  0
 24 25  2  0
 25 26  1  0
 26 27  1  0
 28 27  1  6
 28 29  1  0
 28 32  1  0
 29 30  1  0
 30 31  1  0
 31 32  1  0
M  END
