
     RDKit          3D

 31 32  0  0  0  0  0  0  0  0999 V2000
   -3.5000   -0.0780    0.9300 C   0  0  0  0  0  0  0  0  0  0  0  0
   -3.1040    0.2830   -0.4390 C   0  0  2  0  0  0  0  0  0  0  0  0
   -4.1910    1.2020   -0.9000 N   0  0  0  0  0  0  0  0  0  0  0  0
   -3.2890   -0.9330   -1.3810 C   0  0  0  0  0  0  0  0  0  0  0  0
   -4.5710   -1.4580   -1.2020 O   0  0  0  0  0  0  0  0  0  0  0  0
   -1.9620    0.9390   -0.7150 O   0  0  0  0  0  0  0  0  0  0  0  0
   -0.7730    0.4930   -0.3160 C   0  0  1  0  0  0  0  0  0  0  0  0
    0.3460    1.3670   -1.0340 C   0  0  0  0  0  0  0  0  0  0  0  0
    1.6530    1.0970   -0.3270 C   0  0  1  0  0  0  0  0  0  0  0  0
    1.7580    2.0660    0.6910 O   0  0  0  0  0  0  0  0  0  0  0  0
    3.1730    3.0240    0.5360 P   0  0  0  0  0  0  0  0  0  0  0  0
    1.6160   -0.2870    0.2890 C   0  0  1  0  0  0  0  0  0  0  0  0
    2.7960   -0.7800    0.7630 O   0  0  0  0  0  0  0  0  0  0  0  0
    3.9640   -1.0130    0.0790 C   0  0  0  0  0  0  0  0  0  0  0  0
    3.9430   -0.7370   -1.1450 O   0  0  0  0  0  0  0  0  0  0  0  0
    5.1290   -1.5530    0.7860 C   0  0  0  0  0  0  0  0  0  0  0  0
    4.8360   -1.7620    2.1710 N   0  0  0  0  0  0  0  0  0  0  0  0
    0.7000   -0.1130    1.5070 C   0  0  0  0  0  0  0  0  0  0  0  0
    0.9040   -0.5970    2.6050 O   0  0  0  0  0  0  0  0  0  0  0  0
   -0.4420    0.7350    1.0900 C   0  0  0  0  0  0  0  0  0  0  0  0
   -1.1220    1.8760    2.0640 P   0  0  0  0  0  0  0  0  0  0  0  0
   -2.4150    3.0400    1.5300 C   0  0  0  0  0  0  0  0  0  0  0  0
   -2.3710    3.4640    0.3310 O   0  0  0  0  0  0  0  0  0  0  0  0
   -3.4310    3.4910    2.3290 O   0  0  0  0  0  0  0  0  0  0  0  0
    0.8610   -1.1400   -0.7090 C   0  0  1  0  0  0  0  0  0  0  0  0
    1.3580   -0.9400   -1.9900 O   0  0  0  0  0  0  0  0  0  0  0  0
    0.7180   -1.6690   -2.8590 O   0  0  0  0  0  0  0  0  0  0  0  0
    1.0060   -2.4660   -0.2980 O   0  0  0  0  0  0  0  0  0  0  0  0
    0.3690   -3.2600   -1.1300 O   0  0  0  0  0  0  0  0  0  0  0  0
    0.0880   -4.4260   -0.5730 O   0  0  0  0  0  0  0  0  0  0  0  0
   -0.4690   -0.7810   -0.7250 O   0  0  0  0  0  0  0  0  0  0  0  0
  2  1  1  1
  2  3  1  0
  2  4  1  0
  2  6  1  0
  4  5  1  0
  7  6  1  1
  7  8  1  0
  7 20  1  0
  7 31  1  0
  8  9  1  0
  9 10  1  1
  9 12  1  0
 10 11  1  0
 12 13  1  1
 12 18  1  0
 12 25  1  0
 13 14  1  0
 14 15  2  0
 14 16  1  0
 16 17  1  0
 18 19  2  0
 18 20  1  0
 20 21  2  3
 21 22  1  0
 22 23  2  0
 22 24  1  0
 25 26  1  6
 25 28  1  0
 25 31  1  0
 26 27  1  0
 28 29  1  0
 29 30  1  0
M  END
