
     RDKit          3D

 29 31  0  0  0  0  0  0  0  0999 V2000
   -4.6360   -1.9370    1.2060 N   0  0  0  0  0  0  0  0  0  0  0  0
   -4.3190   -0.6770    1.4530 O   0  0  0  0  0  0  0  0  0  0  0  0
   -3.0970   -0.2520    0.9530 C   0  0  2  0  0  0  0  0  0  0  0  0
   -2.0380   -1.0080    1.4850 O   0  0  0  0  0  0  0  0  0  0  0  0
   -1.7880   -2.0140    0.6090 C   0  0  2  0  0  0  0  0  0  0  0  0
   -1.3470   -3.1990    1.1460 O   0  0  0  0  0  0  0  0  0  0  0  0
   -0.5900   -3.7980    0.2910 O   0  0  0  0  0  0  0  0  0  0  0  0
   -0.4410   -3.0700   -0.7680 O   0  0  0  0  0  0  0  0  0  0  0  0
   -0.6450   -1.7270   -0.3510 C   0  0  2  0  0  0  0  0  0  0  0  0
    0.8970   -1.2230    0.5010 P   0  0  0  0  0  0  0  0  0  0  0  0
    2.0170   -0.3110   -0.2900 C   0  0  0  0  0  0  0  0  0  0  0  0
    1.7990    0.0780   -1.6000 O   0  0  0  0  0  0  0  0  0  0  0  0
    3.2560    0.1070    0.3610 C   0  0  0  0  0  0  0  0  0  0  0  0
    3.5170   -0.2160    1.5610 O   0  0  0  0  0  0  0  0  0  0  0  0
    4.1970    0.8680   -0.2910 O   0  0  0  0  0  0  0  0  0  0  0  0
    5.3950    1.2690    0.3460 C   0  0  0  0  0  0  0  0  0  0  0  0
    6.2060    0.1170    0.7840 C   0  0  0  0  0  0  0  0  0  0  0  0
    7.4500    0.2880    1.4470 N   0  0  0  0  0  0  0  0  0  0  0  0
    5.8130   -1.0590    0.5810 O   0  0  0  0  0  0  0  0  0  0  0  0
   -1.0410   -0.9210   -1.3630 O   0  0  0  0  0  0  0  0  0  0  0  0
   -1.9800    0.0480   -1.0880 C   0  0  2  0  0  0  0  0  0  0  0  0
   -2.5080    0.4860   -2.4380 C   0  0  0  0  0  0  0  0  0  0  0  0
   -3.3980    1.3630   -2.5580 O   0  0  0  0  0  0  0  0  0  0  0  0
   -2.0210   -0.0730   -3.5940 O   0  0  0  0  0  0  0  0  0  0  0  0
   -1.2320    1.2460   -0.5660 C   0  0  0  0  0  0  0  0  0  0  0  0
   -2.1310    2.3470   -0.0460 C   0  0  0  0  0  0  0  0  0  0  0  0
   -2.9510    1.5450    1.4460 P   0  0  0  0  0  0  0  0  0  0  0  0
   -4.5010    2.2320    1.7190 O   0  0  0  0  0  0  0  0  0  0  0  0
   -3.0660   -0.3560   -0.3980 O   0  0  0  0  0  0  0  0  0  0  0  0
  1  2  1  0
  3  2  1  1
  3  4  1  0
  3 27  1  0
  3 29  1  0
  5  4  1  1
  5  6  1  0
  5  9  1  0
  6  7  1  0
  7  8  1  0
  8  9  1  0
  9 10  1  1
  9 20  1  0
 10 11  2  3
 11 12  1  0
 11 13  1  0
 13 14  2  0
 13 15  1  0
 15 16  1  0
 16 17  1  0
 17 18  1  0
 17 19  2  0
 20 21  1  0
 21 22  1  6
 21 25  1  0
 21 29  1  0
 22 23  2  0
 22 24  1  0
 25 26  1  0
 26 27  1  0
 27 28  1  0
M  END
