
     RDKit          3D

 43 46  0  0  0  0  0  0  0  0999 V2000
   -4.3490   -2.5190   -0.3910 C   0  0  0  0  0  0  0  0  0  0  0  0
   -4.6520   -1.7230    0.7400 O   0  0  0  0  0  0  0  0  0  0  0  0
   -4.8470   -0.3580    0.6830 C   0  0  0  0  0  0  0  0  0  0  0  0
   -4.7460    0.2060   -0.4350 O   0  0  0  0  0  0  0  0  0  0  0  0
   -5.1710    0.4650    1.8300 C   0  0  0  0  0  0  0  0  0  0  0  0
   -4.2580    1.0650    2.6110 C   0  0  0  0  0  0  0  0  0  0  0  0
   -2.8280    0.9890    2.4200 C   0  0  0  0  0  0  0  0  0  0  0  0
   -2.1250    1.6540    3.2720 O   0  0  0  0  0  0  0  0  0  0  0  0
   -2.0600    0.3220    1.4750 N   0  0  0  0  0  0  0  0  0  0  0  0
   -0.6270    0.3100    1.3530 C   0  0  0  0  0  0  0  0  0  0  0  0
    0.0960    1.1270    2.3430 C   0  0  0  0  0  0  0  0  0  0  0  0
   -0.0060   -0.3520    0.4300 C   0  0  0  0  0  0  0  0  0  0  0  0
    1.4340   -0.3780    0.2970 C   0  0  0  0  0  0  0  0  0  0  0  0
    2.3000    0.1720    0.9840 O   0  0  0  0  0  0  0  0  0  0  0  0
    2.0420   -1.1280   -0.7630 O   0  0  0  0  0  0  0  0  0  0  0  0
    3.4210   -1.1900   -0.9420 C   0  0  0  0  0  0  0  0  0  0  0  0
    4.0800    0.0910   -1.1730 C   0  0  0  0  0  0  0  0  0  0  0  0
    3.4490    1.1720   -1.2120 O   0  0  0  0  0  0  0  0  0  0  0  0
    5.4840    0.1470   -1.3640 N   0  0  0  0  0  0  0  0  0  0  0  0
    6.1970    1.3980   -1.6000 C   0  0  2  0  0  0  0  0  0  0  0  0
    6.0170    2.3640   -0.4490 C   0  0  0  0  0  0  0  0  0  0  0  0
    5.8550    2.0160   -2.9220 C   0  0  0  0  0  0  0  0  0  0  0  0
    6.5800    3.1830   -3.0550 O   0  0  0  0  0  0  0  0  0  0  0  0
    7.9400    2.8950   -3.2160 C   0  0  0  0  0  0  0  0  0  0  0  0
    8.5150    2.2690   -1.9610 C   0  0  2  0  0  0  0  0  0  0  0  0
    9.8030    1.8540   -2.2270 O   0  0  0  0  0  0  0  0  0  0  0  0
    7.6840    1.0500   -1.6280 C   0  0  0  0  0  0  0  0  0  0  0  0
   -0.7330   -1.1730   -0.5970 C   0  0  2  0  0  0  0  0  0  0  0  0
   -0.4810   -2.6220   -0.4850 C   0  0  0  0  0  0  0  0  0  0  0  0
    0.0150   -3.2780   -1.6920 C   0  0  1  0  0  0  0  0  0  0  0  0
   -0.6680   -4.6330   -1.8590 C   0  0  0  0  0  0  0  0  0  0  0  0
   -0.2440   -2.4990   -2.9370 C   0  0  0  0  0  0  0  0  0  0  0  0
    0.0070   -0.8020   -2.2610 S   0  0  0  0  0  0  0  0  0  0  0  0
   -4.7470    1.8420    3.7000 C   0  0  0  0  0  0  0  0  0  0  0  0
   -3.9400    2.4770    4.5340 O   0  0  0  0  0  0  0  0  0  0  0  0
   -6.1380    1.9230    3.8790 C   0  0  0  0  0  0  0  0  0  0  0  0
   -7.0510    1.3080    3.0780 C   0  0  0  0  0  0  0  0  0  0  0  0
   -6.5760    0.5680    2.0390 C   0  0  0  0  0  0  0  0  0  0  0  0
   -7.4350   -0.0370    1.2500 C   0  0  0  0  0  0  0  0  0  0  0  0
   -8.9080    0.0410    1.4280 C   0  0  1  0  0  0  0  0  0  0  0  0
   -9.4430   -1.2470    1.5850 O   0  0  0  0  0  0  0  0  0  0  0  0
   -9.3140    0.8140    2.5090 O   0  0  0  0  0  0  0  0  0  0  0  0
   -8.3670    1.4280    3.3070 C   0  0  0  0  0  0  0  0  0  0  0  0
  1  2  1  0
  2  3  1  0
  3  4  2  0
  3  5  1  0
  5  6  2  0
  5 38  1  0
  6  7  1  0
  6 34  1  0
  7  8  2  0
  7  9  1  0
  9 10  1  0
 10 11  1  0
 10 12  2  3
 12 13  1  0
 28 12  1  1
 13 14  2  0
 13 15  1  0
 15 16  1  0
 16 17  1  0
 17 18  2  0
 17 19  1  0
 19 20  1  0
 20 21  1  1
 20 22  1  0
 20 27  1  0
 22 23  1  0
 23 24  1  0
 24 25  1  0
 25 26  1  6
 25 27  1  0
 28 29  1  0
 28 33  1  0
 29 30  1  0
 30 31  1  6
 30 32  1  0
 32 33  1  0
 34 35  1  0
 34 36  2  0
 36 37  1  0
 37 38  1  0
 37 43  2  0
 38 39  2  0
 39 40  1  0
 40 41  1  1
 40 42  1  0
 42 43  1  0
M  END
