
     RDKit          3D

 43 46  0  0  0  0  0  0  0  0999 V2000
   -4.8010    6.3270    0.5280 N   0  0  0  0  0  0  0  0  0  0  0  0
   -5.5760    5.7880   -0.5360 C   0  0  0  0  0  0  0  0  0  0  0  0
   -6.0820    6.8120   -1.7000 S   0  0  0  0  0  0  0  0  0  0  0  0
   -5.8810    4.3300   -0.5320 C   0  0  2  0  0  0  0  0  0  0  0  0
   -6.5820    3.9970    0.6280 O   0  0  0  0  0  0  0  0  0  0  0  0
   -4.6120    3.5740   -0.5890 C   0  0  0  0  0  0  0  0  0  0  0  0
   -3.4690    4.2230   -0.9610 C   0  0  0  0  0  0  0  0  0  0  0  0
   -2.2720    3.4980   -1.0060 C   0  0  0  0  0  0  0  0  0  0  0  0
   -2.1870    2.1670   -0.6970 C   0  0  0  0  0  0  0  0  0  0  0  0
   -3.3550    1.4800   -0.3170 C   0  0  0  0  0  0  0  0  0  0  0  0
   -4.5200    2.2350   -0.2810 C   0  0  0  0  0  0  0  0  0  0  0  0
   -3.2570    0.1410   -0.0200 O   0  0  0  0  0  0  0  0  0  0  0  0
   -3.3020   -1.0260   -0.7940 C   0  0  2  0  0  0  0  0  0  0  0  0
   -4.6980   -1.6100   -0.5230 C   0  0  0  0  0  0  0  0  0  0  0  0
   -4.9670   -2.8730   -1.2540 C   0  0  0  0  0  0  0  0  0  0  0  0
   -4.1530   -3.9350   -0.9670 O   0  0  0  0  0  0  0  0  0  0  0  0
   -2.2040   -2.0030   -0.6760 C   0  0  0  0  0  0  0  0  0  0  0  0
   -2.0300   -2.7370    0.4140 O   0  0  0  0  0  0  0  0  0  0  0  0
   -1.3140   -3.4970    1.2150 C   0  0  0  0  0  0  0  0  0  0  0  0
   -1.8460   -4.7670    1.5120 C   0  0  0  0  0  0  0  0  0  0  0  0
   -1.2390   -5.6890    2.3250 C   0  0  0  0  0  0  0  0  0  0  0  0
   -0.0430   -5.3800    2.8960 C   0  0  0  0  0  0  0  0  0  0  0  0
    0.4990   -4.1500    2.6250 C   0  0  0  0  0  0  0  0  0  0  0  0
   -0.0870   -3.1840    1.8020 C   0  0  0  0  0  0  0  0  0  0  0  0
    0.6420   -1.9080    1.6520 C   0  0  0  0  0  0  0  0  0  0  0  0
    1.0240   -1.4690    2.8300 O   0  0  0  0  0  0  0  0  0  0  0  0
    0.9370   -1.2130    0.5660 O   0  0  0  0  0  0  0  0  0  0  0  0
    0.8100   -0.0410   -0.0840 C   0  0  2  0  0  0  0  0  0  0  0  0
    2.0240    0.8080   -0.1110 C   0  0  0  0  0  0  0  0  0  0  0  0
    1.9090    2.0080   -0.5820 O   0  0  0  0  0  0  0  0  0  0  0  0
    3.3010    0.4430    0.3220 N   0  0  0  0  0  0  0  0  0  0  0  0
    3.6300   -0.8450    0.8490 C   0  0  0  0  0  0  0  0  0  0  0  0
    5.1450   -1.0070    0.6720 C   0  0  0  0  0  0  0  0  0  0  0  0
    5.6110   -0.5650   -0.6840 C   0  0  2  0  0  0  0  0  0  0  0  0
    4.9660   -1.3880   -1.6270 O   0  0  0  0  0  0  0  0  0  0  0  0
    7.0860   -0.8840   -0.7750 C   0  0  0  0  0  0  0  0  0  0  0  0
    7.3030   -2.2300   -0.4820 O   0  0  0  0  0  0  0  0  0  0  0  0
    5.3110    0.8820   -0.8800 C   0  0  2  0  0  0  0  0  0  0  0  0
    6.4910    1.7580   -1.1410 C   0  0  0  0  0  0  0  0  0  0  0  0
    6.0180    3.0670   -1.2970 O   0  0  0  0  0  0  0  0  0  0  0  0
    4.4230    1.4000    0.2500 C   0  0  0  0  0  0  0  0  0  0  0  0
   -0.3500    0.8330    0.3220 C   0  0  0  0  0  0  0  0  0  0  0  0
   -0.9500    1.5270   -0.7560 O   0  0  0  0  0  0  0  0  0  0  0  0
  1  2  1  0
  2  3  2  0
  2  4  1  0
  4  5  1  1
  4  6  1  0
  6  7  2  0
  6 11  1  0
  7  8  1  0
  8  9  2  0
  9 10  1  0
  9 43  1  0
 10 11  2  0
 10 12  1  0
 12 13  1  0
 13 14  1  1
 13 17  1  0
 14 15  1  0
 15 16  1  0
 17 18  1  0
 18 19  1  0
 19 20  2  0
 19 24  1  0
 20 21  1  0
 21 22  2  0
 22 23  1  0
 23 24  2  0
 24 25  1  0
 25 26  2  0
 25 27  1  0
 27 28  1  0
 28 29  1  1
 28 42  1  0
 29 30  2  0
 29 31  1  0
 31 32  1  0
 31 41  1  0
 32 33  1  0
 33 34  1  0
 34 35  1  6
 34 36  1  0
 34 38  1  0
 36 37  1  0
 38 39  1  1
 38 41  1  0
 39 40  1  0
 42 43  1  0
M  END
