
     RDKit          3D

 42 45  0  0  0  0  0  0  0  0999 V2000
   -1.4980    4.2290    0.6160 C   0  0  0  0  0  0  0  0  0  0  0  0
   -1.9770    3.5460   -0.6010 C   0  0  0  0  0  0  0  0  0  0  0  0
   -1.9640    2.1530   -0.6230 O   0  0  0  0  0  0  0  0  0  0  0  0
   -2.5940    1.3170    0.2540 C   0  0  0  0  0  0  0  0  0  0  0  0
   -3.9540    0.9620    0.2430 C   0  0  0  0  0  0  0  0  0  0  0  0
   -4.8910    1.4930   -0.7800 C   0  0  0  0  0  0  0  0  0  0  0  0
   -6.2390    0.9740   -0.5740 N   0  0  2  0  0  0  0  0  0  0  0  0
   -6.8360    1.5560    0.6180 C   0  0  0  0  0  0  0  0  0  0  0  0
   -6.2800   -0.4460   -0.5250 C   0  0  0  0  0  0  0  0  0  0  0  0
   -7.3380   -1.1210   -1.3220 C   0  0  1  0  0  0  0  0  0  0  0  0
   -8.7910   -0.7250   -0.9240 C   0  0  0  0  0  0  0  0  0  0  0  0
   -8.2020   -0.4900   -2.3170 C   0  0  2  0  0  0  0  0  0  0  0  0
   -8.8390   -1.3850   -3.3750 C   0  0  0  0  0  0  0  0  0  0  0  0
   -9.6540   -2.3720   -2.7880 O   0  0  0  0  0  0  0  0  0  0  0  0
   -4.1570    0.1510    1.2340 O   0  0  0  0  0  0  0  0  0  0  0  0
   -3.0750   -0.0850    1.9190 C   0  0  0  0  0  0  0  0  0  0  0  0
   -2.7710   -0.8530    3.0230 C   0  0  0  0  0  0  0  0  0  0  0  0
   -3.7160   -1.5000    3.5500 O   0  0  0  0  0  0  0  0  0  0  0  0
   -1.5270   -0.9220    3.5310 N   0  0  0  0  0  0  0  0  0  0  0  0
   -1.3200   -1.7580    4.6950 C   0  0  0  0  0  0  0  0  0  0  0  0
   -0.5040   -0.2450    2.9910 C   0  0  0  0  0  0  0  0  0  0  0  0
   -0.7900    0.5420    1.8690 C   0  0  0  0  0  0  0  0  0  0  0  0
    0.3510    1.2190    1.2190 C   0  0  0  0  0  0  0  0  0  0  0  0
    1.3990    0.5920    0.8700 C   0  0  0  0  0  0  0  0  0  0  0  0
    2.7500    1.5500    0.0780 S   0  0  0  0  0  0  0  0  0  0  0  0
    4.1930    0.6260    0.7160 C   0  0  0  0  0  0  0  0  0  0  0  0
    5.0360    1.2230    1.2670 O   0  0  0  0  0  0  0  0  0  0  0  0
    4.0960   -0.8170    0.4490 C   0  0  1  0  0  0  0  0  0  0  0  0
    3.6550   -0.9490   -1.0110 C   0  0  0  0  0  0  0  0  0  0  0  0
    3.5150   -2.3970   -1.3270 C   0  0  0  0  0  0  0  0  0  0  0  0
    3.1180   -2.6270   -2.6490 O   0  0  0  0  0  0  0  0  0  0  0  0
    5.2490   -1.6130    0.7890 C   0  0  0  0  0  0  0  0  0  0  0  0
    6.5750   -1.7100    0.3330 C   0  0  0  0  0  0  0  0  0  0  0  0
    7.6470   -0.7640    0.1650 C   0  0  0  0  0  0  0  0  0  0  0  0
    7.8240    0.2540   -0.8470 C   0  0  2  0  0  0  0  0  0  0  0  0
    6.9330    1.3850   -1.0980 C   0  0  0  0  0  0  0  0  0  0  0  0
    8.1790   -0.4160   -2.2260 C   0  0  0  0  0  0  0  0  0  0  0  0
    9.2170    0.9250   -0.5140 C   0  0  0  0  0  0  0  0  0  0  0  0
    2.9230   -1.3710    1.1830 N   0  0  0  0  0  0  0  0  0  0  0  0
    1.6240   -0.8250    1.0230 C   0  0  0  0  0  0  0  0  0  0  0  0
    0.5970   -1.6040    1.0110 O   0  0  0  0  0  0  0  0  0  0  0  0
   -2.0550    0.6400    1.3230 C   0  0  0  0  0  0  0  0  0  0  0  0
  1  2  1  0
  2  3  1  0
  3  4  1  0
  4  5  2  0
  4 42  1  0
  5  6  1  0
  5 15  1  0
  6  7  1  0
  7  8  1  1
  7  9  1  0
 10  9  1  1
 10 11  1  0
 10 12  1  0
 11 12  1  0
 12 13  1  6
 13 14  1  0
 15 16  1  0
 16 17  1  0
 16 42  2  0
 17 18  2  0
 17 19  1  0
 19 20  1  0
 19 21  1  0
 21 22  2  0
 22 23  1  0
 22 42  1  0
 23 24  2  3
 24 25  1  0
 24 40  1  0
 25 26  1  0
 26 27  2  0
 26 28  1  0
 28 29  1  6
 28 32  1  0
 28 39  1  0
 29 30  1  0
 30 31  1  0
 32 33  1  0
 33 34  1  0
 34 35  1  0
 35 36  1  6
 35 37  1  0
 35 38  1  0
 39 40  1  0
 40 41  2  0
M  CHG  1   7   1
M  END
