
     RDKit          3D

 43 47  0  0  0  0  0  0  0  0999 V2000
    8.0930    5.1200    0.0810 C   0  0  0  0  0  0  0  0  0  0  0  0
    7.9720    4.1430    1.1020 O   0  0  0  0  0  0  0  0  0  0  0  0
    6.8130    3.3920    1.2320 C   0  0  0  0  0  0  0  0  0  0  0  0
    6.7070    2.4450    2.2290 C   0  0  0  0  0  0  0  0  0  0  0  0
    5.5650    1.6880    2.3770 C   0  0  0  0  0  0  0  0  0  0  0  0
    4.4700    1.8500    1.5230 C   0  0  0  0  0  0  0  0  0  0  0  0
    3.0560    0.8620    1.7600 S   0  0  1  0  0  0  0  0  0  0  0  0
    3.0350    0.4350    3.2080 O   0  0  0  0  0  0  0  0  0  0  0  0
    1.8220    1.6900    1.5340 O   0  0  0  0  0  0  0  0  0  0  0  0
    3.0530   -0.5700    0.8170 N   0  0  0  0  0  0  0  0  0  0  0  0
    4.1920   -1.3750    1.1940 C   0  0  0  0  0  0  0  0  0  0  0  0
    5.3780   -1.2030    0.2710 C   0  0  2  0  0  0  0  0  0  0  0  0
    4.9980   -1.6050   -1.1590 C   0  0  0  0  0  0  0  0  0  0  0  0
    6.4410   -2.1890    0.7080 C   0  0  0  0  0  0  0  0  0  0  0  0
    1.8600   -1.3630    1.0330 C   0  0  0  0  0  0  0  0  0  0  0  0
    0.8190   -0.9720    0.0360 C   0  0  1  0  0  0  0  0  0  0  0  0
    1.1910   -1.1390   -1.2700 O   0  0  0  0  0  0  0  0  0  0  0  0
   -0.5410   -1.5570    0.3510 C   0  0  2  0  0  0  0  0  0  0  0  0
   -0.5810   -3.0490    0.1700 C   0  0  0  0  0  0  0  0  0  0  0  0
   -0.3100   -3.5550   -1.1660 C   0  0  0  0  0  0  0  0  0  0  0  0
   -1.2780   -3.7230   -2.1370 C   0  0  0  0  0  0  0  0  0  0  0  0
   -0.9700   -4.2090   -3.3750 C   0  0  0  0  0  0  0  0  0  0  0  0
    0.3240   -4.5630   -3.7360 C   0  0  0  0  0  0  0  0  0  0  0  0
    1.2860   -4.3960   -2.7710 C   0  0  0  0  0  0  0  0  0  0  0  0
    0.9740   -3.9050   -1.5190 C   0  0  0  0  0  0  0  0  0  0  0  0
   -1.5560   -0.8860   -0.4290 N   0  0  0  0  0  0  0  0  0  0  0  0
   -2.5960   -0.1870    0.2080 C   0  0  0  0  0  0  0  0  0  0  0  0
   -2.6060   -0.1670    1.4590 O   0  0  0  0  0  0  0  0  0  0  0  0
   -3.6020    0.4740   -0.4660 O   0  0  0  0  0  0  0  0  0  0  0  0
   -4.5900    1.1370    0.2970 C   0  0  1  0  0  0  0  0  0  0  0  0
   -4.5190    2.6020   -0.0490 C   0  0  0  0  0  0  0  0  0  0  0  0
   -5.6220    3.3600    0.6240 C   0  0  0  0  0  0  0  0  0  0  0  0
   -6.3690    2.4810    1.5980 C   0  0  0  0  0  0  0  0  0  0  0  0
   -6.9400    1.2520    0.9470 C   0  0  1  0  0  0  0  0  0  0  0  0
   -8.0960    1.4830    0.2520 O   0  0  0  0  0  0  0  0  0  0  0  0
   -7.8600    1.4080   -1.0920 C   0  0  2  0  0  0  0  0  0  0  0  0
   -8.7910    0.5390   -1.6570 O   0  0  0  0  0  0  0  0  0  0  0  0
   -8.1610   -0.1770   -2.6490 C   0  0  0  0  0  0  0  0  0  0  0  0
   -6.8220   -0.4990   -2.0100 C   0  0  0  0  0  0  0  0  0  0  0  0
   -6.4970    0.8110   -1.3130 C   0  0  2  0  0  0  0  0  0  0  0  0
   -5.9660    0.5600    0.0580 C   0  0  1  0  0  0  0  0  0  0  0  0
    4.5750    2.7960    0.5270 C   0  0  0  0  0  0  0  0  0  0  0  0
    5.7260    3.5430    0.3960 C   0  0  0  0  0  0  0  0  0  0  0  0
  1  2  1  0
  2  3  1  0
  3  4  2  0
  3 43  1  0
  4  5  1  0
  5  6  2  0
  6  7  1  0
  6 42  1  0
  7  8  2  0
  7  9  2  0
  7 10  1  6
 10 11  1  0
 10 15  1  0
 11 12  1  0
 12 13  1  6
 12 14  1  0
 15 16  1  0
 16 17  1  6
 16 18  1  0
 18 19  1  6
 18 26  1  0
 19 20  1  0
 20 21  2  0
 20 25  1  0
 21 22  1  0
 22 23  2  0
 23 24  1  0
 24 25  2  0
 26 27  1  0
 27 28  2  0
 27 29  1  0
 30 29  1  6
 30 31  1  0
 41 30  1  6
 31 32  1  0
 32 33  1  0
 34 33  1  6
 34 35  1  0
 34 41  1  0
 36 35  1  1
 36 37  1  0
 36 40  1  0
 37 38  1  0
 38 39  1  0
 40 39  1  6
 40 41  1  0
 42 43  2  0
M  END
