
     RDKit          3D

 43 46  0  0  0  0  0  0  0  0999 V2000
    9.1470    3.6260   -0.8570 C   0  0  0  0  0  0  0  0  0  0  0  0
    9.3650    2.1520   -1.1820 C   0  0  0  0  0  0  0  0  0  0  0  0
    8.2580    1.4130   -0.7240 O   0  0  0  0  0  0  0  0  0  0  0  0
    8.1540    0.0430   -0.8680 C   0  0  0  0  0  0  0  0  0  0  0  0
    9.1380   -0.6810   -1.4760 C   0  0  0  0  0  0  0  0  0  0  0  0
    8.9780   -2.0350   -1.5900 C   0  0  0  0  0  0  0  0  0  0  0  0
    7.8590   -2.6600   -1.1060 C   0  0  0  0  0  0  0  0  0  0  0  0
    6.8610   -1.9330   -0.4910 C   0  0  0  0  0  0  0  0  0  0  0  0
    7.0040   -0.5750   -0.3680 C   0  0  0  0  0  0  0  0  0  0  0  0
    6.0420    0.2040    0.2360 O   0  0  0  0  0  0  0  0  0  0  0  0
    6.1170    0.4650    1.5870 C   0  0  0  0  0  0  0  0  0  0  0  0
    7.0920   -0.0480    2.2300 O   0  0  0  0  0  0  0  0  0  0  0  0
    5.1160    1.3090    2.2790 C   0  0  0  0  0  0  0  0  0  0  0  0
    3.8490    1.8290    1.1230 S   0  0  0  0  0  0  0  0  0  0  0  0
    2.8090    0.4350    0.6440 C   0  0  0  0  0  0  0  0  0  0  0  0
    2.9390   -0.7090    1.1660 N   0  0  0  0  0  0  0  0  0  0  0  0
    2.2040   -1.9100    0.9070 C   0  0  2  0  0  0  0  0  0  0  0  0
    3.2270   -2.9830    0.4960 C   0  0  0  0  0  0  0  0  0  0  0  0
    1.0820   -1.7980   -0.0640 C   0  0  1  0  0  0  0  0  0  0  0  0
    1.3090   -2.7820   -1.1990 C   0  0  0  0  0  0  0  0  0  0  0  0
   -0.2780   -2.0450    0.5800 C   0  0  0  0  0  0  0  0  0  0  0  0
   -0.5430   -1.0420    1.6720 C   0  0  0  0  0  0  0  0  0  0  0  0
   -1.8670   -1.2420    2.3380 C   0  0  2  0  0  0  0  0  0  0  0  0
   -1.8340   -2.5470    2.8880 O   0  0  0  0  0  0  0  0  0  0  0  0
   -3.0450   -1.2050    1.4280 C   0  0  0  0  0  0  0  0  0  0  0  0
   -3.2670    0.0470    0.7590 N   0  0  2  0  0  0  0  0  0  0  0  0
   -3.2140    1.1900    1.6350 C   0  0  0  0  0  0  0  0  0  0  0  0
   -3.2150    2.4280    0.7450 C   0  0  0  0  0  0  0  0  0  0  0  0
   -3.9640    2.2060   -0.5270 C   0  0  0  0  0  0  0  0  0  0  0  0
   -5.1480    1.2750   -0.2860 C   0  0  1  0  0  0  0  0  0  0  0  0
   -6.0790    1.9440    0.6580 C   0  0  0  0  0  0  0  0  0  0  0  0
   -7.3110    2.5100    0.0750 C   0  0  0  0  0  0  0  0  0  0  0  0
   -7.8360    1.9500   -1.0340 O   0  0  0  0  0  0  0  0  0  0  0  0
   -7.2740    0.8170   -1.5350 C   0  0  1  0  0  0  0  0  0  0  0  0
   -7.6930   -0.4500   -0.8300 C   0  0  0  0  0  0  0  0  0  0  0  0
   -7.1120   -1.5770   -1.3560 O   0  0  0  0  0  0  0  0  0  0  0  0
   -7.7930    0.6710   -2.9740 C   0  0  0  0  0  0  0  0  0  0  0  0
   -9.1980    0.5710   -2.9610 O   0  0  0  0  0  0  0  0  0  0  0  0
   -5.7990    0.9830   -1.6360 C   0  0  0  0  0  0  0  0  0  0  0  0
   -4.6470   -0.0270    0.2480 C   0  0  0  0  0  0  0  0  0  0  0  0
    0.9850   -0.4590   -0.7050 C   0  0  0  0  0  0  0  0  0  0  0  0
    0.1080   -0.3490   -1.6160 O   0  0  0  0  0  0  0  0  0  0  0  0
    1.8020    0.6410   -0.3480 N   0  0  0  0  0  0  0  0  0  0  0  0
  1  2  1  0
  2  3  1  0
  3  4  1  0
  4  5  2  0
  4  9  1  0
  5  6  1  0
  6  7  2  0
  7  8  1  0
  8  9  2  0
  9 10  1  0
 10 11  1  0
 11 12  2  0
 11 13  1  0
 13 14  1  0
 14 15  1  0
 15 16  2  0
 15 43  1  0
 16 17  1  0
 17 18  1  6
 17 19  1  0
 19 20  1  6
 19 21  1  0
 19 41  1  0
 21 22  1  0
 22 23  1  0
 23 24  1  6
 23 25  1  0
 26 25  1  1
 26 27  1  0
 26 40  1  0
 27 28  1  0
 28 29  1  0
 30 29  1  6
 30 31  1  0
 30 39  1  0
 30 40  1  0
 31 32  1  0
 32 33  1  0
 33 34  1  0
 34 35  1  1
 34 37  1  0
 34 39  1  0
 35 36  1  0
 37 38  1  0
 41 42  2  0
 41 43  1  0
M  CHG  1  26   1
M  END
