
     RDKit          3D

 43 45  0  0  0  0  0  0  0  0999 V2000
   -6.1310   -1.8420    3.3350 C   0  0  0  0  0  0  0  0  0  0  0  0
   -5.3940   -1.0640    2.2440 C   0  0  0  0  0  0  0  0  0  0  0  0
   -6.2380   -1.0260    1.0740 N   0  0  1  0  0  0  0  0  0  0  0  0
   -7.1860    0.0500    1.1380 C   0  0  0  0  0  0  0  0  0  0  0  0
   -8.4440   -0.2810    0.3250 C   0  0  1  0  0  0  0  0  0  0  0  0
   -9.5360    0.6200    0.8880 C   0  0  0  0  0  0  0  0  0  0  0  0
   -8.2250    0.0390   -1.1330 C   0  0  0  0  0  0  0  0  0  0  0  0
   -7.5380   -1.0780   -1.8410 C   0  0  0  0  0  0  0  0  0  0  0  0
   -6.7530   -2.0150   -1.0090 C   0  0  0  0  0  0  0  0  0  0  0  0
   -5.6530   -1.3390   -0.1610 C   0  0  1  0  0  0  0  0  0  0  0  0
   -4.8080   -0.4890   -0.9580 C   0  0  0  0  0  0  0  0  0  0  0  0
   -3.5110    0.0640   -0.5670 C   0  0  1  0  0  0  0  0  0  0  0  0
   -3.5190    1.0010    0.6310 C   0  0  0  0  0  0  0  0  0  0  0  0
   -2.4590   -0.9800   -0.2330 C   0  0  1  0  0  0  0  0  0  0  0  0
   -2.2480   -1.8650   -1.3140 O   0  0  0  0  0  0  0  0  0  0  0  0
   -1.1500   -0.2060   -0.1900 C   0  0  0  0  0  0  0  0  0  0  0  0
   -1.0660    0.8160    0.5070 O   0  0  0  0  0  0  0  0  0  0  0  0
   -0.0590   -0.6120   -0.9030 O   0  0  0  0  0  0  0  0  0  0  0  0
    1.1930    0.0600   -0.9320 C   0  0  0  0  0  0  0  0  0  0  0  0
    1.0770    1.3860   -1.5280 C   0  0  0  0  0  0  0  0  0  0  0  0
   -0.0370    1.6990   -1.9970 O   0  0  0  0  0  0  0  0  0  0  0  0
    2.1230    2.3960   -1.6350 C   0  0  0  0  0  0  0  0  0  0  0  0
    3.3750    2.1370   -1.1700 O   0  0  0  0  0  0  0  0  0  0  0  0
    4.3390    1.2400   -1.5100 C   0  0  0  0  0  0  0  0  0  0  0  0
    4.1660    0.3640   -2.5540 C   0  0  0  0  0  0  0  0  0  0  0  0
    5.1680   -0.5230   -2.8500 C   0  0  0  0  0  0  0  0  0  0  0  0
    4.9560   -1.6860   -4.2140 S   0  0  0  0  0  0  0  0  0  0  0  0
    4.1900   -3.2170   -3.5790 C   0  0  0  0  0  0  0  0  0  0  0  0
    6.3230   -0.5300   -2.1110 C   0  0  0  0  0  0  0  0  0  0  0  0
    6.5310    0.3550   -1.0340 C   0  0  0  0  0  0  0  0  0  0  0  0
    7.7580    0.1980   -0.2500 C   0  0  0  0  0  0  0  0  0  0  0  0
    8.5900   -0.6250   -0.7140 O   0  0  0  0  0  0  0  0  0  0  0  0
    8.0790    0.8640    0.9300 N   0  0  0  0  0  0  0  0  0  0  0  0
    9.2720    0.7220    1.6710 C   0  0  0  0  0  0  0  0  0  0  0  0
   10.3170   -0.0720    1.3320 C   0  0  0  0  0  0  0  0  0  0  0  0
   11.4560   -0.1420    2.1390 C   0  0  0  0  0  0  0  0  0  0  0  0
   11.5330    0.5910    3.2810 C   0  0  0  0  0  0  0  0  0  0  0  0
   10.4950    1.3810    3.6190 N   0  0  0  0  0  0  0  0  0  0  0  0
    9.4050    1.4480    2.8480 C   0  0  0  0  0  0  0  0  0  0  0  0
    8.4840    2.1930    3.2110 O   0  0  0  0  0  0  0  0  0  0  0  0
    5.5240    1.2310   -0.7570 C   0  0  0  0  0  0  0  0  0  0  0  0
    5.5640    2.1710    0.2540 O   0  0  0  0  0  0  0  0  0  0  0  0
    6.0280    3.5040   -0.0290 C   0  0  0  0  0  0  0  0  0  0  0  0
  1  2  1  0
  3  2  1  1
  3  4  1  0
  3 10  1  0
  4  5  1  0
  5  6  1  1
  5  7  1  0
  7  8  1  0
  8  9  1  0
  9 10  1  0
 10 11  1  6
 11 12  1  0
 12 13  1  1
 12 14  1  0
 14 15  1  6
 14 16  1  0
 16 17  2  0
 16 18  1  0
 18 19  1  0
 19 20  1  0
 20 21  2  0
 20 22  1  0
 22 23  1  0
 23 24  1  0
 24 25  2  0
 24 41  1  0
 25 26  1  0
 26 27  1  0
 26 29  2  0
 27 28  1  0
 29 30  1  0
 30 31  1  0
 30 41  2  0
 31 32  2  0
 31 33  1  0
 33 34  1  0
 34 35  2  0
 34 39  1  0
 35 36  1  0
 36 37  2  0
 37 38  1  0
 38 39  1  0
 39 40  2  0
 41 42  1  0
 42 43  1  0
M  CHG  1   3   1
M  END
