
     RDKit          3D

 17 18  0  0  0  0  0  0  0  0999 V2000
   -3.0470    1.6760    0.1820 C   0  0  0  0  0  0  0  0  0  0  0  0
   -3.1400    0.2570    0.6290 C   0  0  2  0  0  0  0  0  0  0  0  0
   -2.7770    0.1020    1.9620 O   0  0  0  0  0  0  0  0  0  0  0  0
   -2.4060   -0.7480   -0.2580 C   0  0  2  0  0  0  0  0  0  0  0  0
   -2.8530   -2.0360    0.2170 O   0  0  0  0  0  0  0  0  0  0  0  0
   -0.9270   -0.7720    0.0040 C   0  0  1  0  0  0  0  0  0  0  0  0
   -0.2680   -2.0450   -0.4890 C   0  0  0  0  0  0  0  0  0  0  0  0
    1.1760   -1.9340   -0.4620 N   0  0  0  0  0  0  0  0  0  0  0  0
    1.9010   -0.7170   -0.3900 C   0  0  0  0  0  0  0  0  0  0  0  0
    3.2450   -0.6700   -0.3310 N   0  0  0  0  0  0  0  0  0  0  0  0
    3.9530    0.4710   -0.2630 C   0  0  0  0  0  0  0  0  0  0  0  0
    5.3760    0.4890   -0.2020 N   0  0  0  0  0  0  0  0  0  0  0  0
    3.2560    1.6220   -0.2530 N   0  0  0  0  0  0  0  0  0  0  0  0
    1.9060    1.6400   -0.3090 C   0  0  0  0  0  0  0  0  0  0  0  0
    1.2420    2.7000   -0.3010 O   0  0  0  0  0  0  0  0  0  0  0  0
    1.2100    0.4670   -0.3780 C   0  0  0  0  0  0  0  0  0  0  0  0
   -0.2120    0.3950   -0.4410 N   0  0  0  0  0  0  0  0  0  0  0  0
  2  1  1  6
  2  3  1  0
  2  4  1  0
  4  5  1  1
  4  6  1  0
  6  7  1  6
  6 17  1  0
  7  8  1  0
  8  9  1  0
  9 10  1  0
  9 16  2  0
 10 11  2  0
 11 12  1  0
 11 13  1  0
 13 14  1  0
 14 15  2  0
 14 16  1  0
 16 17  1  0
M  END
