
     RDKit          3D

 20 22  0  0  0  0  0  0  0  0999 V2000
    1.7290   -0.2250    1.5730 O   0  0  0  0  0  0  0  0  0  0  0  0
    2.0800    0.0130    0.3800 C   0  0  0  0  0  0  0  0  0  0  0  0
    3.3790    0.6390    0.0700 C   0  0  0  0  0  0  0  0  0  0  0  0
    4.5130   -0.3670    0.0510 C   0  0  0  0  0  0  0  0  0  0  0  0
    5.6790    0.3370   -0.2490 O   0  0  0  0  0  0  0  0  0  0  0  0
    1.1640   -0.3540   -0.6010 O   0  0  0  0  0  0  0  0  0  0  0  0
   -0.0590   -0.9440   -0.3250 C   0  0  0  0  0  0  0  0  0  0  0  0
   -0.2080   -2.3140   -0.2130 C   0  0  0  0  0  0  0  0  0  0  0  0
    0.9480   -3.0770   -0.3940 O   0  0  0  0  0  0  0  0  0  0  0  0
   -1.4140   -2.9140    0.0580 C   0  0  0  0  0  0  0  0  0  0  0  0
   -1.4730   -4.3020    0.1540 O   0  0  0  0  0  0  0  0  0  0  0  0
   -2.5160   -2.1080    0.2250 C   0  0  0  0  0  0  0  0  0  0  0  0
   -2.4110   -0.7340    0.1220 C   0  0  0  0  0  0  0  0  0  0  0  0
   -1.1990   -0.1740   -0.1490 C   0  0  0  0  0  0  0  0  0  0  0  0
   -1.3860    1.2880   -0.2020 C   0  0  0  0  0  0  0  0  0  0  0  0
   -0.6800    2.3990   -0.4080 C   0  0  0  0  0  0  0  0  0  0  0  0
   -1.6230    3.5420   -0.2930 C   0  0  0  0  0  0  0  0  0  0  0  0
   -2.9080    2.9090   -0.0040 C   0  0  0  0  0  0  0  0  0  0  0  0
   -2.7810    1.5830    0.0520 C   0  0  0  0  0  0  0  0  0  0  0  0
   -3.4710    0.2850    0.2650 C   0  0  0  0  0  0  0  0  0  0  0  0
  1  2  2  0
  2  3  1  0
  2  6  1  0
  3  4  1  0
  4  5  1  0
  6  7  1  0
  7  8  2  0
  7 14  1  0
  8  9  1  0
  8 10  1  0
 10 11  1  0
 10 12  2  0
 12 13  1  0
 13 14  2  0
 13 20  1  0
 14 15  1  0
 15 16  2  0
 15 19  1  0
 16 17  1  0
 17 18  1  0
 18 19  2  0
 19 20  1  0
M  END
