
     RDKit          3D

 17 17  0  0  0  0  0  0  0  0999 V2000
    3.5540   -0.8680   -0.8430 N   0  0  0  0  0  0  0  0  0  0  0  0
    2.3280   -0.1680   -0.4280 C   0  0  1  0  0  0  0  0  0  0  0  0
    1.5320   -1.1400    0.3950 C   0  0  0  0  0  0  0  0  0  0  0  0
    0.3850   -1.5090   -0.3410 O   0  0  0  0  0  0  0  0  0  0  0  0
   -0.7470   -1.5320    0.4410 C   0  0  0  0  0  0  0  0  0  0  0  0
   -1.8940   -0.9930   -0.3890 C   0  0  1  0  0  0  0  0  0  0  0  0
   -2.9040   -2.1100   -0.5470 C   0  0  0  0  0  0  0  0  0  0  0  0
   -3.9940   -1.7220   -1.2980 O   0  0  0  0  0  0  0  0  0  0  0  0
   -2.4980    0.1550    0.2750 N   0  0  0  0  0  0  0  0  0  0  0  0
   -2.3840    1.4790   -0.1920 C   0  0  0  0  0  0  0  0  0  0  0  0
   -3.4000    2.2290   -0.0300 O   0  0  0  0  0  0  0  0  0  0  0  0
   -1.1450    1.9940   -0.8460 C   0  0  0  0  0  0  0  0  0  0  0  0
   -0.0860    2.1920    0.2480 C   0  0  0  0  0  0  0  0  0  0  0  0
    1.0770    2.6580   -0.3680 O   0  0  0  0  0  0  0  0  0  0  0  0
    2.3730    2.3190    0.0410 C   0  0  0  0  0  0  0  0  0  0  0  0
    3.2720    3.2240    0.1810 O   0  0  0  0  0  0  0  0  0  0  0  0
    2.7610    0.9910    0.3190 N   0  0  0  0  0  0  0  0  0  0  0  0
  2  1  1  1
  2  3  1  0
  2 17  1  0
  3  4  1  0
  4  5  1  0
  5  6  1  0
  6  7  1  1
  6  9  1  0
  7  8  1  0
  9 10  1  0
 10 11  2  0
 10 12  1  0
 12 13  1  0
 13 14  1  0
 14 15  1  0
 15 16  2  0
 15 17  1  0
M  CHG  1   1   1
M  END
