
     RDKit          3D

 17 17  0  0  0  0  0  0  0  0999 V2000
   -5.7800    0.6810    1.2860 N   0  0  0  0  0  0  0  0  0  0  0  0
   -4.8250    0.5730    0.2450 C   0  0  0  0  0  0  0  0  0  0  0  0
   -5.1150    1.0230   -0.8820 O   0  0  0  0  0  0  0  0  0  0  0  0
   -3.5490   -0.0530    0.5170 C   0  0  0  0  0  0  0  0  0  0  0  0
   -3.3080   -0.5290    1.8070 O   0  0  0  0  0  0  0  0  0  0  0  0
   -2.6360   -0.1710   -0.4290 C   0  0  0  0  0  0  0  0  0  0  0  0
   -1.3600   -0.7970   -0.1530 C   0  0  0  0  0  0  0  0  0  0  0  0
   -0.4720   -0.8980   -1.1200 C   0  0  0  0  0  0  0  0  0  0  0  0
    0.7510   -1.4980   -0.8580 O   0  0  0  0  0  0  0  0  0  0  0  0
    1.6960   -0.7330   -0.1200 C   0  0  2  0  0  0  0  0  0  0  0  0
    2.0170    0.5110   -0.8500 C   0  0  0  0  0  0  0  0  0  0  0  0
    1.0820    1.1930   -1.3110 O   0  0  0  0  0  0  0  0  0  0  0  0
    3.3650    0.9240   -1.0220 N   0  0  0  0  0  0  0  0  0  0  0  0
    4.5020    0.1430   -0.5950 C   0  0  0  0  0  0  0  0  0  0  0  0
    4.1030   -0.7330    0.5040 N   0  0  0  0  0  0  0  0  0  0  0  0
    2.9740   -1.4860    0.0500 C   0  0  0  0  0  0  0  0  0  0  0  0
    3.0600   -2.6810   -0.1840 O   0  0  0  0  0  0  0  0  0  0  0  0
  1  2  1  0
  2  3  2  0
  2  4  1  0
  4  5  1  0
  4  6  2  3
  6  7  1  0
  7  8  2  3
  8  9  1  0
 10  9  1  6
 10 11  1  0
 10 16  1  0
 11 12  2  0
 11 13  1  0
 13 14  1  0
 14 15  1  0
 15 16  1  0
 16 17  2  0
M  CHG  1  15   1
M  END
