
     RDKit          3D

 17 17  0  0  0  0  0  0  0  0999 V2000
   -2.3400    0.5020   -1.4710 C   0  0  0  0  0  0  0  0  0  0  0  0
   -2.4100    0.3700    0.0490 C   0  0  1  0  0  0  0  0  0  0  0  0
   -3.3750    1.3320    0.6010 C   0  0  0  0  0  0  0  0  0  0  0  0
   -4.7390    1.3200    0.2270 N   0  0  0  0  0  0  0  0  0  0  0  0
   -2.9870    2.1900    1.4260 O   0  0  0  0  0  0  0  0  0  0  0  0
   -2.8290   -1.0470    0.4350 C   0  0  0  0  0  0  0  0  0  0  0  0
   -2.0300   -1.9120   -0.2990 O   0  0  0  0  0  0  0  0  0  0  0  0
   -0.7220   -1.7890    0.1510 C   0  0  0  0  0  0  0  0  0  0  0  0
   -0.2900   -0.3560   -0.0530 C   0  0  2  0  0  0  0  0  0  0  0  0
    1.0970   -0.1250    0.4080 C   0  0  0  0  0  0  0  0  0  0  0  0
    1.3380    0.7930    1.2210 O   0  0  0  0  0  0  0  0  0  0  0  0
    2.1950   -0.9250   -0.0490 N   0  0  0  0  0  0  0  0  0  0  0  0
    3.5460   -0.7130    0.3880 C   0  0  0  0  0  0  0  0  0  0  0  0
    4.0440    0.6480    0.0520 C   0  0  0  0  0  0  0  0  0  0  0  0
    5.3630    1.0260    0.4130 N   0  0  0  0  0  0  0  0  0  0  0  0
    3.3250    1.4520   -0.5350 O   0  0  0  0  0  0  0  0  0  0  0  0
   -1.1290    0.5510    0.5420 O   0  0  0  0  0  0  0  0  0  0  0  0
  2  1  1  6
  2  3  1  0
  2  6  1  0
  2 17  1  0
  3  4  1  0
  3  5  2  0
  6  7  1  0
  7  8  1  0
  8  9  1  0
  9 10  1  1
  9 17  1  0
 10 11  2  0
 10 12  1  0
 12 13  1  0
 13 14  1  0
 14 15  1  0
 14 16  2  0
M  CHG  1  15   1
M  END
