
     RDKit          3D

 20 22  0  0  0  0  0  0  0  0999 V2000
    1.1980   -0.1910    3.1110 O   0  0  0  0  0  0  0  0  0  0  0  0
    1.1510   -0.1550    1.8580 C   0  0  0  0  0  0  0  0  0  0  0  0
    2.2890   -0.1280    0.9210 C   0  0  0  0  0  0  0  0  0  0  0  0
    3.6680   -0.1450    1.4200 C   0  0  0  0  0  0  0  0  0  0  0  0
    4.7460   -0.0940    0.4080 C   0  0  0  0  0  0  0  0  0  0  0  0
    4.7700    1.0260   -0.3980 O   0  0  0  0  0  0  0  0  0  0  0  0
    1.7590   -0.0930   -0.2810 C   0  0  0  0  0  0  0  0  0  0  0  0
    2.4860   -0.0580   -1.4540 O   0  0  0  0  0  0  0  0  0  0  0  0
    0.3040   -0.0950   -0.2380 C   0  0  0  0  0  0  0  0  0  0  0  0
   -0.0510   -0.1330    1.0750 C   0  0  0  0  0  0  0  0  0  0  0  0
   -1.3780   -0.1450    1.4590 C   0  0  0  0  0  0  0  0  0  0  0  0
   -2.3820   -0.1180    0.5050 C   0  0  0  0  0  0  0  0  0  0  0  0
   -3.7320   -0.1290    0.8620 C   0  0  0  0  0  0  0  0  0  0  0  0
   -4.7100   -0.1020   -0.1070 C   0  0  0  0  0  0  0  0  0  0  0  0
   -6.0580   -0.1130    0.2280 O   0  0  0  0  0  0  0  0  0  0  0  0
   -4.3640   -0.0640   -1.4470 C   0  0  0  0  0  0  0  0  0  0  0  0
   -3.0350   -0.0520   -1.8230 C   0  0  0  0  0  0  0  0  0  0  0  0
   -2.0610   -0.0800   -0.8320 C   0  0  0  0  0  0  0  0  0  0  0  0
   -0.7060   -0.0690   -1.1750 C   0  0  0  0  0  0  0  0  0  0  0  0
   -0.4030   -0.0320   -2.5340 O   0  0  0  0  0  0  0  0  0  0  0  0
  1  2  2  0
  2  3  1  0
  2 10  1  0
  3  4  1  0
  3  7  2  0
  4  5  1  0
  5  6  1  0
  7  8  1  0
  7  9  1  0
  9 10  2  0
  9 19  1  0
 10 11  1  0
 11 12  2  0
 12 13  1  0
 12 18  1  0
 13 14  2  0
 14 15  1  0
 14 16  1  0
 16 17  2  0
 17 18  1  0
 18 19  2  0
 19 20  1  0
M  END
