
     RDKit          3D

 16 16  0  0  0  0  0  0  0  0999 V2000
   -1.0100   -1.1350   -1.7490 C   0  0  0  0  0  0  0  0  0  0  0  0
   -1.1980   -0.2080   -0.7520 O   0  0  0  0  0  0  0  0  0  0  0  0
   -1.6030   -0.7270    0.4560 C   0  0  2  0  0  0  0  0  0  0  0  0
   -2.9280   -0.2180    0.7600 N   0  0  0  0  0  0  0  0  0  0  0  0
   -2.9830    1.2290    0.7300 C   0  0  2  0  0  0  0  0  0  0  0  0
   -3.6330    1.7190   -0.5490 C   0  0  0  0  0  0  0  0  0  0  0  0
   -1.6000    1.7390    0.8720 C   0  0  0  0  0  0  0  0  0  0  0  0
   -1.2850    2.7640    0.2060 O   0  0  0  0  0  0  0  0  0  0  0  0
   -0.7490    1.0640    1.7200 O   0  0  0  0  0  0  0  0  0  0  0  0
   -0.6180   -0.3370    1.5600 C   0  0  2  0  0  0  0  0  0  0  0  0
    0.7830   -0.5710    1.1150 C   0  0  0  0  0  0  0  0  0  0  0  0
    1.1150   -1.7680    0.9120 O   0  0  0  0  0  0  0  0  0  0  0  0
    1.7170    0.4050    0.9140 O   0  0  0  0  0  0  0  0  0  0  0  0
    3.0390    0.1970    0.4950 C   0  0  0  0  0  0  0  0  0  0  0  0
    3.1230   -0.4770   -0.8530 C   0  0  0  0  0  0  0  0  0  0  0  0
    4.5020   -0.6770   -1.2550 N   0  0  0  0  0  0  0  0  0  0  0  0
  1  2  1  0
  3  2  1  6
  3  4  1  0
  3 10  1  0
  4  5  1  0
  5  6  1  6
  5  7  1  0
  7  8  2  0
  7  9  1  0
  9 10  1  0
 10 11  1  6
 11 12  2  0
 11 13  1  0
 13 14  1  0
 14 15  1  0
 15 16  1  0
M  CHG  1  16   1
M  END
