
     RDKit          3D

 17 17  0  0  0  0  0  0  0  0999 V2000
   -5.8780   -0.2390    0.4180 C   0  0  0  0  0  0  0  0  0  0  0  0
   -4.7600    0.2500   -0.2570 O   0  0  0  0  0  0  0  0  0  0  0  0
   -3.6360   -0.3390    0.2830 C   0  0  0  0  0  0  0  0  0  0  0  0
   -2.3960    0.1600   -0.4170 C   0  0  1  0  0  0  0  0  0  0  0  0
   -2.2120    1.5130   -0.3270 O   0  0  0  0  0  0  0  0  0  0  0  0
   -1.0380    1.7450    0.3940 C   0  0  0  0  0  0  0  0  0  0  0  0
   -0.1700    0.5960   -0.0630 C   0  0  1  0  0  0  0  0  0  0  0  0
    1.0090    0.4120    0.6940 N   0  0  0  0  0  0  0  0  0  0  0  0
    2.3020    0.4130    0.1290 C   0  0  0  0  0  0  0  0  0  0  0  0
    2.3750    0.5880   -1.1070 O   0  0  0  0  0  0  0  0  0  0  0  0
    3.5320    0.2180    0.9360 C   0  0  0  0  0  0  0  0  0  0  0  0
    4.6340    0.2760    0.0650 O   0  0  0  0  0  0  0  0  0  0  0  0
    5.9470    0.1340    0.4720 C   0  0  0  0  0  0  0  0  0  0  0  0
    7.0340    0.2030   -0.4730 N   0  0  0  0  0  0  0  0  0  0  0  0
    6.1550   -0.0570    1.6980 O   0  0  0  0  0  0  0  0  0  0  0  0
   -1.1950   -0.5250    0.1740 C   0  0  2  0  0  0  0  0  0  0  0  0
   -0.8330   -1.7410   -0.4590 N   0  0  0  0  0  0  0  0  0  0  0  0
  1  2  1  0
  2  3  1  0
  4  3  1  1
  4  5  1  0
  4 16  1  0
  5  6  1  0
  6  7  1  0
  7  8  1  1
  7 16  1  0
  8  9  1  0
  9 10  2  0
  9 11  1  0
 11 12  1  0
 12 13  1  0
 13 14  1  0
 13 15  2  0
 16 17  1  6
M  CHG  1  17   1
M  END
