
     RDKit          3D

 20 22  0  0  0  0  0  0  0  0999 V2000
   -3.6000    2.4690    0.7810 C   0  0  0  0  0  0  0  0  0  0  0  0
   -3.0630    1.1220    0.4180 C   0  0  0  0  0  0  0  0  0  0  0  0
   -3.9170    0.0720    0.1860 C   0  0  0  0  0  0  0  0  0  0  0  0
   -3.4330   -1.1900   -0.1530 C   0  0  0  0  0  0  0  0  0  0  0  0
   -4.3450   -2.1810   -0.3690 O   0  0  0  0  0  0  0  0  0  0  0  0
   -2.0480   -1.3960   -0.2590 C   0  0  0  0  0  0  0  0  0  0  0  0
   -1.6210   -2.6530   -0.5950 O   0  0  0  0  0  0  0  0  0  0  0  0
   -1.1740   -0.3710   -0.0330 C   0  0  0  0  0  0  0  0  0  0  0  0
    0.2730   -0.4830   -0.1180 C   0  0  0  0  0  0  0  0  0  0  0  0
    0.8890   -1.5880   -0.4220 C   0  0  0  0  0  0  0  0  0  0  0  0
    2.3710   -1.5990   -0.4830 C   0  0  0  0  0  0  0  0  0  0  0  0
    3.1020   -0.5180   -0.2370 C   0  0  0  0  0  0  0  0  0  0  0  0
    4.5740   -0.5420   -0.3010 C   0  0  0  0  0  0  0  0  0  0  0  0
    5.1810    0.6800   -0.0140 O   0  0  0  0  0  0  0  0  0  0  0  0
    4.5500    1.8590    0.3090 C   0  0  0  0  0  0  0  0  0  0  0  0
    5.2480    2.8760    0.5390 O   0  0  0  0  0  0  0  0  0  0  0  0
    3.0940    1.8340    0.3590 C   0  0  0  0  0  0  0  0  0  0  0  0
    2.4120    0.7150    0.1020 C   0  0  0  0  0  0  0  0  0  0  0  0
    1.0400    0.6740    0.1450 O   0  0  0  0  0  0  0  0  0  0  0  0
   -1.7210    0.8870    0.3070 C   0  0  0  0  0  0  0  0  0  0  0  0
  1  2  1  0
  2  3  2  0
  2 20  1  0
  3  4  1  0
  4  5  1  0
  4  6  2  0
  6  7  1  0
  6  8  1  0
  8  9  1  0
  8 20  2  0
  9 10  2  0
  9 19  1  0
 10 11  1  0
 11 12  2  0
 12 13  1  0
 12 18  1  0
 13 14  1  0
 14 15  1  0
 15 16  2  0
 15 17  1  0
 17 18  2  0
 18 19  1  0
M  END
