
     RDKit          3D

 30 33  0  0  0  0  0  0  0  0999 V2000
    6.7980    1.2860    2.9070 C   0  0  0  0  0  0  0  0  0  0  0  0
    6.0640    0.4050    1.9300 C   0  0  0  0  0  0  0  0  0  0  0  0
    5.7670    1.1440    0.6550 C   0  0  0  0  0  0  0  0  0  0  0  0
    5.0400    0.3110   -0.3230 C   0  0  0  0  0  0  0  0  0  0  0  0
    5.1320   -0.4620   -1.2260 N   0  0  0  0  0  0  0  0  0  0  0  0
    4.2060   -1.0150   -1.9040 N   0  0  0  0  0  0  0  0  0  0  0  0
    2.9810   -0.7920   -1.6790 C   0  0  0  0  0  0  0  0  0  0  0  0
    1.7550   -1.2390   -2.3680 C   0  0  0  0  0  0  0  0  0  0  0  0
    1.9810   -2.0350   -3.4640 N   0  0  0  0  0  0  0  0  0  0  0  0
    0.9650   -2.4360   -4.2070 C   0  0  0  0  0  0  0  0  0  0  0  0
   -0.3120   -2.0510   -3.8750 C   0  0  0  0  0  0  0  0  0  0  0  0
   -0.5690   -1.2510   -2.7750 C   0  0  0  0  0  0  0  0  0  0  0  0
    0.4880   -0.8290   -1.9920 C   0  0  0  0  0  0  0  0  0  0  0  0
    0.3560   -0.1420   -0.7880 N   0  0  0  0  0  0  0  0  0  0  0  0
   -0.5240    0.7960   -0.2130 C   0  0  0  0  0  0  0  0  0  0  0  0
   -1.9290    0.5130    0.1470 C   0  0  1  0  0  0  0  0  0  0  0  0
   -2.0740   -0.5490    0.9710 O   0  0  0  0  0  0  0  0  0  0  0  0
   -1.8280   -1.8630    1.0110 C   0  0  0  0  0  0  0  0  0  0  0  0
   -2.2240   -2.5070    2.2020 C   0  0  0  0  0  0  0  0  0  0  0  0
   -2.0430   -3.8470    2.3960 C   0  0  0  0  0  0  0  0  0  0  0  0
   -1.4670   -4.5440    1.4050 N   0  0  0  0  0  0  0  0  0  0  0  0
   -1.1020   -3.9130    0.2920 N   0  0  0  0  0  0  0  0  0  0  0  0
   -1.2700   -2.6280    0.0900 N   0  0  0  0  0  0  0  0  0  0  0  0
   -2.2430    1.7240    1.1780 C   0  0  0  0  0  0  0  0  0  0  0  0
   -3.6530    1.5690    1.6220 C   0  0  0  0  0  0  0  0  0  0  0  0
   -4.5170    1.7210    0.4960 N   0  0  0  0  0  0  0  0  0  0  0  0
   -3.8830    1.8430   -0.7750 C   0  0  2  0  0  0  0  0  0  0  0  0
   -4.8750    1.8990   -1.9150 C   0  0  0  0  0  0  0  0  0  0  0  0
   -2.8620    0.7410   -0.9750 C   0  0  0  0  0  0  0  0  0  0  0  0
    3.1170    0.3880   -0.2890 S   0  0  0  0  0  0  0  0  0  0  0  0
  1  2  1  0
  2  3  1  0
  3  4  1  0
  4  5  2  0
  4 30  1  0
  5  6  1  0
  6  7  2  0
  7  8  1  0
  7 30  1  0
  8  9  2  0
  8 13  1  0
  9 10  1  0
 10 11  2  0
 11 12  1  0
 12 13  2  0
 13 14  1  0
 14 15  1  0
 16 15  1  6
 16 17  1  0
 16 24  1  0
 16 29  1  0
 17 18  1  0
 18 19  2  0
 18 23  1  0
 19 20  1  0
 20 21  2  0
 21 22  1  0
 22 23  2  0
 24 25  1  0
 25 26  1  0
 26 27  1  0
 27 28  1  6
 27 29  1  0
M  CHG  1  26   1
M  END
