
     RDKit          3D

 28 31  0  0  0  0  0  0  0  0999 V2000
    1.5550    0.8760    1.5400 O   0  0  0  0  0  0  0  0  0  0  0  0
    1.8370    0.0960    0.5420 C   0  0  0  0  0  0  0  0  0  0  0  0
    0.7520   -0.3910   -0.2810 C   0  0  0  0  0  0  0  0  0  0  0  0
   -0.5430   -0.3580    0.2650 C   0  0  0  0  0  0  0  0  0  0  0  0
   -1.6170   -0.7150   -0.4590 C   0  0  0  0  0  0  0  0  0  0  0  0
   -2.9610   -0.6880    0.0810 N   0  0  0  0  0  0  0  0  0  0  0  0
   -3.4200   -1.8210    0.8200 C   0  0  0  0  0  0  0  0  0  0  0  0
   -4.8730   -1.7240    1.2140 C   0  0  0  0  0  0  0  0  0  0  0  0
   -5.6360   -0.8910    0.4020 O   0  0  0  0  0  0  0  0  0  0  0  0
   -5.1730    0.3640    0.0150 C   0  0  0  0  0  0  0  0  0  0  0  0
   -6.0010    1.4330   -0.1940 C   0  0  0  0  0  0  0  0  0  0  0  0
   -5.4630    2.6340   -0.5750 C   0  0  0  0  0  0  0  0  0  0  0  0
   -4.0950    2.7150   -0.7340 C   0  0  0  0  0  0  0  0  0  0  0  0
   -3.2320    1.6520   -0.5300 C   0  0  0  0  0  0  0  0  0  0  0  0
   -1.8940    1.7700   -0.6970 F   0  0  0  0  0  0  0  0  0  0  0  0
   -3.7780    0.4490   -0.1470 C   0  0  0  0  0  0  0  0  0  0  0  0
   -1.4910   -1.1170   -1.7380 N   0  0  0  0  0  0  0  0  0  0  0  0
   -0.2850   -1.1640   -2.3020 C   0  0  0  0  0  0  0  0  0  0  0  0
   -0.1290   -1.5410   -3.5140 O   0  0  0  0  0  0  0  0  0  0  0  0
    0.8550   -0.8000   -1.5800 C   0  0  0  0  0  0  0  0  0  0  0  0
    3.2090   -0.1990    0.3660 N   0  0  0  0  0  0  0  0  0  0  0  0
    3.6940   -1.1740   -0.5770 C   0  0  0  0  0  0  0  0  0  0  0  0
    4.7220   -2.0610    0.1510 C   0  0  0  0  0  0  0  0  0  0  0  0
    5.6510   -1.3800    0.8580 O   0  0  0  0  0  0  0  0  0  0  0  0
    5.5750   -0.0260    0.7920 C   0  0  0  0  0  0  0  0  0  0  0  0
    4.2240    0.5680    1.1070 C   0  0  1  0  0  0  0  0  0  0  0  0
    4.3040    2.0020    0.5530 C   0  0  0  0  0  0  0  0  0  0  0  0
    3.1110    2.6420    0.6780 O   0  0  0  0  0  0  0  0  0  0  0  0
  1  2  2  0
  2  3  1  0
  2 21  1  0
  3  4  1  0
  3 20  2  0
  4  5  2  0
  5  6  1  0
  5 17  1  0
  6  7  1  0
  6 16  1  0
  7  8  1  0
  8  9  1  0
  9 10  1  0
 10 11  2  0
 10 16  1  0
 11 12  1  0
 12 13  2  0
 13 14  1  0
 14 15  1  0
 14 16  2  0
 17 18  1  0
 18 19  2  0
 18 20  1  0
 21 22  1  0
 21 26  1  0
 22 23  1  0
 23 24  1  0
 24 25  1  0
 25 26  1  0
 26 27  1  6
 27 28  1  0
M  END
