
     RDKit          3D

 28 30  0  0  0  0  0  0  0  0999 V2000
    2.8630    2.7790   -0.6160 C   0  0  0  0  0  0  0  0  0  0  0  0
    2.9530    1.3990   -0.2370 N   0  0  0  0  0  0  0  0  0  0  0  0
    1.9710    0.7910    0.5360 N   0  0  0  0  0  0  0  0  0  0  0  0
    0.7040    0.5520    0.0180 C   0  0  0  0  0  0  0  0  0  0  0  0
    0.4990    0.9240   -1.1700 O   0  0  0  0  0  0  0  0  0  0  0  0
   -0.4620   -0.1200    0.7140 C   0  0  0  0  0  0  0  0  0  0  0  0
   -0.9460   -1.0580   -0.2920 C   0  0  0  0  0  0  0  0  0  0  0  0
   -1.9110   -1.9860   -0.0390 C   0  0  0  0  0  0  0  0  0  0  0  0
   -2.4290   -2.0350    1.2350 C   0  0  0  0  0  0  0  0  0  0  0  0
   -1.9450   -1.1100    2.1960 C   0  0  0  0  0  0  0  0  0  0  0  0
   -0.9820   -0.1410    1.9800 C   0  0  0  0  0  0  0  0  0  0  0  0
   -0.8080    0.9700    2.9800 C   0  0  0  0  0  0  0  0  0  0  0  0
   -0.0540    1.2250    3.9490 O   0  0  0  0  0  0  0  0  0  0  0  0
   -1.7560    2.0600    2.7980 O   0  0  0  0  0  0  0  0  0  0  0  0
   -2.3780    2.2690    1.5540 C   0  0  0  0  0  0  0  0  0  0  0  0
   -3.6250    1.3940    1.5560 C   0  0  0  0  0  0  0  0  0  0  0  0
   -4.3230    1.4460    2.6480 O   0  0  0  0  0  0  0  0  0  0  0  0
   -3.9460    0.6580    0.5260 O   0  0  0  0  0  0  0  0  0  0  0  0
   -4.5890   -0.2890   -0.1570 C   0  0  0  0  0  0  0  0  0  0  0  0
   -3.8900   -0.8980   -1.3650 C   0  0  0  0  0  0  0  0  0  0  0  0
   -3.9590   -2.3480   -1.3960 N   0  0  0  0  0  0  0  0  0  0  0  0
   -2.5590   -2.8340   -1.1560 C   0  0  0  0  0  0  0  0  0  0  0  0
    4.0780    0.6410   -0.6660 C   0  0  0  0  0  0  0  0  0  0  0  0
    4.0660    0.0340   -1.8780 C   0  0  0  0  0  0  0  0  0  0  0  0
    5.1460   -0.7170   -2.3020 C   0  0  0  0  0  0  0  0  0  0  0  0
    6.2220   -0.8170   -1.4430 C   0  0  0  0  0  0  0  0  0  0  0  0
    6.2600   -0.2180   -0.2220 C   0  0  0  0  0  0  0  0  0  0  0  0
    5.1540    0.5370    0.1860 C   0  0  0  0  0  0  0  0  0  0  0  0
  1  2  1  0
  2  3  1  0
  2 23  1  0
  3  4  1  0
  4  5  2  0
  4  6  1  0
  6  7  2  0
  6 11  1  0
  7  8  1  0
  8  9  2  0
  8 22  1  0
  9 10  1  0
 10 11  2  0
 11 12  1  0
 12 13  2  0
 12 14  1  0
 14 15  1  0
 15 16  1  0
 16 17  2  0
 16 18  1  0
 18 19  1  0
 19 20  1  0
 20 21  1  0
 21 22  1  0
 23 24  2  0
 23 28  1  0
 24 25  1  0
 25 26  2  0
 26 27  1  0
 27 28  2  0
M  END
