
     RDKit          3D

 29 31  0  0  0  0  0  0  0  0999 V2000
   -0.9970    1.1080    1.7850 C   0  0  0  0  0  0  0  0  0  0  0  0
   -2.3440    0.9520    1.1540 C   0  0  0  0  0  0  0  0  0  0  0  0
   -3.2520    1.5830    1.8820 C   0  0  0  0  0  0  0  0  0  0  0  0
   -4.7290    1.7850    1.7750 C   0  0  0  0  0  0  0  0  0  0  0  0
   -5.1300    2.3470    0.4480 C   0  0  0  0  0  0  0  0  0  0  0  0
   -5.4010    1.2650   -0.5550 C   0  0  0  0  0  0  0  0  0  0  0  0
   -6.6880    1.2730   -0.9870 F   0  0  0  0  0  0  0  0  0  0  0  0
   -4.6860    0.3040   -1.1210 C   0  0  0  0  0  0  0  0  0  0  0  0
   -3.2880   -0.0670   -0.9570 C   0  0  0  0  0  0  0  0  0  0  0  0
   -2.3240    0.1590   -0.0850 C   0  0  0  0  0  0  0  0  0  0  0  0
   -1.0690   -0.3930   -0.3710 N   0  0  0  0  0  0  0  0  0  0  0  0
   -0.5220   -1.6480   -0.2530 C   0  0  0  0  0  0  0  0  0  0  0  0
    0.7790   -1.9130   -0.6150 C   0  0  0  0  0  0  0  0  0  0  0  0
    1.6740   -0.9070   -1.1320 C   0  0  0  0  0  0  0  0  0  0  0  0
    1.4250    0.2990   -1.3210 O   0  0  0  0  0  0  0  0  0  0  0  0
    3.0050   -1.2100   -1.4970 O   0  0  0  0  0  0  0  0  0  0  0  0
    3.8940   -0.2590   -2.0000 C   0  0  0  0  0  0  0  0  0  0  0  0
    4.1730    0.8870   -1.0920 C   0  0  2  0  0  0  0  0  0  0  0  0
    5.2910    1.7150   -1.7420 C   0  0  0  0  0  0  0  0  0  0  0  0
    5.9890    2.2600   -0.5260 C   0  0  0  0  0  0  0  0  0  0  0  0
    5.6360    1.2960    0.5490 C   0  0  0  0  0  0  0  0  0  0  0  0
    4.7230    0.3990    0.0850 O   0  0  0  0  0  0  0  0  0  0  0  0
    1.3440   -3.1550   -0.5150 N   0  0  0  0  0  0  0  0  0  0  0  0
    0.6490   -4.1700   -0.0560 C   0  0  0  0  0  0  0  0  0  0  0  0
    1.1540   -5.3460    0.0490 O   0  0  0  0  0  0  0  0  0  0  0  0
   -0.6500   -3.9470    0.3160 C   0  0  0  0  0  0  0  0  0  0  0  0
   -1.3360   -4.9040    0.7580 O   0  0  0  0  0  0  0  0  0  0  0  0
   -1.2220   -2.6960    0.2160 N   0  0  0  0  0  0  0  0  0  0  0  0
   -2.5900   -2.5530    0.6260 C   0  0  0  0  0  0  0  0  0  0  0  0
  1  2  1  0
  2  3  2  0
  2 10  1  0
  3  4  1  0
  4  5  1  0
  5  6  1  0
  6  7  1  0
  6  8  2  0
  8  9  1  0
  9 10  2  0
 10 11  1  0
 11 12  1  0
 12 13  2  0
 12 28  1  0
 13 14  1  0
 13 23  1  0
 14 15  2  0
 14 16  1  0
 16 17  1  0
 18 17  1  6
 18 19  1  0
 18 22  1  0
 19 20  1  0
 20 21  1  0
 21 22  1  0
 23 24  1  0
 24 25  2  0
 24 26  1  0
 26 27  2  0
 26 28  1  0
 28 29  1  0
M  END
