
     RDKit          3D

 30 33  0  0  0  0  0  0  0  0999 V2000
   -5.8110    1.4810    1.3900 C   0  0  0  0  0  0  0  0  0  0  0  0
   -4.5740    1.3810    0.5700 N   0  0  0  0  0  0  0  0  0  0  0  0
   -4.7690    0.2800   -0.2950 C   0  0  2  0  0  0  0  0  0  0  0  0
   -4.6390   -1.0820    0.3750 C   0  0  0  0  0  0  0  0  0  0  0  0
   -4.6750   -1.9590   -0.8030 N   0  0  0  0  0  0  0  0  0  0  0  0
   -4.9990   -3.1890   -1.2090 C   0  0  0  0  0  0  0  0  0  0  0  0
   -4.7580   -3.3410   -2.5550 C   0  0  0  0  0  0  0  0  0  0  0  0
   -4.2570   -2.1170   -2.9680 C   0  0  0  0  0  0  0  0  0  0  0  0
   -4.2190   -1.2950   -1.8730 C   0  0  0  0  0  0  0  0  0  0  0  0
   -3.8380    0.1080   -1.4510 C   0  0  2  0  0  0  0  0  0  0  0  0
   -2.3930    0.0820   -1.1520 C   0  0  0  0  0  0  0  0  0  0  0  0
   -1.8120    1.2490   -0.5680 N   0  0  0  0  0  0  0  0  0  0  0  0
   -0.4140    1.2970   -0.2150 C   0  0  0  0  0  0  0  0  0  0  0  0
    0.2800    0.2890   -0.4320 O   0  0  0  0  0  0  0  0  0  0  0  0
    0.1660    2.4440    0.3590 N   0  0  0  0  0  0  0  0  0  0  0  0
    1.5600    2.5410    0.7290 C   0  0  0  0  0  0  0  0  0  0  0  0
    1.9520    1.5050    1.7630 C   0  0  0  0  0  0  0  0  0  0  0  0
    3.7010    1.6490    2.2070 S   0  0  0  0  0  0  0  0  0  0  0  0
    4.7620    1.2350    0.8440 C   0  0  0  0  0  0  0  0  0  0  0  0
    5.2010    2.1170   -0.0710 N   0  0  0  0  0  0  0  0  0  0  0  0
    5.9790    1.4680   -0.9510 C   0  0  0  0  0  0  0  0  0  0  0  0
    6.7000    2.0090   -2.1500 C   0  0  0  0  0  0  0  0  0  0  0  0
    6.0100    0.1930   -0.5680 N   0  0  0  0  0  0  0  0  0  0  0  0
    5.2680    0.0250    0.5370 N   0  0  0  0  0  0  0  0  0  0  0  0
    5.0760   -1.1970    1.2230 C   0  0  0  0  0  0  0  0  0  0  0  0
    4.9840   -1.2000    2.5930 C   0  0  0  0  0  0  0  0  0  0  0  0
    4.7980   -2.4240    3.2170 C   0  0  0  0  0  0  0  0  0  0  0  0
    4.7080   -3.5730    2.5360 N   0  0  0  0  0  0  0  0  0  0  0  0
    4.7950   -3.5940    1.1980 C   0  0  0  0  0  0  0  0  0  0  0  0
    4.9820   -2.3870    0.5390 C   0  0  0  0  0  0  0  0  0  0  0  0
  1  2  1  0
  3  2  1  1
  3  4  1  0
  3 10  1  0
  4  5  1  0
  5  6  1  0
  5  9  1  0
  6  7  2  0
  7  8  1  0
  8  9  2  0
  9 10  1  0
 10 11  1  1
 11 12  1  0
 12 13  1  0
 13 14  2  0
 13 15  1  0
 15 16  1  0
 16 17  1  0
 17 18  1  0
 18 19  1  0
 19 20  2  0
 19 24  1  0
 20 21  1  0
 21 22  1  0
 21 23  2  0
 23 24  1  0
 24 25  1  0
 25 26  2  0
 25 30  1  0
 26 27  1  0
 27 28  2  0
 28 29  1  0
 29 30  2  0
M  CHG  1   2   1
M  END
