
     RDKit          3D

 29 32  0  0  0  0  0  0  0  0999 V2000
    4.3590    2.4930    0.5230 C   0  0  0  0  0  0  0  0  0  0  0  0
    5.2630    1.4590   -0.0390 C   0  0  0  0  0  0  0  0  0  0  0  0
    6.5010    1.6810   -0.4290 C   0  0  0  0  0  0  0  0  0  0  0  0
    7.4120    0.6680   -0.9890 C   0  0  0  0  0  0  0  0  0  0  0  0
    6.8280   -0.6580   -0.9820 N   0  0  0  0  0  0  0  0  0  0  0  0
    5.4330   -0.5110   -1.3920 C   0  0  0  0  0  0  0  0  0  0  0  0
    4.7380    0.0790   -0.1740 C   0  0  2  0  0  0  0  0  0  0  0  0
    3.3150   -0.0160   -0.2340 N   0  0  0  0  0  0  0  0  0  0  0  0
    2.5720   -0.9210    0.5790 C   0  0  0  0  0  0  0  0  0  0  0  0
    3.2450   -1.6380    1.3540 O   0  0  0  0  0  0  0  0  0  0  0  0
    1.1270   -0.9650    0.4740 C   0  0  0  0  0  0  0  0  0  0  0  0
    0.2960   -1.7600    1.1340 C   0  0  0  0  0  0  0  0  0  0  0  0
   -1.0860   -1.5380    0.7840 C   0  0  0  0  0  0  0  0  0  0  0  0
   -2.2140   -2.0890    1.1740 C   0  0  0  0  0  0  0  0  0  0  0  0
   -3.5160   -1.6830    0.6640 C   0  0  0  0  0  0  0  0  0  0  0  0
   -4.5370   -2.4750    0.2420 C   0  0  0  0  0  0  0  0  0  0  0  0
   -5.5670   -1.6170   -0.1510 C   0  0  0  0  0  0  0  0  0  0  0  0
   -6.8360   -1.8000   -0.6600 C   0  0  0  0  0  0  0  0  0  0  0  0
   -7.2690   -3.1080   -0.8620 O   0  0  0  0  0  0  0  0  0  0  0  0
   -7.5940   -0.7240   -0.9380 N   0  0  0  0  0  0  0  0  0  0  0  0
   -7.1500    0.5300   -0.7330 C   0  0  0  0  0  0  0  0  0  0  0  0
   -5.8910    0.7380   -0.2270 C   0  0  0  0  0  0  0  0  0  0  0  0
   -5.4050    2.0290   -0.0010 O   0  0  0  0  0  0  0  0  0  0  0  0
   -6.1150    3.2010   -0.2540 C   0  0  0  0  0  0  0  0  0  0  0  0
   -7.2900    3.1840    0.5100 F   0  0  0  0  0  0  0  0  0  0  0  0
   -5.1020   -0.3490    0.0620 C   0  0  0  0  0  0  0  0  0  0  0  0
   -3.8670   -0.4290    0.5510 O   0  0  0  0  0  0  0  0  0  0  0  0
   -1.0580   -0.5120   -0.1720 O   0  0  0  0  0  0  0  0  0  0  0  0
    0.2620   -0.1530   -0.3290 C   0  0  0  0  0  0  0  0  0  0  0  0
  1  2  1  0
  2  3  2  0
  2  7  1  0
  3  4  1  0
  4  5  1  0
  5  6  1  0
  6  7  1  0
  7  8  1  6
  8  9  1  0
  9 10  2  0
  9 11  1  0
 11 12  2  0
 11 29  1  0
 12 13  1  0
 13 14  2  3
 13 28  1  0
 14 15  1  0
 15 16  2  0
 15 27  1  0
 16 17  1  0
 17 18  2  0
 17 26  1  0
 18 19  1  0
 18 20  1  0
 20 21  2  0
 21 22  1  0
 22 23  1  0
 22 26  2  0
 23 24  1  0
 24 25  1  0
 26 27  1  0
 28 29  1  0
M  END
