
     RDKit          3D

 29 32  0  0  0  0  0  0  0  0999 V2000
   -1.5020   -4.3860    1.2300 C   0  0  0  0  0  0  0  0  0  0  0  0
   -1.0120   -4.3040   -0.2130 C   0  0  0  0  0  0  0  0  0  0  0  0
    0.1440   -3.3710   -0.2300 C   0  0  0  0  0  0  0  0  0  0  0  0
    1.4840   -3.6150   -0.3160 C   0  0  0  0  0  0  0  0  0  0  0  0
    2.1660   -2.4510   -0.2950 N   0  0  0  0  0  0  0  0  0  0  0  0
    1.3000   -1.4560   -0.1980 N   0  0  0  0  0  0  0  0  0  0  0  0
    1.5090   -0.1160   -0.1420 C   0  0  0  0  0  0  0  0  0  0  0  0
    2.7640    0.5220   -0.1840 N   0  0  0  0  0  0  0  0  0  0  0  0
    4.0580   -0.0590   -0.3010 C   0  0  0  0  0  0  0  0  0  0  0  0
    5.0750    1.0690   -0.3020 C   0  0  0  0  0  0  0  0  0  0  0  0
    5.3640    1.6590   -1.5090 C   0  0  0  0  0  0  0  0  0  0  0  0
    6.2940    2.6970   -1.5380 C   0  0  0  0  0  0  0  0  0  0  0  0
    6.9020    3.1170   -0.3890 C   0  0  0  0  0  0  0  0  0  0  0  0
    6.5920    2.5140    0.7710 N   0  0  0  0  0  0  0  0  0  0  0  0
    7.1870    2.9090    1.9640 O   0  0  0  0  0  0  0  0  0  0  0  0
    5.6890    1.4990    0.8340 C   0  0  0  0  0  0  0  0  0  0  0  0
    0.3490    0.6630   -0.0390 C   0  0  0  0  0  0  0  0  0  0  0  0
   -0.9230    0.1720    0.0060 C   0  0  0  0  0  0  0  0  0  0  0  0
   -2.0810    0.9810    0.1120 N   0  0  0  0  0  0  0  0  0  0  0  0
   -2.0690    2.4040    0.2840 C   0  0  0  0  0  0  0  0  0  0  0  0
   -2.5990    2.7180    1.6770 C   0  0  0  0  0  0  0  0  0  0  0  0
   -3.7130    1.7500    2.0450 C   0  0  0  0  0  0  0  0  0  0  0  0
   -4.3710    1.3670    0.7130 C   0  0  0  0  0  0  0  0  0  0  0  0
   -3.4250    0.3880    0.0450 C   0  0  1  0  0  0  0  0  0  0  0  0
   -3.8290    0.1390   -1.3880 C   0  0  0  0  0  0  0  0  0  0  0  0
   -5.2210   -0.4720   -1.3560 C   0  0  0  0  0  0  0  0  0  0  0  0
   -5.6810   -0.7370   -2.6490 O   0  0  0  0  0  0  0  0  0  0  0  0
   -1.0360   -1.1890   -0.0570 N   0  0  0  0  0  0  0  0  0  0  0  0
    0.0530   -1.9750   -0.1560 C   0  0  0  0  0  0  0  0  0  0  0  0
  1  2  1  0
  2  3  1  0
  3  4  2  0
  3 29  1  0
  4  5  1  0
  5  6  1  0
  6  7  2  0
  6 29  1  0
  7  8  1  0
  7 17  1  0
  8  9  1  0
  9 10  1  0
 10 11  2  0
 10 16  1  0
 11 12  1  0
 12 13  2  0
 13 14  1  0
 14 15  1  0
 14 16  2  0
 17 18  2  0
 18 19  1  0
 18 28  1  0
 19 20  1  0
 19 24  1  0
 20 21  1  0
 21 22  1  0
 22 23  1  0
 23 24  1  0
 24 25  1  6
 25 26  1  0
 26 27  1  0
 28 29  2  0
M  CHG  3   6   1  14   1  15  -1
M  END
