
     RDKit          3D

 12 12  0  0  0  0  0  0  0  0999 V2000
   -2.9190   -0.4940    0.8640 C   0  0  0  0  0  0  0  0  0  0  0  0
   -1.7860   -0.2860    0.2290 C   0  0  0  0  0  0  0  0  0  0  0  0
   -0.8530   -1.3800    0.1540 N   0  0  0  0  0  0  0  0  0  0  0  0
    0.5600   -1.3370   -0.1380 C   0  0  0  0  0  0  0  0  0  0  0  0
    1.3100   -0.2600   -0.3570 C   0  0  0  0  0  0  0  0  0  0  0  0
    2.6330   -0.5830   -0.6080 O   0  0  0  0  0  0  0  0  0  0  0  0
    3.6960   -0.3030    0.2600 C   0  0  0  0  0  0  0  0  0  0  0  0
    0.9660    1.1560   -0.3750 C   0  0  0  0  0  0  0  0  0  0  0  0
    1.9460    1.9140   -0.3130 O   0  0  0  0  0  0  0  0  0  0  0  0
   -0.3210    1.7060   -0.4520 O   0  0  0  0  0  0  0  0  0  0  0  0
   -1.5570    1.0330   -0.3470 C   0  0  0  0  0  0  0  0  0  0  0  0
   -2.6140    1.6410   -0.8100 C   0  0  0  0  0  0  0  0  0  0  0  0
  1  2  2  0
  2  3  1  0
  2 11  1  0
  3  4  1  0
  4  5  2  0
  5  6  1  0
  5  8  1  0
  6  7  1  0
  8  9  2  0
  8 10  1  0
 10 11  1  0
 11 12  2  0
M  END
