
     RDKit          3D

 11 11  0  0  0  0  0  0  0  0999 V2000
    3.3950   -0.1710    0.4230 C   0  0  0  0  0  0  0  0  0  0  0  0
    2.0940   -0.1670   -0.1590 O   0  0  0  0  0  0  0  0  0  0  0  0
    1.1650    0.8150    0.1340 C   0  0  0  0  0  0  0  0  0  0  0  0
    1.5460    1.6920    0.9400 O   0  0  0  0  0  0  0  0  0  0  0  0
   -0.1460    0.7840   -0.4780 C   0  0  2  0  0  0  0  0  0  0  0  0
   -0.9730    1.9040   -0.0400 N   0  0  0  0  0  0  0  0  0  0  0  0
   -2.2090    1.2830    0.3870 C   0  0  0  0  0  0  0  0  0  0  0  0
   -2.2760    0.0800   -0.2930 O   0  0  0  0  0  0  0  0  0  0  0  0
   -0.9610   -0.4390   -0.2530 C   0  0  1  0  0  0  0  0  0  0  0  0
   -0.8510   -1.4180   -1.4020 C   0  0  0  0  0  0  0  0  0  0  0  0
   -0.7760   -1.1530    1.0150 C   0  0  0  0  0  0  0  0  0  0  0  0
  1  2  1  0
  2  3  1  0
  3  4  2  0
  5  3  1  1
  5  6  1  0
  5  9  1  0
  6  7  1  0
  7  8  1  0
  8  9  1  0
  9 10  1  6
  9 11  1  0
M  END
