
     RDKit          3D

 12 13  0  0  0  0  0  0  0  0999 V2000
   -2.9020   -1.8080    0.6760 O   0  0  0  0  0  0  0  0  0  0  0  0
   -2.0740   -0.9900    0.1560 C   0  0  0  0  0  0  0  0  0  0  0  0
   -2.5620    0.3080   -0.3060 C   0  0  0  0  0  0  0  0  0  0  0  0
   -1.9130    1.4130    0.2940 O   0  0  0  0  0  0  0  0  0  0  0  0
   -0.5430    1.6990    0.3900 C   0  0  0  0  0  0  0  0  0  0  0  0
   -0.1980    2.8670    0.7040 O   0  0  0  0  0  0  0  0  0  0  0  0
    0.5810    0.7750    0.1620 C   0  0  0  0  0  0  0  0  0  0  0  0
    1.8390    1.1460    0.0480 C   0  0  0  0  0  0  0  0  0  0  0  0
    2.6510   -0.0530   -0.1690 C   0  0  0  0  0  0  0  0  0  0  0  0
    1.6620   -1.1510   -0.1610 C   0  0  0  0  0  0  0  0  0  0  0  0
    0.4620   -0.6710    0.0320 C   0  0  0  0  0  0  0  0  0  0  0  0
   -0.7400   -1.4730    0.0950 N   0  0  0  0  0  0  0  0  0  0  0  0
  1  2  2  0
  2  3  1  0
  2 12  1  0
  3  4  1  0
  4  5  1  0
  5  6  2  0
  5  7  1  0
  7  8  2  0
  7 11  1  0
  8  9  1  0
  9 10  1  0
 10 11  2  0
 11 12  1  0
M  END
