
     RDKit          3D

 12 13  0  0  0  0  0  0  0  0999 V2000
   -0.0340    1.7150   -1.7230 O   0  0  0  0  0  0  0  0  0  0  0  0
   -0.7560    0.9700   -1.0340 C   0  0  0  0  0  0  0  0  0  0  0  0
   -2.1220    0.8230   -1.3590 N   0  0  0  0  0  0  0  0  0  0  0  0
   -2.8130   -0.3890   -1.0530 C   0  0  0  0  0  0  0  0  0  0  0  0
   -2.1870   -1.2110    0.0140 C   0  0  0  0  0  0  0  0  0  0  0  0
   -1.1940   -0.5580    0.7680 O   0  0  0  0  0  0  0  0  0  0  0  0
   -0.2590    0.2210    0.1160 C   0  0  0  0  0  0  0  0  0  0  0  0
    1.0070    0.2930    0.5000 C   0  0  0  0  0  0  0  0  0  0  0  0
    2.1290    1.0370   -0.0340 C   0  0  0  0  0  0  0  0  0  0  0  0
    3.2090    0.8170    0.6560 C   0  0  0  0  0  0  0  0  0  0  0  0
    2.8770   -0.1200    1.7380 C   0  0  0  0  0  0  0  0  0  0  0  0
    1.5140   -0.3970    1.5810 O   0  0  0  0  0  0  0  0  0  0  0  0
  1  2  2  0
  2  3  1  0
  2  7  1  0
  3  4  1  0
  4  5  1  0
  5  6  1  0
  6  7  1  0
  7  8  2  3
  8  9  1  0
  8 12  1  0
  9 10  2  0
 10 11  1  0
 11 12  1  0
M  END
