
     RDKit          3D

 12 13  0  0  0  0  0  0  0  0999 V2000
    2.8650    0.1240    0.2830 C   0  0  0  0  0  0  0  0  0  0  0  0
    1.4740   -0.2530   -0.0460 C   0  0  0  0  0  0  0  0  0  0  0  0
    1.1430   -1.3670   -0.7260 N   0  0  0  0  0  0  0  0  0  0  0  0
   -0.1290   -1.6880   -1.0130 C   0  0  0  0  0  0  0  0  0  0  0  0
   -1.1670   -0.8490   -0.6010 C   0  0  0  0  0  0  0  0  0  0  0  0
   -0.8770    0.3010    0.0960 C   0  0  0  0  0  0  0  0  0  0  0  0
    0.4500    0.5750    0.3600 C   0  0  0  0  0  0  0  0  0  0  0  0
    0.7540    1.7310    1.0610 O   0  0  0  0  0  0  0  0  0  0  0  0
   -2.1230    1.0070    0.4130 C   0  0  0  0  0  0  0  0  0  0  0  0
   -3.1580    0.2190   -0.1300 O   0  0  0  0  0  0  0  0  0  0  0  0
   -2.6080   -0.8950   -0.7400 C   0  0  0  0  0  0  0  0  0  0  0  0
   -3.2130   -1.8410   -1.3420 O   0  0  0  0  0  0  0  0  0  0  0  0
  1  2  1  0
  2  3  2  0
  2  7  1  0
  3  4  1  0
  4  5  2  0
  5  6  1  0
  5 11  1  0
  6  7  2  0
  6  9  1  0
  7  8  1  0
  9 10  1  0
 10 11  1  0
 11 12  2  0
M  END
