
     RDKit          3D

 12 13  0  0  0  0  0  0  0  0999 V2000
    3.3800   -0.3420    0.3220 C   0  0  0  0  0  0  0  0  0  0  0  0
    2.0830   -0.1630    0.1510 C   0  0  0  0  0  0  0  0  0  0  0  0
    1.3990    1.0740    0.0540 N   0  0  0  0  0  0  0  0  0  0  0  0
   -0.0210    0.8180   -0.1310 C   0  0  0  0  0  0  0  0  0  0  0  0
   -0.2340   -0.4740   -0.1520 C   0  0  0  0  0  0  0  0  0  0  0  0
   -1.6110   -1.0010   -0.3300 C   0  0  0  0  0  0  0  0  0  0  0  0
   -2.6660   -0.0360    0.1490 C   0  0  0  0  0  0  0  0  0  0  0  0
   -2.4200    1.2600   -0.4300 O   0  0  0  0  0  0  0  0  0  0  0  0
   -1.1350    1.7420   -0.2740 C   0  0  0  0  0  0  0  0  0  0  0  0
   -0.8830    2.9820   -0.2490 O   0  0  0  0  0  0  0  0  0  0  0  0
    1.0570   -1.1840    0.0220 C   0  0  0  0  0  0  0  0  0  0  0  0
    1.1440   -2.4230    0.0410 O   0  0  0  0  0  0  0  0  0  0  0  0
  1  2  2  0
  2  3  1  0
  2 11  1  0
  3  4  1  0
  4  5  2  0
  4  9  1  0
  5  6  1  0
  5 11  1  0
  6  7  1  0
  7  8  1  0
  8  9  1  0
  9 10  2  0
 11 12  2  0
M  END
