
     RDKit          3D

 12 13  0  0  0  0  0  0  0  0999 V2000
    3.4720    1.2080   -0.5900 O   0  0  0  0  0  0  0  0  0  0  0  0
    2.3730    0.6310   -0.3240 C   0  0  0  0  0  0  0  0  0  0  0  0
    1.0930    1.3000   -0.4250 C   0  0  0  0  0  0  0  0  0  0  0  0
   -0.0570    0.7140   -0.1490 C   0  0  0  0  0  0  0  0  0  0  0  0
   -1.3170    1.3680   -0.2480 N   0  0  0  0  0  0  0  0  0  0  0  0
   -2.5330    0.6790    0.0640 C   0  0  0  0  0  0  0  0  0  0  0  0
   -3.5910    1.3290    0.2290 O   0  0  0  0  0  0  0  0  0  0  0  0
   -2.5010   -0.7930    0.1820 C   0  0  0  0  0  0  0  0  0  0  0  0
   -1.2460   -1.3000    0.5690 O   0  0  0  0  0  0  0  0  0  0  0  0
   -0.0280   -0.6830    0.2780 C   0  0  0  0  0  0  0  0  0  0  0  0
    1.1000   -1.3500    0.3900 C   0  0  0  0  0  0  0  0  0  0  0  0
    2.4220   -0.7770    0.1040 C   0  0  0  0  0  0  0  0  0  0  0  0
  1  2  2  0
  2  3  1  0
  2 12  1  0
  3  4  2  0
  4  5  1  0
  4 10  1  0
  5  6  1  0
  6  7  2  0
  6  8  1  0
  8  9  1  0
  9 10  1  0
 10 11  2  0
 11 12  1  0
M  END
