
     RDKit          3D

 12 13  0  0  0  0  0  0  0  0999 V2000
    3.5370    0.9120    1.3430 O   0  0  0  0  0  0  0  0  0  0  0  0
    2.6700    0.4980    0.5460 C   0  0  0  0  0  0  0  0  0  0  0  0
    1.5630   -0.4340    0.8750 C   0  0  0  0  0  0  0  0  0  0  0  0
    0.5560   -0.0790   -0.2140 C   0  0  1  0  0  0  0  0  0  0  0  0
   -0.3440   -1.2450   -0.4270 C   0  0  0  0  0  0  0  0  0  0  0  0
   -1.7540   -0.9430   -0.7050 C   0  0  0  0  0  0  0  0  0  0  0  0
   -2.3150    0.2040   -0.1140 N   0  0  0  0  0  0  0  0  0  0  0  0
   -1.4670    0.9620    0.7470 C   0  0  0  0  0  0  0  0  0  0  0  0
   -0.1350    1.1970    0.1240 C   0  0  0  0  0  0  0  0  0  0  0  0
    1.4680    0.1750   -1.3600 C   0  0  0  0  0  0  0  0  0  0  0  0
    1.3650   -0.0900   -2.5680 O   0  0  0  0  0  0  0  0  0  0  0  0
    2.5790    0.8290   -0.7930 O   0  0  0  0  0  0  0  0  0  0  0  0
  1  2  2  0
  2  3  1  0
  2 12  1  0
  4  3  1  1
  4  5  1  0
  4  9  1  0
  4 10  1  0
  5  6  1  0
  6  7  1  0
  7  8  1  0
  8  9  1  0
 10 11  2  0
 10 12  1  0
M  END
