
     RDKit          3D

 15 17  0  0  0  0  0  0  0  0999 V2000
   -3.2100    1.2990   -0.9180 C   0  0  0  0  0  0  0  0  0  0  0  0
   -1.8610    0.9010   -0.5470 C   0  0  0  0  0  0  0  0  0  0  0  0
   -0.3630    1.8960   -0.8720 S   0  0  0  0  0  0  0  0  0  0  0  0
    0.7600    0.7890   -0.1650 C   0  0  0  0  0  0  0  0  0  0  0  0
   -0.0070   -0.2510    0.2740 C   0  0  0  0  0  0  0  0  0  0  0  0
   -1.3410   -0.1820    0.0730 C   0  0  0  0  0  0  0  0  0  0  0  0
   -2.3080   -1.2860    0.5180 C   0  0  0  0  0  0  0  0  0  0  0  0
    0.7390   -1.2770    0.8950 C   0  0  0  0  0  0  0  0  0  0  0  0
    0.2210   -2.3110    1.3630 O   0  0  0  0  0  0  0  0  0  0  0  0
    2.0680   -1.1690    1.0060 N   0  0  0  0  0  0  0  0  0  0  0  0
    2.7920   -0.1400    0.5660 C   0  0  0  0  0  0  0  0  0  0  0  0
    4.1050    0.2530    0.5280 C   0  0  0  0  0  0  0  0  0  0  0  0
    4.1600    1.4470   -0.0790 N   0  0  0  0  0  0  0  0  0  0  0  0
    2.9190    1.8210   -0.4260 N   0  0  0  0  0  0  0  0  0  0  0  0
    2.1060    0.8720   -0.0400 N   0  0  0  0  0  0  0  0  0  0  0  0
  1  2  1  0
  2  3  1  0
  2  6  2  0
  3  4  1  0
  4  5  2  0
  4 15  1  0
  5  6  1  0
  5  8  1  0
  6  7  1  0
  8  9  2  0
  8 10  1  0
 10 11  1  0
 11 12  2  0
 11 15  1  0
 12 13  1  0
 13 14  2  0
 14 15  1  0
M  END
