
     RDKit          3D

 15 17  0  0  0  0  0  0  0  0999 V2000
   -1.8670    3.2860    0.1240 O   0  0  0  0  0  0  0  0  0  0  0  0
   -1.2710    2.1850    0.0560 C   0  0  0  0  0  0  0  0  0  0  0  0
    0.0480    2.1850    0.2850 N   0  0  0  0  0  0  0  0  0  0  0  0
    0.7010    1.0050    0.2150 C   0  0  0  0  0  0  0  0  0  0  0  0
    2.0690    0.9900    0.4500 C   0  0  0  0  0  0  0  0  0  0  0  0
    2.7770   -0.1740    0.3920 C   0  0  0  0  0  0  0  0  0  0  0  0
    2.1280   -1.3460    0.0970 C   0  0  0  0  0  0  0  0  0  0  0  0
    0.7570   -1.3850   -0.1470 C   0  0  0  0  0  0  0  0  0  0  0  0
    0.0680   -0.1970   -0.0820 C   0  0  0  0  0  0  0  0  0  0  0  0
   -1.2630   -0.1950   -0.3130 N   0  0  0  0  0  0  0  0  0  0  0  0
   -2.1230   -1.1610   -0.6120 C   0  0  0  0  0  0  0  0  0  0  0  0
   -1.8750   -2.9200   -0.8420 S   0  0  0  0  0  0  0  0  0  0  0  0
   -3.3430   -0.5640   -0.7310 N   0  0  0  0  0  0  0  0  0  0  0  0
   -3.1950    0.7150   -0.5060 N   0  0  0  0  0  0  0  0  0  0  0  0
   -1.9050    0.9990   -0.2380 C   0  0  0  0  0  0  0  0  0  0  0  0
  1  2  2  0
  2  3  1  0
  2 15  1  0
  3  4  1  0
  4  5  2  0
  4  9  1  0
  5  6  1  0
  6  7  2  0
  7  8  1  0
  8  9  2  0
  9 10  1  0
 10 11  1  0
 10 15  1  0
 11 12  1  0
 11 13  2  0
 13 14  1  0
 14 15  2  0
M  END
