
     RDKit          3D

 15 17  0  0  0  0  0  0  0  0999 V2000
   -2.9500    1.4320    1.4650 C   0  0  0  0  0  0  0  0  0  0  0  0
   -2.6750    0.5200    0.3560 N   0  0  0  0  0  0  0  0  0  0  0  0
   -3.5520   -0.0510   -0.4520 N   0  0  0  0  0  0  0  0  0  0  0  0
   -2.9470   -0.8290   -1.3570 C   0  0  0  0  0  0  0  0  0  0  0  0
   -1.5720   -0.7540   -1.1160 C   0  0  0  0  0  0  0  0  0  0  0  0
   -0.5190   -1.3260   -1.7160 N   0  0  0  0  0  0  0  0  0  0  0  0
    0.7170   -1.0360   -1.2210 C   0  0  0  0  0  0  0  0  0  0  0  0
    1.7460   -1.5590   -1.7630 O   0  0  0  0  0  0  0  0  0  0  0  0
    0.8540   -0.1950   -0.1560 C   0  0  0  0  0  0  0  0  0  0  0  0
    2.2010    0.1530    0.4230 C   0  0  0  0  0  0  0  0  0  0  0  0
    3.3560   -0.2180    0.0850 C   0  0  0  0  0  0  0  0  0  0  0  0
    4.1080    0.4930    1.0530 C   0  0  0  0  0  0  0  0  0  0  0  0
    2.6980    1.1690    1.7450 S   0  0  0  0  0  0  0  0  0  0  0  0
   -0.2220    0.3630    0.4240 N   0  0  0  0  0  0  0  0  0  0  0  0
   -1.4590    0.0980   -0.0390 C   0  0  0  0  0  0  0  0  0  0  0  0
  1  2  1  0
  2  3  1  0
  2 15  1  0
  3  4  2  0
  4  5  1  0
  5  6  1  0
  5 15  2  0
  6  7  1  0
  7  8  2  0
  7  9  1  0
  9 10  1  0
  9 14  2  0
 10 11  2  0
 10 13  1  0
 11 12  1  0
 12 13  1  0
 14 15  1  0
M  END
