
     RDKit          3D

 15 17  0  0  0  0  0  0  0  0999 V2000
   -4.1440    1.2390   -0.2520 O   0  0  0  0  0  0  0  0  0  0  0  0
   -2.8570    0.6700   -0.1810 C   0  0  0  0  0  0  0  0  0  0  0  0
   -1.8430    1.1780   -0.9510 C   0  0  0  0  0  0  0  0  0  0  0  0
   -0.6040    0.6140   -0.8680 C   0  0  0  0  0  0  0  0  0  0  0  0
   -0.3540   -0.4590   -0.0210 C   0  0  0  0  0  0  0  0  0  0  0  0
    0.9830   -0.9630   -0.0210 N   0  0  0  0  0  0  0  0  0  0  0  0
    1.2610   -2.2260   -0.2750 N   0  0  0  0  0  0  0  0  0  0  0  0
    2.5510   -2.4750   -0.2230 N   0  0  0  0  0  0  0  0  0  0  0  0
    3.1170   -1.2540    0.0910 C   0  0  0  0  0  0  0  0  0  0  0  0
    4.5660   -0.3530    0.4070 S   0  0  0  0  0  0  0  0  0  0  0  0
    3.6510    1.2770    0.6890 C   0  0  0  0  0  0  0  0  0  0  0  0
    2.5510    0.9070    0.5170 N   0  0  0  0  0  0  0  0  0  0  0  0
    2.1410   -0.3020    0.2190 C   0  0  0  0  0  0  0  0  0  0  0  0
   -1.3620   -0.9570    0.7390 C   0  0  0  0  0  0  0  0  0  0  0  0
   -2.6290   -0.4000    0.6710 C   0  0  0  0  0  0  0  0  0  0  0  0
  1  2  1  0
  2  3  2  0
  2 15  1  0
  3  4  1  0
  4  5  2  0
  5  6  1  0
  5 14  1  0
  6  7  1  0
  6 13  1  0
  7  8  2  0
  8  9  1  0
  9 10  1  0
  9 13  2  0
 10 11  1  0
 11 12  2  0
 12 13  1  0
 14 15  2  0
M  END
