
     RDKit          3D

 15 17  0  0  0  0  0  0  0  0999 V2000
   -3.0530    1.5360    0.4830 C   0  0  0  0  0  0  0  0  0  0  0  0
   -1.7990    0.8060    0.2410 C   0  0  0  0  0  0  0  0  0  0  0  0
   -0.5180    1.2190    0.4870 C   0  0  0  0  0  0  0  0  0  0  0  0
    0.3820    0.1940    0.1000 C   0  0  0  0  0  0  0  0  0  0  0  0
    1.7180   -0.0110    0.0860 C   0  0  0  0  0  0  0  0  0  0  0  0
    2.7320    0.8520    0.5090 N   0  0  0  0  0  0  0  0  0  0  0  0
    3.9900    0.4990    0.4270 N   0  0  0  0  0  0  0  0  0  0  0  0
    4.4440   -0.6730   -0.0470 C   0  0  0  0  0  0  0  0  0  0  0  0
    5.6520   -0.9430   -0.0950 O   0  0  0  0  0  0  0  0  0  0  0  0
    3.4970   -1.5400   -0.4670 N   0  0  0  0  0  0  0  0  0  0  0  0
    2.2120   -1.1910   -0.3890 C   0  0  0  0  0  0  0  0  0  0  0  0
    0.6940   -2.0620   -0.8420 S   0  0  0  0  0  0  0  0  0  0  0  0
   -0.4340   -0.7830   -0.3600 C   0  0  0  0  0  0  0  0  0  0  0  0
   -1.7480   -0.4320   -0.2820 N   0  0  0  0  0  0  0  0  0  0  0  0
   -2.7890   -1.3210   -0.7170 C   0  0  0  0  0  0  0  0  0  0  0  0
  1  2  1  0
  2  3  2  0
  2 14  1  0
  3  4  1  0
  4  5  1  0
  4 13  2  0
  5  6  2  0
  5 11  1  0
  6  7  1  0
  7  8  1  0
  8  9  2  0
  8 10  1  0
 10 11  2  0
 11 12  1  0
 12 13  1  0
 13 14  1  0
 14 15  1  0
M  END
