
     RDKit          3D

 15 17  0  0  0  0  0  0  0  0999 V2000
    1.2500   -2.5050   -0.2760 O   0  0  0  0  0  0  0  0  0  0  0  0
    0.2240   -1.7790   -0.1290 C   0  0  0  0  0  0  0  0  0  0  0  0
   -1.0120   -2.3360    0.0080 C   0  0  0  0  0  0  0  0  0  0  0  0
   -2.0970   -1.5040    0.1650 C   0  0  0  0  0  0  0  0  0  0  0  0
   -1.8920   -0.1420    0.1770 C   0  0  0  0  0  0  0  0  0  0  0  0
   -2.7740    0.8490    0.3130 N   0  0  0  0  0  0  0  0  0  0  0  0
   -2.0830    2.0060    0.2580 C   0  0  0  0  0  0  0  0  0  0  0  0
   -0.7470    1.7310    0.0860 C   0  0  0  0  0  0  0  0  0  0  0  0
   -0.6140    0.3750    0.0320 C   0  0  0  0  0  0  0  0  0  0  0  0
    0.4090   -0.4580   -0.1170 N   0  0  0  0  0  0  0  0  0  0  0  0
    1.7820    0.0830   -0.2720 C   0  0  0  0  0  0  0  0  0  0  0  0
    2.8830   -0.3100    0.1220 N   0  0  0  0  0  0  0  0  0  0  0  0
    4.0140    0.2840   -0.0990 C   0  0  0  0  0  0  0  0  0  0  0  0
    3.9670    1.4270   -0.8220 N   0  0  0  0  0  0  0  0  0  0  0  0
    2.1370    1.5490   -1.1430 S   0  0  0  0  0  0  0  0  0  0  0  0
  1  2  2  0
  2  3  1  0
  2 10  1  0
  3  4  2  0
  4  5  1  0
  5  6  1  0
  5  9  2  0
  6  7  1  0
  7  8  2  0
  8  9  1  0
  9 10  1  0
 10 11  1  0
 11 12  2  0
 11 15  1  0
 12 13  1  0
 13 14  2  0
 14 15  1  0
M  END
