
     RDKit          3D

 11 11  0  0  0  0  0  0  0  0999 V2000
    2.9820   -0.7500    0.5710 C   0  0  0  0  0  0  0  0  0  0  0  0
    2.1090    0.4360    0.3720 C   0  0  0  0  0  0  0  0  0  0  0  0
    2.5880    1.5760    0.3740 O   0  0  0  0  0  0  0  0  0  0  0  0
    0.6810    0.1730    0.1770 C   0  0  0  0  0  0  0  0  0  0  0  0
   -0.0700    1.2520    0.0010 C   0  0  0  0  0  0  0  0  0  0  0  0
    0.6330    2.4340    0.0340 O   0  0  0  0  0  0  0  0  0  0  0  0
   -1.5510    1.2990   -0.2200 C   0  0  0  0  0  0  0  0  0  0  0  0
   -1.9670    0.0590   -0.9920 C   0  0  0  0  0  0  0  0  0  0  0  0
   -2.0790   -1.1260   -0.0790 C   0  0  0  0  0  0  0  0  0  0  0  0
   -1.0320   -1.2330    0.8230 O   0  0  0  0  0  0  0  0  0  0  0  0
    0.2160   -1.2350    0.1920 C   0  0  0  0  0  0  0  0  0  0  0  0
  1  2  1  0
  2  3  2  0
  2  4  1  0
  4  5  2  0
  4 11  1  0
  5  6  1  0
  5  7  1  0
  7  8  1  0
  8  9  1  0
  9 10  1  0
 10 11  1  0
M  END
