
     RDKit          3D

 12 12  0  0  0  0  0  0  0  0999 V2000
    5.4420   -0.2350    0.7760 O   0  0  0  0  0  0  0  0  0  0  0  0
    4.1280   -0.0020    0.3390 C   0  0  0  0  0  0  0  0  0  0  0  0
    3.1630   -0.5930    1.3400 C   0  0  0  0  0  0  0  0  0  0  0  0
    1.7940   -0.3370    0.8610 C   0  0  0  0  0  0  0  0  0  0  0  0
    0.6790   -0.1080    0.4600 C   0  0  0  0  0  0  0  0  0  0  0  0
   -0.6640    0.1560   -0.0290 C   0  0  0  0  0  0  0  0  0  0  0  0
   -1.0300    1.0600   -1.0040 C   0  0  0  0  0  0  0  0  0  0  0  0
   -2.3940    1.0010   -1.1710 C   0  0  0  0  0  0  0  0  0  0  0  0
   -2.8200    0.0430   -0.2730 C   0  0  0  0  0  0  0  0  0  0  0  0
   -4.2530   -0.3430   -0.1200 C   0  0  0  0  0  0  0  0  0  0  0  0
   -5.0680    0.3800   -0.9860 O   0  0  0  0  0  0  0  0  0  0  0  0
   -1.7770   -0.4160    0.3650 O   0  0  0  0  0  0  0  0  0  0  0  0
  1  2  1  0
  2  3  1  0
  3  4  1  0
  4  5  3  0
  5  6  1  0
  6  7  2  0
  6 12  1  0
  7  8  1  0
  8  9  2  0
  9 10  1  0
  9 12  1  0
 10 11  1  0
M  END
