
     RDKit          3D

 12 11  0  0  0  0  0  0  0  0999 V2000
   -1.1450   -2.3580   -0.0800 C   0  0  0  0  0  0  0  0  0  0  0  0
   -1.6330   -1.1750    0.0870 C   0  0  0  0  0  0  0  0  0  0  0  0
   -3.1280   -1.0800    0.3310 C   0  0  0  0  0  0  0  0  0  0  0  0
   -0.8390    0.0690    0.0540 C   0  0  0  0  0  0  0  0  0  0  0  0
   -1.5670    1.1680    0.2530 C   0  0  0  0  0  0  0  0  0  0  0  0
   -1.1540    2.5220    0.2890 C   0  0  0  0  0  0  0  0  0  0  0  0
   -0.0130    2.9530    0.1400 O   0  0  0  0  0  0  0  0  0  0  0  0
    0.5920    0.0490   -0.1760 C   0  0  0  0  0  0  0  0  0  0  0  0
    1.1490   -1.1000   -0.3510 O   0  0  0  0  0  0  0  0  0  0  0  0
    1.4360    1.1190   -0.2300 O   0  0  0  0  0  0  0  0  0  0  0  0
    2.8110    0.9060   -0.4650 C   0  0  0  0  0  0  0  0  0  0  0  0
    3.4270    0.0410    0.6060 C   0  0  0  0  0  0  0  0  0  0  0  0
  1  2  2  0
  2  3  1  0
  2  4  1  0
  4  5  2  3
  4  8  1  0
  5  6  1  0
  6  7  2  0
  8  9  2  0
  8 10  1  0
 10 11  1  0
 11 12  1  0
M  END
