
     RDKit          3D

 12 12  0  0  0  0  0  0  0  0999 V2000
   -2.8420   -1.9690    0.1420 C   0  0  0  0  0  0  0  0  0  0  0  0
   -1.4430   -1.5170    0.2500 C   0  0  0  0  0  0  0  0  0  0  0  0
   -1.0480   -0.2940   -0.0490 C   0  0  0  0  0  0  0  0  0  0  0  0
   -1.9160    0.8060   -0.5290 C   0  0  0  0  0  0  0  0  0  0  0  0
   -1.1570    2.0350   -0.1540 C   0  0  0  0  0  0  0  0  0  0  0  0
    0.2290    1.5760   -0.0400 C   0  0  0  0  0  0  0  0  0  0  0  0
    1.3320    2.4180    0.0000 O   0  0  0  0  0  0  0  0  0  0  0  0
    0.2980    0.2530    0.0210 C   0  0  0  0  0  0  0  0  0  0  0  0
    1.5510   -0.5120    0.1390 C   0  0  0  0  0  0  0  0  0  0  0  0
    1.5410   -1.7680    0.1910 O   0  0  0  0  0  0  0  0  0  0  0  0
    2.7820    0.1210    0.1970 O   0  0  0  0  0  0  0  0  0  0  0  0
    4.0130   -0.5240    0.3090 C   0  0  0  0  0  0  0  0  0  0  0  0
  1  2  1  0
  2  3  2  3
  3  4  1  0
  3  8  1  0
  4  5  1  0
  5  6  1  0
  6  7  1  0
  6  8  2  0
  8  9  1  0
  9 10  2  0
  9 11  1  0
 11 12  1  0
M  END
