
     RDKit          3D

 12 12  0  0  0  0  0  0  0  0999 V2000
   -4.4440    0.6440   -0.0350 C   0  0  0  0  0  0  0  0  0  0  0  0
   -3.1890   -0.1580    0.2110 C   0  0  1  0  0  0  0  0  0  0  0  0
   -3.2090   -1.3300   -0.5200 O   0  0  0  0  0  0  0  0  0  0  0  0
   -2.0060    0.6880   -0.1270 C   0  0  0  0  0  0  0  0  0  0  0  0
   -0.7740    0.0290    0.1290 O   0  0  0  0  0  0  0  0  0  0  0  0
    0.4120    0.6970   -0.1390 C   0  0  0  0  0  0  0  0  0  0  0  0
    0.3420    1.8620   -0.5990 O   0  0  0  0  0  0  0  0  0  0  0  0
    1.7150    0.0710    0.1030 C   0  0  0  0  0  0  0  0  0  0  0  0
    1.9000   -1.1500    0.5840 C   0  0  0  0  0  0  0  0  0  0  0  0
    3.3580   -1.4340    0.6920 C   0  0  0  0  0  0  0  0  0  0  0  0
    3.8980   -0.0190    0.8840 C   0  0  0  0  0  0  0  0  0  0  0  0
    3.0320    0.7100   -0.1530 C   0  0  0  0  0  0  0  0  0  0  0  0
  2  1  1  6
  2  3  1  0
  2  4  1  0
  4  5  1  0
  5  6  1  0
  6  7  2  0
  6  8  1  0
  8  9  2  0
  8 12  1  0
  9 10  1  0
 10 11  1  0
 11 12  1  0
M  END
