
     RDKit          3D

 12 12  0  0  0  0  0  0  0  0999 V2000
    4.3060    0.3330    0.3000 C   0  0  0  0  0  0  0  0  0  0  0  0
    3.1480    0.1090   -0.4500 O   0  0  0  0  0  0  0  0  0  0  0  0
    2.0720   -0.6240    0.0180 C   0  0  0  0  0  0  0  0  0  0  0  0
    2.1430   -1.1090    1.1700 O   0  0  0  0  0  0  0  0  0  0  0  0
    0.9040   -0.7870   -0.8730 C   0  0  0  0  0  0  0  0  0  0  0  0
   -0.2180    0.1550   -0.4830 C   0  0  1  0  0  0  0  0  0  0  0  0
    0.2970    1.4630   -0.5940 O   0  0  0  0  0  0  0  0  0  0  0  0
   -1.3190    0.0140   -1.4730 C   0  0  0  0  0  0  0  0  0  0  0  0
   -2.6810    0.3740   -0.9500 C   0  0  0  0  0  0  0  0  0  0  0  0
   -2.9200   -0.3660    0.3660 C   0  0  0  0  0  0  0  0  0  0  0  0
   -1.9430    0.2520    1.3440 C   0  0  0  0  0  0  0  0  0  0  0  0
   -0.5630   -0.1210    0.9310 C   0  0  0  0  0  0  0  0  0  0  0  0
  1  2  1  0
  2  3  1  0
  3  4  2  0
  3  5  1  0
  5  6  1  0
  6  7  1  1
  6  8  1  0
  6 12  1  0
  8  9  1  0
  9 10  1  0
 10 11  1  0
 11 12  1  0
M  END
