
     RDKit          3D

 12 12  0  0  0  0  0  0  0  0999 V2000
    1.6290    0.5880   -2.0750 O   0  0  0  0  0  0  0  0  0  0  0  0
    2.4500    0.0940   -1.0770 C   0  0  0  0  0  0  0  0  0  0  0  0
    2.0420   -0.6620   -0.1000 C   0  0  0  0  0  0  0  0  0  0  0  0
    3.0110   -1.1380    0.9210 C   0  0  0  0  0  0  0  0  0  0  0  0
    4.2590   -0.6500    0.6170 O   0  0  0  0  0  0  0  0  0  0  0  0
    0.7340   -1.0770    0.0770 O   0  0  0  0  0  0  0  0  0  0  0  0
   -0.4110   -0.4230   -0.4320 C   0  0  1  0  0  0  0  0  0  0  0  0
   -1.6060   -1.2150    0.0000 C   0  0  0  0  0  0  0  0  0  0  0  0
   -2.8970   -0.4890    0.0020 C   0  0  0  0  0  0  0  0  0  0  0  0
   -2.7990    0.9910    0.1680 C   0  0  0  0  0  0  0  0  0  0  0  0
   -1.5580    1.2650    0.9950 C   0  0  0  0  0  0  0  0  0  0  0  0
   -0.3860    0.9870    0.0430 C   0  0  0  0  0  0  0  0  0  0  0  0
  1  2  1  0
  2  3  2  3
  3  4  1  0
  3  6  1  0
  4  5  1  0
  7  6  1  1
  7  8  1  0
  7 12  1  0
  8  9  1  0
  9 10  1  0
 10 11  1  0
 11 12  1  0
M  END
