
     RDKit          3D

 27 28  0  0  0  0  0  0  0  0999 V2000
   -6.2420   -0.5760    2.5830 N   0  0  0  0  0  0  0  0  0  0  0  0
   -6.3040   -0.5090    1.1780 C   0  0  0  0  0  0  0  0  0  0  0  0
   -7.4090   -0.5960    0.6010 O   0  0  0  0  0  0  0  0  0  0  0  0
   -5.1230   -0.3410    0.3650 N   0  0  0  0  0  0  0  0  0  0  0  0
   -5.1620   -0.2720   -1.0280 C   0  0  0  0  0  0  0  0  0  0  0  0
   -6.3770   -0.3760   -1.5040 O   0  0  0  0  0  0  0  0  0  0  0  0
   -4.0840   -0.1080   -1.9720 C   0  0  0  0  0  0  0  0  0  0  0  0
   -2.8180    0.0210   -1.8510 C   0  0  0  0  0  0  0  0  0  0  0  0
   -1.9470    0.0540   -0.7150 C   0  0  0  0  0  0  0  0  0  0  0  0
   -0.6240    0.2050   -0.9160 C   0  0  0  0  0  0  0  0  0  0  0  0
    0.0220    0.3420   -2.2320 C   0  0  0  0  0  0  0  0  0  0  0  0
    1.4420    0.1100   -1.9500 N   0  0  0  0  0  0  0  0  0  0  0  0
    1.6760    0.2070   -0.5680 C   0  0  0  0  0  0  0  0  0  0  0  0
    2.9190    0.2360   -0.0140 C   0  0  0  0  0  0  0  0  0  0  0  0
    3.0380    0.3360    1.4050 C   0  0  0  0  0  0  0  0  0  0  0  0
    3.9870    0.3880    2.2510 C   0  0  0  0  0  0  0  0  0  0  0  0
    3.4390    0.5190    4.0060 Cl  0  0  0  0  0  0  0  0  0  0  0  0
    5.4290    0.3640    2.0980 C   0  0  0  0  0  0  0  0  0  0  0  0
    6.2510    0.4330    3.1720 C   0  0  0  0  0  0  0  0  0  0  0  0
    7.6410    0.3880    2.7250 C   0  0  0  0  0  0  0  0  0  0  0  0
    7.5810    0.2850    1.2890 C   0  0  0  0  0  0  0  0  0  0  0  0
    6.2850    0.2710    0.9230 C   0  0  0  0  0  0  0  0  0  0  0  0
    5.9300    0.1800   -0.3760 F   0  0  0  0  0  0  0  0  0  0  0  0
    0.4110    0.2650    0.0560 N   0  0  0  0  0  0  0  0  0  0  0  0
   -4.5810   -0.0860   -3.4010 C   0  0  0  0  0  0  0  0  0  0  0  0
   -5.9440   -0.2140   -3.7180 N   0  0  0  0  0  0  0  0  0  0  0  0
   -3.7000    0.0540   -4.2740 O   0  0  0  0  0  0  0  0  0  0  0  0
  1  2  1  0
  2  3  2  0
  2  4  1  0
  4  5  1  0
  5  6  2  0
  5  7  1  0
  7  8  2  3
  7 25  1  0
  8  9  1  0
  9 10  2  3
 10 11  1  0
 10 24  1  0
 11 12  1  0
 12 13  1  0
 13 14  2  3
 13 24  1  0
 14 15  1  0
 15 16  2  3
 16 17  1  0
 16 18  1  0
 18 19  2  0
 18 22  1  0
 19 20  1  0
 20 21  1  0
 21 22  2  0
 22 23  1  0
 25 26  1  0
 25 27  2  0
M  END
