
     RDKit          3D

 27 28  0  0  0  0  0  0  0  0999 V2000
   -6.4690    0.9060    1.8510 C   0  0  0  0  0  0  0  0  0  0  0  0
   -5.1430    0.7870    1.1360 C   0  0  0  0  0  0  0  0  0  0  0  0
   -4.9620   -0.1940    0.2720 C   0  0  0  0  0  0  0  0  0  0  0  0
   -6.0820   -1.1350    0.0480 C   0  0  0  0  0  0  0  0  0  0  0  0
   -5.9890   -2.1320   -0.7870 C   0  0  0  0  0  0  0  0  0  0  0  0
   -4.7760   -2.3410   -1.5210 C   0  0  0  0  0  0  0  0  0  0  0  0
   -4.6750   -3.3080   -2.3340 O   0  0  0  0  0  0  0  0  0  0  0  0
   -3.6570   -1.4470   -1.3330 C   0  0  0  0  0  0  0  0  0  0  0  0
   -3.7430   -0.4200   -0.4780 C   0  0  0  0  0  0  0  0  0  0  0  0
   -2.5800    0.4340   -0.3480 C   0  0  0  0  0  0  0  0  0  0  0  0
   -2.6170    1.4080    0.4430 O   0  0  0  0  0  0  0  0  0  0  0  0
   -1.3930    0.2170   -1.0790 N   0  0  0  0  0  0  0  0  0  0  0  0
   -0.3310    1.1390   -0.8510 N   0  0  0  0  0  0  0  0  0  0  0  0
    0.9600    0.5810   -0.5400 C   0  0  0  0  0  0  0  0  0  0  0  0
    1.1260   -0.6550   -0.4740 O   0  0  0  0  0  0  0  0  0  0  0  0
    2.0430    1.4630   -0.3100 N   0  0  0  0  0  0  0  0  0  0  0  0
    3.3700    1.1230    0.0040 C   0  0  0  0  0  0  0  0  0  0  0  0
    3.8690   -0.0910    0.1540 C   0  0  0  0  0  0  0  0  0  0  0  0
    5.2370   -0.4250    0.4780 C   0  0  0  0  0  0  0  0  0  0  0  0
    5.7720   -1.5910    0.6420 C   0  0  0  0  0  0  0  0  0  0  0  0
    5.1220   -2.8860    0.5420 C   0  0  0  0  0  0  0  0  0  0  0  0
    3.7990   -2.9240    0.2450 F   0  0  0  0  0  0  0  0  0  0  0  0
    6.1770    0.7480    0.6460 C   0  0  2  0  0  0  0  0  0  0  0  0
    6.9730    0.6440    2.2320 Cl  0  0  0  0  0  0  0  0  0  0  0  0
    5.5540    2.0060    0.4670 N   0  0  0  0  0  0  0  0  0  0  0  0
    4.3290    2.2260    0.1850 C   0  0  0  0  0  0  0  0  0  0  0  0
    3.9060    3.6000    0.0460 N   0  0  0  0  0  0  0  0  0  0  0  0
  1  2  1  0
  2  3  2  3
  3  4  1  0
  3  9  1  0
  4  5  2  0
  5  6  1  0
  6  7  2  0
  6  8  1  0
  8  9  2  0
  9 10  1  0
 10 11  2  0
 10 12  1  0
 12 13  1  0
 13 14  1  0
 14 15  2  0
 14 16  1  0
 16 17  1  0
 17 18  2  0
 17 26  1  0
 18 19  1  0
 19 20  2  3
 19 23  1  0
 20 21  1  0
 21 22  1  0
 23 24  1  1
 23 25  1  0
 25 26  2  0
 26 27  1  0
M  END
