
     RDKit          3D

 27 28  0  0  0  0  0  0  0  0999 V2000
   -5.5010   -2.1130    0.0810 C   0  0  0  0  0  0  0  0  0  0  0  0
   -5.1370   -0.7470    0.6130 C   0  0  2  0  0  0  0  0  0  0  0  0
   -5.7520   -0.4960    1.9500 C   0  0  0  0  0  0  0  0  0  0  0  0
   -5.5850    0.3570   -0.3220 C   0  0  0  0  0  0  0  0  0  0  0  0
   -4.6720    1.4910    0.1470 C   0  0  2  0  0  0  0  0  0  0  0  0
   -4.6500    2.5740   -0.8080 N   0  0  0  0  0  0  0  0  0  0  0  0
   -3.3820    0.7770    0.2440 C   0  0  0  0  0  0  0  0  0  0  0  0
   -2.1230    1.2600    0.0270 C   0  0  0  0  0  0  0  0  0  0  0  0
   -0.9990    0.4270    0.1660 C   0  0  0  0  0  0  0  0  0  0  0  0
    0.3020    0.6980   -0.0070 C   0  0  0  0  0  0  0  0  0  0  0  0
    1.2410   -0.3880    0.2220 C   0  0  0  0  0  0  0  0  0  0  0  0
    0.5230   -1.6430    0.6050 N   0  0  0  0  0  0  0  0  0  0  0  0
    2.4850   -0.5250    0.1770 C   0  0  0  0  0  0  0  0  0  0  0  0
    3.6000    0.3070   -0.1160 C   0  0  0  0  0  0  0  0  0  0  0  0
    3.6090    1.5190   -0.4310 O   0  0  0  0  0  0  0  0  0  0  0  0
    4.9570   -0.2370   -0.0710 N   0  0  0  0  0  0  0  0  0  0  0  0
    5.2730   -1.4950    0.2330 C   0  0  0  0  0  0  0  0  0  0  0  0
    6.6660   -1.6560    0.1770 C   0  0  0  0  0  0  0  0  0  0  0  0
    7.1920   -0.4370   -0.1750 C   0  0  0  0  0  0  0  0  0  0  0  0
    8.6110   -0.1270   -0.3540 C   0  0  0  0  0  0  0  0  0  0  0  0
    9.6160   -1.1120   -0.1700 N   0  0  0  0  0  0  0  0  0  0  0  0
    8.9410    1.0400   -0.6780 O   0  0  0  0  0  0  0  0  0  0  0  0
    6.1110    0.4010   -0.3160 C   0  0  0  0  0  0  0  0  0  0  0  0
    0.6990    2.0520   -0.4260 C   0  0  1  0  0  0  0  0  0  0  0  0
   -0.4160    2.7170   -0.9340 F   0  0  0  0  0  0  0  0  0  0  0  0
    1.1700    3.0020    1.0230 Cl  0  0  0  0  0  0  0  0  0  0  0  0
   -3.6850   -0.5540    0.6170 N   0  0  0  0  0  0  0  0  0  0  0  0
  2  1  1  6
  2  3  1  0
  2  4  1  0
  2 27  1  0
  4  5  1  0
  5  6  1  6
  5  7  1  0
  7  8  2  3
  7 27  1  0
  8  9  1  0
  9 10  2  3
 10 11  1  0
 10 24  1  0
 11 12  1  0
 11 13  2  3
 13 14  1  0
 14 15  2  0
 14 16  1  0
 16 17  1  0
 16 23  1  0
 17 18  2  0
 18 19  1  0
 19 20  1  0
 19 23  2  0
 20 21  1  0
 20 22  2  0
 24 25  1  1
 24 26  1  0
M  CHG  1   6   1
M  END
