
     RDKit          3D

 27 29  0  0  0  0  0  0  0  0999 V2000
   -4.3870   -1.2170   -1.7150 N   0  0  0  0  0  0  0  0  0  0  0  0
   -4.5400   -0.1630   -0.7570 C   0  0  1  0  0  0  0  0  0  0  0  0
   -3.3340    0.4090   -0.2390 C   0  0  0  0  0  0  0  0  0  0  0  0
   -3.1480    1.3340    0.4670 O   0  0  0  0  0  0  0  0  0  0  0  0
   -1.8770   -0.3870   -0.7260 N   0  0  0  0  0  0  0  0  0  0  0  0
   -0.9740    0.4530   -0.0320 C   0  0  0  0  0  0  0  0  0  0  0  0
   -1.0750    1.4360    0.6290 O   0  0  0  0  0  0  0  0  0  0  0  0
    0.3800   -0.0950   -0.2440 N   0  0  0  0  0  0  0  0  0  0  0  0
    1.5660    0.4470    0.1630 C   0  0  0  0  0  0  0  0  0  0  0  0
    1.6590    1.8090    0.4090 C   0  0  0  0  0  0  0  0  0  0  0  0
    2.8740    2.3890    0.6900 C   0  0  0  0  0  0  0  0  0  0  0  0
    4.0050    1.5630    0.7180 C   0  0  0  0  0  0  0  0  0  0  0  0
    5.4770    2.3990    1.1450 Cl  0  0  0  0  0  0  0  0  0  0  0  0
    3.9650    0.2150    0.4800 C   0  0  0  0  0  0  0  0  0  0  0  0
    2.7140   -0.3540    0.2020 C   0  0  0  0  0  0  0  0  0  0  0  0
    2.5130   -1.7620    0.1160 N   0  0  0  0  0  0  0  0  0  0  0  0
    3.6350   -2.6200    0.3310 C   0  0  0  0  0  0  0  0  0  0  0  0
    3.7620   -3.7780   -0.0750 O   0  0  0  0  0  0  0  0  0  0  0  0
    4.7410   -1.9870    1.1420 C   0  0  0  0  0  0  0  0  0  0  0  0
    5.0830   -0.7070    0.4040 C   0  0  2  0  0  0  0  0  0  0  0  0
    6.4530   -0.2910    0.6580 C   0  0  0  0  0  0  0  0  0  0  0  0
    6.9050    0.6970   -0.3180 N   0  0  0  0  0  0  0  0  0  0  0  0
    8.1850    1.0570   -0.0910 F   0  0  0  0  0  0  0  0  0  0  0  0
   -5.4320    0.9240   -1.3620 C   0  0  0  0  0  0  0  0  0  0  0  0
   -5.9740    1.6270   -0.1690 C   0  0  0  0  0  0  0  0  0  0  0  0
   -6.1750    0.5650    0.8570 C   0  0  0  0  0  0  0  0  0  0  0  0
   -5.4170   -0.6480    0.4140 C   0  0  0  0  0  0  0  0  0  0  0  0
  2  1  1  6
  2  3  1  0
  2 24  1  0
  2 27  1  0
  3  4  2  0
  3  5  1  0
  5  6  1  0
  6  7  2  0
  6  8  1  0
  8  9  1  0
  9 10  2  0
  9 15  1  0
 10 11  1  0
 11 12  2  0
 12 13  1  0
 12 14  1  0
 14 15  2  0
 14 20  1  0
 15 16  1  0
 16 17  1  0
 17 18  2  0
 17 19  1  0
 19 20  1  0
 20 21  1  1
 21 22  1  0
 22 23  1  0
 24 25  1  0
 25 26  1  0
 26 27  1  0
M  CHG  1   1   1
M  END
