
     RDKit          3D

 27 29  0  0  0  0  0  0  0  0999 V2000
    4.0230   -1.4160    2.6530 C   0  0  0  0  0  0  0  0  0  0  0  0
    3.6580   -0.7190    1.4840 O   0  0  0  0  0  0  0  0  0  0  0  0
    4.6320   -0.2950    0.5800 C   0  0  0  0  0  0  0  0  0  0  0  0
    5.9400   -0.5780    0.8680 C   0  0  0  0  0  0  0  0  0  0  0  0
    6.9380   -0.1820    0.0090 C   0  0  0  0  0  0  0  0  0  0  0  0
    8.6250   -0.5520    0.3880 Cl  0  0  0  0  0  0  0  0  0  0  0  0
    6.6250    0.4940   -1.1310 C   0  0  0  0  0  0  0  0  0  0  0  0
    5.2790    0.7720   -1.4040 C   0  0  0  0  0  0  0  0  0  0  0  0
    4.2600    0.3940   -0.5730 C   0  0  0  0  0  0  0  0  0  0  0  0
    2.8960    0.6510   -0.8050 N   0  0  0  0  0  0  0  0  0  0  0  0
    2.3530    1.3250   -1.9040 C   0  0  0  0  0  0  0  0  0  0  0  0
    3.1320    1.7720   -2.8180 O   0  0  0  0  0  0  0  0  0  0  0  0
    0.9230    1.5460   -2.0640 C   0  0  0  0  0  0  0  0  0  0  0  0
    0.0530    1.0460   -1.0420 N   0  0  0  0  0  0  0  0  0  0  0  0
   -1.3750    1.2240   -1.1250 C   0  0  0  0  0  0  0  0  0  0  0  0
   -1.8120    1.8290   -2.1200 O   0  0  0  0  0  0  0  0  0  0  0  0
   -2.2520    0.7480   -0.1440 N   0  0  0  0  0  0  0  0  0  0  0  0
   -3.6970    0.9160   -0.2050 C   0  0  2  0  0  0  0  0  0  0  0  0
   -4.2530    1.5910    1.0080 C   0  0  0  0  0  0  0  0  0  0  0  0
   -5.5410    0.9230    1.3570 C   0  0  0  0  0  0  0  0  0  0  0  0
   -5.4600   -0.4370    0.7450 C   0  0  0  0  0  0  0  0  0  0  0  0
   -6.0470   -1.6230    0.7680 C   0  0  0  0  0  0  0  0  0  0  0  0
   -7.1080   -2.0520    1.4940 F   0  0  0  0  0  0  0  0  0  0  0  0
   -5.3120   -2.4480   -0.1820 C   0  0  0  0  0  0  0  0  0  0  0  0
   -5.5760   -3.6840   -0.4530 N   0  0  0  0  0  0  0  0  0  0  0  0
   -4.2980   -1.6150   -0.7070 N   0  0  0  0  0  0  0  0  0  0  0  0
   -4.3530   -0.4450   -0.1940 C   0  0  0  0  0  0  0  0  0  0  0  0
  1  2  1  0
  2  3  1  0
  3  4  2  0
  3  9  1  0
  4  5  1  0
  5  6  1  0
  5  7  2  0
  7  8  1  0
  8  9  2  0
  9 10  1  0
 10 11  1  0
 11 12  2  0
 11 13  1  0
 13 14  1  0
 14 15  1  0
 15 16  2  0
 15 17  1  0
 18 17  1  1
 18 19  1  0
 18 27  1  0
 19 20  1  0
 20 21  1  0
 21 22  2  0
 21 27  1  0
 22 23  1  0
 22 24  1  0
 24 25  2  0
 24 26  1  0
 26 27  2  0
M  CHG  1  25   1
M  END
