
     RDKit          3D

 27 28  0  0  0  0  0  0  0  0999 V2000
    2.9200    0.8960   -3.3470 C   0  0  0  0  0  0  0  0  0  0  0  0
    1.9340    0.3390   -2.7050 C   0  0  0  0  0  0  0  0  0  0  0  0
    0.6690    0.4970   -3.2380 N   0  0  0  0  0  0  0  0  0  0  0  0
   -0.4120    0.0140   -2.6450 C   0  0  0  0  0  0  0  0  0  0  0  0
   -1.5690    0.1500   -3.1200 O   0  0  0  0  0  0  0  0  0  0  0  0
   -0.2600   -0.6430   -1.4980 N   0  0  0  0  0  0  0  0  0  0  0  0
   -1.4820   -1.1700   -0.8620 C   0  0  0  0  0  0  0  0  0  0  0  0
   -2.0440   -0.2130    0.0280 N   0  0  0  0  0  0  0  0  0  0  0  0
   -3.2300   -0.6140    0.7060 C   0  0  2  0  0  0  0  0  0  0  0  0
   -4.3440   -0.8640   -0.2640 C   0  0  0  0  0  0  0  0  0  0  0  0
   -4.8420    0.4250   -0.9030 C   0  0  0  0  0  0  0  0  0  0  0  0
   -5.2170    1.4460    0.1240 C   0  0  0  0  0  0  0  0  0  0  0  0
   -5.1440    0.8250    1.4850 C   0  0  0  0  0  0  0  0  0  0  0  0
   -3.7000    0.3990    1.7250 C   0  0  2  0  0  0  0  0  0  0  0  0
   -2.8260    1.5510    1.6420 N   0  0  0  0  0  0  0  0  0  0  0  0
    0.9330   -0.8270   -0.9370 C   0  0  0  0  0  0  0  0  0  0  0  0
    1.0080   -1.4530    0.1420 O   0  0  0  0  0  0  0  0  0  0  0  0
    2.1370   -0.3340   -1.5270 C   0  0  0  0  0  0  0  0  0  0  0  0
    3.2400   -0.6420   -0.9470 C   0  0  0  0  0  0  0  0  0  0  0  0
    4.6420   -0.5360   -1.0890 C   0  0  0  0  0  0  0  0  0  0  0  0
    5.3970   -0.0230   -2.0700 F   0  0  0  0  0  0  0  0  0  0  0  0
    5.4340   -1.0670   -0.0860 C   0  0  0  0  0  0  0  0  0  0  0  0
    7.1500   -0.9520   -0.2300 Cl  0  0  0  0  0  0  0  0  0  0  0  0
    4.8090   -1.6830    0.9990 N   0  0  0  0  0  0  0  0  0  0  0  0
    4.9490   -1.2660    2.3670 C   0  0  0  0  0  0  0  0  0  0  0  0
    4.8880   -0.0250    2.7780 C   0  0  0  0  0  0  0  0  0  0  0  0
    4.6630    1.1080    1.8520 C   0  0  0  0  0  0  0  0  0  0  0  0
  1  2  2  0
  2  3  1  0
  2 18  1  0
  3  4  1  0
  4  5  2  0
  4  6  1  0
  6  7  1  0
  6 16  1  0
  7  8  1  0
  9  8  1  6
  9 10  1  0
  9 14  1  0
 10 11  1  0
 11 12  1  0
 12 13  1  0
 13 14  1  0
 14 15  1  6
 16 17  2  0
 16 18  1  0
 18 19  2  3
 19 20  1  0
 20 21  1  0
 20 22  2  3
 22 23  1  0
 22 24  1  0
 24 25  1  0
 25 26  2  3
 26 27  1  0
M  END
