
     RDKit          3D

 27 29  0  0  0  0  0  0  0  0999 V2000
    3.6530   -2.7810   -0.8830 N   0  0  0  0  0  0  0  0  0  0  0  0
    3.3140   -1.6180   -0.4040 C   0  0  0  0  0  0  0  0  0  0  0  0
    2.5180   -1.3500    0.7430 N   0  0  0  0  0  0  0  0  0  0  0  0
    2.3830    0.0590    0.9270 C   0  0  0  0  0  0  0  0  0  0  0  0
    1.7370    0.7170    1.8550 C   0  0  0  0  0  0  0  0  0  0  0  0
    1.0110   -0.0170    2.9090 C   0  0  0  0  0  0  0  0  0  0  0  0
   -0.3900    0.2630    2.9320 N   0  0  0  0  0  0  0  0  0  0  0  0
   -1.2060   -0.0180    1.7740 C   0  0  0  0  0  0  0  0  0  0  0  0
   -0.6170   -0.5040    0.7940 O   0  0  0  0  0  0  0  0  0  0  0  0
   -2.5870    0.2430    1.7560 N   0  0  0  0  0  0  0  0  0  0  0  0
   -3.4840    0.0150    0.6960 C   0  0  0  0  0  0  0  0  0  0  0  0
   -3.1940   -0.4880   -0.4800 C   0  0  0  0  0  0  0  0  0  0  0  0
   -4.1920   -0.6950   -1.5370 C   0  0  0  0  0  0  0  0  0  0  0  0
   -3.9330   -1.5590   -2.4960 C   0  0  0  0  0  0  0  0  0  0  0  0
   -4.8500   -1.7610   -3.4810 F   0  0  0  0  0  0  0  0  0  0  0  0
   -2.4450   -2.4520   -2.5350 Cl  0  0  0  0  0  0  0  0  0  0  0  0
   -5.4450    0.0590   -1.5010 C   0  0  0  0  0  0  0  0  0  0  0  0
   -5.8580    0.1660   -0.1300 N   0  0  0  0  0  0  0  0  0  0  0  0
   -4.9030    0.3680    0.8960 C   0  0  0  0  0  0  0  0  0  0  0  0
   -5.2330    0.8600    2.0240 O   0  0  0  0  0  0  0  0  0  0  0  0
    3.1480    0.6630   -0.1800 C   0  0  0  0  0  0  0  0  0  0  0  0
    3.3910    1.9620   -0.5420 C   0  0  0  0  0  0  0  0  0  0  0  0
    2.8520    2.9780    0.2290 O   0  0  0  0  0  0  0  0  0  0  0  0
    4.1710    2.2470   -1.6680 C   0  0  0  0  0  0  0  0  0  0  0  0
    4.7210    1.2580   -2.4550 C   0  0  0  0  0  0  0  0  0  0  0  0
    4.4590   -0.0390   -2.0680 C   0  0  0  0  0  0  0  0  0  0  0  0
    3.6930   -0.3260   -0.9600 C   0  0  0  0  0  0  0  0  0  0  0  0
  1  2  2  0
  2  3  1  0
  2 27  1  0
  3  4  1  0
  4  5  2  3
  4 21  1  0
  5  6  1  0
  6  7  1  0
  7  8  1  0
  8  9  2  0
  8 10  1  0
 10 11  1  0
 11 12  2  0
 11 19  1  0
 12 13  1  0
 13 14  2  3
 13 17  1  0
 14 15  1  0
 14 16  1  0
 17 18  1  0
 18 19  1  0
 19 20  2  0
 21 22  2  0
 21 27  1  0
 22 23  1  0
 22 24  1  0
 24 25  2  0
 25 26  1  0
 26 27  2  0
M  CHG  1   1   1
M  END
