
     RDKit          3D

 27 29  0  0  0  0  0  0  0  0999 V2000
   -4.0000    2.8060   -0.0670 C   0  0  0  0  0  0  0  0  0  0  0  0
   -3.7090    1.3890   -0.5920 C   0  0  2  0  0  0  0  0  0  0  0  0
   -5.0160    0.7220   -0.8730 C   0  0  0  0  0  0  0  0  0  0  0  0
   -4.9390   -0.7710   -0.8930 C   0  0  0  0  0  0  0  0  0  0  0  0
   -3.5940   -1.3260   -0.6550 C   0  0  0  0  0  0  0  0  0  0  0  0
   -2.8970   -0.7480    0.5220 C   0  0  2  0  0  0  0  0  0  0  0  0
   -1.5300   -1.2790    0.6390 N   0  0  0  0  0  0  0  0  0  0  0  0
   -0.5530   -1.1120   -0.3750 C   0  0  0  0  0  0  0  0  0  0  0  0
   -0.7850   -0.5080   -1.4250 O   0  0  0  0  0  0  0  0  0  0  0  0
    0.7770   -1.6490   -0.2210 N   0  0  0  0  0  0  0  0  0  0  0  0
    1.7350   -1.4830   -1.2210 N   0  0  0  0  0  0  0  0  0  0  0  0
    3.0410   -0.9020   -0.8900 C   0  0  0  0  0  0  0  0  0  0  0  0
    3.1720   -0.2430    0.1920 N   0  0  0  0  0  0  0  0  0  0  0  0
    4.3820    0.3600    0.6160 C   0  0  0  0  0  0  0  0  0  0  0  0
    4.4930    1.0790    1.7810 C   0  0  0  0  0  0  0  0  0  0  0  0
    5.7160    1.6640    2.1370 C   0  0  0  0  0  0  0  0  0  0  0  0
    5.8710    2.3800    3.2740 F   0  0  0  0  0  0  0  0  0  0  0  0
    6.8100    1.5020    1.2890 C   0  0  0  0  0  0  0  0  0  0  0  0
    6.7060    0.7830    0.1210 C   0  0  0  0  0  0  0  0  0  0  0  0
    8.1180    0.6220   -0.8920 Cl  0  0  0  0  0  0  0  0  0  0  0  0
    5.4690    0.2080   -0.2090 C   0  0  0  0  0  0  0  0  0  0  0  0
    5.4320   -0.5590   -1.4590 C   0  0  0  0  0  0  0  0  0  0  0  0
    4.1240   -1.1070   -1.8460 C   0  0  0  0  0  0  0  0  0  0  0  0
   -3.5750   -1.1330    1.7820 C   0  0  0  0  0  0  0  0  0  0  0  0
   -4.9050   -0.7380    2.0050 N   0  0  0  0  0  0  0  0  0  0  0  0
   -2.9780   -1.8010    2.6450 O   0  0  0  0  0  0  0  0  0  0  0  0
   -2.8090    0.7390    0.3760 C   0  0  0  0  0  0  0  0  0  0  0  0
  2  1  1  1
  2  3  1  0
  2 27  1  0
  3  4  1  0
  4  5  1  0
  5  6  1  0
  6  7  1  1
  6 24  1  0
  6 27  1  0
  7  8  1  0
  8  9  2  0
  8 10  1  0
 10 11  1  0
 11 12  1  0
 12 13  2  0
 12 23  1  0
 13 14  1  0
 14 15  2  0
 14 21  1  0
 15 16  1  0
 16 17  1  0
 16 18  2  0
 18 19  1  0
 19 20  1  0
 19 21  2  0
 21 22  1  0
 22 23  1  0
 24 25  1  0
 24 26  2  0
M  CHG  1  13   1
M  END
