
     RDKit          3D

 22 23  0  0  0  0  0  0  0  0999 V2000
   -4.4310   -2.8500   -2.8260 C   0  0  0  0  0  0  0  0  0  0  0  0
   -3.2170   -2.1520   -2.6340 O   0  0  0  0  0  0  0  0  0  0  0  0
   -3.0200   -1.4620   -1.4210 C   0  0  0  0  0  0  0  0  0  0  0  0
   -4.0010   -1.4850   -0.4650 C   0  0  0  0  0  0  0  0  0  0  0  0
   -3.8400   -0.8080    0.7600 C   0  0  0  0  0  0  0  0  0  0  0  0
   -2.6950   -0.1080    1.0260 C   0  0  0  0  0  0  0  0  0  0  0  0
   -2.3960    0.6140    2.1970 N   0  0  0  0  0  0  0  0  0  0  0  0
   -3.2910    0.6440    3.2930 C   0  0  0  0  0  0  0  0  0  0  0  0
   -4.3930    0.0750    3.3660 O   0  0  0  0  0  0  0  0  0  0  0  0
   -1.6660   -0.0740    0.0440 C   0  0  0  0  0  0  0  0  0  0  0  0
   -0.5920    0.5690    0.2670 O   0  0  0  0  0  0  0  0  0  0  0  0
    0.5360    1.1710    0.3490 C   0  0  0  0  0  0  0  0  0  0  0  0
    1.6410    0.2280    0.2310 O   0  0  0  0  0  0  0  0  0  0  0  0
    2.9350    0.6970    0.3070 C   0  0  0  0  0  0  0  0  0  0  0  0
    3.2160    2.0290    0.4960 C   0  0  0  0  0  0  0  0  0  0  0  0
    4.5310    2.4880    0.5710 C   0  0  0  0  0  0  0  0  0  0  0  0
    5.5780    1.5730    0.4520 C   0  0  0  0  0  0  0  0  0  0  0  0
    6.8760    2.0340    0.5280 O   0  0  0  0  0  0  0  0  0  0  0  0
    5.3090    0.2420    0.2640 C   0  0  0  0  0  0  0  0  0  0  0  0
    3.9800   -0.1950    0.1910 C   0  0  0  0  0  0  0  0  0  0  0  0
    3.6710   -1.5330    0.0030 O   0  0  0  0  0  0  0  0  0  0  0  0
   -1.8750   -0.7690   -1.1700 C   0  0  0  0  0  0  0  0  0  0  0  0
  1  2  1  0
  2  3  1  0
  3  4  2  0
  3 22  1  0
  4  5  1  0
  5  6  2  0
  6  7  1  0
  6 10  1  0
  7  8  1  0
  8  9  2  0
 10 11  1  0
 10 22  2  0
 11 12  1  0
 12 13  1  0
 13 14  1  0
 14 15  2  0
 14 20  1  0
 15 16  1  0
 16 17  2  0
 17 18  1  0
 17 19  1  0
 19 20  2  0
 20 21  1  0
M  END
