
     RDKit          3D

 23 24  0  0  0  0  0  0  0  0999 V2000
    4.8920    1.8380    1.4880 C   0  0  0  0  0  0  0  0  0  0  0  0
    3.8070    1.6660    0.6330 O   0  0  0  0  0  0  0  0  0  0  0  0
    3.1550    0.4870    0.3540 C   0  0  0  0  0  0  0  0  0  0  0  0
    3.4780   -0.7410    0.8850 C   0  0  0  0  0  0  0  0  0  0  0  0
    2.7830   -1.8640    0.5580 C   0  0  0  0  0  0  0  0  0  0  0  0
    1.7120   -1.7600   -0.3430 C   0  0  0  0  0  0  0  0  0  0  0  0
    1.0460   -2.9350   -0.6380 O   0  0  0  0  0  0  0  0  0  0  0  0
    1.3530   -0.5660   -0.8960 C   0  0  0  0  0  0  0  0  0  0  0  0
    0.2240   -0.4300   -1.8300 C   0  0  1  0  0  0  0  0  0  0  0  0
    0.2060   -1.4360   -2.8080 O   0  0  0  0  0  0  0  0  0  0  0  0
   -1.1000   -0.2750   -1.1770 C   0  0  0  0  0  0  0  0  0  0  0  0
   -1.8600   -1.3700   -0.8590 C   0  0  0  0  0  0  0  0  0  0  0  0
   -3.1060   -1.1930   -0.2330 C   0  0  0  0  0  0  0  0  0  0  0  0
   -3.5760    0.0640    0.0670 C   0  0  0  0  0  0  0  0  0  0  0  0
   -4.8040    0.2130    0.6830 O   0  0  0  0  0  0  0  0  0  0  0  0
   -4.9680    0.2470    2.0550 C   0  0  0  0  0  0  0  0  0  0  0  0
   -3.9300    0.1340    2.7730 O   0  0  0  0  0  0  0  0  0  0  0  0
   -2.8310    1.1780   -0.2440 C   0  0  0  0  0  0  0  0  0  0  0  0
   -3.3230    2.4800    0.0680 N   0  0  0  0  0  0  0  0  0  0  0  0
   -2.9230    3.4340   -0.6590 O   0  0  0  0  0  0  0  0  0  0  0  0
   -4.1800    2.7560    1.0770 O   0  0  0  0  0  0  0  0  0  0  0  0
   -1.6120    0.9780   -0.8580 C   0  0  0  0  0  0  0  0  0  0  0  0
    2.0940    0.5490   -0.5300 C   0  0  0  0  0  0  0  0  0  0  0  0
  1  2  1  0
  2  3  1  0
  3  4  2  0
  3 23  1  0
  4  5  1  0
  5  6  2  0
  6  7  1  0
  6  8  1  0
  8  9  1  0
  8 23  2  0
  9 10  1  6
  9 11  1  0
 11 12  2  0
 11 22  1  0
 12 13  1  0
 13 14  2  0
 14 15  1  0
 14 18  1  0
 15 16  1  0
 16 17  2  0
 18 19  1  0
 18 22  2  0
 19 20  2  0
 19 21  1  0
M  CHG  2  19   1  21  -1
M  END
