
     RDKit          3D

 23 24  0  0  0  0  0  0  0  0999 V2000
    4.1320   -2.8980    1.9170 C   0  0  0  0  0  0  0  0  0  0  0  0
    3.4500   -1.7800    1.3450 O   0  0  0  0  0  0  0  0  0  0  0  0
    4.1120   -0.6480    0.9080 C   0  0  0  0  0  0  0  0  0  0  0  0
    5.3630   -0.6330    1.0350 O   0  0  0  0  0  0  0  0  0  0  0  0
    3.4520    0.5320    0.3100 C   0  0  0  0  0  0  0  0  0  0  0  0
    2.0540    0.3820    0.2300 O   0  0  0  0  0  0  0  0  0  0  0  0
    1.2450    1.3640   -0.3040 C   0  0  0  0  0  0  0  0  0  0  0  0
    1.8360    2.5180   -0.7680 C   0  0  0  0  0  0  0  0  0  0  0  0
    1.0730    3.5370   -1.3150 C   0  0  0  0  0  0  0  0  0  0  0  0
   -0.2800    3.3860   -1.3890 C   0  0  0  0  0  0  0  0  0  0  0  0
   -1.0840    4.4060   -1.9420 N   0  0  0  0  0  0  0  0  0  0  0  0
   -0.5750    5.4490   -2.3640 O   0  0  0  0  0  0  0  0  0  0  0  0
   -2.4580    4.2570   -2.0210 O   0  0  0  0  0  0  0  0  0  0  0  0
   -0.8560    2.2080   -0.9120 C   0  0  0  0  0  0  0  0  0  0  0  0
   -0.1160    1.1850   -0.3660 C   0  0  0  0  0  0  0  0  0  0  0  0
   -0.7730   -0.0390    0.1300 C   0  0  2  0  0  0  0  0  0  0  0  0
   -0.2720   -1.1020   -0.6540 O   0  0  0  0  0  0  0  0  0  0  0  0
   -2.2770   -0.0030   -0.1400 C   0  0  0  0  0  0  0  0  0  0  0  0
   -2.8930   -1.2350    0.3710 C   0  0  0  0  0  0  0  0  0  0  0  0
   -3.5690   -2.1500   -0.3410 C   0  0  0  0  0  0  0  0  0  0  0  0
   -4.0160   -3.2380    0.6000 C   0  0  0  0  0  0  0  0  0  0  0  0
   -3.9890   -2.6070    1.8440 O   0  0  0  0  0  0  0  0  0  0  0  0
   -2.9050   -1.7290    1.7710 C   0  0  0  0  0  0  0  0  0  0  0  0
  1  2  1  0
  2  3  1  0
  3  4  2  0
  3  5  1  0
  5  6  1  0
  6  7  1  0
  7  8  2  0
  7 15  1  0
  8  9  1  0
  9 10  2  0
 10 11  1  0
 10 14  1  0
 11 12  2  0
 11 13  1  0
 14 15  2  0
 15 16  1  0
 16 17  1  6
 16 18  1  0
 18 19  1  0
 19 20  2  0
 19 23  1  0
 20 21  1  0
 21 22  1  0
 22 23  1  0
M  CHG  2  11   1  13  -1
M  END
