
     RDKit          3D

 22 23  0  0  0  0  0  0  0  0999 V2000
    7.4220    0.9490    0.6520 C   0  0  0  0  0  0  0  0  0  0  0  0
    6.0980    1.0370    0.1090 O   0  0  0  0  0  0  0  0  0  0  0  0
    5.1460    0.0790    0.3270 C   0  0  0  0  0  0  0  0  0  0  0  0
    5.4240   -0.9250    1.0280 O   0  0  0  0  0  0  0  0  0  0  0  0
    3.7960    0.2230   -0.2590 C   0  0  0  0  0  0  0  0  0  0  0  0
    3.3420    1.2600   -1.0450 C   0  0  0  0  0  0  0  0  0  0  0  0
    2.0190    1.0190   -1.3920 C   0  0  0  0  0  0  0  0  0  0  0  0
    1.6940   -0.1760   -0.8000 C   0  0  0  0  0  0  0  0  0  0  0  0
    0.3660   -0.8280   -0.9040 C   0  0  0  0  0  0  0  0  0  0  0  0
   -0.5260   -0.2550   -1.5760 O   0  0  0  0  0  0  0  0  0  0  0  0
    0.1400   -2.0290   -0.2730 O   0  0  0  0  0  0  0  0  0  0  0  0
   -1.0640   -2.7230   -0.2950 C   0  0  0  0  0  0  0  0  0  0  0  0
   -2.2340   -2.0380    0.3530 C   0  0  0  0  0  0  0  0  0  0  0  0
   -2.5660   -0.8180   -0.2140 O   0  0  0  0  0  0  0  0  0  0  0  0
   -3.5930   -0.0320    0.2190 C   0  0  0  0  0  0  0  0  0  0  0  0
   -4.3450   -0.4740    1.2840 C   0  0  0  0  0  0  0  0  0  0  0  0
   -5.3870    0.2930    1.7460 C   0  0  0  0  0  0  0  0  0  0  0  0
   -5.6690    1.4970    1.1410 C   0  0  0  0  0  0  0  0  0  0  0  0
   -4.9030    1.9420    0.0610 C   0  0  0  0  0  0  0  0  0  0  0  0
   -3.8590    1.1660   -0.3960 C   0  0  0  0  0  0  0  0  0  0  0  0
   -3.0860    1.6080   -1.4810 O   0  0  0  0  0  0  0  0  0  0  0  0
    2.7670   -0.6300   -0.1320 N   0  0  0  0  0  0  0  0  0  0  0  0
  1  2  1  0
  2  3  1  0
  3  4  2  0
  3  5  1  0
  5  6  2  0
  5 22  1  0
  6  7  1  0
  7  8  2  0
  8  9  1  0
  8 22  1  0
  9 10  2  0
  9 11  1  0
 11 12  1  0
 12 13  1  0
 13 14  1  0
 14 15  1  0
 15 16  2  0
 15 20  1  0
 16 17  1  0
 17 18  2  0
 18 19  1  0
 19 20  2  0
 20 21  1  0
M  END
