
     RDKit          3D

 23 24  0  0  0  0  0  0  0  0999 V2000
   -0.9080   -0.6460   -0.6680 O   0  0  0  0  0  0  0  0  0  0  0  0
   -1.2280    0.5300   -0.9180 C   0  0  0  0  0  0  0  0  0  0  0  0
   -0.5630    1.4590   -1.8350 C   0  0  0  0  0  0  0  0  0  0  0  0
    0.5660    0.9100   -2.4220 O   0  0  0  0  0  0  0  0  0  0  0  0
    1.7100    0.4670   -1.8190 C   0  0  0  0  0  0  0  0  0  0  0  0
    1.8350    0.5630   -0.4500 C   0  0  0  0  0  0  0  0  0  0  0  0
    2.9810    0.1230    0.2130 C   0  0  0  0  0  0  0  0  0  0  0  0
    3.1150    0.2260    1.6880 C   0  0  0  0  0  0  0  0  0  0  0  0
    3.7080    1.4810    2.1000 N   0  0  0  0  0  0  0  0  0  0  0  0
    4.7760    1.4620    2.7440 O   0  0  0  0  0  0  0  0  0  0  0  0
    3.0600    2.6380    1.7580 O   0  0  0  0  0  0  0  0  0  0  0  0
    3.9740   -0.4070   -0.5730 C   0  0  0  0  0  0  0  0  0  0  0  0
    3.8800   -0.5150   -1.9410 C   0  0  0  0  0  0  0  0  0  0  0  0
    2.7490   -0.0800   -2.5740 C   0  0  0  0  0  0  0  0  0  0  0  0
    2.6340   -0.1790   -3.9440 O   0  0  0  0  0  0  0  0  0  0  0  0
   -2.3520    1.0120   -0.2400 O   0  0  0  0  0  0  0  0  0  0  0  0
   -3.0480    0.2060    0.6500 C   0  0  0  0  0  0  0  0  0  0  0  0
   -2.7180    0.1640    1.9850 C   0  0  0  0  0  0  0  0  0  0  0  0
   -3.4550   -0.6600    2.8070 C   0  0  0  0  0  0  0  0  0  0  0  0
   -4.4920   -1.4150    2.2760 C   0  0  0  0  0  0  0  0  0  0  0  0
   -4.8120   -1.3630    0.9340 C   0  0  0  0  0  0  0  0  0  0  0  0
   -4.0850   -0.5450    0.1070 C   0  0  0  0  0  0  0  0  0  0  0  0
   -4.3880   -0.4730   -1.2580 O   0  0  0  0  0  0  0  0  0  0  0  0
  1  2  2  0
  2  3  1  0
  2 16  1  0
  3  4  1  0
  4  5  1  0
  5  6  2  0
  5 14  1  0
  6  7  1  0
  7  8  1  0
  7 12  2  0
  8  9  1  0
  9 10  2  0
  9 11  1  0
 12 13  1  0
 13 14  2  0
 14 15  1  0
 16 17  1  0
 17 18  2  0
 17 22  1  0
 18 19  1  0
 19 20  2  0
 20 21  1  0
 21 22  2  0
 22 23  1  0
M  CHG  2   9   1  11  -1
M  END
