
     RDKit          3D

 23 24  0  0  0  0  0  0  0  0999 V2000
    4.6000    2.5060   -1.0140 C   0  0  0  0  0  0  0  0  0  0  0  0
    3.6060    1.3960   -0.9580 C   0  0  0  0  0  0  0  0  0  0  0  0
    2.8630    1.1720    0.1780 C   0  0  0  0  0  0  0  0  0  0  0  0
    1.9270    0.1560    0.2840 C   0  0  0  0  0  0  0  0  0  0  0  0
    1.7400   -0.6610   -0.8060 C   0  0  0  0  0  0  0  0  0  0  0  0
    0.8190   -1.7740   -0.8220 C   0  0  0  0  0  0  0  0  0  0  0  0
    1.2590   -2.8430   -1.3650 O   0  0  0  0  0  0  0  0  0  0  0  0
   -0.5270   -1.7800   -0.2910 C   0  0  0  0  0  0  0  0  0  0  0  0
   -1.1420   -0.6250    0.1680 C   0  0  0  0  0  0  0  0  0  0  0  0
   -2.4420   -0.6560    0.6500 C   0  0  0  0  0  0  0  0  0  0  0  0
   -3.0930    0.5490    1.1340 C   0  0  0  0  0  0  0  0  0  0  0  0
   -4.2540    0.5240    1.5620 O   0  0  0  0  0  0  0  0  0  0  0  0
   -2.3740    1.8480    1.1260 C   0  0  0  0  0  0  0  0  0  0  0  0
   -3.2040    2.9030    1.6610 N   0  0  0  0  0  0  0  0  0  0  0  0
   -3.5290    3.9210    1.0050 O   0  0  0  0  0  0  0  0  0  0  0  0
   -3.6900    2.8340    2.9580 O   0  0  0  0  0  0  0  0  0  0  0  0
   -3.0900   -1.8670    0.6530 C   0  0  0  0  0  0  0  0  0  0  0  0
   -2.4900   -3.0260    0.1990 C   0  0  0  0  0  0  0  0  0  0  0  0
   -1.2030   -3.0060   -0.2800 C   0  0  0  0  0  0  0  0  0  0  0  0
   -0.5820   -4.1720   -0.7440 O   0  0  0  0  0  0  0  0  0  0  0  0
    2.5180   -0.3870   -1.9210 C   0  0  0  0  0  0  0  0  0  0  0  0
    2.3580   -1.1340   -2.9390 O   0  0  0  0  0  0  0  0  0  0  0  0
    3.3830    0.5810   -1.9650 O   0  0  0  0  0  0  0  0  0  0  0  0
  1  2  1  0
  2  3  2  0
  2 23  1  0
  3  4  1  0
  4  5  2  0
  5  6  1  0
  5 21  1  0
  6  7  2  0
  6  8  1  0
  8  9  2  0
  8 19  1  0
  9 10  1  0
 10 11  1  0
 10 17  2  0
 11 12  2  0
 11 13  1  0
 13 14  1  0
 14 15  2  0
 14 16  1  0
 17 18  1  0
 18 19  2  0
 19 20  1  0
 21 22  2  0
 21 23  1  0
M  CHG  2  14   1  16  -1
M  END
