
     RDKit          3D

 23 24  0  0  0  0  0  0  0  0999 V2000
    1.4730   -3.9710    2.2590 C   0  0  0  0  0  0  0  0  0  0  0  0
    0.8060   -3.2090    3.0730 C   0  0  0  0  0  0  0  0  0  0  0  0
    0.8840   -3.5550    4.4390 O   0  0  0  0  0  0  0  0  0  0  0  0
   -0.0010   -2.0580    2.7570 C   0  0  0  0  0  0  0  0  0  0  0  0
   -0.6180   -1.4010    3.7540 C   0  0  0  0  0  0  0  0  0  0  0  0
   -0.1990   -1.5390    1.4340 C   0  0  0  0  0  0  0  0  0  0  0  0
    0.3400   -2.0850    0.4460 O   0  0  0  0  0  0  0  0  0  0  0  0
   -0.9990   -0.4020    1.1840 O   0  0  0  0  0  0  0  0  0  0  0  0
   -1.1320    0.0330   -0.1200 C   0  0  0  0  0  0  0  0  0  0  0  0
   -0.2140    1.0380   -0.5860 C   0  0  0  0  0  0  0  0  0  0  0  0
    0.7280    1.4310    0.4090 C   0  0  0  0  0  0  0  0  0  0  0  0
    1.6640    2.4390    0.2770 N   0  0  0  0  0  0  0  0  0  0  0  0
    2.9200    2.2600    0.1040 O   0  0  0  0  0  0  0  0  0  0  0  0
    1.3680    3.8210    0.3550 O   0  0  0  0  0  0  0  0  0  0  0  0
   -0.3170    1.4870   -1.8700 C   0  0  0  0  0  0  0  0  0  0  0  0
    0.5170    2.4320   -2.4130 C   0  0  0  0  0  0  0  0  0  0  0  0
    0.4160    2.8830   -3.7100 C   0  0  0  0  0  0  0  0  0  0  0  0
   -0.5880    2.3390   -4.4930 C   0  0  0  0  0  0  0  0  0  0  0  0
   -1.4310    1.3910   -3.9730 C   0  0  0  0  0  0  0  0  0  0  0  0
   -1.3330    0.9330   -2.6690 C   0  0  0  0  0  0  0  0  0  0  0  0
   -2.1640    0.0190   -2.2280 O   0  0  0  0  0  0  0  0  0  0  0  0
   -2.0640   -0.4150   -0.9960 C   0  0  0  0  0  0  0  0  0  0  0  0
   -2.8880   -1.3110   -0.5880 O   0  0  0  0  0  0  0  0  0  0  0  0
  1  2  2  0
  2  3  1  0
  2  4  1  0
  4  5  2  0
  4  6  1  0
  6  7  2  0
  6  8  1  0
  8  9  1  0
  9 10  2  0
  9 22  1  0
 10 11  1  0
 10 15  1  0
 11 12  1  0
 12 13  2  0
 12 14  1  0
 15 16  2  0
 15 20  1  0
 16 17  1  0
 17 18  2  0
 18 19  1  0
 19 20  2  0
 20 21  1  0
 21 22  1  0
 22 23  2  0
M  CHG  2  12   1  14  -1
M  END
