
     RDKit          3D

 40 44  0  0  0  0  0  0  0  0999 V2000
   -3.2710   -2.5690    3.5200 C   0  0  0  0  0  0  0  0  0  0  0  0
   -2.8530   -1.1850    3.1520 C   0  0  0  0  0  0  0  0  0  0  0  0
   -3.2250   -0.6460    1.9690 O   0  0  0  0  0  0  0  0  0  0  0  0
   -3.0260   -0.9500    0.6490 C   0  0  0  0  0  0  0  0  0  0  0  0
   -3.5240   -2.0470    0.0990 C   0  0  0  0  0  0  0  0  0  0  0  0
   -4.2890   -2.9210    0.9240 O   0  0  0  0  0  0  0  0  0  0  0  0
   -3.3210   -2.3440   -1.2070 O   0  0  0  0  0  0  0  0  0  0  0  0
   -2.6180   -1.5780   -2.1300 C   0  0  2  0  0  0  0  0  0  0  0  0
   -1.4050   -2.4140   -2.5490 C   0  0  0  0  0  0  0  0  0  0  0  0
   -1.7990   -3.7190   -3.1710 C   0  0  0  0  0  0  0  0  0  0  0  0
   -2.0810   -0.3740   -1.4860 C   0  0  0  0  0  0  0  0  0  0  0  0
   -2.2390   -0.0440   -0.2290 C   0  0  0  0  0  0  0  0  0  0  0  0
   -1.7390    1.1850    0.2930 N   0  0  0  0  0  0  0  0  0  0  0  0
   -0.7390    1.2710    1.3040 C   0  0  0  0  0  0  0  0  0  0  0  0
    0.6510    1.4070    0.7960 C   0  0  1  0  0  0  0  0  0  0  0  0
    1.5460    1.5550    2.0610 C   0  0  0  0  0  0  0  0  0  0  0  0
    2.8910    1.1050    1.6130 C   0  0  0  0  0  0  0  0  0  0  0  0
    2.7020    0.3880    0.3150 C   0  0  2  0  0  0  0  0  0  0  0  0
    3.1020    1.2450   -0.8910 C   0  0  0  0  0  0  0  0  0  0  0  0
    4.8340    1.6720   -0.7250 S   0  0  0  0  0  0  0  0  0  0  0  0
    5.8600    0.2160   -0.8680 C   0  0  0  0  0  0  0  0  0  0  0  0
    6.3260   -0.1960   -2.1200 C   0  0  0  0  0  0  0  0  0  0  0  0
    7.1200   -1.3150   -2.2390 C   0  0  0  0  0  0  0  0  0  0  0  0
    7.4940   -2.0780   -1.1520 C   0  0  0  0  0  0  0  0  0  0  0  0
    7.0430   -1.6860    0.0890 C   0  0  0  0  0  0  0  0  0  0  0  0
    6.2370   -0.5510    0.2110 C   0  0  0  0  0  0  0  0  0  0  0  0
    7.5530   -2.6060    0.9920 O   0  0  0  0  0  0  0  0  0  0  0  0
    8.5980   -3.3530    0.3610 C   0  0  0  0  0  0  0  0  0  0  0  0
    8.2740   -3.2300   -1.0210 O   0  0  0  0  0  0  0  0  0  0  0  0
    1.2350    0.1830    0.2020 C   0  0  0  0  0  0  0  0  0  0  0  0
    0.7140   -0.7670   -0.2660 O   0  0  0  0  0  0  0  0  0  0  0  0
   -2.2670    2.4380   -0.1900 C   0  0  0  0  0  0  0  0  0  0  0  0
   -1.7880    3.5020    0.2650 O   0  0  0  0  0  0  0  0  0  0  0  0
   -3.3380    2.5430   -1.1850 C   0  0  0  0  0  0  0  0  0  0  0  0
   -4.6560    2.7690   -0.4600 C   0  0  2  0  0  0  0  0  0  0  0  0
   -5.6570    2.8700   -1.3880 O   0  0  0  0  0  0  0  0  0  0  0  0
   -6.3000    4.0760   -1.2350 C   0  0  0  0  0  0  0  0  0  0  0  0
   -5.4160    4.9340   -0.4800 N   0  0  0  0  0  0  0  0  0  0  0  0
   -4.6230    4.0280    0.3110 C   0  0  0  0  0  0  0  0  0  0  0  0
   -4.0330    4.2170    1.3930 O   0  0  0  0  0  0  0  0  0  0  0  0
  1  2  1  0
  2  3  1  0
  3  4  1  0
  4  5  2  0
  4 12  1  0
  5  6  1  0
  5  7  1  0
  7  8  1  0
  8  9  1  1
  8 11  1  0
  9 10  1  0
 11 12  2  0
 12 13  1  0
 13 14  1  0
 13 32  1  0
 15 14  1  1
 15 16  1  0
 15 30  1  0
 16 17  1  0
 17 18  1  0
 18 19  1  6
 18 30  1  0
 19 20  1  0
 20 21  1  0
 21 22  2  0
 21 26  1  0
 22 23  1  0
 23 24  2  0
 24 25  1  0
 24 29  1  0
 25 26  2  0
 25 27  1  0
 27 28  1  0
 28 29  1  0
 30 31  2  0
 32 33  2  0
 32 34  1  0
 35 34  1  6
 35 36  1  0
 35 39  1  0
 36 37  1  0
 37 38  1  0
 38 39  1  0
 39 40  2  0
M  END
