
     RDKit          3D

 41 45  0  0  0  0  0  0  0  0999 V2000
   -3.4310    6.1310    0.2950 C   0  0  0  0  0  0  0  0  0  0  0  0
   -2.6520    4.9970    0.7170 N   0  0  0  0  0  0  0  0  0  0  0  0
   -2.4950    4.0120   -0.3200 C   0  0  1  0  0  0  0  0  0  0  0  0
   -1.7380    4.6380   -1.4650 C   0  0  0  0  0  0  0  0  0  0  0  0
   -1.7900    2.8010    0.1750 C   0  0  0  0  0  0  0  0  0  0  0  0
   -1.4250    2.7650    1.3630 O   0  0  0  0  0  0  0  0  0  0  0  0
   -1.5460    1.7120   -0.7110 N   0  0  0  0  0  0  0  0  0  0  0  0
   -0.8530    0.5040   -0.2380 C   0  0  1  0  0  0  0  0  0  0  0  0
   -1.9240   -0.5860   -0.2950 C   0  0  0  0  0  0  0  0  0  0  0  0
   -1.4580   -1.8300    0.2990 N   0  0  0  0  0  0  0  0  0  0  0  0
   -2.0400   -2.3230    1.4710 C   0  0  0  0  0  0  0  0  0  0  0  0
   -1.2930   -2.9860    2.2840 O   0  0  0  0  0  0  0  0  0  0  0  0
   -3.4200   -2.1830    1.9110 C   0  0  0  0  0  0  0  0  0  0  0  0
   -4.4590   -1.7660    1.1210 C   0  0  0  0  0  0  0  0  0  0  0  0
   -5.7640   -1.5810    1.5920 C   0  0  0  0  0  0  0  0  0  0  0  0
   -6.0620   -1.8220    2.9120 C   0  0  0  0  0  0  0  0  0  0  0  0
   -7.3690   -1.6420    3.4090 N   0  0  0  0  0  0  0  0  0  0  0  0
   -5.0350   -2.2440    3.7220 C   0  0  0  0  0  0  0  0  0  0  0  0
   -3.7570   -2.4220    3.2520 C   0  0  0  0  0  0  0  0  0  0  0  0
   -0.3290   -2.5850   -0.1850 C   0  0  0  0  0  0  0  0  0  0  0  0
   -0.5030   -3.9510    0.0890 C   0  0  0  0  0  0  0  0  0  0  0  0
    0.4550   -4.8790   -0.2570 C   0  0  0  0  0  0  0  0  0  0  0  0
    1.6050   -4.4480   -0.8840 C   0  0  0  0  0  0  0  0  0  0  0  0
    1.8070   -3.0990   -1.1710 C   0  0  0  0  0  0  0  0  0  0  0  0
    0.8350   -2.1860   -0.8180 C   0  0  0  0  0  0  0  0  0  0  0  0
    1.2230   -0.8480   -1.2400 N   0  0  0  0  0  0  0  0  0  0  0  0
    2.4290   -0.6190   -1.8690 C   0  0  0  0  0  0  0  0  0  0  0  0
    3.7070   -0.2780   -1.3300 C   0  0  0  0  0  0  0  0  0  0  0  0
    4.7270   -0.1130   -2.3110 C   0  0  0  0  0  0  0  0  0  0  0  0
    4.3680   -0.2930   -3.6510 O   0  0  0  0  0  0  0  0  0  0  0  0
    5.3440   -0.1400   -4.6540 C   0  0  0  0  0  0  0  0  0  0  0  0
    5.9990    0.2030   -2.0130 C   0  0  0  0  0  0  0  0  0  0  0  0
    6.3810    0.3860   -0.7160 C   0  0  0  0  0  0  0  0  0  0  0  0
    5.4180    0.2330    0.2540 C   0  0  0  0  0  0  0  0  0  0  0  0
    5.8210    0.4180    1.5630 C   0  0  0  0  0  0  0  0  0  0  0  0
    4.8970    0.2740    2.5650 C   0  0  0  0  0  0  0  0  0  0  0  0
    3.5910   -0.0490    2.2930 C   0  0  0  0  0  0  0  0  0  0  0  0
    3.1780   -0.2360    0.9950 C   0  0  0  0  0  0  0  0  0  0  0  0
    4.0840   -0.0980   -0.0450 C   0  0  0  0  0  0  0  0  0  0  0  0
    0.3170    0.2750   -1.0500 C   0  0  0  0  0  0  0  0  0  0  0  0
    0.6620    1.2650   -1.7800 O   0  0  0  0  0  0  0  0  0  0  0  0
  1  2  1  0
  2  3  1  0
  3  4  1  6
  3  5  1  0
  5  6  2  0
  5  7  1  0
  8  7  1  6
  8  9  1  0
  8 40  1  0
  9 10  1  0
 10 11  1  0
 10 20  1  0
 11 12  2  0
 11 13  1  0
 13 14  2  0
 13 19  1  0
 14 15  1  0
 15 16  2  0
 16 17  1  0
 16 18  1  0
 18 19  2  0
 20 21  2  0
 20 25  1  0
 21 22  1  0
 22 23  2  0
 23 24  1  0
 24 25  2  0
 25 26  1  0
 26 27  1  0
 26 40  1  0
 27 28  1  0
 28 29  2  0
 28 39  1  0
 29 30  1  0
 29 32  1  0
 30 31  1  0
 32 33  2  0
 33 34  1  0
 34 35  2  0
 34 39  1  0
 35 36  1  0
 36 37  2  0
 37 38  1  0
 38 39  2  0
 40 41  2  0
M  END
