
     RDKit          3D

 40 44  0  0  0  0  0  0  0  0999 V2000
    1.7220    4.7200    0.0120 C   0  0  0  0  0  0  0  0  0  0  0  0
    2.1890    3.5250   -0.5890 O   0  0  0  0  0  0  0  0  0  0  0  0
    1.3080    2.4880   -0.7640 C   0  0  0  0  0  0  0  0  0  0  0  0
   -0.0270    2.6020   -0.3620 C   0  0  0  0  0  0  0  0  0  0  0  0
   -0.9080    1.5580   -0.5430 C   0  0  0  0  0  0  0  0  0  0  0  0
   -2.2250    1.7000   -0.1310 O   0  0  0  0  0  0  0  0  0  0  0  0
   -2.6800    2.8700    0.4820 C   0  0  0  0  0  0  0  0  0  0  0  0
   -4.0840    2.9180    0.8580 C   0  0  0  0  0  0  0  0  0  0  0  0
   -4.5640    4.0670    1.2640 O   0  0  0  0  0  0  0  0  0  0  0  0
   -4.9660    1.8290    0.8130 N   0  0  0  0  0  0  0  0  0  0  0  0
   -4.4790    0.4880    0.7720 C   0  0  0  0  0  0  0  0  0  0  0  0
   -3.4230    0.0660    1.5500 C   0  0  0  0  0  0  0  0  0  0  0  0
   -3.0740   -1.2760    1.4470 C   0  0  0  0  0  0  0  0  0  0  0  0
   -3.7680   -2.1490    0.5910 C   0  0  0  0  0  0  0  0  0  0  0  0
   -3.4010   -3.5850    0.4800 C   0  0  0  0  0  0  0  0  0  0  0  0
   -4.8220   -1.7050   -0.1780 C   0  0  0  0  0  0  0  0  0  0  0  0
   -5.1190   -0.3760   -0.0350 C   0  0  0  0  0  0  0  0  0  0  0  0
   -6.2380    0.0540   -0.8910 C   0  0  1  0  0  0  0  0  0  0  0  0
   -6.8900   -1.3040   -1.1190 C   0  0  0  0  0  0  0  0  0  0  0  0
   -5.7380   -2.2120   -1.1080 O   0  0  0  0  0  0  0  0  0  0  0  0
   -7.0660    1.1170   -0.3140 C   0  0  0  0  0  0  0  0  0  0  0  0
   -6.4200    1.9690    0.7480 C   0  0  1  0  0  0  0  0  0  0  0  0
   -6.9910    1.5310    2.0740 C   0  0  0  0  0  0  0  0  0  0  0  0
   -0.4340    0.4050   -1.1300 C   0  0  0  0  0  0  0  0  0  0  0  0
    0.8920    0.3030   -1.5230 C   0  0  0  0  0  0  0  0  0  0  0  0
    1.7880    1.3380   -1.3480 C   0  0  0  0  0  0  0  0  0  0  0  0
    3.1420    1.2340   -1.7720 N   0  0  0  0  0  0  0  0  0  0  0  0
    4.3670    0.5170   -0.8500 S   0  0  2  0  0  0  0  0  0  0  0  0
    4.6860    1.3160    0.4090 O   0  0  0  0  0  0  0  0  0  0  0  0
    5.6590    0.5510   -1.6590 O   0  0  0  0  0  0  0  0  0  0  0  0
    4.1100   -1.1990   -0.4710 C   0  0  1  0  0  0  0  0  0  0  0  0
    4.1790   -2.0050   -1.7190 C   0  0  0  0  0  0  0  0  0  0  0  0
    5.4300   -2.8340   -1.8130 C   0  0  2  0  0  0  0  0  0  0  0  0
    5.3050   -4.1040   -1.0400 C   0  0  0  0  0  0  0  0  0  0  0  0
    6.5110   -2.0540   -1.4200 O   0  0  0  0  0  0  0  0  0  0  0  0
    6.5430   -1.7620   -0.0710 C   0  0  1  0  0  0  0  0  0  0  0  0
    7.2820   -0.5820    0.0700 O   0  0  0  0  0  0  0  0  0  0  0  0
    8.4060   -0.7170    0.8400 C   0  0  0  0  0  0  0  0  0  0  0  0
    8.1280   -1.1290    2.1420 O   0  0  0  0  0  0  0  0  0  0  0  0
    5.2040   -1.5450    0.5420 C   0  0  0  0  0  0  0  0  0  0  0  0
  1  2  1  0
  2  3  1  0
  3  4  2  0
  3 26  1  0
  4  5  1  0
  5  6  1  0
  5 24  2  0
  6  7  1  0
  7  8  1  0
  8  9  2  0
  8 10  1  0
 10 11  1  0
 10 22  1  0
 11 12  2  0
 11 17  1  0
 12 13  1  0
 13 14  2  0
 14 15  1  0
 14 16  1  0
 16 17  2  0
 16 20  1  0
 17 18  1  0
 18 19  1  1
 18 21  1  0
 19 20  1  0
 21 22  1  0
 22 23  1  1
 24 25  1  0
 25 26  2  0
 26 27  1  0
 28 27  1  6
 28 29  2  0
 28 30  2  0
 28 31  1  0
 31 32  1  6
 31 40  1  0
 32 33  1  0
 33 34  1  1
 33 35  1  0
 35 36  1  0
 36 37  1  6
 36 40  1  0
 37 38  1  0
 38 39  1  0
M  END
