
     RDKit          3D

 40 43  0  0  0  0  0  0  0  0999 V2000
   -5.4800   -2.3310    3.4240 C   0  0  0  0  0  0  0  0  0  0  0  0
   -5.7560   -1.0750    3.1040 C   0  0  0  0  0  0  0  0  0  0  0  0
   -6.2880   -0.1440    4.0080 O   0  0  0  0  0  0  0  0  0  0  0  0
   -6.4980    1.0750    3.3460 C   0  0  0  0  0  0  0  0  0  0  0  0
   -6.0310    0.8200    1.9900 C   0  0  0  0  0  0  0  0  0  0  0  0
   -5.5860   -0.4500    1.8220 C   0  0  0  0  0  0  0  0  0  0  0  0
   -5.1940   -1.0210    0.5220 C   0  0  1  0  0  0  0  0  0  0  0  0
   -6.0700   -0.6420   -0.5980 C   0  0  0  0  0  0  0  0  0  0  0  0
   -5.6420   -0.4330   -1.8130 C   0  0  0  0  0  0  0  0  0  0  0  0
   -6.5530   -0.0510   -2.9420 C   0  0  0  0  0  0  0  0  0  0  0  0
   -7.7870    0.6000   -2.4140 C   0  0  0  0  0  0  0  0  0  0  0  0
   -8.3610   -0.1700   -1.3540 O   0  0  0  0  0  0  0  0  0  0  0  0
   -7.5290   -0.5080   -0.3210 C   0  0  0  0  0  0  0  0  0  0  0  0
   -7.9540   -0.7130    0.8620 O   0  0  0  0  0  0  0  0  0  0  0  0
   -4.2950   -0.5610   -2.0820 O   0  0  0  0  0  0  0  0  0  0  0  0
   -3.4120   -0.9000   -1.0910 C   0  0  0  0  0  0  0  0  0  0  0  0
   -2.0320   -1.0220   -1.4000 N   0  0  0  0  0  0  0  0  0  0  0  0
   -1.2570    0.1820   -1.5150 C   0  0  0  0  0  0  0  0  0  0  0  0
    0.1780   -0.1030   -1.7820 C   0  0  0  0  0  0  0  0  0  0  0  0
    0.5210   -1.3160   -1.8780 O   0  0  0  0  0  0  0  0  0  0  0  0
    1.1630    0.8770   -1.9310 N   0  0  0  0  0  0  0  0  0  0  0  0
    2.5900    0.5320   -2.1930 C   0  0  1  0  0  0  0  0  0  0  0  0
    2.8620    1.1330   -3.5370 C   0  0  0  0  0  0  0  0  0  0  0  0
    4.4930    0.9090   -4.2030 S   0  0  0  0  0  0  0  0  0  0  0  0
    5.7120    1.8550   -3.2680 C   0  0  0  0  0  0  0  0  0  0  0  0
    3.4140    1.0660   -1.0980 C   0  0  0  0  0  0  0  0  0  0  0  0
    3.0180    2.1500   -0.5330 O   0  0  0  0  0  0  0  0  0  0  0  0
    4.5690    0.5380   -0.5870 O   0  0  0  0  0  0  0  0  0  0  0  0
    5.2830    1.1210    0.5080 C   0  0  1  0  0  0  0  0  0  0  0  0
    5.2380    0.1600    1.6910 C   0  0  0  0  0  0  0  0  0  0  0  0
    6.4240    0.3780    2.5540 C   0  0  0  0  0  0  0  0  0  0  0  0
    7.7000   -0.2290    2.0590 C   0  0  0  0  0  0  0  0  0  0  0  0
    7.5610   -0.9750    0.7500 C   0  0  0  0  0  0  0  0  0  0  0  0
    7.1920   -0.0550   -0.3930 C   0  0  0  0  0  0  0  0  0  0  0  0
    6.7130    1.2890    0.1190 C   0  0  0  0  0  0  0  0  0  0  0  0
   -3.7890   -1.1300    0.1930 C   0  0  0  0  0  0  0  0  0  0  0  0
   -2.7220   -1.4060    1.1020 C   0  0  0  0  0  0  0  0  0  0  0  0
   -1.5050   -1.4530    0.6740 O   0  0  0  0  0  0  0  0  0  0  0  0
   -2.8490   -1.6300    2.4320 O   0  0  0  0  0  0  0  0  0  0  0  0
   -1.7450   -1.8980    3.3030 C   0  0  0  0  0  0  0  0  0  0  0  0
  1  2  2  0
  2  3  1  0
  2  6  1  0
  3  4  1  0
  4  5  1  0
  5  6  2  0
  7  6  1  1
  7  8  1  0
  7 36  1  0
  8  9  2  0
  8 13  1  0
  9 10  1  0
  9 15  1  0
 10 11  1  0
 11 12  1  0
 12 13  1  0
 13 14  2  0
 15 16  1  0
 16 17  1  0
 16 36  2  0
 17 18  1  0
 18 19  1  0
 19 20  2  0
 19 21  1  0
 21 22  1  0
 22 23  1  6
 22 26  1  0
 23 24  1  0
 24 25  1  0
 26 27  2  0
 26 28  1  0
 29 28  1  6
 29 30  1  0
 29 35  1  0
 30 31  1  0
 31 32  1  0
 32 33  1  0
 33 34  1  0
 34 35  1  0
 36 37  1  0
 37 38  2  0
 37 39  1  0
 39 40  1  0
M  END
