
     RDKit          3D

 40 43  0  0  0  0  0  0  0  0999 V2000
    1.7580    4.0380   -0.0710 C   0  0  0  0  0  0  0  0  0  0  0  0
    0.2830    3.7140   -0.1120 C   0  0  0  0  0  0  0  0  0  0  0  0
    0.0500    2.2030   -0.0410 C   0  0  1  0  0  0  0  0  0  0  0  0
   -1.3290    1.9880   -0.0840 O   0  0  0  0  0  0  0  0  0  0  0  0
   -2.0820    1.4070    0.8960 C   0  0  0  0  0  0  0  0  0  0  0  0
   -1.4880    1.0220    1.9480 O   0  0  0  0  0  0  0  0  0  0  0  0
   -3.5320    1.2410    0.7180 C   0  0  1  0  0  0  0  0  0  0  0  0
   -4.2250    2.5720    0.5080 C   0  0  0  0  0  0  0  0  0  0  0  0
   -5.6890    2.3860    0.2810 C   0  0  0  0  0  0  0  0  0  0  0  0
   -5.9610    1.0110    0.3840 O   0  0  0  0  0  0  0  0  0  0  0  0
   -5.3460    0.3900   -0.6740 C   0  0  2  0  0  0  0  0  0  0  0  0
   -5.9570   -0.9160   -1.0670 C   0  0  0  0  0  0  0  0  0  0  0  0
   -5.9710   -1.9720   -0.0260 C   0  0  0  0  0  0  0  0  0  0  0  0
   -6.8400   -1.6130    1.4600 S   0  0  0  0  0  0  0  0  0  0  0  0
   -6.1850   -0.6510    2.3990 O   0  0  0  0  0  0  0  0  0  0  0  0
   -8.5570   -1.2620    1.2810 C   0  0  0  0  0  0  0  0  0  0  0  0
   -9.3500   -2.3920    0.6700 C   0  0  0  0  0  0  0  0  0  0  0  0
   -8.9200   -2.7360   -0.5900 O   0  0  0  0  0  0  0  0  0  0  0  0
   -3.8750    0.3330   -0.4430 C   0  0  0  0  0  0  0  0  0  0  0  0
    0.6470    1.5600   -1.2640 C   0  0  0  0  0  0  0  0  0  0  0  0
    0.0680    1.7300   -2.5030 C   0  0  0  0  0  0  0  0  0  0  0  0
    0.6020    1.1460   -3.6330 C   0  0  0  0  0  0  0  0  0  0  0  0
    1.7530    0.3790   -3.4590 C   0  0  0  0  0  0  0  0  0  0  0  0
    2.3300    0.2110   -2.2200 C   0  0  0  0  0  0  0  0  0  0  0  0
    3.5020   -0.5870   -2.1260 N   0  0  0  0  0  0  0  0  0  0  0  0
    4.1780   -0.8280   -0.9070 C   0  0  0  0  0  0  0  0  0  0  0  0
    3.7210   -0.3140    0.1400 O   0  0  0  0  0  0  0  0  0  0  0  0
    5.4000   -1.6590   -0.8030 C   0  0  1  0  0  0  0  0  0  0  0  0
    6.4790   -1.2330   -1.7490 C   0  0  0  0  0  0  0  0  0  0  0  0
    7.4760   -0.4280   -1.1490 O   0  0  0  0  0  0  0  0  0  0  0  0
    7.9960   -0.8330    0.0680 C   0  0  0  0  0  0  0  0  0  0  0  0
    9.3170   -0.5720    0.4330 C   0  0  0  0  0  0  0  0  0  0  0  0
    9.7360   -1.0190    1.6690 C   0  0  0  0  0  0  0  0  0  0  0  0
    8.8920   -1.6970    2.5200 C   0  0  0  0  0  0  0  0  0  0  0  0
    7.5920   -1.9540    2.1610 C   0  0  0  0  0  0  0  0  0  0  0  0
    6.7190   -2.6350    2.9970 O   0  0  0  0  0  0  0  0  0  0  0  0
    7.1870   -3.0810    4.2660 C   0  0  0  0  0  0  0  0  0  0  0  0
    7.1590   -1.5140    0.9290 C   0  0  0  0  0  0  0  0  0  0  0  0
    5.8710   -1.7410    0.5160 O   0  0  0  0  0  0  0  0  0  0  0  0
    1.7610    0.8040   -1.1720 N   0  0  0  0  0  0  0  0  0  0  0  0
  1  2  1  0
  3  2  1  6
  3  4  1  0
  3 20  1  0
  4  5  1  0
  5  6  2  0
  7  5  1  6
  7  8  1  0
  7 19  1  0
  8  9  1  0
  9 10  1  0
 10 11  1  0
 11 12  1  1
 11 19  1  0
 12 13  1  0
 14 13  1  6
 14 15  2  0
 14 16  1  0
 16 17  1  0
 17 18  1  0
 20 21  2  0
 20 40  1  0
 21 22  1  0
 22 23  2  0
 23 24  1  0
 24 25  1  0
 24 40  2  0
 25 26  1  0
 26 27  2  0
 28 26  1  1
 28 29  1  0
 28 39  1  0
 29 30  1  0
 30 31  1  0
 31 32  2  0
 31 38  1  0
 32 33  1  0
 33 34  2  0
 34 35  1  0
 35 36  1  0
 35 38  2  0
 36 37  1  0
 38 39  1  0
M  END
