
     RDKit          3D

  9  8  0  0  0  0  0  0  0  0999 V2000
   -3.6710    0.0030   -0.0900 N   0  0  0  0  0  0  0  0  0  0  0  0
   -2.3050   -0.3230   -0.2150 C   0  0  0  0  0  0  0  0  0  0  0  0
   -1.9880   -1.4480   -0.9920 O   0  0  0  0  0  0  0  0  0  0  0  0
   -1.3490    0.3690    0.3530 C   0  0  0  0  0  0  0  0  0  0  0  0
    0.0400   -0.0070    0.1940 C   0  0  0  0  0  0  0  0  0  0  0  0
    1.0330    0.6750    0.7580 C   0  0  0  0  0  0  0  0  0  0  0  0
    0.6940    1.7800    1.5200 O   0  0  0  0  0  0  0  0  0  0  0  0
    2.4460    0.2900    0.5940 C   0  0  0  0  0  0  0  0  0  0  0  0
    2.5980   -0.8880   -0.2340 N   0  0  0  0  0  0  0  0  0  0  0  0
  1  2  1  0
  2  3  1  0
  2  4  2  3
  4  5  1  0
  5  6  2  3
  6  7  1  0
  6  8  1  0
  8  9  1  0
M  CHG  1   9   1
M  END
