
     RDKit          3D

  9  8  0  0  0  0  0  0  0  0999 V2000
    0.6170   -0.2310    0.8140 N   0  0  0  0  0  0  0  0  0  0  0  0
    0.7290   -0.2170   -0.5950 C   0  0  0  0  0  0  0  0  0  0  0  0
    2.0360   -0.5590   -1.1470 C   0  0  0  0  0  0  0  0  0  0  0  0
    3.0720   -0.8670   -0.4060 C   0  0  0  0  0  0  0  0  0  0  0  0
    2.9810   -0.8850    0.9700 O   0  0  0  0  0  0  0  0  0  0  0  0
   -0.2850    0.0870   -1.3920 C   0  0  0  0  0  0  0  0  0  0  0  0
   -1.6120    0.4330   -0.8330 C   0  0  0  0  0  0  0  0  0  0  0  0
   -1.5940    0.3840    0.5580 O   0  0  0  0  0  0  0  0  0  0  0  0
   -2.8440    0.7140    0.9960 N   0  0  0  0  0  0  0  0  0  0  0  0
  1  2  1  0
  2  3  1  0
  2  6  2  3
  3  4  2  3
  4  5  1  0
  6  7  1  0
  7  8  1  0
  8  9  1  0
M  CHG  1   9   1
M  END
