
     RDKit          3D

 17 18  0  0  0  0  0  0  0  0999 V2000
   -1.2570    2.3240   -1.0530 C   0  0  0  0  0  0  0  0  0  0  0  0
   -1.3160    1.7990    0.3610 C   0  0  0  0  0  0  0  0  0  0  0  0
   -1.4310    0.3470    0.4660 C   0  0  0  0  0  0  0  0  0  0  0  0
   -2.6210   -0.2670    0.7250 N   0  0  0  0  0  0  0  0  0  0  0  0
   -2.7620   -1.5820    0.8280 C   0  0  0  0  0  0  0  0  0  0  0  0
   -4.0070   -2.2010    1.0950 N   0  0  0  0  0  0  0  0  0  0  0  0
   -1.6760   -2.3600    0.6700 N   0  0  0  0  0  0  0  0  0  0  0  0
   -0.4750   -1.8190    0.4140 C   0  0  0  0  0  0  0  0  0  0  0  0
    0.6260   -2.7060    0.2580 N   0  0  0  0  0  0  0  0  0  0  0  0
   -0.3190   -0.4420    0.3030 C   0  0  0  0  0  0  0  0  0  0  0  0
    1.0220    0.0330    0.0010 C   0  0  0  0  0  0  0  0  0  0  0  0
    1.7930    0.7540    0.8900 C   0  0  0  0  0  0  0  0  0  0  0  0
    3.0790    1.1630    0.5540 C   0  0  0  0  0  0  0  0  0  0  0  0
    3.6390    0.8710   -0.6780 C   0  0  0  0  0  0  0  0  0  0  0  0
    5.2740    1.4100   -1.0660 Cl  0  0  0  0  0  0  0  0  0  0  0  0
    2.8720    0.1500   -1.5690 C   0  0  0  0  0  0  0  0  0  0  0  0
    1.6010   -0.2570   -1.2420 C   0  0  0  0  0  0  0  0  0  0  0  0
  1  2  1  0
  2  3  1  0
  3  4  2  0
  3 10  1  0
  4  5  1  0
  5  6  1  0
  5  7  2  0
  7  8  1  0
  8  9  1  0
  8 10  2  0
 10 11  1  0
 11 12  2  0
 11 17  1  0
 12 13  1  0
 13 14  2  0
 14 15  1  0
 14 16  1  0
 16 17  2  0
M  END
