
     RDKit          3D

  8  7  0  0  0  0  0  0  0  0999 V2000
   -0.9310   -1.8400    0.2380 C   0  0  0  0  0  0  0  0  0  0  0  0
   -1.0440   -0.4360   -0.2970 C   0  0  1  0  0  0  0  0  0  0  0  0
   -1.9000    0.4380    0.6010 C   0  0  0  0  0  0  0  0  0  0  0  0
   -1.9570    1.7630    0.0170 N   0  0  0  0  0  0  0  0  0  0  0  0
    0.2490    0.1570   -0.5650 N   0  0  0  0  0  0  0  0  0  0  0  0
    1.3350   -0.6260   -0.0180 C   0  0  0  0  0  0  0  0  0  0  0  0
    2.4990    0.3190    0.2330 C   0  0  0  0  0  0  0  0  0  0  0  0
    3.5990   -0.3540    0.7660 O   0  0  0  0  0  0  0  0  0  0  0  0
  2  1  1  1
  2  3  1  0
  2  5  1  0
  3  4  1  0
  5  6  1  0
  6  7  1  0
  7  8  1  0
M  CHG  2   4   1   5   1
M  END
