
     RDKit          3D

  9  8  0  0  0  0  0  0  0  0999 V2000
   -2.1020   -0.5460    0.8890 N   0  0  0  0  0  0  0  0  0  0  0  0
   -1.6770   -0.2440   -0.4190 C   0  0  0  0  0  0  0  0  0  0  0  0
   -2.5500   -0.0230   -1.3730 C   0  0  0  0  0  0  0  0  0  0  0  0
   -2.1940    0.2790   -2.6800 O   0  0  0  0  0  0  0  0  0  0  0  0
   -0.2670   -0.1740   -0.7280 C   0  0  0  0  0  0  0  0  0  0  0  0
    0.6230   -0.3910    0.2080 C   0  0  0  0  0  0  0  0  0  0  0  0
    0.2040   -0.6860    1.4880 O   0  0  0  0  0  0  0  0  0  0  0  0
    2.0770   -0.3280   -0.0720 C   0  0  0  0  0  0  0  0  0  0  0  0
    2.6920    0.6950    0.7540 N   0  0  0  0  0  0  0  0  0  0  0  0
  1  2  1  0
  2  3  2  3
  2  5  1  0
  3  4  1  0
  5  6  2  3
  6  7  1  0
  6  8  1  0
  8  9  1  0
M  CHG  1   9   1
M  END
