
     RDKit          3D

  9  8  0  0  0  0  0  0  0  0999 V2000
   -3.9390    0.9550    0.3430 N   0  0  0  0  0  0  0  0  0  0  0  0
   -2.5430    1.0190    0.1790 C   0  0  0  0  0  0  0  0  0  0  0  0
   -1.7940   -0.0510    0.2900 C   0  0  0  0  0  0  0  0  0  0  0  0
   -2.3750   -1.2630    0.5720 O   0  0  0  0  0  0  0  0  0  0  0  0
   -0.3610    0.0700    0.1120 C   0  0  0  0  0  0  0  0  0  0  0  0
    0.3850   -1.0090    0.2250 C   0  0  0  0  0  0  0  0  0  0  0  0
    1.8470   -0.8930    0.0450 C   0  0  0  0  0  0  0  0  0  0  0  0
    2.1950    0.4050   -0.2270 O   0  0  0  0  0  0  0  0  0  0  0  0
    3.4970    0.6090   -0.4050 N   0  0  0  0  0  0  0  0  0  0  0  0
  1  2  1  0
  2  3  2  3
  3  4  1  0
  3  5  1  0
  5  6  2  3
  6  7  1  0
  7  8  1  0
  8  9  1  0
M  CHG  1   9   1
M  END
