
     RDKit          3D

  9  8  0  0  0  0  0  0  0  0999 V2000
    2.8570    0.3640    0.4020 N   0  0  0  0  0  0  0  0  0  0  0  0
    1.5800   -0.1890    0.8310 C   0  0  0  0  0  0  0  0  0  0  0  0
    0.4650    0.6630    0.4480 C   0  0  0  0  0  0  0  0  0  0  0  0
   -0.5350    0.3340   -0.3270 C   0  0  0  0  0  0  0  0  0  0  0  0
   -0.6470   -1.0000   -0.9270 C   0  0  0  0  0  0  0  0  0  0  0  0
   -1.8630   -1.6870   -0.5140 N   0  0  0  0  0  0  0  0  0  0  0  0
   -1.5890    1.3530   -0.6050 C   0  0  0  0  0  0  0  0  0  0  0  0
   -2.5290    1.0200   -1.3430 O   0  0  0  0  0  0  0  0  0  0  0  0
   -1.5370    2.6180   -0.0720 O   0  0  0  0  0  0  0  0  0  0  0  0
  1  2  1  0
  2  3  1  0
  3  4  2  3
  4  5  1  0
  4  7  1  0
  5  6  1  0
  7  8  2  0
  7  9  1  0
M  CHG  2   1   1   6   1
M  END
