
     RDKit          3D

  9  8  0  0  0  0  0  0  0  0999 V2000
    2.2410   -0.8270   -1.5600 C   0  0  0  0  0  0  0  0  0  0  0  0
    1.4540   -1.1850   -0.4760 O   0  0  0  0  0  0  0  0  0  0  0  0
    0.9870   -0.0210    0.1170 C   0  0  2  0  0  0  0  0  0  0  0  0
    1.6560    0.0850    1.4610 C   0  0  0  0  0  0  0  0  0  0  0  0
    1.4090    1.0330    2.1880 O   0  0  0  0  0  0  0  0  0  0  0  0
   -0.4700    0.0360    0.2300 C   0  0  0  0  0  0  0  0  0  0  0  0
   -1.1630   -0.9490    0.9720 N   0  0  0  0  0  0  0  0  0  0  0  0
   -1.1600    0.9920   -0.3480 C   0  0  0  0  0  0  0  0  0  0  0  0
   -2.5840    1.0910   -0.2670 N   0  0  0  0  0  0  0  0  0  0  0  0
  1  2  1  0
  3  2  1  1
  3  4  1  0
  3  6  1  0
  4  5  2  0
  6  7  1  0
  6  8  2  3
  8  9  1  0
M  CHG  2   7   1   9   1
M  END
