
     RDKit          3D

 21 22  0  0  0  0  0  0  0  0999 V2000
   -1.9740   -0.6630    2.8490 N   0  0  0  0  0  0  0  0  0  0  0  0
   -1.8360    0.4990    2.0430 C   0  0  0  0  0  0  0  0  0  0  0  0
   -1.9710    1.6620    2.4920 O   0  0  0  0  0  0  0  0  0  0  0  0
   -1.5130    0.2410    0.5990 C   0  0  1  0  0  0  0  0  0  0  0  0
   -0.1840   -0.4660    0.6070 C   0  0  0  0  0  0  0  0  0  0  0  0
   -0.0220   -1.5680    1.1860 O   0  0  0  0  0  0  0  0  0  0  0  0
    0.9450    0.0930   -0.0460 N   0  0  0  0  0  0  0  0  0  0  0  0
    2.1940   -0.6290   -0.0060 C   0  0  1  0  0  0  0  0  0  0  0  0
    2.6850   -0.9880   -1.3920 C   0  0  0  0  0  0  0  0  0  0  0  0
    3.4600    0.4160   -2.2290 S   0  0  0  0  0  0  0  0  0  0  0  0
    3.4430    1.7690   -1.2090 O   0  0  0  0  0  0  0  0  0  0  0  0
    3.7570    1.4000    0.0550 N   0  0  0  0  0  0  0  0  0  0  0  0
    3.2780    0.1890    0.6230 C   0  0  0  0  0  0  0  0  0  0  0  0
    3.8120   -0.1780    1.7010 O   0  0  0  0  0  0  0  0  0  0  0  0
   -2.6070   -0.6630    0.1020 C   0  0  0  0  0  0  0  0  0  0  0  0
   -2.8930   -0.5280   -1.3250 C   0  0  0  0  0  0  0  0  0  0  0  0
   -3.5120   -1.4450   -1.9000 O   0  0  0  0  0  0  0  0  0  0  0  0
   -2.4950    0.5970   -2.0740 N   0  0  0  0  0  0  0  0  0  0  0  0
   -1.7230    1.6040   -1.4420 C   0  0  0  0  0  0  0  0  0  0  0  0
   -1.3570    2.6170   -2.0920 O   0  0  0  0  0  0  0  0  0  0  0  0
   -1.3960    1.4300   -0.1110 O   0  0  0  0  0  0  0  0  0  0  0  0
  1  2  1  0
  2  3  2  0
  4  2  1  1
  4  5  1  0
  4 15  1  0
  4 21  1  0
  5  6  2  0
  5  7  1  0
  8  7  1  6
  8  9  1  0
  8 13  1  0
  9 10  1  0
 10 11  1  0
 11 12  1  0
 12 13  1  0
 13 14  2  0
 15 16  1  0
 16 17  2  0
 16 18  1  0
 18 19  1  0
 19 20  2  0
 19 21  1  0
M  END
