
     RDKit          3D

 21 22  0  0  0  0  0  0  0  0999 V2000
    6.2800    0.0870   -0.2220 N   0  0  0  0  0  0  0  0  0  0  0  0
    4.9990    0.4820   -0.7170 C   0  0  1  0  0  0  0  0  0  0  0  0
    4.4030   -0.4680   -1.5690 O   0  0  0  0  0  0  0  0  0  0  0  0
    3.0600   -0.5280   -1.5750 C   0  0  0  0  0  0  0  0  0  0  0  0
    2.4200   -0.1270   -0.5040 C   0  0  0  0  0  0  0  0  0  0  0  0
    0.9820   -0.0910   -0.2560 C   0  0  0  0  0  0  0  0  0  0  0  0
    0.1550   -0.4720   -1.1230 O   0  0  0  0  0  0  0  0  0  0  0  0
    0.4470    0.3790    0.9790 N   0  0  0  0  0  0  0  0  0  0  0  0
   -0.9370    0.3970    1.1730 N   0  0  0  0  0  0  0  0  0  0  0  0
   -1.7990   -0.6980    0.9950 C   0  0  0  0  0  0  0  0  0  0  0  0
   -1.2930   -1.7910    0.6320 O   0  0  0  0  0  0  0  0  0  0  0  0
   -3.2570   -0.5460    1.2340 C   0  0  1  0  0  0  0  0  0  0  0  0
   -3.6020    0.7620    1.6260 O   0  0  0  0  0  0  0  0  0  0  0  0
   -3.6450    1.7560    0.6620 C   0  0  0  0  0  0  0  0  0  0  0  0
   -3.4460    2.9810    0.9670 O   0  0  0  0  0  0  0  0  0  0  0  0
   -3.9220    1.4100   -0.7310 C   0  0  0  0  0  0  0  0  0  0  0  0
   -3.9710    2.2610   -1.6340 O   0  0  0  0  0  0  0  0  0  0  0  0
   -4.1370    0.0330   -1.0170 N   0  0  0  0  0  0  0  0  0  0  0  0
   -4.0710   -0.9060    0.0480 C   0  0  0  0  0  0  0  0  0  0  0  0
   -4.6980   -2.0110   -0.0360 O   0  0  0  0  0  0  0  0  0  0  0  0
    3.7240    0.3990    0.6190 S   0  0  0  0  0  0  0  0  0  0  0  0
  2  1  1  1
  2  3  1  0
  2 21  1  0
  3  4  1  0
  4  5  2  0
  5  6  1  0
  5 21  1  0
  6  7  2  0
  6  8  1  0
  8  9  1  0
  9 10  1  0
 10 11  2  0
 12 10  1  6
 12 13  1  0
 12 19  1  0
 13 14  1  0
 14 15  2  0
 14 16  1  0
 16 17  2  0
 16 18  1  0
 18 19  1  0
 19 20  2  0
M  END
