
     RDKit          3D

 21 22  0  0  0  0  0  0  0  0999 V2000
    5.7360   -1.6390    1.2320 N   0  0  0  0  0  0  0  0  0  0  0  0
    5.7430   -0.2030    1.1690 C   0  0  1  0  0  0  0  0  0  0  0  0
    5.8780    0.2250   -0.1610 O   0  0  0  0  0  0  0  0  0  0  0  0
    4.5790    0.4170   -0.6500 C   0  0  0  0  0  0  0  0  0  0  0  0
    4.2800    0.4860   -1.9950 O   0  0  0  0  0  0  0  0  0  0  0  0
    3.7330    0.5150    0.3520 C   0  0  0  0  0  0  0  0  0  0  0  0
    2.2920    0.7180    0.2900 C   0  0  0  0  0  0  0  0  0  0  0  0
    1.6440    0.7860    1.3900 O   0  0  0  0  0  0  0  0  0  0  0  0
    1.5310    0.8480   -0.8920 N   0  0  0  0  0  0  0  0  0  0  0  0
    0.1320    1.0420   -0.8520 N   0  0  0  0  0  0  0  0  0  0  0  0
   -0.7270    0.1290   -0.1700 C   0  0  0  0  0  0  0  0  0  0  0  0
   -0.1570   -0.8580    0.3950 O   0  0  0  0  0  0  0  0  0  0  0  0
   -2.1340    0.3030   -0.1190 N   0  0  0  0  0  0  0  0  0  0  0  0
   -2.9320   -0.6580    0.5880 C   0  0  2  0  0  0  0  0  0  0  0  0
   -3.9340   -1.3440   -0.3030 C   0  0  0  0  0  0  0  0  0  0  0  0
   -4.9460   -0.3420   -0.7350 C   0  0  0  0  0  0  0  0  0  0  0  0
   -5.0380    0.7690    0.6790 S   0  0  1  0  0  0  0  0  0  0  0  0
   -4.7240    2.1740    0.2810 O   0  0  0  0  0  0  0  0  0  0  0  0
   -6.3420    0.6780    1.3690 O   0  0  0  0  0  0  0  0  0  0  0  0
   -3.7040    0.0640    1.6600 C   0  0  0  0  0  0  0  0  0  0  0  0
    4.5030    0.3830    1.5190 O   0  0  0  0  0  0  0  0  0  0  0  0
  2  1  1  6
  2  3  1  0
  2 21  1  0
  3  4  1  0
  4  5  1  0
  4  6  2  0
  6  7  1  0
  6 21  1  0
  7  8  2  0
  7  9  1  0
  9 10  1  0
 10 11  1  0
 11 12  2  0
 11 13  1  0
 14 13  1  6
 14 15  1  0
 14 20  1  0
 15 16  1  0
 17 16  1  6
 17 18  2  0
 17 19  2  0
 17 20  1  0
M  END
