
     RDKit          3D

 25 26  0  0  0  0  0  0  0  0999 V2000
   -6.9180   -0.4880    0.6530 C   0  0  0  0  0  0  0  0  0  0  0  0
   -5.4730   -0.3040    0.3870 C   0  0  0  0  0  0  0  0  0  0  0  0
   -4.1430   -0.8820    1.3290 S   0  0  0  0  0  0  0  0  0  0  0  0
   -2.8440   -0.2460    0.3380 C   0  0  0  0  0  0  0  0  0  0  0  0
   -1.4600   -0.4170    0.6350 N   0  0  0  0  0  0  0  0  0  0  0  0
   -1.0850   -1.1400    1.7910 C   0  0  0  0  0  0  0  0  0  0  0  0
   -1.9870   -1.6140    2.5290 O   0  0  0  0  0  0  0  0  0  0  0  0
    0.3580   -1.3550    2.1570 C   0  0  0  0  0  0  0  0  0  0  0  0
    1.1250   -0.7160    1.1550 O   0  0  0  0  0  0  0  0  0  0  0  0
    2.5250   -0.7250    1.1930 C   0  0  0  0  0  0  0  0  0  0  0  0
    3.0540   -1.3170    2.1420 O   0  0  0  0  0  0  0  0  0  0  0  0
    3.3030   -0.0920    0.1980 N   0  0  0  0  0  0  0  0  0  0  0  0
    4.7100   -0.0470    0.1500 C   0  0  0  0  0  0  0  0  0  0  0  0
    5.5360   -0.5850    1.0210 C   0  0  0  0  0  0  0  0  0  0  0  0
    6.9990   -0.5100    0.9260 C   0  0  0  0  0  0  0  0  0  0  0  0
    7.5640    0.1180   -0.0630 C   0  0  0  0  0  0  0  0  0  0  0  0
    6.7600    0.7040   -1.0090 O   0  0  0  0  0  0  0  0  0  0  0  0
    5.3570    0.6630   -0.9670 C   0  0  0  0  0  0  0  0  0  0  0  0
    4.6690    1.2600   -1.9290 C   0  0  0  0  0  0  0  0  0  0  0  0
    5.6890    2.1430   -3.3170 Br  0  0  0  0  0  0  0  0  0  0  0  0
   -3.5090    0.3790   -0.6660 C   0  0  0  0  0  0  0  0  0  0  0  0
   -2.7250    1.0620   -1.7440 C   0  0  0  0  0  0  0  0  0  0  0  0
   -1.4510    1.0810   -1.7560 N   0  0  0  0  0  0  0  0  0  0  0  0
   -4.8590    0.3600   -0.6580 C   0  0  0  0  0  0  0  0  0  0  0  0
   -5.6920    1.0450   -1.7580 C   0  0  0  0  0  0  0  0  0  0  0  0
  1  2  1  0
  2  3  1  0
  2 24  2  0
  3  4  1  0
  4  5  1  0
  4 21  2  0
  5  6  1  0
  6  7  2  0
  6  8  1  0
  8  9  1  0
  9 10  1  0
 10 11  2  0
 10 12  1  0
 12 13  1  0
 13 14  2  0
 13 18  1  0
 14 15  1  0
 15 16  2  0
 16 17  1  0
 17 18  1  0
 18 19  2  3
 19 20  1  0
 21 22  1  0
 21 24  1  0
 22 23  2  0
 24 25  1  0
M  END
