
     RDKit          3D

 21 22  0  0  0  0  0  0  0  0999 V2000
    4.4520    1.5580    0.6310 O   0  0  0  0  0  0  0  0  0  0  0  0
    3.9620    0.4390    0.3180 C   0  0  0  0  0  0  0  0  0  0  0  0
    4.6910   -0.3490   -0.5560 O   0  0  0  0  0  0  0  0  0  0  0  0
    2.7250   -0.0230    0.8190 N   0  0  0  0  0  0  0  0  0  0  0  0
    1.8940    0.7390    1.7450 C   0  0  0  0  0  0  0  0  0  0  0  0
    0.4750    0.8850    1.1760 C   0  0  0  0  0  0  0  0  0  0  0  0
    0.5500    0.3700   -0.2420 C   0  0  2  0  0  0  0  0  0  0  0  0
   -0.7560    0.9020   -1.3130 S   0  0  0  0  0  0  0  0  0  0  0  0
   -2.3360    0.2960   -0.8940 N   0  0  0  0  0  0  0  0  0  0  0  0
   -2.8820   -0.7100   -1.5850 C   0  0  0  0  0  0  0  0  0  0  0  0
   -2.3130   -1.2760   -2.5550 O   0  0  0  0  0  0  0  0  0  0  0  0
   -4.1250   -1.1870   -1.2580 N   0  0  0  0  0  0  0  0  0  0  0  0
   -4.8020   -0.6450   -0.2400 C   0  0  0  0  0  0  0  0  0  0  0  0
   -5.9640   -1.0500    0.1090 O   0  0  0  0  0  0  0  0  0  0  0  0
   -4.2630    0.3640    0.4570 N   0  0  0  0  0  0  0  0  0  0  0  0
   -3.0280    0.8270    0.1210 C   0  0  0  0  0  0  0  0  0  0  0  0
   -2.5440    1.7750    0.7920 O   0  0  0  0  0  0  0  0  0  0  0  0
    0.7720   -1.1220   -0.1710 C   0  0  1  0  0  0  0  0  0  0  0  0
    0.7640   -1.7570   -1.3860 O   0  0  0  0  0  0  0  0  0  0  0  0
    2.1710   -1.3230    0.4340 C   0  0  1  0  0  0  0  0  0  0  0  0
    2.9990   -1.9970   -0.4340 O   0  0  0  0  0  0  0  0  0  0  0  0
  1  2  2  0
  2  3  1  0
  2  4  1  0
  4  5  1  0
  4 20  1  0
  5  6  1  0
  6  7  1  0
  7  8  1  1
  7 18  1  0
  8  9  1  0
  9 10  1  0
  9 16  1  0
 10 11  2  0
 10 12  1  0
 12 13  1  0
 13 14  2  0
 13 15  1  0
 15 16  1  0
 16 17  2  0
 18 19  1  6
 18 20  1  0
 20 21  1  6
M  END
