
     RDKit          3D

 21 22  0  0  0  0  0  0  0  0999 V2000
    7.0130    1.1410    0.8080 C   0  0  0  0  0  0  0  0  0  0  0  0
    5.8530    0.8320   -0.0980 C   0  0  0  0  0  0  0  0  0  0  0  0
    5.6090    1.6300   -1.0270 O   0  0  0  0  0  0  0  0  0  0  0  0
    5.0280   -0.3090    0.0510 N   0  0  0  0  0  0  0  0  0  0  0  0
    3.9820   -0.5380   -0.8080 O   0  0  0  0  0  0  0  0  0  0  0  0
    2.6560   -0.6790   -0.4150 C   0  0  0  0  0  0  0  0  0  0  0  0
    2.4000   -0.5900    0.8100 O   0  0  0  0  0  0  0  0  0  0  0  0
    1.6240   -0.9180   -1.3940 N   0  0  0  0  0  0  0  0  0  0  0  0
    0.2970   -1.0570   -0.9820 N   0  0  0  0  0  0  0  0  0  0  0  0
   -0.7740   -0.3550   -1.5820 C   0  0  0  0  0  0  0  0  0  0  0  0
   -0.4370    0.4300   -2.5360 O   0  0  0  0  0  0  0  0  0  0  0  0
   -2.1820   -0.4450   -1.2230 C   0  0  2  0  0  0  0  0  0  0  0  0
   -2.9960    0.3660   -2.0030 O   0  0  0  0  0  0  0  0  0  0  0  0
   -2.4810   -0.3080    0.2510 C   0  0  1  0  0  0  0  0  0  0  0  0
   -2.2790    1.0510    0.6400 N   0  0  0  0  0  0  0  0  0  0  0  0
   -3.3550    1.4270    1.3330 O   0  0  0  0  0  0  0  0  0  0  0  0
   -4.3890    0.5120    1.1990 C   0  0  0  0  0  0  0  0  0  0  0  0
   -3.9000   -0.5300    0.5590 C   0  0  0  0  0  0  0  0  0  0  0  0
   -5.2620   -1.6670    0.3930 S   0  0  0  0  0  0  0  0  0  0  0  0
   -6.5270   -0.3530    0.7390 C   0  0  0  0  0  0  0  0  0  0  0  0
   -5.7000    0.4460    1.5510 O   0  0  0  0  0  0  0  0  0  0  0  0
  1  2  1  0
  2  3  2  0
  2  4  1  0
  4  5  1  0
  5  6  1  0
  6  7  2  0
  6  8  1  0
  8  9  1  0
  9 10  1  0
 10 11  2  0
 10 12  1  0
 12 13  1  6
 12 14  1  0
 14 15  1  6
 14 18  1  0
 15 16  1  0
 16 17  1  0
 17 18  2  0
 17 21  1  0
 18 19  1  0
 19 20  1  0
 20 21  1  0
M  END
