
     RDKit          3D

 21 22  0  0  0  0  0  0  0  0999 V2000
    6.4190    0.4430    0.9890 N   0  0  0  0  0  0  0  0  0  0  0  0
    5.3280   -0.3270    0.4410 C   0  0  0  0  0  0  0  0  0  0  0  0
    5.3150   -1.5800    0.4130 O   0  0  0  0  0  0  0  0  0  0  0  0
    4.2500    0.4280   -0.0860 N   0  0  0  0  0  0  0  0  0  0  0  0
    3.1570   -0.0770   -0.6630 O   0  0  0  0  0  0  0  0  0  0  0  0
    2.7160   -1.3090   -0.1330 C   0  0  0  0  0  0  0  0  0  0  0  0
    1.3090   -1.4090   -0.7120 C   0  0  0  0  0  0  0  0  0  0  0  0
    1.1760   -1.7560   -1.8680 O   0  0  0  0  0  0  0  0  0  0  0  0
    0.2520   -1.0690    0.1750 N   0  0  0  0  0  0  0  0  0  0  0  0
   -1.0320   -0.7220   -0.3530 C   0  0  0  0  0  0  0  0  0  0  0  0
   -1.2550   -1.0680   -1.5320 O   0  0  0  0  0  0  0  0  0  0  0  0
   -2.0010    0.0410    0.4250 C   0  0  1  0  0  0  0  0  0  0  0  0
   -1.3180    1.3210    0.7820 N   0  0  0  0  0  0  0  0  0  0  0  0
   -1.0510    1.9360   -0.4750 C   0  0  0  0  0  0  0  0  0  0  0  0
   -0.0650    2.7100   -0.7430 O   0  0  0  0  0  0  0  0  0  0  0  0
   -2.0700    1.5370   -1.3210 O   0  0  0  0  0  0  0  0  0  0  0  0
   -2.9690    0.7020   -0.6430 C   0  0  2  0  0  0  0  0  0  0  0  0
   -3.9040    1.3870    0.0680 O   0  0  0  0  0  0  0  0  0  0  0  0
   -5.0410    0.6440    0.3460 C   0  0  0  0  0  0  0  0  0  0  0  0
   -4.7530   -0.6650    0.9970 C   0  0  0  0  0  0  0  0  0  0  0  0
   -3.0230   -0.6810    1.6230 S   0  0  0  0  0  0  0  0  0  0  0  0
  1  2  1  0
  2  3  2  0
  2  4  1  0
  4  5  1  0
  5  6  1  0
  6  7  1  0
  7  8  2  0
  7  9  1  0
  9 10  1  0
 10 11  2  0
 12 10  1  6
 12 13  1  0
 12 17  1  0
 12 21  1  0
 13 14  1  0
 14 15  2  0
 14 16  1  0
 17 16  1  6
 17 18  1  0
 18 19  1  0
 19 20  1  0
 20 21  1  0
M  END
