
     RDKit          3D

 33 34  0  0  0  0  0  0  0  0999 V2000
    1.7930   -5.0380   -0.7040 C   0  0  0  0  0  0  0  0  0  0  0  0
    2.6570   -3.9160   -0.7170 O   0  0  0  0  0  0  0  0  0  0  0  0
    2.1160   -2.6570   -0.5070 C   0  0  0  0  0  0  0  0  0  0  0  0
    0.8020   -2.3940   -0.2840 C   0  0  0  0  0  0  0  0  0  0  0  0
    0.2660   -1.1030   -0.0720 C   0  0  0  0  0  0  0  0  0  0  0  0
    1.1460   -0.0570   -0.0890 C   0  0  0  0  0  0  0  0  0  0  0  0
    2.5080   -0.3180   -0.3220 C   0  0  0  0  0  0  0  0  0  0  0  0
    3.0260   -1.5850   -0.5310 C   0  0  0  0  0  0  0  0  0  0  0  0
    4.3240   -1.7630   -0.7420 O   0  0  0  0  0  0  0  0  0  0  0  0
    5.5140   -1.1690   -0.8340 C   0  0  0  0  0  0  0  0  0  0  0  0
    6.1080   -0.4770    0.3550 C   0  0  2  0  0  0  0  0  0  0  0  0
    5.3950    0.5470    0.8720 F   0  0  0  0  0  0  0  0  0  0  0  0
    7.3730    0.0480    0.0340 F   0  0  0  0  0  0  0  0  0  0  0  0
    6.4020   -1.4010    1.3760 F   0  0  0  0  0  0  0  0  0  0  0  0
    0.8430    1.3380    0.1730 N   0  0  0  0  0  0  0  0  0  0  0  0
    1.3360    2.3620   -0.7230 C   0  0  0  0  0  0  0  0  0  0  0  0
    2.4150    3.2440   -0.1370 C   0  0  0  0  0  0  0  0  0  0  0  0
    2.0530    3.9330    0.9950 O   0  0  0  0  0  0  0  0  0  0  0  0
    0.0810    1.7720    1.3280 C   0  0  0  0  0  0  0  0  0  0  0  0
   -0.9160    2.8750    1.0800 C   0  0  0  0  0  0  0  0  0  0  0  0
   -2.0910    2.5520    1.8480 N   0  0  0  0  0  0  0  0  0  0  0  0
   -3.2630    2.1530    1.1290 C   0  0  0  0  0  0  0  0  0  0  0  0
   -3.5770    0.7720    1.4680 C   0  0  0  0  0  0  0  0  0  0  0  0
   -4.1920   -0.1400    0.4470 C   0  0  0  0  0  0  0  0  0  0  0  0
   -5.6130   -0.3660    0.7030 C   0  0  0  0  0  0  0  0  0  0  0  0
   -6.3540   -1.1440   -0.1070 F   0  0  0  0  0  0  0  0  0  0  0  0
   -3.4910   -0.6360   -0.5420 C   0  0  0  0  0  0  0  0  0  0  0  0
   -4.0580   -1.5130   -1.5200 C   0  0  0  0  0  0  0  0  0  0  0  0
   -3.4310   -2.0720   -2.5330 C   0  0  0  0  0  0  0  0  0  0  0  0
   -4.1600   -2.8900   -3.3710 F   0  0  0  0  0  0  0  0  0  0  0  0
   -2.1550   -1.9370   -2.8080 F   0  0  0  0  0  0  0  0  0  0  0  0
   -2.0490   -0.2230   -0.7150 C   0  0  0  0  0  0  0  0  0  0  0  0
   -1.1490   -1.0330    0.0680 N   0  0  0  0  0  0  0  0  0  0  0  0
  1  2  1  0
  2  3  1  0
  3  4  2  0
  3  8  1  0
  4  5  1  0
  5  6  2  0
  5 33  1  0
  6  7  1  0
  6 15  1  0
  7  8  2  0
  8  9  1  0
  9 10  1  0
 10 11  1  0
 11 12  1  1
 11 13  1  0
 11 14  1  0
 15 16  1  0
 15 19  1  0
 16 17  1  0
 17 18  1  0
 19 20  1  0
 20 21  1  0
 21 22  1  0
 22 23  1  0
 23 24  1  0
 24 25  1  0
 24 27  2  0
 25 26  1  0
 27 28  1  0
 27 32  1  0
 28 29  2  3
 29 30  1  0
 29 31  1  0
 32 33  1  0
M  END
