
     RDKit          3D

 33 37  0  0  0  0  0  0  0  0999 V2000
   -7.7490   -1.5020    1.5190 C   0  0  0  0  0  0  0  0  0  0  0  0
   -6.7380   -1.7080    0.4490 C   0  0  0  0  0  0  0  0  0  0  0  0
   -6.6140   -3.0390   -0.7240 S   0  0  0  0  0  0  0  0  0  0  0  0
   -5.1550   -2.4290   -1.5490 C   0  0  0  0  0  0  0  0  0  0  0  0
   -4.3580   -3.2220   -2.8970 Cl  0  0  0  0  0  0  0  0  0  0  0  0
   -4.8790   -1.2990   -0.8960 C   0  0  0  0  0  0  0  0  0  0  0  0
   -5.6260   -0.8680    0.1190 C   0  0  0  0  0  0  0  0  0  0  0  0
   -5.4130    0.3920    0.9330 C   0  0  0  0  0  0  0  0  0  0  0  0
   -4.2710    1.1490    0.5070 N   0  0  0  0  0  0  0  0  0  0  0  0
   -3.9990    2.3410    1.2240 C   0  0  0  0  0  0  0  0  0  0  0  0
   -4.8200    2.6310    2.1700 O   0  0  0  0  0  0  0  0  0  0  0  0
   -2.9190    3.2630    1.0090 C   0  0  0  0  0  0  0  0  0  0  0  0
   -3.1890    4.5850    1.2200 N   0  0  0  0  0  0  0  0  0  0  0  0
   -2.3380    5.5880    1.0960 C   0  0  0  0  0  0  0  0  0  0  0  0
   -1.0860    5.2900    0.7300 N   0  0  0  0  0  0  0  0  0  0  0  0
   -0.7820    4.0100    0.5170 C   0  0  0  0  0  0  0  0  0  0  0  0
    0.7710    3.2310    0.0540 S   0  0  0  0  0  0  0  0  0  0  0  0
    0.2220    1.6030    0.0470 C   0  0  0  0  0  0  0  0  0  0  0  0
    0.9970    0.3820   -0.2580 C   0  0  0  0  0  0  0  0  0  0  0  0
    0.4000   -0.7030   -0.2040 O   0  0  0  0  0  0  0  0  0  0  0  0
    2.3190    0.4210   -0.5880 O   0  0  0  0  0  0  0  0  0  0  0  0
    3.1140   -0.6860   -0.8880 C   0  0  1  0  0  0  0  0  0  0  0  0
    3.6150   -0.4950   -2.3260 C   0  0  0  0  0  0  0  0  0  0  0  0
    4.2990   -1.7500   -2.7680 C   0  0  0  0  0  0  0  0  0  0  0  0
    5.0170   -2.4790   -1.6820 C   0  0  0  0  0  0  0  0  0  0  0  0
    5.3680   -1.6240   -0.5560 N   0  0  0  0  0  0  0  0  0  0  0  0
    6.6970   -1.6080   -0.0180 C   0  0  2  0  0  0  0  0  0  0  0  0
    6.9210   -1.5720    1.4790 C   0  0  0  0  0  0  0  0  0  0  0  0
    7.2360   -0.3920    0.6610 C   0  0  0  0  0  0  0  0  0  0  0  0
    4.3100   -0.8220   -0.0440 C   0  0  0  0  0  0  0  0  0  0  0  0
    4.4120   -0.2680    1.0770 O   0  0  0  0  0  0  0  0  0  0  0  0
   -1.1230    1.7070    0.3970 C   0  0  0  0  0  0  0  0  0  0  0  0
   -1.6010    2.9280    0.6250 C   0  0  0  0  0  0  0  0  0  0  0  0
  1  2  1  0
  2  3  1  0
  2  7  2  0
  3  4  1  0
  4  5  1  0
  4  6  2  0
  6  7  1  0
  7  8  1  0
  8  9  1  0
  9 10  1  0
 10 11  2  0
 10 12  1  0
 12 13  2  0
 12 33  1  0
 13 14  1  0
 14 15  2  0
 15 16  1  0
 16 17  1  0
 16 33  2  0
 17 18  1  0
 18 19  1  0
 18 32  2  0
 19 20  2  0
 19 21  1  0
 22 21  1  1
 22 23  1  0
 22 30  1  0
 23 24  1  0
 24 25  1  0
 25 26  1  0
 27 26  1  1
 26 30  1  0
 27 28  1  0
 27 29  1  0
 28 29  1  0
 30 31  2  0
 32 33  1  0
M  END
