
     RDKit          3D

 33 36  0  0  0  0  0  0  0  0999 V2000
   -2.2920   -1.2680   -1.2080 C   0  0  0  0  0  0  0  0  0  0  0  0
   -2.7930   -0.7660    0.0510 N   0  0  0  0  0  0  0  0  0  0  0  0
   -4.1030   -1.1950    0.4540 C   0  0  0  0  0  0  0  0  0  0  0  0
   -5.2440   -0.4900   -0.1250 C   0  0  0  0  0  0  0  0  0  0  0  0
   -6.1790   -1.1280   -0.8660 C   0  0  0  0  0  0  0  0  0  0  0  0
   -6.2110   -2.8510   -1.2660 Cl  0  0  0  0  0  0  0  0  0  0  0  0
   -7.2160   -0.1960   -1.3220 C   0  0  0  0  0  0  0  0  0  0  0  0
   -6.7730    1.0780   -0.7520 C   0  0  0  0  0  0  0  0  0  0  0  0
   -5.6270    0.8940   -0.0600 C   0  0  0  0  0  0  0  0  0  0  0  0
   -4.9400    2.0200    0.6400 C   0  0  0  0  0  0  0  0  0  0  0  0
   -5.6430    3.2050    0.4630 O   0  0  0  0  0  0  0  0  0  0  0  0
   -2.0560    0.1360    0.8330 C   0  0  0  0  0  0  0  0  0  0  0  0
   -2.5600    0.4780    1.9650 O   0  0  0  0  0  0  0  0  0  0  0  0
   -0.7290    0.7230    0.4340 C   0  0  1  0  0  0  0  0  0  0  0  0
   -0.9770    1.5590   -0.8080 C   0  0  0  0  0  0  0  0  0  0  0  0
   -0.2820    1.6560    1.5520 C   0  0  0  0  0  0  0  0  0  0  0  0
    1.1740    1.9900    1.3100 C   0  0  0  0  0  0  0  0  0  0  0  0
    1.9620    0.7330    1.5960 C   0  0  0  0  0  0  0  0  0  0  0  0
    1.3280   -0.4550    1.1640 N   0  0  0  0  0  0  0  0  0  0  0  0
    2.3840   -1.7750    0.9020 S   0  0  2  0  0  0  0  0  0  0  0  0
    1.5790   -2.9880    0.5360 O   0  0  0  0  0  0  0  0  0  0  0  0
    3.1260   -2.0920    2.1700 O   0  0  0  0  0  0  0  0  0  0  0  0
    3.5590   -1.4320   -0.3530 C   0  0  0  0  0  0  0  0  0  0  0  0
    4.9280   -1.4080   -0.2620 C   0  0  0  0  0  0  0  0  0  0  0  0
    5.4530   -1.0980   -1.4560 N   0  0  0  0  0  0  0  0  0  0  0  0
    6.8310   -0.9830   -1.7280 C   0  0  0  0  0  0  0  0  0  0  0  0
    7.8930   -0.5490   -1.0100 C   0  0  0  0  0  0  0  0  0  0  0  0
    9.1160   -0.5440   -1.5200 C   0  0  0  0  0  0  0  0  0  0  0  0
    9.3290   -0.9890   -2.8090 C   0  0  0  0  0  0  0  0  0  0  0  0
    7.6210   -1.4450   -3.3110 S   0  0  0  0  0  0  0  0  0  0  0  0
    4.4040   -0.9310   -2.2780 C   0  0  0  0  0  0  0  0  0  0  0  0
    3.2500   -1.1300   -1.6220 N   0  0  0  0  0  0  0  0  0  0  0  0
    0.2610   -0.3620    0.2460 C   0  0  0  0  0  0  0  0  0  0  0  0
  1  2  1  0
  2  3  1  0
  2 12  1  0
  3  4  1  0
  4  5  2  0
  4  9  1  0
  5  6  1  0
  5  7  1  0
  7  8  1  0
  8  9  2  0
  9 10  1  0
 10 11  1  0
 12 13  2  0
 12 14  1  0
 14 15  1  6
 14 16  1  0
 14 33  1  0
 16 17  1  0
 17 18  1  0
 18 19  1  0
 20 19  1  1
 19 33  1  0
 20 21  2  0
 20 22  2  0
 20 23  1  0
 23 24  2  0
 23 32  1  0
 24 25  1  0
 25 26  1  0
 25 31  1  0
 26 27  2  0
 26 30  1  0
 27 28  1  0
 28 29  2  0
 29 30  1  0
 31 32  2  0
M  END
