
     RDKit          3D

 33 34  0  0  0  0  0  0  0  0999 V2000
   -8.1460    0.2950    0.0320 C   0  0  0  0  0  0  0  0  0  0  0  0
   -6.7070    0.3500    0.2740 C   0  0  0  0  0  0  0  0  0  0  0  0
   -5.8540    1.0240   -0.4390 C   0  0  0  0  0  0  0  0  0  0  0  0
   -4.4410    1.0140   -0.1160 N   0  0  0  0  0  0  0  0  0  0  0  0
   -3.7080   -0.1750   -0.0930 C   0  0  0  0  0  0  0  0  0  0  0  0
   -4.3320   -1.3280   -0.5190 C   0  0  0  0  0  0  0  0  0  0  0  0
   -3.6280   -2.5030   -0.4820 C   0  0  0  0  0  0  0  0  0  0  0  0
   -2.3250   -2.5090   -0.0240 C   0  0  0  0  0  0  0  0  0  0  0  0
   -1.6260   -3.7100    0.0060 O   0  0  0  0  0  0  0  0  0  0  0  0
   -1.6720   -1.3740    0.4090 C   0  0  0  0  0  0  0  0  0  0  0  0
   -0.2850   -1.4750    0.9000 C   0  0  0  0  0  0  0  0  0  0  0  0
    0.2390   -2.5920    0.9050 O   0  0  0  0  0  0  0  0  0  0  0  0
    0.4780   -0.3880    1.3630 N   0  0  0  0  0  0  0  0  0  0  0  0
    1.7900   -0.3000    1.8450 C   0  0  0  0  0  0  0  0  0  0  0  0
    2.9860   -0.5400    1.0040 C   0  0  2  0  0  0  0  0  0  0  0  0
    3.0130   -1.9190    0.4240 C   0  0  0  0  0  0  0  0  0  0  0  0
    4.1730   -0.5980    2.0210 C   0  0  0  0  0  0  0  0  0  0  0  0
    4.3870    0.6780    2.7420 C   0  0  0  0  0  0  0  0  0  0  0  0
    4.8770    1.6330    1.8580 O   0  0  0  0  0  0  0  0  0  0  0  0
    3.8120    2.4220    1.4450 C   0  0  0  0  0  0  0  0  0  0  0  0
    2.9330    1.7950    0.4140 C   0  0  0  0  0  0  0  0  0  0  0  0
    3.2550    0.4630    0.0290 N   0  0  0  0  0  0  0  0  0  0  0  0
    3.1860    0.1780   -1.3320 C   0  0  0  0  0  0  0  0  0  0  0  0
    4.2030    0.8360   -2.2340 C   0  0  0  0  0  0  0  0  0  0  0  0
    5.6210    0.4950   -1.9550 C   0  0  2  0  0  0  0  0  0  0  0  0
    5.8870   -0.8580   -2.0690 F   0  0  0  0  0  0  0  0  0  0  0  0
    6.1090    0.9750   -0.7750 F   0  0  0  0  0  0  0  0  0  0  0  0
    6.4050    1.1000   -2.9570 F   0  0  0  0  0  0  0  0  0  0  0  0
   -2.3840   -0.2040    0.3670 C   0  0  0  0  0  0  0  0  0  0  0  0
   -6.2830    1.8230   -1.5980 C   0  0  2  0  0  0  0  0  0  0  0  0
   -5.9100    3.1680   -1.4380 F   0  0  0  0  0  0  0  0  0  0  0  0
   -7.6480    1.8440   -1.7270 F   0  0  0  0  0  0  0  0  0  0  0  0
   -5.7750    1.3360   -2.7870 F   0  0  0  0  0  0  0  0  0  0  0  0
  1  2  1  0
  2  3  2  3
  3  4  1  0
  3 30  1  0
  4  5  1  0
  5  6  2  0
  5 29  1  0
  6  7  1  0
  7  8  2  0
  8  9  1  0
  8 10  1  0
 10 11  1  0
 10 29  2  0
 11 12  2  0
 11 13  1  0
 13 14  1  0
 14 15  1  0
 15 16  1  6
 15 17  1  0
 15 22  1  0
 17 18  1  0
 18 19  1  0
 19 20  1  0
 20 21  1  0
 21 22  1  0
 22 23  1  0
 23 24  1  0
 24 25  1  0
 25 26  1  1
 25 27  1  0
 25 28  1  0
 30 31  1  1
 30 32  1  0
 30 33  1  0
M  END
