
     RDKit          3D

 33 34  0  0  0  0  0  0  0  0999 V2000
   -5.7790    3.2300   -0.1990 C   0  0  0  0  0  0  0  0  0  0  0  0
   -6.2180    1.8250   -0.2980 C   0  0  0  0  0  0  0  0  0  0  0  0
   -5.6360    0.8530    0.3810 C   0  0  0  0  0  0  0  0  0  0  0  0
   -4.5000    1.1580    1.2820 C   0  0  0  0  0  0  0  0  0  0  0  0
   -3.3370    0.3160    0.7940 C   0  0  0  0  0  0  0  0  0  0  0  0
   -2.0560    0.7560    0.9820 C   0  0  0  0  0  0  0  0  0  0  0  0
   -0.9560    0.0240    0.5570 C   0  0  0  0  0  0  0  0  0  0  0  0
    0.3670    0.5860    0.7880 C   0  0  0  0  0  0  0  0  0  0  0  0
    0.4860    1.6300    1.5370 O   0  0  0  0  0  0  0  0  0  0  0  0
    1.5690    0.0980    0.2630 N   0  0  0  0  0  0  0  0  0  0  0  0
    2.8410    0.7110    0.5400 C   0  0  0  0  0  0  0  0  0  0  0  0
    2.8420    1.7090    1.2950 O   0  0  0  0  0  0  0  0  0  0  0  0
    4.1070    0.2040   -0.0300 C   0  0  0  0  0  0  0  0  0  0  0  0
    5.2420    0.9690    0.3870 N   0  0  0  0  0  0  0  0  0  0  0  0
    6.5410    0.6450   -0.1040 C   0  0  0  0  0  0  0  0  0  0  0  0
    7.5010    1.6810   -0.4590 C   0  0  0  0  0  0  0  0  0  0  0  0
    7.2770    2.9720   -0.3720 C   0  0  0  0  0  0  0  0  0  0  0  0
    8.2510    3.8650   -0.7330 F   0  0  0  0  0  0  0  0  0  0  0  0
    6.1150    3.5000    0.0600 F   0  0  0  0  0  0  0  0  0  0  0  0
    6.9040   -0.6190   -0.2450 C   0  0  0  0  0  0  0  0  0  0  0  0
    8.2360   -1.0310   -0.7500 C   0  0  2  0  0  0  0  0  0  0  0  0
    8.2580   -2.3640   -1.1070 F   0  0  0  0  0  0  0  0  0  0  0  0
    9.1930   -0.7350    0.1910 F   0  0  0  0  0  0  0  0  0  0  0  0
   -1.2350   -1.1630   -0.0610 C   0  0  0  0  0  0  0  0  0  0  0  0
   -0.2680   -1.8670   -0.4650 O   0  0  0  0  0  0  0  0  0  0  0  0
   -2.5170   -1.5990   -0.2470 N   0  0  0  0  0  0  0  0  0  0  0  0
   -2.6310   -2.8900   -0.9170 C   0  0  0  0  0  0  0  0  0  0  0  0
   -2.6350   -4.0020    0.1070 C   0  0  0  0  0  0  0  0  0  0  0  0
   -3.5660   -0.8720    0.1730 C   0  0  0  0  0  0  0  0  0  0  0  0
   -4.9030   -1.4650   -0.0980 C   0  0  0  0  0  0  0  0  0  0  0  0
   -6.0520   -0.5740    0.3020 C   0  0  1  0  0  0  0  0  0  0  0  0
   -6.5790   -0.9220    1.5300 F   0  0  0  0  0  0  0  0  0  0  0  0
   -7.0700   -0.6510   -0.6280 F   0  0  0  0  0  0  0  0  0  0  0  0
  1  2  1  0
  2  3  2  3
  3  4  1  0
  3 31  1  0
  4  5  1  0
  5  6  1  0
  5 29  2  0
  6  7  2  0
  7  8  1  0
  7 24  1  0
  8  9  2  0
  8 10  1  0
 10 11  1  0
 11 12  2  0
 11 13  1  0
 13 14  1  0
 14 15  1  0
 15 16  1  0
 15 20  2  3
 16 17  2  3
 17 18  1  0
 17 19  1  0
 20 21  1  0
 21 22  1  1
 21 23  1  0
 24 25  2  0
 24 26  1  0
 26 27  1  0
 26 29  1  0
 27 28  1  0
 29 30  1  0
 30 31  1  0
 31 32  1  1
 31 33  1  0
M  END
