
     RDKit          3D

 32 35  0  0  0  0  0  0  0  0999 V2000
    2.2050    0.1940    4.7180 C   0  0  0  0  0  0  0  0  0  0  0  0
    2.0660    0.4900    3.2510 C   0  0  0  0  0  0  0  0  0  0  0  0
    0.9540    0.0030    2.6200 C   0  0  0  0  0  0  0  0  0  0  0  0
    0.7740    0.2490    1.2400 C   0  0  0  0  0  0  0  0  0  0  0  0
   -0.2400   -0.1540    0.5050 N   0  0  0  0  0  0  0  0  0  0  0  0
   -0.3180    0.1270   -0.7740 C   0  0  0  0  0  0  0  0  0  0  0  0
   -1.0830   -0.0760   -1.7170 N   0  0  0  0  0  0  0  0  0  0  0  0
   -2.2690   -0.7440   -1.7920 C   0  0  0  0  0  0  0  0  0  0  0  0
   -2.7210   -0.9800   -2.9740 O   0  0  0  0  0  0  0  0  0  0  0  0
   -3.0650   -1.2070   -0.6600 C   0  0  0  0  0  0  0  0  0  0  0  0
   -4.4890   -1.6380   -1.0590 C   0  0  1  0  0  0  0  0  0  0  0  0
   -5.1040   -2.1310    0.2680 C   0  0  0  0  0  0  0  0  0  0  0  0
   -6.5960   -2.3060    0.0960 C   0  0  0  0  0  0  0  0  0  0  0  0
   -7.1720   -0.9530   -0.1010 C   0  0  0  0  0  0  0  0  0  0  0  0
   -8.3010   -0.6440    0.3920 O   0  0  0  0  0  0  0  0  0  0  0  0
   -6.4350   -0.0090   -0.8520 N   0  0  0  0  0  0  0  0  0  0  0  0
   -6.9490    1.3470   -0.9840 C   0  0  0  0  0  0  0  0  0  0  0  0
   -6.4140    2.1660    0.1370 C   0  0  0  0  0  0  0  0  0  0  0  0
   -6.7270    3.3520    0.2110 O   0  0  0  0  0  0  0  0  0  0  0  0
   -5.2130   -0.4070   -1.4620 C   0  0  0  0  0  0  0  0  0  0  0  0
   -4.7560    0.3220   -2.3640 O   0  0  0  0  0  0  0  0  0  0  0  0
    1.2540    1.1000   -1.0010 S   0  0  0  0  0  0  0  0  0  0  0  0
    1.7530    0.9650    0.6730 C   0  0  0  0  0  0  0  0  0  0  0  0
    2.8820    1.4510    1.3470 C   0  0  0  0  0  0  0  0  0  0  0  0
    4.0230    2.3720    0.3500 S   0  0  0  0  0  0  0  0  0  0  0  0
    5.3010    1.3910   -0.4150 C   0  0  2  0  0  0  0  0  0  0  0  0
    4.8390    0.4210   -1.4470 C   0  0  0  0  0  0  0  0  0  0  0  0
    6.0230    0.0030   -2.2900 C   0  0  0  0  0  0  0  0  0  0  0  0
    7.3020    0.4140   -1.6450 C   0  0  0  0  0  0  0  0  0  0  0  0
    7.3690    0.1370   -0.1640 C   0  0  0  0  0  0  0  0  0  0  0  0
    6.1630    0.6500    0.5840 C   0  0  0  0  0  0  0  0  0  0  0  0
    3.0330    1.2060    2.6570 N   0  0  0  0  0  0  0  0  0  0  0  0
  1  2  1  0
  2  3  2  0
  2 32  1  0
  3  4  1  0
  4  5  1  0
  4 23  2  0
  5  6  1  0
  6  7  2  3
  6 22  1  0
  7  8  1  0
  8  9  2  0
  8 10  1  0
 11 10  1  1
 11 12  1  0
 11 20  1  0
 12 13  1  0
 13 14  1  0
 14 15  2  0
 14 16  1  0
 16 17  1  0
 16 20  1  0
 17 18  1  0
 18 19  2  0
 20 21  2  0
 22 23  1  0
 23 24  1  0
 24 25  1  0
 24 32  2  0
 26 25  1  1
 26 27  1  0
 26 31  1  0
 27 28  1  0
 28 29  1  0
 29 30  1  0
 30 31  1  0
M  END
