
     RDKit          3D

 33 36  0  0  0  0  0  0  0  0999 V2000
    0.3760   -0.4270    0.6420 C   0  0  0  0  0  0  0  0  0  0  0  0
    0.5800    0.6990   -0.2620 C   0  0  0  0  0  0  0  0  0  0  0  0
    1.6090    1.4520   -0.0510 N   0  0  0  0  0  0  0  0  0  0  0  0
    2.4870    1.1710    1.0220 C   0  0  0  0  0  0  0  0  0  0  0  0
    2.3330    1.7250    2.2850 C   0  0  0  0  0  0  0  0  0  0  0  0
    3.1540    1.4660    3.3010 N   0  0  0  0  0  0  0  0  0  0  0  0
    4.1860    0.6460    3.1560 C   0  0  0  0  0  0  0  0  0  0  0  0
    4.4050    0.0570    1.9310 C   0  0  0  0  0  0  0  0  0  0  0  0
    5.4710   -0.8090    1.7270 C   0  0  0  0  0  0  0  0  0  0  0  0
    5.7190   -1.4160    0.5150 C   0  0  0  0  0  0  0  0  0  0  0  0
    7.0910   -2.5090    0.3130 S   0  0  1  0  0  0  0  0  0  0  0  0
    8.3320   -1.6680    0.4250 O   0  0  0  0  0  0  0  0  0  0  0  0
    7.0800   -3.4740    1.4580 O   0  0  0  0  0  0  0  0  0  0  0  0
    4.8560   -1.1340   -0.5230 C   0  0  0  0  0  0  0  0  0  0  0  0
    3.7840   -0.2750   -0.3510 C   0  0  0  0  0  0  0  0  0  0  0  0
    3.5670    0.3110    0.8660 C   0  0  0  0  0  0  0  0  0  0  0  0
   -0.2780    1.0320   -1.3980 C   0  0  0  0  0  0  0  0  0  0  0  0
   -0.0320    2.1080   -2.2770 C   0  0  0  0  0  0  0  0  0  0  0  0
    1.1150    3.0660   -2.1800 C   0  0  0  0  0  0  0  0  0  0  0  0
   -0.9800    2.1290   -3.1960 N   0  0  0  0  0  0  0  0  0  0  0  0
   -1.7960    1.1140   -2.9200 C   0  0  0  0  0  0  0  0  0  0  0  0
   -2.8160    0.8370   -3.6000 O   0  0  0  0  0  0  0  0  0  0  0  0
   -1.3890    0.4350   -1.8320 N   0  0  0  0  0  0  0  0  0  0  0  0
   -2.0620   -0.7140   -1.2860 C   0  0  0  0  0  0  0  0  0  0  0  0
   -3.1540   -0.3320   -0.3040 C   0  0  0  0  0  0  0  0  0  0  0  0
   -4.1350    0.4460   -0.9190 O   0  0  0  0  0  0  0  0  0  0  0  0
   -5.1420    0.8140   -0.0680 C   0  0  0  0  0  0  0  0  0  0  0  0
   -5.8820   -0.3040    0.5360 C   0  0  0  0  0  0  0  0  0  0  0  0
   -6.9690   -0.9910    0.1430 C   0  0  0  0  0  0  0  0  0  0  0  0
   -7.4270   -1.9790    0.9160 C   0  0  0  0  0  0  0  0  0  0  0  0
   -6.8030   -2.2880    2.0830 C   0  0  0  0  0  0  0  0  0  0  0  0
   -7.0990   -3.4740    3.3160 Cl  0  0  0  0  0  0  0  0  0  0  0  0
   -5.4110   -1.0680    2.1290 S   0  0  0  0  0  0  0  0  0  0  0  0
  1  2  1  0
  2  3  2  3
  2 17  1  0
  3  4  1  0
  4  5  2  0
  4 16  1  0
  5  6  1  0
  6  7  2  0
  7  8  1  0
  8  9  2  0
  8 16  1  0
  9 10  1  0
 11 10  1  1
 10 14  2  0
 11 12  2  0
 11 13  2  0
 14 15  1  0
 15 16  2  0
 17 18  2  0
 17 23  1  0
 18 19  1  0
 18 20  1  0
 20 21  1  0
 21 22  2  0
 21 23  1  0
 23 24  1  0
 24 25  1  0
 25 26  1  0
 26 27  1  0
 27 28  1  0
 28 29  2  0
 28 33  1  0
 29 30  1  0
 30 31  2  0
 31 32  1  0
 31 33  1  0
M  END
