
     RDKit          3D

 33 35  0  0  0  0  0  0  0  0999 V2000
   -9.5530   -0.7390    2.0530 C   0  0  0  0  0  0  0  0  0  0  0  0
   -8.4330   -0.6830    1.3450 C   0  0  0  0  0  0  0  0  0  0  0  0
   -8.0450    0.5090    0.6070 C   0  0  0  0  0  0  0  0  0  0  0  0
   -6.9140    0.5070   -0.0810 C   0  0  0  0  0  0  0  0  0  0  0  0
   -6.0390   -0.6930   -0.1080 C   0  0  0  0  0  0  0  0  0  0  0  0
   -4.7870   -0.3790   -0.6990 N   0  0  0  0  0  0  0  0  0  0  0  0
   -3.9050    0.2890    0.1790 C   0  0  2  0  0  0  0  0  0  0  0  0
   -2.6870    0.8760   -0.4860 C   0  0  0  0  0  0  0  0  0  0  0  0
   -1.6510   -0.1320   -0.8910 C   0  0  0  0  0  0  0  0  0  0  0  0
   -1.4420   -1.1950    0.0500 N   0  0  0  0  0  0  0  0  0  0  0  0
   -0.1950   -1.6880    0.4860 C   0  0  0  0  0  0  0  0  0  0  0  0
   -0.2000   -2.6350    1.3320 O   0  0  0  0  0  0  0  0  0  0  0  0
    1.0540   -1.2010    0.0490 N   0  0  0  0  0  0  0  0  0  0  0  0
    2.2880   -1.7170    0.5190 C   0  0  0  0  0  0  0  0  0  0  0  0
    2.3000   -2.6390    1.3470 O   0  0  0  0  0  0  0  0  0  0  0  0
    3.5430   -1.1460    0.0140 C   0  0  0  0  0  0  0  0  0  0  0  0
    4.6260   -1.7970    0.6250 O   0  0  0  0  0  0  0  0  0  0  0  0
    5.9150   -1.4060    0.2920 C   0  0  0  0  0  0  0  0  0  0  0  0
    6.0680   -0.4830   -0.5470 O   0  0  0  0  0  0  0  0  0  0  0  0
    7.0900   -2.0540    0.9040 C   0  0  0  0  0  0  0  0  0  0  0  0
    8.3520   -1.4290    0.3710 C   0  0  0  0  0  0  0  0  0  0  0  0
    8.2960    0.3350    0.8050 S   0  0  0  0  0  0  0  0  0  0  0  0
    9.7650    1.1600    0.2160 C   0  0  0  0  0  0  0  0  0  0  0  0
   10.7640    0.6020   -0.4320 C   0  0  0  0  0  0  0  0  0  0  0  0
   11.7660    1.6300   -0.7300 C   0  0  0  0  0  0  0  0  0  0  0  0
   11.2150    2.8880   -0.1620 C   0  0  0  0  0  0  0  0  0  0  0  0
   10.0530    2.5670    0.3780 C   0  0  0  0  0  0  0  0  0  0  0  0
   -2.6740   -1.8040    0.5860 C   0  0  0  0  0  0  0  0  0  0  0  0
   -3.4200   -0.6660    1.2480 C   0  0  0  0  0  0  0  0  0  0  0  0
   -4.9390    0.1740   -1.9990 C   0  0  0  0  0  0  0  0  0  0  0  0
   -5.6750    1.5010   -1.9990 C   0  0  0  0  0  0  0  0  0  0  0  0
   -6.4990    1.6420   -0.8230 N   0  0  0  0  0  0  0  0  0  0  0  0
   -6.9030    2.9530   -0.4060 C   0  0  0  0  0  0  0  0  0  0  0  0
  1  2  2  0
  2  3  1  0
  3  4  2  3
  4  5  1  0
  4 32  1  0
  5  6  1  0
  7  6  1  6
  6 30  1  0
  7  8  1  0
  7 29  1  0
  8  9  1  0
  9 10  1  0
 10 11  1  0
 10 28  1  0
 11 12  2  0
 11 13  1  0
 13 14  1  0
 14 15  2  0
 14 16  1  0
 16 17  1  0
 17 18  1  0
 18 19  2  0
 18 20  1  0
 20 21  1  0
 21 22  1  0
 22 23  1  0
 23 24  2  0
 23 27  1  0
 24 25  1  0
 25 26  1  0
 26 27  2  0
 28 29  1  0
 30 31  1  0
 31 32  1  0
 32 33  1  0
M  END
