
     RDKit          3D

 33 36  0  0  0  0  0  0  0  0999 V2000
   -2.1990   -2.0080   -3.9400 C   0  0  0  0  0  0  0  0  0  0  0  0
   -3.1360   -2.2520   -2.8590 N   0  0  0  0  0  0  0  0  0  0  0  0
   -2.7550   -1.9970   -1.5150 C   0  0  0  0  0  0  0  0  0  0  0  0
   -1.5370   -1.4210   -1.3110 C   0  0  0  0  0  0  0  0  0  0  0  0
   -1.1010   -1.1210   -0.0140 C   0  0  0  0  0  0  0  0  0  0  0  0
    0.1630   -0.5100    0.1730 N   0  0  0  0  0  0  0  0  0  0  0  0
    0.3490    0.7600   -0.5490 C   0  0  0  0  0  0  0  0  0  0  0  0
   -0.3420    1.8440    0.2390 C   0  0  0  0  0  0  0  0  0  0  0  0
   -0.9960    1.5150    1.2710 O   0  0  0  0  0  0  0  0  0  0  0  0
   -0.3010    3.1960   -0.1050 N   0  0  0  0  0  0  0  0  0  0  0  0
   -1.0960    4.1940    0.6000 C   0  0  0  0  0  0  0  0  0  0  0  0
   -0.8790    5.5170   -0.1060 C   0  0  0  0  0  0  0  0  0  0  0  0
    0.4570    5.8390   -0.0610 O   0  0  0  0  0  0  0  0  0  0  0  0
    1.3180    4.8900   -0.5470 C   0  0  0  0  0  0  0  0  0  0  0  0
    0.5930    3.6720   -1.1400 C   0  0  0  0  0  0  0  0  0  0  0  0
    1.1530   -0.8990    1.0690 C   0  0  0  0  0  0  0  0  0  0  0  0
    0.6460   -1.5490    2.1060 O   0  0  0  0  0  0  0  0  0  0  0  0
    2.6020   -0.7250    1.1060 C   0  0  0  0  0  0  0  0  0  0  0  0
    2.7200   -0.9010   -0.6250 C   0  0  0  0  0  0  0  0  0  0  0  0
    4.4060   -0.7330   -0.9540 S   0  0  0  0  0  0  0  0  0  0  0  0
    4.8990   -0.4830    0.8460 C   0  0  0  0  0  0  0  0  0  0  0  0
    6.3030   -0.2880    1.1620 C   0  0  2  0  0  0  0  0  0  0  0  0
    6.8930   -1.4320    1.9810 C   0  0  0  0  0  0  0  0  0  0  0  0
    6.4810    1.0020    1.9060 C   0  0  0  0  0  0  0  0  0  0  0  0
    3.7450   -0.5880    1.1340 N   0  0  0  0  0  0  0  0  0  0  0  0
   -1.9620   -1.4420    1.0130 C   0  0  0  0  0  0  0  0  0  0  0  0
   -3.2120   -2.0360    0.7950 C   0  0  0  0  0  0  0  0  0  0  0  0
   -3.6090   -2.3160   -0.4940 C   0  0  0  0  0  0  0  0  0  0  0  0
   -4.8860   -2.9580   -0.8400 C   0  0  0  0  0  0  0  0  0  0  0  0
   -5.5430   -3.6640    0.2970 C   0  0  0  0  0  0  0  0  0  0  0  0
   -5.3780   -3.0450    1.6410 C   0  0  0  0  0  0  0  0  0  0  0  0
   -4.1060   -2.3610    1.8730 C   0  0  0  0  0  0  0  0  0  0  0  0
   -3.8170   -2.0610    3.0640 O   0  0  0  0  0  0  0  0  0  0  0  0
  1  2  1  0
  2  3  1  0
  3  4  2  0
  3 28  1  0
  4  5  1  0
  5  6  1  0
  5 26  2  0
  6  7  1  0
  6 16  1  0
  7  8  1  0
  8  9  2  0
  8 10  1  0
 10 11  1  0
 10 15  1  0
 11 12  1  0
 12 13  1  0
 13 14  1  0
 14 15  1  0
 16 17  2  0
 16 18  1  0
 18 19  2  0
 18 25  1  0
 19 20  1  0
 20 21  1  0
 21 22  1  0
 21 25  2  0
 22 23  1  1
 22 24  1  0
 26 27  1  0
 27 28  2  0
 27 32  1  0
 28 29  1  0
 29 30  1  0
 30 31  1  0
 31 32  1  0
 32 33  2  0
M  END
