
     RDKit          3D

 33 35  0  0  0  0  0  0  0  0999 V2000
   -4.7030   -3.4280   -1.2840 C   0  0  0  0  0  0  0  0  0  0  0  0
   -3.8640   -2.1700   -0.9820 C   0  0  0  0  0  0  0  0  0  0  0  0
   -4.3540   -1.6340    0.2270 N   0  0  0  0  0  0  0  0  0  0  0  0
   -4.0340   -0.2320    0.4940 C   0  0  1  0  0  0  0  0  0  0  0  0
   -2.7050    0.0450   -0.0680 C   0  0  1  0  0  0  0  0  0  0  0  0
   -2.0870    1.3770   -0.0020 C   0  0  0  0  0  0  0  0  0  0  0  0
   -0.7670    1.2920   -0.8180 C   0  0  0  0  0  0  0  0  0  0  0  0
    0.1170    0.2990   -0.3470 N   0  0  0  0  0  0  0  0  0  0  0  0
    1.5350    0.5580   -0.1580 C   0  0  0  0  0  0  0  0  0  0  0  0
    2.2230   -0.4000    0.2600 O   0  0  0  0  0  0  0  0  0  0  0  0
    1.9880    1.9060   -0.4820 C   0  0  0  0  0  0  0  0  0  0  0  0
    3.3820    2.3050   -0.3050 C   0  0  0  0  0  0  0  0  0  0  0  0
    4.4250    1.6190   -0.9760 N   0  0  0  0  0  0  0  0  0  0  0  0
    4.7250    1.8560   -2.2780 C   0  0  0  0  0  0  0  0  0  0  0  0
    3.9920    2.6800   -2.8750 O   0  0  0  0  0  0  0  0  0  0  0  0
    5.7400    1.2520   -2.8970 N   0  0  0  0  0  0  0  0  0  0  0  0
    6.5420    0.3580   -2.2620 C   0  0  0  0  0  0  0  0  0  0  0  0
    7.4970   -0.2040   -2.8630 O   0  0  0  0  0  0  0  0  0  0  0  0
    6.2690    0.0950   -0.9450 C   0  0  0  0  0  0  0  0  0  0  0  0
    7.0820   -0.7710   -0.3160 N   0  0  0  0  0  0  0  0  0  0  0  0
    6.9360   -1.0880    0.9710 C   0  0  0  0  0  0  0  0  0  0  0  0
    7.8480   -2.0530    1.6480 C   0  0  0  0  0  0  0  0  0  0  0  0
    8.7720   -2.6430    0.7270 N   0  0  0  0  0  0  0  0  0  0  0  0
    5.8980   -0.4790    1.6400 C   0  0  0  0  0  0  0  0  0  0  0  0
    5.0520    0.4100    1.0170 C   0  0  0  0  0  0  0  0  0  0  0  0
    5.1990    0.7400   -0.3170 C   0  0  0  0  0  0  0  0  0  0  0  0
   -0.4300   -1.0190   -0.0510 C   0  0  0  0  0  0  0  0  0  0  0  0
   -1.6930   -0.8350    0.7180 C   0  0  0  0  0  0  0  0  0  0  0  0
   -5.1810    0.6600    0.2290 C   0  0  1  0  0  0  0  0  0  0  0  0
   -4.8910    2.1060    0.5260 C   0  0  0  0  0  0  0  0  0  0  0  0
   -5.8190    0.4740   -1.1250 C   0  0  0  0  0  0  0  0  0  0  0  0
   -6.2940    0.2830    1.2280 C   0  0  0  0  0  0  0  0  0  0  0  0
   -5.8470    0.4480    2.6470 C   0  0  0  0  0  0  0  0  0  0  0  0
  1  2  1  0
  2  3  1  0
  4  3  1  6
  4  5  1  0
  4 29  1  0
  5  6  1  1
  5 28  1  0
  6  7  1  0
  7  8  1  0
  8  9  1  0
  8 27  1  0
  9 10  2  0
  9 11  1  0
 11 12  1  0
 12 13  1  0
 13 14  1  0
 13 26  1  0
 14 15  2  0
 14 16  1  0
 16 17  1  0
 17 18  2  0
 17 19  1  0
 19 20  2  0
 19 26  1  0
 20 21  1  0
 21 22  1  0
 21 24  2  0
 22 23  1  0
 24 25  1  0
 25 26  2  0
 27 28  1  0
 29 30  1  1
 29 31  1  0
 29 32  1  0
 32 33  1  0
M  CHG  2   3   1  23   1
M  END
