
     RDKit          3D

 33 36  0  0  0  0  0  0  0  0999 V2000
   11.1210   -0.6250   -0.5130 C   0  0  0  0  0  0  0  0  0  0  0  0
    9.7020   -0.6130   -0.1370 N   0  0  0  0  0  0  0  0  0  0  0  0
    8.9700   -1.6720   -0.6040 C   0  0  0  0  0  0  0  0  0  0  0  0
    7.6800   -1.7770   -0.2700 C   0  0  0  0  0  0  0  0  0  0  0  0
    7.0730   -0.8560    0.5190 C   0  0  0  0  0  0  0  0  0  0  0  0
    5.6960   -0.8860    0.9420 C   0  0  0  0  0  0  0  0  0  0  0  0
    5.2620   -1.0240    2.1080 O   0  0  0  0  0  0  0  0  0  0  0  0
    4.6820   -0.6850   -0.0910 N   0  0  0  0  0  0  0  0  0  0  0  0
    3.3150   -0.5740    0.3710 C   0  0  0  0  0  0  0  0  0  0  0  0
    2.5860    0.0120   -0.8250 C   0  0  0  0  0  0  0  0  0  0  0  0
    2.0780   -0.5500   -1.7650 O   0  0  0  0  0  0  0  0  0  0  0  0
    2.5640    1.4490   -0.7610 O   0  0  0  0  0  0  0  0  0  0  0  0
    1.8210    2.2040   -1.7210 C   0  0  0  0  0  0  0  0  0  0  0  0
    0.4290    1.8140   -1.1400 C   0  0  0  0  0  0  0  0  0  0  0  0
    0.0180    0.9220   -0.5040 N   0  0  0  0  0  0  0  0  0  0  0  0
   -1.1540    0.8440    0.0880 C   0  0  0  0  0  0  0  0  0  0  0  0
   -1.9660    1.9350   -0.0700 C   0  0  0  0  0  0  0  0  0  0  0  0
   -0.8940    3.0270   -1.1200 S   0  0  0  0  0  0  0  0  0  0  0  0
   -3.3140    2.0520    0.4830 C   0  0  0  0  0  0  0  0  0  0  0  0
   -3.8490    0.6030    0.2950 C   0  0  2  0  0  0  0  0  0  0  0  0
   -3.4300    0.1860   -1.0900 C   0  0  0  0  0  0  0  0  0  0  0  0
   -5.1900    0.4250    0.5520 N   0  0  0  0  0  0  0  0  0  0  0  0
   -5.6160   -0.6440    1.3450 C   0  0  0  0  0  0  0  0  0  0  0  0
   -7.1020   -0.7780    1.3360 C   0  0  0  0  0  0  0  0  0  0  0  0
   -7.5310   -1.6400    0.1710 C   0  0  0  0  0  0  0  0  0  0  0  0
   -6.8870   -1.0150   -1.0760 C   0  0  0  0  0  0  0  0  0  0  0  0
   -7.0410    0.4620   -1.0630 C   0  0  0  0  0  0  0  0  0  0  0  0
   -6.1390    1.1970   -0.1570 C   0  0  0  0  0  0  0  0  0  0  0  0
   -3.0080   -0.1530    1.3340 C   0  0  0  0  0  0  0  0  0  0  0  0
   -1.5830   -0.3070    0.9730 C   0  0  0  0  0  0  0  0  0  0  0  0
    7.8410    0.2360    0.9720 C   0  0  0  0  0  0  0  0  0  0  0  0
    9.1560    0.3130    0.6190 C   0  0  0  0  0  0  0  0  0  0  0  0
    9.8940    1.2720    1.0140 O   0  0  0  0  0  0  0  0  0  0  0  0
  1  2  1  0
  2  3  1  0
  2 32  1  0
  3  4  2  0
  4  5  1  0
  5  6  1  0
  5 31  2  0
  6  7  2  0
  6  8  1  0
  8  9  1  0
  9 10  1  0
 10 11  2  0
 10 12  1  0
 12 13  1  0
 13 14  1  0
 14 15  2  0
 14 18  1  0
 15 16  1  0
 16 17  2  0
 16 30  1  0
 17 18  1  0
 17 19  1  0
 19 20  1  0
 20 21  1  6
 20 22  1  0
 20 29  1  0
 22 23  1  0
 22 28  1  0
 23 24  1  0
 24 25  1  0
 25 26  1  0
 26 27  1  0
 27 28  1  0
 29 30  1  0
 31 32  1  0
 32 33  2  0
M  END
