
     RDKit          3D

 33 35  0  0  0  0  0  0  0  0999 V2000
   -2.6400   -2.4050    0.9500 C   0  0  0  0  0  0  0  0  0  0  0  0
   -2.2250   -2.0380   -0.4130 N   0  0  0  0  0  0  0  0  0  0  0  0
   -3.2070   -2.2540   -1.4310 C   0  0  0  0  0  0  0  0  0  0  0  0
   -4.4350   -1.4320   -1.1300 C   0  0  0  0  0  0  0  0  0  0  0  0
   -5.6000   -1.6220   -1.8400 C   0  0  0  0  0  0  0  0  0  0  0  0
   -6.6640   -0.8640   -1.5340 N   0  0  0  0  0  0  0  0  0  0  0  0
   -6.6000    0.0640   -0.5570 C   0  0  0  0  0  0  0  0  0  0  0  0
   -7.6540    0.8340   -0.2330 N   0  0  0  0  0  0  0  0  0  0  0  0
   -7.6380    1.7640    0.7270 C   0  0  0  0  0  0  0  0  0  0  0  0
   -8.7790    2.5640    1.0440 N   0  0  0  0  0  0  0  0  0  0  0  0
   -6.4870    1.9460    1.4200 N   0  0  0  0  0  0  0  0  0  0  0  0
   -5.3890    1.2150    1.1570 C   0  0  0  0  0  0  0  0  0  0  0  0
   -4.1930    1.4210    1.8960 N   0  0  0  0  0  0  0  0  0  0  0  0
   -5.4210    0.2580    0.1630 C   0  0  0  0  0  0  0  0  0  0  0  0
   -4.3650   -0.5100   -0.1560 N   0  0  0  0  0  0  0  0  0  0  0  0
   -0.9250   -1.5240   -0.5980 C   0  0  0  0  0  0  0  0  0  0  0  0
   -0.0830   -1.4050    0.5030 C   0  0  0  0  0  0  0  0  0  0  0  0
    1.1890   -0.9040    0.3400 C   0  0  0  0  0  0  0  0  0  0  0  0
    1.6700   -0.5110   -0.8870 C   0  0  0  0  0  0  0  0  0  0  0  0
    3.0370    0.0180   -1.0870 C   0  0  0  0  0  0  0  0  0  0  0  0
    3.3200    0.6220   -2.1530 O   0  0  0  0  0  0  0  0  0  0  0  0
    4.0580   -0.1270   -0.1170 N   0  0  0  0  0  0  0  0  0  0  0  0
    5.4200    0.3910   -0.2960 C   0  0  1  0  0  0  0  0  0  0  0  0
    5.8090    1.2730    0.8350 C   0  0  0  0  0  0  0  0  0  0  0  0
    7.1880    1.8210    0.6630 C   0  0  0  0  0  0  0  0  0  0  0  0
    7.5440    2.7310    1.8170 C   0  0  0  0  0  0  0  0  0  0  0  0
    7.0860    3.8940    1.8210 O   0  0  0  0  0  0  0  0  0  0  0  0
    8.3520    2.3110    2.8510 O   0  0  0  0  0  0  0  0  0  0  0  0
    6.3100   -0.7730   -0.4090 C   0  0  0  0  0  0  0  0  0  0  0  0
    5.8160   -1.9460   -0.2830 O   0  0  0  0  0  0  0  0  0  0  0  0
    7.6730   -0.7060   -0.6510 O   0  0  0  0  0  0  0  0  0  0  0  0
    0.8020   -0.6460   -1.9480 C   0  0  0  0  0  0  0  0  0  0  0  0
   -0.4810   -1.1390   -1.8510 C   0  0  0  0  0  0  0  0  0  0  0  0
  1  2  1  0
  2  3  1  0
  2 16  1  0
  3  4  1  0
  4  5  2  0
  4 15  1  0
  5  6  1  0
  6  7  2  0
  7  8  1  0
  7 14  1  0
  8  9  2  0
  9 10  1  0
  9 11  1  0
 11 12  2  0
 12 13  1  0
 12 14  1  0
 14 15  2  0
 16 17  2  0
 16 33  1  0
 17 18  1  0
 18 19  2  0
 19 20  1  0
 19 32  1  0
 20 21  2  0
 20 22  1  0
 22 23  1  0
 23 24  1  1
 23 29  1  0
 24 25  1  0
 25 26  1  0
 26 27  2  0
 26 28  1  0
 29 30  2  0
 29 31  1  0
 32 33  2  0
M  END
