
     RDKit          3D

 32 33  0  0  0  0  0  0  0  0999 V2000
    1.2620    4.1000    2.6490 C   0  0  0  0  0  0  0  0  0  0  0  0
    0.0160    3.9700    1.7280 C   0  0  0  0  0  0  0  0  0  0  0  0
    0.3220    3.1670    0.5430 C   0  0  0  0  0  0  0  0  0  0  0  0
    1.3030    3.7940   -0.3930 C   0  0  0  0  0  0  0  0  0  0  0  0
    2.6440    3.9280   -0.0060 N   0  0  0  0  0  0  0  0  0  0  0  0
    3.0260    5.3620   -0.1400 C   0  0  0  0  0  0  0  0  0  0  0  0
   -0.3200    2.1010    0.1950 C   0  0  0  0  0  0  0  0  0  0  0  0
    0.1330    1.3550   -0.9900 N   0  0  0  0  0  0  0  0  0  0  0  0
    1.4360    0.8120   -1.0870 C   0  0  0  0  0  0  0  0  0  0  0  0
    1.8710   -0.2410   -0.1230 C   0  0  0  0  0  0  0  0  0  0  0  0
    3.2770   -0.5530   -0.4830 N   0  0  1  0  0  0  0  0  0  0  0  0
    3.9680   -1.0160    0.7030 C   0  0  0  0  0  0  0  0  0  0  0  0
    3.7580   -2.4730    0.9830 C   0  0  0  0  0  0  0  0  0  0  0  0
    4.9520   -3.2450    0.4220 C   0  0  0  0  0  0  0  0  0  0  0  0
    4.6320   -3.4730   -1.0530 C   0  0  0  0  0  0  0  0  0  0  0  0
    4.6500   -2.1310   -1.7190 C   0  0  0  0  0  0  0  0  0  0  0  0
    3.2690   -1.5120   -1.5510 C   0  0  0  0  0  0  0  0  0  0  0  0
   -1.6770    1.7860    0.6120 C   0  0  0  0  0  0  0  0  0  0  0  0
   -2.2950    0.6640    0.3860 C   0  0  0  0  0  0  0  0  0  0  0  0
   -2.0540   -0.5620   -0.2380 C   0  0  0  0  0  0  0  0  0  0  0  0
   -1.0760   -0.9960   -0.8400 O   0  0  0  0  0  0  0  0  0  0  0  0
   -3.1600   -1.5580   -0.1920 N   0  0  0  0  0  0  0  0  0  0  0  0
   -2.9810   -2.8360   -0.8130 C   0  0  0  0  0  0  0  0  0  0  0  0
   -4.2130   -3.2560   -1.6010 C   0  0  1  0  0  0  0  0  0  0  0  0
   -4.3300   -4.7680   -1.6180 C   0  0  0  0  0  0  0  0  0  0  0  0
   -5.3640   -2.6520   -1.1150 O   0  0  0  0  0  0  0  0  0  0  0  0
   -5.3310   -2.4020    0.2380 C   0  0  2  0  0  0  0  0  0  0  0  0
   -6.7320   -2.1150    0.7190 C   0  0  0  0  0  0  0  0  0  0  0  0
   -4.3970   -1.2380    0.4710 C   0  0  0  0  0  0  0  0  0  0  0  0
   -2.6450    2.8350    1.1030 C   0  0  0  0  0  0  0  0  0  0  0  0
   -4.0240    2.3560    1.3180 N   0  0  0  0  0  0  0  0  0  0  0  0
   -2.5310    4.0040    1.3480 O   0  0  0  0  0  0  0  0  0  0  0  0
  1  2  1  0
  2  3  1  0
  3  4  1  0
  3  7  2  3
  4  5  1  0
  5  6  1  0
  7  8  1  0
  7 18  1  0
  8  9  1  0
  9 10  1  0
 11 10  1  1
 11 12  1  0
 11 17  1  0
 12 13  1  0
 13 14  1  0
 14 15  1  0
 15 16  1  0
 16 17  1  0
 18 19  2  3
 18 30  1  0
 19 20  1  0
 20 21  2  0
 20 22  1  0
 22 23  1  0
 22 29  1  0
 23 24  1  0
 24 25  1  1
 24 26  1  0
 26 27  1  0
 27 28  1  6
 27 29  1  0
 30 31  1  0
 30 32  2  0
M  CHG  2   5   1  11   1
M  END
