
     RDKit          3D

 33 36  0  0  0  0  0  0  0  0999 V2000
   -4.9920   -1.8170    3.5910 C   0  0  0  0  0  0  0  0  0  0  0  0
   -4.1450   -1.5450    2.5250 O   0  0  0  0  0  0  0  0  0  0  0  0
   -4.0070   -2.2000    1.3440 C   0  0  0  0  0  0  0  0  0  0  0  0
   -4.7000   -3.3090    0.9390 C   0  0  0  0  0  0  0  0  0  0  0  0
   -4.5130   -3.9280   -0.2730 C   0  0  0  0  0  0  0  0  0  0  0  0
   -3.5780   -3.4250   -1.1590 C   0  0  0  0  0  0  0  0  0  0  0  0
   -2.8840   -2.3130   -0.7520 C   0  0  0  0  0  0  0  0  0  0  0  0
   -3.0590   -1.6860    0.4530 C   0  0  0  0  0  0  0  0  0  0  0  0
   -2.3120   -0.5450    0.7840 N   0  0  0  0  0  0  0  0  0  0  0  0
   -1.2930   -0.0060   -0.0170 C   0  0  0  0  0  0  0  0  0  0  0  0
   -0.4130   -0.8330   -0.4770 N   0  0  0  0  0  0  0  0  0  0  0  0
    0.6690   -0.3820   -1.2910 C   0  0  0  0  0  0  0  0  0  0  0  0
    1.8980   -1.5210   -1.9220 S   0  0  0  0  0  0  0  0  0  0  0  0
    3.1360   -0.6040   -2.8600 C   0  0  0  0  0  0  0  0  0  0  0  0
    3.8300    0.3020   -1.9280 C   0  0  0  0  0  0  0  0  0  0  0  0
    3.5410    1.5290   -1.9230 O   0  0  0  0  0  0  0  0  0  0  0  0
    4.8030   -0.1730   -1.0430 N   0  0  0  0  0  0  0  0  0  0  0  0
    5.1640   -1.5640   -1.0130 C   0  0  0  0  0  0  0  0  0  0  0  0
    6.6560   -1.7630   -0.8340 C   0  0  0  0  0  0  0  0  0  0  0  0
    7.3100   -0.5390   -0.8360 O   0  0  0  0  0  0  0  0  0  0  0  0
    6.8480    0.3040    0.1540 C   0  0  1  0  0  0  0  0  0  0  0  0
    7.7490    1.5320    0.1740 C   0  0  0  0  0  0  0  0  0  0  0  0
    5.4540    0.7460   -0.1340 C   0  0  0  0  0  0  0  0  0  0  0  0
    0.8070    0.8650   -1.5920 N   0  0  0  0  0  0  0  0  0  0  0  0
   -0.0840    1.8770   -1.1520 C   0  0  0  0  0  0  0  0  0  0  0  0
    0.0440    3.0830   -1.4350 O   0  0  0  0  0  0  0  0  0  0  0  0
   -1.2210    1.4310   -0.3060 C   0  0  0  0  0  0  0  0  0  0  0  0
   -2.1370    2.2720    0.0430 C   0  0  0  0  0  0  0  0  0  0  0  0
   -3.3810    2.1830    0.7180 C   0  0  0  0  0  0  0  0  0  0  0  0
   -4.1270    3.2970    0.9620 C   0  0  0  0  0  0  0  0  0  0  0  0
   -3.5920    4.5970    0.4980 C   0  0  0  0  0  0  0  0  0  0  0  0
   -5.4220    3.2320    1.6600 C   0  0  0  0  0  0  0  0  0  0  0  0
   -4.3530   -4.6250   -1.5520 C   0  0  0  0  0  0  0  0  0  0  0  0
  1  2  1  0
  2  3  1  0
  3  4  2  0
  3  8  1  0
  4  5  1  0
  5  6  2  0
  5 33  1  0
  6  7  1  0
  6 33  1  0
  7  8  2  0
  8  9  1  0
  9 10  1  0
 10 11  2  0
 10 27  1  0
 11 12  1  0
 12 13  1  0
 12 24  2  0
 13 14  1  0
 14 15  1  0
 15 16  2  0
 15 17  1  0
 17 18  1  0
 17 23  1  0
 18 19  1  0
 19 20  1  0
 20 21  1  0
 21 22  1  6
 21 23  1  0
 24 25  1  0
 25 26  2  0
 25 27  1  0
 27 28  2  3
 28 29  1  0
 29 30  2  3
 30 31  1  0
 30 32  1  0
M  END
