
     RDKit          3D

 32 34  0  0  0  0  0  0  0  0999 V2000
  -10.5250    0.4510   -0.3270 N   0  0  0  0  0  0  0  0  0  0  0  0
   -9.1010    0.3620   -0.2760 C   0  0  0  0  0  0  0  0  0  0  0  0
   -8.3850   -0.0190   -1.3470 N   0  0  0  0  0  0  0  0  0  0  0  0
   -7.0260   -0.1040   -1.3070 C   0  0  0  0  0  0  0  0  0  0  0  0
   -6.2810   -0.5070   -2.4470 N   0  0  0  0  0  0  0  0  0  0  0  0
   -6.3330    0.2010   -0.1540 C   0  0  0  0  0  0  0  0  0  0  0  0
   -4.9870    0.1100   -0.1450 N   0  0  0  0  0  0  0  0  0  0  0  0
   -4.3090    0.4160    0.9990 C   0  0  0  0  0  0  0  0  0  0  0  0
   -2.8290    0.3330    1.0670 C   0  0  0  0  0  0  0  0  0  0  0  0
   -2.3390   -0.5280   -0.0060 N   0  0  0  0  0  0  0  0  0  0  0  0
   -0.9420   -0.7040   -0.1430 C   0  0  0  0  0  0  0  0  0  0  0  0
   -0.0510    0.0150    0.6430 C   0  0  0  0  0  0  0  0  0  0  0  0
    1.3120   -0.1580    0.5150 C   0  0  0  0  0  0  0  0  0  0  0  0
    1.8320   -1.0450   -0.3940 C   0  0  0  0  0  0  0  0  0  0  0  0
    3.2780   -1.1980   -0.5110 C   0  0  0  0  0  0  0  0  0  0  0  0
    3.7250   -2.2560   -0.9720 O   0  0  0  0  0  0  0  0  0  0  0  0
    4.1650   -0.1950   -0.1230 N   0  0  0  0  0  0  0  0  0  0  0  0
    5.6280   -0.2750   -0.2030 C   0  0  1  0  0  0  0  0  0  0  0  0
    6.1520    0.5940   -1.2730 C   0  0  0  0  0  0  0  0  0  0  0  0
    7.6380    0.6280   -1.3590 C   0  0  0  0  0  0  0  0  0  0  0  0
    8.3280    1.2980   -0.2480 C   0  0  0  0  0  0  0  0  0  0  0  0
    7.7320    2.0380    0.5830 O   0  0  0  0  0  0  0  0  0  0  0  0
    9.6810    1.1160   -0.1010 O   0  0  0  0  0  0  0  0  0  0  0  0
    6.1810   -0.2220    1.1330 C   0  0  0  0  0  0  0  0  0  0  0  0
    5.5400    0.2270    2.1500 O   0  0  0  0  0  0  0  0  0  0  0  0
    7.4800   -0.6650    1.4730 O   0  0  0  0  0  0  0  0  0  0  0  0
    0.9720   -1.7690   -1.1840 C   0  0  0  0  0  0  0  0  0  0  0  0
   -0.3860   -1.5980   -1.0560 C   0  0  0  0  0  0  0  0  0  0  0  0
   -5.0470    0.8070    2.0960 C   0  0  0  0  0  0  0  0  0  0  0  0
   -6.3920    0.8910    2.0640 N   0  0  0  0  0  0  0  0  0  0  0  0
   -7.0830    0.5900    0.9340 C   0  0  0  0  0  0  0  0  0  0  0  0
   -8.4170    0.6610    0.8530 N   0  0  0  0  0  0  0  0  0  0  0  0
  1  2  1  0
  2  3  2  0
  2 32  1  0
  3  4  1  0
  4  5  1  0
  4  6  2  0
  6  7  1  0
  6 31  1  0
  7  8  2  0
  8  9  1  0
  8 29  1  0
  9 10  1  0
 10 11  1  0
 11 12  2  0
 11 28  1  0
 12 13  1  0
 13 14  2  0
 14 15  1  0
 14 27  1  0
 15 16  2  0
 15 17  1  0
 17 18  1  0
 18 19  1  6
 18 24  1  0
 19 20  1  0
 20 21  1  0
 21 22  2  0
 21 23  1  0
 24 25  2  0
 24 26  1  0
 27 28  2  0
 29 30  2  0
 30 31  1  0
 31 32  2  0
M  END
