
     RDKit          3D

 33 36  0  0  0  0  0  0  0  0999 V2000
   -5.6170   -3.1530   -2.7360 C   0  0  0  0  0  0  0  0  0  0  0  0
   -4.7740   -3.0310   -1.5010 C   0  0  0  0  0  0  0  0  0  0  0  0
   -5.1560   -3.5870   -0.4500 O   0  0  0  0  0  0  0  0  0  0  0  0
   -3.5490   -2.3030   -1.4730 N   0  0  0  0  0  0  0  0  0  0  0  0
   -2.7890   -2.2190   -0.2890 N   0  0  0  0  0  0  0  0  0  0  0  0
   -1.4400   -1.8350   -0.2370 C   0  0  0  0  0  0  0  0  0  0  0  0
   -0.5200   -2.7610   -0.4150 N   0  0  0  0  0  0  0  0  0  0  0  0
    0.7720   -2.4580   -0.3780 C   0  0  0  0  0  0  0  0  0  0  0  0
    1.6080   -3.3550   -0.5530 O   0  0  0  0  0  0  0  0  0  0  0  0
    1.1580   -1.1340   -0.1390 C   0  0  0  0  0  0  0  0  0  0  0  0
    0.1940   -0.1250    0.0650 C   0  0  0  0  0  0  0  0  0  0  0  0
   -1.1370   -0.4590    0.0060 C   0  0  0  0  0  0  0  0  0  0  0  0
   -2.2670    0.4090    0.1550 C   0  0  0  0  0  0  0  0  0  0  0  0
   -3.3710   -0.1350    0.5390 O   0  0  0  0  0  0  0  0  0  0  0  0
   -2.3550    1.7620   -0.0830 N   0  0  0  0  0  0  0  0  0  0  0  0
   -3.5950    2.4860    0.1550 C   0  0  1  0  0  0  0  0  0  0  0  0
   -3.5910    3.9090    0.5330 C   0  0  0  0  0  0  0  0  0  0  0  0
   -3.9340    3.5500   -0.9060 C   0  0  0  0  0  0  0  0  0  0  0  0
    0.8700    1.0960    0.5470 C   0  0  0  0  0  0  0  0  0  0  0  0
    0.3120    2.3510    1.0970 C   0  0  0  0  0  0  0  0  0  0  0  0
    2.1680    0.8160    0.5740 C   0  0  0  0  0  0  0  0  0  0  0  0
    3.1320    1.8320    1.0490 C   0  0  0  0  0  0  0  0  0  0  0  0
    2.8720    3.2210    0.6940 C   0  0  0  0  0  0  0  0  0  0  0  0
    4.2270    1.5580    1.7990 C   0  0  0  0  0  0  0  0  0  0  0  0
    4.6450    0.2170    2.2670 C   0  0  0  0  0  0  0  0  0  0  0  0
    4.3760   -0.9260    1.6370 C   0  0  0  0  0  0  0  0  0  0  0  0
    3.6410   -1.1490    0.3850 C   0  0  0  0  0  0  0  0  0  0  0  0
    4.1810   -2.0540   -0.4170 C   0  0  0  0  0  0  0  0  0  0  0  0
    5.4280   -2.7740   -0.0490 C   0  0  1  0  0  0  0  0  0  0  0  0
    6.3780   -1.8550    0.4180 F   0  0  0  0  0  0  0  0  0  0  0  0
    5.2390   -3.7010    0.9520 F   0  0  0  0  0  0  0  0  0  0  0  0
    6.0230   -3.3700   -1.1490 F   0  0  0  0  0  0  0  0  0  0  0  0
    2.4580   -0.4880   -0.0750 C   0  0  1  0  0  0  0  0  0  0  0  0
  1  2  1  0
  2  3  2  0
  2  4  1  0
  4  5  1  0
  5  6  1  0
  6  7  1  0
  6 12  2  0
  7  8  1  0
  8  9  2  0
  8 10  1  0
 10 11  2  0
 10 33  1  0
 11 12  1  0
 11 19  1  0
 12 13  1  0
 13 14  2  0
 13 15  1  0
 16 15  1  6
 16 17  1  0
 16 18  1  0
 17 18  1  0
 19 20  1  0
 19 21  2  0
 21 22  1  0
 21 33  1  0
 22 23  1  0
 22 24  2  0
 24 25  1  0
 25 26  2  0
 26 27  1  0
 27 28  2  3
 33 27  1  1
 28 29  1  0
 29 30  1  1
 29 31  1  0
 29 32  1  0
M  END
