
     RDKit          3D

 33 36  0  0  0  0  0  0  0  0999 V2000
    9.5770   -0.0700   -2.3950 C   0  0  0  0  0  0  0  0  0  0  0  0
    8.6310   -0.0660   -1.2550 C   0  0  0  0  0  0  0  0  0  0  0  0
    9.0230   -0.0750    0.0700 C   0  0  0  0  0  0  0  0  0  0  0  0
    7.8940   -0.0680    0.7980 N   0  0  0  0  0  0  0  0  0  0  0  0
    6.8110   -0.0540    0.0020 C   0  0  0  0  0  0  0  0  0  0  0  0
    5.4330   -0.0430    0.2530 C   0  0  0  0  0  0  0  0  0  0  0  0
    4.4750   -0.0300   -0.7280 C   0  0  0  0  0  0  0  0  0  0  0  0
    3.0790   -0.0190   -0.5300 N   0  0  0  0  0  0  0  0  0  0  0  0
    2.4390   -0.0160    0.7200 C   0  0  0  0  0  0  0  0  0  0  0  0
    3.0860   -0.0250    1.7720 O   0  0  0  0  0  0  0  0  0  0  0  0
    0.9590   -0.0040    0.8060 C   0  0  0  0  0  0  0  0  0  0  0  0
    0.2850    0.0040   -0.2470 O   0  0  0  0  0  0  0  0  0  0  0  0
    0.3590   -0.0010    2.0660 N   0  0  0  0  0  0  0  0  0  0  0  0
   -1.0250    0.0100    2.3380 C   0  0  0  0  0  0  0  0  0  0  0  0
   -2.0000    0.0230    1.3800 C   0  0  0  0  0  0  0  0  0  0  0  0
   -3.3740    0.0340    1.6920 C   0  0  0  0  0  0  0  0  0  0  0  0
   -4.3420    0.0610    0.6020 C   0  0  0  0  0  0  0  0  0  0  0  0
   -3.9020   -0.0730   -0.5820 O   0  0  0  0  0  0  0  0  0  0  0  0
   -5.7190    0.2210    0.7290 N   0  0  0  0  0  0  0  0  0  0  0  0
   -6.6400    0.2380   -0.3980 C   0  0  1  0  0  0  0  0  0  0  0  0
   -6.3760    1.3390   -1.4000 C   0  0  0  0  0  0  0  0  0  0  0  0
   -6.7870   -1.0940   -1.0950 C   0  0  0  0  0  0  0  0  0  0  0  0
   -8.2790   -0.8350   -1.1600 C   0  0  0  0  0  0  0  0  0  0  0  0
   -8.1000    0.1430   -0.0170 C   0  0  0  0  0  0  0  0  0  0  0  0
   -3.7220    0.0320    3.0140 C   0  0  0  0  0  0  0  0  0  0  0  0
   -5.0160    0.0340    3.4090 F   0  0  0  0  0  0  0  0  0  0  0  0
   -2.7610    0.0190    4.0330 C   0  0  0  0  0  0  0  0  0  0  0  0
   -1.4310    0.0080    3.6780 C   0  0  0  0  0  0  0  0  0  0  0  0
   -0.4610   -0.0040    4.6320 F   0  0  0  0  0  0  0  0  0  0  0  0
    4.9660   -0.0290   -2.0510 C   0  0  0  0  0  0  0  0  0  0  0  0
    4.0430   -0.0160   -3.0580 F   0  0  0  0  0  0  0  0  0  0  0  0
    6.3130   -0.0400   -2.3060 C   0  0  0  0  0  0  0  0  0  0  0  0
    7.2520   -0.0530   -1.2970 C   0  0  0  0  0  0  0  0  0  0  0  0
  1  2  1  0
  2  3  2  0
  2 33  1  0
  3  4  1  0
  4  5  1  0
  5  6  2  0
  5 33  1  0
  6  7  1  0
  7  8  1  0
  7 30  2  0
  8  9  1  0
  9 10  2  0
  9 11  1  0
 11 12  2  0
 11 13  1  0
 13 14  1  0
 14 15  2  0
 14 28  1  0
 15 16  1  0
 16 17  1  0
 16 25  2  0
 17 18  2  0
 17 19  1  0
 19 20  1  0
 20 21  1  6
 20 22  1  0
 20 24  1  0
 22 23  1  0
 23 24  1  0
 25 26  1  0
 25 27  1  0
 27 28  2  0
 28 29  1  0
 30 31  1  0
 30 32  1  0
 32 33  2  0
M  END
