
     RDKit          3D

 33 36  0  0  0  0  0  0  0  0999 V2000
   -8.2240    0.0220    0.3760 C   0  0  0  0  0  0  0  0  0  0  0  0
   -6.8060   -0.4440    0.1710 C   0  0  0  0  0  0  0  0  0  0  0  0
   -6.6680   -1.6540   -0.0620 O   0  0  0  0  0  0  0  0  0  0  0  0
   -5.7470    0.4720    0.2500 N   0  0  0  0  0  0  0  0  0  0  0  0
   -4.3600    0.1820    0.0860 C   0  0  0  0  0  0  0  0  0  0  0  0
   -3.9560   -1.1200    0.0280 C   0  0  0  0  0  0  0  0  0  0  0  0
   -2.5850   -1.3850   -0.0700 C   0  0  0  0  0  0  0  0  0  0  0  0
   -2.1740   -2.6670   -0.1280 N   0  0  0  0  0  0  0  0  0  0  0  0
   -0.8690   -2.9310   -0.2200 C   0  0  0  0  0  0  0  0  0  0  0  0
   -0.4940   -4.1250   -0.2730 O   0  0  0  0  0  0  0  0  0  0  0  0
    0.0950   -1.9520   -0.2590 C   0  0  0  0  0  0  0  0  0  0  0  0
    1.4430   -2.2360   -0.3520 C   0  0  0  0  0  0  0  0  0  0  0  0
    2.4260   -1.2530   -0.3900 C   0  0  0  0  0  0  0  0  0  0  0  0
    3.8370   -1.6760   -0.4900 C   0  0  0  0  0  0  0  0  0  0  0  0
    4.7900   -0.6590   -0.1360 N   0  0  0  0  0  0  0  0  0  0  0  0
    6.1650   -1.0230   -0.2330 C   0  0  0  0  0  0  0  0  0  0  0  0
    6.5070   -2.1730   -0.6110 O   0  0  0  0  0  0  0  0  0  0  0  0
    7.1960   -0.0430    0.1130 C   0  0  0  0  0  0  0  0  0  0  0  0
    8.5570   -0.2450    0.0690 C   0  0  0  0  0  0  0  0  0  0  0  0
    9.2040    0.9090    0.4680 C   0  0  0  0  0  0  0  0  0  0  0  0
    8.1780    1.8080    0.7520 C   0  0  0  0  0  0  0  0  0  0  0  0
    6.9920    1.2120    0.5310 N   0  0  0  0  0  0  0  0  0  0  0  0
    1.9950    0.0520   -0.3300 C   0  0  0  0  0  0  0  0  0  0  0  0
    0.6490    0.3820   -0.2370 C   0  0  0  0  0  0  0  0  0  0  0  0
   -0.2970   -0.6180   -0.2010 C   0  0  0  0  0  0  0  0  0  0  0  0
   -1.6600   -0.3490   -0.1060 C   0  0  0  0  0  0  0  0  0  0  0  0
   -2.1000    0.9500   -0.0450 C   0  0  0  0  0  0  0  0  0  0  0  0
   -3.4700    1.2350    0.0510 C   0  0  0  0  0  0  0  0  0  0  0  0
   -3.8950    2.6620    0.0610 C   0  0  0  0  0  0  0  0  0  0  0  0
   -4.3210    3.1730   -1.2810 C   0  0  2  0  0  0  0  0  0  0  0  0
   -3.2370    3.0580   -2.1680 F   0  0  0  0  0  0  0  0  0  0  0  0
   -4.6160    4.5190   -1.1260 F   0  0  0  0  0  0  0  0  0  0  0  0
   -5.4190    2.5510   -1.7990 F   0  0  0  0  0  0  0  0  0  0  0  0
  1  2  1  0
  2  3  2  0
  2  4  1  0
  4  5  1  0
  5  6  2  0
  5 28  1  0
  6  7  1  0
  7  8  1  0
  7 26  2  0
  8  9  1  0
  9 10  2  0
  9 11  1  0
 11 12  2  0
 11 25  1  0
 12 13  1  0
 13 14  1  0
 13 23  2  0
 14 15  1  0
 15 16  1  0
 16 17  2  0
 16 18  1  0
 18 19  2  0
 18 22  1  0
 19 20  1  0
 20 21  2  0
 21 22  1  0
 23 24  1  0
 24 25  2  0
 25 26  1  0
 26 27  1  0
 27 28  2  0
 28 29  1  0
 29 30  1  0
 30 31  1  6
 30 32  1  0
 30 33  1  0
M  END
