
     RDKit          3D

 33 36  0  0  0  0  0  0  0  0999 V2000
    4.4580    0.8030   -0.7900 C   0  0  0  0  0  0  0  0  0  0  0  0
    4.4330    0.9750    0.7040 C   0  0  0  0  0  0  0  0  0  0  0  0
    3.8060   -0.1890    1.4260 C   0  0  2  0  0  0  0  0  0  0  0  0
    4.5680   -1.4700    1.1570 C   0  0  0  0  0  0  0  0  0  0  0  0
    3.9770   -2.5490    1.9960 C   0  0  0  0  0  0  0  0  0  0  0  0
    4.5600   -3.2080    2.8610 O   0  0  0  0  0  0  0  0  0  0  0  0
    2.5970   -2.8000    1.7280 N   0  0  0  0  0  0  0  0  0  0  0  0
    1.8290   -1.6620    1.2750 C   0  0  0  0  0  0  0  0  0  0  0  0
    0.4910   -1.8300    0.9810 C   0  0  0  0  0  0  0  0  0  0  0  0
   -0.2690   -0.7680    0.5360 C   0  0  0  0  0  0  0  0  0  0  0  0
   -1.6820   -1.0400    0.2900 C   0  0  0  0  0  0  0  0  0  0  0  0
   -2.6930   -0.3100    0.8640 C   0  0  0  0  0  0  0  0  0  0  0  0
   -4.0350   -0.6210    0.6230 C   0  0  0  0  0  0  0  0  0  0  0  0
   -5.0110    0.1150    1.2000 F   0  0  0  0  0  0  0  0  0  0  0  0
   -4.4030   -1.6680   -0.1950 C   0  0  0  0  0  0  0  0  0  0  0  0
   -5.8440   -1.9810   -0.4370 C   0  0  2  0  0  0  0  0  0  0  0  0
   -6.1480   -3.2700   -0.0460 F   0  0  0  0  0  0  0  0  0  0  0  0
   -6.0610   -1.8400   -1.7950 F   0  0  0  0  0  0  0  0  0  0  0  0
   -3.3910   -2.4020   -0.7710 C   0  0  0  0  0  0  0  0  0  0  0  0
   -3.4740   -3.4850   -1.6200 C   0  0  0  0  0  0  0  0  0  0  0  0
   -2.1590   -3.8250   -1.8910 C   0  0  0  0  0  0  0  0  0  0  0  0
   -1.3270   -2.9720   -1.2250 N   0  0  0  0  0  0  0  0  0  0  0  0
   -2.0710   -2.0950   -0.5340 C   0  0  0  0  0  0  0  0  0  0  0  0
    0.3110    0.4940    0.3760 C   0  0  0  0  0  0  0  0  0  0  0  0
   -0.5150    1.5080   -0.1320 N   0  0  0  0  0  0  0  0  0  0  0  0
   -0.1450    2.8560   -0.2370 C   0  0  0  0  0  0  0  0  0  0  0  0
    0.9740    3.2810    0.1250 O   0  0  0  0  0  0  0  0  0  0  0  0
   -1.1090    3.8250   -0.7960 C   0  0  0  0  0  0  0  0  0  0  0  0
   -2.2310    3.4500   -1.1730 O   0  0  0  0  0  0  0  0  0  0  0  0
   -0.7670    5.1870   -0.9080 N   0  0  0  0  0  0  0  0  0  0  0  0
   -1.6650    6.1990   -1.4480 C   0  0  0  0  0  0  0  0  0  0  0  0
    1.6310    0.6700    0.6630 C   0  0  0  0  0  0  0  0  0  0  0  0
    2.3830   -0.4120    1.1130 C   0  0  0  0  0  0  0  0  0  0  0  0
  1  2  1  0
  3  2  1  6
  3  4  1  0
  3 33  1  0
  4  5  1  0
  5  6  2  0
  5  7  1  0
  7  8  1  0
  8  9  2  0
  8 33  1  0
  9 10  1  0
 10 11  1  0
 10 24  2  0
 11 12  2  0
 11 23  1  0
 12 13  1  0
 13 14  1  0
 13 15  2  0
 15 16  1  0
 15 19  1  0
 16 17  1  6
 16 18  1  0
 19 20  1  0
 19 23  2  0
 20 21  2  0
 21 22  1  0
 22 23  1  0
 24 25  1  0
 24 32  1  0
 25 26  1  0
 26 27  2  0
 26 28  1  0
 28 29  2  0
 28 30  1  0
 30 31  1  0
 32 33  2  0
M  END
