
     RDKit          3D

 33 36  0  0  0  0  0  0  0  0999 V2000
   -2.2910   -3.3030    2.8630 C   0  0  0  0  0  0  0  0  0  0  0  0
   -2.1890   -1.9000    3.0820 O   0  0  0  0  0  0  0  0  0  0  0  0
   -2.4410   -0.9850    2.0860 C   0  0  0  0  0  0  0  0  0  0  0  0
   -2.3260    0.3590    2.3580 C   0  0  0  0  0  0  0  0  0  0  0  0
   -2.5700    1.3160    1.3870 C   0  0  0  0  0  0  0  0  0  0  0  0
   -2.9370    0.9450    0.1100 C   0  0  0  0  0  0  0  0  0  0  0  0
   -3.1970    1.9730   -0.8880 C   0  0  0  0  0  0  0  0  0  0  0  0
   -4.2720    2.7590   -0.8520 O   0  0  0  0  0  0  0  0  0  0  0  0
   -4.2590    3.5980   -1.8740 C   0  0  0  0  0  0  0  0  0  0  0  0
   -5.2590    4.6100   -2.1780 C   0  0  0  0  0  0  0  0  0  0  0  0
   -6.4050    4.7940   -1.3610 N   0  0  0  0  0  0  0  0  0  0  0  0
   -5.1190    5.3470   -3.1870 O   0  0  0  0  0  0  0  0  0  0  0  0
   -3.1020    3.3210   -2.5970 C   0  0  0  0  0  0  0  0  0  0  0  0
   -2.4470    2.2970   -1.9630 C   0  0  0  0  0  0  0  0  0  0  0  0
   -1.1550    1.6830   -2.3860 C   0  0  0  0  0  0  0  0  0  0  0  0
   -0.3390    1.7310   -3.2090 N   0  0  0  0  0  0  0  0  0  0  0  0
    0.7650    1.0310   -3.3470 C   0  0  0  0  0  0  0  0  0  0  0  0
    1.6650    1.1550   -4.3440 C   0  0  0  0  0  0  0  0  0  0  0  0
    1.4630    2.3160   -5.6340 Cl  0  0  0  0  0  0  0  0  0  0  0  0
    0.9730    0.0980   -2.3530 C   0  0  0  0  0  0  0  0  0  0  0  0
    1.9630   -0.7630   -2.1810 C   0  0  0  0  0  0  0  0  0  0  0  0
    1.9920   -1.6520   -1.0750 N   0  0  0  0  0  0  0  0  0  0  0  0
    3.0240   -1.6180   -0.0960 C   0  0  0  0  0  0  0  0  0  0  0  0
    4.0200   -0.6620   -0.2690 C   0  0  0  0  0  0  0  0  0  0  0  0
    5.0200   -0.6200    0.6670 C   0  0  0  0  0  0  0  0  0  0  0  0
    5.0170   -1.4980    1.7250 C   0  0  0  0  0  0  0  0  0  0  0  0
    6.1190   -1.4210    2.7170 C   0  0  0  0  0  0  0  0  0  0  0  0
    4.0090   -2.4430    1.8740 C   0  0  0  0  0  0  0  0  0  0  0  0
    4.0360   -3.3720    3.0260 C   0  0  0  0  0  0  0  0  0  0  0  0
    3.0530   -2.4590    0.9500 N   0  0  0  0  0  0  0  0  0  0  0  0
   -0.4370    0.3110   -1.3080 S   0  0  0  0  0  0  0  0  0  0  0  0
   -3.0500   -0.3920   -0.1560 C   0  0  0  0  0  0  0  0  0  0  0  0
   -2.8100   -1.3400    0.8010 C   0  0  0  0  0  0  0  0  0  0  0  0
  1  2  1  0
  2  3  1  0
  3  4  2  0
  3 33  1  0
  4  5  1  0
  5  6  2  0
  6  7  1  0
  6 32  1  0
  7  8  1  0
  7 14  2  0
  8  9  1  0
  9 10  1  0
  9 13  2  0
 10 11  1  0
 10 12  2  0
 13 14  1  0
 14 15  1  0
 15 16  2  0
 15 31  1  0
 16 17  1  0
 17 18  2  3
 17 20  1  0
 18 19  1  0
 20 21  2  3
 20 31  1  0
 21 22  1  0
 22 23  1  0
 23 24  2  0
 23 30  1  0
 24 25  1  0
 25 26  2  0
 26 27  1  0
 26 28  1  0
 28 29  1  0
 28 30  2  0
 32 33  2  0
M  END
