
     RDKit          3D

 33 36  0  0  0  0  0  0  0  0999 V2000
    3.7060   -1.3790    1.0980 C   0  0  0  0  0  0  0  0  0  0  0  0
    3.1580   -0.2280    0.3510 C   0  0  0  0  0  0  0  0  0  0  0  0
    1.7790    0.0480    0.1700 C   0  0  0  0  0  0  0  0  0  0  0  0
    0.7470   -0.7790    0.7330 C   0  0  0  0  0  0  0  0  0  0  0  0
    1.1070   -1.8390    1.3420 O   0  0  0  0  0  0  0  0  0  0  0  0
   -0.6710   -0.5590    0.6960 N   0  0  0  0  0  0  0  0  0  0  0  0
   -1.5150   -1.5710    1.3000 C   0  0  0  0  0  0  0  0  0  0  0  0
   -2.8990   -1.1800    1.6210 C   0  0  0  0  0  0  0  0  0  0  0  0
   -3.4870   -0.3220    0.4990 C   0  0  1  0  0  0  0  0  0  0  0  0
   -3.4910   -1.0760   -0.8010 C   0  0  0  0  0  0  0  0  0  0  0  0
   -4.1870   -0.3690   -1.9050 C   0  0  0  0  0  0  0  0  0  0  0  0
   -5.1320    0.7090   -1.5200 C   0  0  0  0  0  0  0  0  0  0  0  0
   -5.7670    0.6090   -0.1810 C   0  0  2  0  0  0  0  0  0  0  0  0
   -6.8930   -0.2370   -0.2380 F   0  0  0  0  0  0  0  0  0  0  0  0
   -6.2430    1.8350    0.2650 F   0  0  0  0  0  0  0  0  0  0  0  0
   -4.8610    0.0310    0.8320 C   0  0  0  0  0  0  0  0  0  0  0  0
   -5.3350   -0.1840    2.0640 C   0  0  0  0  0  0  0  0  0  0  0  0
   -6.7020    0.1630    2.4180 C   0  0  0  0  0  0  0  0  0  0  0  0
   -7.1310   -0.0530    3.5910 O   0  0  0  0  0  0  0  0  0  0  0  0
   -2.6190    0.9020    0.4290 C   0  0  0  0  0  0  0  0  0  0  0  0
   -1.1750    0.6220    0.1030 C   0  0  0  0  0  0  0  0  0  0  0  0
    1.7780    1.1640   -0.5530 N   0  0  0  0  0  0  0  0  0  0  0  0
    3.0530    1.5630   -0.8070 C   0  0  0  0  0  0  0  0  0  0  0  0
    3.4240    2.5780   -1.4620 O   0  0  0  0  0  0  0  0  0  0  0  0
    3.9000    0.7000   -0.2470 N   0  0  0  0  0  0  0  0  0  0  0  0
    5.3220    0.7480   -0.2750 C   0  0  0  0  0  0  0  0  0  0  0  0
    5.9980    1.7180    0.4720 C   0  0  0  0  0  0  0  0  0  0  0  0
    7.3640    1.7920    0.4690 C   0  0  0  0  0  0  0  0  0  0  0  0
    8.0800    0.8910   -0.2860 C   0  0  0  0  0  0  0  0  0  0  0  0
    9.4230    0.9670   -0.2870 F   0  0  0  0  0  0  0  0  0  0  0  0
    7.4600   -0.0780   -1.0350 C   0  0  0  0  0  0  0  0  0  0  0  0
    6.0680   -0.1360   -1.0170 C   0  0  0  0  0  0  0  0  0  0  0  0
    5.3670   -1.1170   -1.7720 N   0  0  0  0  0  0  0  0  0  0  0  0
  1  2  1  0
  2  3  2  0
  2 25  1  0
  3  4  1  0
  3 22  1  0
  4  5  2  0
  4  6  1  0
  6  7  1  0
  6 21  1  0
  7  8  1  0
  9  8  1  1
  9 10  1  0
  9 16  1  0
  9 20  1  0
 10 11  1  0
 11 12  1  0
 12 13  1  0
 13 14  1  6
 13 15  1  0
 13 16  1  0
 16 17  2  3
 17 18  1  0
 18 19  2  0
 20 21  1  0
 22 23  1  0
 23 24  2  0
 23 25  1  0
 25 26  1  0
 26 27  2  0
 26 32  1  0
 27 28  1  0
 28 29  2  0
 29 30  1  0
 29 31  1  0
 31 32  2  0
 32 33  1  0
M  END
