
     RDKit          3D

 23 24  0  0  0  0  0  0  0  0999 V2000
   -5.1310    1.7680   -2.1860 C   0  0  0  0  0  0  0  0  0  0  0  0
   -6.1830    1.0840   -1.4010 C   0  0  0  0  0  0  0  0  0  0  0  0
   -7.3770    1.3540   -1.6570 O   0  0  0  0  0  0  0  0  0  0  0  0
   -5.8370    0.1040   -0.3390 C   0  0  0  0  0  0  0  0  0  0  0  0
   -6.8360   -0.5200    0.3790 C   0  0  0  0  0  0  0  0  0  0  0  0
   -5.8920   -1.5920    1.5210 S   0  0  0  0  0  0  0  0  0  0  0  0
   -4.2490   -0.9940    0.8100 C   0  0  0  0  0  0  0  0  0  0  0  0
   -3.0420   -1.5740    1.4060 N   0  0  0  0  0  0  0  0  0  0  0  0
   -1.7710   -1.1740    0.9250 C   0  0  0  0  0  0  0  0  0  0  0  0
   -1.7780   -0.3140   -0.0180 O   0  0  0  0  0  0  0  0  0  0  0  0
   -0.5220   -1.6770    1.4340 C   0  0  0  0  0  0  0  0  0  0  0  0
   -0.5010   -2.5290    2.3660 O   0  0  0  0  0  0  0  0  0  0  0  0
    0.6960   -1.2190    0.8910 N   0  0  0  0  0  0  0  0  0  0  0  0
    1.9840   -1.6880    1.3610 C   0  0  0  0  0  0  0  0  0  0  0  0
    3.0650   -1.0360    0.6100 C   0  0  0  0  0  0  0  0  0  0  0  0
    3.6950   -1.3220   -0.5600 C   0  0  0  0  0  0  0  0  0  0  0  0
    4.6750   -0.5060   -0.9860 C   0  0  0  0  0  0  0  0  0  0  0  0
    5.0030    0.5640   -0.2500 C   0  0  0  0  0  0  0  0  0  0  0  0
    6.0140    1.6310   -0.4430 C   0  0  0  0  0  0  0  0  0  0  0  0
    5.9810    2.6270    0.7010 C   0  0  0  0  0  0  0  0  0  0  0  0
    6.3280    1.7540    2.2090 Cl  0  0  0  0  0  0  0  0  0  0  0  0
    3.9230    0.4760    1.1160 S   0  0  0  0  0  0  0  0  0  0  0  0
   -4.6230   -0.2540    0.0120 N   0  0  0  0  0  0  0  0  0  0  0  0
  1  2  1  0
  2  3  2  0
  2  4  1  0
  4  5  2  0
  4 23  1  0
  5  6  1  0
  6  7  1  0
  7  8  1  0
  7 23  2  0
  8  9  1  0
  9 10  2  0
  9 11  1  0
 11 12  2  0
 11 13  1  0
 13 14  1  0
 14 15  1  0
 15 16  2  0
 15 22  1  0
 16 17  1  0
 17 18  2  0
 18 19  1  0
 18 22  1  0
 19 20  1  0
 20 21  1  0
M  END
