
     RDKit          3D

 23 24  0  0  0  0  0  0  0  0999 V2000
   -4.7890    1.8560    0.3930 C   0  0  0  0  0  0  0  0  0  0  0  0
   -5.0590    0.3780    0.5710 C   0  0  0  0  0  0  0  0  0  0  0  0
   -4.1590   -0.5700    0.7110 C   0  0  0  0  0  0  0  0  0  0  0  0
   -2.4200   -0.2260    0.7100 S   0  0  2  0  0  0  0  0  0  0  0  0
   -1.7740   -1.2720    1.5590 O   0  0  0  0  0  0  0  0  0  0  0  0
   -2.2330    1.1480    1.2830 O   0  0  0  0  0  0  0  0  0  0  0  0
   -1.9150   -0.3320   -0.9810 C   0  0  0  0  0  0  0  0  0  0  0  0
   -0.4570   -0.0980   -1.2180 C   0  0  0  0  0  0  0  0  0  0  0  0
   -0.0110    1.2520   -0.7830 C   0  0  0  0  0  0  0  0  0  0  0  0
    1.3920    1.4910   -1.0340 N   0  0  0  0  0  0  0  0  0  0  0  0
    2.4100    0.6830   -0.4460 C   0  0  0  0  0  0  0  0  0  0  0  0
    2.1380   -0.2670    0.3130 O   0  0  0  0  0  0  0  0  0  0  0  0
    3.7420    1.0010   -0.7580 N   0  0  0  0  0  0  0  0  0  0  0  0
    4.8810    0.2490   -0.2200 C   0  0  0  0  0  0  0  0  0  0  0  0
    6.0240    0.1850   -0.2220 N   0  0  0  0  0  0  0  0  0  0  0  0
    6.8320   -0.6540    0.3990 C   0  0  0  0  0  0  0  0  0  0  0  0
    8.3340   -0.5520    0.2510 C   0  0  0  0  0  0  0  0  0  0  0  0
    6.2100   -1.5820    1.1560 C   0  0  0  0  0  0  0  0  0  0  0  0
    4.4670   -1.1970    0.9360 S   0  0  0  0  0  0  0  0  0  0  0  0
   -4.8280   -1.8510    0.8530 C   0  0  0  0  0  0  0  0  0  0  0  0
   -4.0220   -3.4080    1.0660 Cl  0  0  0  0  0  0  0  0  0  0  0  0
   -6.1290   -1.6840    0.8000 C   0  0  0  0  0  0  0  0  0  0  0  0
   -6.3920   -0.2480    0.6160 C   0  0  0  0  0  0  0  0  0  0  0  0
  1  2  1  0
  2  3  2  0
  2 23  1  0
  3  4  1  0
  3 20  1  0
  4  5  2  0
  4  6  2  0
  4  7  1  6
  7  8  1  0
  8  9  1  0
  9 10  1  0
 10 11  1  0
 11 12  2  0
 11 13  1  0
 13 14  1  0
 14 15  2  0
 14 19  1  0
 15 16  1  0
 16 17  1  0
 16 18  2  0
 18 19  1  0
 20 21  1  0
 20 22  2  0
 22 23  1  0
M  END
