
     RDKit          3D

 23 24  0  0  0  0  0  0  0  0999 V2000
   -3.3990    1.0350   -1.4580 C   0  0  0  0  0  0  0  0  0  0  0  0
   -4.6270    0.3750   -0.9800 C   0  0  0  0  0  0  0  0  0  0  0  0
   -4.5600   -0.6610   -0.1930 C   0  0  0  0  0  0  0  0  0  0  0  0
   -5.8410   -1.3020    0.2700 C   0  0  0  0  0  0  0  0  0  0  0  0
   -5.8050   -1.1640    2.0650 Cl  0  0  0  0  0  0  0  0  0  0  0  0
   -3.2800   -1.1830    0.2330 C   0  0  0  0  0  0  0  0  0  0  0  0
   -2.1620   -0.9790    0.1300 N   0  0  0  0  0  0  0  0  0  0  0  0
   -1.1090   -1.6090    0.6060 C   0  0  0  0  0  0  0  0  0  0  0  0
    0.2750   -1.2080    0.4060 C   0  0  0  0  0  0  0  0  0  0  0  0
    1.2300   -1.9110    0.8820 O   0  0  0  0  0  0  0  0  0  0  0  0
    0.5720    0.0400   -0.3600 C   0  0  0  0  0  0  0  0  0  0  0  0
    0.9710    1.3040    0.9120 S   0  0  0  0  0  0  0  0  0  0  0  0
    2.5560    0.7950    1.6670 C   0  0  0  0  0  0  0  0  0  0  0  0
    3.5970    1.0140    0.6100 C   0  0  0  0  0  0  0  0  0  0  0  0
    3.9500    0.0380   -0.2780 C   0  0  0  0  0  0  0  0  0  0  0  0
    4.9210    0.3610   -1.2220 C   0  0  0  0  0  0  0  0  0  0  0  0
    5.2870   -0.4980   -2.0660 O   0  0  0  0  0  0  0  0  0  0  0  0
    5.4410    1.5920   -1.1990 N   0  0  0  0  0  0  0  0  0  0  0  0
    5.0750    2.5310   -0.3150 C   0  0  0  0  0  0  0  0  0  0  0  0
    5.5950    3.6930   -0.3260 O   0  0  0  0  0  0  0  0  0  0  0  0
    4.1450    2.2390    0.5990 N   0  0  0  0  0  0  0  0  0  0  0  0
   -1.4250   -2.7130    1.3620 C   0  0  0  0  0  0  0  0  0  0  0  0
   -3.2470   -2.7370    1.3160 S   0  0  0  0  0  0  0  0  0  0  0  0
  1  2  1  0
  2  3  2  3
  3  4  1  0
  3  6  1  0
  4  5  1  0
  6  7  2  0
  6 23  1  0
  7  8  1  0
  8  9  1  0
  8 22  2  0
  9 10  2  0
  9 11  1  0
 11 12  1  0
 12 13  1  0
 13 14  1  0
 14 15  2  0
 14 21  1  0
 15 16  1  0
 16 17  2  0
 16 18  1  0
 18 19  1  0
 19 20  2  0
 19 21  1  0
 22 23  1  0
M  END
