
     RDKit          3D

 22 23  0  0  0  0  0  0  0  0999 V2000
    5.8160    1.0240    0.5960 C   0  0  0  0  0  0  0  0  0  0  0  0
    5.3080   -0.1750    1.3230 C   0  0  0  0  0  0  0  0  0  0  0  0
    4.3080   -1.2790    0.3340 S   0  0  0  0  0  0  0  0  0  0  0  0
    2.7680   -0.5660   -0.1850 C   0  0  0  0  0  0  0  0  0  0  0  0
    2.4980    0.5660    0.1420 O   0  0  0  0  0  0  0  0  0  0  0  0
    1.8340   -1.3490   -1.0050 C   0  0  0  0  0  0  0  0  0  0  0  0
    0.6290   -0.6340   -1.3460 N   0  0  0  0  0  0  0  0  0  0  0  0
    0.6300    0.0870   -2.4800 C   0  0  0  0  0  0  0  0  0  0  0  0
    1.9430    0.1690   -3.4630 S   0  0  0  0  0  0  0  0  0  0  0  0
   -0.4940    0.7540   -2.7970 N   0  0  0  0  0  0  0  0  0  0  0  0
   -1.5650    0.7060   -2.0240 N   0  0  0  0  0  0  0  0  0  0  0  0
   -1.6120   -0.0050   -0.8760 C   0  0  0  0  0  0  0  0  0  0  0  0
   -2.8170   -0.0280   -0.0570 C   0  0  0  0  0  0  0  0  0  0  0  0
   -3.3430   -1.1770    0.4890 C   0  0  0  0  0  0  0  0  0  0  0  0
   -4.4930   -1.0970    1.2530 C   0  0  0  0  0  0  0  0  0  0  0  0
   -5.1460    0.0920    1.5000 C   0  0  0  0  0  0  0  0  0  0  0  0
   -6.2970    0.1070    2.2760 O   0  0  0  0  0  0  0  0  0  0  0  0
   -4.6240    1.2380    0.9570 C   0  0  0  0  0  0  0  0  0  0  0  0
   -5.4020    2.7760    1.2320 Cl  0  0  0  0  0  0  0  0  0  0  0  0
   -3.4670    1.1620    0.1870 C   0  0  0  0  0  0  0  0  0  0  0  0
   -0.4610   -0.6950   -0.5410 C   0  0  0  0  0  0  0  0  0  0  0  0
   -0.4530   -1.3710    0.5180 O   0  0  0  0  0  0  0  0  0  0  0  0
  1  2  1  0
  2  3  1  0
  3  4  1  0
  4  5  2  0
  4  6  1  0
  6  7  1  0
  7  8  1  0
  7 21  1  0
  8  9  2  0
  8 10  1  0
 10 11  1  0
 11 12  2  0
 12 13  1  0
 12 21  1  0
 13 14  2  0
 13 20  1  0
 14 15  1  0
 15 16  2  0
 16 17  1  0
 16 18  1  0
 18 19  1  0
 18 20  2  0
 21 22  2  0
M  END
