
     RDKit          3D

 23 24  0  0  0  0  0  0  0  0999 V2000
   -3.4080    2.3450   -0.1510 C   0  0  0  0  0  0  0  0  0  0  0  0
   -3.8750    0.9430   -0.1910 C   0  0  0  0  0  0  0  0  0  0  0  0
   -5.1910    0.6710   -0.3210 C   0  0  0  0  0  0  0  0  0  0  0  0
   -6.4130    1.9350   -0.4490 Cl  0  0  0  0  0  0  0  0  0  0  0  0
   -5.6470   -0.6320   -0.3600 C   0  0  0  0  0  0  0  0  0  0  0  0
   -4.7550   -1.6730   -0.2660 C   0  0  0  0  0  0  0  0  0  0  0  0
   -5.2120   -3.0310   -0.3060 C   0  0  0  0  0  0  0  0  0  0  0  0
   -5.5800   -4.1330   -0.3210 N   0  0  0  0  0  0  0  0  0  0  0  0
   -3.3960   -1.3670   -0.1320 C   0  0  0  0  0  0  0  0  0  0  0  0
   -2.9430   -0.0840   -0.0930 C   0  0  0  0  0  0  0  0  0  0  0  0
   -1.5670    0.2300    0.0430 N   0  0  0  0  0  0  0  0  0  0  0  0
   -0.4900   -0.6620    0.1550 C   0  0  0  0  0  0  0  0  0  0  0  0
   -0.6750   -1.8910    0.1430 O   0  0  0  0  0  0  0  0  0  0  0  0
    0.8640   -0.2130    0.2870 N   0  0  0  0  0  0  0  0  0  0  0  0
    1.9630   -1.1520    0.4000 C   0  0  0  0  0  0  0  0  0  0  0  0
    3.2580   -0.4430    0.5160 C   0  0  0  0  0  0  0  0  0  0  0  0
    3.6360    0.7870    0.9500 C   0  0  0  0  0  0  0  0  0  0  0  0
    4.9290    1.1290    0.9090 C   0  0  0  0  0  0  0  0  0  0  0  0
    5.8290    0.2450    0.4380 C   0  0  0  0  0  0  0  0  0  0  0  0
    7.5430    0.3120    0.2320 S   0  0  2  0  0  0  0  0  0  0  0  0
    7.8650    0.1870   -1.2380 O   0  0  0  0  0  0  0  0  0  0  0  0
    8.1670   -0.8340    0.9830 O   0  0  0  0  0  0  0  0  0  0  0  0
    4.8730   -1.1750    0.0090 S   0  0  0  0  0  0  0  0  0  0  0  0
  1  2  1  0
  2  3  2  0
  2 10  1  0
  3  4  1  0
  3  5  1  0
  5  6  2  0
  6  7  1  0
  6  9  1  0
  7  8  3  0
  9 10  2  0
 10 11  1  0
 11 12  1  0
 12 13  2  0
 12 14  1  0
 14 15  1  0
 15 16  1  0
 16 17  2  0
 16 23  1  0
 17 18  1  0
 18 19  2  0
 20 19  1  6
 19 23  1  0
 20 21  2  0
 20 22  2  0
M  END
