
     RDKit          3D

 23 24  0  0  0  0  0  0  0  0999 V2000
    5.5590    1.4840   -1.5230 C   0  0  0  0  0  0  0  0  0  0  0  0
    5.3300    0.3180   -0.6090 C   0  0  0  0  0  0  0  0  0  0  0  0
    6.0460   -0.8860   -0.7510 C   0  0  0  0  0  0  0  0  0  0  0  0
    5.3690   -1.8920    0.5830 S   0  0  0  0  0  0  0  0  0  0  0  0
    4.1980   -0.5080    1.1420 C   0  0  0  0  0  0  0  0  0  0  0  0
    3.3120   -0.7980    2.3130 C   0  0  0  0  0  0  0  0  0  0  0  0
    2.0690   -1.3550    1.8800 O   0  0  0  0  0  0  0  0  0  0  0  0
    1.2370   -0.6550    1.0360 C   0  0  0  0  0  0  0  0  0  0  0  0
    1.5910    0.4800    0.6550 O   0  0  0  0  0  0  0  0  0  0  0  0
   -0.0370   -1.3020    0.6310 C   0  0  2  0  0  0  0  0  0  0  0  0
    0.2220   -2.5990   -0.1100 C   0  0  0  0  0  0  0  0  0  0  0  0
   -0.8180   -0.4620   -0.2570 N   0  0  0  0  0  0  0  0  0  0  0  0
   -2.1210    0.0000    0.0480 C   0  0  0  0  0  0  0  0  0  0  0  0
   -2.6340   -0.3330    1.1460 O   0  0  0  0  0  0  0  0  0  0  0  0
   -2.8840    0.8200   -0.8160 N   0  0  0  0  0  0  0  0  0  0  0  0
   -4.2180    1.2570   -0.4360 C   0  0  0  0  0  0  0  0  0  0  0  0
   -4.5170    2.5090   -0.3250 C   0  0  0  0  0  0  0  0  0  0  0  0
   -5.8920    2.8700    0.0640 C   0  0  0  0  0  0  0  0  0  0  0  0
   -6.5690    1.2550    0.5390 S   0  0  0  0  0  0  0  0  0  0  0  0
   -5.2430    0.2980   -0.1700 C   0  0  0  0  0  0  0  0  0  0  0  0
   -5.2610   -0.9840   -0.3750 C   0  0  0  0  0  0  0  0  0  0  0  0
   -6.6360   -1.9910    0.0280 Cl  0  0  0  0  0  0  0  0  0  0  0  0
    4.4720    0.2980    0.3790 N   0  0  0  0  0  0  0  0  0  0  0  0
  1  2  1  0
  2  3  2  0
  2 23  1  0
  3  4  1  0
  4  5  1  0
  5  6  1  0
  5 23  2  0
  6  7  1  0
  7  8  1  0
  8  9  2  0
  8 10  1  0
 10 11  1  6
 10 12  1  0
 12 13  1  0
 13 14  2  0
 13 15  1  0
 15 16  1  0
 16 17  2  0
 16 20  1  0
 17 18  1  0
 18 19  1  0
 19 20  1  0
 20 21  2  3
 21 22  1  0
M  END
