
     RDKit          3D

 22 23  0  0  0  0  0  0  0  0999 V2000
   -3.1480   -1.4760   -2.0630 C   0  0  0  0  0  0  0  0  0  0  0  0
   -4.0370   -0.3280   -1.7690 C   0  0  0  0  0  0  0  0  0  0  0  0
   -3.4310    0.9790   -1.4550 C   0  0  0  0  0  0  0  0  0  0  0  0
   -2.5590    1.0270   -0.3020 N   0  0  0  0  0  0  0  0  0  0  0  0
   -1.1980    0.6620   -0.3800 C   0  0  0  0  0  0  0  0  0  0  0  0
   -0.3860    0.2360   -1.8980 S   0  0  0  0  0  0  0  0  0  0  0  0
    1.1900   -0.0810   -1.2030 C   0  0  0  0  0  0  0  0  0  0  0  0
    2.3460   -0.4750   -1.8480 C   0  0  0  0  0  0  0  0  0  0  0  0
    2.2840   -0.6350   -3.0990 O   0  0  0  0  0  0  0  0  0  0  0  0
    3.4440   -0.6630   -1.1340 N   0  0  0  0  0  0  0  0  0  0  0  0
    3.3700   -0.4610    0.1690 C   0  0  0  0  0  0  0  0  0  0  0  0
    4.9010   -0.7240    1.0850 S   0  0  0  0  0  0  0  0  0  0  0  0
    6.2280   -1.1840   -0.0570 C   0  0  0  0  0  0  0  0  0  0  0  0
    2.2110   -0.0600    0.8590 C   0  0  0  0  0  0  0  0  0  0  0  0
    2.3950    0.0880    2.2580 C   0  0  0  0  0  0  0  0  0  0  0  0
    2.5670    0.2230    3.4240 N   0  0  0  0  0  0  0  0  0  0  0  0
    1.0270    0.1480    0.1300 C   0  0  0  0  0  0  0  0  0  0  0  0
   -0.1910    0.5320    0.5880 C   0  0  0  0  0  0  0  0  0  0  0  0
   -0.6080    0.8210    1.9940 C   0  0  0  0  0  0  0  0  0  0  0  0
    0.0920    0.7780    2.9970 O   0  0  0  0  0  0  0  0  0  0  0  0
   -1.9370    1.1890    2.2700 O   0  0  0  0  0  0  0  0  0  0  0  0
   -2.3740    1.4710    3.5880 C   0  0  0  0  0  0  0  0  0  0  0  0
  1  2  1  0
  2  3  1  0
  3  4  1  0
  4  5  1  0
  5  6  1  0
  5 18  2  0
  6  7  1  0
  7  8  1  0
  7 17  2  0
  8  9  2  0
  8 10  1  0
 10 11  1  0
 11 12  1  0
 11 14  2  0
 12 13  1  0
 14 15  1  0
 14 17  1  0
 15 16  3  0
 17 18  1  0
 18 19  1  0
 19 20  2  0
 19 21  1  0
 21 22  1  0
M  END
