
     RDKit          3D

 26 28  0  0  0  0  0  0  0  0999 V2000
    5.8460    2.1130    1.3650 C   0  0  0  0  0  0  0  0  0  0  0  0
    6.0850    0.8350    1.1540 C   0  0  0  0  0  0  0  0  0  0  0  0
    7.1910   -0.0990    1.4150 C   0  0  0  0  0  0  0  0  0  0  0  0
    6.2770   -1.0540    0.7680 C   0  0  0  0  0  0  0  0  0  0  0  0
    5.2800   -0.2100    0.5340 C   0  0  0  0  0  0  0  0  0  0  0  0
    3.9810   -0.2720   -0.0600 N   0  0  0  0  0  0  0  0  0  0  0  0
    2.8530    0.1380    0.6920 C   0  0  0  0  0  0  0  0  0  0  0  0
    1.5300   -0.3290    0.1810 C   0  0  0  0  0  0  0  0  0  0  0  0
    1.5340   -0.9100   -1.1080 N   0  0  0  0  0  0  0  0  0  0  0  0
    1.1690    0.0150   -2.1380 C   0  0  0  0  0  0  0  0  0  0  0  0
   -0.2610    0.4150   -2.0510 C   0  0  0  0  0  0  0  0  0  0  0  0
   -0.7440    1.2240   -2.8720 O   0  0  0  0  0  0  0  0  0  0  0  0
   -1.1020   -0.0870   -1.0710 O   0  0  0  0  0  0  0  0  0  0  0  0
   -2.4780    0.2990   -1.0010 C   0  0  0  0  0  0  0  0  0  0  0  0
   -3.1290   -0.3860    0.1360 C   0  0  0  0  0  0  0  0  0  0  0  0
   -2.4650   -1.1590    0.8610 O   0  0  0  0  0  0  0  0  0  0  0  0
   -4.5110   -0.1920    0.4370 N   0  0  0  0  0  0  0  0  0  0  0  0
   -5.2320    0.6970   -0.4090 C   0  0  0  0  0  0  0  0  0  0  0  0
   -5.8090    1.9150    0.1760 C   0  0  0  0  0  0  0  0  0  0  0  0
   -6.3270    1.9390    1.4680 N   0  0  0  0  0  0  0  0  0  0  0  0
   -6.1370    0.9540    2.3160 O   0  0  0  0  0  0  0  0  0  0  0  0
   -6.3950   -0.3230    1.8890 C   0  0  0  0  0  0  0  0  0  0  0  0
   -5.0430   -0.9240    1.5720 C   0  0  0  0  0  0  0  0  0  0  0  0
    2.6750   -1.7140   -1.3870 C   0  0  1  0  0  0  0  0  0  0  0  0
    2.5780   -2.5630   -2.5990 C   0  0  0  0  0  0  0  0  0  0  0  0
    3.8760   -0.7580   -1.4150 C   0  0  0  0  0  0  0  0  0  0  0  0
  1  2  2  0
  2  3  1  0
  2  5  1  0
  3  4  1  0
  4  5  2  0
  5  6  1  0
  6  7  1  0
  6 26  1  0
  7  8  1  0
  8  9  1  0
  9 10  1  0
  9 24  1  0
 10 11  1  0
 11 12  2  0
 11 13  1  0
 13 14  1  0
 14 15  1  0
 15 16  2  0
 15 17  1  0
 17 18  1  0
 17 23  1  0
 18 19  1  0
 19 20  1  0
 20 21  1  0
 21 22  1  0
 22 23  1  0
 24 25  1  6
 24 26  1  0
M  CHG  1  20   1
M  END
