
     RDKit          3D

 20 19  0  0  0  0  0  0  0  0999 V2000
   -1.8850   -1.3150   -1.7850 C   0  0  0  0  0  0  0  0  0  0  0  0
   -1.9790   -0.5960   -0.4470 C   0  0  1  0  0  0  0  0  0  0  0  0
   -2.5350   -1.5770    0.5450 C   0  0  0  0  0  0  0  0  0  0  0  0
   -0.6110   -0.0910   -0.0600 C   0  0  0  0  0  0  0  0  0  0  0  0
    0.3590   -1.1320    0.0720 N   0  0  0  0  0  0  0  0  0  0  0  0
    1.6900   -0.7870    0.4340 C   0  0  0  0  0  0  0  0  0  0  0  0
    1.9990    0.4160    0.6320 O   0  0  0  0  0  0  0  0  0  0  0  0
    2.6870   -1.7460    0.5820 O   0  0  0  0  0  0  0  0  0  0  0  0
    3.9930   -1.3820    0.9400 C   0  0  0  0  0  0  0  0  0  0  0  0
    4.6310   -0.4710   -0.0140 C   0  0  0  0  0  0  0  0  0  0  0  0
    4.1140   -0.0230   -1.0660 O   0  0  0  0  0  0  0  0  0  0  0  0
    5.9720   -0.0440    0.2720 N   0  0  0  0  0  0  0  0  0  0  0  0
    6.6740    0.8560   -0.6190 C   0  0  0  0  0  0  0  0  0  0  0  0
    5.9760    2.0780   -0.7380 O   0  0  0  0  0  0  0  0  0  0  0  0
   -2.9050    0.5750   -0.6460 C   0  0  1  0  0  0  0  0  0  0  0  0
   -4.2070    0.0650   -1.0670 N   0  0  0  0  0  0  0  0  0  0  0  0
   -3.1250    1.3840    0.5930 C   0  0  0  0  0  0  0  0  0  0  0  0
   -4.2530    2.7330    0.1660 S   0  0  0  0  0  0  0  0  0  0  0  0
   -4.3530    3.7610    1.2530 O   0  0  0  0  0  0  0  0  0  0  0  0
   -5.7330    2.1730   -0.3950 O   0  0  0  0  0  0  0  0  0  0  0  0
  2  1  1  6
  2  3  1  0
  2  4  1  0
  2 15  1  0
  4  5  1  0
  5  6  1  0
  6  7  2  0
  6  8  1  0
  8  9  1  0
  9 10  1  0
 10 11  2  0
 10 12  1  0
 12 13  1  0
 13 14  1  0
 15 16  1  1
 15 17  1  0
 17 18  1  0
 18 19  2  0
 18 20  1  1
M  CHG  1  16   1
M  END
