
     RDKit          3D

 20 19  0  0  0  0  0  0  0  0999 V2000
    4.1110   -1.4950    0.8210 C   0  0  0  0  0  0  0  0  0  0  0  0
    3.7200   -0.8700   -0.7720 S   0  0  1  0  0  0  0  0  0  0  0  0
    4.9040   -1.1390   -1.7490 N   0  0  0  0  0  0  0  0  0  0  0  0
    2.6280   -1.7230   -1.4200 O   0  0  0  0  0  0  0  0  0  0  0  0
    3.3520    0.7770   -0.7980 N   0  0  0  0  0  0  0  0  0  0  0  0
    2.0150    1.1060   -0.8160 N   0  0  0  0  0  0  0  0  0  0  0  0
    1.0410    0.6240    0.0810 C   0  0  0  0  0  0  0  0  0  0  0  0
    1.4420   -0.1710    0.9620 O   0  0  0  0  0  0  0  0  0  0  0  0
   -0.3990    0.9910    0.0480 C   0  0  0  0  0  0  0  0  0  0  0  0
   -1.2450    0.2880    1.0120 C   0  0  1  0  0  0  0  0  0  0  0  0
   -0.7800    0.5410    2.3530 O   0  0  0  0  0  0  0  0  0  0  0  0
   -2.6510    0.7640    1.0290 C   0  0  0  0  0  0  0  0  0  0  0  0
   -3.0010    2.1220    1.4280 C   0  0  0  0  0  0  0  0  0  0  0  0
   -2.5310    3.3330    0.7310 C   0  0  0  0  0  0  0  0  0  0  0  0
   -2.8170    3.3970   -0.6200 O   0  0  0  0  0  0  0  0  0  0  0  0
   -1.1900   -1.2300    0.8910 C   0  0  0  0  0  0  0  0  0  0  0  0
   -1.6230   -1.7170   -0.4480 C   0  0  0  0  0  0  0  0  0  0  0  0
   -1.5730   -3.2000   -0.5600 C   0  0  0  0  0  0  0  0  0  0  0  0
   -1.1980   -3.9200    0.4070 O   0  0  0  0  0  0  0  0  0  0  0  0
   -1.9280   -3.8710   -1.7120 O   0  0  0  0  0  0  0  0  0  0  0  0
  2  1  1  1
  2  3  2  0
  2  4  2  0
  2  5  1  0
  5  6  1  0
  6  7  1  0
  7  8  2  0
  7  9  1  0
  9 10  1  0
 10 11  1  1
 10 12  1  0
 10 16  1  0
 12 13  1  0
 13 14  1  0
 14 15  1  0
 16 17  1  0
 17 18  1  0
 18 19  2  0
 18 20  1  0
M  CHG  1   3   1
M  END
