
     RDKit          3D

 21 22  0  0  0  0  0  0  0  0999 V2000
    6.1790    0.5690   -0.3800 N   0  0  0  0  0  0  0  0  0  0  0  0
    5.0060    1.6770    0.2270 S   0  0  1  0  0  0  0  0  0  0  0  0
    5.3330    2.0240    1.6410 O   0  0  0  0  0  0  0  0  0  0  0  0
    5.0700    2.9890   -0.5570 O   0  0  0  0  0  0  0  0  0  0  0  0
    3.3850    1.0700    0.0460 C   0  0  0  0  0  0  0  0  0  0  0  0
    2.4020    1.7520   -0.6430 C   0  0  0  0  0  0  0  0  0  0  0  0
    1.1260    1.2670   -0.7870 C   0  0  0  0  0  0  0  0  0  0  0  0
    0.7670    0.0320   -0.2250 C   0  0  0  0  0  0  0  0  0  0  0  0
   -0.6100   -0.4420   -0.4410 C   0  0  0  0  0  0  0  0  0  0  0  0
   -1.4540    0.2570   -1.0440 O   0  0  0  0  0  0  0  0  0  0  0  0
   -0.9860   -1.7780    0.0690 C   0  0  0  0  0  0  0  0  0  0  0  0
   -2.1360   -1.7140    1.4730 S   0  0  0  0  0  0  0  0  0  0  0  0
   -3.6830   -1.0870    0.8150 C   0  0  0  0  0  0  0  0  0  0  0  0
   -4.5970   -1.9190    0.2850 N   0  0  0  0  0  0  0  0  0  0  0  0
   -5.7840   -1.5150   -0.2130 C   0  0  0  0  0  0  0  0  0  0  0  0
   -6.1010   -0.1600   -0.1880 C   0  0  0  0  0  0  0  0  0  0  0  0
   -5.1660    0.6850    0.3520 C   0  0  0  0  0  0  0  0  0  0  0  0
   -3.9980    0.2210    0.8350 N   0  0  0  0  0  0  0  0  0  0  0  0
    1.7210   -0.6630    0.4640 C   0  0  0  0  0  0  0  0  0  0  0  0
    3.0100   -0.1360    0.5890 C   0  0  0  0  0  0  0  0  0  0  0  0
    4.2380   -1.0340    1.4740 Cl  0  0  0  0  0  0  0  0  0  0  0  0
  2  1  1  6
  2  3  2  0
  2  4  2  0
  2  5  1  0
  5  6  2  0
  5 20  1  0
  6  7  1  0
  7  8  2  0
  8  9  1  0
  8 19  1  0
  9 10  2  0
  9 11  1  0
 11 12  1  0
 12 13  1  0
 13 14  2  0
 13 18  1  0
 14 15  1  0
 15 16  2  0
 16 17  1  0
 17 18  2  0
 19 20  2  0
 20 21  1  0
M  END
