
     RDKit          3D

 20 19  0  0  0  0  0  0  0  0999 V2000
   -4.5400   -2.0420    0.4720 C   0  0  0  0  0  0  0  0  0  0  0  0
   -4.7190   -0.5820    0.8120 C   0  0  1  0  0  0  0  0  0  0  0  0
   -5.4320   -0.4200    2.0150 O   0  0  0  0  0  0  0  0  0  0  0  0
   -3.3880    0.0430    0.9100 C   0  0  0  0  0  0  0  0  0  0  0  0
   -3.0520    0.6080    1.9680 O   0  0  0  0  0  0  0  0  0  0  0  0
   -2.4920    0.0050   -0.1880 N   0  0  0  0  0  0  0  0  0  0  0  0
   -1.2170    0.5940   -0.1170 N   0  0  0  0  0  0  0  0  0  0  0  0
   -0.0630    0.0530   -0.7150 C   0  0  0  0  0  0  0  0  0  0  0  0
   -0.1450   -1.0170   -1.3550 O   0  0  0  0  0  0  0  0  0  0  0  0
    1.2370    0.7790   -0.5660 C   0  0  0  0  0  0  0  0  0  0  0  0
    2.2200    0.0800   -1.2220 O   0  0  0  0  0  0  0  0  0  0  0  0
    3.4480    0.6940   -1.1510 C   0  0  0  0  0  0  0  0  0  0  0  0
    3.9970    0.8850    0.2170 C   0  0  0  0  0  0  0  0  0  0  0  0
    4.1790   -0.2880    0.9220 O   0  0  0  0  0  0  0  0  0  0  0  0
    5.0500   -1.1690    0.3160 C   0  0  0  0  0  0  0  0  0  0  0  0
    6.4340   -0.5910    0.1310 C   0  0  0  0  0  0  0  0  0  0  0  0
    6.9840   -0.2460    1.3810 O   0  0  0  0  0  0  0  0  0  0  0  0
   -5.4640    0.1100   -0.2840 C   0  0  0  0  0  0  0  0  0  0  0  0
   -5.7410    1.5010   -0.1660 N   0  0  0  0  0  0  0  0  0  0  0  0
   -5.9020   -0.5870   -1.4450 S   0  0  0  0  0  0  0  0  0  0  0  0
  2  1  1  6
  2  3  1  0
  2  4  1  0
  2 18  1  0
  4  5  2  0
  4  6  1  0
  6  7  1  0
  7  8  1  0
  8  9  2  0
  8 10  1  0
 10 11  1  0
 11 12  1  0
 12 13  1  0
 13 14  1  0
 14 15  1  0
 15 16  1  0
 16 17  1  0
 18 19  1  0
 18 20  2  0
M  CHG  1  19   1
M  END
