
     RDKit          3D

 23 24  0  0  0  0  0  0  0  0999 V2000
   -5.5170   -1.5060   -0.0820 C   0  0  0  0  0  0  0  0  0  0  0  0
   -5.4100   -0.0290   -0.2720 C   0  0  0  0  0  0  0  0  0  0  0  0
   -4.3230    0.6300   -0.6230 C   0  0  0  0  0  0  0  0  0  0  0  0
   -2.7280   -0.0060   -0.9630 S   0  0  1  0  0  0  0  0  0  0  0  0
   -2.7690   -1.3600   -1.5770 O   0  0  0  0  0  0  0  0  0  0  0  0
   -1.9690    0.9030   -1.8990 O   0  0  0  0  0  0  0  0  0  0  0  0
   -1.8340   -0.0130    0.5830 C   0  0  0  0  0  0  0  0  0  0  0  0
   -0.4250   -0.5520    0.3990 C   0  0  0  0  0  0  0  0  0  0  0  0
    0.2330   -0.5120    1.7620 C   0  0  0  0  0  0  0  0  0  0  0  0
    1.5890   -1.0020    1.7270 N   0  0  0  0  0  0  0  0  0  0  0  0
    2.5600   -0.3690    0.9150 C   0  0  0  0  0  0  0  0  0  0  0  0
    2.3280    0.6160    0.2010 O   0  0  0  0  0  0  0  0  0  0  0  0
    3.8750   -0.9040    0.9290 N   0  0  0  0  0  0  0  0  0  0  0  0
    4.9230   -0.3340    0.1440 C   0  0  0  0  0  0  0  0  0  0  0  0
    6.1950   -0.6350   -0.0160 N   0  0  0  0  0  0  0  0  0  0  0  0
    6.9620    0.0280   -0.7880 C   0  0  0  0  0  0  0  0  0  0  0  0
    8.4340   -0.2950   -0.9940 C   0  0  0  0  0  0  0  0  0  0  0  0
    6.4380    1.1090   -1.4880 C   0  0  0  0  0  0  0  0  0  0  0  0
    4.7640    1.0760   -0.9340 S   0  0  0  0  0  0  0  0  0  0  0  0
   -4.6540    2.0540   -0.6950 C   0  0  0  0  0  0  0  0  0  0  0  0
   -3.5310    3.3530   -1.1260 Cl  0  0  0  0  0  0  0  0  0  0  0  0
   -5.9280    2.2430   -0.3890 C   0  0  0  0  0  0  0  0  0  0  0  0
   -6.5270    0.9350   -0.0910 C   0  0  0  0  0  0  0  0  0  0  0  0
  1  2  1  0
  2  3  2  0
  2 23  1  0
  3  4  1  0
  3 20  1  0
  4  5  2  0
  4  6  2  0
  4  7  1  1
  7  8  1  0
  8  9  1  0
  9 10  1  0
 10 11  1  0
 11 12  2  0
 11 13  1  0
 13 14  1  0
 14 15  2  0
 14 19  1  0
 15 16  1  0
 16 17  1  0
 16 18  2  0
 18 19  1  0
 20 21  1  0
 20 22  2  0
 22 23  1  0
M  END
