
     RDKit          3D

 23 24  0  0  0  0  0  0  0  0999 V2000
   -3.8260   -1.9720    0.3320 C   0  0  0  0  0  0  0  0  0  0  0  0
   -3.6090   -0.5220    0.5380 C   0  0  0  0  0  0  0  0  0  0  0  0
   -4.6830    0.3660    0.5280 C   0  0  0  0  0  0  0  0  0  0  0  0
   -6.2940   -0.2420    0.2800 Cl  0  0  0  0  0  0  0  0  0  0  0  0
   -4.4710    1.7150    0.7160 C   0  0  0  0  0  0  0  0  0  0  0  0
   -3.1920    2.1520    0.9100 C   0  0  0  0  0  0  0  0  0  0  0  0
   -2.9430    3.5310    1.1080 C   0  0  0  0  0  0  0  0  0  0  0  0
   -2.7230    4.6870    1.2910 N   0  0  0  0  0  0  0  0  0  0  0  0
   -2.1220    1.2440    0.9170 C   0  0  0  0  0  0  0  0  0  0  0  0
   -2.2930   -0.0920    0.7360 C   0  0  0  0  0  0  0  0  0  0  0  0
   -1.2720   -1.0540    0.7440 N   0  0  0  0  0  0  0  0  0  0  0  0
    0.1150   -0.7890    0.8690 C   0  0  0  0  0  0  0  0  0  0  0  0
    0.5700    0.3620    0.9790 O   0  0  0  0  0  0  0  0  0  0  0  0
    1.0870   -1.8450    0.8760 N   0  0  0  0  0  0  0  0  0  0  0  0
    2.5000   -1.6150    0.9960 C   0  0  0  0  0  0  0  0  0  0  0  0
    3.0050   -0.8550   -0.1180 C   0  0  0  0  0  0  0  0  0  0  0  0
    2.4560   -0.3520   -1.2870 C   0  0  0  0  0  0  0  0  0  0  0  0
    3.1940    0.3220   -2.1460 C   0  0  0  0  0  0  0  0  0  0  0  0
    4.5310    0.5460   -1.9080 C   0  0  0  0  0  0  0  0  0  0  0  0
    5.7840    1.3480   -2.7460 S   0  0  1  0  0  0  0  0  0  0  0  0
    6.2290    0.4920   -3.9000 O   0  0  0  0  0  0  0  0  0  0  0  0
    5.2840    2.6810   -3.2290 O   0  0  0  0  0  0  0  0  0  0  0  0
    4.7180   -0.3140   -0.2730 S   0  0  0  0  0  0  0  0  0  0  0  0
  1  2  1  0
  2  3  2  0
  2 10  1  0
  3  4  1  0
  3  5  1  0
  5  6  2  0
  6  7  1  0
  6  9  1  0
  7  8  3  0
  9 10  2  0
 10 11  1  0
 11 12  1  0
 12 13  2  0
 12 14  1  0
 14 15  1  0
 15 16  1  0
 16 17  2  0
 16 23  1  0
 17 18  1  0
 18 19  2  0
 20 19  1  6
 19 23  1  0
 20 21  2  0
 20 22  2  0
M  END
