
     RDKit          3D

 23 24  0  0  0  0  0  0  0  0999 V2000
    6.9230   -1.2600   -0.0890 C   0  0  0  0  0  0  0  0  0  0  0  0
    6.0870    0.2780    0.2970 S   0  0  0  0  0  0  0  0  0  0  0  0
    4.3080    0.0490    0.3180 C   0  0  0  0  0  0  0  0  0  0  0  0
    3.5460    1.1870    0.5770 C   0  0  0  0  0  0  0  0  0  0  0  0
    2.1760    1.0930    0.6170 C   0  0  0  0  0  0  0  0  0  0  0  0
    1.5130   -0.1480    0.3950 C   0  0  0  0  0  0  0  0  0  0  0  0
    0.0840   -0.0570    0.4830 N   0  0  0  0  0  0  0  0  0  0  0  0
   -0.6610    1.2270   -0.3030 S   0  0  2  0  0  0  0  0  0  0  0  0
    0.4200    2.0750   -1.0670 O   0  0  0  0  0  0  0  0  0  0  0  0
   -1.1790    2.1680    0.7690 O   0  0  0  0  0  0  0  0  0  0  0  0
   -1.8870    0.9040   -1.5200 C   0  0  0  0  0  0  0  0  0  0  0  0
   -3.0530    0.2280   -0.9130 C   0  0  0  0  0  0  0  0  0  0  0  0
   -3.1290   -1.0840   -0.5830 C   0  0  0  0  0  0  0  0  0  0  0  0
   -4.3220   -1.6450   -0.1090 C   0  0  0  0  0  0  0  0  0  0  0  0
   -4.3780   -2.8670    0.1760 O   0  0  0  0  0  0  0  0  0  0  0  0
   -5.4050   -0.8250    0.0220 N   0  0  0  0  0  0  0  0  0  0  0  0
   -5.3640    0.4450   -0.2840 C   0  0  0  0  0  0  0  0  0  0  0  0
   -6.3670    1.4450    0.0590 C   0  0  0  0  0  0  0  0  0  0  0  0
   -7.1670    2.2250    0.3390 N   0  0  0  0  0  0  0  0  0  0  0  0
   -4.1750    0.9910   -0.7670 C   0  0  0  0  0  0  0  0  0  0  0  0
   -4.1130    2.6990   -1.1810 Cl  0  0  0  0  0  0  0  0  0  0  0  0
    2.2670   -1.2230    0.1450 C   0  0  0  0  0  0  0  0  0  0  0  0
    3.6650   -1.1290    0.1080 C   0  0  0  0  0  0  0  0  0  0  0  0
  1  2  1  0
  2  3  1  0
  3  4  2  0
  3 23  1  0
  4  5  1  0
  5  6  2  0
  6  7  1  0
  6 22  1  0
  7  8  1  0
  8  9  2  0
  8 10  2  0
  8 11  1  6
 11 12  1  0
 12 13  2  0
 12 20  1  0
 13 14  1  0
 14 15  2  0
 14 16  1  0
 16 17  1  0
 17 18  1  0
 17 20  2  0
 18 19  3  0
 20 21  1  0
 22 23  2  0
M  END
