
     RDKit          3D

 23 25  0  0  0  0  0  0  0  0999 V2000
   -6.5670    1.5910   -0.3540 C   0  0  0  0  0  0  0  0  0  0  0  0
   -5.1870    0.9630   -0.4350 C   0  0  0  0  0  0  0  0  0  0  0  0
   -4.9350   -0.2270    0.0900 C   0  0  0  0  0  0  0  0  0  0  0  0
   -5.9920   -0.9780    0.7570 C   0  0  0  0  0  0  0  0  0  0  0  0
   -5.5250   -1.1490    2.5230 Cl  0  0  0  0  0  0  0  0  0  0  0  0
   -3.5220   -0.5720    0.0160 C   0  0  0  0  0  0  0  0  0  0  0  0
   -2.5220   -0.1670   -0.2500 N   0  0  0  0  0  0  0  0  0  0  0  0
   -1.4280    0.0350   -0.4840 C   0  0  0  0  0  0  0  0  0  0  0  0
   -0.0310    0.2820   -0.7860 C   0  0  0  0  0  0  0  0  0  0  0  0
    0.2510    1.5730   -0.4070 O   0  0  0  0  0  0  0  0  0  0  0  0
    1.1130   -0.3340   -1.3480 C   0  0  0  0  0  0  0  0  0  0  0  0
    2.4990    0.9430   -1.3770 S   0  0  0  0  0  0  0  0  0  0  0  0
    3.0220    1.1740    0.3020 C   0  0  0  0  0  0  0  0  0  0  0  0
    4.2760    0.4210    0.4630 C   0  0  0  0  0  0  0  0  0  0  0  0
    5.4530    1.1880    0.4900 C   0  0  0  0  0  0  0  0  0  0  0  0
    6.6650    0.5690    0.4350 C   0  0  0  0  0  0  0  0  0  0  0  0
    7.7250    1.2940    0.4610 O   0  0  0  0  0  0  0  0  0  0  0  0
    6.7330   -0.7670    0.3590 N   0  0  0  0  0  0  0  0  0  0  0  0
    5.5960   -1.5210    0.3410 C   0  0  0  0  0  0  0  0  0  0  0  0
    5.6890   -2.7790    0.2540 O   0  0  0  0  0  0  0  0  0  0  0  0
    4.4040   -0.9040    0.3980 N   0  0  0  0  0  0  0  0  0  0  0  0
   -1.0840   -1.5920   -0.1800 C   0  0  0  0  0  0  0  0  0  0  0  0
   -2.7640   -2.2280    0.2600 S   0  0  0  0  0  0  0  0  0  0  0  0
  1  2  1  0
  2  3  2  3
  3  4  1  0
  3  6  1  0
  4  5  1  0
  6  7  2  0
  6 23  1  0
  7  8  1  0
  8  9  1  0
  8 22  2  0
  9 10  2  0
  9 11  1  0
 11 12  1  0
 12 13  1  0
 13 14  1  0
 14 15  2  0
 14 21  1  0
 15 16  1  0
 16 17  2  0
 16 18  1  0
 18 19  1  0
 19 20  2  0
 19 21  1  0
 22 23  1  0
 23  7  1  0
M  CHG  1   7   1
M  END
