
     RDKit          3D

 26 28  0  0  0  0  0  0  0  0999 V2000
   -6.8170   -0.7780   -1.4830 C   0  0  0  0  0  0  0  0  0  0  0  0
   -6.6320    0.1850   -0.6140 C   0  0  0  0  0  0  0  0  0  0  0  0
   -7.3940    1.3010   -0.0800 C   0  0  0  0  0  0  0  0  0  0  0  0
   -6.2170    1.5810    0.7170 C   0  0  0  0  0  0  0  0  0  0  0  0
   -5.5540    0.5840    0.2330 C   0  0  0  0  0  0  0  0  0  0  0  0
   -4.2310    0.0520    0.4440 N   0  0  0  0  0  0  0  0  0  0  0  0
   -3.3590   -0.0320   -0.6720 C   0  0  0  0  0  0  0  0  0  0  0  0
   -2.0010   -0.5640   -0.3860 C   0  0  0  0  0  0  0  0  0  0  0  0
   -1.5680   -0.5690    0.9420 N   0  0  0  0  0  0  0  0  0  0  0  0
   -0.7630   -1.6660    1.3550 C   0  0  0  0  0  0  0  0  0  0  0  0
    0.5530   -1.5640    0.6580 C   0  0  0  0  0  0  0  0  0  0  0  0
    1.4510   -2.4260    0.8770 O   0  0  0  0  0  0  0  0  0  0  0  0
    0.8340   -0.5540   -0.2300 O   0  0  0  0  0  0  0  0  0  0  0  0
    2.0670   -0.4250   -0.9090 C   0  0  0  0  0  0  0  0  0  0  0  0
    3.1980   -0.2650    0.0370 C   0  0  0  0  0  0  0  0  0  0  0  0
    2.9250   -0.2760    1.2600 O   0  0  0  0  0  0  0  0  0  0  0  0
    4.5390   -0.1050   -0.3670 N   0  0  0  0  0  0  0  0  0  0  0  0
    5.4840    0.0340    0.7170 C   0  0  0  0  0  0  0  0  0  0  0  0
    6.8900    0.2910    0.2700 C   0  0  0  0  0  0  0  0  0  0  0  0
    7.0020    1.2180   -0.8090 N   0  0  0  0  0  0  0  0  0  0  0  0
    6.9200    0.6930   -2.0320 O   0  0  0  0  0  0  0  0  0  0  0  0
    6.1740   -0.4480   -2.1310 C   0  0  0  0  0  0  0  0  0  0  0  0
    4.7310   -0.1060   -1.8090 C   0  0  0  0  0  0  0  0  0  0  0  0
   -2.4040    0.0030    1.9330 C   0  0  1  0  0  0  0  0  0  0  0  0
   -2.2220    1.5090    1.8840 C   0  0  0  0  0  0  0  0  0  0  0  0
   -3.8640   -0.3660    1.7730 C   0  0  0  0  0  0  0  0  0  0  0  0
  1  2  2  0
  2  3  1  0
  2  5  1  0
  3  4  1  0
  4  5  2  0
  5  6  1  0
  6  7  1  0
  6 26  1  0
  7  8  1  0
  8  9  1  0
  9 10  1  0
  9 24  1  0
 10 11  1  0
 11 12  2  0
 11 13  1  0
 13 14  1  0
 14 15  1  0
 15 16  2  0
 15 17  1  0
 17 18  1  0
 17 23  1  0
 18 19  1  0
 19 20  1  0
 20 21  1  0
 21 22  1  0
 22 23  1  0
 24 25  1  6
 24 26  1  0
M  CHG  1  20   1
M  END
