
     RDKit          3D

 23 24  0  0  0  0  0  0  0  0999 V2000
    6.3700    0.3980   -1.0670 C   0  0  0  0  0  0  0  0  0  0  0  0
    6.4240   -1.0190   -0.6510 C   0  0  0  0  0  0  0  0  0  0  0  0
    7.4670   -1.6690   -0.8000 O   0  0  0  0  0  0  0  0  0  0  0  0
    5.1910   -1.6450   -0.0470 C   0  0  0  0  0  0  0  0  0  0  0  0
    5.3090   -2.9900    0.3260 C   0  0  0  0  0  0  0  0  0  0  0  0
    3.5860   -3.2250    0.9740 S   0  0  0  0  0  0  0  0  0  0  0  0
    3.0050   -1.5360    0.6510 C   0  0  0  0  0  0  0  0  0  0  0  0
    1.7170   -1.0990    0.9480 N   0  0  0  0  0  0  0  0  0  0  0  0
    1.3880    0.2460    0.6460 C   0  0  0  0  0  0  0  0  0  0  0  0
    2.2370    1.0040    0.1300 O   0  0  0  0  0  0  0  0  0  0  0  0
    0.0710    0.7890    0.9200 C   0  0  0  0  0  0  0  0  0  0  0  0
   -0.7860    0.0380    1.4360 O   0  0  0  0  0  0  0  0  0  0  0  0
   -0.2880    2.1270    0.6300 N   0  0  0  0  0  0  0  0  0  0  0  0
   -1.6030    2.6700    0.9040 C   0  0  0  0  0  0  0  0  0  0  0  0
   -2.6710    1.9630    0.1960 C   0  0  0  0  0  0  0  0  0  0  0  0
   -3.2550    2.0710   -1.0310 C   0  0  0  0  0  0  0  0  0  0  0  0
   -4.2360    1.2540   -1.3860 C   0  0  0  0  0  0  0  0  0  0  0  0
   -4.6680    0.3000   -0.5230 C   0  0  0  0  0  0  0  0  0  0  0  0
   -5.7030   -0.7230   -0.6200 C   0  0  0  0  0  0  0  0  0  0  0  0
   -5.7540   -1.5240    0.6610 C   0  0  0  0  0  0  0  0  0  0  0  0
   -6.9880   -2.7710    0.5940 Cl  0  0  0  0  0  0  0  0  0  0  0  0
   -3.6270    0.5440    0.9200 S   0  0  0  0  0  0  0  0  0  0  0  0
    4.1040   -1.0270    0.1280 N   0  0  0  0  0  0  0  0  0  0  0  0
  1  2  1  0
  2  3  2  0
  2  4  1  0
  4  5  2  0
  4 23  1  0
  5  6  1  0
  6  7  1  0
  7  8  1  0
  7 23  2  0
  8  9  1  0
  9 10  2  0
  9 11  1  0
 11 12  2  0
 11 13  1  0
 13 14  1  0
 14 15  1  0
 15 16  2  0
 15 22  1  0
 16 17  1  0
 17 18  2  0
 18 19  1  0
 18 22  1  0
 19 20  1  0
 20 21  1  0
M  END
