
     RDKit          3D

 23 24  0  0  0  0  0  0  0  0999 V2000
   -5.0650   -2.9940    0.3800 C   0  0  0  0  0  0  0  0  0  0  0  0
   -4.2800   -1.7500    0.2090 C   0  0  0  0  0  0  0  0  0  0  0  0
   -4.6130   -0.6140    0.9220 C   0  0  0  0  0  0  0  0  0  0  0  0
   -3.8880    0.5600    0.7710 C   0  0  0  0  0  0  0  0  0  0  0  0
   -4.3180    1.7250    1.5780 C   0  0  0  0  0  0  0  0  0  0  0  0
   -2.8500    0.5840   -0.0840 N   0  0  0  0  0  0  0  0  0  0  0  0
   -2.5200   -0.5230   -0.7840 C   0  0  0  0  0  0  0  0  0  0  0  0
   -1.1670   -0.5900   -1.9430 S   0  0  0  0  0  0  0  0  0  0  0  0
   -0.3850    1.0540   -1.9800 C   0  0  0  0  0  0  0  0  0  0  0  0
    0.2410    1.2860   -0.6640 C   0  0  0  0  0  0  0  0  0  0  0  0
   -0.4650    1.7610    0.2600 O   0  0  0  0  0  0  0  0  0  0  0  0
    1.6260    0.9850   -0.4200 C   0  0  0  0  0  0  0  0  0  0  0  0
    2.1710    1.2240    0.8400 C   0  0  0  0  0  0  0  0  0  0  0  0
    3.4810    0.9630    1.1210 C   0  0  0  0  0  0  0  0  0  0  0  0
    4.3050    0.4460    0.1390 C   0  0  0  0  0  0  0  0  0  0  0  0
    5.9860    0.1040    0.4510 S   0  0  2  0  0  0  0  0  0  0  0  0
    6.3730   -1.5640    0.1940 N   0  0  0  0  0  0  0  0  0  0  0  0
    6.3470    0.4470    1.8740 O   0  0  0  0  0  0  0  0  0  0  0  0
    6.8140    0.9700   -0.4370 O   0  0  0  0  0  0  0  0  0  0  0  0
    3.7860    0.2040   -1.1090 C   0  0  0  0  0  0  0  0  0  0  0  0
    4.8220   -0.4500   -2.3600 Cl  0  0  0  0  0  0  0  0  0  0  0  0
    2.4380    0.4720   -1.3990 C   0  0  0  0  0  0  0  0  0  0  0  0
   -3.2370   -1.6570   -0.6230 N   0  0  0  0  0  0  0  0  0  0  0  0
  1  2  1  0
  2  3  2  0
  2 23  1  0
  3  4  1  0
  4  5  1  0
  4  6  2  0
  6  7  1  0
  7  8  1  0
  7 23  2  0
  8  9  1  0
  9 10  1  0
 10 11  2  0
 10 12  1  0
 12 13  2  0
 12 22  1  0
 13 14  1  0
 14 15  2  0
 15 16  1  0
 15 20  1  0
 16 17  1  6
 16 18  2  0
 16 19  2  0
 20 21  1  0
 20 22  2  0
M  END
