
     RDKit          3D

 22 23  0  0  0  0  0  0  0  0999 V2000
   -3.6990    2.8370    1.2830 C   0  0  0  0  0  0  0  0  0  0  0  0
   -4.3450    2.0280    0.1660 C   0  0  0  0  0  0  0  0  0  0  0  0
   -3.2800    1.5670   -0.7890 C   0  0  0  0  0  0  0  0  0  0  0  0
   -2.3360    0.7220   -0.0570 N   0  0  0  0  0  0  0  0  0  0  0  0
   -1.1780    0.2520   -0.7220 C   0  0  0  0  0  0  0  0  0  0  0  0
   -0.8170    0.5410   -2.4130 S   0  0  0  0  0  0  0  0  0  0  0  0
    0.7810   -0.2940   -2.4020 C   0  0  0  0  0  0  0  0  0  0  0  0
    1.6370   -0.4510   -3.4330 C   0  0  0  0  0  0  0  0  0  0  0  0
    1.3190    0.0380   -4.5640 O   0  0  0  0  0  0  0  0  0  0  0  0
    2.7730   -1.1030   -3.2390 N   0  0  0  0  0  0  0  0  0  0  0  0
    2.9970   -1.5700   -2.0270 C   0  0  0  0  0  0  0  0  0  0  0  0
    4.5550   -2.4750   -1.7860 S   0  0  0  0  0  0  0  0  0  0  0  0
    5.8270   -1.2940   -1.3070 C   0  0  0  0  0  0  0  0  0  0  0  0
    2.1250   -1.4320   -0.9020 C   0  0  0  0  0  0  0  0  0  0  0  0
    2.5620   -2.0720    0.2310 C   0  0  0  0  0  0  0  0  0  0  0  0
    2.9430   -2.6600    1.2800 N   0  0  0  0  0  0  0  0  0  0  0  0
    0.9110   -0.7320   -1.0910 C   0  0  0  0  0  0  0  0  0  0  0  0
   -0.0610   -0.4750   -0.2120 C   0  0  0  0  0  0  0  0  0  0  0  0
   -0.1060   -0.8140    1.2520 C   0  0  0  0  0  0  0  0  0  0  0  0
    0.7690   -1.4250    1.8140 O   0  0  0  0  0  0  0  0  0  0  0  0
   -1.1700   -0.4330    2.0540 O   0  0  0  0  0  0  0  0  0  0  0  0
   -1.1320   -0.7810    3.4240 C   0  0  0  0  0  0  0  0  0  0  0  0
  1  2  1  0
  2  3  1  0
  3  4  1  0
  4  5  1  0
  5  6  1  0
  5 18  2  0
  6  7  1  0
  7  8  1  0
  7 17  2  0
  8  9  2  0
  8 10  1  0
 10 11  1  0
 11 12  1  0
 11 14  2  0
 12 13  1  0
 14 15  1  0
 14 17  1  0
 15 16  3  0
 17 18  1  0
 18 19  1  0
 19 20  2  0
 19 21  1  0
 21 22  1  0
M  END
