
     RDKit          3D

 20 19  0  0  0  0  0  0  0  0999 V2000
    2.6300    1.2090   -1.7590 C   0  0  0  0  0  0  0  0  0  0  0  0
    1.2100    1.2440   -1.2950 C   0  0  0  0  0  0  0  0  0  0  0  0
    0.6860   -0.1450   -1.0940 C   0  0  2  0  0  0  0  0  0  0  0  0
    0.7300   -0.9090   -2.3770 C   0  0  0  0  0  0  0  0  0  0  0  0
   -0.0580   -0.3350   -3.3820 O   0  0  0  0  0  0  0  0  0  0  0  0
   -0.6750   -0.1160   -0.5610 N   0  0  0  0  0  0  0  0  0  0  0  0
   -1.6580    0.3400   -1.4800 C   0  0  0  0  0  0  0  0  0  0  0  0
   -2.9080    0.6970   -0.7630 C   0  0  0  0  0  0  0  0  0  0  0  0
   -3.9060    1.1450   -1.4250 O   0  0  0  0  0  0  0  0  0  0  0  0
   -3.0710    0.5740    0.6270 N   0  0  0  0  0  0  0  0  0  0  0  0
   -4.3260    0.9540    1.2360 C   0  0  0  0  0  0  0  0  0  0  0  0
   -5.2550    1.3870    0.5370 O   0  0  0  0  0  0  0  0  0  0  0  0
   -4.5280    0.7940    3.0030 S   0  0  0  0  0  0  0  0  0  0  0  0
   -6.0760    1.2970    3.5000 O   0  0  0  0  0  0  0  0  0  0  0  0
    1.5470   -0.7760   -0.0610 C   0  0  0  0  0  0  0  0  0  0  0  0
    2.7540   -0.9480   -0.3750 O   0  0  0  0  0  0  0  0  0  0  0  0
    1.0690   -1.1680    1.1990 N   0  0  0  0  0  0  0  0  0  0  0  0
    1.9880   -1.7740    2.1350 C   0  0  0  0  0  0  0  0  0  0  0  0
    3.1430   -0.8740    2.5020 C   0  0  0  0  0  0  0  0  0  0  0  0
    2.6570    0.2960    3.0880 O   0  0  0  0  0  0  0  0  0  0  0  0
  1  2  1  0
  3  2  1  6
  3  4  1  0
  3  6  1  0
  3 15  1  0
  4  5  1  0
  6  7  1  0
  7  8  1  0
  8  9  2  0
  8 10  1  0
 10 11  1  0
 11 12  2  0
 11 13  1  0
 13 14  1  0
 15 16  2  0
 15 17  1  0
 17 18  1  0
 18 19  1  0
 19 20  1  0
M  CHG  1   6   1
M  END
