
     RDKit          3D

 20 19  0  0  0  0  0  0  0  0999 V2000
    3.7460    2.1630    1.4770 C   0  0  0  0  0  0  0  0  0  0  0  0
    3.8540    0.7790    1.7180 O   0  0  0  0  0  0  0  0  0  0  0  0
    2.9230    0.0600    0.9450 C   0  0  1  0  0  0  0  0  0  0  0  0
    3.6350   -0.7930   -0.0830 C   0  0  0  0  0  0  0  0  0  0  0  0
    4.5230   -1.7490    0.4940 N   0  0  0  0  0  0  0  0  0  0  0  0
    2.0300   -0.6350    1.7060 O   0  0  0  0  0  0  0  0  0  0  0  0
    0.7120   -0.3100    1.6140 C   0  0  0  0  0  0  0  0  0  0  0  0
    0.1180   -0.4920    0.2140 C   0  0  0  0  0  0  0  0  0  0  0  0
   -1.2120   -0.1270    0.2830 O   0  0  0  0  0  0  0  0  0  0  0  0
   -1.9180   -0.2230   -0.8840 C   0  0  2  0  0  0  0  0  0  0  0  0
   -1.3230    0.6060   -2.0190 C   0  0  0  0  0  0  0  0  0  0  0  0
   -3.3070    0.3710   -0.7090 C   0  0  0  0  0  0  0  0  0  0  0  0
   -4.0370    0.3300   -1.7310 O   0  0  0  0  0  0  0  0  0  0  0  0
   -3.7460    0.9250    0.4990 N   0  0  0  0  0  0  0  0  0  0  0  0
   -5.0750    1.4590    0.5560 C   0  0  0  0  0  0  0  0  0  0  0  0
   -5.8170    1.4220   -0.4670 O   0  0  0  0  0  0  0  0  0  0  0  0
   -5.5640    2.0160    1.7130 O   0  0  0  0  0  0  0  0  0  0  0  0
   -2.1700   -1.6170   -1.3120 C   0  0  0  0  0  0  0  0  0  0  0  0
   -2.7960   -1.8900   -2.5530 N   0  0  0  0  0  0  0  0  0  0  0  0
   -1.7690   -2.9110   -0.4020 S   0  0  0  0  0  0  0  0  0  0  0  0
  1  2  1  0
  2  3  1  0
  3  4  1  6
  3  6  1  0
  4  5  1  0
  6  7  1  0
  7  8  1  0
  8  9  1  0
  9 10  1  0
 10 11  1  6
 10 12  1  0
 10 18  1  0
 12 13  2  0
 12 14  1  0
 14 15  1  0
 15 16  2  0
 15 17  1  0
 18 19  1  0
 18 20  2  0
M  CHG  1   5   1
M  END
