
     RDKit          3D

 21 22  0  0  0  0  0  0  0  0999 V2000
   -6.1800    0.2440    0.1400 N   0  0  0  0  0  0  0  0  0  0  0  0
   -5.0160    1.3440   -0.5540 S   0  0  1  0  0  0  0  0  0  0  0  0
   -5.2750    1.4700   -2.0330 O   0  0  0  0  0  0  0  0  0  0  0  0
   -5.2220    2.6830    0.0650 O   0  0  0  0  0  0  0  0  0  0  0  0
   -3.3820    0.7950   -0.2550 C   0  0  0  0  0  0  0  0  0  0  0  0
   -2.4700    1.5430    0.4540 C   0  0  0  0  0  0  0  0  0  0  0  0
   -1.1850    1.1130    0.6990 C   0  0  0  0  0  0  0  0  0  0  0  0
   -0.7380   -0.1350    0.2260 C   0  0  0  0  0  0  0  0  0  0  0  0
    0.6270   -0.5660    0.5340 C   0  0  0  0  0  0  0  0  0  0  0  0
    1.3840    0.1670    1.2370 O   0  0  0  0  0  0  0  0  0  0  0  0
    1.1050   -1.8630    0.0150 C   0  0  0  0  0  0  0  0  0  0  0  0
    2.2030   -1.5000   -1.4130 S   0  0  0  0  0  0  0  0  0  0  0  0
    3.6820   -0.7370   -0.7410 C   0  0  0  0  0  0  0  0  0  0  0  0
    4.6920   -0.3410   -1.5380 N   0  0  0  0  0  0  0  0  0  0  0  0
    5.8120    0.2210   -1.0440 C   0  0  0  0  0  0  0  0  0  0  0  0
    5.9790    0.4200    0.3130 C   0  0  0  0  0  0  0  0  0  0  0  0
    4.9420    0.0130    1.1330 C   0  0  0  0  0  0  0  0  0  0  0  0
    3.8470   -0.5410    0.5910 N   0  0  0  0  0  0  0  0  0  0  0  0
   -1.6400   -0.8820   -0.4810 C   0  0  0  0  0  0  0  0  0  0  0  0
   -2.9490   -0.4260   -0.7210 C   0  0  0  0  0  0  0  0  0  0  0  0
   -4.0740   -1.4210   -1.6250 Cl  0  0  0  0  0  0  0  0  0  0  0  0
  2  1  1  1
  2  3  2  0
  2  4  2  0
  2  5  1  0
  5  6  2  0
  5 20  1  0
  6  7  1  0
  7  8  2  0
  8  9  1  0
  8 19  1  0
  9 10  2  0
  9 11  1  0
 11 12  1  0
 12 13  1  0
 13 14  2  0
 13 18  1  0
 14 15  1  0
 15 16  2  0
 16 17  1  0
 17 18  2  0
 19 20  2  0
 20 21  1  0
M  END
