
     RDKit          3D

 20 19  0  0  0  0  0  0  0  0999 V2000
   -4.2310   -1.3200   -2.0640 C   0  0  0  0  0  0  0  0  0  0  0  0
   -4.4670   -0.5840   -0.7740 C   0  0  1  0  0  0  0  0  0  0  0  0
   -5.3060   -1.4020    0.0150 O   0  0  0  0  0  0  0  0  0  0  0  0
   -3.1660   -0.4940   -0.0250 C   0  0  0  0  0  0  0  0  0  0  0  0
   -3.0330   -1.0440    1.1170 O   0  0  0  0  0  0  0  0  0  0  0  0
   -2.0550    0.1870   -0.5410 N   0  0  0  0  0  0  0  0  0  0  0  0
   -0.8060    0.3250    0.0690 N   0  0  0  0  0  0  0  0  0  0  0  0
   -0.0850   -0.7140    0.6880 C   0  0  0  0  0  0  0  0  0  0  0  0
   -0.6260   -1.8620    0.6830 O   0  0  0  0  0  0  0  0  0  0  0  0
    1.2420   -0.5770    1.3440 C   0  0  0  0  0  0  0  0  0  0  0  0
    1.8300    0.6560    1.1780 O   0  0  0  0  0  0  0  0  0  0  0  0
    2.9970    0.7020    1.9210 C   0  0  0  0  0  0  0  0  0  0  0  0
    3.9910   -0.3750    1.6310 C   0  0  0  0  0  0  0  0  0  0  0  0
    4.4740   -0.4560    0.3610 O   0  0  0  0  0  0  0  0  0  0  0  0
    5.1470    0.6960    0.0020 C   0  0  0  0  0  0  0  0  0  0  0  0
    5.7310    0.5840   -1.4010 C   0  0  0  0  0  0  0  0  0  0  0  0
    4.7190    0.3690   -2.3260 O   0  0  0  0  0  0  0  0  0  0  0  0
   -5.0870    0.7390   -0.9390 C   0  0  0  0  0  0  0  0  0  0  0  0
   -5.3600    1.5390    0.1820 N   0  0  0  0  0  0  0  0  0  0  0  0
   -5.4140    1.2150   -2.2460 S   0  0  0  0  0  0  0  0  0  0  0  0
  2  1  1  6
  2  3  1  0
  2  4  1  0
  2 18  1  0
  4  5  2  0
  4  6  1  0
  6  7  1  0
  7  8  1  0
  8  9  2  0
  8 10  1  0
 10 11  1  0
 11 12  1  0
 12 13  1  0
 13 14  1  0
 14 15  1  0
 15 16  1  0
 16 17  1  0
 18 19  1  0
 18 20  2  0
M  CHG  1  19   1
M  END
