
     RDKit          3D

 20 19  0  0  0  0  0  0  0  0999 V2000
   -5.4380    0.7180    2.2980 N   0  0  0  0  0  0  0  0  0  0  0  0
   -5.3350    0.3530    0.9250 C   0  0  0  0  0  0  0  0  0  0  0  0
   -6.3510   -0.1560    0.3690 O   0  0  0  0  0  0  0  0  0  0  0  0
   -4.0660    0.5730    0.1910 C   0  0  0  0  0  0  0  0  0  0  0  0
   -4.1980    0.1160   -1.2250 C   0  0  0  0  0  0  0  0  0  0  0  0
   -3.0320    0.2900   -1.9980 O   0  0  0  0  0  0  0  0  0  0  0  0
   -1.8090   -0.3190   -1.6960 C   0  0  0  0  0  0  0  0  0  0  0  0
   -1.7390   -1.0600   -0.6870 O   0  0  0  0  0  0  0  0  0  0  0  0
   -0.6840   -0.1420   -2.4530 O   0  0  0  0  0  0  0  0  0  0  0  0
    0.5830   -0.6340   -2.2910 C   0  0  0  0  0  0  0  0  0  0  0  0
    1.4730   -0.1230   -1.2270 C   0  0  2  0  0  0  0  0  0  0  0  0
    2.6780   -0.9160   -1.2250 O   0  0  0  0  0  0  0  0  0  0  0  0
    3.6880   -0.6030   -0.2760 C   0  0  0  0  0  0  0  0  0  0  0  0
    4.1070   -1.5800    0.6890 C   0  0  0  0  0  0  0  0  0  0  0  0
    5.2360   -1.3020    1.7850 S   0  0  0  0  0  0  0  0  0  0  0  0
    4.1940    0.5950   -0.3380 C   0  0  0  0  0  0  0  0  0  0  0  0
    5.2040    1.1310    0.4960 N   0  0  0  0  0  0  0  0  0  0  0  0
    0.9630    0.0790    0.1170 C   0  0  0  0  0  0  0  0  0  0  0  0
    1.4320   -0.6460    1.2630 N   0  0  0  0  0  0  0  0  0  0  0  0
    0.0500    0.9290    0.3560 O   0  0  0  0  0  0  0  0  0  0  0  0
  1  2  1  0
  2  3  2  0
  2  4  1  0
  4  5  1  0
  5  6  1  0
  6  7  1  0
  7  8  2  0
  7  9  1  0
  9 10  1  0
 11 10  1  6
 11 12  1  0
 11 18  1  0
 12 13  1  0
 13 14  1  0
 13 16  2  3
 14 15  2  0
 16 17  1  0
 18 19  1  0
 18 20  2  0
M  CHG  1  17   1
M  END
