
     RDKit          3D

 20 19  0  0  0  0  0  0  0  0999 V2000
   -5.4340   -0.6190   -1.3710 C   0  0  0  0  0  0  0  0  0  0  0  0
   -4.0890   -0.1820   -0.8260 C   0  0  2  0  0  0  0  0  0  0  0  0
   -3.8090   -0.7160    0.4020 O   0  0  0  0  0  0  0  0  0  0  0  0
   -2.7020   -1.5140    0.4500 C   0  0  0  0  0  0  0  0  0  0  0  0
   -1.4010   -0.8350    0.0890 C   0  0  0  0  0  0  0  0  0  0  0  0
   -0.4030   -1.8010    0.1960 O   0  0  0  0  0  0  0  0  0  0  0  0
    0.8480   -1.3360   -0.1030 C   0  0  0  0  0  0  0  0  0  0  0  0
    1.3120   -0.2010    0.7860 C   0  0  2  0  0  0  0  0  0  0  0  0
    2.6260    0.1290    0.3070 O   0  0  0  0  0  0  0  0  0  0  0  0
    2.9400    1.3840   -0.1820 C   0  0  0  0  0  0  0  0  0  0  0  0
    1.9880    2.2200   -0.1760 O   0  0  0  0  0  0  0  0  0  0  0  0
    4.2890    1.7510   -0.6830 C   0  0  0  0  0  0  0  0  0  0  0  0
    5.0930    0.6110   -0.5500 O   0  0  0  0  0  0  0  0  0  0  0  0
    6.3470    0.8070   -0.9700 N   0  0  0  0  0  0  0  0  0  0  0  0
    1.3540   -0.6580    2.1960 C   0  0  0  0  0  0  0  0  0  0  0  0
    2.2060   -1.7480    2.5170 N   0  0  0  0  0  0  0  0  0  0  0  0
    0.4820    0.0160    3.3890 S   0  0  0  0  0  0  0  0  0  0  0  0
   -4.1400    1.2900   -0.7150 C   0  0  0  0  0  0  0  0  0  0  0  0
   -3.9190    1.9410    0.5210 N   0  0  0  0  0  0  0  0  0  0  0  0
   -4.3850    1.9640   -1.7390 O   0  0  0  0  0  0  0  0  0  0  0  0
  2  1  1  1
  2  3  1  0
  2 18  1  0
  3  4  1  0
  4  5  1  0
  5  6  1  0
  6  7  1  0
  8  7  1  6
  8  9  1  0
  8 15  1  0
  9 10  1  0
 10 11  2  0
 10 12  1  0
 12 13  1  0
 13 14  1  0
 15 16  1  0
 15 17  2  0
 18 19  1  0
 18 20  2  0
M  CHG  1  14   1
M  END
