
     RDKit          3D

 20 19  0  0  0  0  0  0  0  0999 V2000
   -1.5220    1.1650   -0.6700 C   0  0  0  0  0  0  0  0  0  0  0  0
   -1.7120    0.1050    0.3700 C   0  0  2  0  0  0  0  0  0  0  0  0
   -1.4740    0.7020    1.7790 C   0  0  0  0  0  0  0  0  0  0  0  0
   -0.8190   -1.0480    0.2260 C   0  0  0  0  0  0  0  0  0  0  0  0
    0.5880   -0.9150    0.3030 N   0  0  0  0  0  0  0  0  0  0  0  0
    1.4610   -0.2280   -0.5650 C   0  0  0  0  0  0  0  0  0  0  0  0
    1.0490    0.3570   -1.5600 O   0  0  0  0  0  0  0  0  0  0  0  0
    2.8450   -0.1760   -0.3360 O   0  0  0  0  0  0  0  0  0  0  0  0
    3.6300    0.5390   -1.2660 C   0  0  0  0  0  0  0  0  0  0  0  0
    5.0700    0.5090   -0.9000 C   0  0  0  0  0  0  0  0  0  0  0  0
    5.9510    1.0810   -1.5870 O   0  0  0  0  0  0  0  0  0  0  0  0
    5.4510   -0.1960    0.2740 N   0  0  0  0  0  0  0  0  0  0  0  0
    6.8460   -0.2360    0.6470 C   0  0  0  0  0  0  0  0  0  0  0  0
    7.6330   -0.8260   -0.3390 O   0  0  0  0  0  0  0  0  0  0  0  0
   -3.1840   -0.2720    0.3850 C   0  0  1  0  0  0  0  0  0  0  0  0
   -3.9400    0.9120    0.7070 N   0  0  0  0  0  0  0  0  0  0  0  0
   -3.6500   -0.8740   -0.9010 C   0  0  0  0  0  0  0  0  0  0  0  0
   -5.3980   -1.2630   -0.7240 S   0  0  0  0  0  0  0  0  0  0  0  0
   -5.9220   -2.1080   -1.8490 O   0  0  0  0  0  0  0  0  0  0  0  0
   -6.3410    0.0850   -0.3920 O   0  0  0  0  0  0  0  0  0  0  0  0
  2  1  1  6
  2  3  1  0
  2  4  1  0
  2 15  1  0
  4  5  1  0
  5  6  1  0
  6  7  2  0
  6  8  1  0
  8  9  1  0
  9 10  1  0
 10 11  2  0
 10 12  1  0
 12 13  1  0
 13 14  1  0
 15 16  1  6
 15 17  1  0
 17 18  1  0
 18 19  2  0
 18 20  1  6
M  CHG  1  16   1
M  END
