
     RDKit          3D

 20 19  0  0  0  0  0  0  0  0999 V2000
    6.1330    1.4520    0.7570 C   0  0  0  0  0  0  0  0  0  0  0  0
    5.0370    1.4210   -0.1310 O   0  0  0  0  0  0  0  0  0  0  0  0
    4.1410    0.3330   -0.1450 C   0  0  0  0  0  0  0  0  0  0  0  0
    4.3960   -0.5710    0.6720 O   0  0  0  0  0  0  0  0  0  0  0  0
    3.0800    0.2450   -0.9650 O   0  0  0  0  0  0  0  0  0  0  0  0
    2.1120   -0.7230   -1.1050 C   0  0  0  0  0  0  0  0  0  0  0  0
    1.1980   -0.9510    0.0350 C   0  0  2  0  0  0  0  0  0  0  0  0
    0.2250   -1.9360   -0.3720 O   0  0  0  0  0  0  0  0  0  0  0  0
    0.3600    0.2960    0.3240 C   0  0  0  0  0  0  0  0  0  0  0  0
   -0.5150   -0.0530    1.3180 O   0  0  0  0  0  0  0  0  0  0  0  0
   -1.3970    0.8880    1.7390 C   0  0  0  0  0  0  0  0  0  0  0  0
   -2.3870    1.2010    0.6920 C   0  0  0  0  0  0  0  0  0  0  0  0
   -3.0570    2.2740    0.8860 O   0  0  0  0  0  0  0  0  0  0  0  0
   -2.6230    0.4090   -0.4540 N   0  0  0  0  0  0  0  0  0  0  0  0
   -3.6230    0.8010   -1.4470 C   0  0  0  0  0  0  0  0  0  0  0  0
   -4.9550    0.8460   -0.7800 C   0  0  0  0  0  0  0  0  0  0  0  0
   -5.2800   -0.4590   -0.2350 N   0  0  0  0  0  0  0  0  0  0  0  0
    1.7810   -1.3870    1.3120 C   0  0  0  0  0  0  0  0  0  0  0  0
    2.3630   -2.6730    1.4270 N   0  0  0  0  0  0  0  0  0  0  0  0
    1.7630   -0.4380    2.6310 S   0  0  0  0  0  0  0  0  0  0  0  0
  1  2  1  0
  2  3  1  0
  3  4  2  0
  3  5  1  0
  5  6  1  0
  6  7  1  0
  7  8  1  6
  7  9  1  0
  7 18  1  0
  9 10  1  0
 10 11  1  0
 11 12  1  0
 12 13  2  0
 12 14  1  0
 14 15  1  0
 15 16  1  0
 16 17  1  0
 18 19  1  0
 18 20  2  0
M  CHG  1  17   1
M  END
