
     RDKit          3D

 20 19  0  0  0  0  0  0  0  0999 V2000
   -2.7360    3.2130   -1.2660 C   0  0  0  0  0  0  0  0  0  0  0  0
   -2.6720    1.7990   -1.2250 O   0  0  0  0  0  0  0  0  0  0  0  0
   -1.9430    1.0950   -0.2640 C   0  0  0  0  0  0  0  0  0  0  0  0
   -1.3430    1.8240    0.5710 O   0  0  0  0  0  0  0  0  0  0  0  0
   -1.9060   -0.3790   -0.2630 C   0  0  1  0  0  0  0  0  0  0  0  0
   -3.3410   -0.8200    0.0630 C   0  0  0  0  0  0  0  0  0  0  0  0
   -4.2200   -0.2990   -0.9440 N   0  0  0  0  0  0  0  0  0  0  0  0
   -1.4440   -1.0210   -1.5170 C   0  0  0  0  0  0  0  0  0  0  0  0
   -1.4820   -2.8450   -1.2930 S   0  0  0  0  0  0  0  0  0  0  0  0
   -1.0460   -0.8130    0.8460 N   0  0  0  0  0  0  0  0  0  0  0  0
    0.3210   -0.3480    0.8200 C   0  0  0  0  0  0  0  0  0  0  0  0
    0.7260    0.3850   -0.1070 O   0  0  0  0  0  0  0  0  0  0  0  0
    1.1810   -0.7390    1.8600 N   0  0  0  0  0  0  0  0  0  0  0  0
    2.5570   -0.4210    1.9990 C   0  0  0  0  0  0  0  0  0  0  0  0
    3.5570   -0.9190    1.0530 C   0  0  1  0  0  0  0  0  0  0  0  0
    3.4790   -2.3310    1.0310 O   0  0  0  0  0  0  0  0  0  0  0  0
    3.7570   -0.3180   -0.2770 C   0  0  0  0  0  0  0  0  0  0  0  0
    4.1310    1.1250   -0.2110 C   0  0  0  0  0  0  0  0  0  0  0  0
    3.2880    2.0310   -0.0310 O   0  0  0  0  0  0  0  0  0  0  0  0
    5.4720    1.4820   -0.3550 O   0  0  0  0  0  0  0  0  0  0  0  0
  1  2  1  0
  2  3  1  0
  3  4  2  0
  3  5  1  0
  5  6  1  1
  5  8  1  0
  5 10  1  0
  6  7  1  0
  8  9  1  0
 10 11  1  0
 11 12  2  0
 11 13  1  0
 13 14  1  0
 14 15  1  0
 15 16  1  6
 15 17  1  0
 17 18  1  0
 18 19  2  0
 18 20  1  0
M  CHG  1   7   1
M  END
