
     RDKit          3D

 20 19  0  0  0  0  0  0  0  0999 V2000
    0.6720   -4.6150   -0.7320 C   0  0  0  0  0  0  0  0  0  0  0  0
   -0.4260   -3.1960   -0.8050 S   0  0  0  0  0  0  0  0  0  0  0  0
   -0.4950   -2.3810    0.7800 C   0  0  0  0  0  0  0  0  0  0  0  0
    0.1770   -2.8330    1.7370 N   0  0  0  0  0  0  0  0  0  0  0  0
   -1.3370   -1.1620    1.0130 C   0  0  0  0  0  0  0  0  0  0  0  0
   -0.9390   -0.0330    0.1220 C   0  0  2  0  0  0  0  0  0  0  0  0
    0.4310    0.2520    0.4010 O   0  0  0  0  0  0  0  0  0  0  0  0
    1.4000    0.2610   -0.5730 C   0  0  0  0  0  0  0  0  0  0  0  0
    1.0740    0.0100   -1.7530 O   0  0  0  0  0  0  0  0  0  0  0  0
    2.7740    0.5490   -0.2800 N   0  0  0  0  0  0  0  0  0  0  0  0
    3.7800    0.5560   -1.3060 C   0  0  0  0  0  0  0  0  0  0  0  0
    5.1080    0.8980   -0.6370 C   0  0  0  0  0  0  0  0  0  0  0  0
    4.9970    2.1530   -0.0410 O   0  0  0  0  0  0  0  0  0  0  0  0
   -1.7960    1.1770    0.4410 C   0  0  1  0  0  0  0  0  0  0  0  0
   -1.4030    2.2800   -0.2820 O   0  0  0  0  0  0  0  0  0  0  0  0
   -3.2490    0.9010    0.1980 C   0  0  0  0  0  0  0  0  0  0  0  0
   -4.1520    1.9550    0.5640 N   0  0  0  0  0  0  0  0  0  0  0  0
   -4.1430    3.2150   -0.0510 C   0  0  0  0  0  0  0  0  0  0  0  0
   -3.3820    3.5720   -0.9740 O   0  0  0  0  0  0  0  0  0  0  0  0
   -5.0580    4.1830    0.3850 O   0  0  0  0  0  0  0  0  0  0  0  0
  1  2  1  0
  2  3  1  0
  3  4  2  0
  3  5  1  0
  6  5  1  1
  6  7  1  0
  6 14  1  0
  7  8  1  0
  8  9  2  0
  8 10  1  0
 10 11  1  0
 11 12  1  0
 12 13  1  0
 14 15  1  6
 14 16  1  0
 16 17  1  0
 17 18  1  0
 18 19  2  0
 18 20  1  0
M  CHG  1   4   1
M  END
