
     RDKit          3D

 31 33  0  0  0  0  0  0  0  0999 V2000
    3.6300   -0.7050    1.2750 O   0  0  0  0  0  0  0  0  0  0  0  0
    3.4200    0.3660    0.9120 C   0  0  0  0  0  0  0  0  0  0  0  0
    2.1170    1.1090    0.9170 C   0  0  0  0  0  0  0  0  0  0  0  0
    1.0730    0.2840    1.2940 O   0  0  0  0  0  0  0  0  0  0  0  0
    0.6770   -0.7790    0.5050 C   0  0  0  0  0  0  0  0  0  0  0  0
    1.2960   -0.9890   -0.5650 O   0  0  0  0  0  0  0  0  0  0  0  0
   -0.4670   -1.6580    0.9120 C   0  0  0  0  0  0  0  0  0  0  0  0
   -1.0010   -2.4020   -0.1070 O   0  0  0  0  0  0  0  0  0  0  0  0
   -1.5120   -1.5980   -1.1370 C   0  0  0  0  0  0  0  0  0  0  0  0
   -2.5850   -0.6560   -0.6400 C   0  0  0  0  0  0  0  0  0  0  0  0
   -3.7070   -0.4380   -0.5850 N   0  0  0  0  0  0  0  0  0  0  0  0
   -4.4290    0.4720   -0.0780 C   0  0  0  0  0  0  0  0  0  0  0  0
   -5.9230    0.6850   -0.0520 C   0  0  1  0  0  0  0  0  0  0  0  0
   -6.6360   -0.5090   -0.5790 C   0  0  0  0  0  0  0  0  0  0  0  0
   -8.1310   -0.2090   -0.5440 C   0  0  0  0  0  0  0  0  0  0  0  0
   -8.5570    0.0950    0.7510 O   0  0  0  0  0  0  0  0  0  0  0  0
   -7.7790    0.9360    1.5580 C   0  0  0  0  0  0  0  0  0  0  0  0
   -8.2560    1.5810    2.5170 O   0  0  0  0  0  0  0  0  0  0  0  0
   -6.4070    1.0360    1.2440 N   0  0  0  0  0  0  0  0  0  0  0  0
   -3.6290    1.5010    0.6030 N   0  0  0  0  0  0  0  0  0  0  0  0
   -1.9660    0.8550    0.3220 S   0  0  0  0  0  0  0  0  0  0  0  0
    4.6240    1.3820    0.2420 N   0  0  0  0  0  0  0  0  0  0  0  0
    5.8420    0.2640    0.3610 C   0  0  0  0  0  0  0  0  0  0  0  0
    5.3410   -0.5810    0.8330 O   0  0  0  0  0  0  0  0  0  0  0  0
    6.6640    1.2920   -0.2800 N   0  0  0  0  0  0  0  0  0  0  0  0
    7.9960    0.1720   -0.3910 C   0  0  0  0  0  0  0  0  0  0  0  0
    7.6820   -0.9370    0.0450 O   0  0  0  0  0  0  0  0  0  0  0  0
    9.0430    0.5900   -0.8650 O   0  0  0  0  0  0  0  0  0  0  0  0
   10.2240    0.6700   -1.2850 O   0  0  0  0  0  0  0  0  0  0  0  0
   10.3490    0.0850   -2.4740 O   0  0  0  0  0  0  0  0  0  0  0  0
   10.6610   -1.2080   -2.3290 O   0  0  0  0  0  0  0  0  0  0  0  0
  1  2  2  0
  2  3  1  0
  2 22  1  0
  3  4  1  0
  4  5  1  0
  5  6  2  0
  5  7  1  0
  7  8  1  0
  8  9  1  0
  9 10  1  0
 10 11  2  0
 10 21  1  0
 11 12  1  0
 13 12  1  1
 12 20  2  0
 13 14  1  0
 13 19  1  0
 14 15  1  0
 15 16  1  0
 16 17  1  0
 17 18  2  0
 17 19  1  0
 20 21  1  0
 22 23  1  0
 23 24  2  0
 23 25  1  0
 25 26  1  0
 26 27  2  0
 26 28  1  0
 28 29  1  0
 29 30  1  0
 30 31  1  0
 24  1  1  0
M  END
