
     RDKit          3D

 30 31  0  0  0  0  0  0  0  0999 V2000
   -0.2980    2.6940    3.0140 O   0  0  0  0  0  0  0  0  0  0  0  0
   -0.7530    1.9050    2.0900 C   0  0  0  0  0  0  0  0  0  0  0  0
   -2.1880    1.8640    1.9080 C   0  0  0  0  0  0  0  0  0  0  0  0
   -2.7510    1.1260    0.8240 N   0  0  0  0  0  0  0  0  0  0  0  0
   -4.0930    0.5800    0.9160 C   0  0  0  0  0  0  0  0  0  0  0  0
   -4.3220   -0.3990   -0.1860 C   0  0  2  0  0  0  0  0  0  0  0  0
   -4.6420    0.3490   -1.3380 O   0  0  0  0  0  0  0  0  0  0  0  0
   -5.5170   -1.2950    0.0670 C   0  0  0  0  0  0  0  0  0  0  0  0
   -6.6690   -0.5770    0.2750 O   0  0  0  0  0  0  0  0  0  0  0  0
   -7.6600   -1.4020    0.4860 O   0  0  0  0  0  0  0  0  0  0  0  0
   -8.8300   -0.8040    0.3830 O   0  0  0  0  0  0  0  0  0  0  0  0
   -3.1110   -1.2340   -0.4330 C   0  0  0  0  0  0  0  0  0  0  0  0
   -2.1370   -0.3230   -1.0400 O   0  0  0  0  0  0  0  0  0  0  0  0
   -2.0950    0.9630   -0.4300 C   0  0  0  0  0  0  0  0  0  0  0  0
   -1.3450    2.2150   -1.1060 S   0  0  0  0  0  0  0  0  0  0  0  0
    0.2750    1.2060    1.4190 N   0  0  0  0  0  0  0  0  0  0  0  0
    1.6710    1.3820    1.7380 C   0  0  0  0  0  0  0  0  0  0  0  0
    2.1190    2.2370    2.7020 N   0  0  0  0  0  0  0  0  0  0  0  0
    3.4390    2.1780    2.7570 N   0  0  0  0  0  0  0  0  0  0  0  0
    3.8740    1.2980    1.8450 C   0  0  0  0  0  0  0  0  0  0  0  0
    2.7480    0.7810    1.1870 C   0  0  0  0  0  0  0  0  0  0  0  0
    2.7380   -0.2030    0.1260 C   0  0  0  0  0  0  0  0  0  0  0  0
    1.6720   -0.5930   -0.3910 O   0  0  0  0  0  0  0  0  0  0  0  0
    3.9340   -0.7890   -0.3950 N   0  0  0  0  0  0  0  0  0  0  0  0
    3.9260   -1.7700   -1.4510 C   0  0  0  0  0  0  0  0  0  0  0  0
    5.3510   -2.1690   -1.7490 C   0  0  0  0  0  0  0  0  0  0  0  0
    6.1050   -1.0690   -2.1540 O   0  0  0  0  0  0  0  0  0  0  0  0
    7.3390   -1.3770   -2.4210 O   0  0  0  0  0  0  0  0  0  0  0  0
    8.2250   -0.8110   -1.6610 O   0  0  0  0  0  0  0  0  0  0  0  0
    7.8630    0.4230   -1.3130 O   0  0  0  0  0  0  0  0  0  0  0  0
  1  2  2  0
  2  3  1  0
  2 16  1  0
  3  4  1  0
  4  5  1  0
  4 14  1  0
  5  6  1  0
  6  7  1  6
  6  8  1  0
  6 12  1  0
  8  9  1  0
  9 10  1  0
 10 11  1  0
 12 13  1  0
 13 14  1  0
 14 15  2  0
 16 17  1  0
 17 18  2  0
 17 21  1  0
 18 19  1  0
 19 20  1  0
 20 21  2  0
 21 22  1  0
 22 23  2  0
 22 24  1  0
 24 25  1  0
 25 26  1  0
 26 27  1  0
 27 28  1  0
 28 29  1  0
 29 30  1  0
M  END
