
     RDKit          3D

 31 32  0  0  0  0  0  0  0  0999 V2000
    3.5110   -0.4570   -2.2150 O   0  0  0  0  0  0  0  0  0  0  0  0
    2.8800   -0.6570   -1.1670 C   0  0  0  0  0  0  0  0  0  0  0  0
    3.5030   -1.4100   -0.0580 C   0  0  0  0  0  0  0  0  0  0  0  0
    2.8290   -0.9190    1.1560 N   0  0  0  0  0  0  0  0  0  0  0  0
    3.6470   -0.4990    2.2320 C   0  0  0  0  0  0  0  0  0  0  0  0
    2.9360    0.0490    3.5940 S   0  0  0  0  0  0  0  0  0  0  0  0
    5.0420   -0.5430    2.1530 O   0  0  0  0  0  0  0  0  0  0  0  0
    5.6450    0.4220    1.4110 O   0  0  0  0  0  0  0  0  0  0  0  0
    4.9520    1.5230    0.9260 C   0  0  0  0  0  0  0  0  0  0  0  0
    3.7310    1.6000    1.1990 O   0  0  0  0  0  0  0  0  0  0  0  0
    5.5750    2.4980    0.1740 O   0  0  0  0  0  0  0  0  0  0  0  0
    1.4120   -0.8500    1.2800 C   0  0  0  0  0  0  0  0  0  0  0  0
    0.6620   -0.8620   -0.0450 C   0  0  1  0  0  0  0  0  0  0  0  0
    1.5620   -0.1790   -0.9980 N   0  0  0  0  0  0  0  0  0  0  0  0
    0.4400   -2.2520   -0.4400 N   0  0  0  0  0  0  0  0  0  0  0  0
   -0.0090   -2.6840   -1.7010 C   0  0  0  0  0  0  0  0  0  0  0  0
    0.6750   -3.6160   -2.2830 O   0  0  0  0  0  0  0  0  0  0  0  0
   -1.1400   -2.2040   -2.4100 N   0  0  0  0  0  0  0  0  0  0  0  0
   -2.5010   -2.1660   -1.9170 C   0  0  0  0  0  0  0  0  0  0  0  0
   -3.0280   -0.7600   -1.9180 C   0  0  0  0  0  0  0  0  0  0  0  0
   -3.8150   -0.5040   -0.8100 O   0  0  0  0  0  0  0  0  0  0  0  0
   -4.0640    0.6410   -0.1250 C   0  0  0  0  0  0  0  0  0  0  0  0
   -5.3000    0.9820   -0.0200 O   0  0  0  0  0  0  0  0  0  0  0  0
   -3.1410    1.5220    0.4980 N   0  0  0  0  0  0  0  0  0  0  0  0
   -3.3450    2.9830    0.4670 C   0  0  0  0  0  0  0  0  0  0  0  0
   -4.0950    3.3860    1.5720 O   0  0  0  0  0  0  0  0  0  0  0  0
   -4.2870    4.6640    1.5660 O   0  0  0  0  0  0  0  0  0  0  0  0
   -1.9690    1.1150    1.1950 C   0  0  0  0  0  0  0  0  0  0  0  0
   -1.3800    1.8900    2.0230 O   0  0  0  0  0  0  0  0  0  0  0  0
   -1.3210   -0.2290    1.0340 C   0  0  0  0  0  0  0  0  0  0  0  0
   -0.4780   -0.1220   -0.0250 O   0  0  0  0  0  0  0  0  0  0  0  0
  1  2  2  0
  2  3  1  0
  2 14  1  0
  3  4  1  0
  4  5  1  0
  4 12  1  0
  5  6  2  0
  5  7  1  0
  7  8  1  0
  8  9  1  0
  9 10  2  0
  9 11  1  0
 13 12  1  1
 13 14  1  0
 13 15  1  0
 13 31  1  0
 15 16  1  0
 16 17  2  0
 16 18  1  0
 18 19  1  0
 19 20  1  0
 20 21  1  0
 21 22  1  0
 22 23  2  0
 22 24  1  0
 24 25  1  0
 24 28  1  0
 25 26  1  0
 26 27  1  0
 28 29  2  0
 28 30  1  0
 30 31  1  0
M  END
