
     RDKit          3D

 31 33  0  0  0  0  0  0  0  0999 V2000
    6.2530    3.6080    1.2140 N   0  0  0  0  0  0  0  0  0  0  0  0
    6.0830    2.5140    0.3220 C   0  0  0  0  0  0  0  0  0  0  0  0
    7.0060    2.1620   -0.5940 N   0  0  0  0  0  0  0  0  0  0  0  0
    6.8120    1.1180   -1.4250 C   0  0  0  0  0  0  0  0  0  0  0  0
    5.6850    0.3860   -1.3700 N   0  0  0  0  0  0  0  0  0  0  0  0
    4.7300    0.6840   -0.4830 C   0  0  0  0  0  0  0  0  0  0  0  0
    4.9190    1.7530    0.3730 C   0  0  0  0  0  0  0  0  0  0  0  0
    3.8250    1.8110    1.1300 N   0  0  0  0  0  0  0  0  0  0  0  0
    2.9890    0.8210    0.7620 C   0  0  0  0  0  0  0  0  0  0  0  0
    3.5300    0.1070   -0.2400 N   0  0  0  0  0  0  0  0  0  0  0  0
    2.9480   -1.0410   -0.9160 C   0  0  2  0  0  0  0  0  0  0  0  0
    1.5840   -0.9380   -1.0520 O   0  0  0  0  0  0  0  0  0  0  0  0
    1.0290   -2.1880   -0.9270 C   0  0  2  0  0  0  0  0  0  0  0  0
   -0.2830   -2.1610   -0.1530 C   0  0  0  0  0  0  0  0  0  0  0  0
   -1.2270   -1.3820   -0.7430 O   0  0  0  0  0  0  0  0  0  0  0  0
   -2.6750   -1.2660   -0.0270 P   0  0  0  0  0  0  0  0  0  0  0  0
   -2.8190   -1.2640    1.6580 O   0  0  0  0  0  0  0  0  0  0  0  0
   -4.0630   -1.2750   -0.8880 O   0  0  0  0  0  0  0  0  0  0  0  0
   -2.6030    0.2590    0.0500 O   0  0  0  0  0  0  0  0  0  0  0  0
   -3.7380    1.1940    0.5470 P   0  0  0  0  0  0  0  0  0  0  0  0
   -4.5280    0.0160    1.3150 O   0  0  0  0  0  0  0  0  0  0  0  0
   -4.0730    1.4500   -1.0780 O   0  0  0  0  0  0  0  0  0  0  0  0
   -4.7840    2.2820    0.8310 O   0  0  0  0  0  0  0  0  0  0  0  0
   -6.3580    2.1780    0.4430 P   0  0  0  0  0  0  0  0  0  0  0  0
   -6.1810    1.1590   -0.6630 O   0  0  0  0  0  0  0  0  0  0  0  0
   -7.4430    1.3870    1.3500 O   0  0  0  0  0  0  0  0  0  0  0  0
   -7.1270    3.4370   -1.1100 S   0  0  0  0  0  0  0  0  0  0  0  0
    1.9870   -3.0540   -0.1720 C   0  0  1  0  0  0  0  0  0  0  0  0
    2.0240   -4.3430   -0.7050 O   0  0  0  0  0  0  0  0  0  0  0  0
    3.2900   -2.3400   -0.2850 C   0  0  1  0  0  0  0  0  0  0  0  0
    4.1500   -3.1000   -1.0660 O   0  0  0  0  0  0  0  0  0  0  0  0
  1  2  1  0
  2  3  2  0
  2  7  1  0
  3  4  1  0
  4  5  2  0
  5  6  1  0
  6  7  2  0
  6 10  1  0
  7  8  1  0
  8  9  2  0
  9 10  1  0
 11 10  1  1
 11 12  1  0
 11 30  1  0
 12 13  1  0
 13 14  1  1
 13 28  1  0
 14 15  1  0
 15 16  1  0
 16 17  1  0
 16 18  1  0
 16 19  1  0
 19 20  1  0
 20 21  1  0
 20 22  1  0
 20 23  1  0
 23 24  1  0
 24 25  1  0
 24 26  1  0
 24 27  1  0
 28 29  1  6
 28 30  1  0
 30 31  1  6
M  END
