
     RDKit          3D

 30 32  0  0  0  0  0  0  0  0999 V2000
    2.9990   -1.7080    0.2450 O   0  0  0  0  0  0  0  0  0  0  0  0
    3.6150   -0.5500   -0.0530 C   0  0  0  0  0  0  0  0  0  0  0  0
    4.7450   -0.7410   -0.9430 C   0  0  0  0  0  0  0  0  0  0  0  0
    6.0320   -1.1110   -0.1700 C   0  0  0  0  0  0  0  0  0  0  0  0
    6.4950    0.1190    0.0450 O   0  0  0  0  0  0  0  0  0  0  0  0
    6.8250    0.5970    1.1810 O   0  0  0  0  0  0  0  0  0  0  0  0
    6.6560    2.0090    0.7950 O   0  0  0  0  0  0  0  0  0  0  0  0
    7.8590    2.1110    0.1590 O   0  0  0  0  0  0  0  0  0  0  0  0
    2.9730    0.5300    0.5390 N   0  0  0  0  0  0  0  0  0  0  0  0
    1.6310    0.4670    0.9750 C   0  0  0  0  0  0  0  0  0  0  0  0
    1.1040    1.7770    1.8460 S   0  0  0  0  0  0  0  0  0  0  0  0
    0.5360   -0.3420    0.4870 N   0  0  0  0  0  0  0  0  0  0  0  0
   -0.8350   -0.0100    0.9920 C   0  0  0  0  0  0  0  0  0  0  0  0
   -1.8970   -0.3560   -0.1070 C   0  0  1  0  0  0  0  0  0  0  0  0
   -2.9700    0.5070   -0.1590 O   0  0  0  0  0  0  0  0  0  0  0  0
   -4.0190    0.2530    0.8270 C   0  0  2  0  0  0  0  0  0  0  0  0
   -4.3240   -1.1620    0.9450 C   0  0  0  0  0  0  0  0  0  0  0  0
   -5.7210   -1.4860    1.0440 O   0  0  0  0  0  0  0  0  0  0  0  0
   -6.4910   -1.1560   -0.0620 C   0  0  0  0  0  0  0  0  0  0  0  0
   -7.3430   -1.8470   -0.6440 O   0  0  0  0  0  0  0  0  0  0  0  0
   -6.2050    0.2050   -0.5230 N   0  0  0  0  0  0  0  0  0  0  0  0
   -5.1910    0.9760    0.2320 C   0  0  0  0  0  0  0  0  0  0  0  0
   -5.1960    2.1480    0.6360 N   0  0  0  0  0  0  0  0  0  0  0  0
   -4.1820    2.4350    1.5700 C   0  0  0  0  0  0  0  0  0  0  0  0
   -3.8930    3.5400    2.1290 O   0  0  0  0  0  0  0  0  0  0  0  0
   -3.4820    1.1630    1.7730 N   0  0  0  0  0  0  0  0  0  0  0  0
   -1.1600   -0.1340   -1.3780 C   0  0  0  0  0  0  0  0  0  0  0  0
   -0.2760   -1.1880   -1.5680 O   0  0  0  0  0  0  0  0  0  0  0  0
    0.6240   -1.3770   -0.4380 C   0  0  0  0  0  0  0  0  0  0  0  0
    1.3010   -2.3750   -0.4690 O   0  0  0  0  0  0  0  0  0  0  0  0
  1  2  2  0
  2  3  1  0
  2  9  1  0
  3  4  1  0
  4  5  1  0
  5  6  1  0
  6  7  1  0
  7  8  1  0
  9 10  1  0
 10 11  2  0
 10 12  1  0
 12 13  1  0
 12 29  1  0
 13 14  1  0
 14 15  1  6
 14 27  1  0
 16 15  1  6
 16 17  1  0
 16 22  1  0
 16 26  1  0
 17 18  1  0
 18 19  1  0
 19 20  2  0
 19 21  1  0
 21 22  1  0
 22 23  2  0
 23 24  1  0
 24 25  2  0
 24 26  1  0
 27 28  1  0
 28 29  1  0
 29 30  2  0
M  END
