
     RDKit          3D

 31 32  0  0  0  0  0  0  0  0999 V2000
   -1.3300   -0.4710    1.5240 C   0  0  0  0  0  0  0  0  0  0  0  0
   -0.8190    0.3150    0.3400 C   0  0  1  0  0  0  0  0  0  0  0  0
   -1.8910    1.0920   -0.1710 O   0  0  0  0  0  0  0  0  0  0  0  0
   -2.5470    2.0370    0.5730 C   0  0  0  0  0  0  0  0  0  0  0  0
   -2.1620    2.2070    1.7670 O   0  0  0  0  0  0  0  0  0  0  0  0
   -3.6230    2.8310    0.0890 N   0  0  0  0  0  0  0  0  0  0  0  0
   -4.2220    3.7790    0.9620 C   0  0  0  0  0  0  0  0  0  0  0  0
   -3.7930    3.9040    2.1490 O   0  0  0  0  0  0  0  0  0  0  0  0
   -5.2770    4.5930    0.5690 O   0  0  0  0  0  0  0  0  0  0  0  0
    0.2280    1.3200    0.7490 C   0  0  0  0  0  0  0  0  0  0  0  0
    1.3990    0.8120    1.1120 N   0  0  0  0  0  0  0  0  0  0  0  0
    2.2220    1.8130    1.4430 C   0  0  0  0  0  0  0  0  0  0  0  0
    1.5180    2.9440    1.2730 N   0  0  0  0  0  0  0  0  0  0  0  0
    0.3200    2.6070    0.8540 O   0  0  0  0  0  0  0  0  0  0  0  0
    3.5920    1.4620    1.8750 C   0  0  0  0  0  0  0  0  0  0  0  0
    4.4580    1.1130    0.8850 O   0  0  0  0  0  0  0  0  0  0  0  0
    3.9410    0.3600   -0.1610 C   0  0  0  0  0  0  0  0  0  0  0  0
    3.8820   -1.0780    0.1740 C   0  0  0  0  0  0  0  0  0  0  0  0
    3.6750   -1.3350    1.4170 O   0  0  0  0  0  0  0  0  0  0  0  0
    4.0250   -2.1930   -0.6880 N   0  0  0  0  0  0  0  0  0  0  0  0
    3.2360   -2.5320   -1.8210 C   0  0  0  0  0  0  0  0  0  0  0  0
    3.9090   -2.5520   -2.9350 O   0  0  0  0  0  0  0  0  0  0  0  0
    1.8650   -2.8390   -1.8820 N   0  0  0  0  0  0  0  0  0  0  0  0
    0.8660   -2.8160   -0.8770 C   0  0  0  0  0  0  0  0  0  0  0  0
    0.3390   -3.9500   -0.4980 O   0  0  0  0  0  0  0  0  0  0  0  0
    0.3590   -1.7100   -0.2230 O   0  0  0  0  0  0  0  0  0  0  0  0
   -0.2350   -0.5690   -0.7450 C   0  0  1  0  0  0  0  0  0  0  0  0
   -1.2880   -0.7700   -1.7790 C   0  0  0  0  0  0  0  0  0  0  0  0
   -2.5490   -1.4070   -1.3280 C   0  0  0  0  0  0  0  0  0  0  0  0
   -2.4350   -2.6630   -0.7990 O   0  0  0  0  0  0  0  0  0  0  0  0
   -3.5650   -3.1850   -0.4160 O   0  0  0  0  0  0  0  0  0  0  0  0
  2  1  1  1
  2  3  1  0
  2 10  1  0
  2 27  1  0
  3  4  1  0
  4  5  2  0
  4  6  1  0
  6  7  1  0
  7  8  2  0
  7  9  1  0
 10 11  2  0
 10 14  1  0
 11 12  1  0
 12 13  2  0
 12 15  1  0
 13 14  1  0
 15 16  1  0
 16 17  1  0
 17 18  1  0
 18 19  2  0
 18 20  1  0
 20 21  1  0
 21 22  2  0
 21 23  1  0
 23 24  1  0
 24 25  2  0
 24 26  1  0
 26 27  1  0
 27 28  1  6
 28 29  1  0
 29 30  1  0
 30 31  1  0
M  END
