
     RDKit          3D

 18 19  0  0  0  0  0  0  0  0999 V2000
    5.2340   -1.4400    0.3950 N   0  0  0  0  0  0  0  0  0  0  0  0
    4.1830   -0.7190    0.1190 C   0  0  0  0  0  0  0  0  0  0  0  0
    2.9230   -0.9930    0.1840 N   0  0  0  0  0  0  0  0  0  0  0  0
    1.9680   -0.1440   -0.1330 C   0  0  0  0  0  0  0  0  0  0  0  0
    0.5300   -0.4950   -0.0580 C   0  0  0  0  0  0  0  0  0  0  0  0
    0.2820   -1.7030    0.3400 O   0  0  0  0  0  0  0  0  0  0  0  0
   -0.6060    0.2480   -0.3430 N   0  0  0  0  0  0  0  0  0  0  0  0
   -0.7680    1.5970   -0.7820 C   0  0  0  0  0  0  0  0  0  0  0  0
   -0.8810    2.6400    0.2830 C   0  0  0  0  0  0  0  0  0  0  0  0
    0.2240    2.6530    1.1050 O   0  0  0  0  0  0  0  0  0  0  0  0
   -1.8770   -0.5040   -0.2980 C   0  0  0  0  0  0  0  0  0  0  0  0
   -2.1190   -1.4240   -1.2260 C   0  0  0  0  0  0  0  0  0  0  0  0
   -3.4390   -2.0490   -0.9830 C   0  0  0  0  0  0  0  0  0  0  0  0
   -3.9090   -1.3830    0.2230 C   0  0  0  0  0  0  0  0  0  0  0  0
   -2.9710   -0.4900    0.5870 C   0  0  0  0  0  0  0  0  0  0  0  0
   -3.1880    0.4760    2.0520 Cl  0  0  0  0  0  0  0  0  0  0  0  0
    2.4220    1.1160   -0.5590 C   0  0  0  0  0  0  0  0  0  0  0  0
    4.2170    0.9410   -0.4550 S   0  0  0  0  0  0  0  0  0  0  0  0
  1  2  2  0
  2  3  1  0
  2 18  1  0
  3  4  1  0
  4  5  1  0
  4 17  2  0
  5  6  2  0
  5  7  1  0
  7  8  1  0
  7 11  1  0
  8  9  1  0
  9 10  1  0
 11 12  2  0
 11 15  1  0
 12 13  1  0
 13 14  1  0
 14 15  2  0
 15 16  1  0
 17 18  1  0
M  CHG  1   1   1
M  END
