
     RDKit          3D

 18 19  0  0  0  0  0  0  0  0999 V2000
    5.3950   -0.0360   -1.8050 C   0  0  0  0  0  0  0  0  0  0  0  0
    4.4490   -0.5350   -0.8510 O   0  0  0  0  0  0  0  0  0  0  0  0
    3.1800   -0.0080   -0.7390 C   0  0  0  0  0  0  0  0  0  0  0  0
    2.8160    0.9270   -1.4710 O   0  0  0  0  0  0  0  0  0  0  0  0
    2.2160   -0.5440    0.2600 C   0  0  0  0  0  0  0  0  0  0  0  0
    2.6090   -1.6330    1.1280 C   0  0  0  0  0  0  0  0  0  0  0  0
    1.0730   -1.8250    2.0750 S   0  0  0  0  0  0  0  0  0  0  0  0
    0.1720   -0.4410    1.1700 C   0  0  0  0  0  0  0  0  0  0  0  0
   -1.2080   -0.1830    1.6420 C   0  0  0  0  0  0  0  0  0  0  0  0
   -1.8610   -0.7310    2.6590 C   0  0  0  0  0  0  0  0  0  0  0  0
   -3.1760   -0.1580    2.7340 N   0  0  0  0  0  0  0  0  0  0  0  0
   -2.9690    1.2030    2.1930 C   0  0  0  0  0  0  0  0  0  0  0  0
   -2.1400    0.7490    0.9970 C   0  0  0  0  0  0  0  0  0  0  0  0
   -2.2840    1.0500   -0.2300 C   0  0  0  0  0  0  0  0  0  0  0  0
   -3.5380    2.2540   -0.6090 Cl  0  0  0  0  0  0  0  0  0  0  0  0
   -1.6060    0.4620   -1.3890 C   0  0  0  0  0  0  0  0  0  0  0  0
   -2.5980   -0.0770   -2.3480 N   0  0  0  0  0  0  0  0  0  0  0  0
    1.0110   -0.1270    0.4490 N   0  0  0  0  0  0  0  0  0  0  0  0
  1  2  1  0
  2  3  1  0
  3  4  2  0
  3  5  1  0
  5  6  2  0
  5 18  1  0
  6  7  1  0
  7  8  1  0
  8  9  1  0
  8 18  2  0
  9 10  2  0
  9 13  1  0
 10 11  1  0
 11 12  1  0
 12 13  1  0
 13 14  2  3
 14 15  1  0
 14 16  1  0
 16 17  1  0
M  CHG  1  17   1
M  END
