
     RDKit          3D

 18 19  0  0  0  0  0  0  0  0999 V2000
   -4.7280    1.3850   -1.1510 N   0  0  0  0  0  0  0  0  0  0  0  0
   -4.1180    0.0390   -1.2890 C   0  0  0  0  0  0  0  0  0  0  0  0
   -3.4440   -0.2850   -0.0060 C   0  0  0  0  0  0  0  0  0  0  0  0
   -3.9440   -0.6890    1.1560 N   0  0  0  0  0  0  0  0  0  0  0  0
   -2.9280   -0.9710    1.9950 N   0  0  0  0  0  0  0  0  0  0  0  0
   -1.7500   -0.7320    1.3820 C   0  0  0  0  0  0  0  0  0  0  0  0
   -2.0480   -0.3200    0.1600 C   0  0  0  0  0  0  0  0  0  0  0  0
   -1.0750    0.1500   -0.8980 C   0  0  0  0  0  0  0  0  0  0  0  0
    0.2250    0.0370   -0.3240 N   0  0  0  0  0  0  0  0  0  0  0  0
    1.3510   -0.5640   -0.9810 C   0  0  0  0  0  0  0  0  0  0  0  0
    1.2090   -1.2770   -1.9760 O   0  0  0  0  0  0  0  0  0  0  0  0
    2.5980   -0.3250   -0.4560 O   0  0  0  0  0  0  0  0  0  0  0  0
    3.7870   -0.9340   -0.8200 C   0  0  0  0  0  0  0  0  0  0  0  0
    4.9660   -0.0920   -0.5210 C   0  0  0  0  0  0  0  0  0  0  0  0
    4.8330    0.6800    0.7630 C   0  0  0  0  0  0  0  0  0  0  0  0
    3.5110    1.8980    0.4420 Cl  0  0  0  0  0  0  0  0  0  0  0  0
    0.3290    0.4680    1.0810 C   0  0  0  0  0  0  0  0  0  0  0  0
   -0.3410   -0.7110    1.9050 C   0  0  0  0  0  0  0  0  0  0  0  0
  1  2  1  0
  2  3  1  0
  3  4  2  0
  3  7  1  0
  4  5  1  0
  5  6  1  0
  6  7  2  0
  6 18  1  0
  7  8  1  0
  8  9  1  0
  9 10  1  0
  9 17  1  0
 10 11  2  0
 10 12  1  0
 12 13  1  0
 13 14  1  0
 14 15  1  0
 15 16  1  0
 17 18  1  0
M  CHG  1   1   1
M  END
