
     RDKit          3D

 12 12  0  0  0  0  0  0  0  0999 V2000
   -2.6460   -0.5080    0.8840 C   0  0  0  0  0  0  0  0  0  0  0  0
   -1.1960   -0.6830    0.8340 C   0  0  0  0  0  0  0  0  0  0  0  0
   -0.3860    0.0810    0.1440 C   0  0  0  0  0  0  0  0  0  0  0  0
    1.0830   -0.1860    0.1620 C   0  0  0  0  0  0  0  0  0  0  0  0
    1.5660   -1.1630    0.8540 N   0  0  0  0  0  0  0  0  0  0  0  0
    3.3130   -1.1160    0.5910 S   0  0  0  0  0  0  0  0  0  0  0  0
    3.1690   -0.0440   -0.9110 C   0  0  0  0  0  0  0  0  0  0  0  0
    1.9580    0.5700   -0.5310 O   0  0  0  0  0  0  0  0  0  0  0  0
   -0.9070    1.2150   -0.6590 C   0  0  2  0  0  0  0  0  0  0  0  0
   -0.6050    1.0380   -2.0150 F   0  0  0  0  0  0  0  0  0  0  0  0
   -0.2060    2.3760   -0.3070 F   0  0  0  0  0  0  0  0  0  0  0  0
   -2.2210    1.4890   -0.4400 F   0  0  0  0  0  0  0  0  0  0  0  0
  1  2  1  0
  2  3  2  3
  3  4  1  0
  3  9  1  0
  4  5  2  0
  4  8  1  0
  5  6  1  0
  6  7  1  0
  7  8  1  0
  9 10  1  6
  9 11  1  0
  9 12  1  0
M  END
