
     RDKit          3D

 17 18  0  0  0  0  0  0  0  0999 V2000
   -3.1220    2.8060    0.9000 O   0  0  0  0  0  0  0  0  0  0  0  0
   -3.1150    1.6170    0.2000 C   0  0  0  0  0  0  0  0  0  0  0  0
   -2.6440    0.4880    1.1150 C   0  0  0  0  0  0  0  0  0  0  0  0
   -2.6250   -0.7740    0.4120 N   0  0  0  0  0  0  0  0  0  0  0  0
   -3.5840   -1.6950    0.2810 C   0  0  0  0  0  0  0  0  0  0  0  0
   -3.1400   -2.7530   -0.4760 C   0  0  0  0  0  0  0  0  0  0  0  0
   -1.8710   -2.4400   -0.8010 N   0  0  0  0  0  0  0  0  0  0  0  0
   -1.5540   -1.2340   -0.2610 C   0  0  0  0  0  0  0  0  0  0  0  0
   -0.2350   -0.5790   -0.4180 C   0  0  0  0  0  0  0  0  0  0  0  0
    0.6230   -0.9880    0.6520 N   0  0  0  0  0  0  0  0  0  0  0  0
    1.9780   -0.4720    0.7130 C   0  0  0  0  0  0  0  0  0  0  0  0
    2.7870   -0.8830    1.7560 C   0  0  0  0  0  0  0  0  0  0  0  0
    4.3360   -0.0240    1.4470 S   0  0  0  0  0  0  0  0  0  0  0  0
    3.7820    0.8000   -0.0270 C   0  0  0  0  0  0  0  0  0  0  0  0
    4.5990    1.7280   -0.8560 C   0  0  0  0  0  0  0  0  0  0  0  0
    5.8580    1.8320   -0.2740 O   0  0  0  0  0  0  0  0  0  0  0  0
    2.5130    0.3810   -0.1740 C   0  0  0  0  0  0  0  0  0  0  0  0
  1  2  1  0
  2  3  1  0
  3  4  1  0
  4  5  1  0
  4  8  1  0
  5  6  2  0
  6  7  1  0
  7  8  2  0
  8  9  1  0
  9 10  1  0
 10 11  1  0
 11 12  2  0
 11 17  1  0
 12 13  1  0
 13 14  1  0
 14 15  1  0
 14 17  2  0
 15 16  1  0
M  CHG  1   7   1
M  END
