
     RDKit          3D

 28 30  0  0  0  0  0  0  0  0999 V2000
    1.8730    2.4810    1.4610 C   0  0  0  0  0  0  0  0  0  0  0  0
    1.4980    1.2850    2.1170 O   0  0  0  0  0  0  0  0  0  0  0  0
    0.8210    0.5430    1.1640 C   0  0  1  0  0  0  0  0  0  0  0  0
    1.6750    0.2770    0.0440 N   0  0  0  0  0  0  0  0  0  0  0  0
    2.7830   -0.5900    0.2070 C   0  0  0  0  0  0  0  0  0  0  0  0
    3.0320   -1.1310    1.3260 O   0  0  0  0  0  0  0  0  0  0  0  0
    3.7320   -0.9340   -0.8930 C   0  0  0  0  0  0  0  0  0  0  0  0
    5.1230   -0.5520   -0.5330 C   0  0  0  0  0  0  0  0  0  0  0  0
    5.8330    0.5840   -0.7290 C   0  0  0  0  0  0  0  0  0  0  0  0
    7.0830    0.6780   -0.2980 C   0  0  0  0  0  0  0  0  0  0  0  0
    7.6810   -0.3780    0.3550 C   0  0  0  0  0  0  0  0  0  0  0  0
    6.3040   -1.6290    0.3470 S   0  0  0  0  0  0  0  0  0  0  0  0
    0.1790   -0.7120    1.6440 C   0  0  0  0  0  0  0  0  0  0  0  0
    0.6670   -1.6510    2.3500 O   0  0  0  0  0  0  0  0  0  0  0  0
   -1.0560   -0.4270    1.0390 N   0  0  0  0  0  0  0  0  0  0  0  0
   -2.3420   -0.8840    0.5940 C   0  0  0  0  0  0  0  0  0  0  0  0
   -2.9350   -1.9200    1.4190 C   0  0  0  0  0  0  0  0  0  0  0  0
   -2.2890   -2.3640    2.4380 O   0  0  0  0  0  0  0  0  0  0  0  0
   -4.1540   -2.5350    1.2690 O   0  0  0  0  0  0  0  0  0  0  0  0
   -2.9070   -0.3760   -0.4630 C   0  0  0  0  0  0  0  0  0  0  0  0
   -4.2110   -0.8160   -0.9450 C   0  0  0  0  0  0  0  0  0  0  0  0
   -5.1680    0.2430   -0.9680 O   0  0  0  0  0  0  0  0  0  0  0  0
   -6.4480   -0.1260   -1.4260 C   0  0  0  0  0  0  0  0  0  0  0  0
   -7.4730    0.8280   -1.4950 N   0  0  0  0  0  0  0  0  0  0  0  0
   -6.6960   -1.3050   -1.7780 O   0  0  0  0  0  0  0  0  0  0  0  0
   -2.3340    0.7010   -1.3410 C   0  0  0  0  0  0  0  0  0  0  0  0
   -0.7890    1.3880   -0.8520 S   0  0  0  0  0  0  0  0  0  0  0  0
   -0.5930    0.9400    0.8920 C   0  0  2  0  0  0  0  0  0  0  0  0
  1  2  1  0
  2  3  1  0
  3  4  1  6
  3 13  1  0
  3 28  1  0
  4  5  1  0
  5  6  2  0
  5  7  1  0
  7  8  1  0
  8  9  2  0
  8 12  1  0
  9 10  1  0
 10 11  2  0
 11 12  1  0
 13 14  2  0
 13 15  1  0
 15 16  1  0
 15 28  1  0
 16 17  1  0
 16 20  2  0
 17 18  2  0
 17 19  1  0
 20 21  1  0
 20 26  1  0
 21 22  1  0
 22 23  1  0
 23 24  1  0
 23 25  2  0
 26 27  1  0
 28 27  1  6
M  END
