
     RDKit          3D

 12 12  0  0  0  0  0  0  0  0999 V2000
    3.1930    1.4990    0.0690 F   0  0  0  0  0  0  0  0  0  0  0  0
    3.0810    0.1320    0.0470 C   0  0  1  0  0  0  0  0  0  0  0  0
    3.4500   -0.4140   -1.1690 F   0  0  0  0  0  0  0  0  0  0  0  0
    3.8550   -0.4250    1.0540 F   0  0  0  0  0  0  0  0  0  0  0  0
    1.6480   -0.2610    0.3470 C   0  0  0  0  0  0  0  0  0  0  0  0
    0.7620    0.2990   -0.6340 O   0  0  0  0  0  0  0  0  0  0  0  0
   -0.5980   -0.0220   -0.4230 C   0  0  0  0  0  0  0  0  0  0  0  0
   -1.3520    0.9440   -0.0040 C   0  0  0  0  0  0  0  0  0  0  0  0
   -2.7820    0.8620    0.2850 C   0  0  0  0  0  0  0  0  0  0  0  0
   -3.4440   -0.7670   -0.0020 S   0  0  0  0  0  0  0  0  0  0  0  0
   -2.1760   -1.8160   -0.5540 N   0  0  0  0  0  0  0  0  0  0  0  0
   -0.9790   -1.3770   -0.6980 C   0  0  0  0  0  0  0  0  0  0  0  0
  2  1  1  6
  2  3  1  0
  2  4  1  0
  2  5  1  0
  5  6  1  0
  6  7  1  0
  7  8  2  0
  7 12  1  0
  8  9  1  0
  9 10  1  0
 10 11  1  0
 11 12  2  0
M  END
