
     RDKit          3D

 12 12  0  0  0  0  0  0  0  0999 V2000
    3.9020    0.5840   -1.3190 F   0  0  0  0  0  0  0  0  0  0  0  0
    3.0450    0.1690   -0.3050 C   0  0  1  0  0  0  0  0  0  0  0  0
    3.3440   -1.1230    0.0890 F   0  0  0  0  0  0  0  0  0  0  0  0
    3.1820    1.0640    0.7280 F   0  0  0  0  0  0  0  0  0  0  0  0
    1.7510    0.1840   -0.7570 O   0  0  0  0  0  0  0  0  0  0  0  0
    0.9090   -0.2340    0.2720 C   0  0  0  0  0  0  0  0  0  0  0  0
   -0.5310   -0.2210   -0.2170 C   0  0  0  0  0  0  0  0  0  0  0  0
   -1.3760    0.5520    0.4200 C   0  0  0  0  0  0  0  0  0  0  0  0
   -2.8190    0.7300    0.1290 C   0  0  0  0  0  0  0  0  0  0  0  0
   -3.3670   -0.2670   -1.2660 S   0  0  0  0  0  0  0  0  0  0  0  0
   -1.9950   -1.1610   -1.8650 N   0  0  0  0  0  0  0  0  0  0  0  0
   -0.8360   -1.0770   -1.3570 C   0  0  0  0  0  0  0  0  0  0  0  0
  2  1  1  6
  2  3  1  0
  2  4  1  0
  2  5  1  0
  5  6  1  0
  6  7  1  0
  7  8  2  0
  7 12  1  0
  8  9  1  0
  9 10  1  0
 10 11  1  0
 11 12  2  0
M  END
