
     RDKit          3D

 18 19  0  0  0  0  0  0  0  0999 V2000
    0.1200    0.9690    1.7350 C   0  0  0  0  0  0  0  0  0  0  0  0
    0.1000    0.4200    0.4180 N   0  0  0  0  0  0  0  0  0  0  0  0
   -1.0670    0.0870   -0.2180 C   0  0  0  0  0  0  0  0  0  0  0  0
   -2.4170    0.2140    0.3390 C   0  0  0  0  0  0  0  0  0  0  0  0
   -3.6300   -0.0500   -0.1490 C   0  0  0  0  0  0  0  0  0  0  0  0
   -4.7310    0.1560    0.5750 C   0  0  0  0  0  0  0  0  0  0  0  0
   -4.5310    0.6620    1.8670 C   0  0  0  0  0  0  0  0  0  0  0  0
   -5.7190    1.0760    3.1490 Cl  0  0  0  0  0  0  0  0  0  0  0  0
   -2.7450    0.8080    1.9500 S   0  0  0  0  0  0  0  0  0  0  0  0
   -0.7150   -0.3790   -1.4320 C   0  0  0  0  0  0  0  0  0  0  0  0
   -1.6020   -0.8780   -2.5380 C   0  0  0  0  0  0  0  0  0  0  0  0
   -0.8040   -1.2760   -3.6420 O   0  0  0  0  0  0  0  0  0  0  0  0
    0.6230   -0.3490   -1.5740 N   0  0  0  0  0  0  0  0  0  0  0  0
    1.1210    0.1570   -0.3960 C   0  0  0  0  0  0  0  0  0  0  0  0
    2.3940    0.2740   -0.2650 N   0  0  0  0  0  0  0  0  0  0  0  0
    3.0930    0.7550    0.8870 C   0  0  0  0  0  0  0  0  0  0  0  0
    4.6110    0.6020    0.6230 C   0  0  0  0  0  0  0  0  0  0  0  0
    4.8540   -0.7400    0.4130 O   0  0  0  0  0  0  0  0  0  0  0  0
  1  2  1  0
  2  3  1  0
  2 14  1  0
  3  4  1  0
  3 10  2  0
  4  5  2  0
  4  9  1  0
  5  6  1  0
  6  7  2  0
  7  8  1  0
  7  9  1  0
 10 11  1  0
 10 13  1  0
 11 12  1  0
 13 14  1  0
 14 15  2  3
 15 16  1  0
 16 17  1  0
 17 18  1  0
M  CHG  1  15   1
M  END
