
     RDKit          3D

 20 19  0  0  0  0  0  0  0  0999 V2000
   -5.0740    1.5030   -0.6390 C   0  0  0  0  0  0  0  0  0  0  0  0
   -4.6420    0.0580   -0.4550 C   0  0  1  0  0  0  0  0  0  0  0  0
   -4.9630   -0.6600   -1.6020 O   0  0  0  0  0  0  0  0  0  0  0  0
   -3.1740   -0.0550   -0.2490 C   0  0  0  0  0  0  0  0  0  0  0  0
   -2.4460   -0.6970   -1.0140 O   0  0  0  0  0  0  0  0  0  0  0  0
   -2.6310    0.6120    0.8780 N   0  0  0  0  0  0  0  0  0  0  0  0
   -1.2560    0.5330    1.1120 N   0  0  0  0  0  0  0  0  0  0  0  0
   -0.3890    0.9630    0.0750 C   0  0  0  0  0  0  0  0  0  0  0  0
   -0.8420    1.3920   -0.9980 O   0  0  0  0  0  0  0  0  0  0  0  0
    1.1070    0.9050    0.2610 C   0  0  0  0  0  0  0  0  0  0  0  0
    1.6850    1.3740   -0.8850 O   0  0  0  0  0  0  0  0  0  0  0  0
    3.0550    1.3990   -0.8060 C   0  0  0  0  0  0  0  0  0  0  0  0
    3.5970    0.0250   -0.5930 C   0  0  0  0  0  0  0  0  0  0  0  0
    5.0000    0.0220   -0.5190 O   0  0  0  0  0  0  0  0  0  0  0  0
    5.3680   -1.3180   -0.3180 C   0  0  0  0  0  0  0  0  0  0  0  0
    6.8820   -1.3590   -0.2330 C   0  0  0  0  0  0  0  0  0  0  0  0
    7.2310   -0.5440    0.8570 O   0  0  0  0  0  0  0  0  0  0  0  0
   -5.3100   -0.5150    0.7170 C   0  0  0  0  0  0  0  0  0  0  0  0
   -5.0570   -1.8590    1.0940 N   0  0  0  0  0  0  0  0  0  0  0  0
   -6.2170    0.2620    1.4910 S   0  0  0  0  0  0  0  0  0  0  0  0
  2  1  1  6
  2  3  1  0
  2  4  1  0
  2 18  1  0
  4  5  2  0
  4  6  1  0
  6  7  1  0
  7  8  1  0
  8  9  2  0
  8 10  1  0
 10 11  1  0
 11 12  1  0
 12 13  1  0
 13 14  1  0
 14 15  1  0
 15 16  1  0
 16 17  1  0
 18 19  1  0
 18 20  2  0
M  CHG  1  19   1
M  END
