
     RDKit          3D

 20 19  0  0  0  0  0  0  0  0999 V2000
    7.2000    1.5240    0.3570 C   0  0  0  0  0  0  0  0  0  0  0  0
    6.0200    0.7340    0.5730 O   0  0  0  0  0  0  0  0  0  0  0  0
    4.8180    1.0650   -0.0340 C   0  0  0  0  0  0  0  0  0  0  0  0
    4.8070    2.0720   -0.7700 O   0  0  0  0  0  0  0  0  0  0  0  0
    3.6530    0.3480    0.1320 O   0  0  0  0  0  0  0  0  0  0  0  0
    2.4800    0.7900   -0.5470 C   0  0  0  0  0  0  0  0  0  0  0  0
    1.3010   -0.1110   -0.2500 C   0  0  2  0  0  0  0  0  0  0  0  0
    1.5150   -1.4110   -0.6350 O   0  0  0  0  0  0  0  0  0  0  0  0
    0.1220    0.4720   -0.9760 C   0  0  0  0  0  0  0  0  0  0  0  0
   -1.0730   -0.1130   -0.7640 O   0  0  0  0  0  0  0  0  0  0  0  0
   -1.2690   -1.4220   -1.0790 C   0  0  0  0  0  0  0  0  0  0  0  0
   -2.6800   -1.7680   -0.7870 C   0  0  0  0  0  0  0  0  0  0  0  0
   -3.0870   -2.9210   -1.0000 O   0  0  0  0  0  0  0  0  0  0  0  0
   -3.5510   -0.7930   -0.2690 N   0  0  0  0  0  0  0  0  0  0  0  0
   -4.9150   -1.1770    0.0000 C   0  0  0  0  0  0  0  0  0  0  0  0
   -5.6490    0.0290    0.5450 C   0  0  0  0  0  0  0  0  0  0  0  0
   -5.0290    0.4840    1.7560 N   0  0  0  0  0  0  0  0  0  0  0  0
    1.0680   -0.0470    1.2200 C   0  0  0  0  0  0  0  0  0  0  0  0
    2.0830   -0.4440    2.1350 N   0  0  0  0  0  0  0  0  0  0  0  0
   -0.3440    0.4730    1.8550 S   0  0  0  0  0  0  0  0  0  0  0  0
  1  2  1  0
  2  3  1  0
  3  4  2  0
  3  5  1  0
  5  6  1  0
  6  7  1  0
  7  8  1  6
  7  9  1  0
  7 18  1  0
  9 10  1  0
 10 11  1  0
 11 12  1  0
 12 13  2  0
 12 14  1  0
 14 15  1  0
 15 16  1  0
 16 17  1  0
 18 19  1  0
 18 20  2  0
M  CHG  1  17   1
M  END
