
     RDKit          3D

 20 19  0  0  0  0  0  0  0  0999 V2000
    0.1150   -2.2810    1.9420 C   0  0  0  0  0  0  0  0  0  0  0  0
   -0.8380   -1.3000    1.3520 C   0  0  0  0  0  0  0  0  0  0  0  0
   -0.4440   -0.9440   -0.0560 C   0  0  2  0  0  0  0  0  0  0  0  0
   -0.4340   -2.2010   -0.9410 C   0  0  0  0  0  0  0  0  0  0  0  0
   -1.6670   -2.8200   -0.8950 O   0  0  0  0  0  0  0  0  0  0  0  0
    0.8660   -0.3700   -0.1600 N   0  0  0  0  0  0  0  0  0  0  0  0
    1.1010    0.7010    0.7900 C   0  0  0  0  0  0  0  0  0  0  0  0
    2.4130    1.3520    0.5570 C   0  0  0  0  0  0  0  0  0  0  0  0
    2.7730    2.3040    1.2900 O   0  0  0  0  0  0  0  0  0  0  0  0
    3.2600    0.9030   -0.4890 N   0  0  0  0  0  0  0  0  0  0  0  0
    4.5260    1.4980   -0.7510 C   0  0  0  0  0  0  0  0  0  0  0  0
    4.9320    2.4540   -0.0480 O   0  0  0  0  0  0  0  0  0  0  0  0
    5.5170    0.8640   -2.0870 S   0  0  0  0  0  0  0  0  0  0  0  0
    6.9810    1.7600   -2.1760 O   0  0  0  0  0  0  0  0  0  0  0  0
   -1.4450   -0.0440   -0.6870 C   0  0  0  0  0  0  0  0  0  0  0  0
   -1.0310    1.0070   -1.2320 O   0  0  0  0  0  0  0  0  0  0  0  0
   -2.8360   -0.2880   -0.7160 N   0  0  0  0  0  0  0  0  0  0  0  0
   -3.7950    0.5930   -1.3320 C   0  0  0  0  0  0  0  0  0  0  0  0
   -3.7830    1.9740   -0.7080 C   0  0  0  0  0  0  0  0  0  0  0  0
   -4.0800    1.9560    0.6340 O   0  0  0  0  0  0  0  0  0  0  0  0
  1  2  1  0
  3  2  1  1
  3  4  1  0
  3  6  1  0
  3 15  1  0
  4  5  1  0
  6  7  1  0
  7  8  1  0
  8  9  2  0
  8 10  1  0
 10 11  1  0
 11 12  2  0
 11 13  1  0
 13 14  1  0
 15 16  2  0
 15 17  1  0
 17 18  1  0
 18 19  1  0
 19 20  1  0
M  CHG  1   6   1
M  END
