
     RDKit          3D

 21 22  0  0  0  0  0  0  0  0999 V2000
   -5.7640    0.7060   -1.4760 N   0  0  0  0  0  0  0  0  0  0  0  0
   -5.3290    0.5140    0.1710 S   0  0  2  0  0  0  0  0  0  0  0  0
   -6.0770   -0.6420    0.7790 O   0  0  0  0  0  0  0  0  0  0  0  0
   -5.6150    1.7190    1.0150 O   0  0  0  0  0  0  0  0  0  0  0  0
   -3.5900    0.2060    0.2360 C   0  0  0  0  0  0  0  0  0  0  0  0
   -2.8060    0.1070   -0.8810 C   0  0  0  0  0  0  0  0  0  0  0  0
   -1.4640   -0.1520   -0.7870 C   0  0  0  0  0  0  0  0  0  0  0  0
   -0.8180   -0.3290    0.4280 C   0  0  0  0  0  0  0  0  0  0  0  0
    0.6010   -0.6330    0.4840 C   0  0  0  0  0  0  0  0  0  0  0  0
    1.2070   -0.7600   -0.6310 O   0  0  0  0  0  0  0  0  0  0  0  0
    1.3580   -0.8020    1.7110 C   0  0  0  0  0  0  0  0  0  0  0  0
    2.6210    0.4740    1.9920 S   0  0  0  0  0  0  0  0  0  0  0  0
    3.9150    0.2830    0.7360 C   0  0  0  0  0  0  0  0  0  0  0  0
    3.8360   -0.6570   -0.1990 N   0  0  0  0  0  0  0  0  0  0  0  0
    4.7870   -0.8130   -1.1220 C   0  0  0  0  0  0  0  0  0  0  0  0
    5.8800    0.0220   -1.1070 C   0  0  0  0  0  0  0  0  0  0  0  0
    5.9620    0.9970   -0.1370 C   0  0  0  0  0  0  0  0  0  0  0  0
    4.9620    1.1050    0.7740 N   0  0  0  0  0  0  0  0  0  0  0  0
   -1.6180   -0.2250    1.5390 C   0  0  0  0  0  0  0  0  0  0  0  0
   -2.9640    0.0340    1.4620 C   0  0  0  0  0  0  0  0  0  0  0  0
   -3.9650    0.1610    2.9130 Cl  0  0  0  0  0  0  0  0  0  0  0  0
  2  1  1  6
  2  3  2  0
  2  4  2  0
  2  5  1  0
  5  6  2  0
  5 20  1  0
  6  7  1  0
  7  8  2  0
  8  9  1  0
  8 19  1  0
  9 10  2  0
  9 11  1  0
 11 12  1  0
 12 13  1  0
 13 14  2  0
 13 18  1  0
 14 15  1  0
 15 16  2  0
 16 17  1  0
 17 18  2  0
 19 20  2  0
 20 21  1  0
M  END
