
     RDKit          3D

 20 19  0  0  0  0  0  0  0  0999 V2000
    5.7100    0.7200   -1.7260 C   0  0  0  0  0  0  0  0  0  0  0  0
    4.9110    0.8710   -0.1470 S   0  0  1  0  0  0  0  0  0  0  0  0
    5.0390   -0.4670    0.6300 N   0  0  0  0  0  0  0  0  0  0  0  0
    5.8120    1.7760    0.6980 O   0  0  0  0  0  0  0  0  0  0  0  0
    3.3390    1.4770   -0.2910 N   0  0  0  0  0  0  0  0  0  0  0  0
    2.3630    0.5830    0.1250 N   0  0  0  0  0  0  0  0  0  0  0  0
    0.9860    0.7200   -0.2560 C   0  0  0  0  0  0  0  0  0  0  0  0
    0.6180    1.6520   -0.9810 O   0  0  0  0  0  0  0  0  0  0  0  0
    0.0230   -0.2870    0.2420 C   0  0  0  0  0  0  0  0  0  0  0  0
   -1.4100   -0.0150   -0.1270 C   0  0  1  0  0  0  0  0  0  0  0  0
   -1.4540    0.0060   -1.5160 O   0  0  0  0  0  0  0  0  0  0  0  0
   -2.2530   -1.1490    0.4340 C   0  0  0  0  0  0  0  0  0  0  0  0
   -1.8580   -2.4850   -0.1150 C   0  0  0  0  0  0  0  0  0  0  0  0
   -2.7690   -3.5590    0.4800 C   0  0  0  0  0  0  0  0  0  0  0  0
   -2.6730   -3.6090    1.8530 O   0  0  0  0  0  0  0  0  0  0  0  0
   -1.8240    1.2690    0.5210 C   0  0  0  0  0  0  0  0  0  0  0  0
   -3.2400    1.6790    0.2460 C   0  0  0  0  0  0  0  0  0  0  0  0
   -3.5120    2.9670    0.9410 C   0  0  0  0  0  0  0  0  0  0  0  0
   -2.5880    3.5310    1.6230 O   0  0  0  0  0  0  0  0  0  0  0  0
   -4.7270    3.6310    0.9090 O   0  0  0  0  0  0  0  0  0  0  0  0
  2  1  1  6
  2  3  2  0
  2  4  2  0
  2  5  1  0
  5  6  1  0
  6  7  1  0
  7  8  2  0
  7  9  1  0
  9 10  1  0
 10 11  1  6
 10 12  1  0
 10 16  1  0
 12 13  1  0
 13 14  1  0
 14 15  1  0
 16 17  1  0
 17 18  1  0
 18 19  2  0
 18 20  1  0
M  CHG  1   3   1
M  END
