
     RDKit          3D

 20 19  0  0  0  0  0  0  0  0999 V2000
    6.4180    1.1690   -1.3260 N   0  0  0  0  0  0  0  0  0  0  0  0
    5.3290    0.6860   -0.5680 C   0  0  0  0  0  0  0  0  0  0  0  0
    4.6660   -0.2750   -1.0000 O   0  0  0  0  0  0  0  0  0  0  0  0
    4.9980    1.3250    0.7160 C   0  0  0  0  0  0  0  0  0  0  0  0
    3.8030    0.6150    1.3080 C   0  0  0  0  0  0  0  0  0  0  0  0
    2.6770    0.6900    0.4530 O   0  0  0  0  0  0  0  0  0  0  0  0
    1.4610    0.1380    0.7310 C   0  0  0  0  0  0  0  0  0  0  0  0
    1.3220   -0.4800    1.8170 O   0  0  0  0  0  0  0  0  0  0  0  0
    0.3480    0.2020   -0.0940 O   0  0  0  0  0  0  0  0  0  0  0  0
   -0.8890   -0.3990    0.2640 C   0  0  0  0  0  0  0  0  0  0  0  0
   -1.9480   -0.2100   -0.7650 C   0  0  2  0  0  0  0  0  0  0  0  0
   -3.1280   -0.8400   -0.3030 O   0  0  0  0  0  0  0  0  0  0  0  0
   -3.7990   -0.5220    0.8570 C   0  0  0  0  0  0  0  0  0  0  0  0
   -3.6570   -1.3800    2.0190 C   0  0  0  0  0  0  0  0  0  0  0  0
   -2.7400   -2.7270    2.0480 S   0  0  0  0  0  0  0  0  0  0  0  0
   -4.5530    0.5520    0.8820 C   0  0  0  0  0  0  0  0  0  0  0  0
   -4.7030    1.4010   -0.2450 N   0  0  0  0  0  0  0  0  0  0  0  0
   -1.6070   -0.8740   -2.0570 C   0  0  0  0  0  0  0  0  0  0  0  0
   -2.3680   -1.9180   -2.6310 N   0  0  0  0  0  0  0  0  0  0  0  0
   -0.5810   -0.4760   -2.6630 O   0  0  0  0  0  0  0  0  0  0  0  0
  1  2  1  0
  2  3  2  0
  2  4  1  0
  4  5  1  0
  5  6  1  0
  6  7  1  0
  7  8  2  0
  7  9  1  0
  9 10  1  0
 11 10  1  1
 11 12  1  0
 11 18  1  0
 12 13  1  0
 13 14  1  0
 13 16  2  3
 14 15  2  0
 16 17  1  0
 18 19  1  0
 18 20  2  0
M  CHG  1  17   1
M  END
