
     RDKit          3D

 20 19  0  0  0  0  0  0  0  0999 V2000
    4.1800   -2.0790    0.1900 C   0  0  0  0  0  0  0  0  0  0  0  0
    3.5620   -1.2380   -0.7350 O   0  0  0  0  0  0  0  0  0  0  0  0
    3.2130   -0.0550   -0.0890 C   0  0  1  0  0  0  0  0  0  0  0  0
    3.9580    1.1190   -0.7180 C   0  0  0  0  0  0  0  0  0  0  0  0
    3.6270    2.3610   -0.0830 N   0  0  0  0  0  0  0  0  0  0  0  0
    1.8490    0.1390   -0.1200 O   0  0  0  0  0  0  0  0  0  0  0  0
    1.3010    0.2280    1.1710 C   0  0  0  0  0  0  0  0  0  0  0  0
   -0.2080    0.4410    0.9880 C   0  0  0  0  0  0  0  0  0  0  0  0
   -0.6810   -0.6380    0.3030 O   0  0  0  0  0  0  0  0  0  0  0  0
   -2.0210   -0.6540    0.0280 C   0  0  2  0  0  0  0  0  0  0  0  0
   -2.2760   -1.9660   -0.7360 C   0  0  0  0  0  0  0  0  0  0  0  0
   -2.4640    0.4360   -0.8860 C   0  0  0  0  0  0  0  0  0  0  0  0
   -1.7250    1.3010   -1.3800 O   0  0  0  0  0  0  0  0  0  0  0  0
   -3.8480    0.4830   -1.2150 N   0  0  0  0  0  0  0  0  0  0  0  0
   -4.3970    1.4750   -2.0770 C   0  0  0  0  0  0  0  0  0  0  0  0
   -3.6510    2.3550   -2.5810 O   0  0  0  0  0  0  0  0  0  0  0  0
   -5.7670    1.4800   -2.3710 O   0  0  0  0  0  0  0  0  0  0  0  0
   -2.8700   -0.6850    1.2470 C   0  0  0  0  0  0  0  0  0  0  0  0
   -2.7940   -1.7410    2.1930 N   0  0  0  0  0  0  0  0  0  0  0  0
   -3.9400    0.5050    1.5600 S   0  0  0  0  0  0  0  0  0  0  0  0
  1  2  1  0
  2  3  1  0
  3  4  1  6
  3  6  1  0
  4  5  1  0
  6  7  1  0
  7  8  1  0
  8  9  1  0
  9 10  1  0
 10 11  1  6
 10 12  1  0
 10 18  1  0
 12 13  2  0
 12 14  1  0
 14 15  1  0
 15 16  2  0
 15 17  1  0
 18 19  1  0
 18 20  2  0
M  CHG  1   5   1
M  END
