
     RDKit          3D

 18 18  0  0  0  0  0  0  0  0999 V2000
    4.7580   -0.0950   -1.0240 C   0  0  0  0  0  0  0  0  0  0  0  0
    3.7980   -0.1160    0.0650 N   0  0  0  0  0  0  0  0  0  0  0  0
    4.1180    0.3960    1.2900 O   0  0  0  0  0  0  0  0  0  0  0  0
    2.5010   -0.6700   -0.0990 C   0  0  0  0  0  0  0  0  0  0  0  0
    2.2070   -1.1510   -1.2160 O   0  0  0  0  0  0  0  0  0  0  0  0
    1.5200   -0.6860    1.0070 C   0  0  0  0  0  0  0  0  0  0  0  0
    0.4130    0.7240    1.0180 S   0  0  0  0  0  0  0  0  0  0  0  0
   -0.7260    0.7870   -0.3510 C   0  0  1  0  0  0  0  0  0  0  0  0
   -1.7080   -0.3210   -0.2950 C   0  0  0  0  0  0  0  0  0  0  0  0
   -2.3300   -0.5610    0.9020 C   0  0  0  0  0  0  0  0  0  0  0  0
   -3.2670   -1.5740    1.0350 C   0  0  0  0  0  0  0  0  0  0  0  0
   -3.5600   -2.3430   -0.0780 C   0  0  0  0  0  0  0  0  0  0  0  0
   -2.9460   -2.1180   -1.2880 C   0  0  0  0  0  0  0  0  0  0  0  0
   -2.0100   -1.0930   -1.3900 C   0  0  0  0  0  0  0  0  0  0  0  0
   -1.6320    2.3820   -0.2320 P   0  0  2  0  0  0  0  0  0  0  0  0
   -2.7290    2.4220   -1.2630 O   0  0  0  0  0  0  0  0  0  0  0  0
   -0.5810    3.6590   -0.5270 O   0  0  0  0  0  0  0  0  0  0  0  0
   -2.3090    2.5300    1.3050 O   0  0  0  0  0  0  0  0  0  0  0  0
  1  2  1  0
  2  3  1  0
  2  4  1  0
  4  5  2  0
  4  6  1  0
  6  7  1  0
  8  7  1  1
  8  9  1  0
  8 15  1  0
  9 10  2  0
  9 14  1  0
 10 11  1  0
 11 12  2  0
 12 13  1  0
 13 14  2  0
 15 16  2  0
 15 17  1  6
 15 18  1  0
M  END
