
     RDKit          3D

 26 27  0  0  0  0  0  0  0  0999 V2000
    1.9900   -1.7030    1.9190 O   0  0  0  0  0  0  0  0  0  0  0  0
    1.3360   -1.0540    0.9990 C   0  0  0  0  0  0  0  0  0  0  0  0
    0.1050   -1.4900    0.6790 O   0  0  0  0  0  0  0  0  0  0  0  0
   -1.1900   -1.0460    0.8030 C   0  0  0  0  0  0  0  0  0  0  0  0
   -1.7580   -0.4410   -0.4690 C   0  0  1  0  0  0  0  0  0  0  0  0
   -2.9390   -1.1590   -0.9870 C   0  0  0  0  0  0  0  0  0  0  0  0
   -4.2200   -1.0140   -0.5820 N   0  0  0  0  0  0  0  0  0  0  0  0
   -5.0130   -1.8080   -1.2550 N   0  0  0  0  0  0  0  0  0  0  0  0
   -4.2080   -2.4860   -2.1230 C   0  0  0  0  0  0  0  0  0  0  0  0
   -4.5690   -3.3470   -2.9510 O   0  0  0  0  0  0  0  0  0  0  0  0
   -2.9320   -2.0870   -1.9580 N   0  0  0  0  0  0  0  0  0  0  0  0
   -2.0700    0.9480   -0.3440 N   0  0  0  0  0  0  0  0  0  0  0  0
   -2.9610    1.2940    0.7210 C   0  0  0  0  0  0  0  0  0  0  0  0
   -2.4370    2.5520    1.3880 C   0  0  0  0  0  0  0  0  0  0  0  0
   -1.6940    2.2020    2.4860 O   0  0  0  0  0  0  0  0  0  0  0  0
   -0.0200    2.4030    2.0720 P   0  0  0  0  0  0  0  0  0  0  0  0
    0.3310    4.1000    2.1680 O   0  0  0  0  0  0  0  0  0  0  0  0
    0.3040    1.8660    0.4340 O   0  0  0  0  0  0  0  0  0  0  0  0
    1.4670    1.2710   -0.0260 C   0  0  0  0  0  0  0  0  0  0  0  0
    2.1430    1.8410   -0.9780 O   0  0  0  0  0  0  0  0  0  0  0  0
    2.0340    0.0680    0.4320 N   0  0  0  0  0  0  0  0  0  0  0  0
    3.4930   -0.1200    0.3340 C   0  0  0  0  0  0  0  0  0  0  0  0
    3.8810   -0.7420   -0.9790 C   0  0  0  0  0  0  0  0  0  0  0  0
    5.7310   -0.9230   -0.9760 P   0  0  0  0  0  0  0  0  0  0  0  0
    6.1980   -2.5190   -1.4200 O   0  0  0  0  0  0  0  0  0  0  0  0
    6.4710    0.2190   -2.0620 O   0  0  0  0  0  0  0  0  0  0  0  0
  1  2  2  0
  2  3  1  0
  2 21  1  0
  3  4  1  0
  4  5  1  0
  5  6  1  1
  5 12  1  0
  6  7  2  0
  6 11  1  0
  7  8  1  0
  8  9  1  0
  9 10  2  0
  9 11  1  0
 12 13  1  0
 13 14  1  0
 14 15  1  0
 15 16  1  0
 16 17  1  0
 16 18  1  0
 18 19  1  0
 19 20  2  0
 19 21  1  0
 21 22  1  0
 22 23  1  0
 23 24  1  0
 24 25  1  0
 24 26  1  0
M  END
