
     RDKit          3D

 26 28  0  0  0  0  0  0  0  0999 V2000
   -0.0770   -0.9940    3.8200 O   0  0  0  0  0  0  0  0  0  0  0  0
   -0.6390   -0.5820    2.7630 C   0  0  0  0  0  0  0  0  0  0  0  0
    0.2130   -0.4160    1.6360 N   0  0  0  0  0  0  0  0  0  0  0  0
   -0.1110    0.0060    0.4610 C   0  0  0  0  0  0  0  0  0  0  0  0
    1.0330    0.0540   -0.4750 C   0  0  0  0  0  0  0  0  0  0  0  0
    2.3530    0.2710   -0.1580 C   0  0  0  0  0  0  0  0  0  0  0  0
    2.9650    0.5510    1.5370 P   0  0  0  0  0  0  0  0  0  0  0  0
    2.7840   -0.8870    2.5040 O   0  0  0  0  0  0  0  0  0  0  0  0
    5.1390    0.9900    1.4660 P   0  0  0  0  0  0  0  0  0  0  0  0
    5.7070    0.9250    3.1200 O   0  0  0  0  0  0  0  0  0  0  0  0
    5.8940   -0.3210    0.6220 O   0  0  0  0  0  0  0  0  0  0  0  0
    3.0450    0.2320   -1.3080 N   0  0  0  0  0  0  0  0  0  0  0  0
    2.1800   -0.0040   -2.3280 C   0  0  0  0  0  0  0  0  0  0  0  0
    0.9690   -0.1090   -1.8070 N   0  0  0  0  0  0  0  0  0  0  0  0
    0.0430   -0.3630   -2.9090 C   0  0  0  0  0  0  0  0  0  0  0  0
    0.9650   -0.8050   -4.0320 C   0  0  0  0  0  0  0  0  0  0  0  0
    2.1760   -0.1660   -3.7190 O   0  0  0  0  0  0  0  0  0  0  0  0
   -1.3730    0.4210   -0.0490 N   0  0  0  0  0  0  0  0  0  0  0  0
   -2.6690    0.2380    0.4680 C   0  0  0  0  0  0  0  0  0  0  0  0
   -3.8150    0.4160   -0.4170 C   0  0  0  0  0  0  0  0  0  0  0  0
   -3.6690    0.7220   -1.6050 O   0  0  0  0  0  0  0  0  0  0  0  0
   -5.0960    0.2400    0.0770 O   0  0  0  0  0  0  0  0  0  0  0  0
   -6.1220    0.4110   -0.7600 O   0  0  0  0  0  0  0  0  0  0  0  0
   -7.1720   -0.1570   -0.1910 O   0  0  0  0  0  0  0  0  0  0  0  0
   -2.9430   -0.0930    1.7360 C   0  0  0  0  0  0  0  0  0  0  0  0
   -2.0470   -0.3310    2.8180 N   0  0  0  0  0  0  0  0  0  0  0  0
  1  2  2  0
  2  3  1  0
  2 26  1  0
  3  4  2  0
  4  5  1  0
  4 18  1  0
  5  6  2  0
  5 14  1  0
  6  7  1  0
  6 12  1  0
  7  8  1  0
  7  9  1  0
  9 10  1  0
  9 11  1  0
 12 13  2  0
 13 14  1  0
 13 17  1  0
 14 15  1  0
 15 16  1  0
 16 17  1  0
 18 19  1  0
 19 20  1  0
 19 25  2  0
 20 21  2  0
 20 22  1  0
 22 23  1  0
 23 24  1  0
 25 26  1  0
M  END
