
     RDKit          3D

 26 27  0  0  0  0  0  0  0  0999 V2000
   -0.9890   -1.6630   -3.0240 O   0  0  0  0  0  0  0  0  0  0  0  0
   -0.5660   -0.6680   -1.8850 P   0  0  0  0  0  0  0  0  0  0  0  0
   -1.8250   -0.0790   -0.6230 C   0  0  2  0  0  0  0  0  0  0  0  0
   -2.5880    1.0440   -1.2890 C   0  0  0  0  0  0  0  0  0  0  0  0
   -3.8850    1.7770   -0.2240 P   0  0  0  0  0  0  0  0  0  0  0  0
   -5.2450    0.7640   -0.0010 O   0  0  0  0  0  0  0  0  0  0  0  0
   -4.2670    3.3970   -0.6100 O   0  0  0  0  0  0  0  0  0  0  0  0
   -1.1390    0.3640    0.5640 N   0  0  0  0  0  0  0  0  0  0  0  0
    0.1140    0.4260    0.7370 C   0  0  0  0  0  0  0  0  0  0  0  0
    1.1040    0.0680   -0.2100 N   0  0  0  0  0  0  0  0  0  0  0  0
    2.2900    0.2580    0.3070 C   0  0  0  0  0  0  0  0  0  0  0  0
    3.5340    0.0120   -0.3380 N   0  0  0  0  0  0  0  0  0  0  0  0
    3.7310   -0.4910   -1.6780 C   0  0  0  0  0  0  0  0  0  0  0  0
    5.1100   -1.1400   -1.5600 C   0  0  0  0  0  0  0  0  0  0  0  0
    5.7860   -0.1610   -0.7560 O   0  0  0  0  0  0  0  0  0  0  0  0
    4.8270    0.2130    0.2080 C   0  0  0  0  0  0  0  0  0  0  0  0
    5.1250    0.6530    1.3610 O   0  0  0  0  0  0  0  0  0  0  0  0
    2.0850    0.7520    1.6230 N   0  0  0  0  0  0  0  0  0  0  0  0
    0.8400    0.8660    1.9160 C   0  0  0  0  0  0  0  0  0  0  0  0
    0.2690    1.3470    3.1930 C   0  0  0  0  0  0  0  0  0  0  0  0
    1.0620    1.6830    4.0950 O   0  0  0  0  0  0  0  0  0  0  0  0
   -1.0820    1.4250    3.3910 O   0  0  0  0  0  0  0  0  0  0  0  0
   -2.6590   -1.2090   -0.3250 N   0  0  0  0  0  0  0  0  0  0  0  0
   -2.0980   -2.3400    0.2970 C   0  0  0  0  0  0  0  0  0  0  0  0
   -0.8660   -2.3870    0.6030 O   0  0  0  0  0  0  0  0  0  0  0  0
   -2.8990   -3.4500    0.5950 O   0  0  0  0  0  0  0  0  0  0  0  0
  1  2  2  0
  2  3  1  0
  3  4  1  6
  3  8  1  0
  3 23  1  0
  4  5  1  0
  5  6  1  0
  5  7  1  0
  8  9  2  3
  9 10  1  0
  9 19  1  0
 10 11  2  0
 11 12  1  0
 11 18  1  0
 12 13  1  0
 12 16  1  0
 13 14  1  0
 14 15  1  0
 15 16  1  0
 16 17  2  0
 18 19  2  0
 19 20  1  0
 20 21  2  0
 20 22  1  0
 23 24  1  0
 24 25  2  0
 24 26  1  0
M  END
