
     RDKit          3D

  8  7  0  0  0  0  0  0  0  0999 V2000
   -2.4310    0.0230    0.7450 C   0  0  0  0  0  0  0  0  0  0  0  0
   -2.0900    0.0280   -0.6090 O   0  0  0  0  0  0  0  0  0  0  0  0
   -0.7430    0.3160   -0.7970 C   0  0  0  0  0  0  0  0  0  0  0  0
    0.0780   -0.6230   -0.1670 O   0  0  0  0  0  0  0  0  0  0  0  0
    1.3410   -0.2520   -0.4100 O   0  0  0  0  0  0  0  0  0  0  0  0
    2.3770   -0.4290    0.4680 C   0  0  0  0  0  0  0  0  0  0  0  0
    2.1450   -0.9740    1.5820 O   0  0  0  0  0  0  0  0  0  0  0  0
    3.6870   -0.0490    0.2250 O   0  0  0  0  0  0  0  0  0  0  0  0
  1  2  1  0
  2  3  1  0
  3  4  1  0
  4  5  1  0
  5  6  1  0
  6  7  2  0
  6  8  1  0
M  END
