
     RDKit          3D

 26 27  0  0  0  0  0  0  0  0999 V2000
   -2.1930    3.6210    0.9440 O   0  0  0  0  0  0  0  0  0  0  0  0
   -3.2150    3.9710    0.4370 C   0  0  0  0  0  0  0  0  0  0  0  0
   -3.9110    3.8340   -0.7470 N   0  0  0  0  0  0  0  0  0  0  0  0
   -3.3690    2.9810   -1.7680 O   0  0  0  0  0  0  0  0  0  0  0  0
   -2.2300    2.3990   -1.5970 N   0  0  0  0  0  0  0  0  0  0  0  0
   -1.7610    1.3410   -1.1110 C   0  0  0  0  0  0  0  0  0  0  0  0
   -0.4160    1.1180   -1.1430 N   0  0  0  0  0  0  0  0  0  0  0  0
    0.1460    0.0540   -0.5300 C   0  0  0  0  0  0  0  0  0  0  0  0
    1.5800    0.0690   -0.4490 C   0  0  0  0  0  0  0  0  0  0  0  0
    2.2330    0.8280   -1.2660 O   0  0  0  0  0  0  0  0  0  0  0  0
    2.3590   -0.6390    0.4510 O   0  0  0  0  0  0  0  0  0  0  0  0
    3.7730   -0.4190    0.3620 C   0  0  0  0  0  0  0  0  0  0  0  0
    4.5080   -1.3270   -0.5540 C   0  0  0  0  0  0  0  0  0  0  0  0
    5.8600   -0.8800   -0.5740 O   0  0  0  0  0  0  0  0  0  0  0  0
    6.7180   -1.4980    0.8030 P   0  0  0  0  0  0  0  0  0  0  0  0
    6.6640   -0.1520    2.0230 O   0  0  0  0  0  0  0  0  0  0  0  0
    8.3880   -1.7220    0.4280 O   0  0  0  0  0  0  0  0  0  0  0  0
   -0.6510   -0.7910    0.1230 N   0  0  0  0  0  0  0  0  0  0  0  0
   -1.9740   -0.6720    0.2100 C   0  0  0  0  0  0  0  0  0  0  0  0
   -2.5680    0.4350   -0.4290 C   0  0  0  0  0  0  0  0  0  0  0  0
   -3.9130    0.5680   -0.3430 O   0  0  0  0  0  0  0  0  0  0  0  0
   -4.7010   -0.6420   -0.4290 C   0  0  0  0  0  0  0  0  0  0  0  0
   -4.1960   -1.6650    0.5090 C   0  0  1  0  0  0  0  0  0  0  0  0
   -4.3300   -3.3360   -0.3530 P   0  0  0  0  0  0  0  0  0  0  0  0
   -5.4210   -3.5850   -1.4260 O   0  0  0  0  0  0  0  0  0  0  0  0
   -2.8150   -1.5690    0.8820 N   0  0  0  0  0  0  0  0  0  0  0  0
  1  2  2  0
  2  3  1  0
  3  4  1  0
  4  5  1  0
  5  6  2  3
  6  7  1  0
  6 20  1  0
  7  8  2  0
  8  9  1  0
  8 18  1  0
  9 10  2  0
  9 11  1  0
 11 12  1  0
 12 13  1  0
 13 14  1  0
 14 15  1  0
 15 16  1  0
 15 17  1  0
 18 19  1  0
 19 20  2  0
 19 26  1  0
 20 21  1  0
 21 22  1  0
 22 23  1  0
 23 24  1  6
 23 26  1  0
 24 25  2  0
M  END
