
     RDKit          3D

 26 28  0  0  0  0  0  0  0  0999 V2000
   -0.0510   -2.6700    0.5560 O   0  0  0  0  0  0  0  0  0  0  0  0
    0.5970   -1.5700    0.5080 C   0  0  0  0  0  0  0  0  0  0  0  0
   -0.0080   -0.4730    1.0620 O   0  0  0  0  0  0  0  0  0  0  0  0
   -1.2600   -0.4110    1.6780 C   0  0  0  0  0  0  0  0  0  0  0  0
   -2.3100   -0.8020    0.6700 C   0  0  2  0  0  0  0  0  0  0  0  0
   -2.2230    0.1140   -0.4030 O   0  0  0  0  0  0  0  0  0  0  0  0
   -3.3620    0.5910   -1.0410 C   0  0  0  0  0  0  0  0  0  0  0  0
   -3.2980    1.2180   -2.1840 C   0  0  0  0  0  0  0  0  0  0  0  0
   -4.4660    1.6920   -2.8090 N   0  0  0  0  0  0  0  0  0  0  0  0
   -5.6140    1.5320   -2.2960 N   0  0  0  0  0  0  0  0  0  0  0  0
   -5.8170    0.8780   -1.0780 N   0  0  0  0  0  0  0  0  0  0  0  0
   -4.6510    0.3810   -0.4110 C   0  0  0  0  0  0  0  0  0  0  0  0
   -4.7900   -0.2350    0.7270 N   0  0  0  0  0  0  0  0  0  0  0  0
   -3.6270   -0.7110    1.3580 C   0  0  0  0  0  0  0  0  0  0  0  0
   -3.6770   -1.0820    2.5580 O   0  0  0  0  0  0  0  0  0  0  0  0
    1.9100   -1.5090   -0.1100 C   0  0  0  0  0  0  0  0  0  0  0  0
    2.5570   -2.5780   -0.6780 C   0  0  0  0  0  0  0  0  0  0  0  0
    3.7180   -2.1090   -1.1250 O   0  0  0  0  0  0  0  0  0  0  0  0
    3.8020   -0.8540   -0.8650 O   0  0  0  0  0  0  0  0  0  0  0  0
    2.7250   -0.4220   -0.2420 C   0  0  0  0  0  0  0  0  0  0  0  0
    2.4560    0.7670    0.1720 N   0  0  0  0  0  0  0  0  0  0  0  0
    3.6680    2.0630   -0.1020 P   0  0  0  0  0  0  0  0  0  0  0  0
    3.1790    3.4700    0.7730 O   0  0  0  0  0  0  0  0  0  0  0  0
    5.6800    1.4170    0.4730 P   0  0  0  0  0  0  0  0  0  0  0  0
    6.4500    0.6990   -0.9130 O   0  0  0  0  0  0  0  0  0  0  0  0
    5.6240    0.3140    1.7850 O   0  0  0  0  0  0  0  0  0  0  0  0
  1  2  2  0
  2  3  1  0
  2 16  1  0
  3  4  1  0
  5  4  1  1
  5  6  1  0
  5 14  1  0
  6  7  1  0
  7  8  2  0
  7 12  1  0
  8  9  1  0
  9 10  2  0
 10 11  1  0
 11 12  1  0
 12 13  2  0
 13 14  1  0
 14 15  2  0
 16 17  2  0
 16 20  1  0
 17 18  1  0
 18 19  1  0
 19 20  1  0
 20 21  2  3
 21 22  1  0
 22 23  1  0
 22 24  1  0
 24 25  1  0
 24 26  1  0
M  END
