
     RDKit          3D

 26 27  0  0  0  0  0  0  0  0999 V2000
    1.6670    0.8460   -0.8800 O   0  0  0  0  0  0  0  0  0  0  0  0
    2.2850   -0.1960   -0.5400 C   0  0  0  0  0  0  0  0  0  0  0  0
    3.6420   -0.0610   -0.1590 N   0  0  0  0  0  0  0  0  0  0  0  0
    4.3080    1.2210   -0.1540 C   0  0  0  0  0  0  0  0  0  0  0  0
    5.7360    1.1320    0.2830 C   0  0  0  0  0  0  0  0  0  0  0  0
    6.4870    0.2980   -0.5570 O   0  0  0  0  0  0  0  0  0  0  0  0
    8.1250    0.1910   -0.0620 P   0  0  0  0  0  0  0  0  0  0  0  0
    8.3710   -0.8900    1.2490 O   0  0  0  0  0  0  0  0  0  0  0  0
    8.6630    1.7720    0.4210 O   0  0  0  0  0  0  0  0  0  0  0  0
    1.5930   -1.4190   -0.5620 N   0  0  0  0  0  0  0  0  0  0  0  0
    0.2140   -1.5670   -0.9480 C   0  0  0  0  0  0  0  0  0  0  0  0
   -0.6970   -0.7810   -0.0850 C   0  0  0  0  0  0  0  0  0  0  0  0
   -0.1920   -0.1070    0.8410 O   0  0  0  0  0  0  0  0  0  0  0  0
   -2.1010   -0.7530   -0.2530 N   0  0  0  0  0  0  0  0  0  0  0  0
   -2.7820   -1.5030   -1.3010 C   0  0  0  0  0  0  0  0  0  0  0  0
   -4.2290   -1.4720   -0.8550 C   0  0  0  0  0  0  0  0  0  0  0  0
   -4.3480   -0.3830    0.0520 N   0  0  0  0  0  0  0  0  0  0  0  0
   -5.3080   -0.8120    1.5290 P   0  0  0  0  0  0  0  0  0  0  0  0
   -6.7440    0.1510    1.5950 O   0  0  0  0  0  0  0  0  0  0  0  0
   -7.7680   -0.6880    1.6950 O   0  0  0  0  0  0  0  0  0  0  0  0
   -4.0800   -0.1600    2.7030 N   0  0  0  0  0  0  0  0  0  0  0  0
   -2.8890   -0.3270    1.9510 C   0  0  0  0  0  0  0  0  0  0  0  0
   -3.0700   -0.0180    0.5370 C   0  0  1  0  0  0  0  0  0  0  0  0
   -2.8580    1.4660    0.2100 C   0  0  0  0  0  0  0  0  0  0  0  0
   -3.7750    2.2200    0.9520 O   0  0  0  0  0  0  0  0  0  0  0  0
   -3.5720    3.4920    0.6550 O   0  0  0  0  0  0  0  0  0  0  0  0
  1  2  2  0
  2  3  1  0
  2 10  1  0
  3  4  1  0
  4  5  1  0
  5  6  1  0
  6  7  1  0
  7  8  1  0
  7  9  1  0
 10 11  1  0
 11 12  1  0
 12 13  2  0
 12 14  1  0
 14 15  1  0
 14 23  1  0
 15 16  1  0
 16 17  1  0
 17 18  1  0
 17 23  1  0
 18 19  1  0
 18 21  1  0
 19 20  1  0
 21 22  1  0
 22 23  1  0
 23 24  1  1
 24 25  1  0
 25 26  1  0
M  END
