
     RDKit          3D

 10 10  0  0  0  0  0  0  0  0999 V2000
   -0.7500    2.4460   -0.0960 O   0  0  0  0  0  0  0  0  0  0  0  0
   -1.4710    1.2670    0.0530 C   0  0  0  0  0  0  0  0  0  0  0  0
   -0.5420    0.0480   -0.0180 C   0  0  2  0  0  0  0  0  0  0  0  0
   -1.5000   -1.1520    0.0510 C   0  0  0  0  0  0  0  0  0  0  0  0
   -0.8470   -2.3480   -0.0740 O   0  0  0  0  0  0  0  0  0  0  0  0
    0.2930    0.0790    1.2070 C   0  0  0  0  0  0  0  0  0  0  0  0
    1.4860   -0.7510    1.0130 N   0  0  0  0  0  0  0  0  0  0  0  0
    2.2150   -0.1150   -0.0700 C   0  0  0  0  0  0  0  0  0  0  0  0
    1.4110    0.0710   -1.2950 C   0  0  0  0  0  0  0  0  0  0  0  0
    0.0800    0.0240   -1.2030 O   0  0  0  0  0  0  0  0  0  0  0  0
  1  2  1  0
  3  2  1  6
  3  4  1  0
  3  6  1  0
  3 10  1  0
  4  5  1  0
  6  7  1  0
  7  8  1  0
  8  9  1  0
  9 10  1  0
M  END
