
     RDKit          3D

 11 11  0  0  0  0  0  0  0  0999 V2000
    4.0100    0.1580    0.0160 N   0  0  0  0  0  0  0  0  0  0  0  0
    2.8190    0.1230   -0.6570 O   0  0  0  0  0  0  0  0  0  0  0  0
    1.6700    0.7400   -0.1830 C   0  0  0  0  0  0  0  0  0  0  0  0
    1.7470    1.3530    0.9110 O   0  0  0  0  0  0  0  0  0  0  0  0
    0.3970    0.6880   -0.9270 C   0  0  0  0  0  0  0  0  0  0  0  0
   -0.5650   -0.2950   -0.3340 C   0  0  1  0  0  0  0  0  0  0  0  0
   -0.1000   -1.5890   -0.3070 O   0  0  0  0  0  0  0  0  0  0  0  0
   -1.0670    0.1230    1.0340 C   0  0  0  0  0  0  0  0  0  0  0  0
   -2.3870   -0.6530    1.0410 C   0  0  0  0  0  0  0  0  0  0  0  0
   -2.7390   -0.8690   -0.2660 O   0  0  0  0  0  0  0  0  0  0  0  0
   -1.8940   -0.1710   -1.0910 C   0  0  0  0  0  0  0  0  0  0  0  0
  1  2  1  0
  2  3  1  0
  3  4  2  0
  3  5  1  0
  5  6  1  0
  6  7  1  1
  6  8  1  0
  6 11  1  0
  8  9  1  0
  9 10  1  0
 10 11  1  0
M  END
