
     RDKit          3D

 11 11  0  0  0  0  0  0  0  0999 V2000
    2.0880    1.3250   -0.4370 N   0  0  0  0  0  0  0  0  0  0  0  0
    2.0170   -0.0110   -0.0020 C   0  0  0  0  0  0  0  0  0  0  0  0
    2.9680   -0.3700    0.7690 O   0  0  0  0  0  0  0  0  0  0  0  0
    1.0040   -0.9860   -0.3360 C   0  0  1  0  0  0  0  0  0  0  0  0
    1.3350   -2.2140    0.2860 O   0  0  0  0  0  0  0  0  0  0  0  0
   -0.3950   -0.7200   -0.0490 C   0  0  1  0  0  0  0  0  0  0  0  0
   -0.7890   -0.4800    1.3670 C   0  0  0  0  0  0  0  0  0  0  0  0
   -2.0330    0.1330    1.3340 O   0  0  0  0  0  0  0  0  0  0  0  0
   -2.3970    0.3720    0.0240 C   0  0  0  0  0  0  0  0  0  0  0  0
   -1.0540    0.4500   -0.7330 C   0  0  1  0  0  0  0  0  0  0  0  0
   -0.5360    1.6760   -0.4060 O   0  0  0  0  0  0  0  0  0  0  0  0
  1  2  1  0
  2  3  2  0
  2  4  1  0
  4  5  1  1
  4  6  1  0
  6  7  1  1
  6 10  1  0
  7  8  1  0
  8  9  1  0
  9 10  1  0
 10 11  1  1
M  END
