
     RDKit          3D

 11 11  0  0  0  0  0  0  0  0999 V2000
    3.0390    0.1890    0.3290 C   0  0  0  0  0  0  0  0  0  0  0  0
    1.7070    0.1740   -0.4090 C   0  0  1  0  0  0  0  0  0  0  0  0
    1.1450   -1.1420   -0.2470 N   0  0  0  0  0  0  0  0  0  0  0  0
   -0.2420   -1.3000   -0.5240 C   0  0  0  0  0  0  0  0  0  0  0  0
   -0.7480   -2.4220   -0.7820 O   0  0  0  0  0  0  0  0  0  0  0  0
   -1.0500   -0.0530   -0.4880 C   0  0  1  0  0  0  0  0  0  0  0  0
   -1.2450    0.5020   -1.7340 O   0  0  0  0  0  0  0  0  0  0  0  0
   -2.4060   -0.3340    0.1410 C   0  0  0  0  0  0  0  0  0  0  0  0
   -3.1580    0.8080    0.2880 O   0  0  0  0  0  0  0  0  0  0  0  0
   -0.3330    0.9130    0.4170 C   0  0  0  0  0  0  0  0  0  0  0  0
    0.9450    1.1950    0.0610 O   0  0  0  0  0  0  0  0  0  0  0  0
  2  1  1  1
  2  3  1  0
  2 11  1  0
  3  4  1  0
  4  5  2  0
  4  6  1  0
  6  7  1  6
  6  8  1  0
  6 10  1  0
  8  9  1  0
 10 11  1  0
M  END
