
     RDKit          3D

 11 11  0  0  0  0  0  0  0  0999 V2000
    3.1000   -0.9560    0.7450 O   0  0  0  0  0  0  0  0  0  0  0  0
    2.7440    0.1670    0.2680 C   0  0  0  0  0  0  0  0  0  0  0  0
    3.7440    1.1190    0.1440 O   0  0  0  0  0  0  0  0  0  0  0  0
    1.3920    0.3950   -0.1060 N   0  0  0  0  0  0  0  0  0  0  0  0
    0.4110   -0.6710    0.0630 C   0  0  2  0  0  0  0  0  0  0  0  0
   -0.1600   -1.0500   -1.2610 C   0  0  0  0  0  0  0  0  0  0  0  0
   -1.1850   -0.2410   -1.6990 O   0  0  0  0  0  0  0  0  0  0  0  0
   -2.2170   -0.3000   -0.7650 C   0  0  0  0  0  0  0  0  0  0  0  0
   -1.7500    0.5520    0.4220 C   0  0  2  0  0  0  0  0  0  0  0  0
   -1.3240    1.7940   -0.0290 O   0  0  0  0  0  0  0  0  0  0  0  0
   -0.6150   -0.2110    1.0640 C   0  0  0  0  0  0  0  0  0  0  0  0
  1  2  2  0
  2  3  1  0
  2  4  1  0
  5  4  1  6
  5  6  1  0
  5 11  1  0
  6  7  1  0
  7  8  1  0
  8  9  1  0
  9 10  1  6
  9 11  1  0
M  END
