
     RDKit          3D

 11 11  0  0  0  0  0  0  0  0999 V2000
    2.3830    1.3290    0.0350 N   0  0  0  0  0  0  0  0  0  0  0  0
    1.3670    0.4680    0.5050 C   0  0  0  0  0  0  0  0  0  0  0  0
    1.2020    0.3920    1.7450 O   0  0  0  0  0  0  0  0  0  0  0  0
    0.5220   -0.3190   -0.3830 C   0  0  1  0  0  0  0  0  0  0  0  0
    0.9320   -0.0630   -1.7140 O   0  0  0  0  0  0  0  0  0  0  0  0
    0.6310   -1.7760   -0.1080 C   0  0  0  0  0  0  0  0  0  0  0  0
   -0.6120   -2.3350   -0.0420 O   0  0  0  0  0  0  0  0  0  0  0  0
   -1.5550   -1.4030   -0.3680 C   0  0  0  0  0  0  0  0  0  0  0  0
   -0.9260   -0.0350   -0.3280 C   0  0  1  0  0  0  0  0  0  0  0  0
   -1.4140    0.6880    0.8870 C   0  0  0  0  0  0  0  0  0  0  0  0
   -0.7890    1.9240    0.9900 O   0  0  0  0  0  0  0  0  0  0  0  0
  1  2  1  0
  2  3  2  0
  2  4  1  0
  4  5  1  6
  4  6  1  0
  4  9  1  0
  6  7  1  0
  7  8  1  0
  8  9  1  0
  9 10  1  1
 10 11  1  0
M  END
