
     RDKit          3D

 10 10  0  0  0  0  0  0  0  0999 V2000
    3.4430   -0.0470   -0.2030 N   0  0  0  0  0  0  0  0  0  0  0  0
    2.1530   -0.2740    0.3420 C   0  0  0  0  0  0  0  0  0  0  0  0
    1.1410   -0.1830   -0.7860 C   0  0  2  0  0  0  0  0  0  0  0  0
    1.1530    1.0440   -1.3980 O   0  0  0  0  0  0  0  0  0  0  0  0
   -0.2530   -0.4740   -0.2750 C   0  0  1  0  0  0  0  0  0  0  0  0
   -0.6770    0.6250    0.6720 C   0  0  0  0  0  0  0  0  0  0  0  0
   -1.8100    1.2900    0.2130 O   0  0  0  0  0  0  0  0  0  0  0  0
   -2.8510    0.4340   -0.1050 C   0  0  0  0  0  0  0  0  0  0  0  0
   -2.4230   -0.6690   -1.0420 C   0  0  0  0  0  0  0  0  0  0  0  0
   -1.0960   -0.4610   -1.3960 O   0  0  0  0  0  0  0  0  0  0  0  0
  1  2  1  0
  2  3  1  0
  3  4  1  1
  3  5  1  0
  5  6  1  1
  5 10  1  0
  6  7  1  0
  7  8  1  0
  8  9  1  0
  9 10  1  0
M  END
