
     RDKit          3D

 20 21  0  0  0  0  0  0  0  0999 V2000
    5.9910    1.1070   -0.5250 N   0  0  0  0  0  0  0  0  0  0  0  0
    5.3400   -0.2600    0.3190 S   0  0  1  0  0  0  0  0  0  0  0  0
    6.1780   -1.4450   -0.0660 O   0  0  0  0  0  0  0  0  0  0  0  0
    5.4820   -0.0410    1.7770 O   0  0  0  0  0  0  0  0  0  0  0  0
    3.6750   -0.5140   -0.1700 C   0  0  0  0  0  0  0  0  0  0  0  0
    3.4060   -1.3410   -1.2510 C   0  0  0  0  0  0  0  0  0  0  0  0
    2.1080   -1.5700   -1.6710 C   0  0  0  0  0  0  0  0  0  0  0  0
    1.0970   -0.9530   -0.9850 C   0  0  0  0  0  0  0  0  0  0  0  0
    1.2910   -0.1190    0.0970 C   0  0  0  0  0  0  0  0  0  0  0  0
    0.2000    0.5220    0.8060 C   0  0  0  0  0  0  0  0  0  0  0  0
    0.4120    1.2720    1.7840 O   0  0  0  0  0  0  0  0  0  0  0  0
   -1.1830    0.2840    0.3660 C   0  0  0  0  0  0  0  0  0  0  0  0
   -2.3930    1.1650    1.3700 S   0  0  0  0  0  0  0  0  0  0  0  0
   -4.0270    0.7760    0.7120 C   0  0  0  0  0  0  0  0  0  0  0  0
   -4.5890    1.5140   -0.2490 N   0  0  0  0  0  0  0  0  0  0  0  0
   -5.8160    1.2460   -0.7630 C   0  0  0  0  0  0  0  0  0  0  0  0
   -6.5270    0.1650   -0.2800 C   0  0  0  0  0  0  0  0  0  0  0  0
   -5.9440   -0.5860    0.7050 C   0  0  0  0  0  0  0  0  0  0  0  0
   -4.7260   -0.2820    1.1830 N   0  0  0  0  0  0  0  0  0  0  0  0
    2.6200    0.0840    0.4880 C   0  0  0  0  0  0  0  0  0  0  0  0
  2  1  1  6
  2  3  2  0
  2  4  2  0
  2  5  1  0
  5  6  2  0
  5 20  1  0
  6  7  1  0
  7  8  2  0
  8  9  1  0
  9 10  1  0
  9 20  2  0
 10 11  2  0
 10 12  1  0
 12 13  1  0
 13 14  1  0
 14 15  2  0
 14 19  1  0
 15 16  1  0
 16 17  2  0
 17 18  1  0
 18 19  2  0
M  END
