
     RDKit          3D

 24 24  0  0  0  0  0  0  0  0999 V2000
    5.0440    2.9650   -0.7710 C   0  0  0  0  0  0  0  0  0  0  0  0
    4.0320    2.1560   -0.7230 O   0  0  0  0  0  0  0  0  0  0  0  0
    3.0760    1.7040    0.1040 C   0  0  0  0  0  0  0  0  0  0  0  0
    3.2240    2.3810    1.3000 O   0  0  0  0  0  0  0  0  0  0  0  0
    2.0440    0.8050    0.1020 C   0  0  0  0  0  0  0  0  0  0  0  0
    2.1090    0.4060   -1.3820 O   0  0  0  0  0  0  0  0  0  0  0  0
    1.0290    0.0690    0.5820 N   0  0  0  0  0  0  0  0  0  0  0  0
    1.0160   -0.1660    2.0350 C   0  0  0  0  0  0  0  0  0  0  0  0
    1.9750   -1.3510    2.3180 C   0  0  0  0  0  0  0  0  0  0  0  0
    3.2910   -0.9920    1.9320 O   0  0  0  0  0  0  0  0  0  0  0  0
   -0.1010   -0.2240   -0.2820 C   0  0  2  0  0  0  0  0  0  0  0  0
   -0.8990    1.0840   -0.1090 N   0  0  0  0  0  0  0  0  0  0  0  0
   -2.1660    1.1700   -0.6670 C   0  0  0  0  0  0  0  0  0  0  0  0
   -2.5840    2.4240   -1.1700 O   0  0  0  0  0  0  0  0  0  0  0  0
   -1.9920    3.6170   -0.6270 C   0  0  0  0  0  0  0  0  0  0  0  0
   -2.9630    0.1270   -0.7500 C   0  0  0  0  0  0  0  0  0  0  0  0
   -4.2480    0.2400   -1.3020 C   0  0  0  0  0  0  0  0  0  0  0  0
   -5.4130    0.3240   -1.7930 N   0  0  0  0  0  0  0  0  0  0  0  0
   -2.2720   -1.1920   -0.5270 C   0  0  0  0  0  0  0  0  0  0  0  0
   -3.1830   -2.3530   -0.6440 C   0  0  0  0  0  0  0  0  0  0  0  0
   -0.9650   -1.3050   -0.3060 C   0  0  0  0  0  0  0  0  0  0  0  0
   -0.4940   -2.7490   -0.0260 C   0  0  0  0  0  0  0  0  0  0  0  0
    0.2040   -3.5970    0.1760 C   0  0  0  0  0  0  0  0  0  0  0  0
   -0.3500   -4.9890    0.3690 O   0  0  0  0  0  0  0  0  0  0  0  0
  1  2  1  0
  2  3  1  0
  3  4  2  0
  3  5  1  0
  5  6  2  0
  5  7  1  0
  7  8  1  0
 11  7  1  1
  8  9  1  0
  9 10  1  0
 11 12  1  0
 11 21  1  0
 12 13  1  0
 13 14  1  0
 13 16  2  0
 14 15  1  0
 16 17  1  0
 16 19  1  0
 17 18  3  0
 19 20  1  0
 19 21  2  0
 21 22  1  0
 22 23  2  3
 23 24  1  0
M  CHG  1  18   1
M  END
