
     RDKit          3D

 24 25  0  0  0  0  0  0  0  0999 V2000
   -6.2910    0.8540   -0.4620 C   0  0  0  0  0  0  0  0  0  0  0  0
   -4.9820    1.5750   -0.1110 C   0  0  0  0  0  0  0  0  0  0  0  0
   -3.8260    0.7160   -0.3760 C   0  0  0  0  0  0  0  0  0  0  0  0
   -3.6720    0.3510   -1.7540 O   0  0  0  0  0  0  0  0  0  0  0  0
   -2.9330    0.2450    0.4430 C   0  0  0  0  0  0  0  0  0  0  0  0
   -1.8520   -0.6100   -0.0980 C   0  0  0  0  0  0  0  0  0  0  0  0
   -0.9070   -1.1440    0.6360 C   0  0  0  0  0  0  0  0  0  0  0  0
    0.1840   -2.0010    0.1180 C   0  0  2  0  0  0  0  0  0  0  0  0
    1.5190   -1.3290    0.4010 C   0  0  0  0  0  0  0  0  0  0  0  0
    1.9970   -0.8150   -0.7100 C   0  0  0  0  0  0  0  0  0  0  0  0
    3.1830   -0.1080   -0.9440 N   0  0  0  0  0  0  0  0  0  0  0  0
    4.1500    0.2010    0.0490 C   0  0  0  0  0  0  0  0  0  0  0  0
    3.9740   -0.1610    1.2200 O   0  0  0  0  0  0  0  0  0  0  0  0
    5.3680    0.9500   -0.2940 C   0  0  0  0  0  0  0  0  0  0  0  0
    5.5580    1.3220   -1.4790 O   0  0  0  0  0  0  0  0  0  0  0  0
    6.2680    1.2180    0.7130 O   0  0  0  0  0  0  0  0  0  0  0  0
    7.4390    1.9340    0.3990 C   0  0  0  0  0  0  0  0  0  0  0  0
    1.0170   -1.0980   -1.8330 C   0  0  0  0  0  0  0  0  0  0  0  0
    0.2210   -2.2000   -1.2850 N   0  0  0  0  0  0  0  0  0  0  0  0
   -0.9250   -0.8730    2.0900 C   0  0  0  0  0  0  0  0  0  0  0  0
    0.0010   -1.3970    2.7970 O   0  0  0  0  0  0  0  0  0  0  0  0
   -1.9180   -0.0690    2.6900 N   0  0  0  0  0  0  0  0  0  0  0  0
   -2.9550    0.5130    1.8650 C   0  0  0  0  0  0  0  0  0  0  0  0
   -3.8410    1.2250    2.3850 O   0  0  0  0  0  0  0  0  0  0  0  0
  1  2  1  0
  2  3  1  0
  3  4  1  0
  3  5  2  3
  5  6  1  0
  5 23  1  0
  6  7  2  0
  8  7  1  6
  7 20  1  0
  8  9  1  0
  8 19  1  0
  9 10  2  0
 10 11  1  0
 10 18  1  0
 11 12  1  0
 12 13  2  0
 12 14  1  0
 14 15  2  0
 14 16  1  0
 16 17  1  0
 18 19  1  0
 20 21  2  0
 20 22  1  0
 22 23  1  0
 23 24  2  0
M  CHG  1  19   1
M  END
