
     RDKit          3D

 23 23  0  0  0  0  0  0  0  0999 V2000
   -4.1070   -1.8030    2.1480 C   0  0  0  0  0  0  0  0  0  0  0  0
   -2.6520   -1.7140    2.2860 C   0  0  0  0  0  0  0  0  0  0  0  0
   -2.1120   -2.0590    3.3610 O   0  0  0  0  0  0  0  0  0  0  0  0
   -1.8180   -1.2330    1.2020 C   0  0  0  0  0  0  0  0  0  0  0  0
   -2.4540   -0.8380   -0.0330 C   0  0  0  0  0  0  0  0  0  0  0  0
   -1.7950   -0.4110   -1.0050 O   0  0  0  0  0  0  0  0  0  0  0  0
   -3.8340   -0.9010   -0.2330 O   0  0  0  0  0  0  0  0  0  0  0  0
   -4.4940   -0.5260   -1.4170 C   0  0  0  0  0  0  0  0  0  0  0  0
   -4.2990    0.9190   -1.7840 C   0  0  0  0  0  0  0  0  0  0  0  0
   -4.7980    1.7970   -0.7360 N   0  0  0  0  0  0  0  0  0  0  0  0
   -0.5310   -1.1680    1.3810 C   0  0  0  0  0  0  0  0  0  0  0  0
   -0.0700   -1.5900    2.6660 O   0  0  0  0  0  0  0  0  0  0  0  0
    0.5460   -0.7380    0.4940 C   0  0  0  0  0  0  0  0  0  0  0  0
    1.2740    0.4730    1.0580 C   0  0  0  0  0  0  0  0  0  0  0  0
    2.3530    0.8910    0.1510 C   0  0  0  0  0  0  0  0  0  0  0  0
    2.3660    2.0940   -0.3840 C   0  0  0  0  0  0  0  0  0  0  0  0
    3.4590    2.4480   -1.2730 C   0  0  0  0  0  0  0  0  0  0  0  0
    3.5420    3.5820   -1.8240 O   0  0  0  0  0  0  0  0  0  0  0  0
    4.4440    1.5310   -1.5330 O   0  0  0  0  0  0  0  0  0  0  0  0
    4.6170    0.3490   -0.7750 C   0  0  2  0  0  0  0  0  0  0  0  0
    5.6940    0.6640    0.2640 C   0  0  0  0  0  0  0  0  0  0  0  0
    5.1230   -0.7150   -1.7410 C   0  0  0  0  0  0  0  0  0  0  0  0
    3.3860   -0.0380   -0.1360 N   0  0  0  0  0  0  0  0  0  0  0  0
  1  2  1  0
  2  3  2  0
  2  4  1  0
  4  5  1  0
  4 11  2  3
  5  6  2  0
  5  7  1  0
  7  8  1  0
  8  9  1  0
  9 10  1  0
 11 12  1  0
 11 13  1  0
 13 14  1  0
 14 15  1  0
 15 16  2  0
 15 23  1  0
 16 17  1  0
 17 18  2  0
 17 19  1  0
 19 20  1  0
 20 21  1  1
 20 22  1  0
 20 23  1  0
M  CHG  1  10   1
M  END
