
     RDKit          3D

 24 24  0  0  0  0  0  0  0  0999 V2000
    1.9150   -4.1550   -0.8350 C   0  0  0  0  0  0  0  0  0  0  0  0
    1.3610   -3.7970    0.5450 C   0  0  0  0  0  0  0  0  0  0  0  0
    0.0540   -3.0900    0.3970 C   0  0  0  0  0  0  0  0  0  0  0  0
   -0.1480   -1.8720    0.8410 C   0  0  0  0  0  0  0  0  0  0  0  0
    0.8900   -1.2130    1.4740 O   0  0  0  0  0  0  0  0  0  0  0  0
    1.7840   -0.4310    0.7570 C   0  0  0  0  0  0  0  0  0  0  0  0
    1.6430   -0.3230   -0.4940 O   0  0  0  0  0  0  0  0  0  0  0  0
    2.8630    0.2600    1.3700 N   0  0  0  0  0  0  0  0  0  0  0  0
    3.7620    1.0510    0.6200 C   0  0  0  0  0  0  0  0  0  0  0  0
    4.5450    0.3810   -0.4530 C   0  0  0  0  0  0  0  0  0  0  0  0
    3.9200    2.3370    0.8430 C   0  0  0  0  0  0  0  0  0  0  0  0
    4.8290    3.1000    0.0730 N   0  0  0  0  0  0  0  0  0  0  0  0
   -1.4660   -1.2720    0.6440 C   0  0  0  0  0  0  0  0  0  0  0  0
   -2.3610   -1.9320    0.0590 O   0  0  0  0  0  0  0  0  0  0  0  0
   -1.7980   -0.0250    1.0570 O   0  0  0  0  0  0  0  0  0  0  0  0
   -2.9250    0.7350    0.9830 C   0  0  0  0  0  0  0  0  0  0  0  0
   -3.4540    1.1580   -0.3360 C   0  0  1  0  0  0  0  0  0  0  0  0
   -2.4590    1.9740   -1.1390 C   0  0  0  0  0  0  0  0  0  0  0  0
   -4.0920    0.0900   -1.1650 C   0  0  0  0  0  0  0  0  0  0  0  0
   -5.1320    0.8120   -1.9620 C   0  0  0  0  0  0  0  0  0  0  0  0
   -5.4840    0.5030   -3.1090 O   0  0  0  0  0  0  0  0  0  0  0  0
   -5.5920    1.8660   -1.1520 N   0  0  0  0  0  0  0  0  0  0  0  0
   -4.6660    2.0630   -0.1110 C   0  0  0  0  0  0  0  0  0  0  0  0
   -4.7090    2.8230    0.8900 O   0  0  0  0  0  0  0  0  0  0  0  0
  1  2  1  0
  2  3  1  0
  3  4  2  3
  4  5  1  0
  4 13  1  0
  5  6  1  0
  6  7  2  0
  6  8  1  0
  8  9  1  0
  9 10  1  0
  9 11  2  3
 11 12  1  0
 13 14  2  0
 13 15  1  0
 15 16  1  0
 16 17  1  0
 17 18  1  6
 17 19  1  0
 17 23  1  0
 19 20  1  0
 20 21  2  0
 20 22  1  0
 22 23  1  0
 23 24  2  0
M  CHG  1  12   1
M  END
