
     RDKit          3D

 20 20  0  0  0  0  0  0  0  0999 V2000
    4.2700    0.9870   -1.2050 C   0  0  0  0  0  0  0  0  0  0  0  0
    2.8940    1.3610   -0.7250 C   0  0  0  0  0  0  0  0  0  0  0  0
    2.0680    0.1200   -0.3780 C   0  0  1  0  0  0  0  0  0  0  0  0
    2.8430   -0.5960    0.7250 C   0  0  0  0  0  0  0  0  0  0  0  0
    3.0260    0.2460    1.9420 C   0  0  0  0  0  0  0  0  0  0  0  0
    0.8690    0.5430    0.0670 O   0  0  0  0  0  0  0  0  0  0  0  0
   -0.2640    0.1620   -0.5720 C   0  0  2  0  0  0  0  0  0  0  0  0
   -0.8580    1.3920   -1.2090 C   0  0  0  0  0  0  0  0  0  0  0  0
   -1.8570    2.0970   -0.4130 C   0  0  0  0  0  0  0  0  0  0  0  0
   -1.7960    3.5330   -0.2410 C   0  0  0  0  0  0  0  0  0  0  0  0
   -0.8860    4.1980   -0.7710 O   0  0  0  0  0  0  0  0  0  0  0  0
   -2.7620    4.1500    0.5190 O   0  0  0  0  0  0  0  0  0  0  0  0
   -2.8100    1.3510    0.1350 C   0  0  0  0  0  0  0  0  0  0  0  0
   -2.6610   -0.0970   -0.1830 C   0  0  2  0  0  0  0  0  0  0  0  0
   -3.6940   -0.8990    0.4400 N   0  0  0  0  0  0  0  0  0  0  0  0
   -1.2740   -0.5960    0.1710 C   0  0  1  0  0  0  0  0  0  0  0  0
   -1.3160   -2.0180   -0.1820 N   0  0  0  0  0  0  0  0  0  0  0  0
   -1.2170   -2.9570    0.8720 C   0  0  0  0  0  0  0  0  0  0  0  0
   -1.2510   -4.4140    0.5950 C   0  0  0  0  0  0  0  0  0  0  0  0
   -1.0980   -2.5450    2.0540 O   0  0  0  0  0  0  0  0  0  0  0  0
  1  2  1  0
  3  2  1  1
  3  4  1  0
  3  6  1  0
  4  5  1  0
  7  6  1  1
  7  8  1  0
  7 16  1  0
  8  9  1  0
  9 10  1  0
  9 13  2  0
 10 11  2  0
 10 12  1  0
 13 14  1  0
 14 15  1  1
 14 16  1  0
 16 17  1  6
 17 18  1  0
 18 19  1  0
 18 20  2  0
M  CHG  1  15   1
M  END
