
     RDKit          3D

 24 25  0  0  0  0  0  0  0  0999 V2000
   -3.5000    0.6240   -1.7420 C   0  0  0  0  0  0  0  0  0  0  0  0
   -2.9040   -0.2360   -0.9780 C   0  0  0  0  0  0  0  0  0  0  0  0
   -3.4040   -1.5730   -0.9510 O   0  0  0  0  0  0  0  0  0  0  0  0
   -2.9150   -2.6000   -0.2040 C   0  0  0  0  0  0  0  0  0  0  0  0
   -2.8800   -3.8100   -0.4130 O   0  0  0  0  0  0  0  0  0  0  0  0
   -2.3090   -2.0870    1.1340 C   0  0  1  0  0  0  0  0  0  0  0  0
   -1.8930   -3.2200    1.9440 C   0  0  0  0  0  0  0  0  0  0  0  0
   -2.7980   -3.9810    2.3890 O   0  0  0  0  0  0  0  0  0  0  0  0
   -0.5390   -3.4450    2.2110 N   0  0  0  0  0  0  0  0  0  0  0  0
    0.4250   -2.5210    1.6740 C   0  0  0  0  0  0  0  0  0  0  0  0
    1.6260   -2.7480    1.9270 O   0  0  0  0  0  0  0  0  0  0  0  0
    0.0300   -1.3490    0.8580 C   0  0  0  0  0  0  0  0  0  0  0  0
    0.9600   -0.5690    0.1300 N   0  0  0  0  0  0  0  0  0  0  0  0
    2.3540   -0.5200    0.1970 C   0  0  0  0  0  0  0  0  0  0  0  0
    2.9750   -1.2310    0.9960 O   0  0  0  0  0  0  0  0  0  0  0  0
    3.1510    0.3710   -0.6700 C   0  0  0  0  0  0  0  0  0  0  0  0
    2.5180    1.1840   -1.5750 O   0  0  0  0  0  0  0  0  0  0  0  0
    4.4530    0.3800   -0.5680 C   0  0  0  0  0  0  0  0  0  0  0  0
    5.3180    1.2510   -1.4080 C   0  0  0  0  0  0  0  0  0  0  0  0
   -1.2590   -1.1830    0.6430 C   0  0  0  0  0  0  0  0  0  0  0  0
   -1.7470    0.0360   -0.1220 C   0  0  0  0  0  0  0  0  0  0  0  0
   -1.1590    1.1580    0.0320 C   0  0  0  0  0  0  0  0  0  0  0  0
   -1.3100    2.4870   -0.4860 C   0  0  0  0  0  0  0  0  0  0  0  0
   -1.6190    3.4620    0.6040 N   0  0  0  0  0  0  0  0  0  0  0  0
  1  2  2  0
  2  3  1  0
  2 21  1  0
  3  4  1  0
  4  5  2  0
  6  4  1  6
  6  7  1  0
  6 20  1  0
  7  8  2  0
  7  9  1  0
  9 10  1  0
 10 11  2  0
 10 12  1  0
 12 13  1  0
 12 20  2  0
 13 14  1  0
 14 15  2  0
 14 16  1  0
 16 17  1  0
 16 18  2  3
 18 19  1  0
 20 21  1  0
 21 22  2  3
 22 23  1  0
 23 24  1  0
M  CHG  1  24   1
M  END
