
     RDKit          3D

 24 25  0  0  0  0  0  0  0  0999 V2000
   -6.9540   -1.9060   -0.5640 C   0  0  0  0  0  0  0  0  0  0  0  0
   -5.6310   -1.6960   -0.0510 O   0  0  0  0  0  0  0  0  0  0  0  0
   -5.2520   -0.4500    0.4220 C   0  0  0  0  0  0  0  0  0  0  0  0
   -6.1010    0.4760    0.3850 O   0  0  0  0  0  0  0  0  0  0  0  0
   -3.8930   -0.1990    0.9600 C   0  0  0  0  0  0  0  0  0  0  0  0
   -3.0210    0.3930   -0.1230 C   0  0  1  0  0  0  0  0  0  0  0  0
   -3.5840    1.7110   -0.6390 C   0  0  0  0  0  0  0  0  0  0  0  0
   -2.7250    2.1020   -1.7680 N   0  0  0  0  0  0  0  0  0  0  0  0
   -1.6880    0.5440    0.2960 O   0  0  0  0  0  0  0  0  0  0  0  0
   -0.6470   -0.1220   -0.3230 C   0  0  0  0  0  0  0  0  0  0  0  0
   -0.9290   -0.8790   -1.2840 O   0  0  0  0  0  0  0  0  0  0  0  0
    0.7490    0.0550    0.1400 C   0  0  0  0  0  0  0  0  0  0  0  0
    1.6650   -0.6220   -0.5130 C   0  0  0  0  0  0  0  0  0  0  0  0
    3.0880   -0.6380   -0.2700 C   0  0  0  0  0  0  0  0  0  0  0  0
    3.7220   -0.8620    0.9270 C   0  0  0  0  0  0  0  0  0  0  0  0
    5.0890   -0.7590    0.6910 C   0  0  0  0  0  0  0  0  0  0  0  0
    5.2720   -0.4790   -0.6320 C   0  0  0  0  0  0  0  0  0  0  0  0
    4.0700   -0.4130   -1.1750 N   0  0  0  0  0  0  0  0  0  0  0  0
    6.7360   -0.3740   -0.8560 C   0  0  0  0  0  0  0  0  0  0  0  0
    7.2930   -0.2550    0.4120 O   0  0  0  0  0  0  0  0  0  0  0  0
    6.4320   -0.8340    1.3040 C   0  0  0  0  0  0  0  0  0  0  0  0
    0.9700    0.9960    1.2140 C   0  0  0  0  0  0  0  0  0  0  0  0
    2.2410    1.3630    1.7280 N   0  0  0  0  0  0  0  0  0  0  0  0
   -0.0540    1.5440    1.7450 O   0  0  0  0  0  0  0  0  0  0  0  0
  1  2  1  0
  2  3  1  0
  3  4  2  0
  3  5  1  0
  6  5  1  1
  6  7  1  0
  6  9  1  0
  7  8  1  0
  9 10  1  0
 10 11  2  0
 10 12  1  0
 12 13  2  3
 12 22  1  0
 13 14  1  0
 14 15  2  0
 14 18  1  0
 15 16  1  0
 16 17  2  0
 16 21  1  0
 17 18  1  0
 17 19  1  0
 19 20  1  0
 20 21  1  0
 22 23  1  0
 22 24  2  0
M  CHG  1   8   1
M  END
