
     RDKit          3D

 24 25  0  0  0  0  0  0  0  0999 V2000
    1.0600   -2.0820    1.7110 C   0  0  0  0  0  0  0  0  0  0  0  0
    1.1810   -2.5340    0.3040 C   0  0  0  0  0  0  0  0  0  0  0  0
    1.1170   -1.3990   -0.6930 C   0  0  1  0  0  0  0  0  0  0  0  0
   -0.1420   -0.6330   -0.6100 C   0  0  0  0  0  0  0  0  0  0  0  0
   -0.0900    0.6300   -0.5340 O   0  0  0  0  0  0  0  0  0  0  0  0
   -1.4250   -1.2450   -0.6110 N   0  0  0  0  0  0  0  0  0  0  0  0
   -2.5850   -0.4190   -0.5270 C   0  0  0  0  0  0  0  0  0  0  0  0
   -3.5310   -0.4170    0.3970 C   0  0  0  0  0  0  0  0  0  0  0  0
   -4.5490    0.6090    0.0860 C   0  0  2  0  0  0  0  0  0  0  0  0
   -4.7090    1.6350    1.1720 C   0  0  0  0  0  0  0  0  0  0  0  0
   -5.8680   -0.1390   -0.1230 C   0  0  0  0  0  0  0  0  0  0  0  0
   -4.1410    1.2300   -1.1080 O   0  0  0  0  0  0  0  0  0  0  0  0
   -2.9540    0.6160   -1.4870 C   0  0  0  0  0  0  0  0  0  0  0  0
   -2.2530    0.8860   -2.5190 O   0  0  0  0  0  0  0  0  0  0  0  0
    2.2810   -0.5530   -0.6740 N   0  0  0  0  0  0  0  0  0  0  0  0
    3.2700   -0.5300   -1.7250 C   0  0  0  0  0  0  0  0  0  0  0  0
    3.2910   -1.2320   -2.7820 O   0  0  0  0  0  0  0  0  0  0  0  0
    4.3030    0.4420   -1.4260 C   0  0  0  0  0  0  0  0  0  0  0  0
    5.3210    0.7440   -2.0970 O   0  0  0  0  0  0  0  0  0  0  0  0
    3.9590    1.0500   -0.1540 C   0  0  0  0  0  0  0  0  0  0  0  0
    4.6280    2.0010    0.5120 C   0  0  0  0  0  0  0  0  0  0  0  0
    5.8290    2.5570    0.0130 N   0  0  0  0  0  0  0  0  0  0  0  0
    2.7220    0.4160    0.2670 C   0  0  0  0  0  0  0  0  0  0  0  0
    2.1520    0.7250    1.3430 O   0  0  0  0  0  0  0  0  0  0  0  0
  1  2  1  0
  3  2  1  1
  3  4  1  0
  3 15  1  0
  4  5  2  0
  4  6  1  0
  6  7  1  0
  7  8  2  0
  7 13  1  0
  8  9  1  0
  9 10  1  1
  9 11  1  0
  9 12  1  0
 12 13  1  0
 13 14  2  0
 15 16  1  0
 15 23  1  0
 16 17  2  0
 16 18  1  0
 18 19  2  0
 18 20  1  0
 20 21  2  3
 20 23  1  0
 21 22  1  0
 23 24  2  0
M  CHG  1  22   1
M  END
