
     RDKit          3D

 28 29  0  0  0  0  0  0  0  0999 V2000
   -0.1790    2.3160   -2.8920 C   0  0  0  0  0  0  0  0  0  0  0  0
   -0.7000    3.0450   -1.6890 C   0  0  0  0  0  0  0  0  0  0  0  0
   -1.6630    2.2200   -0.8690 C   0  0  2  0  0  0  0  0  0  0  0  0
   -2.1760    2.9630    0.3300 C   0  0  0  0  0  0  0  0  0  0  0  0
   -1.0950    0.8940   -0.4580 C   0  0  1  0  0  0  0  0  0  0  0  0
    0.1190    1.0450    0.3560 N   0  0  0  0  0  0  0  0  0  0  0  0
    1.3260    0.3880    0.0440 C   0  0  0  0  0  0  0  0  0  0  0  0
    1.4040   -0.3620   -0.9600 O   0  0  0  0  0  0  0  0  0  0  0  0
    2.5300    0.5370    0.8480 C   0  0  0  0  0  0  0  0  0  0  0  0
    2.4500    1.2990    1.8640 O   0  0  0  0  0  0  0  0  0  0  0  0
    3.7470   -0.1090    0.5590 N   0  0  0  0  0  0  0  0  0  0  0  0
    4.8690    0.1270    1.4450 C   0  0  0  0  0  0  0  0  0  0  0  0
    5.9820   -0.6670    0.9150 N   0  0  0  0  0  0  0  0  0  0  0  0
    6.3150   -1.9990    1.2390 C   0  0  0  0  0  0  0  0  0  0  0  0
    5.7370   -2.6850    2.1120 O   0  0  0  0  0  0  0  0  0  0  0  0
    7.4350   -2.4090    0.3830 C   0  0  0  0  0  0  0  0  0  0  0  0
    7.8300   -1.1900   -0.3160 N   0  0  0  0  0  0  0  0  0  0  0  0
    6.8970   -0.1480   -0.0370 C   0  0  0  0  0  0  0  0  0  0  0  0
    6.9060    0.9960   -0.5490 O   0  0  0  0  0  0  0  0  0  0  0  0
   -2.0700    0.1320    0.4070 C   0  0  2  0  0  0  0  0  0  0  0  0
   -1.4130   -1.1990    0.7790 C   0  0  0  0  0  0  0  0  0  0  0  0
   -2.5980   -1.9890    1.2730 C   0  0  0  0  0  0  0  0  0  0  0  0
   -3.8470   -1.3270    0.7460 C   0  0  1  0  0  0  0  0  0  0  0  0
   -4.7620   -2.3310    0.1190 C   0  0  0  0  0  0  0  0  0  0  0  0
   -4.5650   -0.5670    1.8390 C   0  0  0  0  0  0  0  0  0  0  0  0
   -3.2940   -0.3440   -0.3030 C   0  0  2  0  0  0  0  0  0  0  0  0
   -3.0210   -1.0720   -1.4340 O   0  0  0  0  0  0  0  0  0  0  0  0
   -3.8280   -0.6980   -2.4970 C   0  0  0  0  0  0  0  0  0  0  0  0
  1  2  1  0
  2  3  1  0
  3  4  1  1
  3  5  1  0
  5  6  1  1
  5 20  1  0
  6  7  1  0
  7  8  2  0
  7  9  1  0
  9 10  2  0
  9 11  1  0
 11 12  1  0
 12 13  1  0
 13 14  1  0
 13 18  1  0
 14 15  2  0
 14 16  1  0
 16 17  1  0
 17 18  1  0
 18 19  2  0
 20 21  1  6
 20 26  1  0
 21 22  1  0
 22 23  1  0
 23 24  1  6
 23 25  1  0
 23 26  1  0
 26 27  1  6
 27 28  1  0
M  END
