
     RDKit          3D

 28 29  0  0  0  0  0  0  0  0999 V2000
   -7.2780   -0.8560   -1.2520 C   0  0  0  0  0  0  0  0  0  0  0  0
   -5.8640   -0.4080   -1.2920 C   0  0  0  0  0  0  0  0  0  0  0  0
   -5.3340   -0.1940   -2.4290 O   0  0  0  0  0  0  0  0  0  0  0  0
   -5.1340   -0.2280   -0.0890 N   0  0  0  0  0  0  0  0  0  0  0  0
   -5.7560   -0.4750    1.1630 C   0  0  0  0  0  0  0  0  0  0  0  0
   -6.9390   -0.8530    1.2520 O   0  0  0  0  0  0  0  0  0  0  0  0
   -3.7630    0.2080   -0.1580 C   0  0  1  0  0  0  0  0  0  0  0  0
   -3.5490    1.5080    0.6000 C   0  0  0  0  0  0  0  0  0  0  0  0
   -2.2250    1.5090    1.3340 C   0  0  0  0  0  0  0  0  0  0  0  0
   -1.1840    1.0600    0.3290 C   0  0  1  0  0  0  0  0  0  0  0  0
    0.2220    1.2330    0.8650 C   0  0  2  0  0  0  0  0  0  0  0  0
    0.5090    2.6820    1.2010 C   0  0  0  0  0  0  0  0  0  0  0  0
    1.1720    0.7640   -0.2180 C   0  0  1  0  0  0  0  0  0  0  0  0
    0.9060    1.6620   -1.4290 C   0  0  0  0  0  0  0  0  0  0  0  0
    2.5500    0.8130    0.1530 N   0  0  0  0  0  0  0  0  0  0  0  0
    3.3540   -0.3740    0.0620 C   0  0  0  0  0  0  0  0  0  0  0  0
    2.8560   -1.4640   -0.3450 O   0  0  0  0  0  0  0  0  0  0  0  0
    4.7170   -0.3590    0.4220 N   0  0  0  0  0  0  0  0  0  0  0  0
    5.6080   -1.4600    0.3410 C   0  0  0  0  0  0  0  0  0  0  0  0
    6.0670   -2.0630    1.4350 C   0  0  0  0  0  0  0  0  0  0  0  0
    6.9460   -3.1480    1.2960 N   0  0  0  0  0  0  0  0  0  0  0  0
    7.3510   -3.6110    0.1720 C   0  0  0  0  0  0  0  0  0  0  0  0
    6.9080   -3.0220   -0.9900 O   0  0  0  0  0  0  0  0  0  0  0  0
    6.0230   -1.9240   -0.9650 C   0  0  0  0  0  0  0  0  0  0  0  0
    5.6590   -1.4160   -2.1170 C   0  0  0  0  0  0  0  0  0  0  0  0
    4.8150   -0.3420   -2.2600 O   0  0  0  0  0  0  0  0  0  0  0  0
   -1.4020   -0.4100    0.0190 C   0  0  0  0  0  0  0  0  0  0  0  0
   -2.8090   -0.8120    0.4070 C   0  0  0  0  0  0  0  0  0  0  0  0
  1  2  1  0
  2  3  2  0
  2  4  1  0
  4  5  1  0
  7  4  1  1
  5  6  2  0
  7  8  1  0
  7 28  1  0
  8  9  1  0
 10  9  1  1
 10 11  1  0
 10 27  1  0
 11 12  1  6
 11 13  1  0
 13 14  1  6
 13 15  1  0
 15 16  1  0
 16 17  2  0
 16 18  1  0
 18 19  1  0
 19 20  2  0
 19 24  1  0
 20 21  1  0
 21 22  2  0
 22 23  1  0
 23 24  1  0
 24 25  2  3
 25 26  1  0
 27 28  1  0
M  END
