
     RDKit          3D

 28 29  0  0  0  0  0  0  0  0999 V2000
   -6.6830    0.9300    3.7720 C   0  0  0  0  0  0  0  0  0  0  0  0
   -6.8230    0.5410    2.3660 N   0  0  0  0  0  0  0  0  0  0  0  0
   -7.8550    0.9890    1.4960 C   0  0  0  0  0  0  0  0  0  0  0  0
   -8.7160    1.8740    1.6990 O   0  0  0  0  0  0  0  0  0  0  0  0
   -7.7200    0.1850    0.2560 C   0  0  0  0  0  0  0  0  0  0  0  0
   -6.1740    0.0300    0.1990 C   0  0  1  0  0  0  0  0  0  0  0  0
   -5.8090   -1.0800   -0.7050 C   0  0  0  0  0  0  0  0  0  0  0  0
   -5.5940    1.3720    0.0160 C   0  0  0  0  0  0  0  0  0  0  0  0
   -4.1720    1.3990   -0.0410 N   0  0  0  0  0  0  0  0  0  0  0  0
   -3.2990    0.8830   -0.9950 C   0  0  0  0  0  0  0  0  0  0  0  0
   -3.7280    0.3290   -2.0040 O   0  0  0  0  0  0  0  0  0  0  0  0
   -1.8660    0.9600   -0.8730 N   0  0  0  0  0  0  0  0  0  0  0  0
   -0.9980    0.4060   -1.8950 C   0  0  0  0  0  0  0  0  0  0  0  0
    0.3990    0.6260   -1.5090 C   0  0  0  0  0  0  0  0  0  0  0  0
    0.7110    1.2070   -0.4510 O   0  0  0  0  0  0  0  0  0  0  0  0
    1.4520    0.1720   -2.3490 N   0  0  0  0  0  0  0  0  0  0  0  0
    2.8420    0.3640   -2.0140 C   0  0  2  0  0  0  0  0  0  0  0  0
    3.7900    0.7820   -3.1110 C   0  0  0  0  0  0  0  0  0  0  0  0
    3.8730   -0.5800   -2.4570 C   0  0  1  0  0  0  0  0  0  0  0  0
    5.0910   -0.8360   -1.5720 C   0  0  0  0  0  0  0  0  0  0  0  0
    4.6550   -1.3840   -0.2310 C   0  0  0  0  0  0  0  0  0  0  0  0
    5.6070   -1.6920    0.6590 O   0  0  0  0  0  0  0  0  0  0  0  0
    6.4810   -0.7910    1.1430 C   0  0  2  0  0  0  0  0  0  0  0  0
    7.4260   -0.1390    0.1880 C   0  0  0  0  0  0  0  0  0  0  0  0
    7.3330   -1.5360    2.1960 C   0  0  0  0  0  0  0  0  0  0  0  0
    5.8100    0.3370    1.9250 C   0  0  0  0  0  0  0  0  0  0  0  0
   -5.9580   -0.3400    1.6490 C   0  0  0  0  0  0  0  0  0  0  0  0
   -5.2260   -1.1880    2.1650 O   0  0  0  0  0  0  0  0  0  0  0  0
  1  2  1  0
  2  3  1  0
  2 27  1  0
  3  4  2  0
  3  5  1  0
  5  6  1  0
  6  7  1  6
  6  8  1  0
  6 27  1  0
  8  9  1  0
  9 10  1  0
 10 11  2  0
 10 12  1  0
 12 13  1  0
 13 14  1  0
 14 15  2  0
 14 16  1  0
 17 16  1  6
 17 18  1  0
 17 19  1  0
 18 19  1  0
 19 20  1  1
 20 21  1  0
 21 22  1  0
 22 23  1  0
 23 24  1  6
 23 25  1  0
 23 26  1  0
 27 28  2  0
M  END
