
     RDKit          3D

 28 29  0  0  0  0  0  0  0  0999 V2000
    1.0340   -3.6300   -0.9260 C   0  0  0  0  0  0  0  0  0  0  0  0
   -0.2370   -2.8380   -1.0990 C   0  0  0  0  0  0  0  0  0  0  0  0
   -0.0970   -1.5500   -0.3170 C   0  0  1  0  0  0  0  0  0  0  0  0
    1.0410   -0.6990   -0.7660 C   0  0  2  0  0  0  0  0  0  0  0  0
    2.1910   -0.7190    0.2280 C   0  0  0  0  0  0  0  0  0  0  0  0
    3.2820    0.1500   -0.3240 C   0  0  0  0  0  0  0  0  0  0  0  0
    3.1480    0.6670   -1.4260 O   0  0  0  0  0  0  0  0  0  0  0  0
    4.4260    0.3240    0.4790 N   0  0  0  0  0  0  0  0  0  0  0  0
    5.5600    1.1020    0.1400 C   0  0  0  0  0  0  0  0  0  0  0  0
    5.7430    1.7860   -0.9610 C   0  0  0  0  0  0  0  0  0  0  0  0
    6.9500    2.6030   -1.3000 C   0  0  0  0  0  0  0  0  0  0  0  0
    7.9000    2.5660   -0.2930 O   0  0  0  0  0  0  0  0  0  0  0  0
    7.7350    1.8530    0.8800 C   0  0  0  0  0  0  0  0  0  0  0  0
    6.6560    1.1510    1.1300 C   0  0  0  0  0  0  0  0  0  0  0  0
    6.5030    0.4210    2.3470 N   0  0  0  0  0  0  0  0  0  0  0  0
    0.4690    0.6800   -0.9020 C   0  0  0  0  0  0  0  0  0  0  0  0
   -0.9600    0.3990   -1.3210 C   0  0  0  0  0  0  0  0  0  0  0  0
   -1.2740   -0.7280   -0.4440 N   0  0  0  0  0  0  0  0  0  0  0  0
   -2.5230   -0.9420    0.1540 C   0  0  0  0  0  0  0  0  0  0  0  0
   -2.6980   -1.9350    0.8930 O   0  0  0  0  0  0  0  0  0  0  0  0
   -3.5910   -0.0540   -0.0640 N   0  0  0  0  0  0  0  0  0  0  0  0
   -4.8960   -0.2700    0.5560 C   0  0  2  0  0  0  0  0  0  0  0  0
   -5.9080   -0.3280   -0.5610 C   0  0  0  0  0  0  0  0  0  0  0  0
   -7.3080   -0.5480   -0.0800 C   0  0  0  0  0  0  0  0  0  0  0  0
   -5.1350    0.8840    1.4610 C   0  0  0  0  0  0  0  0  0  0  0  0
   -4.3140    1.8280    1.6070 O   0  0  0  0  0  0  0  0  0  0  0  0
   -6.3130    0.9470    2.1910 O   0  0  0  0  0  0  0  0  0  0  0  0
   -6.6210    2.0070    3.0730 C   0  0  0  0  0  0  0  0  0  0  0  0
  1  2  1  0
  3  2  1  6
  3  4  1  0
  3 18  1  0
  4  5  1  1
  4 16  1  0
  5  6  1  0
  6  7  2  0
  6  8  1  0
  8  9  1  0
  9 10  2  0
  9 14  1  0
 10 11  1  0
 11 12  1  0
 12 13  1  0
 13 14  2  0
 14 15  1  0
 16 17  1  0
 17 18  1  0
 18 19  1  0
 19 20  2  0
 19 21  1  0
 21 22  1  0
 22 23  1  6
 22 25  1  0
 23 24  1  0
 25 26  2  0
 25 27  1  0
 27 28  1  0
M  END
