
     RDKit          3D

 28 28  0  0  0  0  0  0  0  0999 V2000
    3.0680   -2.7730    3.2040 C   0  0  0  0  0  0  0  0  0  0  0  0
    3.4930   -2.8440    1.7590 C   0  0  0  0  0  0  0  0  0  0  0  0
    4.0150   -1.4410    1.2950 C   0  0  1  0  0  0  0  0  0  0  0  0
    4.3950   -1.6590   -0.1310 C   0  0  0  0  0  0  0  0  0  0  0  0
    2.9320   -0.4580    1.5290 C   0  0  0  0  0  0  0  0  0  0  0  0
    3.1120    0.9660    1.2350 C   0  0  0  0  0  0  0  0  0  0  0  0
    3.3000    1.5050   -0.1160 C   0  0  2  0  0  0  0  0  0  0  0  0
    2.1920    1.2750   -1.0940 C   0  0  0  0  0  0  0  0  0  0  0  0
    0.9780    1.8930   -0.5700 N   0  0  0  0  0  0  0  0  0  0  0  0
   -0.2520    1.8390   -1.3020 C   0  0  0  0  0  0  0  0  0  0  0  0
   -0.1940    1.2330   -2.3990 O   0  0  0  0  0  0  0  0  0  0  0  0
   -1.4390    2.4800   -0.7210 C   0  0  0  0  0  0  0  0  0  0  0  0
   -2.7100    2.3490   -1.4700 C   0  0  0  0  0  0  0  0  0  0  0  0
   -3.2070    1.0190   -1.6620 N   0  0  0  0  0  0  0  0  0  0  0  0
   -2.8910    0.2730   -2.8500 C   0  0  0  0  0  0  0  0  0  0  0  0
   -4.0490    0.4440   -0.6710 C   0  0  0  0  0  0  0  0  0  0  0  0
   -4.3610    1.0960    0.3740 O   0  0  0  0  0  0  0  0  0  0  0  0
   -4.5750   -0.8270   -0.7660 O   0  0  0  0  0  0  0  0  0  0  0  0
   -5.4020   -1.4530    0.1580 C   0  0  2  0  0  0  0  0  0  0  0  0
   -5.7370   -2.8530   -0.3590 C   0  0  0  0  0  0  0  0  0  0  0  0
   -6.6620   -0.6370    0.3270 C   0  0  0  0  0  0  0  0  0  0  0  0
   -4.7730   -1.6240    1.5190 C   0  0  0  0  0  0  0  0  0  0  0  0
    4.6230    1.2890   -0.6160 N   0  0  0  0  0  0  0  0  0  0  0  0
    5.4680    2.0280    0.2970 C   0  0  0  0  0  0  0  0  0  0  0  0
    6.6450    1.7880    0.6540 O   0  0  0  0  0  0  0  0  0  0  0  0
    4.6950    3.1560    0.7610 N   0  0  0  0  0  0  0  0  0  0  0  0
    3.4290    3.0350    0.1040 C   0  0  0  0  0  0  0  0  0  0  0  0
    2.6260    3.9030   -0.2180 O   0  0  0  0  0  0  0  0  0  0  0  0
  1  2  1  0
  2  3  1  0
  3  4  1  6
  3  5  1  0
  5  6  1  0
  7  6  1  1
  7  8  1  0
  7 23  1  0
  7 27  1  0
  8  9  1  0
  9 10  1  0
 10 11  2  0
 10 12  1  0
 12 13  1  0
 13 14  1  0
 14 15  1  0
 14 16  1  0
 16 17  2  0
 16 18  1  0
 18 19  1  0
 19 20  1  6
 19 21  1  0
 19 22  1  0
 23 24  1  0
 24 25  2  0
 24 26  1  0
 26 27  1  0
 27 28  2  0
M  END
