
     RDKit          3D

 25 29  0  0  0  0  0  0  0  0999 V2000
   -6.4510   -2.5670    0.3270 C   0  0  0  0  0  0  0  0  0  0  0  0
   -5.8010   -1.6070    0.9580 C   0  0  0  0  0  0  0  0  0  0  0  0
   -5.8500   -0.4090    0.1320 C   0  0  0  0  0  0  0  0  0  0  0  0
   -5.2290    0.9140    0.4860 C   0  0  0  0  0  0  0  0  0  0  0  0
   -3.7470    0.6730    0.6440 C   0  0  2  0  0  0  0  0  0  0  0  0
   -3.0240    1.9790    1.0080 C   0  0  0  0  0  0  0  0  0  0  0  0
   -1.7310    1.8040    0.3630 N   0  0  0  0  0  0  0  0  0  0  0  0
   -1.7830    0.8970   -0.5510 C   0  0  0  0  0  0  0  0  0  0  0  0
   -0.6650    0.4900   -1.3720 N   0  0  0  0  0  0  0  0  0  0  0  0
    0.6250    0.3420   -0.8400 C   0  0  0  0  0  0  0  0  0  0  0  0
    0.9250    0.4730    0.4980 C   0  0  0  0  0  0  0  0  0  0  0  0
    2.2300    0.3190    0.9520 C   0  0  0  0  0  0  0  0  0  0  0  0
    3.2440    0.0310    0.0650 C   0  0  0  0  0  0  0  0  0  0  0  0
    2.9480   -0.1000   -1.2620 C   0  0  0  0  0  0  0  0  0  0  0  0
    1.6560    0.0530   -1.7100 C   0  0  0  0  0  0  0  0  0  0  0  0
    4.1260   -0.3770   -1.8690 N   0  0  0  0  0  0  0  0  0  0  0  0
    5.1360   -0.4230   -0.9730 C   0  0  0  0  0  0  0  0  0  0  0  0
    4.5890   -0.1710    0.2190 N   0  0  0  0  0  0  0  0  0  0  0  0
    5.3470   -0.1300    1.4490 C   0  0  0  0  0  0  0  0  0  0  0  0
    6.7970   -0.4360    1.2780 C   0  0  0  0  0  0  0  0  0  0  0  0
    7.3250    0.0940   -0.0600 C   0  0  0  0  0  0  0  0  0  0  0  0
    6.6040   -0.6870   -1.1270 C   0  0  0  0  0  0  0  0  0  0  0  0
   -3.1060    0.3860   -0.6200 N   0  0  0  0  0  0  0  0  0  0  0  0
   -6.5220   -0.6470   -0.9800 C   0  0  0  0  0  0  0  0  0  0  0  0
   -6.9640   -2.0420   -0.9560 C   0  0  0  0  0  0  0  0  0  0  0  0
  1  2  2  0
  1 25  1  0
  2  3  1  0
  3  4  1  0
  3 24  2  0
  5  4  1  6
  5  6  1  0
  5 23  1  0
  6  7  1  0
  7  8  2  0
  8  9  1  0
  8 23  1  0
  9 10  1  0
 10 11  2  0
 10 15  1  0
 11 12  1  0
 12 13  2  0
 13 14  1  0
 13 18  1  0
 14 15  2  0
 14 16  1  0
 16 17  2  0
 17 18  1  0
 17 22  1  0
 18 19  1  0
 19 20  1  0
 20 21  1  0
 21 22  1  0
 24 25  1  0
M  END
