
     RDKit          3D

 25 28  0  0  0  0  0  0  0  0999 V2000
    3.2470    0.9240   -1.3020 C   0  0  0  0  0  0  0  0  0  0  0  0
    3.3870    0.4530    0.0930 C   0  0  2  0  0  0  0  0  0  0  0  0
    3.0580    1.5550    1.0750 C   0  0  0  0  0  0  0  0  0  0  0  0
    4.8260    0.0590    0.3460 C   0  0  0  0  0  0  0  0  0  0  0  0
    2.5200   -0.8090    0.3960 C   0  0  0  0  0  0  0  0  0  0  0  0
    1.0880   -0.4610    0.1620 C   0  0  0  0  0  0  0  0  0  0  0  0
    0.7310    0.7960   -0.1710 N   0  0  0  0  0  0  0  0  0  0  0  0
   -0.5300    1.1780   -0.3930 C   0  0  0  0  0  0  0  0  0  0  0  0
   -0.8870    2.5870   -0.7580 C   0  0  2  0  0  0  0  0  0  0  0  0
    0.1440    3.5580   -1.1470 C   0  0  0  0  0  0  0  0  0  0  0  0
   -0.3540    3.5880    0.2700 C   0  0  0  0  0  0  0  0  0  0  0  0
   -1.5650    0.2700   -0.2880 C   0  0  0  0  0  0  0  0  0  0  0  0
   -1.2380   -1.0260    0.0510 C   0  0  0  0  0  0  0  0  0  0  0  0
   -2.2600   -1.9370    0.1730 C   0  0  0  0  0  0  0  0  0  0  0  0
   -3.6730   -1.6360   -0.0380 C   0  0  0  0  0  0  0  0  0  0  0  0
   -4.5850   -1.9590    0.9450 C   0  0  0  0  0  0  0  0  0  0  0  0
   -5.9470   -1.7180    0.7640 C   0  0  0  0  0  0  0  0  0  0  0  0
   -6.4130   -1.1500   -0.4030 C   0  0  0  0  0  0  0  0  0  0  0  0
   -5.5100   -0.8430   -1.3480 N   0  0  0  0  0  0  0  0  0  0  0  0
   -4.1770   -1.0750   -1.1810 C   0  0  0  0  0  0  0  0  0  0  0  0
   -1.8820   -3.2010    0.5280 N   0  0  0  0  0  0  0  0  0  0  0  0
   -0.6440   -3.5600    0.7430 N   0  0  0  0  0  0  0  0  0  0  0  0
    0.4140   -2.6960    0.6350 C   0  0  0  0  0  0  0  0  0  0  0  0
    1.7280   -3.1780    0.8870 N   0  0  0  0  0  0  0  0  0  0  0  0
    0.0970   -1.4060    0.2810 C   0  0  0  0  0  0  0  0  0  0  0  0
  2  1  1  6
  2  3  1  0
  2  4  1  0
  2  5  1  0
  5  6  1  0
  6  7  2  0
  6 25  1  0
  7  8  1  0
  9  8  1  1
  8 12  2  0
  9 10  1  0
  9 11  1  0
 10 11  1  0
 12 13  1  0
 13 14  2  0
 13 25  1  0
 14 15  1  0
 14 21  1  0
 15 16  2  0
 15 20  1  0
 16 17  1  0
 17 18  2  0
 18 19  1  0
 19 20  2  0
 21 22  2  0
 22 23  1  0
 23 24  1  0
 23 25  2  0
M  END
