
     RDKit          3D

 15 15  0  0  0  0  0  0  0  0999 V2000
    2.9900    2.3500   -0.2290 C   0  0  0  0  0  0  0  0  0  0  0  0
    2.0720    1.5830    0.5540 O   0  0  0  0  0  0  0  0  0  0  0  0
    2.5610    0.4610    1.1850 C   0  0  0  0  0  0  0  0  0  0  0  0
    4.0380    0.6960    1.9350 S   0  0  0  0  0  0  0  0  0  0  0  0
    1.9400   -0.7840    1.2350 N   0  0  0  0  0  0  0  0  0  0  0  0
    0.6920   -1.0720    0.6370 C   0  0  0  0  0  0  0  0  0  0  0  0
    0.3450   -2.4380    0.5830 C   0  0  0  0  0  0  0  0  0  0  0  0
   -0.8490   -2.7880    0.0330 C   0  0  0  0  0  0  0  0  0  0  0  0
   -1.7180   -1.8410   -0.4690 C   0  0  0  0  0  0  0  0  0  0  0  0
   -2.9680   -2.2330   -1.0430 N   0  0  0  0  0  0  0  0  0  0  0  0
   -1.3750   -0.5100   -0.4140 C   0  0  0  0  0  0  0  0  0  0  0  0
   -2.2900    0.4150   -0.9360 O   0  0  0  0  0  0  0  0  0  0  0  0
   -2.0080    1.7910   -0.9130 C   0  0  0  0  0  0  0  0  0  0  0  0
   -1.8320    2.2570    0.3710 O   0  0  0  0  0  0  0  0  0  0  0  0
   -0.1700   -0.1270    0.1400 C   0  0  0  0  0  0  0  0  0  0  0  0
  1  2  1  0
  2  3  1  0
  3  4  2  0
  3  5  1  0
  5  6  1  0
  6  7  2  0
  6 15  1  0
  7  8  1  0
  8  9  2  0
  9 10  1  0
  9 11  1  0
 11 12  1  0
 11 15  2  0
 12 13  1  0
 13 14  1  0
M  END
