
     RDKit          3D

 25 28  0  0  0  0  0  0  0  0999 V2000
   -3.2440   -3.4920   -0.6960 C   0  0  0  0  0  0  0  0  0  0  0  0
   -3.1950   -2.5760    0.5090 C   0  0  0  0  0  0  0  0  0  0  0  0
   -2.3900   -1.3660    0.3130 C   0  0  0  0  0  0  0  0  0  0  0  0
   -2.8820   -0.1170    0.0540 N   0  0  0  0  0  0  0  0  0  0  0  0
   -1.9050    0.7580   -0.0850 N   0  0  0  0  0  0  0  0  0  0  0  0
   -2.1550    2.1540   -0.3650 C   0  0  0  0  0  0  0  0  0  0  0  0
   -3.4030    2.6970   -0.2020 C   0  0  0  0  0  0  0  0  0  0  0  0
   -3.6610    4.0140   -0.4630 C   0  0  0  0  0  0  0  0  0  0  0  0
   -2.6530    4.8320   -0.9010 C   0  0  0  0  0  0  0  0  0  0  0  0
   -1.4050    4.3060   -1.0680 C   0  0  0  0  0  0  0  0  0  0  0  0
   -1.1410    2.9660   -0.8030 C   0  0  0  0  0  0  0  0  0  0  0  0
   -0.7280    0.1420    0.0740 C   0  0  0  0  0  0  0  0  0  0  0  0
    0.5470    0.5770    0.0310 N   0  0  0  0  0  0  0  0  0  0  0  0
    1.5570   -0.2780    0.2320 C   0  0  0  0  0  0  0  0  0  0  0  0
    2.9490    0.1580    0.1900 C   0  0  0  0  0  0  0  0  0  0  0  0
    3.2380    1.4760   -0.0740 C   0  0  0  0  0  0  0  0  0  0  0  0
    4.5620    1.9070   -0.1180 C   0  0  0  0  0  0  0  0  0  0  0  0
    5.6030    1.0490    0.0950 C   0  0  0  0  0  0  0  0  0  0  0  0
    5.3020   -0.2710    0.3600 C   0  0  0  0  0  0  0  0  0  0  0  0
    3.9860   -0.7050    0.4050 C   0  0  0  0  0  0  0  0  0  0  0  0
    3.7600   -2.0770    0.6840 N   0  0  0  0  0  0  0  0  0  0  0  0
    1.2770   -1.5470    0.4710 N   0  0  0  0  0  0  0  0  0  0  0  0
    0.0200   -2.0720    0.5310 C   0  0  0  0  0  0  0  0  0  0  0  0
   -0.2450   -3.4860    0.8050 C   0  0  0  0  0  0  0  0  0  0  0  0
   -1.0220   -1.1970    0.3250 C   0  0  0  0  0  0  0  0  0  0  0  0
  1  2  1  0
  2  3  1  0
  3  4  2  0
  3 25  1  0
  4  5  1  0
  5  6  1  0
  5 12  1  0
  6  7  2  0
  6 11  1  0
  7  8  1  0
  8  9  2  0
  9 10  1  0
 10 11  2  0
 12 13  2  0
 12 25  1  0
 13 14  1  0
 14 15  1  0
 14 22  2  0
 15 16  2  0
 15 20  1  0
 16 17  1  0
 17 18  2  0
 18 19  1  0
 19 20  2  0
 20 21  1  0
 22 23  1  0
 23 24  1  0
 23 25  2  0
M  END
