
     RDKit          3D

 15 15  0  0  0  0  0  0  0  0999 V2000
    0.4270    1.3810    1.5520 O   0  0  0  0  0  0  0  0  0  0  0  0
   -0.3980    0.4640    1.1900 C   0  0  0  0  0  0  0  0  0  0  0  0
   -1.7140    0.3750    1.8630 C   0  0  0  0  0  0  0  0  0  0  0  0
   -2.7360   -0.8800    1.1900 S   0  0  0  0  0  0  0  0  0  0  0  0
   -3.4040   -0.6900   -0.4230 C   0  0  0  0  0  0  0  0  0  0  0  0
   -4.4140    0.4120   -0.6220 C   0  0  0  0  0  0  0  0  0  0  0  0
   -5.5400    0.2860    0.1560 O   0  0  0  0  0  0  0  0  0  0  0  0
    0.0380   -0.3980    0.1600 N   0  0  0  0  0  0  0  0  0  0  0  0
    1.3230   -0.2250   -0.4140 N   0  0  0  0  0  0  0  0  0  0  0  0
    2.4860   -0.7460    0.1620 C   0  0  0  0  0  0  0  0  0  0  0  0
    2.3330   -1.3980    1.2560 O   0  0  0  0  0  0  0  0  0  0  0  0
    3.8050   -0.5750   -0.4230 C   0  0  0  0  0  0  0  0  0  0  0  0
    5.0060   -1.0050   -0.0020 C   0  0  0  0  0  0  0  0  0  0  0  0
    5.6230   -0.3840   -1.1540 C   0  0  0  0  0  0  0  0  0  0  0  0
    4.4410    0.0430   -1.5730 C   0  0  0  0  0  0  0  0  0  0  0  0
  1  2  2  0
  2  3  1  0
  2  8  1  0
  3  4  1  0
  4  5  1  0
  5  6  1  0
  6  7  1  0
  8  9  1  0
  9 10  1  0
 10 11  2  0
 10 12  1  0
 12 13  2  0
 12 15  1  0
 13 14  1  0
 14 15  2  0
M  END
