
     RDKit          3D

 25 28  0  0  0  0  0  0  0  0999 V2000
    0.3130    4.7240   -3.0750 C   0  0  0  0  0  0  0  0  0  0  0  0
   -0.1870    4.6820   -1.8810 C   0  0  0  0  0  0  0  0  0  0  0  0
   -0.2060    3.4750   -1.0240 C   0  0  0  0  0  0  0  0  0  0  0  0
    0.4090    2.2500   -1.6010 C   0  0  0  0  0  0  0  0  0  0  0  0
   -0.6970    3.4820    0.1930 C   0  0  0  0  0  0  0  0  0  0  0  0
   -1.2380    4.6920    0.7670 N   0  0  0  0  0  0  0  0  0  0  0  0
   -1.7860    4.6740    2.0740 C   0  0  0  0  0  0  0  0  0  0  0  0
   -1.8230    3.5860    2.7970 C   0  0  0  0  0  0  0  0  0  0  0  0
   -2.4110    3.6130    4.1770 C   0  0  0  0  0  0  0  0  0  0  0  0
   -1.3000    2.3690    2.2650 C   0  0  0  0  0  0  0  0  0  0  0  0
   -0.7570    2.3000    1.0130 C   0  0  0  0  0  0  0  0  0  0  0  0
   -0.3920    1.0190    0.6040 N   0  0  0  0  0  0  0  0  0  0  0  0
    0.6080    0.2580    1.3690 C   0  0  0  0  0  0  0  0  0  0  0  0
    0.6920   -1.1290    0.8080 C   0  0  0  0  0  0  0  0  0  0  0  0
    1.1580   -1.3410   -0.4520 C   0  0  0  0  0  0  0  0  0  0  0  0
    1.1630   -2.6220   -0.9410 C   0  0  0  0  0  0  0  0  0  0  0  0
    0.7400   -3.7040   -0.2690 N   0  0  0  0  0  0  0  0  0  0  0  0
    0.6830   -5.0220   -0.5990 C   0  0  0  0  0  0  0  0  0  0  0  0
    1.1050   -5.5120   -1.9100 C   0  0  2  0  0  0  0  0  0  0  0  0
    0.5990   -6.8940   -2.3400 C   0  0  0  0  0  0  0  0  0  0  0  0
    2.0750   -6.6180   -2.1110 C   0  0  0  0  0  0  0  0  0  0  0  0
    0.1760   -5.6460    0.4640 N   0  0  0  0  0  0  0  0  0  0  0  0
   -0.0660   -4.7090    1.4220 N   0  0  0  0  0  0  0  0  0  0  0  0
    0.2840   -3.4960    0.9730 C   0  0  0  0  0  0  0  0  0  0  0  0
    0.2390   -2.2390    1.5550 C   0  0  0  0  0  0  0  0  0  0  0  0
  1  2  2  0
  2  3  1  0
  3  4  1  0
  3  5  2  3
  5  6  1  0
  5 11  1  0
  6  7  1  0
  7  8  2  0
  8  9  1  0
  8 10  1  0
 10 11  2  0
 11 12  1  0
 12 13  1  0
 13 14  1  0
 14 15  1  0
 14 25  2  0
 15 16  2  0
 16 17  1  0
 17 18  1  0
 17 24  1  0
 19 18  1  1
 18 22  2  0
 19 20  1  0
 19 21  1  0
 20 21  1  0
 22 23  1  0
 23 24  2  0
 24 25  1  0
M  END
