
     RDKit          3D

 15 15  0  0  0  0  0  0  0  0999 V2000
    4.8850    0.8700   -0.3430 C   0  0  0  0  0  0  0  0  0  0  0  0
    4.6990   -0.5240    0.2200 C   0  0  0  0  0  0  0  0  0  0  0  0
    3.3780   -0.6300    0.9360 C   0  0  0  0  0  0  0  0  0  0  0  0
    2.2880   -0.3510    0.0190 N   0  0  0  0  0  0  0  0  0  0  0  0
    0.9410   -0.3970    0.4890 C   0  0  0  0  0  0  0  0  0  0  0  0
    0.6350   -0.6680    1.6690 O   0  0  0  0  0  0  0  0  0  0  0  0
   -0.0890   -0.1170   -0.4430 N   0  0  0  0  0  0  0  0  0  0  0  0
   -1.4850   -0.1410   -0.0490 C   0  0  2  0  0  0  0  0  0  0  0  0
   -2.1790   -1.1180   -0.9480 C   0  0  0  0  0  0  0  0  0  0  0  0
   -3.6510   -1.1860   -0.8000 C   0  0  0  0  0  0  0  0  0  0  0  0
   -4.4420    0.3300   -0.4380 S   0  0  1  0  0  0  0  0  0  0  0  0
   -4.7520    1.0960   -1.7080 O   0  0  0  0  0  0  0  0  0  0  0  0
   -5.7200    0.1080    0.2910 O   0  0  0  0  0  0  0  0  0  0  0  0
   -3.3270    1.3750    0.5030 C   0  0  0  0  0  0  0  0  0  0  0  0
   -1.9940    1.2710   -0.2040 C   0  0  0  0  0  0  0  0  0  0  0  0
  1  2  1  0
  2  3  1  0
  3  4  1  0
  4  5  1  0
  5  6  2  0
  5  7  1  0
  8  7  1  6
  8  9  1  0
  8 15  1  0
  9 10  1  0
 11 10  1  6
 11 12  2  0
 11 13  2  0
 11 14  1  0
 14 15  1  0
M  END
