
     RDKit          3D

 18 20  0  0  0  0  0  0  0  0999 V2000
    2.3520   -0.0140   -3.4690 O   0  0  0  0  0  0  0  0  0  0  0  0
    1.8610   -0.2400   -2.3300 C   0  0  0  0  0  0  0  0  0  0  0  0
    0.7050   -1.0540   -1.9920 C   0  0  0  0  0  0  0  0  0  0  0  0
    0.0070   -1.6710   -2.8360 O   0  0  0  0  0  0  0  0  0  0  0  0
    0.5660   -0.9870   -0.5770 N   0  0  0  0  0  0  0  0  0  0  0  0
   -0.4980   -1.6900    0.1300 C   0  0  0  0  0  0  0  0  0  0  0  0
   -1.7120   -0.8130    0.2240 C   0  0  0  0  0  0  0  0  0  0  0  0
   -2.6540   -0.7690   -0.7740 C   0  0  0  0  0  0  0  0  0  0  0  0
   -3.7630    0.0390   -0.6730 C   0  0  0  0  0  0  0  0  0  0  0  0
   -3.9540    0.8270    0.4410 C   0  0  0  0  0  0  0  0  0  0  0  0
   -3.0070    0.7800    1.4420 C   0  0  0  0  0  0  0  0  0  0  0  0
   -1.8940   -0.0290    1.3430 C   0  0  0  0  0  0  0  0  0  0  0  0
    1.5990   -0.1560   -0.0160 C   0  0  0  0  0  0  0  0  0  0  0  0
    1.8640    0.1960    1.2930 C   0  0  0  0  0  0  0  0  0  0  0  0
    2.9410    1.0200    1.5320 C   0  0  0  0  0  0  0  0  0  0  0  0
    3.7270    1.4770    0.5020 C   0  0  0  0  0  0  0  0  0  0  0  0
    3.4560    1.1230   -0.7870 C   0  0  0  0  0  0  0  0  0  0  0  0
    2.3870    0.3010   -1.0590 C   0  0  0  0  0  0  0  0  0  0  0  0
  1  2  2  0
  2  3  1  0
  2 18  1  0
  3  4  2  0
  3  5  1  0
  5  6  1  0
  5 13  1  0
  6  7  1  0
  7  8  2  0
  7 12  1  0
  8  9  1  0
  9 10  2  0
 10 11  1  0
 11 12  2  0
 13 14  2  0
 13 18  1  0
 14 15  1  0
 15 16  2  0
 16 17  1  0
 17 18  2  0
M  END
