
     RDKit          3D

 13 13  0  0  0  0  0  0  0  0999 V2000
    0.2510    3.1250   -0.2780 O   0  0  0  0  0  0  0  0  0  0  0  0
   -0.2120    1.9780   -0.1940 C   0  0  0  0  0  0  0  0  0  0  0  0
   -1.6360    1.8670    0.1460 C   0  0  0  0  0  0  0  0  0  0  0  0
   -2.5110    0.8780    0.0300 C   0  0  0  0  0  0  0  0  0  0  0  0
   -2.4240   -0.4900   -0.4750 C   0  0  0  0  0  0  0  0  0  0  0  0
   -1.5990   -1.4600    0.2590 C   0  0  0  0  0  0  0  0  0  0  0  0
   -0.1550   -1.3930    0.1140 C   0  0  0  0  0  0  0  0  0  0  0  0
    0.3790   -2.5320    0.1480 O   0  0  0  0  0  0  0  0  0  0  0  0
    0.9290   -0.3880   -0.0650 C   0  0  0  0  0  0  0  0  0  0  0  0
    2.1190   -0.8170    0.1600 C   0  0  0  0  0  0  0  0  0  0  0  0
    3.3920   -0.0960    0.0780 C   0  0  0  0  0  0  0  0  0  0  0  0
    4.3340   -0.0830    1.7720 Br  0  0  0  0  0  0  0  0  0  0  0  0
    0.7970    0.9770   -0.4600 N   0  0  0  0  0  0  0  0  0  0  0  0
  1  2  2  0
  2  3  1  0
  2 13  1  0
  3  4  2  0
  4  5  1  0
  5  6  1  0
  6  7  1  0
  7  8  2  0
  7  9  1  0
  9 10  2  3
  9 13  1  0
 10 11  1  0
 11 12  1  0
M  END
