
     RDKit          3D

 13 14  0  0  0  0  0  0  0  0999 V2000
    2.9990   -0.6280    0.3040 C   0  0  0  0  0  0  0  0  0  0  0  0
    1.5950   -0.1490    0.1440 C   0  0  0  0  0  0  0  0  0  0  0  0
    1.2960    1.1920    0.0020 C   0  0  0  0  0  0  0  0  0  0  0  0
   -0.0170    1.6080   -0.1440 C   0  0  0  0  0  0  0  0  0  0  0  0
   -0.3600    3.4810   -0.3360 Br  0  0  0  0  0  0  0  0  0  0  0  0
   -1.0610    0.7060   -0.1530 C   0  0  0  0  0  0  0  0  0  0  0  0
   -0.7800   -0.6340   -0.0120 C   0  0  0  0  0  0  0  0  0  0  0  0
    0.5510   -1.0450    0.1350 C   0  0  0  0  0  0  0  0  0  0  0  0
   -2.0510   -1.3370   -0.0570 C   0  0  0  0  0  0  0  0  0  0  0  0
   -2.2390   -2.5690    0.0340 O   0  0  0  0  0  0  0  0  0  0  0  0
   -3.1200   -0.3610   -0.2320 C   0  0  0  0  0  0  0  0  0  0  0  0
   -4.3720   -0.5900   -0.3170 O   0  0  0  0  0  0  0  0  0  0  0  0
   -2.4750    0.9060   -0.2890 N   0  0  0  0  0  0  0  0  0  0  0  0
  1  2  1  0
  2  3  2  0
  2  8  1  0
  3  4  1  0
  4  5  1  0
  4  6  2  0
  6  7  1  0
  6 13  1  0
  7  8  2  0
  7  9  1  0
  9 10  2  0
  9 11  1  0
 11 12  2  0
 11 13  1  0
M  END
