
     RDKit          3D

 13 14  0  0  0  0  0  0  0  0999 V2000
   -2.5090   -1.5610   -0.4560 C   0  0  0  0  0  0  0  0  0  0  0  0
   -1.8400   -0.4980   -0.1910 C   0  0  0  0  0  0  0  0  0  0  0  0
   -2.5310    0.7160    0.0680 O   0  0  0  0  0  0  0  0  0  0  0  0
   -1.9260    1.9710   -0.0860 C   0  0  0  0  0  0  0  0  0  0  0  0
   -0.5420    1.9550    0.4100 C   0  0  0  0  0  0  0  0  0  0  0  0
   -0.0720    2.9170    1.0220 O   0  0  0  0  0  0  0  0  0  0  0  0
    0.2560    0.8020    0.1710 N   0  0  0  0  0  0  0  0  0  0  0  0
    1.6740    0.9640    0.2630 C   0  0  0  0  0  0  0  0  0  0  0  0
    2.3170   -0.3490    0.6730 C   0  0  0  0  0  0  0  0  0  0  0  0
    1.8690   -1.4200   -0.2900 C   0  0  0  0  0  0  0  0  0  0  0  0
    0.3770   -1.5030   -0.3540 C   0  0  0  0  0  0  0  0  0  0  0  0
   -0.4000   -3.1960   -0.7620 Br  0  0  0  0  0  0  0  0  0  0  0  0
   -0.3610   -0.4490   -0.1350 C   0  0  0  0  0  0  0  0  0  0  0  0
  1  2  2  0
  2  3  1  0
  2 13  1  0
  3  4  1  0
  4  5  1  0
  5  6  2  0
  5  7  1  0
  7  8  1  0
  7 13  1  0
  8  9  1  0
  9 10  1  0
 10 11  1  0
 11 12  1  0
 11 13  2  0
M  END
