
     RDKit          3D

 13 13  0  0  0  0  0  0  0  0999 V2000
   -0.0710   -1.4490   -1.5200 C   0  0  0  0  0  0  0  0  0  0  0  0
   -0.4670   -0.6500   -0.2700 C   0  0  2  0  0  0  0  0  0  0  0  0
   -0.6260   -1.6960    0.8440 C   0  0  0  0  0  0  0  0  0  0  0  0
   -1.8050   -0.0910   -0.5330 C   0  0  0  0  0  0  0  0  0  0  0  0
   -2.2440    0.8290    0.4520 O   0  0  0  0  0  0  0  0  0  0  0  0
   -1.5710    1.9650    0.8670 C   0  0  0  0  0  0  0  0  0  0  0  0
   -2.0800    2.6140    1.8270 O   0  0  0  0  0  0  0  0  0  0  0  0
   -0.3090    2.4960    0.2940 C   0  0  0  0  0  0  0  0  0  0  0  0
    0.7170    1.5130    0.2850 N   0  0  0  0  0  0  0  0  0  0  0  0
    0.6270    0.2370    0.0520 C   0  0  0  0  0  0  0  0  0  0  0  0
    1.9270   -0.4020    0.1450 C   0  0  0  0  0  0  0  0  0  0  0  0
    3.0390    0.2480    0.4280 C   0  0  0  0  0  0  0  0  0  0  0  0
    4.7320   -0.5860    0.5490 Br  0  0  0  0  0  0  0  0  0  0  0  0
  2  1  1  6
  2  3  1  0
  2  4  1  0
  2 10  1  0
  4  5  1  0
  5  6  1  0
  6  7  2  0
  6  8  1  0
  8  9  1  0
  9 10  2  0
 10 11  1  0
 11 12  2  3
 12 13  1  0
M  END
