
     RDKit          3D

 12 13  0  0  0  0  0  0  0  0999 V2000
    1.8000    3.6740   -0.3630 O   0  0  0  0  0  0  0  0  0  0  0  0
    1.4850    2.4550   -0.2710 C   0  0  0  0  0  0  0  0  0  0  0  0
    0.0990    2.0590   -0.5270 C   0  0  0  0  0  0  0  0  0  0  0  0
   -0.2640    0.7770   -0.4380 C   0  0  0  0  0  0  0  0  0  0  0  0
   -1.6580    0.3900   -0.6980 C   0  0  0  0  0  0  0  0  0  0  0  0
   -1.9780   -0.8450    0.0920 C   0  0  0  0  0  0  0  0  0  0  0  0
   -1.0010   -1.9630   -0.2250 C   0  0  0  0  0  0  0  0  0  0  0  0
    0.3960   -1.5210    0.0210 C   0  0  0  0  0  0  0  0  0  0  0  0
    0.6990   -0.2410   -0.0870 C   0  0  0  0  0  0  0  0  0  0  0  0
    2.0900    0.1920    0.1650 C   0  0  0  0  0  0  0  0  0  0  0  0
    3.0080   -0.7920    0.5010 O   0  0  0  0  0  0  0  0  0  0  0  0
    2.4200    1.4410    0.0730 N   0  0  0  0  0  0  0  0  0  0  0  0
  1  2  2  0
  2  3  1  0
  2 12  1  0
  3  4  2  0
  4  5  1  0
  4  9  1  0
  5  6  1  0
  6  7  1  0
  7  8  1  0
  8  9  2  0
  9 10  1  0
 10 11  1  0
 10 12  2  0
M  END
