
     RDKit          3D

 30 33  0  0  0  0  0  0  0  0999 V2000
   -8.0800   -0.7640    0.8210 C   0  0  0  0  0  0  0  0  0  0  0  0
   -6.9050   -0.0610    0.1140 C   0  0  1  0  0  0  0  0  0  0  0  0
   -7.5350    1.1210   -0.6430 C   0  0  0  0  0  0  0  0  0  0  0  0
   -8.2060    2.0310    0.2310 N   0  0  0  0  0  0  0  0  0  0  0  0
   -5.9680    0.3800    1.1630 C   0  0  0  0  0  0  0  0  0  0  0  0
   -4.5240    0.1240    1.0020 C   0  0  0  0  0  0  0  0  0  0  0  0
   -4.1450   -0.9660    0.1460 N   0  0  0  0  0  0  0  0  0  0  0  0
   -2.7650   -1.2550   -0.0100 C   0  0  0  0  0  0  0  0  0  0  0  0
   -2.2570   -2.5250    0.1510 C   0  0  0  0  0  0  0  0  0  0  0  0
   -0.9140   -2.7920   -0.0030 C   0  0  0  0  0  0  0  0  0  0  0  0
   -0.4450   -4.0680    0.1660 F   0  0  0  0  0  0  0  0  0  0  0  0
   -0.0100   -1.7950   -0.3290 C   0  0  0  0  0  0  0  0  0  0  0  0
   -0.5060   -0.5260   -0.4920 C   0  0  0  0  0  0  0  0  0  0  0  0
    0.3760    0.6030   -0.8370 C   0  0  0  0  0  0  0  0  0  0  0  0
    1.7490    0.3030   -1.0040 N   0  0  0  0  0  0  0  0  0  0  0  0
    2.5450    0.2540    0.1880 C   0  0  0  0  0  0  0  0  0  0  0  0
    3.9800   -0.0220   -0.2850 C   0  0  2  0  0  0  0  0  0  0  0  0
    4.8690   -0.2230    0.8940 C   0  0  0  0  0  0  0  0  0  0  0  0
    6.2550   -0.3180    0.5390 N   0  0  0  0  0  0  0  0  0  0  0  0
    7.0190    0.3370    1.5540 C   0  0  0  0  0  0  0  0  0  0  0  0
    8.2600    1.0250    1.0850 C   0  0  0  0  0  0  0  0  0  0  0  0
    8.8570    0.2630   -0.0640 C   0  0  0  0  0  0  0  0  0  0  0  0
    7.8730    0.3420   -1.2090 C   0  0  0  0  0  0  0  0  0  0  0  0
    6.4530    0.1810   -0.7860 C   0  0  2  0  0  0  0  0  0  0  0  0
    5.6310    1.4370   -0.9730 C   0  0  0  0  0  0  0  0  0  0  0  0
    4.3120    1.0340   -1.1080 O   0  0  0  0  0  0  0  0  0  0  0  0
   -1.8440   -0.2620   -0.3370 C   0  0  0  0  0  0  0  0  0  0  0  0
   -5.1620   -1.6940   -0.5060 C   0  0  0  0  0  0  0  0  0  0  0  0
   -4.9800   -2.9340   -0.7160 O   0  0  0  0  0  0  0  0  0  0  0  0
   -6.4140   -0.9980   -0.9250 C   0  0  0  0  0  0  0  0  0  0  0  0
  2  1  1  1
  2  3  1  0
  2  5  1  0
  2 30  1  0
  3  4  1  0
  5  6  1  0
  6  7  1  0
  7  8  1  0
  7 28  1  0
  8  9  2  0
  8 27  1  0
  9 10  1  0
 10 11  1  0
 10 12  2  0
 12 13  1  0
 13 14  1  0
 13 27  2  0
 14 15  1  0
 15 16  1  0
 17 16  1  1
 17 18  1  0
 17 26  1  0
 18 19  1  0
 19 20  1  0
 19 24  1  0
 20 21  1  0
 21 22  1  0
 22 23  1  0
 24 23  1  1
 24 25  1  0
 25 26  1  0
 28 29  2  0
 28 30  1  0
M  CHG  2   4   1  15   1
M  END
