
     RDKit          3D

 29 32  0  0  0  0  0  0  0  0999 V2000
    5.3450   -4.3330    0.7110 C   0  0  0  0  0  0  0  0  0  0  0  0
    3.9600   -3.9140    0.7680 N   0  0  0  0  0  0  0  0  0  0  0  0
    3.5940   -2.5580    0.5640 C   0  0  0  0  0  0  0  0  0  0  0  0
    4.4620   -1.5580    0.3070 N   0  0  0  0  0  0  0  0  0  0  0  0
    3.7640   -0.4160    0.1700 C   0  0  0  0  0  0  0  0  0  0  0  0
    4.1990    0.8630   -0.0980 C   0  0  0  0  0  0  0  0  0  0  0  0
    3.2480    1.8540   -0.1860 C   0  0  0  0  0  0  0  0  0  0  0  0
    3.6340    3.1510   -0.4470 C   0  0  0  0  0  0  0  0  0  0  0  0
    4.8730    3.4130   -0.6090 O   0  0  0  0  0  0  0  0  0  0  0  0
    2.6950    4.0910   -0.5220 N   0  0  0  0  0  0  0  0  0  0  0  0
    1.3860    3.8480   -0.3570 C   0  0  0  0  0  0  0  0  0  0  0  0
    0.4210    4.9030   -0.4490 N   0  0  0  0  0  0  0  0  0  0  0  0
    1.0230    2.5730   -0.1020 N   0  0  0  0  0  0  0  0  0  0  0  0
    1.8990    1.5540   -0.0070 C   0  0  0  0  0  0  0  0  0  0  0  0
    1.4710    0.2730    0.2590 C   0  0  0  0  0  0  0  0  0  0  0  0
    0.0250   -0.0260    0.4250 C   0  0  0  0  0  0  0  0  0  0  0  0
   -0.6580   -0.1060   -0.9090 C   0  0  0  0  0  0  0  0  0  0  0  0
   -2.1060   -0.4160   -0.8510 C   0  0  1  0  0  0  0  0  0  0  0  0
   -2.3790   -1.6470   -0.2360 O   0  0  0  0  0  0  0  0  0  0  0  0
   -3.7530   -1.7020   -0.1620 C   0  0  1  0  0  0  0  0  0  0  0  0
   -4.1830   -2.5050    0.8980 O   0  0  0  0  0  0  0  0  0  0  0  0
   -4.8630   -3.6180    0.4510 C   0  0  0  0  0  0  0  0  0  0  0  0
   -4.2780   -0.3090   -0.0750 C   0  0  2  0  0  0  0  0  0  0  0  0
   -4.8740    0.0200   -1.2960 O   0  0  0  0  0  0  0  0  0  0  0  0
   -2.9610    0.5130   -0.0410 C   0  0  2  0  0  0  0  0  0  0  0  0
   -3.1910    1.7480   -0.6470 O   0  0  0  0  0  0  0  0  0  0  0  0
   -3.0990    2.7610    0.2930 C   0  0  0  0  0  0  0  0  0  0  0  0
    2.4320   -0.7180    0.3470 C   0  0  0  0  0  0  0  0  0  0  0  0
    2.3570   -2.0320    0.5860 N   0  0  0  0  0  0  0  0  0  0  0  0
  1  2  1  0
  2  3  1  0
  3  4  2  0
  3 29  1  0
  4  5  1  0
  5  6  2  0
  5 28  1  0
  6  7  1  0
  7  8  1  0
  7 14  2  0
  8  9  2  0
  8 10  1  0
 10 11  1  0
 11 12  1  0
 11 13  2  0
 13 14  1  0
 14 15  1  0
 15 16  1  0
 15 28  2  0
 16 17  1  0
 18 17  1  1
 18 19  1  0
 18 25  1  0
 19 20  1  0
 20 21  1  1
 20 23  1  0
 21 22  1  0
 23 24  1  6
 23 25  1  0
 25 26  1  6
 26 27  1  0
 28 29  1  0
M  CHG  1  13   1
M  END
