
     RDKit          3D

 30 33  0  0  0  0  0  0  0  0999 V2000
    6.2370    0.3680   -2.5310 C   0  0  0  0  0  0  0  0  0  0  0  0
    5.7830   -0.0610   -1.1620 C   0  0  1  0  0  0  0  0  0  0  0  0
    4.2940    0.0550   -0.9810 C   0  0  0  0  0  0  0  0  0  0  0  0
    4.0050   -0.0860    0.4340 N   0  0  1  0  0  0  0  0  0  0  0  0
    2.8830    0.7460    0.7600 C   0  0  0  0  0  0  0  0  0  0  0  0
    1.5750    0.1730    0.2660 C   0  0  0  0  0  0  0  0  0  0  0  0
    0.4970    1.0900    0.6460 N   0  0  0  0  0  0  0  0  0  0  0  0
   -0.8770    0.8200    0.3150 C   0  0  0  0  0  0  0  0  0  0  0  0
   -0.9970   -0.2700   -0.3170 O   0  0  0  0  0  0  0  0  0  0  0  0
   -1.9810    1.6850    0.6480 C   0  0  0  0  0  0  0  0  0  0  0  0
   -1.7460    2.8650    1.2500 C   0  0  0  0  0  0  0  0  0  0  0  0
   -2.7160    3.8930    1.6640 C   0  0  0  0  0  0  0  0  0  0  0  0
   -2.2690    4.7210    2.6180 F   0  0  0  0  0  0  0  0  0  0  0  0
   -3.9600    4.1080    1.2210 C   0  0  0  0  0  0  0  0  0  0  0  0
   -4.6420    3.3400    0.2020 N   0  0  0  0  0  0  0  0  0  0  0  0
   -4.4770    1.9150    0.0560 C   0  0  0  0  0  0  0  0  0  0  0  0
   -5.6460    1.2820   -0.2880 C   0  0  0  0  0  0  0  0  0  0  0  0
   -5.7340   -0.0880   -0.3820 C   0  0  0  0  0  0  0  0  0  0  0  0
   -4.5970   -0.8070   -0.1130 C   0  0  0  0  0  0  0  0  0  0  0  0
   -3.3930   -0.1740    0.2400 C   0  0  0  0  0  0  0  0  0  0  0  0
   -3.3180    1.1870    0.3240 C   0  0  0  0  0  0  0  0  0  0  0  0
   -4.6690   -2.2600   -0.2050 C   0  0  0  0  0  0  0  0  0  0  0  0
   -3.6080   -2.9110   -0.0130 O   0  0  0  0  0  0  0  0  0  0  0  0
   -5.9630   -2.9570   -0.5180 C   0  0  0  0  0  0  0  0  0  0  0  0
   -7.1270   -2.1110   -0.0400 C   0  0  0  0  0  0  0  0  0  0  0  0
   -7.0210   -0.7670   -0.7620 C   0  0  0  0  0  0  0  0  0  0  0  0
    3.7590   -1.4890    0.7490 C   0  0  0  0  0  0  0  0  0  0  0  0
    5.0010   -2.2160    1.1610 C   0  0  0  0  0  0  0  0  0  0  0  0
    6.2580   -1.6510    0.5530 C   0  0  0  0  0  0  0  0  0  0  0  0
    6.1630   -1.4360   -0.8610 N   0  0  0  0  0  0  0  0  0  0  0  0
  2  1  1  6
  2  3  1  0
  2 30  1  0
  3  4  1  0
  4  5  1  6
  4 27  1  0
  5  6  1  0
  6  7  1  0
  7  8  1  0
  8  9  2  0
  8 10  1  0
 10 11  2  0
 10 21  1  0
 11 12  1  0
 12 13  1  0
 12 14  2  0
 14 15  1  0
 15 16  1  0
 16 17  2  0
 16 21  1  0
 17 18  1  0
 18 19  2  0
 18 26  1  0
 19 20  1  0
 19 22  1  0
 20 21  2  0
 22 23  2  0
 22 24  1  0
 24 25  1  0
 25 26  1  0
 27 28  1  0
 28 29  1  0
 29 30  1  0
M  CHG  2   4   1  30   1
M  END
