
     RDKit          3D

 30 32  0  0  0  0  0  0  0  0999 V2000
    6.9670   -0.0550    2.2700 C   0  0  0  0  0  0  0  0  0  0  0  0
    6.3830    0.1940    1.1000 C   0  0  0  0  0  0  0  0  0  0  0  0
    5.5540   -0.8360    0.4220 C   0  0  0  0  0  0  0  0  0  0  0  0
    4.1800   -0.4050    0.2160 N   0  0  0  0  0  0  0  0  0  0  0  0
    3.8610    0.7280   -0.5520 C   0  0  0  0  0  0  0  0  0  0  0  0
    4.8940    1.3340   -1.0490 O   0  0  0  0  0  0  0  0  0  0  0  0
    2.5380    1.2710   -0.8380 C   0  0  0  0  0  0  0  0  0  0  0  0
    1.4330    0.5650   -0.2650 N   0  0  0  0  0  0  0  0  0  0  0  0
    0.6360   -0.1170   -1.2660 C   0  0  1  0  0  0  0  0  0  0  0  0
    1.0070   -1.5540   -1.2560 C   0  0  0  0  0  0  0  0  0  0  0  0
    0.3230   -2.3600   -0.1820 C   0  0  0  0  0  0  0  0  0  0  0  0
   -1.1640   -2.1350   -0.3490 C   0  0  1  0  0  0  0  0  0  0  0  0
   -1.9510   -3.0650    0.4160 N   0  0  0  0  0  0  0  0  0  0  0  0
   -1.9490   -3.2630    1.8530 C   0  0  0  0  0  0  0  0  0  0  0  0
   -2.8760   -4.4020    2.1190 C   0  0  0  0  0  0  0  0  0  0  0  0
   -3.0940   -5.0720    0.7860 C   0  0  1  0  0  0  0  0  0  0  0  0
   -4.3850   -5.5330    0.6400 F   0  0  0  0  0  0  0  0  0  0  0  0
   -2.8910   -3.9660   -0.1620 C   0  0  0  0  0  0  0  0  0  0  0  0
   -3.4930   -3.8640   -1.3310 C   0  0  0  0  0  0  0  0  0  0  0  0
   -1.4040   -0.6890    0.0770 C   0  0  0  0  0  0  0  0  0  0  0  0
   -0.8420    0.1290   -1.0950 C   0  0  1  0  0  0  0  0  0  0  0  0
   -1.1840    1.4970   -1.0810 N   0  0  0  0  0  0  0  0  0  0  0  0
   -1.7720    2.0180    0.0950 C   0  0  2  0  0  0  0  0  0  0  0  0
   -3.2950    1.8920    0.0010 C   0  0  0  0  0  0  0  0  0  0  0  0
   -3.8200    3.1870   -0.1320 O   0  0  0  0  0  0  0  0  0  0  0  0
   -2.9050    4.1080    0.4230 C   0  0  0  0  0  0  0  0  0  0  0  0
   -3.1910    5.2260    1.0390 C   0  0  0  0  0  0  0  0  0  0  0  0
   -1.6180    3.4960    0.1310 C   0  0  0  0  0  0  0  0  0  0  0  0
   -0.4960    4.1550   -0.0620 C   0  0  0  0  0  0  0  0  0  0  0  0
   -0.3400    5.6220   -0.0290 C   0  0  0  0  0  0  0  0  0  0  0  0
  1  2  2  0
  2  3  1  0
  3  4  1  0
  4  5  1  0
  5  6  2  0
  5  7  1  0
  7  8  1  0
  9  8  1  1
  9 10  1  0
  9 21  1  0
 10 11  1  0
 11 12  1  0
 12 13  1  1
 12 20  1  0
 13 14  1  0
 13 18  1  0
 14 15  1  0
 15 16  1  0
 16 17  1  1
 16 18  1  0
 18 19  2  0
 20 21  1  0
 21 22  1  1
 23 22  1  6
 23 24  1  0
 23 28  1  0
 24 25  1  0
 25 26  1  0
 26 27  2  0
 26 28  1  0
 28 29  2  3
 29 30  1  0
M  CHG  2   8   1  22   1
M  END
