
     RDKit          3D

 29 32  0  0  0  0  0  0  0  0999 V2000
   -8.1750    1.4930    2.1050 O   0  0  0  0  0  0  0  0  0  0  0  0
   -7.2540    1.5120    1.2440 C   0  0  0  0  0  0  0  0  0  0  0  0
   -6.5360    0.3100    0.9210 N   0  0  0  0  0  0  0  0  0  0  0  0
   -5.5070    0.2860   -0.0290 C   0  0  0  0  0  0  0  0  0  0  0  0
   -4.7000   -0.8240   -0.4610 C   0  0  0  0  0  0  0  0  0  0  0  0
   -4.7550   -2.0720   -0.0530 C   0  0  0  0  0  0  0  0  0  0  0  0
   -5.9030   -2.5580    1.1520 Cl  0  0  0  0  0  0  0  0  0  0  0  0
   -3.7960   -3.0890   -0.6550 C   0  0  0  0  0  0  0  0  0  0  0  0
   -2.4000   -2.4880   -0.4200 C   0  0  0  0  0  0  0  0  0  0  0  0
   -2.4020   -1.1530   -0.9860 N   0  0  0  0  0  0  0  0  0  0  0  0
   -1.2300   -0.3580   -1.0290 C   0  0  0  0  0  0  0  0  0  0  0  0
   -1.2020    0.7940   -1.5100 O   0  0  0  0  0  0  0  0  0  0  0  0
    0.0220   -0.9280   -0.4720 C   0  0  0  0  0  0  0  0  0  0  0  0
    1.1690    0.0620   -0.6030 C   0  0  0  0  0  0  0  0  0  0  0  0
    2.3420   -0.5140   -0.0640 O   0  0  0  0  0  0  0  0  0  0  0  0
    3.5590    0.1550   -0.0410 C   0  0  0  0  0  0  0  0  0  0  0  0
    3.7410    1.4110   -0.5270 C   0  0  0  0  0  0  0  0  0  0  0  0
    4.9940    1.9730   -0.4500 C   0  0  0  0  0  0  0  0  0  0  0  0
    6.0670    1.3160    0.0990 C   0  0  0  0  0  0  0  0  0  0  0  0
    5.8880    0.0500    0.5900 C   0  0  0  0  0  0  0  0  0  0  0  0
    4.6270   -0.5170    0.5130 C   0  0  0  0  0  0  0  0  0  0  0  0
    6.9710   -0.5980    1.1370 O   0  0  0  0  0  0  0  0  0  0  0  0
    7.8620    0.0210    2.0160 C   0  0  0  0  0  0  0  0  0  0  0  0
    8.6610    1.1380    1.3840 C   0  0  0  0  0  0  0  0  0  0  0  0
    7.6700    2.0610    0.1790 S   0  0  0  0  0  0  0  0  0  0  0  0
   -3.6220   -0.6090   -1.5240 C   0  0  0  0  0  0  0  0  0  0  0  0
   -5.2510    1.4340   -0.5950 N   0  0  0  0  0  0  0  0  0  0  0  0
   -5.8940    2.6740   -0.3520 C   0  0  0  0  0  0  0  0  0  0  0  0
   -6.9160    2.6810    0.5950 O   0  0  0  0  0  0  0  0  0  0  0  0
  1  2  2  0
  2  3  1  0
  2 29  1  0
  3  4  1  0
  4  5  1  0
  4 27  2  0
  5  6  2  0
  5 26  1  0
  6  7  1  0
  6  8  1  0
  8  9  1  0
  9 10  1  0
 10 11  1  0
 10 26  1  0
 11 12  2  0
 11 13  1  0
 13 14  1  0
 14 15  1  0
 15 16  1  0
 16 17  2  0
 16 21  1  0
 17 18  1  0
 18 19  2  0
 19 20  1  0
 19 25  1  0
 20 21  2  0
 20 22  1  0
 22 23  1  0
 23 24  1  0
 24 25  1  0
 27 28  1  0
 28 29  1  0
M  END
