
     RDKit          3D

 30 33  0  0  0  0  0  0  0  0999 V2000
    8.1000    1.4930   -1.9370 C   0  0  0  0  0  0  0  0  0  0  0  0
    6.8220    1.0080   -1.3510 C   0  0  0  0  0  0  0  0  0  0  0  0
    6.6920    0.5610   -0.0660 C   0  0  0  0  0  0  0  0  0  0  0  0
    5.5190    0.1080    0.4950 C   0  0  0  0  0  0  0  0  0  0  0  0
    4.3920    0.1120   -0.3170 C   0  0  0  0  0  0  0  0  0  0  0  0
    4.4640    0.5530   -1.6220 C   0  0  0  0  0  0  0  0  0  0  0  0
    5.6690    0.9960   -2.1320 C   0  0  0  0  0  0  0  0  0  0  0  0
    5.7690    1.4360   -3.4160 F   0  0  0  0  0  0  0  0  0  0  0  0
    3.1570   -0.3570    0.2500 N   0  0  0  0  0  0  0  0  0  0  0  0
    1.9760   -0.3770   -0.5240 C   0  0  0  0  0  0  0  0  0  0  0  0
    0.8020   -0.8090   -0.0130 C   0  0  0  0  0  0  0  0  0  0  0  0
   -0.3740   -0.7990   -0.8920 C   0  0  0  0  0  0  0  0  0  0  0  0
   -1.3510    0.3000   -0.6910 C   0  0  0  0  0  0  0  0  0  0  0  0
   -2.0080    0.4260    0.6360 C   0  0  0  0  0  0  0  0  0  0  0  0
   -2.9770    1.6070    0.6010 C   0  0  0  0  0  0  0  0  0  0  0  0
   -3.9880    1.4240   -0.3860 N   0  0  0  0  0  0  0  0  0  0  0  0
   -4.6150    0.1330   -0.4050 C   0  0  2  0  0  0  0  0  0  0  0  0
   -5.4930    0.0930   -1.6560 C   0  0  0  0  0  0  0  0  0  0  0  0
   -6.8990    0.5590   -1.3500 C   0  0  0  0  0  0  0  0  0  0  0  0
   -7.5770   -0.4380   -0.4280 C   0  0  0  0  0  0  0  0  0  0  0  0
   -6.6390   -0.9260    0.6410 C   0  0  0  0  0  0  0  0  0  0  0  0
   -5.4590    0.0150    0.8460 C   0  0  2  0  0  0  0  0  0  0  0  0
   -5.8820    1.2690    1.2180 O   0  0  0  0  0  0  0  0  0  0  0  0
    0.7360   -1.2700    1.3480 C   0  0  0  0  0  0  0  0  0  0  0  0
   -0.3280   -1.6930    1.8760 O   0  0  0  0  0  0  0  0  0  0  0  0
    1.9020   -1.2790    2.1970 N   0  0  0  0  0  0  0  0  0  0  0  0
    3.1330   -0.8050    1.6130 C   0  0  0  0  0  0  0  0  0  0  0  0
    4.2050   -0.7890    2.3250 N   0  0  0  0  0  0  0  0  0  0  0  0
    5.4920   -0.3530    1.8970 C   0  0  1  0  0  0  0  0  0  0  0  0
    6.4370   -1.5600    1.9670 C   0  0  0  0  0  0  0  0  0  0  0  0
  1  2  1  0
  2  3  2  0
  2  7  1  0
  3  4  1  0
  4  5  2  0
  4 29  1  0
  5  6  1  0
  5  9  1  0
  6  7  2  0
  7  8  1  0
  9 10  1  0
  9 27  1  0
 10 11  2  0
 11 12  1  0
 11 24  1  0
 12 13  1  0
 13 14  1  0
 14 15  1  0
 15 16  1  0
 17 16  1  1
 17 18  1  0
 17 22  1  0
 18 19  1  0
 19 20  1  0
 20 21  1  0
 21 22  1  0
 22 23  1  6
 24 25  2  0
 24 26  1  0
 26 27  1  0
 27 28  2  0
 28 29  1  0
 29 30  1  6
M  CHG  2  16   1  28   1
M  END
