
     RDKit          3D

 30 33  0  0  0  0  0  0  0  0999 V2000
   -1.9160    0.0830    2.6930 C   0  0  0  0  0  0  0  0  0  0  0  0
   -2.3820    0.8100    1.4670 C   0  0  2  0  0  0  0  0  0  0  0  0
   -3.8300    0.4970    1.2160 C   0  0  1  0  0  0  0  0  0  0  0  0
   -4.6770    1.4980    1.9600 C   0  0  0  0  0  0  0  0  0  0  0  0
   -5.7090    1.9620    1.5270 O   0  0  0  0  0  0  0  0  0  0  0  0
   -4.2260    0.6820   -0.2380 C   0  0  0  0  0  0  0  0  0  0  0  0
   -3.3690   -0.2990   -1.0260 C   0  0  2  0  0  0  0  0  0  0  0  0
   -3.8440   -0.4340   -2.4590 C   0  0  0  0  0  0  0  0  0  0  0  0
   -3.4840   -1.5730   -0.3520 N   0  0  0  0  0  0  0  0  0  0  0  0
   -1.9930    0.2570   -0.9660 C   0  0  0  0  0  0  0  0  0  0  0  0
   -1.3040    0.4170   -1.9990 O   0  0  0  0  0  0  0  0  0  0  0  0
   -1.5430    0.6180    0.3370 N   0  0  0  0  0  0  0  0  0  0  0  0
   -0.1290    0.9190    0.4240 C   0  0  0  0  0  0  0  0  0  0  0  0
    0.1680    2.1940    0.9230 C   0  0  0  0  0  0  0  0  0  0  0  0
    1.3960    2.7280    0.8450 C   0  0  0  0  0  0  0  0  0  0  0  0
    1.6160    3.9310    1.4550 F   0  0  0  0  0  0  0  0  0  0  0  0
    2.4580    2.0250    0.2570 C   0  0  0  0  0  0  0  0  0  0  0  0
    3.6860    2.7480    0.0090 C   0  0  0  0  0  0  0  0  0  0  0  0
    4.8720    2.3280   -0.3690 C   0  0  0  0  0  0  0  0  0  0  0  0
    5.8160    3.4820   -0.5020 C   0  0  0  0  0  0  0  0  0  0  0  0
    4.9870    4.6170   -0.2170 N   0  0  0  0  0  0  0  0  0  0  0  0
    3.8150    4.2260    0.0760 C   0  0  0  0  0  0  0  0  0  0  0  0
    2.1660    0.7450   -0.2240 C   0  0  0  0  0  0  0  0  0  0  0  0
    0.8740    0.1930   -0.1360 C   0  0  0  0  0  0  0  0  0  0  0  0
    0.5880   -1.1940   -0.5600 C   0  0  0  0  0  0  0  0  0  0  0  0
    1.3430   -2.1770    0.1640 N   0  0  2  0  0  0  0  0  0  0  0  0
    2.6920   -2.1940    0.3880 C   0  0  0  0  0  0  0  0  0  0  0  0
    3.2730   -3.4630   -0.2410 C   0  0  0  0  0  0  0  0  0  0  0  0
    2.1380   -3.9880   -1.0900 C   0  0  0  0  0  0  0  0  0  0  0  0
    0.9310   -3.5130   -0.3260 C   0  0  0  0  0  0  0  0  0  0  0  0
  2  1  1  1
  2  3  1  0
  2 12  1  0
  3  4  1  1
  3  6  1  0
  4  5  2  0
  6  7  1  0
  7  8  1  6
  7  9  1  0
  7 10  1  0
 10 11  2  0
 10 12  1  0
 12 13  1  0
 13 14  2  0
 13 24  1  0
 14 15  1  0
 15 16  1  0
 15 17  2  0
 17 18  1  0
 17 23  1  0
 18 19  2  0
 18 22  1  0
 19 20  1  0
 20 21  1  0
 21 22  2  0
 23 24  2  0
 24 25  1  0
 26 25  1  6
 26 27  1  0
 26 30  1  0
 27 28  1  0
 28 29  1  0
 29 30  1  0
M  CHG  2   9   1  26   1
M  END
