
     RDKit          3D

 22 22  0  0  0  0  0  0  0  0999 V2000
   -5.9130    0.4740   -0.9990 C   0  0  0  0  0  0  0  0  0  0  0  0
   -5.2960   -0.3730    0.0970 C   0  0  2  0  0  0  0  0  0  0  0  0
   -5.6350    0.1600    1.4270 C   0  0  0  0  0  0  0  0  0  0  0  0
   -3.9070   -0.7650   -0.1510 C   0  0  0  0  0  0  0  0  0  0  0  0
   -2.8250    0.1640   -0.3820 C   0  0  2  0  0  0  0  0  0  0  0  0
   -1.5570   -0.5540   -0.6450 N   0  0  0  0  0  0  0  0  0  0  0  0
   -0.4370   -0.5680    0.1750 C   0  0  0  0  0  0  0  0  0  0  0  0
   -0.3970    0.0300    1.2610 O   0  0  0  0  0  0  0  0  0  0  0  0
    0.8280   -1.3100   -0.1820 C   0  0  1  0  0  0  0  0  0  0  0  0
    0.7390   -1.9530   -1.3820 O   0  0  0  0  0  0  0  0  0  0  0  0
    2.0110   -0.4120   -0.0370 C   0  0  2  0  0  0  0  0  0  0  0  0
    2.0520    0.6400   -1.0090 N   0  0  0  0  0  0  0  0  0  0  0  0
    3.2830   -1.2410   -0.0340 C   0  0  0  0  0  0  0  0  0  0  0  0
    4.5000   -0.4390    0.1050 C   0  0  0  0  0  0  0  0  0  0  0  0
    5.1450    0.0370   -1.0080 C   0  0  0  0  0  0  0  0  0  0  0  0
    6.2860    0.7870   -0.8480 C   0  0  0  0  0  0  0  0  0  0  0  0
    6.7760    1.0580    0.4070 C   0  0  0  0  0  0  0  0  0  0  0  0
    6.1460    0.5900    1.5400 C   0  0  0  0  0  0  0  0  0  0  0  0
    5.0010   -0.1610    1.3530 C   0  0  0  0  0  0  0  0  0  0  0  0
   -2.5160    1.2300    0.5760 C   0  0  0  0  0  0  0  0  0  0  0  0
   -1.4400    1.9140    0.2620 O   0  0  0  0  0  0  0  0  0  0  0  0
   -3.1390    1.6200    1.7100 O   0  0  0  0  0  0  0  0  0  0  0  0
  2  1  1  6
  2  3  1  0
  2  4  1  0
  5  4  1  1
  5  6  1  0
  5 20  1  0
  6  7  1  0
  7  8  2  0
  7  9  1  0
  9 10  1  6
  9 11  1  0
 11 12  1  6
 11 13  1  0
 13 14  1  0
 14 15  2  0
 14 19  1  0
 15 16  1  0
 16 17  2  0
 17 18  1  0
 18 19  2  0
 20 21  2  0
 20 22  1  0
M  CHG  1  12   1
M  END
