
     RDKit          3D

 12 12  0  0  0  0  0  0  0  0999 V2000
   -3.8040   -1.4870    1.1830 C   0  0  0  0  0  0  0  0  0  0  0  0
   -2.8610   -1.1730    0.3030 C   0  0  0  0  0  0  0  0  0  0  0  0
   -2.8520   -1.5570   -1.1240 C   0  0  0  0  0  0  0  0  0  0  0  0
   -1.6400   -0.9790   -1.6130 N   0  0  0  0  0  0  0  0  0  0  0  0
   -1.0080   -0.3580   -0.6950 C   0  0  0  0  0  0  0  0  0  0  0  0
    0.3090    0.3750   -0.8430 C   0  0  0  0  0  0  0  0  0  0  0  0
    1.3220   -0.2440    0.0780 C   0  0  0  0  0  0  0  0  0  0  0  0
    2.6670    0.4200   -0.0200 C   0  0  0  0  0  0  0  0  0  0  0  0
    2.5090    1.8740    0.3560 C   0  0  0  0  0  0  0  0  0  0  0  0
    3.8190    2.5300    0.2790 C   0  0  0  0  0  0  0  0  0  0  0  0
    4.8480    3.0390    0.2200 N   0  0  0  0  0  0  0  0  0  0  0  0
   -1.7040   -0.4410    0.5010 O   0  0  0  0  0  0  0  0  0  0  0  0
  1  2  2  0
  2  3  1  0
  2 12  1  0
  3  4  1  0
  4  5  2  0
  5  6  1  0
  5 12  1  0
  6  7  1  0
  7  8  1  0
  8  9  1  0
  9 10  1  0
 10 11  3  0
M  END
