
     RDKit          3D

 12 12  0  0  0  0  0  0  0  0999 V2000
    4.3150   -0.3360    0.3140 C   0  0  0  0  0  0  0  0  0  0  0  0
    3.1580   -0.4440   -0.6260 C   0  0  0  0  0  0  0  0  0  0  0  0
    1.9320   -0.2080    0.0050 O   0  0  0  0  0  0  0  0  0  0  0  0
    0.9240   -0.3350   -0.9660 C   0  0  0  0  0  0  0  0  0  0  0  0
   -0.4160   -0.1010   -0.3840 C   0  0  0  0  0  0  0  0  0  0  0  0
   -1.3080   -1.0260   -0.4260 N   0  0  0  0  0  0  0  0  0  0  0  0
   -2.5870   -0.9120    0.0870 N   0  0  0  0  0  0  0  0  0  0  0  0
   -3.5140   -2.0260   -0.0180 C   0  0  0  0  0  0  0  0  0  0  0  0
   -3.0220    0.3090    0.7310 C   0  0  0  0  0  0  0  0  0  0  0  0
   -1.9610    1.3190    0.7450 C   0  0  0  0  0  0  0  0  0  0  0  0
   -0.7520    1.1660    0.2430 C   0  0  0  0  0  0  0  0  0  0  0  0
    0.2440    2.2620    0.3150 C   0  0  0  0  0  0  0  0  0  0  0  0
  1  2  1  0
  2  3  1  0
  3  4  1  0
  4  5  1  0
  5  6  2  0
  5 11  1  0
  6  7  1  0
  7  8  1  0
  7  9  1  0
  9 10  1  0
 10 11  2  0
 11 12  1  0
M  END
