
     RDKit          3D

 12 12  0  0  0  0  0  0  0  0999 V2000
   -2.8830   -1.1300   -0.5810 C   0  0  0  0  0  0  0  0  0  0  0  0
   -2.1190   -0.6260    0.5050 O   0  0  0  0  0  0  0  0  0  0  0  0
   -0.7620   -0.3090    0.3500 C   0  0  0  0  0  0  0  0  0  0  0  0
   -0.4810    0.9590    0.1750 C   0  0  0  0  0  0  0  0  0  0  0  0
   -1.5660    2.0030    0.1460 C   0  0  0  0  0  0  0  0  0  0  0  0
    0.8920    1.4030    0.0030 C   0  0  0  0  0  0  0  0  0  0  0  0
    1.1560    2.8100   -0.1860 C   0  0  0  0  0  0  0  0  0  0  0  0
    1.3640    3.9490   -0.3200 N   0  0  0  0  0  0  0  0  0  0  0  0
    1.8960    0.5370    0.0180 C   0  0  0  0  0  0  0  0  0  0  0  0
    1.6140   -0.8340    0.2050 N   0  0  0  0  0  0  0  0  0  0  0  0
    2.7820   -1.7130    0.2070 C   0  0  0  0  0  0  0  0  0  0  0  0
    0.2840   -1.3300    0.3790 C   0  0  0  0  0  0  0  0  0  0  0  0
  1  2  1  0
  2  3  1  0
  3  4  2  0
  3 12  1  0
  4  5  1  0
  4  6  1  0
  6  7  1  0
  6  9  2  0
  7  8  3  0
  9 10  1  0
 10 11  1  0
 10 12  1  0
M  END
