
     RDKit          3D

 12 12  0  0  0  0  0  0  0  0999 V2000
    3.3840   -0.4170   -0.0210 C   0  0  0  0  0  0  0  0  0  0  0  0
    2.4370    0.3010   -0.8000 O   0  0  0  0  0  0  0  0  0  0  0  0
    1.0920    0.1710   -0.4640 C   0  0  0  0  0  0  0  0  0  0  0  0
    0.3650    1.2730   -0.3400 C   0  0  0  0  0  0  0  0  0  0  0  0
    0.9080    2.5680   -0.5360 C   0  0  0  0  0  0  0  0  0  0  0  0
    1.3410    3.6160   -0.6920 N   0  0  0  0  0  0  0  0  0  0  0  0
   -1.0050    1.1340    0.0020 N   0  0  0  0  0  0  0  0  0  0  0  0
   -1.8760    2.2980    0.1600 C   0  0  0  0  0  0  0  0  0  0  0  0
   -1.6210   -0.1520    0.2150 C   0  0  0  0  0  0  0  0  0  0  0  0
   -0.7290   -1.2980    0.0530 C   0  0  0  0  0  0  0  0  0  0  0  0
   -1.3180   -2.6730    0.2640 C   0  0  0  0  0  0  0  0  0  0  0  0
    0.5310   -1.1490   -0.2630 C   0  0  0  0  0  0  0  0  0  0  0  0
  1  2  1  0
  2  3  1  0
  3  4  2  0
  3 12  1  0
  4  5  1  0
  4  7  1  0
  5  6  3  0
  7  8  1  0
  7  9  1  0
  9 10  1  0
 10 11  1  0
 10 12  2  0
M  END
