
     RDKit          3D

 12 12  0  0  0  0  0  0  0  0999 V2000
   -3.3910   -0.3930    0.2880 C   0  0  0  0  0  0  0  0  0  0  0  0
   -2.1220    0.5000    0.0510 C   0  0  0  0  0  0  0  0  0  0  0  0
   -1.0360   -0.4390   -0.1980 C   0  0  0  0  0  0  0  0  0  0  0  0
    0.3130   -0.1220   -0.3820 N   0  0  0  0  0  0  0  0  0  0  0  0
    1.1570   -1.2150   -0.8880 C   0  0  0  0  0  0  0  0  0  0  0  0
    2.4010   -1.5230   -0.5160 C   0  0  0  0  0  0  0  0  0  0  0  0
    3.2480   -0.8570    0.4910 C   0  0  0  0  0  0  0  0  0  0  0  0
    3.0590    0.3980    0.9180 C   0  0  0  0  0  0  0  0  0  0  0  0
    2.0690    1.3310    0.5340 N   0  0  0  0  0  0  0  0  0  0  0  0
    0.8770    1.1230   -0.0300 C   0  0  0  0  0  0  0  0  0  0  0  0
    0.1180    2.3020   -0.2850 C   0  0  0  0  0  0  0  0  0  0  0  0
    0.6590    3.4120    0.0780 O   0  0  0  0  0  0  0  0  0  0  0  0
  1  2  1  0
  2  3  1  0
  3  4  1  0
  4  5  1  0
  4 10  1  0
  5  6  2  0
  6  7  1  0
  7  8  2  0
  8  9  1  0
  9 10  2  0
 10 11  1  0
 11 12  2  0
M  END
