
     RDKit          3D

 12 12  0  0  0  0  0  0  0  0999 V2000
    4.9230    0.0810   -0.2640 C   0  0  0  0  0  0  0  0  0  0  0  0
    3.6360   -0.3910   -0.2440 O   0  0  0  0  0  0  0  0  0  0  0  0
    2.6540    0.5830   -0.1240 C   0  0  0  0  0  0  0  0  0  0  0  0
    1.3250   -0.1390   -0.1090 C   0  0  0  0  0  0  0  0  0  0  0  0
    0.1370    0.7560    0.0460 C   0  0  0  0  0  0  0  0  0  0  0  0
   -1.0290   -0.1390    0.0370 N   0  0  0  0  0  0  0  0  0  0  0  0
   -0.9150   -1.4990   -0.2600 N   0  0  0  0  0  0  0  0  0  0  0  0
   -1.9320   -2.2530   -0.2920 C   0  0  0  0  0  0  0  0  0  0  0  0
   -3.3080   -1.8030   -0.0300 C   0  0  0  0  0  0  0  0  0  0  0  0
   -3.3790   -0.3810    0.2750 C   0  0  0  0  0  0  0  0  0  0  0  0
   -2.3260    0.3970    0.3070 C   0  0  0  0  0  0  0  0  0  0  0  0
   -2.4710    1.8400    0.6240 C   0  0  0  0  0  0  0  0  0  0  0  0
  1  2  1  0
  2  3  1  0
  3  4  1  0
  4  5  1  0
  5  6  1  0
  6  7  1  0
  6 11  1  0
  7  8  2  0
  8  9  1  0
  9 10  1  0
 10 11  2  0
 11 12  1  0
M  END
