
     RDKit          3D

 12 12  0  0  0  0  0  0  0  0999 V2000
    2.1030    2.8430    0.7840 C   0  0  0  0  0  0  0  0  0  0  0  0
    1.6580    1.7670    1.2870 N   0  0  0  0  0  0  0  0  0  0  0  0
    1.5710    0.5580    0.5170 C   0  0  0  0  0  0  0  0  0  0  0  0
    2.5440    0.3080   -0.3330 C   0  0  0  0  0  0  0  0  0  0  0  0
    2.5910   -0.9010   -1.1950 C   0  0  0  0  0  0  0  0  0  0  0  0
    0.4590   -0.3820    0.6350 C   0  0  0  0  0  0  0  0  0  0  0  0
   -0.8250    0.1430    0.3580 N   0  0  0  0  0  0  0  0  0  0  0  0
   -1.0920    0.5150   -1.0020 C   0  0  0  0  0  0  0  0  0  0  0  0
   -2.5840    0.2260   -1.2270 C   0  0  0  0  0  0  0  0  0  0  0  0
   -2.7000   -1.1560   -1.3410 O   0  0  0  0  0  0  0  0  0  0  0  0
   -2.3340   -1.7240   -0.1420 C   0  0  0  0  0  0  0  0  0  0  0  0
   -1.8350   -0.7520    0.8920 C   0  0  0  0  0  0  0  0  0  0  0  0
  1  2  2  0
  2  3  1  0
  3  4  2  3
  3  6  1  0
  4  5  1  0
  6  7  1  0
  7  8  1  0
  7 12  1  0
  8  9  1  0
  9 10  1  0
 10 11  1  0
 11 12  1  0
M  END
