
     RDKit          3D

 29 31  0  0  0  0  0  0  0  0999 V2000
   -0.9020    0.1060    1.0030 O   0  0  0  0  0  0  0  0  0  0  0  0
   -0.5650   -0.2240   -0.1550 C   0  0  0  0  0  0  0  0  0  0  0  0
    0.7660   -0.6090   -0.3790 N   0  0  0  0  0  0  0  0  0  0  0  0
    1.6980   -0.6190    0.7010 C   0  0  1  0  0  0  0  0  0  0  0  0
    2.2640   -2.0210    0.9570 C   0  0  0  0  0  0  0  0  0  0  0  0
    3.4270   -1.6600    1.8910 C   0  0  0  0  0  0  0  0  0  0  0  0
    3.9930   -0.5330    1.1640 N   0  0  0  0  0  0  0  0  0  0  0  0
    5.3700   -0.1750    1.1910 C   0  0  0  0  0  0  0  0  0  0  0  0
    6.2820   -0.8480    1.9010 N   0  0  0  0  0  0  0  0  0  0  0  0
    7.5840   -0.5070    1.9250 C   0  0  0  0  0  0  0  0  0  0  0  0
    8.0340    0.5760    1.1990 C   0  0  0  0  0  0  0  0  0  0  0  0
    7.0910    1.2700    0.4650 C   0  0  0  0  0  0  0  0  0  0  0  0
    5.8070    0.8820    0.4820 N   0  0  0  0  0  0  0  0  0  0  0  0
    2.9580    0.1570    0.4200 C   0  0  0  0  0  0  0  0  0  0  0  0
   -1.5400   -0.1840   -1.1420 O   0  0  0  0  0  0  0  0  0  0  0  0
   -2.8460    0.1960   -0.9130 C   0  0  0  0  0  0  0  0  0  0  0  0
   -3.8480   -0.6840   -0.5570 C   0  0  0  0  0  0  0  0  0  0  0  0
   -3.7720   -2.0470   -0.3620 O   0  0  0  0  0  0  0  0  0  0  0  0
   -4.7720   -2.9240   -0.0100 C   0  0  0  0  0  0  0  0  0  0  0  0
   -5.9310   -3.0430   -0.9430 C   0  0  0  0  0  0  0  0  0  0  0  0
   -6.6370   -1.8730   -1.1570 O   0  0  0  0  0  0  0  0  0  0  0  0
   -4.9890    0.0310   -0.4160 N   0  0  0  0  0  0  0  0  0  0  0  0
   -4.7100    1.2750   -0.6690 O   0  0  0  0  0  0  0  0  0  0  0  0
   -3.4430    1.4380   -0.9730 C   0  0  0  0  0  0  0  0  0  0  0  0
   -2.7800    2.6980   -1.3140 C   0  0  0  0  0  0  0  0  0  0  0  0
   -1.5570    2.7410   -1.5890 O   0  0  0  0  0  0  0  0  0  0  0  0
   -3.5510    3.9580   -1.3390 C   0  0  0  0  0  0  0  0  0  0  0  0
   -2.7430    5.0410   -1.6840 O   0  0  0  0  0  0  0  0  0  0  0  0
   -3.3910    6.1620   -1.7140 O   0  0  0  0  0  0  0  0  0  0  0  0
  1  2  2  0
  2  3  1  0
  2 15  1  0
  4  3  1  6
  4  5  1  0
  4 14  1  0
  5  6  1  0
  6  7  1  0
  7  8  1  0
  7 14  1  0
  8  9  2  0
  8 13  1  0
  9 10  1  0
 10 11  2  0
 11 12  1  0
 12 13  2  0
 15 16  1  0
 16 17  1  0
 16 24  2  0
 17 18  1  0
 17 22  2  0
 18 19  1  0
 19 20  1  0
 20 21  1  0
 22 23  1  0
 23 24  1  0
 24 25  1  0
 25 26  2  0
 25 27  1  0
 27 28  1  0
 28 29  1  0
M  END
