
     RDKit          3D

 29 31  0  0  0  0  0  0  0  0999 V2000
    9.9170    0.9950   -0.8580 C   0  0  0  0  0  0  0  0  0  0  0  0
    8.9480    1.2930    0.0750 O   0  0  0  0  0  0  0  0  0  0  0  0
    7.7700    0.7450   -0.1590 O   0  0  0  0  0  0  0  0  0  0  0  0
    6.5590    1.3910   -0.0620 C   0  0  0  0  0  0  0  0  0  0  0  0
    6.5440    2.5950    0.2740 O   0  0  0  0  0  0  0  0  0  0  0  0
    5.3320    0.7810   -0.3170 O   0  0  0  0  0  0  0  0  0  0  0  0
    4.1180    1.5080   -0.1980 C   0  0  0  0  0  0  0  0  0  0  0  0
    3.0050    0.5530   -0.5420 C   0  0  0  0  0  0  0  0  0  0  0  0
    2.5060    0.3430   -1.7660 N   0  0  0  0  0  0  0  0  0  0  0  0
    1.5500   -0.5440   -1.7310 N   0  0  0  0  0  0  0  0  0  0  0  0
    1.3960   -0.9470   -0.4510 C   0  0  0  0  0  0  0  0  0  0  0  0
    0.4810   -1.8980    0.0080 N   0  0  0  0  0  0  0  0  0  0  0  0
   -0.6390   -1.8870    0.5310 C   0  0  0  0  0  0  0  0  0  0  0  0
   -1.1430   -3.2210    0.8100 O   0  0  0  0  0  0  0  0  0  0  0  0
   -1.5580   -0.8090    0.9250 C   0  0  1  0  0  0  0  0  0  0  0  0
   -2.7950   -0.9510    0.1750 N   0  0  0  0  0  0  0  0  0  0  0  0
   -3.9280   -0.1340    0.3090 C   0  0  0  0  0  0  0  0  0  0  0  0
   -3.8850    0.8170    1.1620 O   0  0  0  0  0  0  0  0  0  0  0  0
   -5.1740   -0.2540   -0.4330 C   0  0  0  0  0  0  0  0  0  0  0  0
   -5.3410   -1.1830   -1.3300 C   0  0  0  0  0  0  0  0  0  0  0  0
   -6.5720   -1.3940   -2.1440 C   0  0  0  0  0  0  0  0  0  0  0  0
   -7.5800   -0.4760   -1.8560 O   0  0  0  0  0  0  0  0  0  0  0  0
   -7.4060    0.5150   -0.9010 C   0  0  0  0  0  0  0  0  0  0  0  0
   -6.2940    0.6580   -0.2080 C   0  0  0  0  0  0  0  0  0  0  0  0
   -1.8350   -0.8470    2.4260 C   0  0  0  0  0  0  0  0  0  0  0  0
   -0.9170    0.2180    2.9980 C   0  0  0  0  0  0  0  0  0  0  0  0
   -0.1330    0.6970    1.9500 O   0  0  0  0  0  0  0  0  0  0  0  0
   -0.9100    0.5280    0.7980 C   0  0  0  0  0  0  0  0  0  0  0  0
    2.3120   -0.2490    0.2660 N   0  0  0  0  0  0  0  0  0  0  0  0
  1  2  1  0
  2  3  1  0
  3  4  1  0
  4  5  2  0
  4  6  1  0
  6  7  1  0
  7  8  1  0
  8  9  2  0
  8 29  1  0
  9 10  1  0
 10 11  1  0
 11 12  1  0
 11 29  2  0
 12 13  2  3
 13 14  1  0
 13 15  1  0
 15 16  1  6
 15 25  1  0
 15 28  1  0
 16 17  1  0
 17 18  2  0
 17 19  1  0
 19 20  2  0
 19 24  1  0
 20 21  1  0
 21 22  1  0
 22 23  1  0
 23 24  2  0
 25 26  1  0
 26 27  1  0
 27 28  1  0
M  END
