
     RDKit          3D

 29 31  0  0  0  0  0  0  0  0999 V2000
    4.4030    1.5710   -0.9210 C   0  0  0  0  0  0  0  0  0  0  0  0
    4.7610    0.1650   -0.6650 C   0  0  0  0  0  0  0  0  0  0  0  0
    3.8480   -0.7300   -0.3670 C   0  0  0  0  0  0  0  0  0  0  0  0
    2.4290   -0.3290   -0.2840 C   0  0  0  0  0  0  0  0  0  0  0  0
    1.4210   -1.1410    0.0240 N   0  0  0  0  0  0  0  0  0  0  0  0
    0.2650   -0.4050   -0.0010 C   0  0  0  0  0  0  0  0  0  0  0  0
   -0.9650   -1.0280    0.2960 N   0  0  0  0  0  0  0  0  0  0  0  0
   -1.1800   -1.4920    1.6400 C   0  0  0  0  0  0  0  0  0  0  0  0
   -1.8440   -0.5240    2.5600 C   0  0  0  0  0  0  0  0  0  0  0  0
   -2.0120   -1.0550    3.8400 O   0  0  0  0  0  0  0  0  0  0  0  0
   -1.9220   -1.2110   -0.7260 C   0  0  0  0  0  0  0  0  0  0  0  0
   -1.6860   -0.8760   -1.9410 O   0  0  0  0  0  0  0  0  0  0  0  0
   -3.2100   -1.7790   -0.4710 N   0  0  0  0  0  0  0  0  0  0  0  0
   -4.1710   -1.9670   -1.4970 C   0  0  0  0  0  0  0  0  0  0  0  0
   -3.8640   -1.6170   -2.6660 O   0  0  0  0  0  0  0  0  0  0  0  0
   -5.3990   -2.5250   -1.1640 O   0  0  0  0  0  0  0  0  0  0  0  0
    0.6100    0.8510   -0.3280 C   0  0  0  0  0  0  0  0  0  0  0  0
   -0.2900    2.0230   -0.4830 C   0  0  0  0  0  0  0  0  0  0  0  0
    0.2100    3.2030   -0.8060 N   0  0  0  0  0  0  0  0  0  0  0  0
   -0.8150    4.1770   -0.8890 C   0  0  0  0  0  0  0  0  0  0  0  0
   -1.9630    3.6450   -0.6230 C   0  0  0  0  0  0  0  0  0  0  0  0
   -3.3940    3.6700   -0.4380 N   0  0  0  0  0  0  0  0  0  0  0  0
   -3.6690    2.6760    0.3850 C   0  0  0  0  0  0  0  0  0  0  0  0
   -2.4500    2.0090    0.7330 O   0  0  0  0  0  0  0  0  0  0  0  0
   -1.6970    2.1560   -0.4390 C   0  0  2  0  0  0  0  0  0  0  0  0
    1.9270    0.8570   -0.4900 O   0  0  0  0  0  0  0  0  0  0  0  0
    4.2280   -2.1460   -0.1110 C   0  0  2  0  0  0  0  0  0  0  0  0
    5.6070   -2.2640   -0.2520 O   0  0  0  0  0  0  0  0  0  0  0  0
    3.6030   -3.0210   -0.9900 O   0  0  0  0  0  0  0  0  0  0  0  0
  1  2  1  0
  2  3  2  3
  3  4  1  0
  3 27  1  0
  4  5  2  0
  4 26  1  0
  5  6  1  0
  6  7  1  0
  6 17  2  0
  7  8  1  0
  7 11  1  0
  8  9  1  0
  9 10  1  0
 11 12  2  0
 11 13  1  0
 13 14  1  0
 14 15  2  0
 14 16  1  0
 17 18  1  0
 17 26  1  0
 18 19  2  0
 18 25  1  0
 19 20  1  0
 20 21  2  0
 21 22  1  0
 21 25  1  0
 22 23  2  0
 23 24  1  0
 25 24  1  1
 27 28  1  6
 27 29  1  0
M  END
