
     RDKit          3D

 29 31  0  0  0  0  0  0  0  0999 V2000
   -5.5650    2.6830   -0.6980 C   0  0  0  0  0  0  0  0  0  0  0  0
   -5.0090    1.4280   -0.3500 O   0  0  0  0  0  0  0  0  0  0  0  0
   -3.6680    1.1830   -0.1900 C   0  0  0  0  0  0  0  0  0  0  0  0
   -2.9010    2.1930   -0.3790 O   0  0  0  0  0  0  0  0  0  0  0  0
   -3.0630   -0.1040    0.1700 C   0  0  1  0  0  0  0  0  0  0  0  0
   -3.4480   -1.2130   -0.7780 C   0  0  0  0  0  0  0  0  0  0  0  0
   -4.9180   -1.3710   -0.7390 C   0  0  0  0  0  0  0  0  0  0  0  0
   -5.6000   -2.1970    0.1260 C   0  0  0  0  0  0  0  0  0  0  0  0
   -6.9670   -2.0680   -0.1500 C   0  0  0  0  0  0  0  0  0  0  0  0
   -7.0170   -1.1540   -1.1840 C   0  0  0  0  0  0  0  0  0  0  0  0
   -5.7880   -0.7830   -1.4840 O   0  0  0  0  0  0  0  0  0  0  0  0
   -1.6220    0.0220    0.3190 N   0  0  0  0  0  0  0  0  0  0  0  0
   -1.1290    0.6440    1.3340 C   0  0  0  0  0  0  0  0  0  0  0  0
   -1.8950    1.2710    2.4070 C   0  0  0  0  0  0  0  0  0  0  0  0
   -3.1310    1.3580    2.5900 O   0  0  0  0  0  0  0  0  0  0  0  0
   -0.9180    1.7960    3.2560 O   0  0  0  0  0  0  0  0  0  0  0  0
    0.3050    1.5190    2.7550 N   0  0  0  0  0  0  0  0  0  0  0  0
    0.2710    0.8590    1.6510 C   0  0  0  0  0  0  0  0  0  0  0  0
    1.4480    0.4200    0.8930 C   0  0  0  0  0  0  0  0  0  0  0  0
    1.5220   -0.2470   -0.2630 N   0  0  0  0  0  0  0  0  0  0  0  0
    2.7860   -0.4390   -0.5740 O   0  0  0  0  0  0  0  0  0  0  0  0
    3.5640    0.0760    0.3330 C   0  0  0  0  0  0  0  0  0  0  0  0
    5.0720    0.0970    0.3960 C   0  0  0  0  0  0  0  0  0  0  0  0
    5.6090   -1.2200    0.2870 N   0  0  0  0  0  0  0  0  0  0  0  0
    7.0310   -1.3260    0.3800 C   0  0  0  0  0  0  0  0  0  0  0  0
    7.8130   -0.7430   -0.7450 C   0  0  0  0  0  0  0  0  0  0  0  0
    7.6470    0.6000   -0.9650 O   0  0  0  0  0  0  0  0  0  0  0  0
    8.3520    1.0580   -1.9590 O   0  0  0  0  0  0  0  0  0  0  0  0
    2.7380    0.6190    1.2600 N   0  0  0  0  0  0  0  0  0  0  0  0
  1  2  1  0
  2  3  1  0
  3  4  2  0
  3  5  1  0
  5  6  1  6
  5 12  1  0
  6  7  1  0
  7  8  2  0
  7 11  1  0
  8  9  1  0
  9 10  2  0
 10 11  1  0
 12 13  2  3
 13 14  1  0
 13 18  1  0
 14 15  2  0
 14 16  1  0
 16 17  1  0
 17 18  2  0
 18 19  1  0
 19 20  2  0
 19 29  1  0
 20 21  1  0
 21 22  1  0
 22 23  1  0
 22 29  2  0
 23 24  1  0
 24 25  1  0
 25 26  1  0
 26 27  1  0
 27 28  1  0
M  END
