
     RDKit          3D

 29 31  0  0  0  0  0  0  0  0999 V2000
   -3.5610    2.1050    1.2150 O   0  0  0  0  0  0  0  0  0  0  0  0
   -3.1650    2.5410    0.1230 C   0  0  0  0  0  0  0  0  0  0  0  0
   -2.9490    3.9360    0.0220 O   0  0  0  0  0  0  0  0  0  0  0  0
   -2.9430    1.6820   -0.9610 N   0  0  0  0  0  0  0  0  0  0  0  0
   -3.1160    0.2910   -0.9600 C   0  0  0  0  0  0  0  0  0  0  0  0
   -2.3040   -0.5800   -0.0970 C   0  0  2  0  0  0  0  0  0  0  0  0
   -2.7840   -2.0260   -0.4090 C   0  0  0  0  0  0  0  0  0  0  0  0
   -4.1710   -2.1690    0.0980 C   0  0  0  0  0  0  0  0  0  0  0  0
   -5.1550   -2.5940   -0.6260 N   0  0  0  0  0  0  0  0  0  0  0  0
   -4.9790   -2.9450   -1.9300 O   0  0  0  0  0  0  0  0  0  0  0  0
   -4.4440   -1.8170    1.4720 N   0  0  0  0  0  0  0  0  0  0  0  0
   -3.4620   -0.9280    2.0460 C   0  0  0  0  0  0  0  0  0  0  0  0
   -3.6150   -0.5630    3.2450 O   0  0  0  0  0  0  0  0  0  0  0  0
   -2.3470   -0.4620    1.3050 N   0  0  0  0  0  0  0  0  0  0  0  0
   -1.1370    0.1370    1.7640 C   0  0  0  0  0  0  0  0  0  0  0  0
   -0.9300    0.6130    2.9020 O   0  0  0  0  0  0  0  0  0  0  0  0
   -0.1710    0.1110    0.6970 N   0  0  0  0  0  0  0  0  0  0  0  0
    1.2100    0.6240    0.7350 C   0  0  0  0  0  0  0  0  0  0  0  0
    2.1370   -0.4750    1.1980 C   0  0  0  0  0  0  0  0  0  0  0  0
    3.4650   -0.1580    1.2720 O   0  0  0  0  0  0  0  0  0  0  0  0
    4.2830    0.1610    0.2270 C   0  0  0  0  0  0  0  0  0  0  0  0
    3.9480    0.1910   -1.1030 C   0  0  0  0  0  0  0  0  0  0  0  0
    4.8940    0.5430   -2.0610 C   0  0  0  0  0  0  0  0  0  0  0  0
    6.1790    0.8660   -1.6940 C   0  0  0  0  0  0  0  0  0  0  0  0
    7.0850    1.2090   -2.6710 O   0  0  0  0  0  0  0  0  0  0  0  0
    6.5100    0.8340   -0.3660 C   0  0  0  0  0  0  0  0  0  0  0  0
    5.5960    0.4920    0.5860 C   0  0  0  0  0  0  0  0  0  0  0  0
   -0.8420   -0.5150   -0.3880 C   0  0  0  0  0  0  0  0  0  0  0  0
   -0.2350   -0.9280   -1.4110 O   0  0  0  0  0  0  0  0  0  0  0  0
  1  2  2  0
  2  3  1  0
  2  4  1  0
  4  5  1  0
  6  5  1  6
  6  7  1  0
  6 14  1  0
  6 28  1  0
  7  8  1  0
  8  9  2  3
  8 11  1  0
  9 10  1  0
 11 12  1  0
 12 13  2  0
 12 14  1  0
 14 15  1  0
 15 16  2  0
 15 17  1  0
 17 18  1  0
 17 28  1  0
 18 19  1  0
 19 20  1  0
 20 21  1  0
 21 22  2  0
 21 27  1  0
 22 23  1  0
 23 24  2  0
 24 25  1  0
 24 26  1  0
 26 27  2  0
 28 29  2  0
M  END
