
     RDKit          3D

 29 31  0  0  0  0  0  0  0  0999 V2000
   -4.4540    0.8880    0.0470 C   0  0  0  0  0  0  0  0  0  0  0  0
   -3.1770    0.2500    0.2300 N   0  0  0  0  0  0  0  0  0  0  0  0
   -2.1780    0.9270    1.0350 C   0  0  0  0  0  0  0  0  0  0  0  0
   -1.2350    1.7220    0.2410 C   0  0  0  0  0  0  0  0  0  0  0  0
   -1.8240    2.3700   -0.9570 C   0  0  0  0  0  0  0  0  0  0  0  0
   -1.1050    3.0980   -1.7390 N   0  0  0  0  0  0  0  0  0  0  0  0
   -1.6450    3.6860   -2.8300 O   0  0  0  0  0  0  0  0  0  0  0  0
    0.0500    1.9360    0.4520 C   0  0  0  0  0  0  0  0  0  0  0  0
    0.8880    1.4230    1.5590 C   0  0  0  0  0  0  0  0  0  0  0  0
    2.3200    1.3720    1.1980 C   0  0  0  0  0  0  0  0  0  0  0  0
    2.7280    0.4420    0.0700 C   0  0  1  0  0  0  0  0  0  0  0  0
    3.6490   -0.5960    0.5100 C   0  0  0  0  0  0  0  0  0  0  0  0
    4.0020   -0.6150    1.7410 O   0  0  0  0  0  0  0  0  0  0  0  0
    4.1900   -1.5770   -0.2760 O   0  0  0  0  0  0  0  0  0  0  0  0
    5.0600   -2.5250    0.2320 C   0  0  0  0  0  0  0  0  0  0  0  0
    5.3700   -2.4930    1.4500 O   0  0  0  0  0  0  0  0  0  0  0  0
    5.6150   -3.5230   -0.5470 O   0  0  0  0  0  0  0  0  0  0  0  0
    1.4740   -0.1680   -0.5320 C   0  0  0  0  0  0  0  0  0  0  0  0
    1.1670    0.3220   -1.7310 N   0  0  0  0  0  0  0  0  0  0  0  0
   -0.0450   -0.1110   -2.1850 N   0  0  0  0  0  0  0  0  0  0  0  0
   -0.5540   -0.9650   -1.1660 C   0  0  0  0  0  0  0  0  0  0  0  0
   -1.6540   -1.5650   -0.7520 C   0  0  0  0  0  0  0  0  0  0  0  0
   -1.5130   -3.0380   -0.3640 C   0  0  0  0  0  0  0  0  0  0  0  0
   -0.8350   -2.9010    0.9180 O   0  0  0  0  0  0  0  0  0  0  0  0
    0.2250   -2.0420    0.9400 C   0  0  0  0  0  0  0  0  0  0  0  0
    1.0250   -2.1850    1.9390 O   0  0  0  0  0  0  0  0  0  0  0  0
    0.4740   -1.0130   -0.0840 N   0  0  0  0  0  0  0  0  0  0  0  0
   -2.9730   -1.0300   -0.3920 C   0  0  0  0  0  0  0  0  0  0  0  0
   -3.9830   -1.7230   -0.6360 O   0  0  0  0  0  0  0  0  0  0  0  0
  1  2  1  0
  2  3  1  0
  2 28  1  0
  3  4  1  0
  4  5  1  0
  4  8  2  0
  5  6  2  3
  6  7  1  0
  8  9  1  0
  9 10  1  0
 10 11  1  0
 11 12  1  1
 11 18  1  0
 12 13  2  0
 12 14  1  0
 14 15  1  0
 15 16  2  0
 15 17  1  0
 18 19  2  0
 18 27  1  0
 19 20  1  0
 20 21  1  0
 21 22  2  0
 21 27  1  0
 22 23  1  0
 22 28  1  0
 23 24  1  0
 24 25  1  0
 25 26  2  0
 25 27  1  0
 28 29  2  0
M  END
