
     RDKit          3D

 29 32  0  0  0  0  0  0  0  0999 V2000
   -4.4470    0.3000    2.5240 O   0  0  0  0  0  0  0  0  0  0  0  0
   -3.7060    0.6190    1.4050 C   0  0  2  0  0  0  0  0  0  0  0  0
   -3.5440   -0.5430    0.4650 C   0  0  1  0  0  0  0  0  0  0  0  0
   -4.6350   -0.5960   -0.5470 C   0  0  0  0  0  0  0  0  0  0  0  0
   -4.6240    0.6230   -1.2120 O   0  0  0  0  0  0  0  0  0  0  0  0
   -5.6020    0.9490   -2.3360 P   0  0  0  0  0  0  0  0  0  0  0  0
   -6.8520    0.5650   -1.2790 O   0  0  0  0  0  0  0  0  0  0  0  0
   -5.1840    2.4780   -2.5450 O   0  0  0  0  0  0  0  0  0  0  0  0
   -4.9390   -0.2600   -3.2770 O   0  0  0  0  0  0  0  0  0  0  0  0
   -2.2830   -0.3450   -0.0680 O   0  0  0  0  0  0  0  0  0  0  0  0
   -1.5180   -0.1650    1.0890 C   0  0  1  0  0  0  0  0  0  0  0  0
   -0.1470    0.1520    0.8100 N   0  0  0  0  0  0  0  0  0  0  0  0
    0.4510    1.3240    0.5730 C   0  0  0  0  0  0  0  0  0  0  0  0
    1.7570    1.1310    0.3630 N   0  0  0  0  0  0  0  0  0  0  0  0
    2.0420   -0.2000    0.4620 C   0  0  0  0  0  0  0  0  0  0  0  0
    3.2090   -0.9240    0.3370 C   0  0  0  0  0  0  0  0  0  0  0  0
    4.4310   -0.2600    0.0460 N   0  0  0  0  0  0  0  0  0  0  0  0
    5.6260   -1.0670   -0.0740 C   0  0  0  0  0  0  0  0  0  0  0  0
    6.7650   -0.1670   -0.3780 C   0  0  0  0  0  0  0  0  0  0  0  0
    7.1630    0.1770   -1.6460 C   0  0  0  0  0  0  0  0  0  0  0  0
    8.2440    1.0210   -1.4890 C   0  0  0  0  0  0  0  0  0  0  0  0
    8.4200    1.1250   -0.1190 C   0  0  0  0  0  0  0  0  0  0  0  0
    7.5280    0.4090    0.5150 O   0  0  0  0  0  0  0  0  0  0  0  0
    3.1430   -2.2520    0.4980 N   0  0  0  0  0  0  0  0  0  0  0  0
    1.9670   -2.8270    0.7710 C   0  0  0  0  0  0  0  0  0  0  0  0
    0.8350   -2.1200    0.8920 N   0  0  0  0  0  0  0  0  0  0  0  0
    0.8350   -0.7850    0.7420 C   0  0  0  0  0  0  0  0  0  0  0  0
   -2.2560    0.9700    1.7600 C   0  0  2  0  0  0  0  0  0  0  0  0
   -2.1400    0.8330    3.1350 O   0  0  0  0  0  0  0  0  0  0  0  0
  2  1  1  1
  2  3  1  0
  2 28  1  0
  3  4  1  6
  3 10  1  0
  4  5  1  0
  5  6  1  0
  6  7  1  0
  6  8  1  0
  6  9  1  0
 10 11  1  0
 11 12  1  6
 11 28  1  0
 12 13  1  0
 12 27  1  0
 13 14  2  0
 14 15  1  0
 15 16  2  0
 15 27  1  0
 16 17  1  0
 16 24  1  0
 17 18  1  0
 18 19  1  0
 19 20  2  0
 19 23  1  0
 20 21  1  0
 21 22  2  0
 22 23  1  0
 24 25  2  0
 25 26  1  0
 26 27  2  0
 28 29  1  1
M  END
