
     RDKit          3D

 29 33  0  0  0  0  0  0  0  0999 V2000
    7.1420    3.5820    0.8840 N   0  0  0  0  0  0  0  0  0  0  0  0
    6.7830    2.3190    0.3560 C   0  0  0  0  0  0  0  0  0  0  0  0
    7.6810    1.6100   -0.1490 O   0  0  0  0  0  0  0  0  0  0  0  0
    5.4050    1.8320    0.3880 C   0  0  0  0  0  0  0  0  0  0  0  0
    4.3370    2.4900    0.9020 N   0  0  0  0  0  0  0  0  0  0  0  0
    3.2250    1.7220    0.7500 C   0  0  0  0  0  0  0  0  0  0  0  0
    3.5830    0.5850    0.1450 N   0  0  0  0  0  0  0  0  0  0  0  0
    4.9110    0.6380   -0.0820 C   0  0  0  0  0  0  0  0  0  0  0  0
    5.6580   -0.3910   -0.7090 N   0  0  0  0  0  0  0  0  0  0  0  0
    2.5870   -0.3640   -0.1190 N   0  0  0  0  0  0  0  0  0  0  0  0
    1.3380   -0.2550    0.1640 C   0  0  0  0  0  0  0  0  0  0  0  0
    0.4400   -1.3790   -0.1990 C   0  0  0  0  0  0  0  0  0  0  0  0
    0.9070   -2.5120   -0.8320 C   0  0  0  0  0  0  0  0  0  0  0  0
    0.0120   -3.5480   -1.1580 C   0  0  0  0  0  0  0  0  0  0  0  0
    0.5350   -4.6980   -1.8110 N   0  0  0  0  0  0  0  0  0  0  0  0
   -1.3130   -3.4240   -0.8460 C   0  0  0  0  0  0  0  0  0  0  0  0
   -1.8210   -2.3140   -0.2150 C   0  0  0  0  0  0  0  0  0  0  0  0
   -0.9030   -1.2950    0.0980 C   0  0  0  0  0  0  0  0  0  0  0  0
   -1.3710   -0.1490    0.7390 O   0  0  0  0  0  0  0  0  0  0  0  0
   -2.7510    0.1390    0.6130 C   0  0  1  0  0  0  0  0  0  0  0  0
   -3.0430    1.3410    1.4560 C   0  0  0  0  0  0  0  0  0  0  0  0
   -4.4490    1.8260    1.3480 C   0  0  0  0  0  0  0  0  0  0  0  0
   -5.1500    1.4570    0.0900 C   0  0  0  0  0  0  0  0  0  0  0  0
   -4.2680    1.2150   -1.0840 C   0  0  0  0  0  0  0  0  0  0  0  0
   -3.0210    0.4610   -0.8150 C   0  0  0  0  0  0  0  0  0  0  0  0
   -3.4510   -1.1060    1.1100 C   0  0  0  0  0  0  0  0  0  0  0  0
   -3.2700   -2.1980    0.1160 C   0  0  0  0  0  0  0  0  0  0  0  0
    0.8180    0.9570    0.8190 C   0  0  0  0  0  0  0  0  0  0  0  0
    1.8750    1.9040    1.0980 N   0  0  0  0  0  0  0  0  0  0  0  0
  1  2  1  0
  2  3  2  0
  2  4  1  0
  4  5  1  0
  4  8  2  0
  5  6  2  0
  6  7  1  0
  6 29  1  0
  7  8  1  0
  7 10  1  0
  8  9  1  0
 10 11  2  0
 11 12  1  0
 11 28  1  0
 12 13  2  0
 12 18  1  0
 13 14  1  0
 14 15  1  0
 14 16  2  0
 16 17  1  0
 17 18  2  0
 17 27  1  0
 18 19  1  0
 19 20  1  0
 20 21  1  1
 20 25  1  0
 20 26  1  0
 21 22  1  0
 22 23  1  0
 23 24  1  0
 24 25  1  0
 26 27  1  0
 28 29  1  0
M  CHG  1  10   1
M  END
