
     RDKit          3D

 29 32  0  0  0  0  0  0  0  0999 V2000
   -4.6180   -1.9620    2.9010 C   0  0  0  0  0  0  0  0  0  0  0  0
   -4.0980   -1.2260    1.7300 C   0  0  0  0  0  0  0  0  0  0  0  0
   -4.0100    0.1620    1.8170 C   0  0  0  0  0  0  0  0  0  0  0  0
   -3.5230    0.8870    0.7280 C   0  0  0  0  0  0  0  0  0  0  0  0
   -3.1260    0.2710   -0.4310 C   0  0  0  0  0  0  0  0  0  0  0  0
   -2.6120    1.0770   -1.5710 C   0  0  1  0  0  0  0  0  0  0  0  0
   -1.3750    0.5680   -2.1430 C   0  0  0  0  0  0  0  0  0  0  0  0
   -0.0770    0.4220   -1.4840 C   0  0  0  0  0  0  0  0  0  0  0  0
    1.0220   -0.0950   -2.1330 C   0  0  0  0  0  0  0  0  0  0  0  0
    2.2350   -0.2340   -1.5440 C   0  0  0  0  0  0  0  0  0  0  0  0
    2.4380    0.1560   -0.1980 C   0  0  0  0  0  0  0  0  0  0  0  0
    3.7480   -0.0340    0.3290 C   0  0  0  0  0  0  0  0  0  0  0  0
    4.3120    0.2360    1.4660 C   0  0  0  0  0  0  0  0  0  0  0  0
    5.7570   -0.0990    1.7260 C   0  0  2  0  0  0  0  0  0  0  0  0
    6.4480   -0.6850    0.5400 C   0  0  0  0  0  0  0  0  0  0  0  0
    5.9050   -1.0480    2.8910 C   0  0  0  0  0  0  0  0  0  0  0  0
    1.3510    0.6680    0.4480 C   0  0  0  0  0  0  0  0  0  0  0  0
    1.4780    1.0860    1.8710 C   0  0  0  0  0  0  0  0  0  0  0  0
    0.0990    0.8020   -0.1900 C   0  0  0  0  0  0  0  0  0  0  0  0
   -1.6220    0.2450   -3.4070 C   0  0  0  0  0  0  0  0  0  0  0  0
   -3.0060    0.5180   -3.7330 C   0  0  0  0  0  0  0  0  0  0  0  0
   -3.5970    1.0030   -2.6760 C   0  0  0  0  0  0  0  0  0  0  0  0
   -5.0070    1.2940   -2.9670 C   0  0  0  0  0  0  0  0  0  0  0  0
   -5.8600    1.7680   -2.1760 O   0  0  0  0  0  0  0  0  0  0  0  0
   -5.2130    0.9430   -4.2880 O   0  0  0  0  0  0  0  0  0  0  0  0
   -4.0110    0.4650   -4.7890 C   0  0  0  0  0  0  0  0  0  0  0  0
   -3.8670    0.0630   -5.9690 O   0  0  0  0  0  0  0  0  0  0  0  0
   -3.2180   -1.0910   -0.5030 C   0  0  0  0  0  0  0  0  0  0  0  0
   -3.7000   -1.8550    0.5650 C   0  0  0  0  0  0  0  0  0  0  0  0
  1  2  1  0
  2  3  2  0
  2 29  1  0
  3  4  1  0
  4  5  2  0
  6  5  1  1
  5 28  1  0
  6  7  1  0
  6 22  1  0
  7  8  1  0
  7 20  2  0
  8  9  2  0
  8 19  1  0
  9 10  1  0
 10 11  2  0
 11 12  1  0
 11 17  1  0
 12 13  2  3
 13 14  1  0
 14 15  1  6
 14 16  1  0
 17 18  1  0
 17 19  2  0
 20 21  1  0
 21 22  2  0
 21 26  1  0
 22 23  1  0
 23 24  2  0
 23 25  1  0
 25 26  1  0
 26 27  2  0
 28 29  2  0
M  END
