
     RDKit          3D

 29 32  0  0  0  0  0  0  0  0999 V2000
   -3.7300   -1.0720    1.2220 C   0  0  0  0  0  0  0  0  0  0  0  0
   -2.8650   -0.1900    0.3530 C   0  0  0  0  0  0  0  0  0  0  0  0
   -3.3930    0.6300   -0.4980 C   0  0  0  0  0  0  0  0  0  0  0  0
   -4.8530    0.7980   -0.7110 C   0  0  0  0  0  0  0  0  0  0  0  0
   -5.4210    0.9240   -1.9880 C   0  0  0  0  0  0  0  0  0  0  0  0
   -6.7700    1.0610   -1.7520 C   0  0  0  0  0  0  0  0  0  0  0  0
   -6.9830    1.0160   -0.3720 C   0  0  0  0  0  0  0  0  0  0  0  0
   -8.3050    1.1280    0.3170 C   0  0  0  0  0  0  0  0  0  0  0  0
   -8.8470   -0.1590    0.3420 O   0  0  0  0  0  0  0  0  0  0  0  0
   -5.8030    0.8590    0.1740 O   0  0  0  0  0  0  0  0  0  0  0  0
   -1.4380   -0.3180    0.5520 C   0  0  0  0  0  0  0  0  0  0  0  0
   -0.9580   -1.1940    1.4620 C   0  0  0  0  0  0  0  0  0  0  0  0
    0.4490   -1.3930    1.7320 C   0  0  0  0  0  0  0  0  0  0  0  0
    1.3640   -0.7000    1.0750 C   0  0  0  0  0  0  0  0  0  0  0  0
    0.9560    0.2670    0.0740 C   0  0  0  0  0  0  0  0  0  0  0  0
    1.8290    0.9770   -0.6280 C   0  0  0  0  0  0  0  0  0  0  0  0
    3.2580    0.8710   -0.4900 C   0  0  0  0  0  0  0  0  0  0  0  0
    3.9400    1.9650    0.0010 C   0  0  0  0  0  0  0  0  0  0  0  0
    5.3260    1.9290    0.1350 C   0  0  0  0  0  0  0  0  0  0  0  0
    6.0180    0.7950   -0.2250 C   0  0  0  0  0  0  0  0  0  0  0  0
    7.4820    0.7540   -0.0880 C   0  0  0  0  0  0  0  0  0  0  0  0
    5.3070   -0.2710   -0.7090 C   0  0  0  0  0  0  0  0  0  0  0  0
    6.0030   -1.3900   -1.0840 C   0  0  0  0  0  0  0  0  0  0  0  0
    5.3670   -2.4970   -1.5990 C   0  0  0  0  0  0  0  0  0  0  0  0
    4.0010   -2.4890   -1.7450 C   0  0  0  0  0  0  0  0  0  0  0  0
    3.2660   -1.3740   -1.3750 C   0  0  0  0  0  0  0  0  0  0  0  0
    3.9180   -0.2720   -0.8580 C   0  0  0  0  0  0  0  0  0  0  0  0
   -0.4920    0.4670   -0.1980 C   0  0  0  0  0  0  0  0  0  0  0  0
   -0.7870    1.3220   -1.0780 O   0  0  0  0  0  0  0  0  0  0  0  0
  1  2  1  0
  2  3  2  3
  2 11  1  0
  3  4  1  0
  4  5  2  0
  4 10  1  0
  5  6  1  0
  6  7  2  0
  7  8  1  0
  7 10  1  0
  8  9  1  0
 11 12  2  0
 11 28  1  0
 12 13  1  0
 13 14  2  0
 14 15  1  0
 15 16  2  3
 15 28  1  0
 16 17  1  0
 17 18  2  0
 17 27  1  0
 18 19  1  0
 19 20  2  0
 20 21  1  0
 20 22  1  0
 22 23  2  0
 22 27  1  0
 23 24  1  0
 24 25  2  0
 25 26  1  0
 26 27  2  0
 28 29  2  0
M  END
