
     RDKit          3D

 29 32  0  0  0  0  0  0  0  0999 V2000
   -4.4680    1.5610    3.4760 C   0  0  0  0  0  0  0  0  0  0  0  0
   -3.2090    1.3080    2.8560 N   0  0  0  0  0  0  0  0  0  0  0  0
   -3.1140    0.8220    1.5250 C   0  0  0  0  0  0  0  0  0  0  0  0
   -1.8640    0.5790    0.9360 C   0  0  0  0  0  0  0  0  0  0  0  0
   -1.7030    0.1090   -0.3440 C   0  0  0  0  0  0  0  0  0  0  0  0
   -0.4340   -0.1160   -0.9150 N   0  0  0  0  0  0  0  0  0  0  0  0
    0.8280    0.0400   -0.3260 C   0  0  0  0  0  0  0  0  0  0  0  0
    0.9080    0.4230    0.8510 O   0  0  0  0  0  0  0  0  0  0  0  0
    2.0150   -0.2290   -1.0390 N   0  0  0  0  0  0  0  0  0  0  0  0
    3.3350   -0.1240   -0.5910 C   0  0  0  0  0  0  0  0  0  0  0  0
    4.4100   -0.3040   -1.4710 C   0  0  0  0  0  0  0  0  0  0  0  0
    5.7180   -0.2150   -1.0680 C   0  0  0  0  0  0  0  0  0  0  0  0
    6.0420    0.0580    0.2410 C   0  0  0  0  0  0  0  0  0  0  0  0
    7.4320    0.1560    0.6910 C   0  0  0  0  0  0  0  0  0  0  0  0
    8.5610    0.0110   -0.0210 N   0  0  0  0  0  0  0  0  0  0  0  0
    9.6120    0.1810    0.7790 N   0  0  0  0  0  0  0  0  0  0  0  0
    9.1750    0.4390    2.0230 C   0  0  0  0  0  0  0  0  0  0  0  0
    9.8900    0.6520    3.0370 O   0  0  0  0  0  0  0  0  0  0  0  0
    7.8250    0.4190    1.9470 N   0  0  0  0  0  0  0  0  0  0  0  0
    5.0020    0.2370    1.1180 C   0  0  0  0  0  0  0  0  0  0  0  0
    3.6660    0.1460    0.7030 C   0  0  0  0  0  0  0  0  0  0  0  0
   -2.8760   -0.1250   -1.0620 C   0  0  0  0  0  0  0  0  0  0  0  0
   -4.1320    0.1040   -0.5130 C   0  0  0  0  0  0  0  0  0  0  0  0
   -4.2240    0.5750    0.7770 C   0  0  0  0  0  0  0  0  0  0  0  0
   -5.3260   -0.1680   -1.3470 C   0  0  2  0  0  0  0  0  0  0  0  0
   -6.5380   -0.1870   -0.5270 N   0  0  0  0  0  0  0  0  0  0  0  0
   -5.1740   -1.5670   -1.9030 C   0  0  0  0  0  0  0  0  0  0  0  0
   -3.8120   -1.8630   -2.4230 C   0  0  0  0  0  0  0  0  0  0  0  0
   -2.8930   -0.6350   -2.4450 C   0  0  0  0  0  0  0  0  0  0  0  0
  1  2  1  0
  2  3  1  0
  3  4  2  0
  3 24  1  0
  4  5  1  0
  5  6  1  0
  5 22  2  0
  6  7  1  0
  7  8  2  0
  7  9  1  0
  9 10  1  0
 10 11  2  0
 10 21  1  0
 11 12  1  0
 12 13  2  0
 13 14  1  0
 13 20  1  0
 14 15  2  0
 14 19  1  0
 15 16  1  0
 16 17  1  0
 17 18  2  0
 17 19  1  0
 20 21  2  0
 22 23  1  0
 22 29  1  0
 23 24  2  0
 23 25  1  0
 25 26  1  1
 25 27  1  0
 27 28  1  0
 28 29  1  0
M  CHG  1  26   1
M  END
