
     RDKit          3D

 29 32  0  0  0  0  0  0  0  0999 V2000
    7.5840    1.0880   -0.9850 N   0  0  0  0  0  0  0  0  0  0  0  0
    6.7060    0.2710   -0.2210 C   0  0  0  0  0  0  0  0  0  0  0  0
    5.3810    0.3990   -0.0890 C   0  0  0  0  0  0  0  0  0  0  0  0
    4.6180    1.4300   -0.7310 N   0  0  0  0  0  0  0  0  0  0  0  0
    4.8960   -0.6570    0.7870 C   0  0  0  0  0  0  0  0  0  0  0  0
    3.5540   -0.8800    1.1850 N   0  0  0  0  0  0  0  0  0  0  0  0
    2.4760   -1.1510    0.3320 C   0  0  0  0  0  0  0  0  0  0  0  0
    2.6910   -1.2060   -0.9020 O   0  0  0  0  0  0  0  0  0  0  0  0
    1.0930   -1.3750    0.8300 C   0  0  1  0  0  0  0  0  0  0  0  0
    0.5420   -0.1800    1.5770 C   0  0  0  0  0  0  0  0  0  0  0  0
    1.0900    1.0690    0.9520 C   0  0  0  0  0  0  0  0  0  0  0  0
   -0.0590    1.7300    0.1770 C   0  0  0  0  0  0  0  0  0  0  0  0
   -0.2320    0.8350   -1.0570 C   0  0  0  0  0  0  0  0  0  0  0  0
   -0.6630   -0.4620   -0.6130 N   0  0  0  0  0  0  0  0  0  0  0  0
   -2.0630   -0.6490   -0.4050 C   0  0  0  0  0  0  0  0  0  0  0  0
   -2.4900   -1.7880   -0.0250 O   0  0  0  0  0  0  0  0  0  0  0  0
   -2.9760    0.4100   -0.6130 N   0  0  0  0  0  0  0  0  0  0  0  0
   -4.3910    0.2730   -0.4200 C   0  0  0  0  0  0  0  0  0  0  0  0
   -5.3180    1.2520   -0.6030 N   0  0  0  0  0  0  0  0  0  0  0  0
   -6.5480    0.7970   -0.3380 C   0  0  0  0  0  0  0  0  0  0  0  0
   -7.8210    1.3670   -0.3660 C   0  0  0  0  0  0  0  0  0  0  0  0
   -8.9450    0.6480   -0.0360 C   0  0  0  0  0  0  0  0  0  0  0  0
   -8.8150   -0.6800    0.3360 C   0  0  0  0  0  0  0  0  0  0  0  0
   -7.5470   -1.2370    0.3600 C   0  0  0  0  0  0  0  0  0  0  0  0
   -6.4230   -0.5180    0.0300 C   0  0  0  0  0  0  0  0  0  0  0  0
   -5.0900   -0.8030   -0.0320 N   0  0  0  0  0  0  0  0  0  0  0  0
    0.1370   -1.6570   -0.3210 C   0  0  0  0  0  0  0  0  0  0  0  0
    5.9260   -1.3970    1.1650 C   0  0  0  0  0  0  0  0  0  0  0  0
    7.1790   -0.8900    0.5680 C   0  0  0  0  0  0  0  0  0  0  0  0
  1  2  1  0
  2  3  2  0
  2 29  1  0
  3  4  1  0
  3  5  1  0
  5  6  1  0
  5 28  2  0
  6  7  1  0
  7  8  2  0
  9  7  1  6
  9 10  1  0
  9 27  1  0
 10 11  1  0
 11 12  1  0
 12 13  1  0
 13 14  1  0
 14 15  1  0
 14 27  1  0
 15 16  2  0
 15 17  1  0
 17 18  1  0
 18 19  2  0
 18 26  1  0
 19 20  1  0
 20 21  2  0
 20 25  1  0
 21 22  1  0
 22 23  2  0
 23 24  1  0
 24 25  2  0
 25 26  1  0
 28 29  1  0
M  CHG  1   4   1
M  END
