
     RDKit          3D

 29 31  0  0  0  0  0  0  0  0999 V2000
   -5.5150   -2.7460    0.6030 C   0  0  0  0  0  0  0  0  0  0  0  0
   -4.1740   -2.0950    0.4930 C   0  0  0  0  0  0  0  0  0  0  0  0
   -3.9040   -1.3270   -0.5990 C   0  0  0  0  0  0  0  0  0  0  0  0
   -2.6900   -0.6790   -0.8010 C   0  0  0  0  0  0  0  0  0  0  0  0
   -1.6590   -0.8190    0.1690 C   0  0  0  0  0  0  0  0  0  0  0  0
   -1.9660   -1.5970    1.2560 C   0  0  0  0  0  0  0  0  0  0  0  0
   -3.2030   -2.2360    1.4350 C   0  0  0  0  0  0  0  0  0  0  0  0
   -3.5050   -3.0720    2.6250 C   0  0  0  0  0  0  0  0  0  0  0  0
   -0.4530   -0.2200   -0.0020 O   0  0  0  0  0  0  0  0  0  0  0  0
    0.7690   -0.3250   -0.4960 C   0  0  0  0  0  0  0  0  0  0  0  0
    1.2130   -0.5810   -1.7630 C   0  0  0  0  0  0  0  0  0  0  0  0
    2.5560   -0.6600   -2.0960 C   0  0  0  0  0  0  0  0  0  0  0  0
    3.0190   -0.9410   -3.4800 C   0  0  0  0  0  0  0  0  0  0  0  0
    3.5430   -0.4790   -1.1400 C   0  0  0  0  0  0  0  0  0  0  0  0
    4.8830   -0.5640   -1.4890 O   0  0  0  0  0  0  0  0  0  0  0  0
    5.9190   -0.3790   -0.5610 C   0  0  0  0  0  0  0  0  0  0  0  0
    5.8420    0.9980   -0.0110 C   0  0  0  0  0  0  0  0  0  0  0  0
    6.6510    1.4060    0.8320 O   0  0  0  0  0  0  0  0  0  0  0  0
    3.1360   -0.2170    0.1450 C   0  0  0  0  0  0  0  0  0  0  0  0
    1.8020   -0.1440    0.4470 C   0  0  0  0  0  0  0  0  0  0  0  0
    1.4970    0.2110    1.8800 C   0  0  0  0  0  0  0  0  0  0  0  0
    1.9680    1.6140    2.0180 C   0  0  0  0  0  0  0  0  0  0  0  0
    1.2820    2.7020    1.8390 C   0  0  0  0  0  0  0  0  0  0  0  0
   -0.1380    2.6770    1.4540 C   0  0  0  0  0  0  0  0  0  0  0  0
   -0.3340    2.9800   -0.0280 C   0  0  0  0  0  0  0  0  0  0  0  0
   -1.7930    3.1250   -0.2330 C   0  0  0  0  0  0  0  0  0  0  0  0
   -2.6100    2.5260   -1.0420 C   0  0  0  0  0  0  0  0  0  0  0  0
   -2.5200    1.5130   -2.0510 C   0  0  0  0  0  0  0  0  0  0  0  0
   -2.5540    0.1800   -1.9810 C   0  0  0  0  0  0  0  0  0  0  0  0
  1  2  1  0
  2  3  2  0
  2  7  1  0
  3  4  1  0
  4  5  2  0
  4 29  1  0
  5  6  1  0
  5  9  1  0
  6  7  2  0
  7  8  1  0
  9 10  1  0
 10 11  2  0
 10 20  1  0
 11 12  1  0
 12 13  1  0
 12 14  2  0
 14 15  1  0
 14 19  1  0
 15 16  1  0
 16 17  1  0
 17 18  2  0
 19 20  2  0
 20 21  1  0
 21 22  1  0
 22 23  2  0
 23 24  1  0
 24 25  1  0
 25 26  1  0
 26 27  2  0
 27 28  1  0
 28 29  2  0
M  END
