
     RDKit          3D

 29 32  0  0  0  0  0  0  0  0999 V2000
   -3.0190   -1.3430   -1.6770 O   0  0  0  0  0  0  0  0  0  0  0  0
   -2.4940   -0.5840   -0.8240 C   0  0  0  0  0  0  0  0  0  0  0  0
   -3.3820    0.0830    0.0570 N   0  0  0  0  0  0  0  0  0  0  0  0
   -4.7660   -0.0940    0.0040 N   0  0  0  0  0  0  0  0  0  0  0  0
   -5.7230    0.9280   -0.1870 C   0  0  0  0  0  0  0  0  0  0  0  0
   -5.3400    2.1050   -0.3310 O   0  0  0  0  0  0  0  0  0  0  0  0
   -7.1810    0.6380   -0.2190 C   0  0  2  0  0  0  0  0  0  0  0  0
   -7.9380    1.3080    0.8840 C   0  0  0  0  0  0  0  0  0  0  0  0
   -9.2440    0.5070    0.8840 C   0  0  0  0  0  0  0  0  0  0  0  0
   -8.8430   -0.8190    0.2750 C   0  0  0  0  0  0  0  0  0  0  0  0
   -7.4210   -0.7770    0.0780 N   0  0  0  0  0  0  0  0  0  0  0  0
   -1.0410   -0.4410   -0.7890 C   0  0  0  0  0  0  0  0  0  0  0  0
   -0.2640    0.2910    0.0820 C   0  0  0  0  0  0  0  0  0  0  0  0
    1.0510    0.0980   -0.2660 C   0  0  0  0  0  0  0  0  0  0  0  0
    2.2140    0.6850    0.3970 C   0  0  0  0  0  0  0  0  0  0  0  0
    2.0670    1.5590    1.2930 O   0  0  0  0  0  0  0  0  0  0  0  0
    3.4980    0.2350    0.0020 N   0  0  0  0  0  0  0  0  0  0  0  0
    4.7100    0.6870    0.5320 C   0  0  0  0  0  0  0  0  0  0  0  0
    4.8160    1.6710    1.4790 C   0  0  0  0  0  0  0  0  0  0  0  0
    6.0830    2.0250    1.9340 C   0  0  0  0  0  0  0  0  0  0  0  0
    7.2410    1.4350    1.4810 C   0  0  0  0  0  0  0  0  0  0  0  0
    7.1460    0.4580    0.5440 C   0  0  0  0  0  0  0  0  0  0  0  0
    5.8960    0.0920    0.0750 C   0  0  0  0  0  0  0  0  0  0  0  0
    5.8640   -0.9230   -0.9210 N   0  0  0  0  0  0  0  0  0  0  0  0
    6.8130   -2.0300   -0.9480 C   0  0  0  0  0  0  0  0  0  0  0  0
    7.9050   -1.7660    0.0630 C   0  0  0  0  0  0  0  0  0  0  0  0
    8.2970   -0.2900   -0.0440 C   0  0  0  0  0  0  0  0  0  0  0  0
    1.0660   -0.7190   -1.3080 N   0  0  0  0  0  0  0  0  0  0  0  0
   -0.1700   -1.0580   -1.6420 N   0  0  0  0  0  0  0  0  0  0  0  0
  1  2  2  0
  2  3  1  0
  2 12  1  0
  3  4  1  0
  4  5  1  0
  5  6  2  0
  7  5  1  1
  7  8  1  0
  7 11  1  0
  8  9  1  0
  9 10  1  0
 10 11  1  0
 12 13  1  0
 12 29  2  0
 13 14  2  0
 14 15  1  0
 14 28  1  0
 15 16  2  0
 15 17  1  0
 17 18  1  0
 18 19  2  0
 18 23  1  0
 19 20  1  0
 20 21  2  0
 21 22  1  0
 22 23  2  0
 22 27  1  0
 23 24  1  0
 24 25  1  0
 25 26  1  0
 26 27  1  0
 28 29  1  0
M  CHG  1  11   1
M  END
