
     RDKit          3D

 28 31  0  0  0  0  0  0  0  0999 V2000
    8.3570    1.7750    2.8250 N   0  0  0  0  0  0  0  0  0  0  0  0
    7.7340    0.8000    2.0200 C   0  0  0  0  0  0  0  0  0  0  0  0
    8.4680   -0.2570    1.5220 C   0  0  0  0  0  0  0  0  0  0  0  0
    7.8740   -1.1850    0.7550 N   0  0  0  0  0  0  0  0  0  0  0  0
    6.5660   -1.0680    0.4850 C   0  0  0  0  0  0  0  0  0  0  0  0
    5.7920   -0.0420    0.9520 C   0  0  0  0  0  0  0  0  0  0  0  0
    4.3680    0.1000    0.6680 C   0  0  0  0  0  0  0  0  0  0  0  0
    3.7260    1.0880    1.1470 O   0  0  0  0  0  0  0  0  0  0  0  0
    3.6250   -0.7970   -0.1180 N   0  0  0  0  0  0  0  0  0  0  0  0
    2.2610   -0.6510   -0.3830 N   0  0  0  0  0  0  0  0  0  0  0  0
    1.7980   -0.5060   -1.7060 C   0  0  0  0  0  0  0  0  0  0  0  0
    2.6440   -0.5120   -2.6370 O   0  0  0  0  0  0  0  0  0  0  0  0
    0.3770   -0.3520   -2.0130 C   0  0  0  0  0  0  0  0  0  0  0  0
   -0.0140   -0.1940   -3.3450 C   0  0  0  0  0  0  0  0  0  0  0  0
   -1.3250   -0.0430   -3.7340 C   0  0  0  0  0  0  0  0  0  0  0  0
   -2.3110   -0.0460   -2.7690 C   0  0  0  0  0  0  0  0  0  0  0  0
   -3.6490    0.0720   -2.7800 N   0  0  0  0  0  0  0  0  0  0  0  0
   -4.1410   -0.0020   -1.5320 C   0  0  0  0  0  0  0  0  0  0  0  0
   -3.0760   -0.1750   -0.6740 C   0  0  0  0  0  0  0  0  0  0  0  0
   -1.9400   -0.2010   -1.4560 C   0  0  0  0  0  0  0  0  0  0  0  0
   -0.6070   -0.3550   -1.0540 C   0  0  0  0  0  0  0  0  0  0  0  0
   -3.0320   -0.3170    0.8110 C   0  0  0  0  0  0  0  0  0  0  0  0
   -4.4400   -0.5830    1.2810 C   0  0  1  0  0  0  0  0  0  0  0  0
   -4.3530   -1.0770    2.6410 N   0  0  0  0  0  0  0  0  0  0  0  0
   -5.1910    0.7050    1.2690 C   0  0  0  0  0  0  0  0  0  0  0  0
   -5.8080    1.0710   -0.0370 C   0  0  0  0  0  0  0  0  0  0  0  0
   -5.5710    0.0860   -1.1390 C   0  0  0  0  0  0  0  0  0  0  0  0
    6.4110    0.8750    1.7180 N   0  0  0  0  0  0  0  0  0  0  0  0
  1  2  1  0
  2  3  2  0
  2 28  1  0
  3  4  1  0
  4  5  2  0
  5  6  1  0
  6  7  1  0
  6 28  2  0
  7  8  2  0
  7  9  1  0
  9 10  1  0
 10 11  1  0
 11 12  2  0
 11 13  1  0
 13 14  2  0
 13 21  1  0
 14 15  1  0
 15 16  2  0
 16 17  1  0
 16 20  1  0
 17 18  1  0
 18 19  2  0
 18 27  1  0
 19 20  1  0
 19 22  1  0
 20 21  2  0
 22 23  1  0
 23 24  1  1
 23 25  1  0
 25 26  1  0
 26 27  1  0
M  CHG  1  24   1
M  END
