
     RDKit          3D

 29 32  0  0  0  0  0  0  0  0999 V2000
   -3.7680    3.3020   -0.9520 C   0  0  0  0  0  0  0  0  0  0  0  0
   -3.6940    2.6980    0.2170 C   0  0  0  0  0  0  0  0  0  0  0  0
   -3.2880    3.5040    1.4020 C   0  0  0  0  0  0  0  0  0  0  0  0
   -4.0180    1.2790    0.3290 C   0  0  0  0  0  0  0  0  0  0  0  0
   -5.2970    0.8270    0.4930 C   0  0  0  0  0  0  0  0  0  0  0  0
   -5.5970   -0.5170    0.5980 C   0  0  0  0  0  0  0  0  0  0  0  0
   -7.0240   -0.9210    0.7760 C   0  0  0  0  0  0  0  0  0  0  0  0
   -4.5920   -1.4470    0.5380 C   0  0  0  0  0  0  0  0  0  0  0  0
   -4.8980   -2.8910    0.6500 C   0  0  0  0  0  0  0  0  0  0  0  0
   -3.2910   -0.9720    0.3700 C   0  0  0  0  0  0  0  0  0  0  0  0
   -2.9700    0.3630    0.2630 C   0  0  0  0  0  0  0  0  0  0  0  0
   -1.6080    0.8380    0.0750 C   0  0  0  0  0  0  0  0  0  0  0  0
   -1.4380    2.0880   -0.0310 O   0  0  0  0  0  0  0  0  0  0  0  0
   -0.4960   -0.0880    0.0120 C   0  0  0  0  0  0  0  0  0  0  0  0
    0.7120    0.3730   -0.1580 C   0  0  0  0  0  0  0  0  0  0  0  0
    1.9160   -0.4440   -0.2380 C   0  0  0  0  0  0  0  0  0  0  0  0
    1.8640   -1.8170   -0.1360 C   0  0  0  0  0  0  0  0  0  0  0  0
    3.0040   -2.6100   -0.2110 C   0  0  0  0  0  0  0  0  0  0  0  0
    4.2510   -2.0370   -0.3930 C   0  0  0  0  0  0  0  0  0  0  0  0
    5.4670   -2.5150   -0.4990 O   0  0  0  0  0  0  0  0  0  0  0  0
    6.3640   -1.5720   -0.6670 C   0  0  0  0  0  0  0  0  0  0  0  0
    7.7470   -1.5770   -0.8240 C   0  0  0  0  0  0  0  0  0  0  0  0
    8.4390   -0.4060   -0.9850 C   0  0  0  0  0  0  0  0  0  0  0  0
    7.7420    0.7820   -0.9880 C   0  0  0  0  0  0  0  0  0  0  0  0
    8.4230    1.9760   -1.1480 O   0  0  0  0  0  0  0  0  0  0  0  0
    6.3550    0.7880   -0.8300 C   0  0  0  0  0  0  0  0  0  0  0  0
    5.6530   -0.3870   -0.6680 C   0  0  0  0  0  0  0  0  0  0  0  0
    4.3140   -0.6650   -0.4960 C   0  0  0  0  0  0  0  0  0  0  0  0
    3.1680    0.1040   -0.4190 C   0  0  0  0  0  0  0  0  0  0  0  0
  1  2  2  0
  2  3  1  0
  2  4  1  0
  4  5  2  0
  4 11  1  0
  5  6  1  0
  6  7  1  0
  6  8  2  0
  8  9  1  0
  8 10  1  0
 10 11  2  0
 11 12  1  0
 12 13  2  0
 12 14  1  0
 14 15  2  3
 15 16  1  0
 16 17  2  0
 16 29  1  0
 17 18  1  0
 18 19  2  0
 19 20  1  0
 19 28  1  0
 20 21  1  0
 21 22  2  0
 21 27  1  0
 22 23  1  0
 23 24  2  0
 24 25  1  0
 24 26  1  0
 26 27  2  0
 27 28  1  0
 28 29  2  0
M  END
