
     RDKit          3D

 26 29  0  0  0  0  0  0  0  0999 V2000
    1.9710   -1.5390    2.6500 C   0  0  0  0  0  0  0  0  0  0  0  0
    1.1820   -1.0870    1.5760 O   0  0  0  0  0  0  0  0  0  0  0  0
    1.7510   -0.8330    0.3560 C   0  0  0  0  0  0  0  0  0  0  0  0
    3.1190   -1.0420    0.2310 C   0  0  0  0  0  0  0  0  0  0  0  0
    3.7610   -0.8160   -0.9460 C   0  0  0  0  0  0  0  0  0  0  0  0
    5.2440   -1.0400   -1.0850 C   0  0  0  0  0  0  0  0  0  0  0  0
    5.8650   -1.6170    0.5160 S   0  0  0  0  0  0  0  0  0  0  0  0
    3.0720   -0.3770   -2.0370 C   0  0  0  0  0  0  0  0  0  0  0  0
    3.7410   -0.1540   -3.2220 O   0  0  0  0  0  0  0  0  0  0  0  0
    1.7120   -0.1750   -1.8910 C   0  0  0  0  0  0  0  0  0  0  0  0
    1.0010   -0.3830   -0.7340 C   0  0  0  0  0  0  0  0  0  0  0  0
   -0.4440   -0.1500   -0.6060 C   0  0  0  0  0  0  0  0  0  0  0  0
   -0.8810    1.1020    0.0430 C   0  0  1  0  0  0  0  0  0  0  0  0
   -0.4270    2.3540   -0.6470 C   0  0  0  0  0  0  0  0  0  0  0  0
   -1.0730    2.4420   -1.9840 C   0  0  0  0  0  0  0  0  0  0  0  0
   -2.5450    2.2520   -2.0370 C   0  0  0  0  0  0  0  0  0  0  0  0
   -3.0480    1.0680   -1.2170 C   0  0  0  0  0  0  0  0  0  0  0  0
   -2.4130    1.2120    0.1100 C   0  0  1  0  0  0  0  0  0  0  0  0
   -2.8930    0.4190    1.2390 C   0  0  1  0  0  0  0  0  0  0  0  0
   -3.3900   -0.9330    1.0540 C   0  0  0  0  0  0  0  0  0  0  0  0
   -2.8040   -1.7260    2.2050 C   0  0  1  0  0  0  0  0  0  0  0  0
   -2.0070   -2.7520    1.7560 O   0  0  0  0  0  0  0  0  0  0  0  0
   -2.0370   -0.7140    3.0480 C   0  0  0  0  0  0  0  0  0  0  0  0
   -1.6720    0.2570    2.0480 N   0  0  0  0  0  0  0  0  0  0  0  0
   -0.6580    1.1220    1.5110 C   0  0  0  0  0  0  0  0  0  0  0  0
    0.1760    1.7100    2.2380 O   0  0  0  0  0  0  0  0  0  0  0  0
  1  2  1  0
  2  3  1  0
  3  4  2  0
  3 11  1  0
  4  5  1  0
  5  6  1  0
  5  8  2  0
  6  7  1  0
  8  9  1  0
  8 10  1  0
 10 11  2  0
 11 12  1  0
 13 12  1  6
 13 14  1  0
 13 18  1  0
 13 25  1  0
 14 15  1  0
 15 16  1  0
 16 17  1  0
 18 17  1  6
 18 19  1  0
 19 20  1  6
 19 24  1  0
 20 21  1  0
 21 22  1  6
 21 23  1  0
 23 24  1  0
 24 25  1  0
 25 26  2  0
M  END
