
     RDKit          3D

 25 27  0  0  0  0  0  0  0  0999 V2000
    6.5670   -0.4440    1.9930 C   0  0  0  0  0  0  0  0  0  0  0  0
    6.1630    0.7400    1.1320 C   0  0  0  0  0  0  0  0  0  0  0  0
    4.7600    0.7010    1.0070 O   0  0  0  0  0  0  0  0  0  0  0  0
    4.0930   -0.3740    0.4410 C   0  0  0  0  0  0  0  0  0  0  0  0
    4.8170   -1.3220    0.0410 O   0  0  0  0  0  0  0  0  0  0  0  0
    2.6460   -0.4650    0.2870 C   0  0  1  0  0  0  0  0  0  0  0  0
    1.9170   -0.3920    1.6250 C   0  0  0  0  0  0  0  0  0  0  0  0
    0.4680   -0.7750    1.4660 C   0  0  0  0  0  0  0  0  0  0  0  0
   -0.1260   -0.1540    0.2400 C   0  0  0  0  0  0  0  0  0  0  0  0
   -1.4110    0.0320    0.1990 C   0  0  0  0  0  0  0  0  0  0  0  0
   -2.2450   -0.3790    1.3650 C   0  0  0  0  0  0  0  0  0  0  0  0
   -3.7060   -0.4710    0.9880 C   0  0  1  0  0  0  0  0  0  0  0  0
   -4.4680    0.7910    1.2840 C   0  0  0  0  0  0  0  0  0  0  0  0
   -5.9540    0.4920    1.1520 C   0  0  0  0  0  0  0  0  0  0  0  0
   -6.1990   -0.8530    0.5060 C   0  0  0  0  0  0  0  0  0  0  0  0
   -5.3540   -1.0820   -0.7080 C   0  0  0  0  0  0  0  0  0  0  0  0
   -3.8810   -0.8560   -0.4650 C   0  0  1  0  0  0  0  0  0  0  0  0
   -3.3920    0.1850   -1.4150 C   0  0  0  0  0  0  0  0  0  0  0  0
   -2.0510    0.6430   -0.9570 C   0  0  0  0  0  0  0  0  0  0  0  0
   -1.4770    1.5700   -1.5860 O   0  0  0  0  0  0  0  0  0  0  0  0
    0.6960    0.2170   -0.8560 N   0  0  0  0  0  0  0  0  0  0  0  0
    2.0550    0.6230   -0.5730 C   0  0  2  0  0  0  0  0  0  0  0  0
    2.8480    0.8820   -1.8220 C   0  0  0  0  0  0  0  0  0  0  0  0
    2.9770   -0.5570   -2.8850 S   0  0  0  0  0  0  0  0  0  0  0  0
    3.9610   -0.0870   -4.3480 C   0  0  0  0  0  0  0  0  0  0  0  0
  1  2  1  0
  2  3  1  0
  3  4  1  0
  4  5  2  0
  6  4  1  1
  6  7  1  0
  6 22  1  0
  7  8  1  0
  8  9  1  0
  9 10  2  3
  9 21  1  0
 10 11  1  0
 10 19  1  0
 12 11  1  6
 12 13  1  0
 12 17  1  0
 13 14  1  0
 14 15  1  0
 15 16  1  0
 17 16  1  6
 17 18  1  0
 18 19  1  0
 19 20  2  0
 21 22  1  0
 22 23  1  6
 23 24  1  0
 24 25  1  0
M  END
