
     RDKit          3D

 25 27  0  0  0  0  0  0  0  0999 V2000
   -5.3560    3.1800   -0.1500 C   0  0  0  0  0  0  0  0  0  0  0  0
   -4.7680    1.9330    0.0450 O   0  0  0  0  0  0  0  0  0  0  0  0
   -3.4180    1.6570    0.0770 C   0  0  0  0  0  0  0  0  0  0  0  0
   -2.4480    2.6160   -0.0880 C   0  0  0  0  0  0  0  0  0  0  0  0
   -1.0820    2.3140   -0.0520 C   0  0  0  0  0  0  0  0  0  0  0  0
   -0.6740    0.9930    0.1570 C   0  0  0  0  0  0  0  0  0  0  0  0
   -1.6650    0.0560    0.3180 C   0  0  0  0  0  0  0  0  0  0  0  0
   -3.0140    0.3500    0.2840 C   0  0  0  0  0  0  0  0  0  0  0  0
   -1.0080   -1.1440    0.5050 C   0  0  0  0  0  0  0  0  0  0  0  0
   -1.6350   -2.4810    0.7160 C   0  0  0  0  0  0  0  0  0  0  0  0
   -2.1520   -3.0420   -0.5340 C   0  0  0  0  0  0  0  0  0  0  0  0
   -2.0370   -2.4060   -1.6070 O   0  0  0  0  0  0  0  0  0  0  0  0
   -2.7700   -4.2750   -0.5410 O   0  0  0  0  0  0  0  0  0  0  0  0
    0.3500   -0.9350    0.4590 C   0  0  0  0  0  0  0  0  0  0  0  0
    1.3890   -1.9960    0.6570 C   0  0  0  0  0  0  0  0  0  0  0  0
    0.5490    0.3900    0.2420 N   0  0  0  0  0  0  0  0  0  0  0  0
    1.7630    1.0610    0.0710 C   0  0  0  0  0  0  0  0  0  0  0  0
    1.7160    2.3490   -0.0170 O   0  0  0  0  0  0  0  0  0  0  0  0
    3.0900    0.4970   -0.0240 C   0  0  0  0  0  0  0  0  0  0  0  0
    4.0850    0.9930    0.8300 C   0  0  0  0  0  0  0  0  0  0  0  0
    5.3900    0.5620    0.7900 C   0  0  0  0  0  0  0  0  0  0  0  0
    5.7610   -0.4050   -0.1280 C   0  0  0  0  0  0  0  0  0  0  0  0
    7.4180   -0.9770   -0.2050 Cl  0  0  0  0  0  0  0  0  0  0  0  0
    4.8080   -0.9190   -0.9880 C   0  0  0  0  0  0  0  0  0  0  0  0
    3.5110   -0.4550   -0.9090 C   0  0  0  0  0  0  0  0  0  0  0  0
  1  2  1  0
  2  3  1  0
  3  4  2  0
  3  8  1  0
  4  5  1  0
  5  6  2  0
  6  7  1  0
  6 16  1  0
  7  8  2  0
  7  9  1  0
  9 10  1  0
  9 14  2  0
 10 11  1  0
 11 12  2  0
 11 13  1  0
 14 15  1  0
 14 16  1  0
 16 17  1  0
 17 18  2  0
 17 19  1  0
 19 20  2  0
 19 25  1  0
 20 21  1  0
 21 22  2  0
 22 23  1  0
 22 24  1  0
 24 25  2  0
M  END
