
     RDKit          3D

 26 29  0  0  0  0  0  0  0  0999 V2000
    0.8290   -1.3720    1.6570 C   0  0  0  0  0  0  0  0  0  0  0  0
   -0.5270   -1.4660    1.0320 C   0  0  0  0  0  0  0  0  0  0  0  0
   -1.3220   -2.4790    1.6090 C   0  0  0  0  0  0  0  0  0  0  0  0
   -2.6340   -2.6410    1.2390 C   0  0  0  0  0  0  0  0  0  0  0  0
   -3.1190   -1.7580    0.2820 C   0  0  0  0  0  0  0  0  0  0  0  0
   -2.3490   -0.7740   -0.2790 C   0  0  0  0  0  0  0  0  0  0  0  0
   -0.9970   -0.6210    0.1030 C   0  0  0  0  0  0  0  0  0  0  0  0
   -0.2540    0.4470   -0.6370 C   0  0  2  0  0  0  0  0  0  0  0  0
    0.9430    1.0070   -0.0890 C   0  0  0  0  0  0  0  0  0  0  0  0
    2.3700    0.5910   -0.1270 C   0  0  0  0  0  0  0  0  0  0  0  0
    3.2910    1.3350    0.3430 O   0  0  0  0  0  0  0  0  0  0  0  0
    2.8190   -0.5940   -0.6740 O   0  0  0  0  0  0  0  0  0  0  0  0
    4.1700   -0.9570   -0.7300 C   0  0  2  0  0  0  0  0  0  0  0  0
    4.6780   -0.9170   -2.1810 C   0  0  0  0  0  0  0  0  0  0  0  0
    4.5640   -2.2240   -0.1550 C   0  0  0  0  0  0  0  0  0  0  0  0
    5.9660   -2.5780   -0.1870 N   0  0  0  0  0  0  0  0  0  0  0  0
    3.8330   -3.0850    0.3840 O   0  0  0  0  0  0  0  0  0  0  0  0
    0.6600    2.2390    0.3920 C   0  0  0  0  0  0  0  0  0  0  0  0
   -0.7290    2.5950    0.1570 C   0  0  0  0  0  0  0  0  0  0  0  0
   -1.2540    1.5910   -0.4510 C   0  0  0  0  0  0  0  0  0  0  0  0
   -2.6110    1.4730   -1.0290 C   0  0  1  0  0  0  0  0  0  0  0  0
   -2.9320    0.0940   -1.2340 O   0  0  0  0  0  0  0  0  0  0  0  0
   -3.5880    2.0990   -0.1000 C   0  0  2  0  0  0  0  0  0  0  0  0
   -5.0120    1.6640   -0.3290 C   0  0  0  0  0  0  0  0  0  0  0  0
   -3.4400    3.6060   -0.0830 C   0  0  0  0  0  0  0  0  0  0  0  0
   -1.7920    4.0000    0.5260 S   0  0  0  0  0  0  0  0  0  0  0  0
  1  2  1  0
  2  3  2  0
  2  7  1  0
  3  4  1  0
  4  5  2  0
  5  6  1  0
  6  7  2  0
  6 22  1  0
  7  8  1  0
  8  9  1  1
  8 20  1  0
  9 10  1  0
  9 18  2  0
 10 11  2  0
 10 12  1  0
 12 13  1  0
 13 14  1  6
 13 15  1  0
 15 16  1  0
 15 17  2  0
 18 19  1  0
 19 20  2  0
 19 26  1  0
 20 21  1  0
 21 22  1  1
 21 23  1  0
 23 24  1  6
 23 25  1  0
 25 26  1  0
M  END
