
     RDKit          3D

 26 29  0  0  0  0  0  0  0  0999 V2000
   -5.7200    2.4100    0.8690 O   0  0  0  0  0  0  0  0  0  0  0  0
   -4.5060    2.2550    0.6950 C   0  0  0  0  0  0  0  0  0  0  0  0
   -3.8320    1.1130   -0.0370 C   0  0  0  0  0  0  0  0  0  0  0  0
   -2.5260    0.9440    0.6600 C   0  0  1  0  0  0  0  0  0  0  0  0
   -1.3190    0.8230   -0.2330 C   0  0  1  0  0  0  0  0  0  0  0  0
   -0.2380    0.7280    0.7360 O   0  0  0  0  0  0  0  0  0  0  0  0
   -1.1680   -0.4000   -1.0380 C   0  0  2  0  0  0  0  0  0  0  0  0
    0.1270   -0.2270   -1.8510 C   0  0  2  0  0  0  0  0  0  0  0  0
    0.3730   -1.3340   -2.6340 O   0  0  0  0  0  0  0  0  0  0  0  0
    1.2860    0.1570   -1.0150 C   0  0  0  0  0  0  0  0  0  0  0  0
    1.7910    1.4510   -0.8980 C   0  0  0  0  0  0  0  0  0  0  0  0
    2.8550    1.3470   -0.0320 C   0  0  0  0  0  0  0  0  0  0  0  0
    2.9740    0.0170    0.3540 C   0  0  0  0  0  0  0  0  0  0  0  0
    3.9890   -0.4990    1.2720 C   0  0  0  0  0  0  0  0  0  0  0  0
    4.9510    0.1620    1.8900 C   0  0  0  0  0  0  0  0  0  0  0  0
    5.7350   -0.7690    2.7160 C   0  0  0  0  0  0  0  0  0  0  0  0
    7.0730   -0.4170    3.8340 S   0  0  0  0  0  0  0  0  0  0  0  0
    5.2150   -1.9470    2.4380 C   0  0  0  0  0  0  0  0  0  0  0  0
    4.1270   -1.8890    1.6850 C   0  0  0  0  0  0  0  0  0  0  0  0
    2.0220   -0.6220   -0.2610 O   0  0  0  0  0  0  0  0  0  0  0  0
   -2.2250   -0.7570   -2.0150 C   0  0  0  0  0  0  0  0  0  0  0  0
   -2.0520   -2.2540   -2.3080 C   0  0  0  0  0  0  0  0  0  0  0  0
   -1.2720   -2.7990   -1.1670 C   0  0  0  0  0  0  0  0  0  0  0  0
   -0.9620   -1.6580   -0.2160 C   0  0  0  0  0  0  0  0  0  0  0  0
   -2.3520    2.1820    1.4830 C   0  0  0  0  0  0  0  0  0  0  0  0
   -3.4220    3.0630    1.1090 N   0  0  0  0  0  0  0  0  0  0  0  0
  1  2  2  0
  2  3  1  0
  2 26  1  0
  4  3  1  6
  4  5  1  0
  4 25  1  0
  5  6  1  1
  5  7  1  0
  7  8  1  0
  7 21  1  6
  7 24  1  0
  8  9  1  1
  8 10  1  0
 10 11  2  0
 10 20  1  0
 11 12  1  0
 12 13  2  0
 13 14  1  0
 13 20  1  0
 14 15  2  0
 14 19  1  0
 15 16  1  0
 16 17  1  0
 16 18  2  0
 18 19  2  0
 21 22  1  0
 22 23  1  0
 23 24  1  0
 25 26  1  0
M  END
