
     RDKit          3D

 26 27  0  0  0  0  0  0  0  0999 V2000
    7.5620    2.1970   -0.1190 C   0  0  0  0  0  0  0  0  0  0  0  0
    6.0190    1.2830   -0.0960 S   0  0  0  0  0  0  0  0  0  0  0  0
    5.5340    0.6940   -1.6890 C   0  0  0  0  0  0  0  0  0  0  0  0
    6.3300    0.9850   -2.6540 O   0  0  0  0  0  0  0  0  0  0  0  0
    4.3590   -0.0600   -1.9820 C   0  0  0  0  0  0  0  0  0  0  0  0
    3.4000   -0.4860   -1.2220 C   0  0  0  0  0  0  0  0  0  0  0  0
    3.2040   -0.3270    0.2200 C   0  0  2  0  0  0  0  0  0  0  0  0
    3.2540   -1.6480    0.9570 C   0  0  0  0  0  0  0  0  0  0  0  0
    1.9130   -2.0170    1.5070 C   0  0  2  0  0  0  0  0  0  0  0  0
    1.9480   -3.4440    1.9560 C   0  0  0  0  0  0  0  0  0  0  0  0
    0.8740   -1.8670    0.4180 C   0  0  0  0  0  0  0  0  0  0  0  0
    0.6830   -0.3860    0.0680 C   0  0  2  0  0  0  0  0  0  0  0  0
    1.8950    0.4060    0.4550 C   0  0  0  0  0  0  0  0  0  0  0  0
   -0.5640    0.0740    0.7770 C   0  0  0  0  0  0  0  0  0  0  0  0
   -1.3380    1.1290    0.0580 C   0  0  2  0  0  0  0  0  0  0  0  0
   -2.5160    0.6300   -0.5480 O   0  0  0  0  0  0  0  0  0  0  0  0
   -3.7650    1.0870   -0.1980 C   0  0  0  0  0  0  0  0  0  0  0  0
   -3.8290    1.9760    0.6900 O   0  0  0  0  0  0  0  0  0  0  0  0
   -5.0280    0.6170   -0.7830 C   0  0  1  0  0  0  0  0  0  0  0  0
   -4.8430   -0.4010   -1.7890 N   0  0  0  0  0  0  0  0  0  0  0  0
   -6.0170    0.1450    0.2460 C   0  0  1  0  0  0  0  0  0  0  0  0
   -5.4920   -0.9960    1.0630 C   0  0  0  0  0  0  0  0  0  0  0  0
   -6.4640    1.2550    1.1650 C   0  0  0  0  0  0  0  0  0  0  0  0
   -0.5540    1.8320   -1.0210 C   0  0  0  0  0  0  0  0  0  0  0  0
    0.2830    0.9010   -1.8270 C   0  0  0  0  0  0  0  0  0  0  0  0
    0.4280   -0.3520   -1.2920 O   0  0  0  0  0  0  0  0  0  0  0  0
  1  2  1  0
  2  3  1  0
  3  4  2  0
  3  5  1  0
  5  6  2  3
  7  6  1  6
  7  8  1  0
  7 13  1  0
  8  9  1  0
  9 10  1  6
  9 11  1  0
 12 11  1  1
 12 13  1  0
 12 14  1  0
 12 26  1  0
 14 15  1  0
 15 16  1  6
 15 24  1  0
 16 17  1  0
 17 18  2  0
 17 19  1  0
 19 20  1  6
 19 21  1  0
 21 22  1  1
 21 23  1  0
 24 25  1  0
 25 26  1  0
M  END
