
     RDKit          3D

 23 24  0  0  0  0  0  0  0  0999 V2000
    7.9010   -2.1100    0.5510 C   0  0  0  0  0  0  0  0  0  0  0  0
    6.6820   -1.6550    0.7910 C   0  0  0  0  0  0  0  0  0  0  0  0
    5.8840   -1.0310   -0.2470 C   0  0  0  0  0  0  0  0  0  0  0  0
    4.6870   -0.5910    0.0140 C   0  0  0  0  0  0  0  0  0  0  0  0
    3.8490    0.0330   -0.9630 N   0  0  0  0  0  0  0  0  0  0  0  0
    4.2190    0.2190   -2.2190 C   0  0  0  0  0  0  0  0  0  0  0  0
    3.1870    0.8380   -2.8710 C   0  0  0  0  0  0  0  0  0  0  0  0
    2.2120    1.0020   -1.9480 N   0  0  0  0  0  0  0  0  0  0  0  0
    2.6010    0.5140   -0.7700 C   0  0  0  0  0  0  0  0  0  0  0  0
    1.9190    0.4780    0.5040 C   0  0  0  0  0  0  0  0  0  0  0  0
    0.5360    0.9670    0.5970 C   0  0  1  0  0  0  0  0  0  0  0  0
    0.3850    2.2950    0.2080 O   0  0  0  0  0  0  0  0  0  0  0  0
   -0.5720    0.1460    0.0780 C   0  0  2  0  0  0  0  0  0  0  0  0
   -0.5700   -1.2780    0.5920 C   0  0  0  0  0  0  0  0  0  0  0  0
   -0.6500    0.1980   -1.3590 N   0  0  0  0  0  0  0  0  0  0  0  0
   -1.8690    0.7890    0.6000 C   0  0  0  0  0  0  0  0  0  0  0  0
   -3.0210    0.0450    0.1380 N   0  0  0  0  0  0  0  0  0  0  0  0
   -4.1820    0.4460    0.5390 C   0  0  0  0  0  0  0  0  0  0  0  0
   -4.5510    1.8480    1.6270 S   0  0  0  0  0  0  0  0  0  0  0  0
   -6.3770    1.6230    1.6520 C   0  0  0  0  0  0  0  0  0  0  0  0
   -6.4430    0.1680    1.2450 C   0  0  0  0  0  0  0  0  0  0  0  0
   -5.4640   -0.0910    0.2440 N   0  0  0  0  0  0  0  0  0  0  0  0
   -5.7210   -0.8440   -0.9880 C   0  0  0  0  0  0  0  0  0  0  0  0
  1  2  2  0
  2  3  1  0
  3  4  2  3
  4  5  1  0
  5  6  1  0
  5  9  1  0
  6  7  2  0
  7  8  1  0
  8  9  2  0
  9 10  1  0
 10 11  1  0
 11 12  1  6
 11 13  1  0
 13 14  1  6
 13 15  1  0
 13 16  1  0
 16 17  1  0
 17 18  2  3
 18 19  1  0
 18 22  1  0
 19 20  1  0
 20 21  1  0
 21 22  1  0
 22 23  1  0
M  CHG  1  15   1
M  END
