
     RDKit          3D

 23 25  0  0  0  0  0  0  0  0999 V2000
    6.6350    1.3350    0.7080 N   0  0  0  0  0  0  0  0  0  0  0  0
    7.1270    0.3160    0.1150 C   0  0  0  0  0  0  0  0  0  0  0  0
    8.2070    0.4720   -0.7410 O   0  0  0  0  0  0  0  0  0  0  0  0
    6.5920   -1.0560    0.2980 C   0  0  0  0  0  0  0  0  0  0  0  0
    5.1860   -1.0410    1.4580 S   0  0  0  0  0  0  0  0  0  0  0  0
    3.8510   -0.1210    0.6640 C   0  0  1  0  0  0  0  0  0  0  0  0
    3.3100   -0.8140   -0.5510 C   0  0  0  0  0  0  0  0  0  0  0  0
    1.8100   -0.5910   -0.5620 C   0  0  0  0  0  0  0  0  0  0  0  0
    1.6040    0.4260    0.5120 C   0  0  1  0  0  0  0  0  0  0  0  0
    0.2710    0.4770    1.0430 N   0  0  0  0  0  0  0  0  0  0  0  0
   -0.7450   -0.0080    0.1660 C   0  0  1  0  0  0  0  0  0  0  0  0
   -1.5320   -1.0840    0.9250 C   0  0  0  0  0  0  0  0  0  0  0  0
   -2.3020   -1.8200   -0.1400 C   0  0  0  0  0  0  0  0  0  0  0  0
   -3.3550   -0.8960   -0.6980 C   0  0  0  0  0  0  0  0  0  0  0  0
   -3.1370    0.5490   -0.4410 C   0  0  1  0  0  0  0  0  0  0  0  0
   -3.9990    1.0120    0.6500 N   0  0  0  0  0  0  0  0  0  0  0  0
   -5.3960    0.9400    0.4480 C   0  0  0  0  0  0  0  0  0  0  0  0
   -6.0900    0.4960   -0.6710 C   0  0  0  0  0  0  0  0  0  0  0  0
   -7.4370    0.6070   -0.4040 C   0  0  0  0  0  0  0  0  0  0  0  0
   -7.5540    1.1050    0.8390 N   0  0  0  0  0  0  0  0  0  0  0  0
   -6.3280    1.2930    1.3230 N   0  0  0  0  0  0  0  0  0  0  0  0
   -1.7350    1.0080   -0.2870 C   0  0  0  0  0  0  0  0  0  0  0  0
    2.6200   -0.0280    1.5580 C   0  0  0  0  0  0  0  0  0  0  0  0
  1  2  2  0
  2  3  1  0
  2  4  1  0
  4  5  1  0
  6  5  1  1
  6  7  1  0
  6 23  1  0
  7  8  1  0
  8  9  1  0
  9 10  1  1
  9 23  1  0
 11 10  1  1
 11 12  1  0
 11 22  1  0
 12 13  1  0
 13 14  1  0
 14 15  1  0
 15 16  1  1
 15 22  1  0
 16 17  1  0
 17 18  1  0
 17 21  2  0
 18 19  2  0
 19 20  1  0
 20 21  1  0
M  CHG  1  10   1
M  END
