
     RDKit          3D

 23 24  0  0  0  0  0  0  0  0999 V2000
   -6.0850    0.2560   -1.3630 C   0  0  0  0  0  0  0  0  0  0  0  0
   -5.9820    0.2980    0.1300 C   0  0  2  0  0  0  0  0  0  0  0  0
   -7.3720    0.3560    0.7460 C   0  0  0  0  0  0  0  0  0  0  0  0
   -5.2520    1.4830    0.5210 N   0  0  0  0  0  0  0  0  0  0  0  0
   -4.0510    1.5630   -0.2710 C   0  0  0  0  0  0  0  0  0  0  0  0
   -3.1220    0.4530    0.1190 C   0  0  0  0  0  0  0  0  0  0  0  0
   -1.8710    0.5650   -0.7290 C   0  0  0  0  0  0  0  0  0  0  0  0
   -0.9110   -0.5320   -0.3810 C   0  0  0  0  0  0  0  0  0  0  0  0
    0.3080   -0.3210    0.0490 C   0  0  0  0  0  0  0  0  0  0  0  0
    1.0550    0.8960    0.3020 N   0  0  0  0  0  0  0  0  0  0  0  0
    2.4870    0.7770    0.4540 C   0  0  0  0  0  0  0  0  0  0  0  0
    3.1140   -0.3880    0.3710 C   0  0  0  0  0  0  0  0  0  0  0  0
    4.5210   -0.3980    0.5340 N   0  0  0  0  0  0  0  0  0  0  0  0
    5.1180    0.1060    1.5570 C   0  0  0  0  0  0  0  0  0  0  0  0
    6.5350    0.0370    1.6100 N   0  0  0  0  0  0  0  0  0  0  0  0
    7.2370   -0.6570    0.5780 C   0  0  0  0  0  0  0  0  0  0  0  0
    7.1900   -0.0010   -0.7680 C   0  0  0  0  0  0  0  0  0  0  0  0
    7.9010    1.6480   -0.7440 S   0  0  0  0  0  0  0  0  0  0  0  0
    7.5150    2.4240    0.4920 O   0  0  0  0  0  0  0  0  0  0  0  0
    2.3750   -1.5810    0.1330 N   0  0  0  0  0  0  0  0  0  0  0  0
    0.9400   -1.6410    0.2990 C   0  0  2  0  0  0  0  0  0  0  0  0
    0.2400   -2.5290   -0.6910 C   0  0  0  0  0  0  0  0  0  0  0  0
   -1.2000   -2.0090   -0.4940 C   0  0  0  0  0  0  0  0  0  0  0  0
  2  1  1  6
  2  3  1  0
  2  4  1  0
  4  5  1  0
  5  6  1  0
  6  7  1  0
  7  8  1  0
  8  9  2  0
  8 23  1  0
  9 10  1  0
  9 21  1  0
 10 11  1  0
 11 12  2  0
 12 13  1  0
 12 20  1  0
 13 14  2  3
 14 15  1  0
 15 16  1  0
 16 17  1  0
 17 18  1  0
 18 19  2  0
 20 21  1  0
 21 22  1  6
 22 23  1  0
M  CHG  1   4   1
M  END
