
     RDKit          3D

 23 24  0  0  0  0  0  0  0  0999 V2000
   -0.9670    3.7820   -0.6930 C   0  0  0  0  0  0  0  0  0  0  0  0
   -2.2330    2.9810   -0.7830 C   0  0  0  0  0  0  0  0  0  0  0  0
   -1.8930    1.4880   -0.9940 C   0  0  0  0  0  0  0  0  0  0  0  0
   -1.0980    1.0840    0.1770 C   0  0  0  0  0  0  0  0  0  0  0  0
   -0.5740   -0.3010    0.2620 C   0  0  2  0  0  0  0  0  0  0  0  0
    0.3540   -0.6590   -0.8690 C   0  0  0  0  0  0  0  0  0  0  0  0
    1.5850    0.1280   -1.0150 C   0  0  2  0  0  0  0  0  0  0  0  0
    2.2450   -0.4320   -2.2370 N   0  0  0  0  0  0  0  0  0  0  0  0
    2.6120    0.0090    0.0360 C   0  0  0  0  0  0  0  0  0  0  0  0
    2.5770   -0.9820    0.8980 C   0  0  0  0  0  0  0  0  0  0  0  0
    3.5270   -1.2690    2.0340 C   0  0  0  0  0  0  0  0  0  0  0  0
    3.5220   -0.2450    2.9560 O   0  0  0  0  0  0  0  0  0  0  0  0
    4.5720    1.0320    2.5910 S   0  0  0  0  0  0  0  0  0  0  0  0
    4.4780    1.5220    0.8970 C   0  0  0  0  0  0  0  0  0  0  0  0
    3.6440    1.0340   -0.0370 C   0  0  0  0  0  0  0  0  0  0  0  0
    3.8670    1.6880   -1.2850 N   0  0  0  0  0  0  0  0  0  0  0  0
   -1.4890   -1.3620    0.4200 N   0  0  0  0  0  0  0  0  0  0  0  0
   -2.4100   -1.6760   -0.5840 C   0  0  0  0  0  0  0  0  0  0  0  0
   -3.8760   -1.6610   -0.1220 C   0  0  0  0  0  0  0  0  0  0  0  0
   -3.9320   -2.7450    0.8740 N   0  0  0  0  0  0  0  0  0  0  0  0
   -2.8180   -2.7730    1.7650 C   0  0  0  0  0  0  0  0  0  0  0  0
   -2.5510   -3.7780    2.5270 N   0  0  0  0  0  0  0  0  0  0  0  0
   -1.9600   -1.5620    1.7700 C   0  0  0  0  0  0  0  0  0  0  0  0
  1  2  1  0
  2  3  1  0
  3  4  1  0
  5  4  1  6
  5  6  1  0
  5 17  1  0
  6  7  1  0
  7  8  1  6
  7  9  1  0
  9 10  2  0
  9 15  1  0
 10 11  1  0
 11 12  1  0
 12 13  1  0
 13 14  1  0
 14 15  2  0
 15 16  1  0
 17 18  1  0
 17 23  1  0
 18 19  1  0
 19 20  1  0
 20 21  1  0
 21 22  2  0
 21 23  1  0
M  CHG  1   8   1
M  END
