
     RDKit          3D

 18 19  0  0  0  0  0  0  0  0999 V2000
   -4.0420    1.6580    1.1250 C   0  0  0  0  0  0  0  0  0  0  0  0
   -4.3160    0.8210   -0.1300 C   0  0  0  0  0  0  0  0  0  0  0  0
   -3.3890   -0.3640   -0.1460 C   0  0  0  0  0  0  0  0  0  0  0  0
   -1.9720    0.0370   -0.1610 C   0  0  0  0  0  0  0  0  0  0  0  0
   -1.6750    1.2550   -0.1590 O   0  0  0  0  0  0  0  0  0  0  0  0
   -0.8860   -0.9260   -0.1780 C   0  0  0  0  0  0  0  0  0  0  0  0
   -1.1380   -2.2850   -0.1820 C   0  0  0  0  0  0  0  0  0  0  0  0
   -0.1210   -3.2190   -0.1980 C   0  0  0  0  0  0  0  0  0  0  0  0
    1.2010   -2.8290   -0.2120 C   0  0  0  0  0  0  0  0  0  0  0  0
    2.2330   -3.7770   -0.2290 O   0  0  0  0  0  0  0  0  0  0  0  0
    1.4640   -1.4760   -0.2090 C   0  0  0  0  0  0  0  0  0  0  0  0
    2.7740   -1.0610   -0.2230 O   0  0  0  0  0  0  0  0  0  0  0  0
    3.2000    0.2390   -0.2220 C   0  0  0  0  0  0  0  0  0  0  0  0
    3.7340    0.8580   -1.2610 C   0  0  0  0  0  0  0  0  0  0  0  0
    4.0760    2.2610   -0.8930 C   0  0  0  0  0  0  0  0  0  0  0  0
    3.6550    2.3540    0.5200 C   0  0  0  0  0  0  0  0  0  0  0  0
    3.1600    1.1970    0.8830 C   0  0  0  0  0  0  0  0  0  0  0  0
    0.4370   -0.5420   -0.1920 C   0  0  0  0  0  0  0  0  0  0  0  0
  1  2  1  0
  2  3  1  0
  3  4  1  0
  4  5  2  0
  4  6  1  0
  6  7  2  0
  6 18  1  0
  7  8  1  0
  8  9  2  0
  9 10  1  0
  9 11  1  0
 11 12  1  0
 11 18  2  0
 12 13  1  0
 13 14  2  0
 13 17  1  0
 14 15  1  0
 15 16  1  0
 16 17  2  0
M  END
