
     RDKit          3D

 16 16  0  0  0  0  0  0  0  0999 V2000
    3.3590    0.7460    1.0860 C   0  0  0  0  0  0  0  0  0  0  0  0
    2.6090   -0.4270    0.4400 C   0  0  0  0  0  0  0  0  0  0  0  0
    2.2050   -0.0850   -0.9630 C   0  0  0  0  0  0  0  0  0  0  0  0
    1.1470    1.3170   -1.0490 S   0  0  1  0  0  0  0  0  0  0  0  0
    1.9170    2.4780   -0.4410 O   0  0  0  0  0  0  0  0  0  0  0  0
    0.7930    1.7420   -2.4290 O   0  0  0  0  0  0  0  0  0  0  0  0
   -0.3300    1.0850   -0.1660 N   0  0  0  0  0  0  0  0  0  0  0  0
   -1.2460    0.0490   -0.5090 C   0  0  0  0  0  0  0  0  0  0  0  0
   -1.0860   -0.5710   -1.7590 C   0  0  0  0  0  0  0  0  0  0  0  0
   -1.9550   -1.5660   -2.1440 C   0  0  0  0  0  0  0  0  0  0  0  0
   -2.9640   -1.9220   -1.2780 C   0  0  0  0  0  0  0  0  0  0  0  0
   -3.1190   -1.3160   -0.0570 C   0  0  0  0  0  0  0  0  0  0  0  0
   -2.2430   -0.2930    0.3640 C   0  0  0  0  0  0  0  0  0  0  0  0
   -2.4520    0.2930    1.6830 C   0  0  0  0  0  0  0  0  0  0  0  0
   -3.4300   -0.1160    2.4030 O   0  0  0  0  0  0  0  0  0  0  0  0
   -1.6900    1.2720    2.2680 O   0  0  0  0  0  0  0  0  0  0  0  0
  1  2  1  0
  2  3  1  0
  4  3  1  6
  4  5  2  0
  4  6  2  0
  4  7  1  0
  7  8  1  0
  8  9  2  0
  8 13  1  0
  9 10  1  0
 10 11  2  0
 11 12  1  0
 12 13  2  0
 13 14  1  0
 14 15  2  0
 14 16  1  0
M  END
