
     RDKit          3D

 18 18  0  0  0  0  0  0  0  0999 V2000
   -5.8400   -0.2800    2.6890 C   0  0  0  0  0  0  0  0  0  0  0  0
   -4.4510    0.1720    2.4260 C   0  0  0  0  0  0  0  0  0  0  0  0
   -3.7100   -0.4820    1.5650 C   0  0  0  0  0  0  0  0  0  0  0  0
   -2.3410   -0.0970    1.2550 C   0  0  0  0  0  0  0  0  0  0  0  0
   -1.8160    1.1090    1.9420 C   0  0  0  0  0  0  0  0  0  0  0  0
   -1.6570   -0.7860    0.3870 C   0  0  0  0  0  0  0  0  0  0  0  0
   -0.2810   -0.5290   -0.0210 C   0  0  0  0  0  0  0  0  0  0  0  0
   -0.0080   -0.4210   -1.3910 C   0  0  0  0  0  0  0  0  0  0  0  0
    1.2700   -0.1990   -1.8700 C   0  0  0  0  0  0  0  0  0  0  0  0
    1.5740   -0.0870   -3.2200 O   0  0  0  0  0  0  0  0  0  0  0  0
    0.6760   -0.1750   -4.2760 C   0  0  0  0  0  0  0  0  0  0  0  0
    2.2810   -0.0870   -0.9340 C   0  0  0  0  0  0  0  0  0  0  0  0
    3.6780    0.1650   -1.3840 C   0  0  0  0  0  0  0  0  0  0  0  0
    4.5220    0.2320   -0.2740 O   0  0  0  0  0  0  0  0  0  0  0  0
    5.8400    0.4890   -0.6560 C   0  0  0  0  0  0  0  0  0  0  0  0
    2.0100   -0.1940    0.4120 C   0  0  0  0  0  0  0  0  0  0  0  0
    0.7330   -0.4170    0.9010 C   0  0  0  0  0  0  0  0  0  0  0  0
    0.4930   -0.5250    2.2730 O   0  0  0  0  0  0  0  0  0  0  0  0
  1  2  1  0
  2  3  2  3
  3  4  1  0
  4  5  1  0
  4  6  2  3
  6  7  1  0
  7  8  2  0
  7 17  1  0
  8  9  1  0
  9 10  1  0
  9 12  2  0
 10 11  1  0
 12 13  1  0
 12 16  1  0
 13 14  1  0
 14 15  1  0
 16 17  2  0
 17 18  1  0
M  END
