
     RDKit          3D

 18 19  0  0  0  0  0  0  0  0999 V2000
    3.7890    0.8660   -1.6170 C   0  0  0  0  0  0  0  0  0  0  0  0
    4.4440   -0.2690   -0.9350 C   0  0  0  0  0  0  0  0  0  0  0  0
    5.5350   -0.7330   -1.3220 O   0  0  0  0  0  0  0  0  0  0  0  0
    3.7860   -0.8730    0.2410 C   0  0  0  0  0  0  0  0  0  0  0  0
    2.6350   -0.4050    0.6730 C   0  0  0  0  0  0  0  0  0  0  0  0
    2.0010   -0.9990    1.8180 C   0  0  0  0  0  0  0  0  0  0  0  0
    0.8570   -0.5440    2.2580 C   0  0  0  0  0  0  0  0  0  0  0  0
    0.1810   -1.1440    3.4450 C   0  0  0  0  0  0  0  0  0  0  0  0
    0.2820    0.5330    1.5740 O   0  0  0  0  0  0  0  0  0  0  0  0
   -0.7670    0.2440    0.6780 C   0  0  0  0  0  0  0  0  0  0  0  0
   -1.2020   -1.0520    0.4900 C   0  0  0  0  0  0  0  0  0  0  0  0
   -2.2280   -1.3390   -0.3860 C   0  0  0  0  0  0  0  0  0  0  0  0
   -2.8620   -0.3310   -1.1120 C   0  0  0  0  0  0  0  0  0  0  0  0
   -2.4100    0.9560   -0.9070 C   0  0  0  0  0  0  0  0  0  0  0  0
   -1.3850    1.2440   -0.0320 C   0  0  0  0  0  0  0  0  0  0  0  0
   -3.2610    1.8160   -1.8050 C   0  0  0  0  0  0  0  0  0  0  0  0
   -4.5050    0.9560   -1.8990 C   0  0  0  0  0  0  0  0  0  0  0  0
   -3.9040   -0.3260   -2.0480 O   0  0  0  0  0  0  0  0  0  0  0  0
  1  2  1  0
  2  3  2  0
  2  4  1  0
  4  5  2  3
  5  6  1  0
  6  7  2  3
  7  8  1  0
  7  9  1  0
  9 10  1  0
 10 11  2  0
 10 15  1  0
 11 12  1  0
 12 13  2  0
 13 14  1  0
 13 18  1  0
 14 15  2  0
 14 16  1  0
 16 17  1  0
 17 18  1  0
M  END
