
     RDKit          3D

 17 18  0  0  0  0  0  0  0  0999 V2000
   -5.2880    1.2070    1.6240 O   0  0  0  0  0  0  0  0  0  0  0  0
   -3.9000    1.1260    1.6550 C   0  0  0  0  0  0  0  0  0  0  0  0
   -3.3910    0.4090    0.4360 C   0  0  0  0  0  0  0  0  0  0  0  0
   -1.9870    0.3260    0.4660 O   0  0  0  0  0  0  0  0  0  0  0  0
   -1.3350   -0.3020   -0.5780 C   0  0  0  0  0  0  0  0  0  0  0  0
   -2.0540   -0.8350   -1.6250 C   0  0  0  0  0  0  0  0  0  0  0  0
   -1.4050   -1.4600   -2.6620 C   0  0  0  0  0  0  0  0  0  0  0  0
   -0.0270   -1.5500   -2.6480 C   0  0  0  0  0  0  0  0  0  0  0  0
    0.6790   -1.0090   -1.5890 C   0  0  0  0  0  0  0  0  0  0  0  0
    0.0630   -0.3760   -0.5320 C   0  0  0  0  0  0  0  0  0  0  0  0
    0.7420    0.1700    0.5340 O   0  0  0  0  0  0  0  0  0  0  0  0
    2.0960    0.1640    0.6940 C   0  0  0  0  0  0  0  0  0  0  0  0
    2.8240   -0.8060    1.3270 C   0  0  0  0  0  0  0  0  0  0  0  0
    4.1970   -0.7480    1.4530 C   0  0  0  0  0  0  0  0  0  0  0  0
    4.8800    0.3270    0.9240 C   0  0  0  0  0  0  0  0  0  0  0  0
    4.1800    1.3330    0.2740 C   0  0  0  0  0  0  0  0  0  0  0  0
    2.8070    1.2430    0.1650 C   0  0  0  0  0  0  0  0  0  0  0  0
  1  2  1  0
  2  3  1  0
  3  4  1  0
  4  5  1  0
  5  6  2  0
  5 10  1  0
  6  7  1  0
  7  8  2  0
  8  9  1  0
  9 10  2  0
 10 11  1  0
 11 12  1  0
 12 13  2  0
 12 17  1  0
 13 14  1  0
 14 15  2  0
 15 16  1  0
 16 17  2  0
M  END
