
     RDKit          3D

 18 19  0  0  0  0  0  0  0  0999 V2000
   -1.9540    3.7700    0.1320 C   0  0  0  0  0  0  0  0  0  0  0  0
   -0.8300    3.6520   -0.8630 C   0  0  0  0  0  0  0  0  0  0  0  0
    0.0320    2.6230   -0.5000 O   0  0  0  0  0  0  0  0  0  0  0  0
   -0.2670    1.2970   -0.3560 C   0  0  0  0  0  0  0  0  0  0  0  0
   -1.5320    0.7680   -0.5620 C   0  0  0  0  0  0  0  0  0  0  0  0
   -1.8120   -0.5830   -0.4090 C   0  0  0  0  0  0  0  0  0  0  0  0
   -3.2010   -1.0790   -0.6490 C   0  0  0  0  0  0  0  0  0  0  0  0
   -3.9160   -1.3670    0.6490 C   0  0  0  0  0  0  0  0  0  0  0  0
   -0.8080   -1.4190   -0.0440 C   0  0  0  0  0  0  0  0  0  0  0  0
   -1.0440   -2.8790    0.1370 C   0  0  0  0  0  0  0  0  0  0  0  0
    0.4600   -0.9190    0.1680 C   0  0  0  0  0  0  0  0  0  0  0  0
    1.5940   -1.5150    0.5250 O   0  0  0  0  0  0  0  0  0  0  0  0
    2.5680   -0.6220    0.6060 C   0  0  0  0  0  0  0  0  0  0  0  0
    3.9690   -0.9340    0.9790 C   0  0  0  0  0  0  0  0  0  0  0  0
    4.7130   -1.2520   -0.3030 C   0  0  0  0  0  0  0  0  0  0  0  0
    6.0510   -1.5590   -0.0390 O   0  0  0  0  0  0  0  0  0  0  0  0
    2.0820    0.6250    0.2940 C   0  0  0  0  0  0  0  0  0  0  0  0
    0.7470    0.4350    0.0170 C   0  0  0  0  0  0  0  0  0  0  0  0
  1  2  1  0
  2  3  1  0
  3  4  1  0
  4  5  2  0
  4 18  1  0
  5  6  1  0
  6  7  1  0
  6  9  2  0
  7  8  1  0
  9 10  1  0
  9 11  1  0
 11 12  1  0
 11 18  2  0
 12 13  1  0
 13 14  1  0
 13 17  2  0
 14 15  1  0
 15 16  1  0
 17 18  1  0
M  END
