
     RDKit          3D

 18 19  0  0  0  0  0  0  0  0999 V2000
   -4.5390    1.6970    0.2940 C   0  0  0  0  0  0  0  0  0  0  0  0
   -3.4460    1.3480    1.2750 C   0  0  0  0  0  0  0  0  0  0  0  0
   -2.3170    0.6210    0.6140 C   0  0  0  0  0  0  0  0  0  0  0  0
   -1.1310    1.2180    0.3190 C   0  0  0  0  0  0  0  0  0  0  0  0
   -0.0690    0.5230   -0.3060 C   0  0  0  0  0  0  0  0  0  0  0  0
    1.0550    1.1610   -0.5670 O   0  0  0  0  0  0  0  0  0  0  0  0
    2.2770    1.2310   -1.0170 C   0  0  0  0  0  0  0  0  0  0  0  0
    3.3840    0.4490   -0.3890 C   0  0  0  0  0  0  0  0  0  0  0  0
    4.4240    1.1240    0.1310 C   0  0  0  0  0  0  0  0  0  0  0  0
    5.5800    0.4730    0.7780 C   0  0  0  0  0  0  0  0  0  0  0  0
    5.5430   -0.9250    0.7850 O   0  0  0  0  0  0  0  0  0  0  0  0
    4.4980   -1.6290    0.2630 C   0  0  0  0  0  0  0  0  0  0  0  0
    3.4670   -0.9860   -0.2970 C   0  0  0  0  0  0  0  0  0  0  0  0
   -0.2890   -0.8020   -0.6090 C   0  0  0  0  0  0  0  0  0  0  0  0
   -1.4910   -1.4030   -0.3090 C   0  0  0  0  0  0  0  0  0  0  0  0
   -2.5070   -0.7050    0.3000 C   0  0  0  0  0  0  0  0  0  0  0  0
   -3.7280   -1.2990    0.6100 O   0  0  0  0  0  0  0  0  0  0  0  0
   -3.9340   -2.6730    0.2870 C   0  0  0  0  0  0  0  0  0  0  0  0
  1  2  1  0
  2  3  1  0
  3  4  2  0
  3 16  1  0
  4  5  1  0
  5  6  1  0
  5 14  2  0
  6  7  1  0
  7  8  1  0
  8  9  2  0
  8 13  1  0
  9 10  1  0
 10 11  1  0
 11 12  1  0
 12 13  2  0
 14 15  1  0
 15 16  2  0
 16 17  1  0
 17 18  1  0
M  END
