
     RDKit          3D

 17 19  0  0  0  0  0  0  0  0999 V2000
    1.8600   -2.4130   -0.2360 C   0  0  0  0  0  0  0  0  0  0  0  0
    1.5730   -1.3590    0.7420 N   0  0  0  0  0  0  0  0  0  0  0  0
    1.3160   -0.0420    0.2740 C   0  0  0  0  0  0  0  0  0  0  0  0
    2.2290    0.9790    0.0470 C   0  0  0  0  0  0  0  0  0  0  0  0
    3.6880    0.8740    0.2630 C   0  0  0  0  0  0  0  0  0  0  0  0
    1.5970    2.1160   -0.4090 C   0  0  0  0  0  0  0  0  0  0  0  0
    0.2420    1.8720   -0.4960 C   0  0  0  0  0  0  0  0  0  0  0  0
   -0.8180    2.6080   -0.8730 N   0  0  0  0  0  0  0  0  0  0  0  0
   -2.0490    2.0930   -0.8540 C   0  0  0  0  0  0  0  0  0  0  0  0
   -2.2220    0.7870   -0.4410 C   0  0  0  0  0  0  0  0  0  0  0  0
   -1.1970   -0.0400   -0.0380 C   0  0  0  0  0  0  0  0  0  0  0  0
    0.0820    0.4820   -0.0530 C   0  0  0  0  0  0  0  0  0  0  0  0
   -1.4840   -1.4040    0.3750 C   0  0  0  0  0  0  0  0  0  0  0  0
   -2.8540   -1.5150    0.9920 C   0  0  0  0  0  0  0  0  0  0  0  0
   -3.7960   -1.0820    0.0030 O   0  0  0  0  0  0  0  0  0  0  0  0
   -3.5850    0.2460   -0.4220 C   0  0  0  0  0  0  0  0  0  0  0  0
   -4.5120    0.9990   -0.7900 O   0  0  0  0  0  0  0  0  0  0  0  0
  1  2  1  0
  2  3  1  0
  3  4  2  0
  3 12  1  0
  4  5  1  0
  4  6  1  0
  6  7  2  0
  7  8  1  0
  7 12  1  0
  8  9  1  0
  9 10  2  0
 10 11  1  0
 10 16  1  0
 11 12  2  0
 11 13  1  0
 13 14  1  0
 14 15  1  0
 15 16  1  0
 16 17  2  0
M  END
