
     RDKit          3D

 17 16  0  0  0  0  0  0  0  0999 V2000
   -3.4140   -1.6710    0.1980 C   0  0  0  0  0  0  0  0  0  0  0  0
   -2.7730   -0.6180   -0.6530 C   0  0  1  0  0  0  0  0  0  0  0  0
   -3.5770    0.5640   -1.0060 C   0  0  0  0  0  0  0  0  0  0  0  0
   -4.0860    1.4390    0.0720 C   0  0  0  0  0  0  0  0  0  0  0  0
   -4.9820    0.7700    0.9720 N   0  0  0  0  0  0  0  0  0  0  0  0
   -1.5710   -0.2610    0.0690 O   0  0  0  0  0  0  0  0  0  0  0  0
   -0.3270   -0.5530   -0.4540 C   0  0  0  0  0  0  0  0  0  0  0  0
   -0.3220   -1.1350   -1.5720 O   0  0  0  0  0  0  0  0  0  0  0  0
    0.9480   -0.2200    0.2240 C   0  0  0  0  0  0  0  0  0  0  0  0
    2.0640   -0.6360   -0.5420 O   0  0  0  0  0  0  0  0  0  0  0  0
    3.3680   -0.4440   -0.1330 C   0  0  0  0  0  0  0  0  0  0  0  0
    3.5340    0.1300    0.9750 O   0  0  0  0  0  0  0  0  0  0  0  0
    4.5370   -0.8850   -0.9450 C   0  0  0  0  0  0  0  0  0  0  0  0
    5.7530   -0.5610   -0.3040 O   0  0  0  0  0  0  0  0  0  0  0  0
    6.0470    0.7650   -0.0330 C   0  0  0  0  0  0  0  0  0  0  0  0
    7.2640    1.1170    0.6120 N   0  0  0  0  0  0  0  0  0  0  0  0
    5.2090    1.6360   -0.3740 O   0  0  0  0  0  0  0  0  0  0  0  0
  2  1  1  1
  2  3  1  0
  2  6  1  0
  3  4  1  0
  4  5  1  0
  6  7  1  0
  7  8  2  0
  7  9  1  0
  9 10  1  0
 10 11  1  0
 11 12  2  0
 11 13  1  0
 13 14  1  0
 14 15  1  0
 15 16  1  0
 15 17  2  0
M  CHG  1   5   1
M  END
