
     RDKit          3D

 17 16  0  0  0  0  0  0  0  0999 V2000
   -1.0600    0.7850   -0.9150 C   0  0  0  0  0  0  0  0  0  0  0  0
   -1.6040    0.1390    0.3050 C   0  0  1  0  0  0  0  0  0  0  0  0
   -1.9010   -1.3150   -0.0760 C   0  0  0  0  0  0  0  0  0  0  0  0
   -0.7400    0.2710    1.3250 O   0  0  0  0  0  0  0  0  0  0  0  0
    0.4790   -0.2170    1.3950 C   0  0  0  0  0  0  0  0  0  0  0  0
    1.5390    0.1580    0.4240 C   0  0  0  0  0  0  0  0  0  0  0  0
    2.7140   -0.5800    0.8470 O   0  0  0  0  0  0  0  0  0  0  0  0
    3.9060   -0.4670    0.1570 C   0  0  0  0  0  0  0  0  0  0  0  0
    3.9270    0.2950   -0.8440 O   0  0  0  0  0  0  0  0  0  0  0  0
    5.0900   -1.1670    0.5270 N   0  0  0  0  0  0  0  0  0  0  0  0
    6.3130   -1.0460   -0.1890 C   0  0  0  0  0  0  0  0  0  0  0  0
    6.3360   -0.2850   -1.1900 O   0  0  0  0  0  0  0  0  0  0  0  0
    7.4670   -1.7250    0.1680 O   0  0  0  0  0  0  0  0  0  0  0  0
   -2.9130    0.6900    0.8180 C   0  0  1  0  0  0  0  0  0  0  0  0
   -2.8620    2.0340    1.1730 O   0  0  0  0  0  0  0  0  0  0  0  0
   -4.1320    0.4170    0.0480 C   0  0  0  0  0  0  0  0  0  0  0  0
   -4.2970    1.1630   -1.1820 N   0  0  0  0  0  0  0  0  0  0  0  0
  2  1  1  6
  2  3  1  0
  2  4  1  0
  2 14  1  0
  4  5  1  0
  5  6  1  0
  6  7  1  0
  7  8  1  0
  8  9  2  0
  8 10  1  0
 10 11  1  0
 11 12  2  0
 11 13  1  0
 14 15  1  6
 14 16  1  0
 16 17  1  0
M  CHG  1  17   1
M  END
