
     RDKit          3D

 15 15  0  0  0  0  0  0  0  0999 V2000
   -1.3060   -0.8980   -1.8720 C   0  0  0  0  0  0  0  0  0  0  0  0
   -0.6640   -1.3130   -0.5530 C   0  0  2  0  0  0  0  0  0  0  0  0
   -1.6930   -1.9380    0.3410 C   0  0  0  0  0  0  0  0  0  0  0  0
   -2.4960   -0.8940    1.0930 C   0  0  0  0  0  0  0  0  0  0  0  0
   -1.6090    0.0820    1.7990 C   0  0  0  0  0  0  0  0  0  0  0  0
   -0.5720    0.7070    0.9150 C   0  0  2  0  0  0  0  0  0  0  0  0
   -1.1470    1.8710    0.1970 C   0  0  0  0  0  0  0  0  0  0  0  0
   -1.7930    2.7630    0.7990 O   0  0  0  0  0  0  0  0  0  0  0  0
   -0.9800    1.9980   -1.1670 O   0  0  0  0  0  0  0  0  0  0  0  0
    0.0730   -0.2490    0.0720 N   0  0  0  0  0  0  0  0  0  0  0  0
    1.4980   -0.1650   -0.1750 C   0  0  0  0  0  0  0  0  0  0  0  0
    2.0040   -1.0250   -0.9180 O   0  0  0  0  0  0  0  0  0  0  0  0
    2.3100    0.8990    0.4320 C   0  0  0  0  0  0  0  0  0  0  0  0
    3.7480    0.7420   -0.0180 C   0  0  0  0  0  0  0  0  0  0  0  0
    3.8470    0.8620   -1.8090 S   0  0  0  0  0  0  0  0  0  0  0  0
  2  1  1  6
  2  3  1  0
  2 10  1  0
  3  4  1  0
  4  5  1  0
  5  6  1  0
  6  7  1  6
  6 10  1  0
  7  8  2  0
  7  9  1  0
 10 11  1  0
 11 12  2  0
 11 13  1  0
 13 14  1  0
 14 15  1  0
M  END
