
     RDKit          3D

 17 19  0  0  0  0  0  0  0  0999 V2000
    5.2060    0.2270   -0.1010 C   0  0  0  0  0  0  0  0  0  0  0  0
    3.7710   -0.0940    0.0230 C   0  0  0  0  0  0  0  0  0  0  0  0
    3.2270   -1.2450    0.4040 N   0  0  0  0  0  0  0  0  0  0  0  0
    1.8840   -1.1660    0.3970 C   0  0  0  0  0  0  0  0  0  0  0  0
    0.8440   -2.0260    0.6900 C   0  0  0  0  0  0  0  0  0  0  0  0
    1.1100   -3.2030    1.0680 O   0  0  0  0  0  0  0  0  0  0  0  0
   -0.4440   -1.6380    0.5820 N   0  0  0  0  0  0  0  0  0  0  0  0
   -0.8020   -0.4050    0.1870 C   0  0  0  0  0  0  0  0  0  0  0  0
   -2.2000   -0.0010    0.0750 C   0  0  0  0  0  0  0  0  0  0  0  0
   -3.2240   -0.7950    0.3470 C   0  0  0  0  0  0  0  0  0  0  0  0
   -4.4990   -0.0630    0.1270 C   0  0  0  0  0  0  0  0  0  0  0  0
   -4.0660    0.9920   -0.8970 C   0  0  0  0  0  0  0  0  0  0  0  0
   -2.6760    1.3380   -0.3530 C   0  0  0  0  0  0  0  0  0  0  0  0
    0.2060    0.4770   -0.1130 C   0  0  0  0  0  0  0  0  0  0  0  0
    1.5390    0.1050   -0.0110 C   0  0  0  0  0  0  0  0  0  0  0  0
    2.7190    0.7670   -0.2420 C   0  0  0  0  0  0  0  0  0  0  0  0
    2.8220    2.0710   -0.6660 O   0  0  0  0  0  0  0  0  0  0  0  0
  1  2  1  0
  2  3  1  0
  2 16  2  0
  3  4  1  0
  4  5  1  0
  4 15  2  0
  5  6  2  0
  5  7  1  0
  7  8  1  0
  8  9  1  0
  8 14  2  0
  9 10  2  0
  9 13  1  0
 10 11  1  0
 11 12  1  0
 12 13  1  0
 14 15  1  0
 15 16  1  0
 16 17  1  0
M  END
