
     RDKit          3D

 17 16  0  0  0  0  0  0  0  0999 V2000
   -4.8710   -0.0960    0.8410 C   0  0  0  0  0  0  0  0  0  0  0  0
   -4.1620   -0.2710   -0.5000 C   0  0  1  0  0  0  0  0  0  0  0  0
   -3.6870    0.9830   -0.9640 N   0  0  0  0  0  0  0  0  0  0  0  0
   -3.2580   -1.4390   -0.5200 C   0  0  0  0  0  0  0  0  0  0  0  0
   -2.1970   -1.4990    0.4310 N   0  0  0  0  0  0  0  0  0  0  0  0
   -1.1080   -0.6360    0.5760 C   0  0  0  0  0  0  0  0  0  0  0  0
   -0.9750    0.3320   -0.1940 O   0  0  0  0  0  0  0  0  0  0  0  0
   -0.0680   -0.8320    1.6490 C   0  0  0  0  0  0  0  0  0  0  0  0
    0.8840    0.1670    1.5220 O   0  0  0  0  0  0  0  0  0  0  0  0
    1.6620    0.3350    0.3730 C   0  0  0  0  0  0  0  0  0  0  0  0
    1.4940   -0.4450   -0.5700 O   0  0  0  0  0  0  0  0  0  0  0  0
    2.5790    1.3280    0.2970 O   0  0  0  0  0  0  0  0  0  0  0  0
    3.4270    1.6270   -0.7500 C   0  0  0  0  0  0  0  0  0  0  0  0
    4.4440    0.5750   -1.1010 C   0  0  2  0  0  0  0  0  0  0  0  0
    3.8390   -0.6040   -1.4840 O   0  0  0  0  0  0  0  0  0  0  0  0
    5.3760    0.3570    0.0790 C   0  0  0  0  0  0  0  0  0  0  0  0
    4.6440   -0.1380    1.1470 O   0  0  0  0  0  0  0  0  0  0  0  0
  2  1  1  1
  2  3  1  0
  2  4  1  0
  4  5  1  0
  5  6  1  0
  6  7  2  0
  6  8  1  0
  8  9  1  0
  9 10  1  0
 10 11  2  0
 10 12  1  0
 12 13  1  0
 13 14  1  0
 14 15  1  1
 14 16  1  0
 16 17  1  0
M  CHG  1   3   1
M  END
