
     RDKit          3D

 14 15  0  0  0  0  0  0  0  0999 V2000
    3.2640   -2.2770   -0.0360 C   0  0  0  0  0  0  0  0  0  0  0  0
    2.7210   -1.2120    0.7360 O   0  0  0  0  0  0  0  0  0  0  0  0
    1.4240   -0.7240    0.4610 C   0  0  0  0  0  0  0  0  0  0  0  0
    0.5080   -1.6260    0.2870 C   0  0  0  0  0  0  0  0  0  0  0  0
   -0.8440   -1.2020    0.0020 C   0  0  0  0  0  0  0  0  0  0  0  0
   -1.0840    0.0720   -0.0680 C   0  0  0  0  0  0  0  0  0  0  0  0
   -2.5590    0.1860   -0.3740 C   0  0  0  0  0  0  0  0  0  0  0  0
   -2.9000   -1.0070   -0.9680 O   0  0  0  0  0  0  0  0  0  0  0  0
   -2.1300   -1.9210   -0.2520 C   0  0  0  0  0  0  0  0  0  0  0  0
   -0.1100    1.1740    0.1150 C   0  0  1  0  0  0  0  0  0  0  0  0
   -0.6810    2.0600    0.9870 O   0  0  0  0  0  0  0  0  0  0  0  0
   -1.0660    3.2650    0.5050 C   0  0  0  0  0  0  0  0  0  0  0  0
    1.2660    0.7470    0.4050 C   0  0  2  0  0  0  0  0  0  0  0  0
    2.1780    1.1500   -0.6070 O   0  0  0  0  0  0  0  0  0  0  0  0
  1  2  1  0
  2  3  1  0
  3  4  2  0
  3 13  1  0
  4  5  1  0
  5  6  2  0
  5  9  1  0
  6  7  1  0
  6 10  1  0
  7  8  1  0
  8  9  1  0
 10 11  1  1
 10 13  1  0
 11 12  1  0
 13 14  1  6
M  END
