
     RDKit          3D

 14 15  0  0  0  0  0  0  0  0999 V2000
   -1.0610   -1.9960    1.6760 C   0  0  0  0  0  0  0  0  0  0  0  0
   -1.6940   -1.3370    0.5020 C   0  0  2  0  0  0  0  0  0  0  0  0
   -1.5530   -1.9670   -0.7010 O   0  0  0  0  0  0  0  0  0  0  0  0
   -0.3090   -2.0300   -1.2510 C   0  0  0  0  0  0  0  0  0  0  0  0
    0.6410   -0.9860   -0.8480 C   0  0  0  0  0  0  0  0  0  0  0  0
    0.2800    0.0430   -0.0650 C   0  0  0  0  0  0  0  0  0  0  0  0
    1.1940    0.9850    0.2820 O   0  0  0  0  0  0  0  0  0  0  0  0
    2.4300    1.1640   -0.3380 C   0  0  0  0  0  0  0  0  0  0  0  0
    2.9170   -0.0740   -1.0520 C   0  0  0  0  0  0  0  0  0  0  0  0
    1.9420   -1.0390   -1.2690 O   0  0  0  0  0  0  0  0  0  0  0  0
   -1.0980    0.0480    0.3470 C   0  0  0  0  0  0  0  0  0  0  0  0
   -1.7820    1.1180    0.5840 C   0  0  0  0  0  0  0  0  0  0  0  0
   -1.4780    2.5360    0.5160 C   0  0  0  0  0  0  0  0  0  0  0  0
   -0.2400    2.9340    0.1310 O   0  0  0  0  0  0  0  0  0  0  0  0
  2  1  1  1
  2  3  1  0
  2 11  1  0
  3  4  1  0
  4  5  1  0
  5  6  2  0
  5 10  1  0
  6  7  1  0
  6 11  1  0
  7  8  1  0
  8  9  1  0
  9 10  1  0
 11 12  2  3
 12 13  1  0
 13 14  1  0
M  END
