
     RDKit          3D

 14 15  0  0  0  0  0  0  0  0999 V2000
    4.2550    0.6300   -0.1560 O   0  0  0  0  0  0  0  0  0  0  0  0
    3.3580   -0.1760    0.5460 C   0  0  2  0  0  0  0  0  0  0  0  0
    3.0510   -1.4470   -0.1740 C   0  0  0  0  0  0  0  0  0  0  0  0
    1.7560   -1.4620   -0.8790 C   0  0  0  0  0  0  0  0  0  0  0  0
    0.7110   -0.7950   -0.3930 C   0  0  0  0  0  0  0  0  0  0  0  0
   -0.5690   -0.8190   -1.1040 C   0  0  0  0  0  0  0  0  0  0  0  0
   -1.6350   -0.1730   -0.6620 C   0  0  0  0  0  0  0  0  0  0  0  0
   -1.5960    0.6220    0.5890 C   0  0  0  0  0  0  0  0  0  0  0  0
   -2.7520    1.2610    0.9190 O   0  0  0  0  0  0  0  0  0  0  0  0
   -3.9070    0.8200    0.3420 C   0  0  0  0  0  0  0  0  0  0  0  0
   -3.7850    0.7300   -1.1780 C   0  0  0  0  0  0  0  0  0  0  0  0
   -2.8030   -0.2610   -1.4130 O   0  0  0  0  0  0  0  0  0  0  0  0
    0.9280   -0.1060    0.7880 O   0  0  0  0  0  0  0  0  0  0  0  0
    2.1350    0.6210    0.9120 C   0  0  0  0  0  0  0  0  0  0  0  0
  2  1  1  6
  2  3  1  0
  2 14  1  0
  3  4  1  0
  4  5  2  0
  5  6  1  0
  5 13  1  0
  6  7  2  3
  7  8  1  0
  7 12  1  0
  8  9  1  0
  9 10  1  0
 10 11  1  0
 11 12  1  0
 13 14  1  0
M  END
