
     RDKit          3D

 14 15  0  0  0  0  0  0  0  0999 V2000
    2.6490   -1.7120   -0.6810 C   0  0  0  0  0  0  0  0  0  0  0  0
    1.3920   -1.1520   -0.3480 O   0  0  0  0  0  0  0  0  0  0  0  0
    1.3400    0.2020   -0.0760 C   0  0  0  0  0  0  0  0  0  0  0  0
    2.4230    0.9370    0.0300 C   0  0  0  0  0  0  0  0  0  0  0  0
    2.3630    2.2890    0.3010 O   0  0  0  0  0  0  0  0  0  0  0  0
    1.1470    2.9670    0.4810 C   0  0  0  0  0  0  0  0  0  0  0  0
   -0.0260    2.0850    0.3490 C   0  0  0  0  0  0  0  0  0  0  0  0
    0.0190    0.7860    0.0890 C   0  0  0  0  0  0  0  0  0  0  0  0
   -1.2220    0.0620   -0.0110 C   0  0  2  0  0  0  0  0  0  0  0  0
   -2.3330    0.9180    0.1580 O   0  0  0  0  0  0  0  0  0  0  0  0
   -1.4230   -1.0720    0.9420 C   0  0  0  0  0  0  0  0  0  0  0  0
   -2.5940   -1.7570    0.2600 C   0  0  0  0  0  0  0  0  0  0  0  0
   -2.6120   -1.3770   -1.0520 O   0  0  0  0  0  0  0  0  0  0  0  0
   -1.4650   -0.6480   -1.3260 C   0  0  0  0  0  0  0  0  0  0  0  0
  1  2  1  0
  2  3  1  0
  3  4  2  0
  3  8  1  0
  4  5  1  0
  5  6  1  0
  6  7  1  0
  7  8  2  0
  8  9  1  0
  9 10  1  1
  9 11  1  0
  9 14  1  0
 11 12  1  0
 12 13  1  0
 13 14  1  0
M  END
