
     RDKit          3D

 14 15  0  0  0  0  0  0  0  0999 V2000
    0.0690    1.1120    1.4240 C   0  0  0  0  0  0  0  0  0  0  0  0
   -0.0050    0.5710    0.0450 C   0  0  2  0  0  0  0  0  0  0  0  0
   -0.0490    1.6090   -1.0240 C   0  0  0  0  0  0  0  0  0  0  0  0
   -1.1540   -0.4390   -0.1200 C   0  0  2  0  0  0  0  0  0  0  0  0
   -2.4820    0.1220    0.0350 C   0  0  0  0  0  0  0  0  0  0  0  0
   -0.7410   -1.5120    0.8350 C   0  0  0  0  0  0  0  0  0  0  0  0
    0.7950   -1.4690    0.8480 C   0  0  0  0  0  0  0  0  0  0  0  0
    1.0870   -0.4720   -0.2430 C   0  0  2  0  0  0  0  0  0  0  0  0
    2.4220    0.0560   -0.2840 C   0  0  0  0  0  0  0  0  0  0  0  0
    3.0530    0.5550    0.6780 O   0  0  0  0  0  0  0  0  0  0  0  0
    3.1210    0.0280   -1.5080 O   0  0  0  0  0  0  0  0  0  0  0  0
    0.6040   -0.9800   -1.4730 O   0  0  0  0  0  0  0  0  0  0  0  0
   -0.8070   -0.9180   -1.4940 C   0  0  0  0  0  0  0  0  0  0  0  0
   -1.5610   -1.1990   -2.4420 O   0  0  0  0  0  0  0  0  0  0  0  0
  2  1  1  1
  2  3  1  0
  2  4  1  0
  2  8  1  0
  4  5  1  6
  4  6  1  0
  4 13  1  0
  6  7  1  0
  7  8  1  0
  8  9  1  6
  8 12  1  0
  9 10  2  0
  9 11  1  0
 12 13  1  0
 13 14  2  0
M  END
