
     RDKit          3D

 14 15  0  0  0  0  0  0  0  0999 V2000
   -1.8790    1.0880    1.1860 C   0  0  0  0  0  0  0  0  0  0  0  0
   -1.3620    0.1760    0.0750 C   0  0  1  0  0  0  0  0  0  0  0  0
   -2.4270    0.2190   -1.0190 C   0  0  0  0  0  0  0  0  0  0  0  0
   -3.6410   -0.1940   -0.5140 O   0  0  0  0  0  0  0  0  0  0  0  0
   -0.0760    0.7050   -0.4710 C   0  0  0  0  0  0  0  0  0  0  0  0
    1.1350   -0.0210   -0.0050 C   0  0  2  0  0  0  0  0  0  0  0  0
    0.9670   -1.4890   -0.3140 C   0  0  0  0  0  0  0  0  0  0  0  0
   -0.4890   -1.8800   -0.3310 C   0  0  0  0  0  0  0  0  0  0  0  0
   -1.2270   -1.1020    0.5590 O   0  0  0  0  0  0  0  0  0  0  0  0
    1.4970    0.2050    1.4240 C   0  0  0  0  0  0  0  0  0  0  0  0
    2.9320    0.1690    1.4710 O   0  0  0  0  0  0  0  0  0  0  0  0
    3.3990    0.7010    0.2760 C   0  0  0  0  0  0  0  0  0  0  0  0
    4.5070    1.2160    0.0750 O   0  0  0  0  0  0  0  0  0  0  0  0
    2.3390    0.5520   -0.7430 C   0  0  0  0  0  0  0  0  0  0  0  0
  2  1  1  1
  2  3  1  0
  2  5  1  0
  2  9  1  0
  3  4  1  0
  6  5  1  6
  6  7  1  0
  6 10  1  0
  6 14  1  0
  7  8  1  0
  8  9  1  0
 10 11  1  0
 11 12  1  0
 12 13  2  0
 12 14  1  0
M  END
