
     RDKit          3D

 14 15  0  0  0  0  0  0  0  0999 V2000
    3.6520    1.4810   -0.1160 C   0  0  0  0  0  0  0  0  0  0  0  0
    2.8340    0.4960    0.2190 C   0  0  0  0  0  0  0  0  0  0  0  0
    3.3650   -0.8820    0.2260 C   0  0  0  0  0  0  0  0  0  0  0  0
    2.3280   -1.8160    0.3830 O   0  0  0  0  0  0  0  0  0  0  0  0
    1.2610   -1.3370   -0.3890 C   0  0  0  0  0  0  0  0  0  0  0  0
    0.5770   -0.2700    0.4010 C   0  0  2  0  0  0  0  0  0  0  0  0
   -0.7010    0.2140   -0.2440 C   0  0  1  0  0  0  0  0  0  0  0  0
   -0.4510    0.7370   -1.4950 O   0  0  0  0  0  0  0  0  0  0  0  0
   -1.6470   -0.9690   -0.2940 C   0  0  0  0  0  0  0  0  0  0  0  0
   -3.1010   -0.5030   -0.2960 C   0  0  0  0  0  0  0  0  0  0  0  0
   -3.3480    0.2670    0.9710 C   0  0  0  0  0  0  0  0  0  0  0  0
   -2.1600    0.6510    1.5840 O   0  0  0  0  0  0  0  0  0  0  0  0
   -1.3680    1.2730    0.6090 C   0  0  0  0  0  0  0  0  0  0  0  0
    1.5140    0.8030    0.5470 O   0  0  0  0  0  0  0  0  0  0  0  0
  1  2  2  0
  2  3  1  0
  2 14  1  0
  3  4  1  0
  4  5  1  0
  6  5  1  6
  6  7  1  0
  6 14  1  0
  7  8  1  6
  7  9  1  0
  7 13  1  0
  9 10  1  0
 10 11  1  0
 11 12  1  0
 12 13  1  0
M  END
