
     RDKit          3D

 10  9  0  0  0  0  0  0  0  0999 V2000
    2.2720   -0.4770   -0.7530 N   0  0  0  0  0  0  0  0  0  0  0  0
    1.6500   -0.2990    0.5410 C   0  0  0  0  0  0  0  0  0  0  0  0
    0.4690    0.6090    0.5050 C   0  0  2  0  0  0  0  0  0  0  0  0
   -0.0350    0.6960    1.8120 O   0  0  0  0  0  0  0  0  0  0  0  0
   -0.5890    0.2480   -0.4800 C   0  0  2  0  0  0  0  0  0  0  0  0
   -1.6920    1.3090   -0.3430 C   0  0  0  0  0  0  0  0  0  0  0  0
   -1.1480    2.5720   -0.6240 O   0  0  0  0  0  0  0  0  0  0  0  0
   -1.2490   -1.0740   -0.2380 C   0  0  2  0  0  0  0  0  0  0  0  0
   -1.8790   -1.1440    1.0030 O   0  0  0  0  0  0  0  0  0  0  0  0
   -0.4090   -2.1620   -0.4570 O   0  0  0  0  0  0  0  0  0  0  0  0
  1  2  1  0
  2  3  1  0
  3  4  1  1
  3  5  1  0
  5  6  1  1
  5  8  1  0
  6  7  1  0
  8  9  1  1
  8 10  1  0
M  CHG  1   1   1
M  END
