
     RDKit          3D

  9  8  0  0  0  0  0  0  0  0999 V2000
   -2.2220    0.9820    0.4690 N   0  0  0  0  0  0  0  0  0  0  0  0
   -1.0220    0.6080   -0.3570 C   0  0  2  0  0  0  0  0  0  0  0  0
   -1.4120   -0.7680   -0.7800 C   0  0  0  0  0  0  0  0  0  0  0  0
   -0.5860   -1.4680   -1.5790 O   0  0  0  0  0  0  0  0  0  0  0  0
    0.1100    0.7580    0.5630 C   0  0  0  0  0  0  0  0  0  0  0  0
    1.4920    0.5130    0.1880 C   0  0  2  0  0  0  0  0  0  0  0  0
    1.9430    1.3370   -0.8730 O   0  0  0  0  0  0  0  0  0  0  0  0
    2.0360   -0.8390    0.0020 C   0  0  0  0  0  0  0  0  0  0  0  0
    1.5910   -1.7100    1.0150 O   0  0  0  0  0  0  0  0  0  0  0  0
  2  1  1  1
  2  3  1  0
  2  5  1  0
  3  4  1  0
  5  6  1  0
  6  7  1  6
  6  8  1  0
  8  9  1  0
M  CHG  1   1   1
M  END
