
     RDKit          3D

 26 27  0  0  0  0  0  0  0  0999 V2000
   -5.0700    0.1000    4.1920 C   0  0  0  0  0  0  0  0  0  0  0  0
   -5.1540   -0.8190    3.0850 N   0  0  0  0  0  0  0  0  0  0  0  0
   -3.9600   -1.2120    2.4260 C   0  0  0  0  0  0  0  0  0  0  0  0
   -3.5390   -0.6710    1.3000 C   0  0  0  0  0  0  0  0  0  0  0  0
   -2.3060   -1.1220    0.6800 C   0  0  0  0  0  0  0  0  0  0  0  0
   -1.8800   -0.5700   -0.4650 C   0  0  0  0  0  0  0  0  0  0  0  0
   -0.6500   -1.1060   -0.9710 N   0  0  0  0  0  0  0  0  0  0  0  0
    0.5120   -0.3400   -1.1380 C   0  0  0  0  0  0  0  0  0  0  0  0
    0.3730    0.8960   -0.7890 O   0  0  0  0  0  0  0  0  0  0  0  0
    1.7700   -0.7260   -1.6180 N   0  0  0  0  0  0  0  0  0  0  0  0
    2.7620    0.4080   -1.6360 C   0  0  0  0  0  0  0  0  0  0  0  0
    3.4750    0.4530   -0.3550 C   0  0  0  0  0  0  0  0  0  0  0  0
    3.2010   -0.3850    0.5300 O   0  0  0  0  0  0  0  0  0  0  0  0
    4.4730    1.4290   -0.0980 N   0  0  0  0  0  0  0  0  0  0  0  0
    5.1770    1.4850    1.1470 C   0  0  0  0  0  0  0  0  0  0  0  0
    4.4980    1.6900    2.4480 C   0  0  0  0  0  0  0  0  0  0  0  0
    6.4840    1.3460    1.1230 C   0  0  0  0  0  0  0  0  0  0  0  0
    7.2120    1.1510   -0.0340 O   0  0  0  0  0  0  0  0  0  0  0  0
    2.2410   -1.9830   -2.0820 C   0  0  2  0  0  0  0  0  0  0  0  0
    1.4250   -2.9420   -2.8290 C   0  0  0  0  0  0  0  0  0  0  0  0
    1.8550   -3.2990   -1.4240 C   0  0  0  0  0  0  0  0  0  0  0  0
   -2.6290    0.4870   -1.1220 C   0  0  0  0  0  0  0  0  0  0  0  0
   -2.1390    1.0590   -2.3790 C   0  0  0  0  0  0  0  0  0  0  0  0
   -3.7490    0.9230   -0.5920 C   0  0  0  0  0  0  0  0  0  0  0  0
   -4.5480    1.9860   -1.2060 C   0  0  0  0  0  0  0  0  0  0  0  0
   -4.2640    0.3720    0.6400 N   0  0  0  0  0  0  0  0  0  0  0  0
  1  2  1  0
  2  3  1  0
  3  4  2  3
  4  5  1  0
  4 26  1  0
  5  6  2  0
  6  7  1  0
  6 22  1  0
  7  8  1  0
  8  9  2  0
  8 10  1  0
 10 11  1  0
 19 10  1  1
 11 12  1  0
 12 13  2  0
 12 14  1  0
 14 15  1  0
 15 16  1  0
 15 17  2  3
 17 18  1  0
 19 20  1  0
 19 21  1  0
 20 21  1  0
 22 23  1  0
 22 24  2  0
 24 25  1  0
 24 26  1  0
M  END
