
     RDKit          3D

 26 28  0  0  0  0  0  0  0  0999 V2000
    5.3320    1.2080    1.8880 C   0  0  0  0  0  0  0  0  0  0  0  0
    4.3180    0.2680    1.3530 C   0  0  0  0  0  0  0  0  0  0  0  0
    4.6850   -0.6380    0.4550 C   0  0  0  0  0  0  0  0  0  0  0  0
    6.0550   -0.8310   -0.1050 C   0  0  0  0  0  0  0  0  0  0  0  0
    5.9770   -2.1700   -0.6680 N   0  0  0  0  0  0  0  0  0  0  0  0
    4.6090   -2.5170   -0.8270 C   0  0  0  0  0  0  0  0  0  0  0  0
    3.8370   -1.6440   -0.1850 C   0  0  0  0  0  0  0  0  0  0  0  0
    2.4270   -1.6250   -0.0910 N   0  0  0  0  0  0  0  0  0  0  0  0
    1.6650   -0.4930   -0.5810 C   0  0  0  0  0  0  0  0  0  0  0  0
    2.3620    0.4160   -1.0690 O   0  0  0  0  0  0  0  0  0  0  0  0
    0.2500   -0.4960   -0.4760 N   0  0  0  0  0  0  0  0  0  0  0  0
   -0.5230    0.5800   -0.9570 C   0  0  0  0  0  0  0  0  0  0  0  0
   -0.0430    1.5490   -1.7940 C   0  0  0  0  0  0  0  0  0  0  0  0
   -0.8360    2.5640   -2.3100 C   0  0  0  0  0  0  0  0  0  0  0  0
   -0.3230    3.5350   -3.1560 O   0  0  0  0  0  0  0  0  0  0  0  0
   -1.1550    4.5460   -3.6580 C   0  0  0  0  0  0  0  0  0  0  0  0
   -2.1480    2.5910   -1.9650 C   0  0  0  0  0  0  0  0  0  0  0  0
   -2.6450    1.6060   -1.1110 C   0  0  0  0  0  0  0  0  0  0  0  0
   -1.8710    0.5960   -0.5930 C   0  0  0  0  0  0  0  0  0  0  0  0
   -2.3970   -0.3500    0.3190 N   0  0  0  0  0  0  0  0  0  0  0  0
   -3.7520   -0.5690    0.6400 C   0  0  0  0  0  0  0  0  0  0  0  0
   -4.6440    0.0870    0.1030 O   0  0  0  0  0  0  0  0  0  0  0  0
   -4.1680   -1.5490    1.5920 N   0  0  0  0  0  0  0  0  0  0  0  0
   -5.5700   -1.7480    1.8980 C   0  0  2  0  0  0  0  0  0  0  0  0
   -5.8460   -1.9330    3.3740 C   0  0  0  0  0  0  0  0  0  0  0  0
   -6.0470   -3.0760    2.3490 C   0  0  0  0  0  0  0  0  0  0  0  0
  1  2  1  0
  2  3  2  3
  3  4  1  0
  3  7  1  0
  4  5  1  0
  5  6  1  0
  6  7  2  0
  7  8  1  0
  8  9  1  0
  9 10  2  0
  9 11  1  0
 11 12  1  0
 12 13  2  0
 12 19  1  0
 13 14  1  0
 14 15  1  0
 14 17  2  0
 15 16  1  0
 17 18  1  0
 18 19  2  0
 19 20  1  0
 20 21  1  0
 21 22  2  0
 21 23  1  0
 24 23  1  1
 24 25  1  0
 24 26  1  0
 25 26  1  0
M  END
