
     RDKit          3D

  9  9  0  0  0  0  0  0  0  0999 V2000
    2.1900    0.3900   -0.5870 N   0  0  0  0  0  0  0  0  0  0  0  0
    1.4940   -0.2810    0.4570 C   0  0  2  0  0  0  0  0  0  0  0  0
    1.9970   -1.5770    0.5570 O   0  0  0  0  0  0  0  0  0  0  0  0
    0.0180   -0.3750    0.2700 C   0  0  2  0  0  0  0  0  0  0  0  0
   -0.3830   -1.0430   -0.8600 O   0  0  0  0  0  0  0  0  0  0  0  0
   -1.7820   -0.8850   -0.8000 C   0  0  0  0  0  0  0  0  0  0  0  0
   -2.0380    0.5100   -0.3220 C   0  0  0  0  0  0  0  0  0  0  0  0
   -0.6270    0.9870    0.0470 C   0  0  1  0  0  0  0  0  0  0  0  0
   -0.6210    1.6760    1.2410 O   0  0  0  0  0  0  0  0  0  0  0  0
  2  1  1  6
  2  3  1  0
  2  4  1  0
  4  5  1  6
  4  8  1  0
  5  6  1  0
  6  7  1  0
  7  8  1  0
  8  9  1  1
M  CHG  1   1   1
M  END
