
     RDKit          3D

 26 28  0  0  0  0  0  0  0  0999 V2000
    8.4620    1.7240    0.6060 N   0  0  0  0  0  0  0  0  0  0  0  0
    7.3440    1.6040   -0.2570 C   0  0  0  0  0  0  0  0  0  0  0  0
    7.1900    2.3730   -1.2650 O   0  0  0  0  0  0  0  0  0  0  0  0
    6.3380    0.5940   -0.0120 C   0  0  0  0  0  0  0  0  0  0  0  0
    6.3420   -0.3230    1.0300 C   0  0  0  0  0  0  0  0  0  0  0  0
    5.2230   -1.0770    0.8850 N   0  0  0  0  0  0  0  0  0  0  0  0
    4.5390   -0.6680   -0.1900 C   0  0  0  0  0  0  0  0  0  0  0  0
    3.2650   -1.1790   -0.7480 C   0  0  0  0  0  0  0  0  0  0  0  0
    2.1470   -0.4060   -0.1010 C   0  0  0  0  0  0  0  0  0  0  0  0
    0.8050   -0.8460   -0.5970 C   0  0  0  0  0  0  0  0  0  0  0  0
    0.7990   -1.7600   -1.4470 O   0  0  0  0  0  0  0  0  0  0  0  0
   -0.3930   -0.2810   -0.1500 N   0  0  0  0  0  0  0  0  0  0  0  0
   -1.6900   -0.6130   -0.5400 C   0  0  0  0  0  0  0  0  0  0  0  0
   -1.9840   -1.6330   -1.3820 C   0  0  0  0  0  0  0  0  0  0  0  0
   -3.2960   -1.9400   -1.7620 C   0  0  0  0  0  0  0  0  0  0  0  0
   -4.3340   -1.1860   -1.2680 C   0  0  0  0  0  0  0  0  0  0  0  0
   -4.0350   -0.1530   -0.4130 C   0  0  0  0  0  0  0  0  0  0  0  0
   -5.1070    0.6650    0.1480 C   0  0  0  0  0  0  0  0  0  0  0  0
   -5.0950    2.0380   -0.0020 C   0  0  0  0  0  0  0  0  0  0  0  0
   -6.1280    2.7770    0.5080 C   0  0  0  0  0  0  0  0  0  0  0  0
   -7.1480    2.1650    1.1510 N   0  0  0  0  0  0  0  0  0  0  0  0
   -7.1830    0.8420    1.3090 C   0  0  0  0  0  0  0  0  0  0  0  0
   -6.1420    0.0810    0.7970 C   0  0  0  0  0  0  0  0  0  0  0  0
   -6.2510   -1.2790    1.0060 O   0  0  0  0  0  0  0  0  0  0  0  0
   -2.7450    0.1540   -0.0370 C   0  0  0  0  0  0  0  0  0  0  0  0
    5.2370    0.3490   -0.7180 N   0  0  0  0  0  0  0  0  0  0  0  0
  1  2  1  0
  2  3  2  0
  2  4  1  0
  4  5  2  0
  4 26  1  0
  5  6  1  0
  6  7  1  0
  7  8  1  0
  7 26  2  0
  8  9  1  0
  9 10  1  0
 10 11  2  0
 10 12  1  0
 12 13  1  0
 13 14  2  0
 13 25  1  0
 14 15  1  0
 15 16  2  0
 16 17  1  0
 17 18  1  0
 17 25  2  0
 18 19  2  0
 18 23  1  0
 19 20  1  0
 20 21  2  0
 21 22  1  0
 22 23  2  0
 23 24  1  0
M  END
