
     RDKit          3D

 18 20  0  0  0  0  0  0  0  0999 V2000
   -1.4880   -3.2520    0.9850 O   0  0  0  0  0  0  0  0  0  0  0  0
   -1.2500   -2.0420    0.6840 C   0  0  0  0  0  0  0  0  0  0  0  0
   -0.0040   -1.6490    0.3020 C   0  0  0  0  0  0  0  0  0  0  0  0
    0.2340   -0.3380   -0.0200 C   0  0  0  0  0  0  0  0  0  0  0  0
    1.5490    0.1580   -0.4400 C   0  0  0  0  0  0  0  0  0  0  0  0
    2.6120   -0.7040   -0.5250 C   0  0  0  0  0  0  0  0  0  0  0  0
    3.8670   -0.2250   -0.9270 C   0  0  0  0  0  0  0  0  0  0  0  0
    4.0480    1.1070   -1.2390 C   0  0  0  0  0  0  0  0  0  0  0  0
    5.2670    1.6310   -1.6410 O   0  0  0  0  0  0  0  0  0  0  0  0
    2.9660    1.9890   -1.1530 C   0  0  0  0  0  0  0  0  0  0  0  0
    1.7530    1.4830   -0.7560 C   0  0  0  0  0  0  0  0  0  0  0  0
   -0.7760    0.5030    0.0560 O   0  0  0  0  0  0  0  0  0  0  0  0
   -1.9850    0.1750    0.4170 C   0  0  0  0  0  0  0  0  0  0  0  0
   -2.9720    1.1350    0.4640 C   0  0  0  0  0  0  0  0  0  0  0  0
   -4.2510    0.7460    0.8530 C   0  0  0  0  0  0  0  0  0  0  0  0
   -4.5630   -0.5540    1.1900 C   0  0  0  0  0  0  0  0  0  0  0  0
   -3.5670   -1.4960    1.1380 C   0  0  0  0  0  0  0  0  0  0  0  0
   -2.2870   -1.1320    0.7530 C   0  0  0  0  0  0  0  0  0  0  0  0
  1  2  2  0
  2  3  1  0
  2 18  1  0
  3  4  2  0
  4  5  1  0
  4 12  1  0
  5  6  2  0
  5 11  1  0
  6  7  1  0
  7  8  2  0
  8  9  1  0
  8 10  1  0
 10 11  2  0
 12 13  1  0
 13 14  2  0
 13 18  1  0
 14 15  1  0
 15 16  2  0
 16 17  1  0
 17 18  2  0
M  END
