
     RDKit          3D

 17 18  0  0  0  0  0  0  0  0999 V2000
    5.8100    1.5470   -0.9180 O   0  0  0  0  0  0  0  0  0  0  0  0
    4.6980    1.0750   -0.5760 C   0  0  0  0  0  0  0  0  0  0  0  0
    4.2860   -0.3080   -0.9890 C   0  0  0  0  0  0  0  0  0  0  0  0
    3.1660   -0.7540   -0.2060 N   0  0  0  0  0  0  0  0  0  0  0  0
    2.3380    0.0970    0.5750 C   0  0  0  0  0  0  0  0  0  0  0  0
    1.1210   -0.4050    1.1690 N   0  0  0  0  0  0  0  0  0  0  0  0
    0.0270   -0.1380    0.5530 C   0  0  0  0  0  0  0  0  0  0  0  0
   -1.2760   -0.5990    1.0660 C   0  0  0  0  0  0  0  0  0  0  0  0
   -1.4700   -1.3080    2.1680 C   0  0  0  0  0  0  0  0  0  0  0  0
   -2.8250   -1.5610    2.3380 O   0  0  0  0  0  0  0  0  0  0  0  0
   -3.5030   -0.9770    1.2860 N   0  0  0  0  0  0  0  0  0  0  0  0
   -2.5730   -0.3390    0.4260 C   0  0  0  0  0  0  0  0  0  0  0  0
   -2.7550    0.3350   -0.6850 C   0  0  0  0  0  0  0  0  0  0  0  0
   -4.0320    0.6030   -1.3350 C   0  0  0  0  0  0  0  0  0  0  0  0
   -5.1510    0.1050   -0.7320 O   0  0  0  0  0  0  0  0  0  0  0  0
    2.6810    1.3230    0.7510 N   0  0  0  0  0  0  0  0  0  0  0  0
    3.8330    1.8860    0.2160 N   0  0  0  0  0  0  0  0  0  0  0  0
  1  2  2  0
  2  3  1  0
  2 17  1  0
  3  4  1  0
  4  5  1  0
  5  6  1  0
  5 16  2  0
  6  7  2  3
  7  8  1  0
  8  9  2  0
  8 12  1  0
  9 10  1  0
 10 11  1  0
 11 12  1  0
 12 13  2  3
 13 14  1  0
 14 15  1  0
 16 17  1  0
M  END
