
     RDKit          3D

 18 20  0  0  0  0  0  0  0  0999 V2000
   -1.6920   -0.5320    3.2050 O   0  0  0  0  0  0  0  0  0  0  0  0
   -1.3190   -0.3320    2.0310 C   0  0  0  0  0  0  0  0  0  0  0  0
    0.0340   -0.2760    1.6710 C   0  0  0  0  0  0  0  0  0  0  0  0
    0.4450   -0.0550    0.3770 C   0  0  0  0  0  0  0  0  0  0  0  0
    1.8460    0.0080   -0.0250 C   0  0  0  0  0  0  0  0  0  0  0  0
    2.1590    0.2350   -1.3580 C   0  0  0  0  0  0  0  0  0  0  0  0
    3.4440    0.3120   -1.8370 C   0  0  0  0  0  0  0  0  0  0  0  0
    4.4800    0.1560   -0.9540 C   0  0  0  0  0  0  0  0  0  0  0  0
    6.2980    0.2470   -1.5280 Br  0  0  0  0  0  0  0  0  0  0  0  0
    4.2100   -0.0710    0.3750 C   0  0  0  0  0  0  0  0  0  0  0  0
    2.8960   -0.1460    0.8460 C   0  0  0  0  0  0  0  0  0  0  0  0
   -0.5140    0.1030   -0.5230 O   0  0  0  0  0  0  0  0  0  0  0  0
   -1.7940    0.0590   -0.2370 C   0  0  0  0  0  0  0  0  0  0  0  0
   -2.7380    0.2380   -1.2520 C   0  0  0  0  0  0  0  0  0  0  0  0
   -4.0780    0.1940   -0.9640 C   0  0  0  0  0  0  0  0  0  0  0  0
   -4.5590   -0.0220    0.3060 C   0  0  0  0  0  0  0  0  0  0  0  0
   -3.6150   -0.1960    1.2960 C   0  0  0  0  0  0  0  0  0  0  0  0
   -2.2600   -0.1580    1.0400 C   0  0  0  0  0  0  0  0  0  0  0  0
  1  2  2  0
  2  3  1  0
  2 18  1  0
  3  4  2  0
  4  5  1  0
  4 12  1  0
  5  6  2  0
  5 11  1  0
  6  7  1  0
  7  8  2  0
  8  9  1  0
  8 10  1  0
 10 11  2  0
 12 13  1  0
 13 14  2  0
 13 18  1  0
 14 15  1  0
 15 16  2  0
 16 17  1  0
 17 18  2  0
M  END
