
     RDKit          3D

 17 18  0  0  0  0  0  0  0  0999 V2000
   -2.7680   -0.1390   -0.7520 C   0  0  0  0  0  0  0  0  0  0  0  0
   -1.7970   -0.5330    0.3470 C   0  0  1  0  0  0  0  0  0  0  0  0
   -1.3810   -1.9420    0.2810 C   0  0  0  0  0  0  0  0  0  0  0  0
    0.0360   -2.1970    0.2330 N   0  0  0  0  0  0  0  0  0  0  0  0
    0.9620   -1.3420    0.2640 C   0  0  0  0  0  0  0  0  0  0  0  0
    2.2850   -1.8800    0.2010 N   0  0  0  0  0  0  0  0  0  0  0  0
    3.4520   -1.2190   -0.2950 C   0  0  0  0  0  0  0  0  0  0  0  0
    4.4790   -1.9210   -0.3920 O   0  0  0  0  0  0  0  0  0  0  0  0
    3.6050    0.1480   -0.6970 N   0  0  0  0  0  0  0  0  0  0  0  0
    2.7890    1.2570   -0.3090 C   0  0  0  0  0  0  0  0  0  0  0  0
    3.1930    2.3990   -0.5700 O   0  0  0  0  0  0  0  0  0  0  0  0
    1.5380    1.1820    0.3590 N   0  0  0  0  0  0  0  0  0  0  0  0
    0.6000    0.0850    0.3320 C   0  0  0  0  0  0  0  0  0  0  0  0
   -0.6540    0.4540    0.3560 C   0  0  0  0  0  0  0  0  0  0  0  0
   -1.0150    1.8560    0.2870 C   0  0  0  0  0  0  0  0  0  0  0  0
   -2.4090    2.2340    0.3780 N   0  0  0  0  0  0  0  0  0  0  0  0
   -0.2250    2.8060    0.1550 O   0  0  0  0  0  0  0  0  0  0  0  0
  2  1  1  6
  2  3  1  0
  2 14  1  0
  3  4  1  0
  4  5  2  0
  5  6  1  0
  5 13  1  0
  6  7  1  0
  7  8  2  0
  7  9  1  0
  9 10  1  0
 10 11  2  0
 10 12  1  0
 12 13  1  0
 13 14  2  0
 14 15  1  0
 15 16  1  0
 15 17  2  0
M  END
