
     RDKit          3D

 17 18  0  0  0  0  0  0  0  0999 V2000
   -2.0910    0.4030    1.7660 C   0  0  0  0  0  0  0  0  0  0  0  0
   -1.7420   -0.2200    0.3520 C   0  0  2  0  0  0  0  0  0  0  0  0
   -0.4390    0.1730    0.1100 C   0  0  0  0  0  0  0  0  0  0  0  0
    0.2040    0.7790    1.1210 O   0  0  0  0  0  0  0  0  0  0  0  0
    0.4280    0.1120   -0.9500 N   0  0  0  0  0  0  0  0  0  0  0  0
    1.7870    0.5140   -0.8450 C   0  0  0  0  0  0  0  0  0  0  0  0
    2.2770    1.2180   -1.7240 N   0  0  0  0  0  0  0  0  0  0  0  0
    3.6530    1.5480   -1.5440 C   0  0  0  0  0  0  0  0  0  0  0  0
    4.0470    0.5920   -0.4590 C   0  0  0  0  0  0  0  0  0  0  0  0
    2.9470    0.0260   -0.0410 C   0  0  0  0  0  0  0  0  0  0  0  0
    2.7730   -1.0790    0.8650 N   0  0  0  0  0  0  0  0  0  0  0  0
   -2.7230    0.4470   -0.5240 N   0  0  0  0  0  0  0  0  0  0  0  0
   -3.9160   -0.3150   -0.4500 C   0  0  0  0  0  0  0  0  0  0  0  0
   -5.0650    0.0930   -0.7930 O   0  0  0  0  0  0  0  0  0  0  0  0
   -3.5580   -1.5900    0.0640 N   0  0  0  0  0  0  0  0  0  0  0  0
   -2.1400   -1.6060    0.3120 C   0  0  0  0  0  0  0  0  0  0  0  0
   -1.5290   -2.7000    0.4360 O   0  0  0  0  0  0  0  0  0  0  0  0
  2  1  1  1
  2  3  1  0
  2 12  1  0
  2 16  1  0
  3  4  2  0
  3  5  1  0
  5  6  1  0
  6  7  2  0
  6 10  1  0
  7  8  1  0
  8  9  1  0
  9 10  2  0
 10 11  1  0
 12 13  1  0
 13 14  2  0
 13 15  1  0
 15 16  1  0
 16 17  2  0
M  END
