
     RDKit          3D

 17 19  0  0  0  0  0  0  0  0999 V2000
    5.6660   -1.7610   -0.4100 O   0  0  0  0  0  0  0  0  0  0  0  0
    4.5470   -1.1840   -0.3170 C   0  0  0  0  0  0  0  0  0  0  0  0
    3.3380   -1.5270   -0.9750 N   0  0  0  0  0  0  0  0  0  0  0  0
    2.2870   -0.5990   -0.5860 C   0  0  0  0  0  0  0  0  0  0  0  0
    1.0610   -0.5010   -0.8990 N   0  0  0  0  0  0  0  0  0  0  0  0
    0.1610    0.4810   -0.4170 C   0  0  1  0  0  0  0  0  0  0  0  0
   -1.0840   -0.0910    0.2200 C   0  0  2  0  0  0  0  0  0  0  0  0
   -1.8620   -0.9640   -0.7320 C   0  0  0  0  0  0  0  0  0  0  0  0
   -3.2710   -1.1940   -0.2980 C   0  0  0  0  0  0  0  0  0  0  0  0
   -3.5040   -0.6440    0.9610 O   0  0  0  0  0  0  0  0  0  0  0  0
   -3.3730    0.7440    0.8080 C   0  0  0  0  0  0  0  0  0  0  0  0
   -1.9020    1.0820    0.7080 C   0  0  0  0  0  0  0  0  0  0  0  0
    0.7020    1.4590    0.4780 N   0  0  0  0  0  0  0  0  0  0  0  0
    2.0640    1.3510    0.8520 C   0  0  0  0  0  0  0  0  0  0  0  0
    2.5480    2.1810    1.6590 O   0  0  0  0  0  0  0  0  0  0  0  0
    2.8790    0.3140    0.3210 N   0  0  0  0  0  0  0  0  0  0  0  0
    4.2260   -0.0480    0.4710 N   0  0  0  0  0  0  0  0  0  0  0  0
  1  2  2  0
  2  3  1  0
  2 17  1  0
  3  4  1  0
  4  5  2  0
  4 16  1  0
  5  6  1  0
  6  7  1  0
  6 13  1  1
  7  8  1  6
  7 12  1  0
  8  9  1  0
  9 10  1  0
 10 11  1  0
 11 12  1  0
 13 14  1  0
 14 15  2  0
 14 16  1  0
 16 17  1  0
M  END
