
     RDKit          3D

 16 17  0  0  0  0  0  0  0  0999 V2000
    4.9220    0.7030   -0.4820 C   0  0  0  0  0  0  0  0  0  0  0  0
    3.5650    0.8200   -0.9270 O   0  0  0  0  0  0  0  0  0  0  0  0
    2.5710    0.3020   -0.0400 C   0  0  0  0  0  0  0  0  0  0  0  0
    2.9030   -0.0910    1.1190 N   0  0  0  0  0  0  0  0  0  0  0  0
    2.0390   -0.6070    2.0540 N   0  0  0  0  0  0  0  0  0  0  0  0
    0.6590   -0.7060    1.6790 C   0  0  0  0  0  0  0  0  0  0  0  0
   -0.2940   -0.6730    2.4820 O   0  0  0  0  0  0  0  0  0  0  0  0
    0.4470   -0.8570    0.1870 C   0  0  1  0  0  0  0  0  0  0  0  0
   -0.9970   -0.8820   -0.0350 C   0  0  0  0  0  0  0  0  0  0  0  0
   -1.5380   -1.9040   -0.5890 N   0  0  0  0  0  0  0  0  0  0  0  0
   -1.8800    0.1740    0.3260 N   0  0  0  0  0  0  0  0  0  0  0  0
   -3.2340    0.2960   -0.0900 C   0  0  1  0  0  0  0  0  0  0  0  0
   -4.2760   -0.6990    0.1990 C   0  0  0  0  0  0  0  0  0  0  0  0
   -4.2480    0.5880    1.0240 C   0  0  0  0  0  0  0  0  0  0  0  0
    1.1690    0.2410   -0.4990 C   0  0  1  0  0  0  0  0  0  0  0  0
    0.5670    1.5230   -0.0910 N   0  0  0  0  0  0  0  0  0  0  0  0
  1  2  1  0
  2  3  1  0
  3  4  2  0
  3 15  1  0
  4  5  1  0
  5  6  1  0
  6  7  2  0
  6  8  1  0
  8  9  1  1
  8 15  1  0
  9 10  2  0
  9 11  1  0
 12 11  1  1
 12 13  1  0
 12 14  1  0
 13 14  1  0
 15 16  1  1
M  END
