
     RDKit          3D

 20 21  0  0  0  0  0  0  0  0999 V2000
    5.9930    1.0660   -1.6530 C   0  0  0  0  0  0  0  0  0  0  0  0
    4.5420    0.7260   -1.4020 C   0  0  0  0  0  0  0  0  0  0  0  0
    3.7560    0.7460   -2.3690 O   0  0  0  0  0  0  0  0  0  0  0  0
    4.0850    0.3960   -0.1240 N   0  0  0  0  0  0  0  0  0  0  0  0
    2.7620    0.0590    0.2480 C   0  0  0  0  0  0  0  0  0  0  0  0
    1.6800   -0.0050   -0.5850 C   0  0  0  0  0  0  0  0  0  0  0  0
    0.3930   -0.3430   -0.1680 C   0  0  0  0  0  0  0  0  0  0  0  0
   -0.6590   -0.3980   -1.1060 N   0  0  0  0  0  0  0  0  0  0  0  0
   -2.0240   -0.4660   -0.7340 C   0  0  0  0  0  0  0  0  0  0  0  0
   -2.8950   -1.3820   -1.4290 N   0  0  0  0  0  0  0  0  0  0  0  0
   -2.4500    0.2900    0.1900 N   0  0  0  0  0  0  0  0  0  0  0  0
   -3.8060    0.2810    0.6220 C   0  0  0  0  0  0  0  0  0  0  0  0
   -4.5710   -0.7800    0.8110 C   0  0  0  0  0  0  0  0  0  0  0  0
   -5.8720   -0.2950    1.2520 C   0  0  0  0  0  0  0  0  0  0  0  0
   -5.7430    1.0060    1.3630 C   0  0  0  0  0  0  0  0  0  0  0  0
   -4.5880    1.4700    0.9350 C   0  0  0  0  0  0  0  0  0  0  0  0
    0.1810   -0.6300    1.1420 C   0  0  0  0  0  0  0  0  0  0  0  0
    1.2460   -0.5800    2.0320 C   0  0  0  0  0  0  0  0  0  0  0  0
    2.4930   -0.2460    1.5930 C   0  0  0  0  0  0  0  0  0  0  0  0
    3.5080   -0.2060    2.4850 F   0  0  0  0  0  0  0  0  0  0  0  0
  1  2  1  0
  2  3  2  0
  2  4  1  0
  4  5  1  0
  5  6  2  0
  5 19  1  0
  6  7  1  0
  7  8  1  0
  7 17  2  0
  8  9  1  0
  9 10  1  0
  9 11  2  3
 11 12  1  0
 12 13  2  0
 12 16  1  0
 13 14  1  0
 14 15  2  0
 15 16  2  0
 17 18  1  0
 18 19  2  0
 19 20  1  0
M  CHG  1  11   1
M  END
