
     RDKit          3D

 20 22  0  0  0  0  0  0  0  0999 V2000
   -4.9810    0.5550    2.0400 C   0  0  0  0  0  0  0  0  0  0  0  0
   -3.5500    0.4660    1.8270 N   0  0  0  0  0  0  0  0  0  0  0  0
   -3.1030    0.1960    0.5050 C   0  0  0  0  0  0  0  0  0  0  0  0
   -3.9700    0.0210   -0.5510 C   0  0  0  0  0  0  0  0  0  0  0  0
   -3.5360   -0.2420   -1.8340 C   0  0  0  0  0  0  0  0  0  0  0  0
   -2.1830   -0.3320   -2.0660 C   0  0  0  0  0  0  0  0  0  0  0  0
   -1.3240   -0.1560   -1.0070 C   0  0  0  0  0  0  0  0  0  0  0  0
    0.1210   -0.2390   -1.1820 C   0  0  0  0  0  0  0  0  0  0  0  0
    0.5760   -0.5070   -2.4940 N   0  0  0  0  0  0  0  0  0  0  0  0
    0.9340   -0.0710   -0.1740 C   0  0  0  0  0  0  0  0  0  0  0  0
    2.4000   -0.1320   -0.2350 C   0  0  0  0  0  0  0  0  0  0  0  0
    3.1810   -0.3500   -1.2290 N   0  0  0  0  0  0  0  0  0  0  0  0
    4.5620   -0.3170   -0.8140 C   0  0  0  0  0  0  0  0  0  0  0  0
    4.5210   -0.0390    0.6140 C   0  0  0  0  0  0  0  0  0  0  0  0
    5.2930    0.1400    1.6780 O   0  0  0  0  0  0  0  0  0  0  0  0
    4.5440    0.3640    2.7070 C   0  0  0  0  0  0  0  0  0  0  0  0
    3.2080    0.3390    2.3450 C   0  0  0  0  0  0  0  0  0  0  0  0
    2.1050    0.5180    3.0830 F   0  0  0  0  0  0  0  0  0  0  0  0
    3.2140    0.0770    0.9920 C   0  0  0  0  0  0  0  0  0  0  0  0
   -1.7960    0.1010    0.2430 N   0  0  0  0  0  0  0  0  0  0  0  0
  1  2  1  0
  2  3  1  0
  3  4  2  0
  3 20  1  0
  4  5  1  0
  5  6  2  0
  6  7  1  0
  7  8  1  0
  7 20  2  0
  8  9  1  0
  8 10  2  3
 10 11  1  0
 11 12  2  0
 11 19  1  0
 12 13  1  0
 13 14  1  0
 14 15  1  0
 14 19  2  0
 15 16  1  0
 16 17  2  0
 17 18  1  0
 17 19  1  0
M  CHG  1  12   1
M  END
