
     RDKit          3D

 10  9  0  0  0  0  0  0  0  0999 V2000
    4.6160   -0.5400    0.8000 C   0  0  0  0  0  0  0  0  0  0  0  0
    3.1850   -0.9260    0.8840 C   0  0  0  0  0  0  0  0  0  0  0  0
    2.2710   -0.3140    0.1820 C   0  0  0  0  0  0  0  0  0  0  0  0
    2.6900    0.8090   -0.7320 C   0  0  0  0  0  0  0  0  0  0  0  0
    0.8580   -0.6500    0.2260 C   0  0  0  0  0  0  0  0  0  0  0  0
   -0.0380   -0.0330   -0.4770 C   0  0  0  0  0  0  0  0  0  0  0  0
   -1.4770   -0.3080   -0.4920 C   0  0  0  0  0  0  0  0  0  0  0  0
   -2.2550    0.9270   -0.0540 C   0  0  0  0  0  0  0  0  0  0  0  0
   -3.7410    0.6720   -0.0600 C   0  0  0  0  0  0  0  0  0  0  0  0
   -4.1650   -0.4280    0.8470 C   0  0  0  0  0  0  0  0  0  0  0  0
  1  2  1  0
  2  3  2  3
  3  4  1  0
  3  5  1  0
  5  6  2  3
  6  7  1  0
  7  8  1  0
  8  9  1  0
  9 10  1  0
M  END
