
     RDKit          3D

 10  9  0  0  0  0  0  0  0  0999 V2000
    2.8430   -1.0600    0.3840 C   0  0  0  0  0  0  0  0  0  0  0  0
    2.7570    0.2560   -0.2750 C   0  0  0  0  0  0  0  0  0  0  0  0
    3.9510    1.1190   -0.3360 C   0  0  0  0  0  0  0  0  0  0  0  0
    1.6250    0.6520   -0.8020 C   0  0  0  0  0  0  0  0  0  0  0  0
    0.3690   -0.1600   -0.7830 C   0  0  0  0  0  0  0  0  0  0  0  0
   -0.6750    0.6450   -0.0440 C   0  0  0  0  0  0  0  0  0  0  0  0
   -1.9970   -0.0620    0.0480 C   0  0  2  0  0  0  0  0  0  0  0  0
   -2.9440    0.8530    0.8080 C   0  0  0  0  0  0  0  0  0  0  0  0
   -1.9300   -1.3590    0.7920 C   0  0  0  0  0  0  0  0  0  0  0  0
   -2.5970   -0.3410   -1.3130 C   0  0  0  0  0  0  0  0  0  0  0  0
  1  2  1  0
  2  3  1  0
  2  4  2  3
  4  5  1  0
  5  6  1  0
  6  7  1  0
  7  8  1  1
  7  9  1  0
  7 10  1  0
M  END
