
     RDKit          3D

 19 21  0  0  0  0  0  0  0  0999 V2000
   -5.2650   -0.1630   -1.3860 C   0  0  0  0  0  0  0  0  0  0  0  0
   -4.1920    0.1630   -0.4130 C   0  0  0  0  0  0  0  0  0  0  0  0
   -4.1360   -0.5030    0.7940 C   0  0  0  0  0  0  0  0  0  0  0  0
   -3.1660   -0.2430    1.7330 C   0  0  0  0  0  0  0  0  0  0  0  0
   -2.1730    0.7280    1.5040 C   0  0  0  0  0  0  0  0  0  0  0  0
   -1.1680    0.9960    2.5650 C   0  0  0  0  0  0  0  0  0  0  0  0
    0.1680   -0.1650    2.6570 S   0  0  0  0  0  0  0  0  0  0  0  0
    1.3220   -0.0250    1.3260 C   0  0  0  0  0  0  0  0  0  0  0  0
    2.2630   -1.0060    1.1500 N   0  0  0  0  0  0  0  0  0  0  0  0
    3.1630   -0.9890    0.1470 C   0  0  0  0  0  0  0  0  0  0  0  0
    3.1360    0.0570   -0.7380 C   0  0  0  0  0  0  0  0  0  0  0  0
    2.1790    1.0730   -0.5750 C   0  0  0  0  0  0  0  0  0  0  0  0
    2.1700    2.0310   -1.4020 O   0  0  0  0  0  0  0  0  0  0  0  0
    1.3160    0.9880    0.4480 N   0  0  0  0  0  0  0  0  0  0  0  0
    4.1860   -0.0950   -1.7570 C   0  0  0  0  0  0  0  0  0  0  0  0
    4.8190   -1.4200   -1.4650 C   0  0  0  0  0  0  0  0  0  0  0  0
    4.2540   -1.9640   -0.2030 C   0  0  0  0  0  0  0  0  0  0  0  0
   -2.2290    1.3880    0.3080 C   0  0  0  0  0  0  0  0  0  0  0  0
   -3.2270    1.1090   -0.6410 C   0  0  0  0  0  0  0  0  0  0  0  0
  1  2  1  0
  2  3  2  0
  2 19  1  0
  3  4  1  0
  4  5  2  0
  5  6  1  0
  5 18  1  0
  6  7  1  0
  7  8  1  0
  8  9  2  0
  8 14  1  0
  9 10  1  0
 10 11  2  0
 10 17  1  0
 11 12  1  0
 11 15  1  0
 12 13  2  0
 12 14  1  0
 15 16  1  0
 16 17  1  0
 18 19  2  0
M  END
