
     RDKit          3D

 10 10  0  0  0  0  0  0  0  0999 V2000
    3.8990   -0.8720   -0.4660 C   0  0  0  0  0  0  0  0  0  0  0  0
    2.9260   -0.2850    0.5560 C   0  0  0  0  0  0  0  0  0  0  0  0
    1.5440   -0.3010   -0.0370 C   0  0  0  0  0  0  0  0  0  0  0  0
    0.8700    0.8160   -0.2010 C   0  0  0  0  0  0  0  0  0  0  0  0
   -0.4960    0.8390   -0.7840 C   0  0  2  0  0  0  0  0  0  0  0  0
   -1.3370    1.6150    0.1920 C   0  0  0  0  0  0  0  0  0  0  0  0
   -2.6830    0.9980    0.2850 C   0  0  0  0  0  0  0  0  0  0  0  0
   -2.6500   -0.4480    0.7240 C   0  0  0  0  0  0  0  0  0  0  0  0
   -1.7030   -1.2700   -0.1110 C   0  0  0  0  0  0  0  0  0  0  0  0
   -1.0060   -0.4870   -1.1680 C   0  0  0  0  0  0  0  0  0  0  0  0
  1  2  1  0
  2  3  1  0
  3  4  2  3
  5  4  1  1
  5  6  1  0
  5 10  1  0
  6  7  1  0
  7  8  1  0
  8  9  1  0
  9 10  1  0
M  END
