
     RDKit          3D

 46 51  0  0  0  0  0  0  0  0999 V2000
   10.7350   -3.4560    1.3480 C   0  0  0  0  0  0  0  0  0  0  0  0
   10.9250   -2.0300    1.4420 C   0  0  0  0  0  0  0  0  0  0  0  0
   10.4280   -0.9710    0.9160 C   0  0  0  0  0  0  0  0  0  0  0  0
   11.1910    0.5870    1.5400 S   0  0  0  0  0  0  0  0  0  0  0  0
   10.2790    1.8980    0.7980 C   0  0  0  0  0  0  0  0  0  0  0  0
    9.3110    1.7180   -0.0830 C   0  0  0  0  0  0  0  0  0  0  0  0
    8.6890    2.9760   -0.5730 C   0  0  0  0  0  0  0  0  0  0  0  0
    7.4630    3.3900    0.1600 C   0  0  0  0  0  0  0  0  0  0  0  0
    6.3240    2.5060    0.2040 C   0  0  0  0  0  0  0  0  0  0  0  0
    6.2630    1.5220    1.0140 O   0  0  0  0  0  0  0  0  0  0  0  0
    5.1920    2.6340   -0.6220 O   0  0  0  0  0  0  0  0  0  0  0  0
    4.1100    1.7780   -0.5760 C   0  0  0  0  0  0  0  0  0  0  0  0
    3.1650    1.9390    0.4090 C   0  0  0  0  0  0  0  0  0  0  0  0
    2.0600    1.1340    0.5260 C   0  0  0  0  0  0  0  0  0  0  0  0
    1.8630    0.0960   -0.3860 C   0  0  0  0  0  0  0  0  0  0  0  0
    2.7940   -0.0780   -1.3720 C   0  0  0  0  0  0  0  0  0  0  0  0
    3.9100    0.7580   -1.4650 C   0  0  0  0  0  0  0  0  0  0  0  0
    2.4230   -1.1490   -2.1690 O   0  0  0  0  0  0  0  0  0  0  0  0
    1.2950   -1.8050   -1.6540 C   0  0  0  0  0  0  0  0  0  0  0  0
    0.8160   -0.9230   -0.5490 C   0  0  2  0  0  0  0  0  0  0  0  0
   -0.4540   -0.3030   -0.9450 N   0  0  0  0  0  0  0  0  0  0  0  0
   -1.6140   -0.5750   -0.1870 C   0  0  0  0  0  0  0  0  0  0  0  0
   -1.5150   -1.3480    0.7900 O   0  0  0  0  0  0  0  0  0  0  0  0
   -2.8760   -0.0210   -0.4750 N   0  0  0  0  0  0  0  0  0  0  0  0
   -4.0930   -0.2870    0.2910 C   0  0  2  0  0  0  0  0  0  0  0  0
   -5.2720   -0.5460   -0.6150 C   0  0  0  0  0  0  0  0  0  0  0  0
   -5.9820    0.7820   -0.7950 C   0  0  1  0  0  0  0  0  0  0  0  0
   -7.3100    0.7710   -0.1440 C   0  0  0  0  0  0  0  0  0  0  0  0
   -7.4940    1.4450    0.8870 O   0  0  0  0  0  0  0  0  0  0  0  0
   -8.3950    0.0410   -0.6200 O   0  0  0  0  0  0  0  0  0  0  0  0
   -9.6530    0.0520    0.0280 C   0  0  1  0  0  0  0  0  0  0  0  0
  -10.6540    0.7690   -0.8640 C   0  0  0  0  0  0  0  0  0  0  0  0
  -11.9290    1.0190   -0.1330 C   0  0  0  0  0  0  0  0  0  0  0  0
  -12.0030    0.2800    1.1660 C   0  0  0  0  0  0  0  0  0  0  0  0
  -11.4990   -1.1310    1.0970 C   0  0  0  0  0  0  0  0  0  0  0  0
  -10.1730   -1.2860    0.4140 C   0  0  2  0  0  0  0  0  0  0  0  0
   -9.2300   -1.9990    1.3590 C   0  0  0  0  0  0  0  0  0  0  0  0
   -5.1550    1.6800   -0.0750 O   0  0  0  0  0  0  0  0  0  0  0  0
   -4.5410    0.9950    0.9650 C   0  0  0  0  0  0  0  0  0  0  0  0
   -4.3820    1.3270    2.1730 O   0  0  0  0  0  0  0  0  0  0  0  0
    8.8730    0.4010   -0.5150 C   0  0  0  0  0  0  0  0  0  0  0  0
    7.8800    0.3550   -1.5010 C   0  0  0  0  0  0  0  0  0  0  0  0
    7.3960   -0.8300   -2.0270 C   0  0  0  0  0  0  0  0  0  0  0  0
    7.8940   -2.0090   -1.5810 C   0  0  0  0  0  0  0  0  0  0  0  0
    8.8780   -1.9720   -0.6080 C   0  0  0  0  0  0  0  0  0  0  0  0
    9.3780   -0.7980   -0.0680 C   0  0  0  0  0  0  0  0  0  0  0  0
  1  2  1  0
  2  3  2  3
  3  4  1  0
  3 46  1  0
  4  5  1  0
  5  6  2  0
  6  7  1  0
  6 41  1  0
  7  8  1  0
  8  9  1  0
  9 10  2  0
  9 11  1  0
 11 12  1  0
 12 13  2  0
 12 17  1  0
 13 14  1  0
 14 15  2  0
 15 16  1  0
 15 20  1  0
 16 17  2  0
 16 18  1  0
 18 19  1  0
 19 20  1  0
 20 21  1  6
 21 22  1  0
 22 23  2  0
 22 24  1  0
 25 24  1  6
 25 26  1  0
 25 39  1  0
 26 27  1  0
 27 28  1  1
 27 38  1  0
 28 29  2  0
 28 30  1  0
 31 30  1  6
 31 32  1  0
 31 36  1  0
 32 33  1  0
 33 34  1  0
 34 35  1  0
 35 36  1  0
 36 37  1  1
 38 39  1  0
 39 40  2  0
 41 42  2  0
 41 46  1  0
 42 43  1  0
 43 44  2  0
 44 45  1  0
 45 46  2  0
M  END
