
     RDKit          3D

 46 51  0  0  0  0  0  0  0  0999 V2000
   -8.6470   -1.8960   -1.0680 C   0  0  0  0  0  0  0  0  0  0  0  0
   -7.7180   -0.9890   -1.8050 C   0  0  0  0  0  0  0  0  0  0  0  0
   -7.8910    0.3750   -1.6140 O   0  0  0  0  0  0  0  0  0  0  0  0
   -7.7900    0.9770   -0.2930 C   0  0  0  0  0  0  0  0  0  0  0  0
   -8.9540    1.1340    0.3980 C   0  0  0  0  0  0  0  0  0  0  0  0
  -10.3490    0.8900    0.1540 C   0  0  0  0  0  0  0  0  0  0  0  0
  -10.7620    0.4400   -0.9100 O   0  0  0  0  0  0  0  0  0  0  0  0
  -11.3250    1.1600    1.1360 O   0  0  0  0  0  0  0  0  0  0  0  0
  -12.6940    0.9070    0.8590 C   0  0  0  0  0  0  0  0  0  0  0  0
   -8.3690    1.8960    1.9570 S   0  0  0  0  0  0  0  0  0  0  0  0
   -6.6400    1.9290    1.5330 C   0  0  0  0  0  0  0  0  0  0  0  0
   -6.6430    1.3650    0.2530 C   0  0  0  0  0  0  0  0  0  0  0  0
   -5.2370    1.2910   -0.3160 C   0  0  0  0  0  0  0  0  0  0  0  0
   -4.3000    0.6950    0.6780 C   0  0  1  0  0  0  0  0  0  0  0  0
   -2.9290    0.7610    0.0610 C   0  0  0  0  0  0  0  0  0  0  0  0
   -2.7370    1.2080   -1.1080 O   0  0  0  0  0  0  0  0  0  0  0  0
   -1.7760    0.3200    0.7660 N   0  0  0  0  0  0  0  0  0  0  0  0
   -0.4530    0.4010    0.1310 C   0  0  1  0  0  0  0  0  0  0  0  0
    0.3380    1.4790    0.8430 C   0  0  0  0  0  0  0  0  0  0  0  0
    1.1730    0.8180    1.9000 C   0  0  0  0  0  0  0  0  0  0  0  0
    2.2530    0.0120    1.2130 C   0  0  2  0  0  0  0  0  0  0  0  0
    2.8760    0.6770    0.1700 O   0  0  0  0  0  0  0  0  0  0  0  0
    4.2360    0.8860    0.0020 C   0  0  0  0  0  0  0  0  0  0  0  0
    4.9710    0.4160    0.9040 O   0  0  0  0  0  0  0  0  0  0  0  0
    4.8290    1.6000   -1.1320 C   0  0  0  0  0  0  0  0  0  0  0  0
    6.3310    1.6330   -0.9600 C   0  0  0  0  0  0  0  0  0  0  0  0
    6.9320    0.2740   -0.9090 C   0  0  0  0  0  0  0  0  0  0  0  0
    6.2410   -0.7500   -1.0870 O   0  0  0  0  0  0  0  0  0  0  0  0
    8.3210    0.1870   -0.6520 N   0  0  0  0  0  0  0  0  0  0  0  0
    9.1600    1.3810   -0.4910 C   0  0  0  0  0  0  0  0  0  0  0  0
   10.5130    1.2250   -1.1030 C   0  0  0  0  0  0  0  0  0  0  0  0
   10.8070   -0.0570   -1.5920 O   0  0  0  0  0  0  0  0  0  0  0  0
   10.2570   -1.1990   -1.0350 C   0  0  0  0  0  0  0  0  0  0  0  0
   10.9060   -2.4140   -0.9450 C   0  0  0  0  0  0  0  0  0  0  0  0
   10.2300   -3.4500   -0.3690 C   0  0  0  0  0  0  0  0  0  0  0  0
    8.9240   -3.3410    0.1300 C   0  0  0  0  0  0  0  0  0  0  0  0
    8.2880   -2.1300    0.0370 C   0  0  0  0  0  0  0  0  0  0  0  0
    8.9700   -1.0800   -0.5470 C   0  0  0  0  0  0  0  0  0  0  0  0
    1.5080   -1.1460    0.5990 C   0  0  0  0  0  0  0  0  0  0  0  0
    2.1080   -2.3880    0.5490 C   0  0  0  0  0  0  0  0  0  0  0  0
    1.4010   -3.4340   -0.0200 C   0  0  0  0  0  0  0  0  0  0  0  0
    0.1310   -3.2420   -0.5230 C   0  0  0  0  0  0  0  0  0  0  0  0
   -0.4170   -1.9770   -0.4450 C   0  0  0  0  0  0  0  0  0  0  0  0
    0.2440   -0.9020    0.1110 C   0  0  0  0  0  0  0  0  0  0  0  0
   -4.2900    1.3660    2.0260 C   0  0  0  0  0  0  0  0  0  0  0  0
   -5.4080    2.3740    2.1860 C   0  0  0  0  0  0  0  0  0  0  0  0
  1  2  1  0
  2  3  1  0
  3  4  1  0
  4  5  2  0
  4 12  1  0
  5  6  1  0
  5 10  1  0
  6  7  2  0
  6  8  1  0
  8  9  1  0
 10 11  1  0
 11 12  2  0
 11 46  1  0
 12 13  1  0
 13 14  1  0
 14 15  1  6
 14 45  1  0
 15 16  2  0
 15 17  1  0
 18 17  1  1
 18 19  1  0
 18 44  1  0
 19 20  1  0
 20 21  1  0
 21 22  1  6
 21 39  1  0
 22 23  1  0
 23 24  2  0
 23 25  1  0
 25 26  1  0
 26 27  1  0
 27 28  2  0
 27 29  1  0
 29 30  1  0
 29 38  1  0
 30 31  1  0
 31 32  1  0
 32 33  1  0
 33 34  2  0
 33 38  1  0
 34 35  1  0
 35 36  2  0
 36 37  1  0
 37 38  2  0
 39 40  2  0
 39 44  1  0
 40 41  1  0
 41 42  2  0
 42 43  1  0
 43 44  2  0
 45 46  1  0
M  END
