
     RDKit          3D

 46 51  0  0  0  0  0  0  0  0999 V2000
   -0.8700    2.1690   -1.5920 C   0  0  0  0  0  0  0  0  0  0  0  0
   -1.0540    0.7790   -1.8680 O   0  0  0  0  0  0  0  0  0  0  0  0
   -0.9150   -0.1720   -0.8410 C   0  0  0  0  0  0  0  0  0  0  0  0
   -2.0200   -0.5300   -0.0870 C   0  0  0  0  0  0  0  0  0  0  0  0
   -3.2740    0.0080   -0.2970 O   0  0  0  0  0  0  0  0  0  0  0  0
   -4.3440   -0.3980    0.4970 C   0  0  0  0  0  0  0  0  0  0  0  0
   -5.6290    0.3040    0.1140 C   0  0  2  0  0  0  0  0  0  0  0  0
   -6.0170   -0.0890   -1.3000 C   0  0  0  0  0  0  0  0  0  0  0  0
   -7.5920    0.8250   -1.5880 S   0  0  0  0  0  0  0  0  0  0  0  0
   -7.8270    1.6530   -0.0310 C   0  0  0  0  0  0  0  0  0  0  0  0
   -8.8660    1.6710    0.7220 C   0  0  0  0  0  0  0  0  0  0  0  0
  -10.1050    1.0000    0.4520 C   0  0  0  0  0  0  0  0  0  0  0  0
  -11.1680    1.0420    1.2610 C   0  0  0  0  0  0  0  0  0  0  0  0
  -11.3140    1.7540    2.5630 C   0  0  0  0  0  0  0  0  0  0  0  0
  -12.2510    0.2390    0.6620 C   0  0  0  0  0  0  0  0  0  0  0  0
  -11.6910   -0.2740   -0.5890 C   0  0  0  0  0  0  0  0  0  0  0  0
  -10.4410    0.1820   -0.6910 C   0  0  0  0  0  0  0  0  0  0  0  0
   -6.5790    2.4100    0.3800 C   0  0  0  0  0  0  0  0  0  0  0  0
   -5.4480    1.6530    0.2740 O   0  0  0  0  0  0  0  0  0  0  0  0
   -1.8330   -1.4610    0.9020 C   0  0  0  0  0  0  0  0  0  0  0  0
   -0.5880   -2.0200    1.1390 C   0  0  0  0  0  0  0  0  0  0  0  0
    0.4900   -1.6610    0.3930 C   0  0  0  0  0  0  0  0  0  0  0  0
    1.8030   -2.2580    0.6510 C   0  0  0  0  0  0  0  0  0  0  0  0
    1.9190   -3.1140    1.5810 O   0  0  0  0  0  0  0  0  0  0  0  0
    2.9270   -1.9360   -0.0670 O   0  0  0  0  0  0  0  0  0  0  0  0
    4.1510   -2.5640    0.2540 C   0  0  1  0  0  0  0  0  0  0  0  0
    4.6470   -3.3860   -0.9260 C   0  0  0  0  0  0  0  0  0  0  0  0
    5.6430   -4.3870   -0.3420 C   0  0  0  0  0  0  0  0  0  0  0  0
    6.3730   -3.7620    0.8270 C   0  0  0  0  0  0  0  0  0  0  0  0
    6.4880   -2.3310    0.6440 N   0  0  0  0  0  0  0  0  0  0  0  0
    7.7580   -1.7480    0.5370 C   0  0  0  0  0  0  0  0  0  0  0  0
    8.7860   -2.4960    0.6020 O   0  0  0  0  0  0  0  0  0  0  0  0
    8.0130   -0.3410    0.3540 C   0  0  0  0  0  0  0  0  0  0  0  0
    8.1810    0.5330    1.4040 C   0  0  0  0  0  0  0  0  0  0  0  0
    8.4300    1.8830    1.1600 C   0  0  0  0  0  0  0  0  0  0  0  0
    8.5030    2.3140   -0.1330 C   0  0  0  0  0  0  0  0  0  0  0  0
    8.3370    1.4520   -1.1680 N   0  0  0  0  0  0  0  0  0  0  0  0
    8.0990    0.1640   -0.9220 C   0  0  0  0  0  0  0  0  0  0  0  0
    7.9480   -0.6220   -1.8910 O   0  0  0  0  0  0  0  0  0  0  0  0
    8.7740    3.7650   -0.1990 C   0  0  0  0  0  0  0  0  0  0  0  0
    8.5450    4.2440    1.1940 C   0  0  0  0  0  0  0  0  0  0  0  0
    8.6470    3.0280    2.0540 C   0  0  0  0  0  0  0  0  0  0  0  0
    5.2480   -1.5790    0.5820 C   0  0  0  0  0  0  0  0  0  0  0  0
    0.3280   -0.7340   -0.6000 C   0  0  0  0  0  0  0  0  0  0  0  0
    1.3840   -0.3170   -1.4040 O   0  0  0  0  0  0  0  0  0  0  0  0
    1.6980   -0.9840   -2.6240 C   0  0  0  0  0  0  0  0  0  0  0  0
  1  2  1  0
  2  3  1  0
  3  4  2  0
  3 44  1  0
  4  5  1  0
  4 20  1  0
  5  6  1  0
  7  6  1  6
  7  8  1  0
  7 19  1  0
  8  9  1  0
  9 10  1  0
 10 11  2  3
 10 18  1  0
 11 12  1  0
 12 13  2  0
 12 17  1  0
 13 14  1  0
 13 15  1  0
 15 16  1  0
 16 17  2  0
 18 19  1  0
 20 21  2  0
 21 22  1  0
 22 23  1  0
 22 44  2  0
 23 24  2  0
 23 25  1  0
 26 25  1  6
 26 27  1  0
 26 43  1  0
 27 28  1  0
 28 29  1  0
 29 30  1  0
 30 31  1  0
 30 43  1  0
 31 32  2  0
 31 33  1  0
 33 34  2  0
 33 38  1  0
 34 35  1  0
 35 36  2  0
 35 42  1  0
 36 37  1  0
 36 40  1  0
 37 38  1  0
 38 39  2  0
 40 41  1  0
 41 42  1  0
 44 45  1  0
 45 46  1  0
M  END
