
     RDKit          3D

 46 49  0  0  0  0  0  0  0  0999 V2000
    4.5140    1.8840   -3.9300 C   0  0  0  0  0  0  0  0  0  0  0  0
    4.9570    2.6190   -2.7140 C   0  0  0  0  0  0  0  0  0  0  0  0
    4.7930    4.0100   -2.6720 C   0  0  0  0  0  0  0  0  0  0  0  0
    5.2220    4.7740   -1.6170 C   0  0  0  0  0  0  0  0  0  0  0  0
    5.8310    4.1670   -0.5630 C   0  0  0  0  0  0  0  0  0  0  0  0
    6.0140    2.8060   -0.5560 C   0  0  0  0  0  0  0  0  0  0  0  0
    6.6830    2.1650    0.5940 C   0  0  0  0  0  0  0  0  0  0  0  0
    5.5710    2.0260   -1.6430 C   0  0  0  0  0  0  0  0  0  0  0  0
    5.7970    0.6790   -1.5270 O   0  0  0  0  0  0  0  0  0  0  0  0
    5.1310   -0.3180   -0.8860 C   0  0  0  0  0  0  0  0  0  0  0  0
    3.7370   -0.6020   -1.2180 C   0  0  0  0  0  0  0  0  0  0  0  0
    3.0270   -0.0580   -2.0860 O   0  0  0  0  0  0  0  0  0  0  0  0
    3.0630   -1.6290   -0.4690 N   0  0  0  0  0  0  0  0  0  0  0  0
    1.6420   -1.9630   -0.7620 C   0  0  1  0  0  0  0  0  0  0  0  0
    1.7300   -3.3550   -1.2830 C   0  0  0  0  0  0  0  0  0  0  0  0
    2.3930   -4.3400   -0.4220 C   0  0  0  0  0  0  0  0  0  0  0  0
    3.7950   -4.4780   -0.4310 C   0  0  0  0  0  0  0  0  0  0  0  0
    4.4800   -5.3720    0.3260 C   0  0  0  0  0  0  0  0  0  0  0  0
    3.7800   -6.2060    1.1600 C   0  0  0  0  0  0  0  0  0  0  0  0
    2.4180   -6.1150    1.2070 C   0  0  0  0  0  0  0  0  0  0  0  0
    1.7230   -5.1820    0.4150 C   0  0  0  0  0  0  0  0  0  0  0  0
    0.8510   -1.6480    0.4270 C   0  0  1  0  0  0  0  0  0  0  0  0
    1.1960   -0.3070    0.8760 O   0  0  0  0  0  0  0  0  0  0  0  0
   -0.6500   -1.3590    0.0160 C   0  0  0  0  0  0  0  0  0  0  0  0
   -1.3380   -0.9210    1.2320 C   0  0  2  0  0  0  0  0  0  0  0  0
   -1.5670   -1.7890    2.3960 C   0  0  0  0  0  0  0  0  0  0  0  0
   -2.4730   -2.9360    2.1600 C   0  0  0  0  0  0  0  0  0  0  0  0
   -3.8350   -2.7440    2.4200 C   0  0  0  0  0  0  0  0  0  0  0  0
   -4.7840   -3.7140    2.2270 C   0  0  0  0  0  0  0  0  0  0  0  0
   -4.4050   -4.9630    1.7510 C   0  0  0  0  0  0  0  0  0  0  0  0
   -3.0690   -5.1790    1.4860 C   0  0  0  0  0  0  0  0  0  0  0  0
   -2.1280   -4.1680    1.6940 C   0  0  0  0  0  0  0  0  0  0  0  0
   -2.5720   -0.1790    0.9640 N   0  0  0  0  0  0  0  0  0  0  0  0
   -2.6200    1.2410    0.9300 C   0  0  0  0  0  0  0  0  0  0  0  0
   -1.5370    1.8350    1.1340 O   0  0  0  0  0  0  0  0  0  0  0  0
   -3.9020    1.8980    0.6640 C   0  0  2  0  0  0  0  0  0  0  0  0
   -4.6770    1.2130   -0.4090 C   0  0  2  0  0  0  0  0  0  0  0  0
   -3.9830    1.1420   -1.7460 C   0  0  0  0  0  0  0  0  0  0  0  0
   -6.0430    1.8820   -0.6030 C   0  0  0  0  0  0  0  0  0  0  0  0
   -3.7940    3.3280    0.5200 N   0  0  0  0  0  0  0  0  0  0  0  0
   -4.3970    4.2080    1.5020 C   0  0  0  0  0  0  0  0  0  0  0  0
   -5.2400    5.2070    0.7660 C   0  0  0  0  0  0  0  0  0  0  0  0
   -4.3660    6.0410   -0.1400 C   0  0  0  0  0  0  0  0  0  0  0  0
   -3.5400    5.2200   -0.9930 N   0  0  0  0  0  0  0  0  0  0  0  0
   -3.0990    3.9510   -0.5540 C   0  0  0  0  0  0  0  0  0  0  0  0
   -2.1240    3.3370   -1.0580 O   0  0  0  0  0  0  0  0  0  0  0  0
  1  2  1  0
  2  3  2  0
  2  8  1  0
  3  4  1  0
  4  5  2  0
  5  6  1  0
  6  7  1  0
  6  8  2  0
  8  9  1  0
  9 10  1  0
 10 11  1  0
 11 12  2  0
 11 13  1  0
 13 14  1  0
 14 15  1  1
 14 22  1  0
 15 16  1  0
 16 17  2  0
 16 21  1  0
 17 18  1  0
 18 19  2  0
 19 20  1  0
 20 21  2  0
 22 23  1  6
 22 24  1  0
 25 24  1  6
 25 26  1  0
 25 33  1  0
 26 27  1  0
 27 28  2  0
 27 32  1  0
 28 29  1  0
 29 30  2  0
 30 31  1  0
 31 32  2  0
 33 34  1  0
 34 35  2  0
 34 36  1  0
 36 37  1  0
 36 40  1  6
 37 38  1  6
 37 39  1  0
 40 41  1  0
 40 45  1  0
 41 42  1  0
 42 43  1  0
 43 44  1  0
 44 45  1  0
 45 46  2  0
M  END
