
     RDKit          3D

 45 49  0  0  0  0  0  0  0  0999 V2000
   -4.6620    5.4580    2.2330 C   0  0  0  0  0  0  0  0  0  0  0  0
   -3.5070    4.9710    1.6070 O   0  0  0  0  0  0  0  0  0  0  0  0
   -3.5030    4.1550    0.4850 C   0  0  0  0  0  0  0  0  0  0  0  0
   -3.1260    2.8810    0.5360 C   0  0  0  0  0  0  0  0  0  0  0  0
   -3.1000    1.9890   -0.5950 C   0  0  0  0  0  0  0  0  0  0  0  0
   -2.7120    0.7520   -0.5090 C   0  0  0  0  0  0  0  0  0  0  0  0
   -2.2360    0.0210    0.6880 C   0  0  2  0  0  0  0  0  0  0  0  0
   -1.1040   -0.8810    0.5360 C   0  0  0  0  0  0  0  0  0  0  0  0
   -0.7890   -1.5710   -0.7380 C   0  0  2  0  0  0  0  0  0  0  0  0
   -1.9080   -2.4090   -1.2860 C   0  0  0  0  0  0  0  0  0  0  0  0
   -1.7710   -3.7220   -1.4690 O   0  0  0  0  0  0  0  0  0  0  0  0
   -1.3840   -4.8870   -0.9450 C   0  0  0  0  0  0  0  0  0  0  0  0
   -0.8500   -5.7860   -1.8710 C   0  0  0  0  0  0  0  0  0  0  0  0
   -0.3850   -7.0430   -1.5610 C   0  0  0  0  0  0  0  0  0  0  0  0
   -0.4490   -7.4440   -0.2560 C   0  0  0  0  0  0  0  0  0  0  0  0
   -0.9780   -6.5600    0.6740 C   0  0  0  0  0  0  0  0  0  0  0  0
   -1.4450   -5.3000    0.3640 C   0  0  0  0  0  0  0  0  0  0  0  0
   -1.9910   -4.4970    1.4900 C   0  0  0  0  0  0  0  0  0  0  0  0
   -1.2550   -4.6310    2.5530 O   0  0  0  0  0  0  0  0  0  0  0  0
   -3.0410   -3.7350    1.5290 O   0  0  0  0  0  0  0  0  0  0  0  0
   -3.8740   -2.7790    1.9030 C   0  0  0  0  0  0  0  0  0  0  0  0
   -3.3120   -1.4530    2.3560 C   0  0  0  0  0  0  0  0  0  0  0  0
   -3.4020   -0.4210    1.4090 N   0  0  0  0  0  0  0  0  0  0  0  0
    0.3330   -2.5360   -0.4060 C   0  0  0  0  0  0  0  0  0  0  0  0
    0.7120   -2.9390    0.7240 O   0  0  0  0  0  0  0  0  0  0  0  0
    0.8730   -2.8910   -1.6700 N   0  0  0  0  0  0  0  0  0  0  0  0
    0.7750   -1.7460   -2.5540 C   0  0  1  0  0  0  0  0  0  0  0  0
    0.3200   -2.1010   -3.9240 C   0  0  0  0  0  0  0  0  0  0  0  0
   -0.1670   -0.7740   -1.8250 C   0  0  2  0  0  0  0  0  0  0  0  0
    0.6420    0.4040   -1.4430 C   0  0  0  0  0  0  0  0  0  0  0  0
    1.7860    0.1590   -0.6190 N   0  0  0  0  0  0  0  0  0  0  0  0
    2.6540    1.1980   -0.1670 C   0  0  0  0  0  0  0  0  0  0  0  0
    2.4440    2.3850   -0.4790 O   0  0  0  0  0  0  0  0  0  0  0  0
    3.7650    0.8830    0.6420 N   0  0  0  0  0  0  0  0  0  0  0  0
    4.7090    1.8490    1.1560 C   0  0  1  0  0  0  0  0  0  0  0  0
    4.9480    1.6820    2.6420 C   0  0  0  0  0  0  0  0  0  0  0  0
    6.2750    2.3490    2.9130 C   0  0  0  0  0  0  0  0  0  0  0  0
    7.0520    2.1590    1.6560 C   0  0  2  0  0  0  0  0  0  0  0  0
    7.6930    3.2840    1.2060 O   0  0  0  0  0  0  0  0  0  0  0  0
    9.0760    3.1340    1.1350 C   0  0  0  0  0  0  0  0  0  0  0  0
    6.1180    1.5630    0.6200 C   0  0  0  0  0  0  0  0  0  0  0  0
   -3.5370    2.5200   -1.9340 C   0  0  0  0  0  0  0  0  0  0  0  0
   -3.9260    3.9380   -1.8500 C   0  0  0  0  0  0  0  0  0  0  0  0
   -3.9240    4.6970   -0.7890 C   0  0  0  0  0  0  0  0  0  0  0  0
   -4.3630    6.1280   -0.9300 C   0  0  0  0  0  0  0  0  0  0  0  0
  1  2  1  0
  2  3  1  0
  3  4  2  0
  3 44  1  0
  4  5  1  0
  5  6  2  3
  5 42  1  0
  7  6  1  6
  7  8  1  0
  7 23  1  0
  9  8  1  1
  9 10  1  0
  9 24  1  0
  9 29  1  0
 10 11  1  0
 11 12  1  0
 12 13  2  0
 12 17  1  0
 13 14  1  0
 14 15  2  0
 15 16  1  0
 16 17  2  0
 17 18  1  0
 18 19  2  0
 18 20  1  0
 20 21  1  0
 21 22  1  0
 22 23  1  0
 24 25  2  0
 24 26  1  0
 26 27  1  0
 27 28  1  6
 27 29  1  0
 29 30  1  1
 30 31  1  0
 31 32  1  0
 32 33  2  0
 32 34  1  0
 35 34  1  6
 35 36  1  0
 35 41  1  0
 36 37  1  0
 37 38  1  0
 38 39  1  6
 38 41  1  0
 39 40  1  0
 42 43  1  0
 43 44  2  0
 44 45  1  0
M  CHG  1  23   1
M  END
