
     RDKit          3D

 46 51  0  0  0  0  0  0  0  0999 V2000
   -7.6980    0.7630    3.2960 C   0  0  0  0  0  0  0  0  0  0  0  0
   -6.3050    0.3020    3.3120 C   0  0  0  0  0  0  0  0  0  0  0  0
   -5.8360   -0.3200    4.2930 O   0  0  0  0  0  0  0  0  0  0  0  0
   -5.4460    0.5730    2.1640 C   0  0  0  0  0  0  0  0  0  0  0  0
   -4.1240    0.1490    2.1310 C   0  0  0  0  0  0  0  0  0  0  0  0
   -3.3780    0.4480    1.0160 C   0  0  0  0  0  0  0  0  0  0  0  0
   -3.8820    1.1470   -0.0690 C   0  0  0  0  0  0  0  0  0  0  0  0
   -2.9530    1.4150   -1.2280 C   0  0  1  0  0  0  0  0  0  0  0  0
   -1.7440    1.8310   -0.6100 O   0  0  0  0  0  0  0  0  0  0  0  0
   -1.2070    3.0800   -0.7760 C   0  0  0  0  0  0  0  0  0  0  0  0
   -1.8040    3.9070   -1.5080 O   0  0  0  0  0  0  0  0  0  0  0  0
    0.0340    3.4970   -0.1380 C   0  0  0  0  0  0  0  0  0  0  0  0
    0.9230    3.0040    0.6360 N   0  0  0  0  0  0  0  0  0  0  0  0
    1.9690    3.5570    1.1010 C   0  0  0  0  0  0  0  0  0  0  0  0
    2.9840    2.9270    2.0030 C   0  0  0  0  0  0  0  0  0  0  0  0
    3.9740    3.6620    2.3540 O   0  0  0  0  0  0  0  0  0  0  0  0
    2.8920    1.6240    2.4520 N   0  0  0  0  0  0  0  0  0  0  0  0
    4.0250    1.2150    3.3160 C   0  0  0  0  0  0  0  0  0  0  0  0
    4.9670    0.3390    2.5090 C   0  0  0  0  0  0  0  0  0  0  0  0
    4.1310   -0.8330    1.9840 C   0  0  0  0  0  0  0  0  0  0  0  0
    3.5160   -0.4500    0.6940 C   0  0  1  0  0  0  0  0  0  0  0  0
    3.6430   -1.3660   -0.4610 C   0  0  1  0  0  0  0  0  0  0  0  0
    3.0530   -2.7320   -0.1510 C   0  0  0  0  0  0  0  0  0  0  0  0
    2.7290   -0.8490   -1.4550 O   0  0  0  0  0  0  0  0  0  0  0  0
    4.9230   -1.5080   -1.1630 C   0  0  2  0  0  0  0  0  0  0  0  0
    6.1170   -2.0100   -0.4480 C   0  0  0  0  0  0  0  0  0  0  0  0
    6.9750   -0.8150   -0.1200 C   0  0  0  0  0  0  0  0  0  0  0  0
    6.3560    0.2760   -0.7880 O   0  0  0  0  0  0  0  0  0  0  0  0
    5.4260   -0.1980   -1.7060 C   0  0  0  0  0  0  0  0  0  0  0  0
    5.0670    0.3390   -2.7730 O   0  0  0  0  0  0  0  0  0  0  0  0
    2.0470   -0.0460    0.8730 C   0  0  0  0  0  0  0  0  0  0  0  0
    1.8180    0.7720    2.1110 C   0  0  0  0  0  0  0  0  0  0  0  0
    2.2160    4.9080    0.7300 C   0  0  0  0  0  0  0  0  0  0  0  0
    0.7470    5.1960   -0.3410 S   0  0  0  0  0  0  0  0  0  0  0  0
   -2.7400    0.1210   -1.9110 C   0  0  0  0  0  0  0  0  0  0  0  0
   -1.5110   -0.5090   -1.9210 C   0  0  0  0  0  0  0  0  0  0  0  0
   -1.3110   -1.7100   -2.5660 C   0  0  0  0  0  0  0  0  0  0  0  0
   -2.3540   -2.3300   -3.2340 C   0  0  0  0  0  0  0  0  0  0  0  0
   -2.1160   -3.6340   -3.9350 C   0  0  0  0  0  0  0  0  0  0  0  0
   -3.5790   -1.7160   -3.2330 C   0  0  0  0  0  0  0  0  0  0  0  0
   -3.7740   -0.5040   -2.5800 C   0  0  0  0  0  0  0  0  0  0  0  0
   -5.0890   -0.1290   -2.7430 O   0  0  0  0  0  0  0  0  0  0  0  0
   -5.8040   -0.9680   -3.6150 C   0  0  0  0  0  0  0  0  0  0  0  0
   -4.8600   -2.1250   -3.8510 C   0  0  0  0  0  0  0  0  0  0  0  0
   -5.1720    1.5650   -0.0480 C   0  0  0  0  0  0  0  0  0  0  0  0
   -5.9370    1.2720    1.0680 C   0  0  0  0  0  0  0  0  0  0  0  0
  1  2  1  0
  2  3  2  0
  2  4  1  0
  4  5  2  0
  4 46  1  0
  5  6  1  0
  6  7  2  0
  7  8  1  0
  7 45  1  0
  8  9  1  1
  8 35  1  0
  9 10  1  0
 10 11  2  0
 10 12  1  0
 12 13  2  0
 12 34  1  0
 13 14  1  0
 14 15  1  0
 14 33  2  0
 15 16  2  0
 15 17  1  0
 17 18  1  0
 17 32  1  0
 18 19  1  0
 19 20  1  0
 21 20  1  1
 21 22  1  0
 21 31  1  0
 22 23  1  1
 22 24  1  0
 22 25  1  0
 25 26  1  1
 25 29  1  0
 26 27  1  0
 27 28  1  0
 28 29  1  0
 29 30  2  0
 31 32  1  0
 33 34  1  0
 35 36  2  0
 35 41  1  0
 36 37  1  0
 37 38  2  0
 38 39  1  0
 38 40  1  0
 40 41  2  0
 40 44  1  0
 41 42  1  0
 42 43  1  0
 43 44  1  0
 45 46  2  0
M  END
