
     RDKit          3D

 46 49  0  0  0  0  0  0  0  0999 V2000
   10.3450    2.2910    2.1180 C   0  0  0  0  0  0  0  0  0  0  0  0
    9.3180    1.6610    1.5880 C   0  0  0  0  0  0  0  0  0  0  0  0
    7.9560    2.0300    1.9240 C   0  0  0  0  0  0  0  0  0  0  0  0
    6.9180    1.4070    1.3980 C   0  0  0  0  0  0  0  0  0  0  0  0
    5.5510    1.7350    1.6990 C   0  0  0  0  0  0  0  0  0  0  0  0
    4.4780    1.1580    1.2080 C   0  0  0  0  0  0  0  0  0  0  0  0
    4.6260    0.0540    0.2420 C   0  0  0  0  0  0  0  0  0  0  0  0
    3.3340    0.1220   -0.6170 C   0  0  0  0  0  0  0  0  0  0  0  0
    2.2310   -0.3730    0.2950 C   0  0  2  0  0  0  0  0  0  0  0  0
    1.0670   -0.8670   -0.4190 N   0  0  0  0  0  0  0  0  0  0  0  0
    0.1980    0.0410   -1.1060 C   0  0  0  0  0  0  0  0  0  0  0  0
    0.2120    1.4900   -0.7750 C   0  0  0  0  0  0  0  0  0  0  0  0
   -0.3710    2.3180   -1.8390 N   0  0  0  0  0  0  0  0  0  0  0  0
   -1.3310    1.7300   -2.6650 C   0  0  0  0  0  0  0  0  0  0  0  0
   -2.6980    2.3250   -2.4750 C   0  0  2  0  0  0  0  0  0  0  0  0
   -2.9600    3.3010   -3.4640 O   0  0  0  0  0  0  0  0  0  0  0  0
   -2.8840    2.9790   -1.1670 C   0  0  0  0  0  0  0  0  0  0  0  0
   -3.2510    2.3620   -0.0460 C   0  0  0  0  0  0  0  0  0  0  0  0
   -3.5240    0.9010    0.0110 C   0  0  0  0  0  0  0  0  0  0  0  0
   -3.1030    0.2600    1.2280 N   0  0  0  0  0  0  0  0  0  0  0  0
   -3.4920    0.9790    2.4600 C   0  0  0  0  0  0  0  0  0  0  0  0
   -2.3820   -0.9240    1.4160 C   0  0  0  0  0  0  0  0  0  0  0  0
   -1.4240   -0.9140    2.3050 O   0  0  0  0  0  0  0  0  0  0  0  0
   -2.5050   -2.2490    0.7720 C   0  0  1  0  0  0  0  0  0  0  0  0
   -3.4490   -3.1300    1.6550 C   0  0  0  0  0  0  0  0  0  0  0  0
   -2.7340   -3.1950    3.0110 C   0  0  0  0  0  0  0  0  0  0  0  0
   -2.9370   -2.2770   -0.5780 N   0  0  0  0  0  0  0  0  0  0  0  0
   -4.4290   -2.1260   -0.7070 C   0  0  0  0  0  0  0  0  0  0  0  0
   -5.0510   -3.5100   -0.7640 C   0  0  0  0  0  0  0  0  0  0  0  0
   -2.1960   -2.4260   -1.7670 C   0  0  0  0  0  0  0  0  0  0  0  0
   -2.6950   -1.7710   -2.7620 O   0  0  0  0  0  0  0  0  0  0  0  0
   -0.9780   -3.1760   -2.0950 C   0  0  0  0  0  0  0  0  0  0  0  0
   -1.1990   -4.1070   -3.1500 C   0  0  0  0  0  0  0  0  0  0  0  0
   -0.2820   -4.9930   -3.6310 C   0  0  0  0  0  0  0  0  0  0  0  0
    0.9610   -4.9820   -3.0440 C   0  0  0  0  0  0  0  0  0  0  0  0
    1.1930   -4.1010   -2.0400 C   0  0  0  0  0  0  0  0  0  0  0  0
    0.2490   -3.1570   -1.5170 C   0  0  0  0  0  0  0  0  0  0  0  0
    0.8300   -2.2960   -0.4880 C   0  0  0  0  0  0  0  0  0  0  0  0
    1.2230   -2.8960    0.5760 O   0  0  0  0  0  0  0  0  0  0  0  0
   -3.3790    3.1350    1.1000 O   0  0  0  0  0  0  0  0  0  0  0  0
   -3.4070    4.5310    1.1250 C   0  0  0  0  0  0  0  0  0  0  0  0
   -2.4030    5.0320    0.0830 C   0  0  0  0  0  0  0  0  0  0  0  0
   -2.6600    4.3490   -1.1010 O   0  0  0  0  0  0  0  0  0  0  0  0
    2.1400    0.3980    1.5170 C   0  0  2  0  0  0  0  0  0  0  0  0
    0.9730    0.8800    1.9960 O   0  0  0  0  0  0  0  0  0  0  0  0
    3.1240    1.5850    1.5940 C   0  0  0  0  0  0  0  0  0  0  0  0
  1  2  2  0
  2  3  1  0
  3  4  2  3
  4  5  1  0
  5  6  2  3
  6  7  1  0
  6 46  1  0
  7  8  1  0
  8  9  1  0
  9 10  1  6
  9 44  1  0
 10 11  1  0
 10 38  1  0
 11 12  1  0
 12 13  1  0
 13 14  1  0
 14 15  1  0
 15 16  1  6
 15 17  1  0
 17 18  2  0
 17 43  1  0
 18 19  1  0
 18 40  1  0
 19 20  1  0
 20 21  1  0
 20 22  1  0
 22 23  2  0
 22 24  1  0
 24 25  1  1
 24 27  1  0
 25 26  1  0
 27 28  1  0
 27 30  1  0
 28 29  1  0
 30 31  2  0
 30 32  1  0
 32 33  2  0
 32 37  1  0
 33 34  1  0
 34 35  2  0
 35 36  1  0
 36 37  2  0
 37 38  1  0
 38 39  2  0
 40 41  1  0
 41 42  1  0
 42 43  1  0
 44 45  1  6
 44 46  1  0
M  CHG  1  13   1
M  END
