
     RDKit          3D

 46 49  0  0  0  0  0  0  0  0999 V2000
   -1.9320    6.1840    3.2130 C   0  0  0  0  0  0  0  0  0  0  0  0
   -1.9700    4.7090    2.9090 C   0  0  0  0  0  0  0  0  0  0  0  0
   -1.7090    4.4270    1.4430 C   0  0  2  0  0  0  0  0  0  0  0  0
   -0.3620    4.9290    1.0130 C   0  0  0  0  0  0  0  0  0  0  0  0
    0.5700    3.7620    0.6820 C   0  0  0  0  0  0  0  0  0  0  0  0
    0.7380    3.6090   -0.6890 O   0  0  0  0  0  0  0  0  0  0  0  0
    1.7610    2.9200   -1.3140 C   0  0  0  0  0  0  0  0  0  0  0  0
    1.7580    3.2560   -2.5930 O   0  0  0  0  0  0  0  0  0  0  0  0
    2.7590    1.9630   -0.8210 C   0  0  0  0  0  0  0  0  0  0  0  0
    3.9990    2.2470   -1.4500 C   0  0  0  0  0  0  0  0  0  0  0  0
    5.1500    1.5420   -1.2200 C   0  0  0  0  0  0  0  0  0  0  0  0
    5.0530    0.5100   -0.3230 C   0  0  0  0  0  0  0  0  0  0  0  0
    6.1930   -0.2310   -0.0560 O   0  0  0  0  0  0  0  0  0  0  0  0
    7.4320   -0.0440   -0.6000 C   0  0  1  0  0  0  0  0  0  0  0  0
    8.4430    0.2340    0.5170 C   0  0  0  0  0  0  0  0  0  0  0  0
    7.9350   -1.2890   -1.3460 C   0  0  0  0  0  0  0  0  0  0  0  0
    3.8150    0.1910    0.3330 C   0  0  0  0  0  0  0  0  0  0  0  0
    2.6790    0.9260    0.0740 C   0  0  0  0  0  0  0  0  0  0  0  0
    4.0320   -0.9340    1.1980 N   0  0  0  0  0  0  0  0  0  0  0  0
    3.2550   -2.1280    1.3870 C   0  0  0  0  0  0  0  0  0  0  0  0
    3.0690   -2.5170    2.5670 O   0  0  0  0  0  0  0  0  0  0  0  0
    2.6520   -2.9450    0.3200 C   0  0  2  0  0  0  0  0  0  0  0  0
    3.1130   -2.6650   -1.0530 C   0  0  0  0  0  0  0  0  0  0  0  0
    1.9150   -3.0090   -1.9040 C   0  0  0  0  0  0  0  0  0  0  0  0
    0.7960   -3.0800   -0.9280 C   0  0  1  0  0  0  0  0  0  0  0  0
   -0.0950   -4.2860   -1.1300 C   0  0  0  0  0  0  0  0  0  0  0  0
   -0.5900   -4.8300    0.1200 N   0  0  0  0  0  0  0  0  0  0  0  0
    0.4100   -5.5470    0.8990 C   0  0  0  0  0  0  0  0  0  0  0  0
   -1.9170   -4.6920    0.5760 C   0  0  0  0  0  0  0  0  0  0  0  0
   -2.1440   -5.4510    1.6160 O   0  0  0  0  0  0  0  0  0  0  0  0
   -3.0550   -3.8880    0.1190 C   0  0  0  0  0  0  0  0  0  0  0  0
   -4.2390   -4.6670    0.1640 C   0  0  0  0  0  0  0  0  0  0  0  0
   -5.4710   -4.2230   -0.2050 C   0  0  0  0  0  0  0  0  0  0  0  0
   -5.5220   -2.9250   -0.6450 C   0  0  0  0  0  0  0  0  0  0  0  0
   -6.8790   -2.4160   -1.0540 C   0  0  0  0  0  0  0  0  0  0  0  0
   -4.3710   -2.1060   -0.7090 C   0  0  0  0  0  0  0  0  0  0  0  0
   -3.1370   -2.5830   -0.3280 C   0  0  0  0  0  0  0  0  0  0  0  0
   -4.7490   -0.7490   -1.2400 C   0  0  0  0  0  0  0  0  0  0  0  0
   -4.8680    0.2200   -0.0730 C   0  0  0  0  0  0  0  0  0  0  0  0
   -5.3910    1.4900   -0.4690 N   0  0  0  0  0  0  0  0  0  0  0  0
   -4.6380    2.5730    0.1850 C   0  0  0  0  0  0  0  0  0  0  0  0
   -3.4020    2.7930   -0.5930 C   0  0  0  0  0  0  0  0  0  0  0  0
   -2.8390    1.8480   -1.2260 O   0  0  0  0  0  0  0  0  0  0  0  0
   -2.8260    4.1070   -0.6310 N   0  0  0  0  0  0  0  0  0  0  0  0
   -2.8140    4.9480    0.5480 C   0  0  0  0  0  0  0  0  0  0  0  0
    1.2680   -2.9480    0.3440 O   0  0  0  0  0  0  0  0  0  0  0  0
  1  2  1  0
  3  2  1  1
  3  4  1  0
  3 45  1  0
  4  5  1  0
  5  6  1  0
  6  7  1  0
  7  8  2  0
  7  9  1  0
  9 10  1  0
  9 18  2  0
 10 11  2  0
 11 12  1  0
 12 13  1  0
 12 17  2  0
 13 14  1  0
 14 15  1  1
 14 16  1  0
 17 18  1  0
 17 19  1  0
 19 20  1  0
 20 21  2  0
 20 22  1  0
 22 23  1  6
 22 46  1  0
 23 24  1  0
 25 24  1  6
 25 26  1  0
 25 46  1  0
 26 27  1  0
 27 28  1  0
 27 29  1  0
 29 30  2  0
 29 31  1  0
 31 32  1  0
 31 37  2  0
 32 33  2  0
 33 34  1  0
 34 35  1  0
 34 36  2  0
 36 37  1  0
 36 38  1  0
 38 39  1  0
 39 40  1  0
 40 41  1  0
 41 42  1  0
 42 43  2  0
 42 44  1  0
 44 45  1  0
M  CHG  1  40   1
M  END
