
     RDKit          3D

 24 25  0  0  0  0  0  0  0  0999 V2000
   -0.4840   -1.6790    2.0830 C   0  0  0  0  0  0  0  0  0  0  0  0
    0.1550   -0.6380    1.2830 C   0  0  0  0  0  0  0  0  0  0  0  0
    1.3100   -0.2370    1.7020 O   0  0  0  0  0  0  0  0  0  0  0  0
   -0.3260    0.0120    0.0800 C   0  0  0  0  0  0  0  0  0  0  0  0
   -1.4240   -0.1190   -0.6410 C   0  0  0  0  0  0  0  0  0  0  0  0
   -2.5250   -1.0420   -0.3670 C   0  0  0  0  0  0  0  0  0  0  0  0
   -3.8550   -0.3710   -0.0950 C   0  0  2  0  0  0  0  0  0  0  0  0
   -3.8110    0.5450    1.0840 C   0  0  0  0  0  0  0  0  0  0  0  0
   -4.7910   -1.5280    0.3060 C   0  0  0  0  0  0  0  0  0  0  0  0
   -4.4880    0.2280   -1.3250 C   0  0  0  0  0  0  0  0  0  0  0  0
   -1.3810    0.7860   -1.7760 N   0  0  0  0  0  0  0  0  0  0  0  0
    0.0070    1.1050   -1.9770 C   0  0  0  0  0  0  0  0  0  0  0  0
    0.5070    1.1110   -0.5750 C   0  0  2  0  0  0  0  0  0  0  0  0
    1.9190    0.7360   -0.4840 N   0  0  0  0  0  0  0  0  0  0  0  0
    2.8190    1.5430    0.1990 C   0  0  0  0  0  0  0  0  0  0  0  0
    2.2650    2.6100    0.7110 O   0  0  0  0  0  0  0  0  0  0  0  0
    4.2290    1.3970    0.4260 C   0  0  0  0  0  0  0  0  0  0  0  0
    4.7770    2.4860    1.1980 O   0  0  0  0  0  0  0  0  0  0  0  0
    5.0670    0.4730    0.0620 C   0  0  0  0  0  0  0  0  0  0  0  0
    4.9230   -0.7510   -0.7000 C   0  0  0  0  0  0  0  0  0  0  0  0
    6.1250   -1.3420   -0.7840 C   0  0  0  0  0  0  0  0  0  0  0  0
    7.0690   -0.6160   -0.1400 O   0  0  0  0  0  0  0  0  0  0  0  0
    6.5150    0.5280    0.4180 C   0  0  0  0  0  0  0  0  0  0  0  0
    7.0620    1.4240    1.0740 O   0  0  0  0  0  0  0  0  0  0  0  0
  1  2  1  0
  2  3  2  0
  2  4  1  0
  4  5  2  0
  4 13  1  0
  5  6  1  0
  5 11  1  0
  6  7  1  0
  7  8  1  1
  7  9  1  0
  7 10  1  0
 11 12  1  0
 12 13  1  0
 13 14  1  6
 14 15  1  0
 15 16  2  0
 15 17  1  0
 17 18  1  0
 17 19  2  3
 19 20  1  0
 19 23  1  0
 20 21  2  0
 21 22  1  0
 22 23  1  0
 23 24  2  0
M  END
