
     RDKit          3D

 25 27  0  0  0  0  0  0  0  0999 V2000
   -4.4810    2.4600   -0.2900 C   0  0  0  0  0  0  0  0  0  0  0  0
   -3.7100    1.4990    0.1640 C   0  0  0  0  0  0  0  0  0  0  0  0
   -2.2240    1.5410    0.1800 C   0  0  0  0  0  0  0  0  0  0  0  0
   -1.8840    0.0850    0.1820 C   0  0  0  0  0  0  0  0  0  0  0  0
   -1.1050   -0.8610   -0.2200 C   0  0  0  0  0  0  0  0  0  0  0  0
    0.0390   -0.7020   -1.0630 N   0  0  0  0  0  0  0  0  0  0  0  0
    1.3030   -0.5420   -0.4340 C   0  0  0  0  0  0  0  0  0  0  0  0
    1.3980   -0.5440    0.9420 C   0  0  0  0  0  0  0  0  0  0  0  0
    2.6130   -0.3910    1.5710 C   0  0  0  0  0  0  0  0  0  0  0  0
    2.7940   -0.3870    3.4680 Br  0  0  0  0  0  0  0  0  0  0  0  0
    3.7340   -0.2360    0.7910 C   0  0  0  0  0  0  0  0  0  0  0  0
    4.9870   -0.0770    1.3820 O   0  0  0  0  0  0  0  0  0  0  0  0
    5.4210    1.2560    1.6780 C   0  0  0  0  0  0  0  0  0  0  0  0
    3.6880   -0.2270   -0.5940 C   0  0  0  0  0  0  0  0  0  0  0  0
    4.8500   -0.0660   -1.3420 O   0  0  0  0  0  0  0  0  0  0  0  0
    4.7170   -0.0690   -2.7500 C   0  0  0  0  0  0  0  0  0  0  0  0
    2.4560   -0.3830   -1.1850 C   0  0  0  0  0  0  0  0  0  0  0  0
   -1.6040   -2.1620    0.2350 C   0  0  0  0  0  0  0  0  0  0  0  0
   -1.0630   -3.2920    0.0110 O   0  0  0  0  0  0  0  0  0  0  0  0
   -2.7920   -1.8770    0.9600 N   0  0  0  0  0  0  0  0  0  0  0  0
   -2.8890   -0.4990    1.1510 C   0  0  2  0  0  0  0  0  0  0  0  0
   -4.1430    0.2120    0.7370 C   0  0  2  0  0  0  0  0  0  0  0  0
   -5.0250   -0.5520   -0.1270 C   0  0  0  0  0  0  0  0  0  0  0  0
   -5.3470   -0.0960   -1.2450 O   0  0  0  0  0  0  0  0  0  0  0  0
   -5.5200   -1.7770    0.2590 O   0  0  0  0  0  0  0  0  0  0  0  0
  1  2  2  0
  2  3  1  0
  2 22  1  0
  3  4  1  0
  4  5  2  0
  4 21  1  0
  5  6  1  0
  5 18  1  0
  6  7  1  0
  7  8  2  0
  7 17  1  0
  8  9  1  0
  9 10  1  0
  9 11  2  0
 11 12  1  0
 11 14  1  0
 12 13  1  0
 14 15  1  0
 14 17  2  0
 15 16  1  0
 18 19  2  0
 18 20  1  0
 21 20  1  6
 21 22  1  0
 22 23  1  6
 23 24  2  0
 23 25  1  0
M  END
