
     RDKit          3D

 25 27  0  0  0  0  0  0  0  0999 V2000
   -5.2340   -1.5270   -1.3320 C   0  0  0  0  0  0  0  0  0  0  0  0
   -4.3340   -0.6530   -0.5460 C   0  0  0  0  0  0  0  0  0  0  0  0
   -2.9800   -0.7030   -0.6790 C   0  0  0  0  0  0  0  0  0  0  0  0
   -2.1180    0.1300    0.0690 C   0  0  0  0  0  0  0  0  0  0  0  0
   -0.7450   -0.0130   -0.1310 N   0  0  0  0  0  0  0  0  0  0  0  0
    0.2250    0.8970    0.3040 C   0  0  0  0  0  0  0  0  0  0  0  0
   -0.0410    1.9430    0.9160 O   0  0  0  0  0  0  0  0  0  0  0  0
    1.6720    0.6140    0.0270 C   0  0  2  0  0  0  0  0  0  0  0  0
    1.9960   -0.7070    0.6990 C   0  0  0  0  0  0  0  0  0  0  0  0
    3.1830   -1.3160    0.1310 N   0  0  0  0  0  0  0  0  0  0  0  0
    4.4910   -0.7310    0.0110 C   0  0  0  0  0  0  0  0  0  0  0  0
    5.5990   -1.3750   -0.2410 C   0  0  0  0  0  0  0  0  0  0  0  0
    6.7070   -0.4140   -0.2820 C   0  0  0  0  0  0  0  0  0  0  0  0
    6.0800    0.8900   -0.0160 C   0  0  0  0  0  0  0  0  0  0  0  0
    6.9110    2.6130    0.0860 Br  0  0  0  0  0  0  0  0  0  0  0  0
    4.7940    0.6880    0.1520 C   0  0  0  0  0  0  0  0  0  0  0  0
    3.8410    1.7840    0.4390 C   0  0  0  0  0  0  0  0  0  0  0  0
    4.3400    2.9260    0.6140 O   0  0  0  0  0  0  0  0  0  0  0  0
    2.4580    1.6630    0.5320 O   0  0  0  0  0  0  0  0  0  0  0  0
   -2.6460    1.0240    0.9640 C   0  0  0  0  0  0  0  0  0  0  0  0
   -4.0370    1.0740    1.0990 C   0  0  0  0  0  0  0  0  0  0  0  0
   -4.8590    0.2530    0.3590 C   0  0  0  0  0  0  0  0  0  0  0  0
   -6.3060    0.3060    0.5000 C   0  0  0  0  0  0  0  0  0  0  0  0
   -7.1030   -0.4120   -0.1410 O   0  0  0  0  0  0  0  0  0  0  0  0
   -6.8340    1.2100    1.4050 O   0  0  0  0  0  0  0  0  0  0  0  0
  1  2  1  0
  2  3  2  0
  2 22  1  0
  3  4  1  0
  4  5  1  0
  4 20  2  0
  5  6  1  0
  6  7  2  0
  8  6  1  1
  8  9  1  0
  8 19  1  0
  9 10  1  0
 10 11  1  0
 11 12  2  0
 11 16  1  0
 12 13  1  0
 13 14  1  0
 14 15  1  0
 14 16  2  0
 16 17  1  0
 17 18  2  0
 17 19  1  0
 20 21  1  0
 21 22  2  0
 22 23  1  0
 23 24  2  0
 23 25  1  0
M  END
