
     RDKit          3D

 25 26  0  0  0  0  0  0  0  0999 V2000
    5.5340   -1.7210    0.0810 C   0  0  0  0  0  0  0  0  0  0  0  0
    4.0830   -1.8200    0.0220 C   0  0  0  0  0  0  0  0  0  0  0  0
    3.1850   -0.9010    0.1780 C   0  0  0  0  0  0  0  0  0  0  0  0
    3.2550    0.4960    0.4550 C   0  0  0  0  0  0  0  0  0  0  0  0
    4.1310    1.4770    0.7550 C   0  0  0  0  0  0  0  0  0  0  0  0
    6.0240    1.3500    0.9730 Br  0  0  0  0  0  0  0  0  0  0  0  0
    3.3530    2.6980    0.8970 C   0  0  0  0  0  0  0  0  0  0  0  0
    3.8440    3.8260    1.1770 O   0  0  0  0  0  0  0  0  0  0  0  0
    2.0130    2.4320    0.6820 N   0  0  0  0  0  0  0  0  0  0  0  0
    1.9190    1.0150    0.3950 C   0  0  0  0  0  0  0  0  0  0  0  0
    1.0070    0.0430    0.1060 C   0  0  0  0  0  0  0  0  0  0  0  0
   -0.3780    0.3550   -0.0060 C   0  0  0  0  0  0  0  0  0  0  0  0
   -1.5310   -0.1910   -0.2570 C   0  0  0  0  0  0  0  0  0  0  0  0
   -2.6540    0.8020   -0.1960 C   0  0  0  0  0  0  0  0  0  0  0  0
   -3.8080    0.5440   -0.3970 O   0  0  0  0  0  0  0  0  0  0  0  0
   -2.3650    2.1500    0.1180 O   0  0  0  0  0  0  0  0  0  0  0  0
   -3.4310    3.1120    0.1790 C   0  0  0  0  0  0  0  0  0  0  0  0
   -2.7900    4.4350    0.5330 C   0  0  0  0  0  0  0  0  0  0  0  0
   -1.7650   -1.5430   -0.6180 C   0  0  0  0  0  0  0  0  0  0  0  0
   -0.6970   -2.3170   -0.7600 O   0  0  0  0  0  0  0  0  0  0  0  0
   -2.9090   -2.3230   -0.8790 N   0  0  0  0  0  0  0  0  0  0  0  0
   -4.3000   -2.0520   -0.8470 C   0  0  0  0  0  0  0  0  0  0  0  0
   -2.5770   -3.7520   -1.2920 C   0  0  0  0  0  0  0  0  0  0  0  0
    1.6880   -1.2170    0.0410 C   0  0  2  0  0  0  0  0  0  0  0  0
    1.3500   -1.9910    1.1680 O   0  0  0  0  0  0  0  0  0  0  0  0
  1  2  1  0
  2  3  2  3
  3  4  1  0
  3 24  1  0
  4  5  2  0
  4 10  1  0
  5  6  1  0
  5  7  1  0
  7  8  2  0
  7  9  1  0
  9 10  1  0
 10 11  2  0
 11 12  1  0
 11 24  1  0
 12 13  2  3
 13 14  1  0
 13 19  1  0
 14 15  2  0
 14 16  1  0
 16 17  1  0
 17 18  1  0
 19 20  2  0
 19 21  1  0
 21 22  1  0
 21 23  1  0
 24 25  1  1
M  END
