
     RDKit          3D

 25 27  0  0  0  0  0  0  0  0999 V2000
    3.8210   -0.8720   -0.5560 O   0  0  0  0  0  0  0  0  0  0  0  0
    3.4450    0.1040    0.1090 C   0  0  0  0  0  0  0  0  0  0  0  0
    2.1090    0.3200    0.5220 N   0  0  0  0  0  0  0  0  0  0  0  0
    1.0360   -0.5590    0.2280 C   0  0  0  0  0  0  0  0  0  0  0  0
    1.1890   -1.8190   -0.2520 C   0  0  0  0  0  0  0  0  0  0  0  0
    0.1110   -2.6120   -0.5340 C   0  0  0  0  0  0  0  0  0  0  0  0
   -1.1570   -2.1150   -0.3230 C   0  0  0  0  0  0  0  0  0  0  0  0
   -1.4000   -0.8600    0.1570 C   0  0  0  0  0  0  0  0  0  0  0  0
   -2.6580   -0.2810    0.3950 N   0  0  0  0  0  0  0  0  0  0  0  0
   -3.9140   -0.8550    0.1390 C   0  0  0  0  0  0  0  0  0  0  0  0
   -3.9750   -2.0010   -0.3530 O   0  0  0  0  0  0  0  0  0  0  0  0
   -5.1910   -0.0920    0.4570 C   0  0  1  0  0  0  0  0  0  0  0  0
   -5.1570    1.1800   -0.3550 C   0  0  0  0  0  0  0  0  0  0  0  0
   -6.3350    1.7330   -0.5940 C   0  0  0  0  0  0  0  0  0  0  0  0
   -6.4880    3.3360   -1.5990 Br  0  0  0  0  0  0  0  0  0  0  0  0
   -7.5430    1.0800   -0.0650 C   0  0  0  0  0  0  0  0  0  0  0  0
   -7.5390   -0.2870   -0.1100 O   0  0  0  0  0  0  0  0  0  0  0  0
   -6.3240   -0.9050   -0.0710 C   0  0  0  0  0  0  0  0  0  0  0  0
   -0.2660   -0.0970    0.4270 C   0  0  0  0  0  0  0  0  0  0  0  0
    4.4640    1.0240    0.4460 O   0  0  0  0  0  0  0  0  0  0  0  0
    5.7930    0.8480    0.0580 C   0  0  2  0  0  0  0  0  0  0  0  0
    6.5130   -0.4190    0.5410 C   0  0  0  0  0  0  0  0  0  0  0  0
    7.8100   -0.4520    0.0810 O   0  0  0  0  0  0  0  0  0  0  0  0
    6.6380    2.1140    0.0960 C   0  0  0  0  0  0  0  0  0  0  0  0
    6.3330    1.4310   -1.1900 C   0  0  0  0  0  0  0  0  0  0  0  0
  1  2  2  0
  2  3  1  0
  2 20  1  0
  3  4  1  0
  4  5  2  0
  4 19  1  0
  5  6  1  0
  6  7  2  0
  7  8  1  0
  8  9  1  0
  8 19  2  0
  9 10  1  0
 10 11  2  0
 12 10  1  6
 12 13  1  0
 12 18  1  0
 13 14  2  0
 14 15  1  0
 14 16  1  0
 16 17  1  0
 17 18  1  0
 20 21  1  0
 21 22  1  1
 21 24  1  0
 21 25  1  0
 22 23  1  0
 24 25  1  0
M  END
