
     RDKit          3D

 22 22  0  0  0  0  0  0  0  0999 V2000
   -0.2950    3.4360   -1.5000 C   0  0  0  0  0  0  0  0  0  0  0  0
   -0.9220    2.2800   -2.2740 C   0  0  0  0  0  0  0  0  0  0  0  0
   -1.2550    1.1260   -1.4130 C   0  0  0  0  0  0  0  0  0  0  0  0
   -0.2220    0.4750   -0.7020 O   0  0  0  0  0  0  0  0  0  0  0  0
    1.0550    0.9410   -0.4820 C   0  0  0  0  0  0  0  0  0  0  0  0
    1.8400   -0.0740    0.3140 C   0  0  0  0  0  0  0  0  0  0  0  0
    2.5730   -1.0070   -0.3830 C   0  0  0  0  0  0  0  0  0  0  0  0
    3.3180   -1.9740    0.3060 C   0  0  0  0  0  0  0  0  0  0  0  0
    4.1090   -2.9840   -0.4380 C   0  0  0  0  0  0  0  0  0  0  0  0
    3.2970   -1.9650    1.6770 C   0  0  0  0  0  0  0  0  0  0  0  0
    4.0770   -2.9690    2.4160 C   0  0  0  0  0  0  0  0  0  0  0  0
    5.5590   -2.5710    2.3850 C   0  0  0  0  0  0  0  0  0  0  0  0
    2.5680   -1.0370    2.3920 C   0  0  0  0  0  0  0  0  0  0  0  0
    2.5920   -1.0870    3.8690 C   0  0  0  0  0  0  0  0  0  0  0  0
    1.8320   -0.0810    1.6850 C   0  0  0  0  0  0  0  0  0  0  0  0
   -2.4540    0.6210   -1.2360 C   0  0  0  0  0  0  0  0  0  0  0  0
   -2.6280   -0.5370   -0.3370 C   0  0  0  0  0  0  0  0  0  0  0  0
   -1.4010   -0.9310    0.2080 O   0  0  0  0  0  0  0  0  0  0  0  0
   -3.6050    1.1400   -1.9820 C   0  0  0  0  0  0  0  0  0  0  0  0
   -4.6300    1.9090   -1.2320 C   0  0  1  0  0  0  0  0  0  0  0  0
   -5.6670    2.3330   -2.3110 C   0  0  0  0  0  0  0  0  0  0  0  0
   -5.4370    1.0090   -0.3030 C   0  0  0  0  0  0  0  0  0  0  0  0
  1  2  1  0
  2  3  1  0
  3  4  1  0
  3 16  2  3
  4  5  1  0
  5  6  1  0
  6  7  2  0
  6 15  1  0
  7  8  1  0
  8  9  1  0
  8 10  2  0
 10 11  1  0
 10 13  1  0
 11 12  1  0
 13 14  1  0
 13 15  2  0
 16 17  1  0
 16 19  1  0
 17 18  1  0
 19 20  1  0
 20 21  1  6
 20 22  1  0
M  END
