
     RDKit          3D

 22 22  0  0  0  0  0  0  0  0999 V2000
   -6.1980    2.1280    0.6040 C   0  0  0  0  0  0  0  0  0  0  0  0
   -6.2820    0.6020    0.8110 C   0  0  0  0  0  0  0  0  0  0  0  0
   -5.7620   -0.0410   -0.3890 C   0  0  0  0  0  0  0  0  0  0  0  0
   -4.7460   -0.8570   -0.4710 C   0  0  0  0  0  0  0  0  0  0  0  0
   -3.9330   -1.2790    0.6510 C   0  0  0  0  0  0  0  0  0  0  0  0
   -2.5070   -0.8870    0.5920 C   0  0  0  0  0  0  0  0  0  0  0  0
   -1.6690   -1.3610   -0.5180 C   0  0  1  0  0  0  0  0  0  0  0  0
   -2.1040   -0.8840   -1.8730 C   0  0  0  0  0  0  0  0  0  0  0  0
   -0.2850   -0.7920   -0.3050 C   0  0  0  0  0  0  0  0  0  0  0  0
   -0.0770    0.5680   -0.2840 C   0  0  0  0  0  0  0  0  0  0  0  0
    1.1580    1.1290   -0.0930 C   0  0  0  0  0  0  0  0  0  0  0  0
    2.2740    0.2800    0.0930 C   0  0  0  0  0  0  0  0  0  0  0  0
    3.5470    0.9490    0.3320 C   0  0  0  0  0  0  0  0  0  0  0  0
    4.5650    0.3250    0.6620 O   0  0  0  0  0  0  0  0  0  0  0  0
    3.6900    2.3260    0.2020 O   0  0  0  0  0  0  0  0  0  0  0  0
    4.9020    3.0010    0.4250 C   0  0  0  0  0  0  0  0  0  0  0  0
    4.6570    4.4760    0.1840 C   0  0  0  0  0  0  0  0  0  0  0  0
    2.1010   -1.0630    0.0760 C   0  0  0  0  0  0  0  0  0  0  0  0
    3.2450   -1.9850    0.2220 C   0  0  0  0  0  0  0  0  0  0  0  0
    4.0140   -2.1660   -1.0520 C   0  0  0  0  0  0  0  0  0  0  0  0
    5.1720   -3.1070   -0.8040 C   0  0  0  0  0  0  0  0  0  0  0  0
    0.8260   -1.5740   -0.1210 C   0  0  0  0  0  0  0  0  0  0  0  0
  1  2  1  0
  2  3  1  0
  3  4  2  3
  4  5  1  0
  5  6  1  0
  6  7  1  0
  7  8  1  6
  7  9  1  0
  9 10  2  0
  9 22  1  0
 10 11  1  0
 11 12  2  0
 12 13  1  0
 12 18  1  0
 13 14  2  0
 13 15  1  0
 15 16  1  0
 16 17  1  0
 18 19  1  0
 18 22  2  0
 19 20  1  0
 20 21  1  0
M  END
