
     RDKit          3D

 22 22  0  0  0  0  0  0  0  0999 V2000
    5.1530   -3.0910    1.7760 C   0  0  0  0  0  0  0  0  0  0  0  0
    4.4890   -3.0320    0.6420 C   0  0  0  0  0  0  0  0  0  0  0  0
    3.2240   -2.2620    0.5780 C   0  0  0  0  0  0  0  0  0  0  0  0
    3.4090   -1.1820   -0.4480 C   0  0  0  0  0  0  0  0  0  0  0  0
    2.3180   -0.3460   -0.6490 O   0  0  0  0  0  0  0  0  0  0  0  0
    1.7010    0.4480    0.2500 C   0  0  0  0  0  0  0  0  0  0  0  0
    2.2080    0.4030    1.4310 O   0  0  0  0  0  0  0  0  0  0  0  0
    0.5760    1.3450    0.1120 C   0  0  0  0  0  0  0  0  0  0  0  0
    0.8730    2.6550   -0.2960 C   0  0  0  0  0  0  0  0  0  0  0  0
    2.2990    2.9570   -0.6540 C   0  0  0  0  0  0  0  0  0  0  0  0
   -0.0560    3.6390   -0.3810 C   0  0  0  0  0  0  0  0  0  0  0  0
   -1.3570    3.3600   -0.0550 C   0  0  0  0  0  0  0  0  0  0  0  0
   -2.3920    4.4210   -0.1390 C   0  0  0  0  0  0  0  0  0  0  0  0
   -1.6810    2.0670    0.3530 C   0  0  0  0  0  0  0  0  0  0  0  0
   -3.0850    1.8450    0.7000 C   0  0  0  0  0  0  0  0  0  0  0  0
   -0.7450    1.0420    0.4460 C   0  0  0  0  0  0  0  0  0  0  0  0
   -1.1470   -0.3150    0.8430 C   0  0  0  0  0  0  0  0  0  0  0  0
   -1.5530   -1.2680   -0.2100 C   0  0  2  0  0  0  0  0  0  0  0  0
   -1.9340   -2.6290    0.4220 C   0  0  0  0  0  0  0  0  0  0  0  0
   -0.4830   -1.5970   -1.2050 C   0  0  0  0  0  0  0  0  0  0  0  0
   -2.7630   -0.8290   -1.0130 C   0  0  0  0  0  0  0  0  0  0  0  0
   -3.1260   -1.8660   -2.0790 C   0  0  0  0  0  0  0  0  0  0  0  0
  1  2  2  0
  2  3  1  0
  3  4  1  0
  4  5  1  0
  5  6  1  0
  6  7  2  0
  6  8  1  0
  8  9  2  0
  8 16  1  0
  9 10  1  0
  9 11  1  0
 11 12  2  0
 12 13  1  0
 12 14  1  0
 14 15  1  0
 14 16  2  0
 16 17  1  0
 17 18  1  0
 18 19  1  1
 18 20  1  0
 18 21  1  0
 21 22  1  0
M  END
