
     RDKit          3D

 22 23  0  0  0  0  0  0  0  0999 V2000
    6.3010    1.8450    1.5470 C   0  0  0  0  0  0  0  0  0  0  0  0
    5.8800    1.1390    0.4390 C   0  0  0  0  0  0  0  0  0  0  0  0
    6.2210   -0.1930    0.2720 C   0  0  0  0  0  0  0  0  0  0  0  0
    6.4950   -1.3840    0.0730 C   0  0  0  0  0  0  0  0  0  0  0  0
    4.5770   -0.4620   -0.5680 C   0  0  0  0  0  0  0  0  0  0  0  0
    3.7600    0.1200    0.4970 C   0  0  0  0  0  0  0  0  0  0  0  0
    2.3600    0.3210    0.1450 C   0  0  0  0  0  0  0  0  0  0  0  0
    1.5340   -1.0000   -0.0900 C   0  0  1  0  0  0  0  0  0  0  0  0
    1.6380   -1.8770    0.9750 O   0  0  0  0  0  0  0  0  0  0  0  0
    0.1260   -0.4740   -0.1870 C   0  0  0  0  0  0  0  0  0  0  0  0
   -1.0380   -1.0050   -0.4600 O   0  0  0  0  0  0  0  0  0  0  0  0
   -2.1910   -0.1600   -0.1660 C   0  0  0  0  0  0  0  0  0  0  0  0
   -2.1180    1.0550    0.4380 C   0  0  0  0  0  0  0  0  0  0  0  0
   -3.3000    1.7640    0.7080 C   0  0  0  0  0  0  0  0  0  0  0  0
   -3.1630    3.0400    1.4540 C   0  0  0  0  0  0  0  0  0  0  0  0
   -4.5200    1.2240    0.3400 C   0  0  0  0  0  0  0  0  0  0  0  0
   -5.7460    1.9630    0.4640 C   0  0  0  0  0  0  0  0  0  0  0  0
   -4.5410   -0.0560   -0.3060 C   0  0  0  0  0  0  0  0  0  0  0  0
   -3.3550   -0.7390   -0.5500 C   0  0  0  0  0  0  0  0  0  0  0  0
   -3.2930   -2.0900   -1.2080 C   0  0  1  0  0  0  0  0  0  0  0  0
   -4.1820   -3.2270   -0.6310 C   0  0  0  0  0  0  0  0  0  0  0  0
   -4.6700   -2.5970   -1.8880 C   0  0  0  0  0  0  0  0  0  0  0  0
  1  2  2  0
  2  3  1  0
  3  4  2  0
  3  5  1  0
  5  6  1  0
  6  7  1  0
  7  8  1  0
  8  9  1  1
  8 10  1  0
 10 11  1  0
 11 12  1  0
 12 13  2  0
 12 19  1  0
 13 14  1  0
 14 15  1  0
 14 16  2  0
 16 17  1  0
 16 18  1  0
 18 19  2  0
 20 19  1  1
 20 21  1  0
 20 22  1  0
 21 22  1  0
M  END
