
     RDKit          3D

 22 22  0  0  0  0  0  0  0  0999 V2000
   -7.9950   -0.6680   -0.6180 C   0  0  0  0  0  0  0  0  0  0  0  0
   -6.9480   -1.1610    0.2840 C   0  0  0  0  0  0  0  0  0  0  0  0
   -5.6600   -1.0240   -0.0600 C   0  0  0  0  0  0  0  0  0  0  0  0
   -4.6660   -1.5590    0.9270 C   0  0  0  0  0  0  0  0  0  0  0  0
   -5.3240   -0.4070   -1.3370 C   0  0  0  0  0  0  0  0  0  0  0  0
   -4.5230    0.8380   -1.3150 C   0  0  0  0  0  0  0  0  0  0  0  0
   -3.2000    0.7300   -0.6920 C   0  0  0  0  0  0  0  0  0  0  0  0
   -2.9400    1.0040    0.6320 C   0  0  0  0  0  0  0  0  0  0  0  0
   -1.6670    0.8790    1.1460 C   0  0  0  0  0  0  0  0  0  0  0  0
   -0.5920    0.4780    0.3800 C   0  0  0  0  0  0  0  0  0  0  0  0
    0.7610    0.3550    0.9690 C   0  0  0  0  0  0  0  0  0  0  0  0
    1.5510    1.6490    0.8670 C   0  0  0  0  0  0  0  0  0  0  0  0
    2.9110    1.3560    1.5140 C   0  0  0  0  0  0  0  0  0  0  0  0
    3.4770    0.3330    0.7900 O   0  0  0  0  0  0  0  0  0  0  0  0
    4.7190   -0.0650    1.2380 C   0  0  0  0  0  0  0  0  0  0  0  0
    5.1890   -1.1950    0.3280 C   0  0  2  0  0  0  0  0  0  0  0  0
    6.4280   -1.6200    0.7330 O   0  0  0  0  0  0  0  0  0  0  0  0
    5.1270   -0.7140   -1.0830 C   0  0  0  0  0  0  0  0  0  0  0  0
    6.0030    0.4820   -1.2880 C   0  0  0  0  0  0  0  0  0  0  0  0
    7.4290    0.1030   -0.9640 C   0  0  0  0  0  0  0  0  0  0  0  0
   -0.8530    0.2050   -0.9460 C   0  0  0  0  0  0  0  0  0  0  0  0
   -2.1190    0.3250   -1.4750 C   0  0  0  0  0  0  0  0  0  0  0  0
  1  2  1  0
  2  3  2  3
  3  4  1  0
  3  5  1  0
  5  6  1  0
  6  7  1  0
  7  8  2  0
  7 22  1  0
  8  9  1  0
  9 10  2  0
 10 11  1  0
 10 21  1  0
 11 12  1  0
 12 13  1  0
 13 14  1  0
 14 15  1  0
 15 16  1  0
 16 17  1  1
 16 18  1  0
 18 19  1  0
 19 20  1  0
 21 22  2  0
M  END
