
     RDKit          3D

 22 22  0  0  0  0  0  0  0  0999 V2000
   -2.5890   -2.0500   -0.4990 C   0  0  0  0  0  0  0  0  0  0  0  0
   -1.4340   -1.2790    0.0480 C   0  0  0  0  0  0  0  0  0  0  0  0
   -1.6460    0.1460    0.4110 C   0  0  1  0  0  0  0  0  0  0  0  0
   -2.6490    0.4690    1.4440 C   0  0  0  0  0  0  0  0  0  0  0  0
   -4.0710    0.1130    1.1620 C   0  0  0  0  0  0  0  0  0  0  0  0
   -4.5630    0.8820   -0.0240 C   0  0  0  0  0  0  0  0  0  0  0  0
   -6.0000    0.5650   -0.3710 C   0  0  2  0  0  0  0  0  0  0  0  0
   -6.9490    0.8790    0.7500 C   0  0  0  0  0  0  0  0  0  0  0  0
   -6.1870   -0.8450   -0.8180 C   0  0  0  0  0  0  0  0  0  0  0  0
   -0.4240    0.7690    0.6630 O   0  0  0  0  0  0  0  0  0  0  0  0
   -0.0730    1.7140   -0.2510 C   0  0  0  0  0  0  0  0  0  0  0  0
    1.2320    2.3860    0.0090 C   0  0  0  0  0  0  0  0  0  0  0  0
    2.3670    1.3970    0.0250 C   0  0  0  0  0  0  0  0  0  0  0  0
    3.0360    1.1070   -1.1520 C   0  0  0  0  0  0  0  0  0  0  0  0
    4.0840    0.2060   -1.1880 C   0  0  0  0  0  0  0  0  0  0  0  0
    4.4890   -0.4280   -0.0470 C   0  0  0  0  0  0  0  0  0  0  0  0
    5.6130   -1.4020   -0.0560 C   0  0  0  0  0  0  0  0  0  0  0  0
    6.8900   -0.6470    0.2040 C   0  0  0  0  0  0  0  0  0  0  0  0
    8.0910   -1.5600    0.2130 C   0  0  0  0  0  0  0  0  0  0  0  0
    9.2190   -0.7590    0.4620 O   0  0  0  0  0  0  0  0  0  0  0  0
    3.8170   -0.1390    1.1450 C   0  0  0  0  0  0  0  0  0  0  0  0
    2.7750    0.7620    1.1610 C   0  0  0  0  0  0  0  0  0  0  0  0
  1  2  1  0
  3  2  1  1
  3  4  1  0
  3 10  1  0
  4  5  1  0
  5  6  1  0
  6  7  1  0
  7  8  1  1
  7  9  1  0
 10 11  1  0
 11 12  1  0
 12 13  1  0
 13 14  2  0
 13 22  1  0
 14 15  1  0
 15 16  2  0
 16 17  1  0
 16 21  1  0
 17 18  1  0
 18 19  1  0
 19 20  1  0
 21 22  2  0
M  END
