
     RDKit          3D

 22 22  0  0  0  0  0  0  0  0999 V2000
    7.5600   -1.1950    0.2660 C   0  0  0  0  0  0  0  0  0  0  0  0
    6.6650   -1.2870   -0.6900 C   0  0  0  0  0  0  0  0  0  0  0  0
    5.4790   -2.1720   -0.5090 C   0  0  0  0  0  0  0  0  0  0  0  0
    4.3620   -1.3320   -0.5990 O   0  0  0  0  0  0  0  0  0  0  0  0
    3.0260   -1.6690   -0.5290 C   0  0  0  0  0  0  0  0  0  0  0  0
    2.7050   -2.8540   -0.3690 O   0  0  0  0  0  0  0  0  0  0  0  0
    1.9860   -0.5440   -0.6540 C   0  0  0  0  0  0  0  0  0  0  0  0
    2.7110    0.7180   -0.3470 C   0  0  0  0  0  0  0  0  0  0  0  0
    2.0200    2.0040   -0.4210 C   0  0  0  0  0  0  0  0  0  0  0  0
    0.8670    2.2450    0.4520 C   0  0  1  0  0  0  0  0  0  0  0  0
    0.3750    3.7230    0.1860 C   0  0  0  0  0  0  0  0  0  0  0  0
   -0.3040    1.3750    0.3540 C   0  0  0  0  0  0  0  0  0  0  0  0
   -0.9070    0.9400   -0.8050 C   0  0  0  0  0  0  0  0  0  0  0  0
   -2.0420    0.1650   -0.8190 C   0  0  0  0  0  0  0  0  0  0  0  0
   -2.6430   -0.2180    0.3470 C   0  0  0  0  0  0  0  0  0  0  0  0
   -3.8740   -1.0480    0.3590 C   0  0  2  0  0  0  0  0  0  0  0  0
   -3.8710   -2.0990    1.4550 C   0  0  0  0  0  0  0  0  0  0  0  0
   -4.0340   -1.8070   -0.9470 C   0  0  0  0  0  0  0  0  0  0  0  0
   -5.0630   -0.1650    0.6370 C   0  0  0  0  0  0  0  0  0  0  0  0
   -5.2900    0.9200   -0.3670 C   0  0  0  0  0  0  0  0  0  0  0  0
   -2.0700    0.1970    1.5200 C   0  0  0  0  0  0  0  0  0  0  0  0
   -0.9200    0.9810    1.5330 C   0  0  0  0  0  0  0  0  0  0  0  0
  1  2  2  0
  2  3  1  0
  3  4  1  0
  4  5  1  0
  5  6  2  0
  5  7  1  0
  7  8  1  0
  8  9  1  0
  9 10  1  0
 10 11  1  6
 10 12  1  0
 12 13  2  0
 12 22  1  0
 13 14  1  0
 14 15  2  0
 15 16  1  0
 15 21  1  0
 16 17  1  1
 16 18  1  0
 16 19  1  0
 19 20  1  0
 21 22  2  0
M  END
