
     RDKit          3D

 25 27  0  0  0  0  0  0  0  0999 V2000
    0.3000   -2.6860    1.4110 N   0  0  0  0  0  0  0  0  0  0  0  0
   -0.8760   -1.9270    1.1440 C   0  0  0  0  0  0  0  0  0  0  0  0
   -1.9970   -2.3590    1.4810 O   0  0  0  0  0  0  0  0  0  0  0  0
   -0.7550   -0.6500    0.4780 C   0  0  0  0  0  0  0  0  0  0  0  0
   -1.7310    0.1770    0.1760 C   0  0  0  0  0  0  0  0  0  0  0  0
   -3.1380    0.0190    0.4380 C   0  0  0  0  0  0  0  0  0  0  0  0
   -3.6060   -0.1560    1.7250 C   0  0  0  0  0  0  0  0  0  0  0  0
   -4.9500   -0.3380    1.9530 C   0  0  0  0  0  0  0  0  0  0  0  0
   -5.8310   -0.3430    0.8800 C   0  0  0  0  0  0  0  0  0  0  0  0
   -5.3570   -0.1670   -0.3950 C   0  0  0  0  0  0  0  0  0  0  0  0
   -3.9920    0.0200   -0.6670 C   0  0  0  0  0  0  0  0  0  0  0  0
   -3.5350    0.1900   -2.0330 C   0  0  0  0  0  0  0  0  0  0  0  0
   -4.4570    0.2080   -3.0980 N   0  0  0  0  0  0  0  0  0  0  0  0
   -2.3230    0.3210   -2.2760 O   0  0  0  0  0  0  0  0  0  0  0  0
    0.5950   -0.2680    0.1150 N   0  0  0  0  0  0  0  0  0  0  0  0
    1.1930   -0.9910   -0.9720 C   0  0  0  0  0  0  0  0  0  0  0  0
    2.5980   -0.5400   -1.2630 C   0  0  0  0  0  0  0  0  0  0  0  0
    3.3660   -0.2080   -0.0020 C   0  0  1  0  0  0  0  0  0  0  0  0
    4.7320    0.2410   -0.4530 C   0  0  0  0  0  0  0  0  0  0  0  0
    5.3540    1.2780    0.4010 C   0  0  0  0  0  0  0  0  0  0  0  0
    6.6690    1.1970    0.7460 F   0  0  0  0  0  0  0  0  0  0  0  0
    4.5920    2.2800    0.8160 C   0  0  0  0  0  0  0  0  0  0  0  0
    3.1750    2.2380    0.3640 C   0  0  0  0  0  0  0  0  0  0  0  0
    2.6850    0.8450    0.7910 C   0  0  1  0  0  0  0  0  0  0  0  0
    1.2030    0.7790    0.8570 C   0  0  0  0  0  0  0  0  0  0  0  0
  1  2  1  0
  2  3  2  0
  2  4  1  0
  4  5  2  3
  4 15  1  0
  5  6  1  0
  6  7  2  0
  6 11  1  0
  7  8  1  0
  8  9  2  0
  9 10  1  0
 10 11  2  0
 11 12  1  0
 12 13  1  0
 12 14  2  0
 15 16  1  0
 15 25  1  0
 16 17  1  0
 18 17  1  6
 18 19  1  0
 18 24  1  0
 19 20  1  0
 20 21  1  0
 20 22  2  0
 22 23  1  0
 24 23  1  6
 24 25  1  0
M  END
