
     RDKit          3D

 26 28  0  0  0  0  0  0  0  0999 V2000
    3.5270    0.8980    1.9680 N   0  0  0  0  0  0  0  0  0  0  0  0
    2.7940   -0.3100    2.1190 C   0  0  0  0  0  0  0  0  0  0  0  0
    3.4030   -1.3450    2.5190 O   0  0  0  0  0  0  0  0  0  0  0  0
    1.3600   -0.3910    1.8240 C   0  0  0  0  0  0  0  0  0  0  0  0
    0.9580   -0.4620    0.4060 C   0  0  1  0  0  0  0  0  0  0  0  0
    1.3270   -1.4480   -0.4720 N   0  0  0  0  0  0  0  0  0  0  0  0
    2.6220   -1.7270   -0.8790 C   0  0  0  0  0  0  0  0  0  0  0  0
    3.3320   -0.7280   -1.7380 C   0  0  0  0  0  0  0  0  0  0  0  0
    3.5040    0.5190   -1.1890 O   0  0  0  0  0  0  0  0  0  0  0  0
   -0.4580    0.0110    0.2690 C   0  0  0  0  0  0  0  0  0  0  0  0
   -1.4900   -0.7270    0.2380 C   0  0  0  0  0  0  0  0  0  0  0  0
   -1.8060   -2.1320    0.3110 C   0  0  0  0  0  0  0  0  0  0  0  0
   -3.0740   -2.5780    0.1610 C   0  0  0  0  0  0  0  0  0  0  0  0
   -3.1290   -4.0380    0.2830 C   0  0  0  0  0  0  0  0  0  0  0  0
   -1.7630   -4.4290    0.5760 C   0  0  0  0  0  0  0  0  0  0  0  0
   -1.0180   -3.2990    0.5800 C   0  0  0  0  0  0  0  0  0  0  0  0
    0.2860   -3.3680    0.8870 F   0  0  0  0  0  0  0  0  0  0  0  0
   -0.5750    1.5050    0.1770 C   0  0  0  0  0  0  0  0  0  0  0  0
    0.3660    2.2540    0.7580 N   0  0  0  0  0  0  0  0  0  0  0  0
    0.4180    3.5670    0.7150 C   0  0  0  0  0  0  0  0  0  0  0  0
   -0.5540    4.2480    0.0270 C   0  0  0  0  0  0  0  0  0  0  0  0
   -1.5530    3.5500   -0.6000 C   0  0  0  0  0  0  0  0  0  0  0  0
   -1.5780    2.1470   -0.5320 C   0  0  0  0  0  0  0  0  0  0  0  0
   -2.5520    1.7170   -1.3160 C   0  0  0  0  0  0  0  0  0  0  0  0
   -3.3390    2.8730   -1.7900 C   0  0  0  0  0  0  0  0  0  0  0  0
   -2.5400    4.0130   -1.3320 C   0  0  0  0  0  0  0  0  0  0  0  0
  1  2  1  0
  2  3  2  0
  2  4  1  0
  5  4  1  1
  5  6  1  0
  5 10  1  0
  6  7  1  0
  7  8  1  0
  8  9  1  0
 10 11  2  3
 10 18  1  0
 11 12  1  0
 12 13  2  0
 12 16  1  0
 13 14  1  0
 14 15  1  0
 15 16  2  0
 16 17  1  0
 18 19  2  0
 18 23  1  0
 19 20  1  0
 20 21  2  0
 21 22  1  0
 22 23  1  0
 22 26  2  0
 23 24  2  0
 24 25  1  0
 25 26  1  0
M  END
