
     RDKit          3D

 23 24  0  0  0  0  0  0  0  0999 V2000
   -3.3820    3.0850    0.3290 C   0  0  0  0  0  0  0  0  0  0  0  0
   -2.9150    1.6870    0.2080 C   0  0  0  0  0  0  0  0  0  0  0  0
   -3.6440    0.6580    0.6890 N   0  0  0  0  0  0  0  0  0  0  0  0
   -3.2260   -0.6110    0.5820 C   0  0  0  0  0  0  0  0  0  0  0  0
   -3.9450   -1.6900    1.0630 C   0  0  0  0  0  0  0  0  0  0  0  0
   -5.0310   -1.4680    1.6200 O   0  0  0  0  0  0  0  0  0  0  0  0
   -3.4020   -2.9070    0.8850 N   0  0  0  0  0  0  0  0  0  0  0  0
   -2.2340   -3.1310    0.2840 C   0  0  0  0  0  0  0  0  0  0  0  0
   -1.8110   -4.3070    0.1670 O   0  0  0  0  0  0  0  0  0  0  0  0
   -1.5130   -2.0970   -0.1930 N   0  0  0  0  0  0  0  0  0  0  0  0
   -1.9450   -0.8340   -0.0790 C   0  0  0  0  0  0  0  0  0  0  0  0
   -1.2360    0.2190   -0.5510 N   0  0  0  0  0  0  0  0  0  0  0  0
    0.0240   -0.0440   -1.1970 C   0  0  0  0  0  0  0  0  0  0  0  0
    1.1490   -0.0260   -0.1830 C   0  0  2  0  0  0  0  0  0  0  0  0
    1.1790    1.2160    0.4030 O   0  0  0  0  0  0  0  0  0  0  0  0
    2.4150   -0.3980   -0.8990 C   0  0  2  0  0  0  0  0  0  0  0  0
    2.2060   -1.6910   -1.4340 O   0  0  0  0  0  0  0  0  0  0  0  0
    3.6020   -0.4990    0.0090 C   0  0  2  0  0  0  0  0  0  0  0  0
    3.3580   -1.4070    1.0210 O   0  0  0  0  0  0  0  0  0  0  0  0
    4.0880    0.8190    0.5270 C   0  0  0  0  0  0  0  0  0  0  0  0
    5.2850    0.5680    1.2270 O   0  0  0  0  0  0  0  0  0  0  0  0
   -1.6870    1.4720   -0.4250 C   0  0  0  0  0  0  0  0  0  0  0  0
   -0.9710    2.5680   -0.9050 O   0  0  0  0  0  0  0  0  0  0  0  0
  1  2  1  0
  2  3  1  0
  2 22  2  0
  3  4  2  0
  4  5  1  0
  4 11  1  0
  5  6  2  0
  5  7  1  0
  7  8  1  0
  8  9  2  0
  8 10  1  0
 10 11  2  0
 11 12  1  0
 12 13  1  0
 12 22  1  0
 13 14  1  0
 14 15  1  6
 14 16  1  0
 16 17  1  1
 16 18  1  0
 18 19  1  1
 18 20  1  0
 20 21  1  0
 22 23  1  0
M  END
