
     RDKit          3D

 17 17  0  0  0  0  0  0  0  0999 V2000
    3.4610   -2.4430   -0.8880 C   0  0  0  0  0  0  0  0  0  0  0  0
    2.9780   -1.1150   -0.3150 C   0  0  0  0  0  0  0  0  0  0  0  0
    1.5990   -0.8730   -0.9540 C   0  0  0  0  0  0  0  0  0  0  0  0
    1.0590    0.4010   -0.4450 C   0  0  0  0  0  0  0  0  0  0  0  0
   -0.0380    0.6960    0.1690 C   0  0  0  0  0  0  0  0  0  0  0  0
   -1.1310   -0.1450    0.5700 C   0  0  0  0  0  0  0  0  0  0  0  0
   -2.0940    0.4480    1.2260 O   0  0  0  0  0  0  0  0  0  0  0  0
   -1.3460   -1.5790    0.3510 C   0  0  2  0  0  0  0  0  0  0  0  0
   -1.5820   -1.8400   -1.1220 C   0  0  0  0  0  0  0  0  0  0  0  0
   -2.5810   -2.0100    1.1550 C   0  0  0  0  0  0  0  0  0  0  0  0
   -3.8100   -1.2730    0.7410 C   0  0  0  0  0  0  0  0  0  0  0  0
   -0.0220    2.1540    0.4260 C   0  0  0  0  0  0  0  0  0  0  0  0
   -1.1230    2.8960    1.1220 C   0  0  0  0  0  0  0  0  0  0  0  0
    1.0780    2.7020   -0.0380 C   0  0  0  0  0  0  0  0  0  0  0  0
    1.4150    4.1690    0.0560 C   0  0  0  0  0  0  0  0  0  0  0  0
    1.8580    1.6540   -0.6270 C   0  0  0  0  0  0  0  0  0  0  0  0
    2.9700    1.7680   -1.1760 O   0  0  0  0  0  0  0  0  0  0  0  0
  1  2  1  0
  2  3  1  0
  3  4  1  0
  4  5  2  0
  4 16  1  0
  5  6  1  0
  5 12  1  0
  6  7  2  0
  6  8  1  0
  8  9  1  6
  8 10  1  0
 10 11  1  0
 12 13  1  0
 12 14  2  0
 14 15  1  0
 14 16  1  0
 16 17  2  0
M  END
