
     RDKit          3D

 25 27  0  0  0  0  0  0  0  0999 V2000
   -6.1860   -1.3970    0.8630 C   0  0  0  0  0  0  0  0  0  0  0  0
   -4.9920   -0.4730    1.1400 C   0  0  2  0  0  0  0  0  0  0  0  0
   -5.4450    0.8100    0.9910 F   0  0  0  0  0  0  0  0  0  0  0  0
   -3.8860   -0.7650    0.1800 C   0  0  0  0  0  0  0  0  0  0  0  0
   -2.6540    0.1030    0.3710 C   0  0  2  0  0  0  0  0  0  0  0  0
   -3.1020    1.5320    0.1720 C   0  0  0  0  0  0  0  0  0  0  0  0
   -2.0370    2.4100   -0.4160 C   0  0  0  0  0  0  0  0  0  0  0  0
   -1.5010    1.8660   -1.7230 C   0  0  0  0  0  0  0  0  0  0  0  0
   -1.9190    0.4320   -1.9620 C   0  0  0  0  0  0  0  0  0  0  0  0
   -1.6740   -0.3490   -0.6630 C   0  0  1  0  0  0  0  0  0  0  0  0
   -0.2640   -0.1410   -0.3240 C   0  0  0  0  0  0  0  0  0  0  0  0
    0.8060   -0.2710   -1.1180 N   0  0  0  0  0  0  0  0  0  0  0  0
    1.9150    0.0110   -0.4290 C   0  0  0  0  0  0  0  0  0  0  0  0
    3.3240   -0.0070   -0.9170 C   0  0  0  0  0  0  0  0  0  0  0  0
    3.9450   -1.3810   -0.7170 C   0  0  0  0  0  0  0  0  0  0  0  0
    5.3690   -1.4150   -1.2050 C   0  0  0  0  0  0  0  0  0  0  0  0
    6.2360   -0.4940   -0.5490 N   0  0  0  0  0  0  0  0  0  0  0  0
    6.4580   -0.5560    0.8480 C   0  0  0  0  0  0  0  0  0  0  0  0
    7.3310    0.3730    1.5070 N   0  0  0  0  0  0  0  0  0  0  0  0
    5.9170   -1.4130    1.5920 O   0  0  0  0  0  0  0  0  0  0  0  0
    1.5320    0.3330    0.8580 C   0  0  0  0  0  0  0  0  0  0  0  0
    0.1590    0.2390    0.9300 C   0  0  0  0  0  0  0  0  0  0  0  0
   -0.8470    0.4390    1.9560 C   0  0  0  0  0  0  0  0  0  0  0  0
   -0.5800    1.1060    2.9810 O   0  0  0  0  0  0  0  0  0  0  0  0
   -2.1800   -0.1450    1.7860 C   0  0  0  0  0  0  0  0  0  0  0  0
  2  1  1  6
  2  3  1  0
  2  4  1  0
  5  4  1  6
  5  6  1  0
  5 10  1  0
  5 25  1  0
  6  7  1  0
  7  8  1  0
  8  9  1  0
 10  9  1  6
 10 11  1  0
 11 12  1  0
 11 22  2  0
 12 13  1  0
 13 14  1  0
 13 21  2  0
 14 15  1  0
 15 16  1  0
 16 17  1  0
 17 18  1  0
 18 19  1  0
 18 20  2  0
 21 22  1  0
 22 23  1  0
 23 24  2  0
 23 25  1  0
M  END
