
     RDKit          3D

 26 28  0  0  0  0  0  0  0  0999 V2000
    7.0390    1.7140    0.1170 C   0  0  0  0  0  0  0  0  0  0  0  0
    6.2210    1.5520   -0.9130 C   0  0  0  0  0  0  0  0  0  0  0  0
    4.8300    2.0820   -0.8650 C   0  0  0  0  0  0  0  0  0  0  0  0
    3.8790    0.9710   -1.0240 N   0  0  0  0  0  0  0  0  0  0  0  0
    2.4910    1.1680   -1.0180 C   0  0  0  0  0  0  0  0  0  0  0  0
    2.0960    2.3720   -0.8670 O   0  0  0  0  0  0  0  0  0  0  0  0
    1.5020    0.1770   -1.1620 N   0  0  0  0  0  0  0  0  0  0  0  0
    1.8260   -1.2110   -1.3390 C   0  0  0  0  0  0  0  0  0  0  0  0
    1.1140   -2.0910   -0.2880 C   0  0  0  0  0  0  0  0  0  0  0  0
   -0.3030   -1.7340   -0.2960 C   0  0  1  0  0  0  0  0  0  0  0  0
   -1.1930   -2.2680    0.7440 C   0  0  0  0  0  0  0  0  0  0  0  0
   -1.1110   -3.2230    1.5860 C   0  0  0  0  0  0  0  0  0  0  0  0
   -0.0200   -4.1540    1.7960 C   0  0  0  0  0  0  0  0  0  0  0  0
   -0.5040   -5.4510    1.5500 F   0  0  0  0  0  0  0  0  0  0  0  0
   -2.3690   -1.3250    0.6240 C   0  0  0  0  0  0  0  0  0  0  0  0
   -1.9020   -0.1430    0.2250 C   0  0  0  0  0  0  0  0  0  0  0  0
   -2.9010    0.9380    0.0450 C   0  0  0  0  0  0  0  0  0  0  0  0
   -2.5350    2.1540    0.2450 C   0  0  0  0  0  0  0  0  0  0  0  0
   -3.3620    3.3230    0.1180 C   0  0  0  0  0  0  0  0  0  0  0  0
   -2.8340    4.6480    0.3720 N   0  0  0  0  0  0  0  0  0  0  0  0
   -4.5690    3.2890   -0.2140 O   0  0  0  0  0  0  0  0  0  0  0  0
   -4.2400    0.4610   -0.3350 C   0  0  0  0  0  0  0  0  0  0  0  0
   -4.6880   -0.4600    0.7930 C   0  0  0  0  0  0  0  0  0  0  0  0
   -3.7790   -1.6310    0.9060 C   0  0  0  0  0  0  0  0  0  0  0  0
   -0.4550   -0.2420    0.0570 C   0  0  2  0  0  0  0  0  0  0  0  0
    0.0670    0.5120   -1.1390 C   0  0  0  0  0  0  0  0  0  0  0  0
  1  2  2  0
  2  3  1  0
  3  4  1  0
  4  5  1  0
  5  6  2  0
  5  7  1  0
  7  8  1  0
  7 26  1  0
  8  9  1  0
 10  9  1  1
 10 11  1  0
 10 25  1  0
 11 12  2  3
 11 15  1  0
 12 13  1  0
 13 14  1  0
 15 16  2  0
 15 24  1  0
 16 17  1  0
 16 25  1  0
 17 18  2  3
 17 22  1  0
 18 19  1  0
 19 20  1  0
 19 21  2  0
 22 23  1  0
 23 24  1  0
 25 26  1  6
M  END
