
     RDKit          3D

 26 28  0  0  0  0  0  0  0  0999 V2000
    4.0460    2.3680    2.0650 C   0  0  0  0  0  0  0  0  0  0  0  0
    3.3820    1.5490    0.9490 C   0  0  2  0  0  0  0  0  0  0  0  0
    1.9590    1.7780    1.0910 N   0  0  0  0  0  0  0  0  0  0  0  0
    1.1290    2.3230    0.0680 C   0  0  0  0  0  0  0  0  0  0  0  0
    1.7090    2.5960   -1.0160 O   0  0  0  0  0  0  0  0  0  0  0  0
   -0.2730    2.5380    0.2820 N   0  0  0  0  0  0  0  0  0  0  0  0
   -1.0670    3.0860   -0.7840 C   0  0  0  0  0  0  0  0  0  0  0  0
   -1.0560    2.1550   -1.9610 C   0  0  0  0  0  0  0  0  0  0  0  0
   -1.6540    0.8650   -1.5670 C   0  0  0  0  0  0  0  0  0  0  0  0
   -0.9390   -0.2010   -1.0900 C   0  0  0  0  0  0  0  0  0  0  0  0
   -1.5880   -1.3650   -0.7360 C   0  0  0  0  0  0  0  0  0  0  0  0
   -2.9760   -1.5220   -0.8400 C   0  0  0  0  0  0  0  0  0  0  0  0
   -3.6610   -0.4380   -1.3200 C   0  0  0  0  0  0  0  0  0  0  0  0
   -3.0230    0.7530   -1.6850 C   0  0  0  0  0  0  0  0  0  0  0  0
   -5.1580   -0.4900   -1.4750 C   0  0  0  0  0  0  0  0  0  0  0  0
   -5.6140   -1.4440   -0.3600 C   0  0  0  0  0  0  0  0  0  0  0  0
   -5.0320   -2.7380   -0.6230 N   0  0  0  0  0  0  0  0  0  0  0  0
   -3.6060   -2.7950   -0.4400 C   0  0  0  0  0  0  0  0  0  0  0  0
    3.7530    0.1230    1.1520 C   0  0  0  0  0  0  0  0  0  0  0  0
    4.3780   -0.3650    2.2600 C   0  0  0  0  0  0  0  0  0  0  0  0
    4.6810   -1.7100    2.3800 C   0  0  0  0  0  0  0  0  0  0  0  0
    4.3580   -2.5980    1.3770 C   0  0  0  0  0  0  0  0  0  0  0  0
    4.6450   -3.9360    1.4660 O   0  0  0  0  0  0  0  0  0  0  0  0
    3.7210   -2.1330    0.2340 C   0  0  0  0  0  0  0  0  0  0  0  0
    3.4300   -0.7870    0.1400 C   0  0  0  0  0  0  0  0  0  0  0  0
    2.8150   -0.3890   -1.0040 F   0  0  0  0  0  0  0  0  0  0  0  0
  2  1  1  1
  2  3  1  0
  2 19  1  0
  3  4  1  0
  4  5  2  0
  4  6  1  0
  6  7  1  0
  7  8  1  0
  8  9  1  0
  9 10  2  0
  9 14  1  0
 10 11  1  0
 11 12  2  0
 12 13  1  0
 12 18  1  0
 13 14  2  0
 13 15  1  0
 15 16  1  0
 16 17  1  0
 17 18  1  0
 19 20  2  0
 19 25  1  0
 20 21  1  0
 21 22  2  0
 22 23  1  0
 22 24  1  0
 24 25  2  0
 25 26  1  0
M  END
