
     RDKit          3D

 17 17  0  0  0  0  0  0  0  0999 V2000
    2.4390   -0.8750    2.4000 C   0  0  0  0  0  0  0  0  0  0  0  0
    2.6410   -1.3190    1.2070 C   0  0  0  0  0  0  0  0  0  0  0  0
    2.2430   -0.8070   -0.0620 C   0  0  0  0  0  0  0  0  0  0  0  0
    2.6860   -1.5610   -1.1220 C   0  0  0  0  0  0  0  0  0  0  0  0
    2.3800   -1.1870   -2.4990 C   0  0  0  0  0  0  0  0  0  0  0  0
    1.4540    0.3440   -0.4410 C   0  0  0  0  0  0  0  0  0  0  0  0
    0.0500    0.4930   -0.0050 C   0  0  1  0  0  0  0  0  0  0  0  0
   -0.8460   -0.6400   -0.3820 C   0  0  0  0  0  0  0  0  0  0  0  0
   -0.3340   -1.6980   -0.8010 O   0  0  0  0  0  0  0  0  0  0  0  0
   -2.2210   -0.6190   -0.3010 O   0  0  0  0  0  0  0  0  0  0  0  0
   -3.0460   -1.7020   -0.6600 C   0  0  0  0  0  0  0  0  0  0  0  0
   -2.7430   -2.9120    0.1620 C   0  0  0  0  0  0  0  0  0  0  0  0
   -0.2310    0.9740    1.3640 C   0  0  0  0  0  0  0  0  0  0  0  0
   -1.5040    1.7880    1.3810 C   0  0  0  0  0  0  0  0  0  0  0  0
   -1.1580    3.1950    0.8770 C   0  0  0  0  0  0  0  0  0  0  0  0
   -0.1820    2.9910   -0.2610 C   0  0  0  0  0  0  0  0  0  0  0  0
   -0.4850    1.6650   -0.9220 C   0  0  0  0  0  0  0  0  0  0  0  0
  1  2  2  0
  2  3  1  0
  3  4  2  3
  3  6  1  0
  4  5  1  0
  7  6  1  1
  7  8  1  0
  7 13  1  0
  7 17  1  0
  8  9  2  0
  8 10  1  0
 10 11  1  0
 11 12  1  0
 13 14  1  0
 14 15  1  0
 15 16  1  0
 16 17  1  0
M  END
