
     RDKit          3D

 25 27  0  0  0  0  0  0  0  0999 V2000
    6.6920    0.6350    0.9580 C   0  0  0  0  0  0  0  0  0  0  0  0
    5.4650   -0.1730    0.7670 C   0  0  0  0  0  0  0  0  0  0  0  0
    5.4270   -1.4600    1.2530 C   0  0  0  0  0  0  0  0  0  0  0  0
    4.3010   -2.2420    1.0930 C   0  0  0  0  0  0  0  0  0  0  0  0
    4.2810   -3.5070    1.5780 F   0  0  0  0  0  0  0  0  0  0  0  0
    3.1990   -1.7060    0.4290 C   0  0  0  0  0  0  0  0  0  0  0  0
    3.2120   -0.4220   -0.0660 C   0  0  0  0  0  0  0  0  0  0  0  0
    2.0070    0.1480   -0.7860 C   0  0  1  0  0  0  0  0  0  0  0  0
    1.9930   -0.4740   -2.1960 C   0  0  0  0  0  0  0  0  0  0  0  0
    0.9020    0.0410   -2.8680 O   0  0  0  0  0  0  0  0  0  0  0  0
    0.8070   -0.1570   -0.0790 N   0  0  0  0  0  0  0  0  0  0  0  0
   -0.4580    0.4430   -0.3310 C   0  0  0  0  0  0  0  0  0  0  0  0
   -0.5880    1.6300   -1.0150 C   0  0  0  0  0  0  0  0  0  0  0  0
   -1.7950    2.2330   -1.2980 C   0  0  0  0  0  0  0  0  0  0  0  0
   -2.9740    1.6070   -0.8670 C   0  0  0  0  0  0  0  0  0  0  0  0
   -2.8470    0.4210   -0.1840 C   0  0  0  0  0  0  0  0  0  0  0  0
   -1.6340   -0.1790    0.0970 C   0  0  0  0  0  0  0  0  0  0  0  0
   -4.2360   -0.0000    0.1340 C   0  0  0  0  0  0  0  0  0  0  0  0
   -4.5390   -0.9080    1.0230 C   0  0  0  0  0  0  0  0  0  0  0  0
   -5.9060   -1.3010    1.3130 C   0  0  0  0  0  0  0  0  0  0  0  0
   -7.0470   -0.7680    0.6870 N   0  0  0  0  0  0  0  0  0  0  0  0
   -6.1250   -2.1970    2.1990 O   0  0  0  0  0  0  0  0  0  0  0  0
   -5.1350    0.7970   -0.7350 C   0  0  0  0  0  0  0  0  0  0  0  0
   -4.3420    1.9700   -0.9970 N   0  0  0  0  0  0  0  0  0  0  0  0
    4.3660    0.3240    0.1190 C   0  0  0  0  0  0  0  0  0  0  0  0
  1  2  1  0
  2  3  2  0
  2 25  1  0
  3  4  1  0
  4  5  1  0
  4  6  2  0
  6  7  1  0
  7  8  1  0
  7 25  2  0
  8  9  1  6
  8 11  1  0
  9 10  1  0
 11 12  1  0
 12 13  2  0
 12 17  1  0
 13 14  1  0
 14 15  2  0
 15 16  1  0
 15 24  1  0
 16 17  2  0
 16 18  1  0
 18 19  2  3
 18 23  1  0
 19 20  1  0
 20 21  1  0
 20 22  2  0
 23 24  1  0
M  END
