
     RDKit          3D

 20 20  0  0  0  0  0  0  0  0999 V2000
   -4.2990   -2.5120    0.7330 C   0  0  0  0  0  0  0  0  0  0  0  0
   -3.1780   -1.4530    0.4340 C   0  0  0  0  0  0  0  0  0  0  0  0
   -2.4350   -2.0000   -0.5360 O   0  0  0  0  0  0  0  0  0  0  0  0
   -1.4700   -1.3550   -1.1480 C   0  0  0  0  0  0  0  0  0  0  0  0
   -0.3010   -0.7740   -0.3900 C   0  0  2  0  0  0  0  0  0  0  0  0
    0.3430   -1.7320    0.3370 F   0  0  0  0  0  0  0  0  0  0  0  0
   -0.6170    0.4250    0.4180 C   0  0  0  0  0  0  0  0  0  0  0  0
   -1.1720    1.5680   -0.4200 C   0  0  0  0  0  0  0  0  0  0  0  0
   -1.4360    2.6620    0.4270 O   0  0  0  0  0  0  0  0  0  0  0  0
   -2.3100    2.6910    1.4760 C   0  0  0  0  0  0  0  0  0  0  0  0
   -2.9750    1.6730    1.7640 O   0  0  0  0  0  0  0  0  0  0  0  0
   -2.4390    3.8690    2.2080 O   0  0  0  0  0  0  0  0  0  0  0  0
    0.7320   -0.3900   -1.4910 C   0  0  0  0  0  0  0  0  0  0  0  0
    1.8850    0.1250   -1.0720 O   0  0  0  0  0  0  0  0  0  0  0  0
    2.7880   -0.5980   -0.3660 C   0  0  1  0  0  0  0  0  0  0  0  0
    4.1650   -0.6130   -1.0540 C   0  0  0  0  0  0  0  0  0  0  0  0
    4.7940    0.5760   -0.8050 O   0  0  0  0  0  0  0  0  0  0  0  0
    3.9940    1.6370   -0.4640 C   0  0  0  0  0  0  0  0  0  0  0  0
    3.3300    1.4430    0.7510 O   0  0  0  0  0  0  0  0  0  0  0  0
    3.0640    0.0850    0.9570 C   0  0  0  0  0  0  0  0  0  0  0  0
  1  2  1  0
  2  3  1  0
  3  4  1  0
  4  5  1  0
  5  6  1  1
  5  7  1  0
  5 13  1  0
  7  8  1  0
  8  9  1  0
  9 10  1  0
 10 11  2  0
 10 12  1  0
 13 14  1  0
 15 14  1  6
 15 16  1  0
 15 20  1  0
 16 17  1  0
 17 18  1  0
 18 19  1  0
 19 20  1  0
M  END
