
     RDKit          3D

 20 20  0  0  0  0  0  0  0  0999 V2000
    0.0560    4.7240   -0.8230 C   0  0  0  0  0  0  0  0  0  0  0  0
   -0.7450    3.4910   -0.6070 C   0  0  0  0  0  0  0  0  0  0  0  0
    0.0400    2.3230   -0.8380 O   0  0  0  0  0  0  0  0  0  0  0  0
   -0.7160    1.2730   -0.4100 O   0  0  0  0  0  0  0  0  0  0  0  0
   -0.2780    0.2540    0.4430 C   0  0  0  0  0  0  0  0  0  0  0  0
   -1.2490   -0.5980    1.0550 C   0  0  0  0  0  0  0  0  0  0  0  0
   -2.7120   -0.5110    0.8300 C   0  0  0  0  0  0  0  0  0  0  0  0
   -2.8300   -0.6870   -0.7480 C   0  0  0  0  0  0  0  0  0  0  0  0
   -4.1310   -1.4800   -0.9600 C   0  0  0  0  0  0  0  0  0  0  0  0
   -3.6660   -2.7350   -0.5610 O   0  0  0  0  0  0  0  0  0  0  0  0
   -4.1900   -3.3950    0.3780 O   0  0  0  0  0  0  0  0  0  0  0  0
   -0.5920   -1.4240    1.7870 O   0  0  0  0  0  0  0  0  0  0  0  0
    0.7130   -1.2510    1.7480 C   0  0  0  0  0  0  0  0  0  0  0  0
    1.6720   -1.9320    2.3790 F   0  0  0  0  0  0  0  0  0  0  0  0
    0.8950   -0.1770    0.8800 C   0  0  0  0  0  0  0  0  0  0  0  0
    2.2090    0.3210    0.3220 C   0  0  0  0  0  0  0  0  0  0  0  0
    3.4840   -0.2930    0.7650 C   0  0  0  0  0  0  0  0  0  0  0  0
    3.7700   -1.6790    0.3360 C   0  0  0  0  0  0  0  0  0  0  0  0
    3.9320   -1.5930   -1.1090 O   0  0  0  0  0  0  0  0  0  0  0  0
    4.3790   -2.8820   -1.4480 O   0  0  0  0  0  0  0  0  0  0  0  0
  1  2  1  0
  2  3  1  0
  3  4  1  0
  4  5  1  0
  5  6  2  0
  5 15  1  0
  6  7  1  0
  6 12  1  0
  7  8  1  0
  8  9  1  0
  9 10  1  0
 10 11  1  0
 12 13  1  0
 13 14  1  0
 13 15  2  0
 15 16  1  0
 16 17  1  0
 17 18  1  0
 18 19  1  0
 19 20  1  0
M  END
