
     RDKit          3D

 14 13  0  0  0  0  0  0  0  0999 V2000
   -3.6130    1.0170   -0.2700 C   0  0  0  0  0  0  0  0  0  0  0  0
   -2.2320    0.8890    0.2710 C   0  0  0  0  0  0  0  0  0  0  0  0
   -1.5690    1.9140    0.2890 O   0  0  0  0  0  0  0  0  0  0  0  0
   -1.7720   -0.4170    0.7310 C   0  0  2  0  0  0  0  0  0  0  0  0
   -2.7890   -1.3500    0.5610 O   0  0  0  0  0  0  0  0  0  0  0  0
   -1.5180   -0.3560    2.1070 O   0  0  0  0  0  0  0  0  0  0  0  0
   -0.5580   -0.9380    0.0170 C   0  0  1  0  0  0  0  0  0  0  0  0
   -0.7920   -1.1200   -1.3420 O   0  0  0  0  0  0  0  0  0  0  0  0
    0.6570   -0.1030    0.1990 C   0  0  0  0  0  0  0  0  0  0  0  0
    1.7270   -0.7680   -0.3880 O   0  0  0  0  0  0  0  0  0  0  0  0
    3.0570    0.2080   -0.1520 P   0  0  0  0  0  0  0  0  0  0  0  0
    2.8570    1.8140   -0.0380 O   0  0  0  0  0  0  0  0  0  0  0  0
    2.9840   -0.0950    1.3460 O   0  0  0  0  0  0  0  0  0  0  0  0
    4.5860   -0.4460   -0.2300 O   0  0  0  0  0  0  0  0  0  0  0  0
  1  2  1  0
  2  3  2  0
  2  4  1  0
  4  5  1  1
  4  6  1  0
  4  7  1  0
  7  8  1  6
  7  9  1  0
  9 10  1  0
 10 11  1  0
 11 12  1  0
 11 13  1  0
 11 14  1  0
M  END
