
     RDKit          3D

 20 20  0  0  0  0  0  0  0  0999 V2000
   -0.8320   -3.2250    1.7490 O   0  0  0  0  0  0  0  0  0  0  0  0
   -1.0470   -2.5500    0.6370 C   0  0  0  0  0  0  0  0  0  0  0  0
    0.1180   -2.4280   -0.0690 O   0  0  0  0  0  0  0  0  0  0  0  0
    0.4380   -1.4860   -1.0810 C   0  0  0  0  0  0  0  0  0  0  0  0
    0.9520   -0.2000   -0.5650 C   0  0  1  0  0  0  0  0  0  0  0  0
    1.1370   -0.2940    0.8260 F   0  0  0  0  0  0  0  0  0  0  0  0
    2.3040    0.2270   -1.0680 C   0  0  0  0  0  0  0  0  0  0  0  0
    3.3700   -0.7480   -0.7790 C   0  0  0  0  0  0  0  0  0  0  0  0
    4.7720   -0.2270   -0.8900 C   0  0  0  0  0  0  0  0  0  0  0  0
    4.7870    0.6830    0.3520 O   0  0  0  0  0  0  0  0  0  0  0  0
    5.7360   -0.0120    1.0800 O   0  0  0  0  0  0  0  0  0  0  0  0
    0.0520    0.7760   -0.8700 O   0  0  0  0  0  0  0  0  0  0  0  0
   -0.0640    1.7330    0.1390 C   0  0  0  0  0  0  0  0  0  0  0  0
   -0.9030    1.3040    1.3010 C   0  0  0  0  0  0  0  0  0  0  0  0
   -2.3710    1.7160    1.1330 C   0  0  0  0  0  0  0  0  0  0  0  0
   -2.8880    1.2370   -0.1860 C   0  0  0  0  0  0  0  0  0  0  0  0
   -4.2610    0.5870   -0.0940 C   0  0  0  0  0  0  0  0  0  0  0  0
   -4.0840   -0.8940    0.2190 C   0  0  0  0  0  0  0  0  0  0  0  0
   -2.9310   -1.4240   -0.3920 O   0  0  0  0  0  0  0  0  0  0  0  0
   -2.2930   -2.1640    0.4660 O   0  0  0  0  0  0  0  0  0  0  0  0
  1  2  2  0
  2  3  1  0
  2 20  1  0
  3  4  1  0
  4  5  1  0
  5  6  1  1
  5  7  1  0
  5 12  1  0
  7  8  1  0
  8  9  1  0
  9 10  1  0
 10 11  1  0
 12 13  1  0
 13 14  1  0
 14 15  1  0
 15 16  1  0
 16 17  1  0
 17 18  1  0
 18 19  1  0
 19 20  1  0
M  END
