
     RDKit          3D

 20 19  0  0  0  0  0  0  0  0999 V2000
    1.9260    3.6970   -0.1650 C   0  0  0  0  0  0  0  0  0  0  0  0
    1.5510    2.2800    0.2900 C   0  0  0  0  0  0  0  0  0  0  0  0
    0.8020    1.6370   -0.6450 O   0  0  0  0  0  0  0  0  0  0  0  0
    0.4600    0.3160   -0.2370 C   0  0  2  0  0  0  0  0  0  0  0  0
    1.1090   -0.5690   -1.2800 C   0  0  0  0  0  0  0  0  0  0  0  0
    2.4960   -0.4520   -1.3620 O   0  0  0  0  0  0  0  0  0  0  0  0
    3.4280   -0.7270   -0.3990 C   0  0  0  0  0  0  0  0  0  0  0  0
    3.0430   -1.1350    0.7080 O   0  0  0  0  0  0  0  0  0  0  0  0
    4.8040   -0.5710   -0.5980 O   0  0  0  0  0  0  0  0  0  0  0  0
    5.7340   -0.8640    0.4200 C   0  0  0  0  0  0  0  0  0  0  0  0
   -0.9150    0.1790   -0.2710 O   0  0  0  0  0  0  0  0  0  0  0  0
   -1.5080    0.0100    0.9060 C   0  0  1  0  0  0  0  0  0  0  0  0
   -1.1980    1.0890    1.7550 F   0  0  0  0  0  0  0  0  0  0  0  0
   -3.0530    0.1570    0.7760 C   0  0  0  0  0  0  0  0  0  0  0  0
   -3.6070   -0.8510   -0.1650 C   0  0  0  0  0  0  0  0  0  0  0  0
   -5.1080   -0.6610   -0.2510 C   0  0  0  0  0  0  0  0  0  0  0  0
   -5.3070    0.6560   -0.7240 O   0  0  0  0  0  0  0  0  0  0  0  0
   -1.2620   -1.2230    1.6780 C   0  0  0  0  0  0  0  0  0  0  0  0
   -0.4720   -2.3860    1.2380 C   0  0  0  0  0  0  0  0  0  0  0  0
   -1.7560   -1.3410    2.8260 O   0  0  0  0  0  0  0  0  0  0  0  0
  1  2  1  0
  2  3  1  0
  3  4  1  0
  4  5  1  6
  4 11  1  0
  5  6  1  0
  6  7  1  0
  7  8  2  0
  7  9  1  0
  9 10  1  0
 11 12  1  0
 12 13  1  1
 12 14  1  0
 12 18  1  0
 14 15  1  0
 15 16  1  0
 16 17  1  0
 18 19  1  0
 18 20  2  0
M  END
