
     RDKit          3D

 27 28  0  0  0  0  0  0  0  0999 V2000
   -1.6640   -2.8660   -0.6350 C   0  0  0  0  0  0  0  0  0  0  0  0
   -1.6250   -1.4520   -1.0280 N   0  0  0  0  0  0  0  0  0  0  0  0
   -1.4960   -1.3770   -2.4900 C   0  0  0  0  0  0  0  0  0  0  0  0
   -0.5680   -0.8530   -0.4850 O   0  0  0  0  0  0  0  0  0  0  0  0
   -0.7900   -0.0500    0.5910 C   0  0  2  0  0  0  0  0  0  0  0  0
   -1.4070   -0.7410    1.7720 C   0  0  0  0  0  0  0  0  0  0  0  0
   -2.7020   -1.0790    1.4620 O   0  0  0  0  0  0  0  0  0  0  0  0
   -3.5360   -0.0160    1.2260 C   0  0  2  0  0  0  0  0  0  0  0  0
   -3.8560    0.7110    2.3600 O   0  0  0  0  0  0  0  0  0  0  0  0
   -4.7450   -0.5610    0.7350 O   0  0  0  0  0  0  0  0  0  0  0  0
   -3.0050    0.8630    0.1060 C   0  0  0  0  0  0  0  0  0  0  0  0
   -1.5720    1.1370    0.3300 N   0  0  0  0  0  0  0  0  0  0  0  0
   -0.9360    2.3130    0.3200 N   0  0  0  0  0  0  0  0  0  0  0  0
    0.2630    2.4510    0.6240 C   0  0  0  0  0  0  0  0  0  0  0  0
    1.1430    3.6590    0.6750 C   0  0  0  0  0  0  0  0  0  0  0  0
    0.4380    4.8460    0.3200 N   0  0  0  0  0  0  0  0  0  0  0  0
    0.3660    5.1390   -0.8330 O   0  0  0  0  0  0  0  0  0  0  0  0
    0.8400    0.7550    1.0380 P   0  0  0  0  0  0  0  0  0  0  0  0
    2.0660    0.3590   -0.1800 O   0  0  0  0  0  0  0  0  0  0  0  0
    3.1300   -0.4630    0.1320 C   0  0  0  0  0  0  0  0  0  0  0  0
    3.1950   -0.9150    1.3020 O   0  0  0  0  0  0  0  0  0  0  0  0
    4.1210   -0.7860   -0.8500 N   0  0  0  0  0  0  0  0  0  0  0  0
    4.0540   -0.3050   -2.1050 O   0  0  0  0  0  0  0  0  0  0  0  0
    4.6460    0.8850   -2.0910 O   0  0  0  0  0  0  0  0  0  0  0  0
    5.1960   -1.6270   -0.4910 C   0  0  0  0  0  0  0  0  0  0  0  0
    6.0710   -1.9000   -1.3720 O   0  0  0  0  0  0  0  0  0  0  0  0
    5.3280   -2.1650    0.7930 O   0  0  0  0  0  0  0  0  0  0  0  0
  1  2  1  0
  2  3  1  0
  2  4  1  0
  5  4  1  6
  5  6  1  0
  5 12  1  0
  5 18  1  0
  6  7  1  0
  7  8  1  0
  8  9  1  1
  8 10  1  0
  8 11  1  0
 11 12  1  0
 12 13  1  0
 13 14  2  0
 14 15  1  0
 14 18  1  0
 15 16  1  0
 16 17  2  0
 18 19  1  0
 19 20  1  0
 20 21  2  0
 20 22  1  0
 22 23  1  0
 22 25  1  0
 23 24  1  0
 25 26  2  0
 25 27  1  0
M  END
