
     RDKit          3D

 27 29  0  0  0  0  0  0  0  0999 V2000
   -4.0410    1.7470    0.9580 C   0  0  0  0  0  0  0  0  0  0  0  0
   -3.9020    0.5170    0.2850 O   0  0  0  0  0  0  0  0  0  0  0  0
   -2.6780    0.4110   -0.2740 N   0  0  0  0  0  0  0  0  0  0  0  0
   -2.2510    1.0610   -1.4330 C   0  0  0  0  0  0  0  0  0  0  0  0
   -2.9950    1.6270   -2.2700 O   0  0  0  0  0  0  0  0  0  0  0  0
   -0.7600    0.9310   -1.4310 C   0  0  0  0  0  0  0  0  0  0  0  0
   -0.5500   -0.4210   -0.7160 C   0  0  2  0  0  0  0  0  0  0  0  0
    0.8090   -0.5140   -0.3610 N   0  0  0  0  0  0  0  0  0  0  0  0
    1.8090   -0.4320   -1.4160 C   0  0  0  0  0  0  0  0  0  0  0  0
    3.0580    0.1420   -1.0120 N   0  0  0  0  0  0  0  0  0  0  0  0
    2.9630    1.4120   -0.5460 O   0  0  0  0  0  0  0  0  0  0  0  0
    3.0140    2.4560   -1.4750 C   0  0  0  0  0  0  0  0  0  0  0  0
    3.1420    2.1520   -2.6960 O   0  0  0  0  0  0  0  0  0  0  0  0
    3.8660   -0.6550   -0.3030 O   0  0  0  0  0  0  0  0  0  0  0  0
    3.0280   -1.3630    1.0550 P   0  0  0  0  0  0  0  0  0  0  0  0
    3.7840   -0.9780    2.5490 O   0  0  0  0  0  0  0  0  0  0  0  0
    1.3130   -0.6910    0.9490 C   0  0  0  0  0  0  0  0  0  0  0  0
    0.6330   -0.3990    1.9540 N   0  0  0  0  0  0  0  0  0  0  0  0
    1.1330   -0.5700    3.2640 C   0  0  0  0  0  0  0  0  0  0  0  0
    1.8580    0.4010    3.7750 N   0  0  0  0  0  0  0  0  0  0  0  0
   -0.9080   -1.3640   -1.7000 O   0  0  0  0  0  0  0  0  0  0  0  0
   -0.7540   -2.6330   -1.2670 N   0  0  0  0  0  0  0  0  0  0  0  0
   -1.2090   -3.4410   -2.2490 O   0  0  0  0  0  0  0  0  0  0  0  0
   -1.6120   -2.8480   -0.1790 O   0  0  0  0  0  0  0  0  0  0  0  0
   -2.1950   -1.7800    0.4790 C   0  0  0  0  0  0  0  0  0  0  0  0
   -3.1940   -1.9620    1.1940 O   0  0  0  0  0  0  0  0  0  0  0  0
   -1.5990   -0.4130    0.3120 C   0  0  2  0  0  0  0  0  0  0  0  0
  1  2  1  0
  2  3  1  0
  3  4  1  0
 27  3  1  6
  4  5  2  0
  4  6  1  0
  6  7  1  0
  7  8  1  1
  7 21  1  0
  7 27  1  0
  8  9  1  0
  8 17  1  0
  9 10  1  0
 10 11  1  0
 10 14  1  0
 11 12  1  0
 12 13  2  0
 14 15  1  0
 15 16  1  0
 15 17  1  0
 17 18  2  3
 18 19  1  0
 19 20  2  0
 21 22  1  0
 22 23  1  0
 22 24  1  0
 24 25  1  0
 25 26  2  0
 25 27  1  0
M  END
