
     RDKit          3D

 27 28  0  0  0  0  0  0  0  0999 V2000
   -2.9130    2.4060   -2.1990 O   0  0  0  0  0  0  0  0  0  0  0  0
   -2.4540    0.9280   -2.2110 P   0  0  0  0  0  0  0  0  0  0  0  0
   -1.0040    0.3810   -1.2490 C   0  0  0  0  0  0  0  0  0  0  0  0
    0.0280    1.2090   -0.9830 C   0  0  0  0  0  0  0  0  0  0  0  0
    1.1220    0.8110   -0.2630 N   0  0  0  0  0  0  0  0  0  0  0  0
    1.5550    0.8690    0.9170 C   0  0  0  0  0  0  0  0  0  0  0  0
    2.8250    0.2510    1.1110 O   0  0  0  0  0  0  0  0  0  0  0  0
    3.7410   -0.0050    0.1030 C   0  0  1  0  0  0  0  0  0  0  0  0
    4.0810    1.2380   -0.4790 O   0  0  0  0  0  0  0  0  0  0  0  0
    4.8780   -0.7260    0.5330 N   0  0  0  0  0  0  0  0  0  0  0  0
    4.9930   -1.7650   -0.1060 N   0  0  0  0  0  0  0  0  0  0  0  0
    3.9400   -1.8560   -1.0410 C   0  0  0  0  0  0  0  0  0  0  0  0
    3.1260   -0.7400   -0.8880 O   0  0  0  0  0  0  0  0  0  0  0  0
    0.9720    1.4540    2.0650 N   0  0  0  0  0  0  0  0  0  0  0  0
   -0.2860    1.2460    2.6710 C   0  0  0  0  0  0  0  0  0  0  0  0
   -0.4080    1.6330    3.9310 O   0  0  0  0  0  0  0  0  0  0  0  0
   -1.3790    0.6690    2.0310 N   0  0  0  0  0  0  0  0  0  0  0  0
   -2.2920    1.1350    1.3340 N   0  0  0  0  0  0  0  0  0  0  0  0
   -3.3740    0.5350    0.7100 C   0  0  0  0  0  0  0  0  0  0  0  0
   -4.6070    1.2370    0.8330 O   0  0  0  0  0  0  0  0  0  0  0  0
   -3.4440   -0.5830    0.0190 C   0  0  0  0  0  0  0  0  0  0  0  0
   -4.7030   -0.9810   -0.5230 O   0  0  0  0  0  0  0  0  0  0  0  0
   -2.2890   -1.4500   -0.2280 C   0  0  0  0  0  0  0  0  0  0  0  0
   -2.4200   -2.6940    0.0440 O   0  0  0  0  0  0  0  0  0  0  0  0
   -0.9940   -1.0210   -0.7640 C   0  0  2  0  0  0  0  0  0  0  0  0
    0.0820   -1.3050    0.0700 O   0  0  0  0  0  0  0  0  0  0  0  0
   -0.7720   -1.8120   -1.9190 O   0  0  0  0  0  0  0  0  0  0  0  0
  1  2  2  0
  2  3  1  0
  3  4  2  0
  3 25  1  0
  4  5  1  0
  5  6  2  0
  6  7  1  0
  6 14  1  0
  7  8  1  0
  8  9  1  6
  8 10  1  0
  8 13  1  0
 10 11  2  0
 11 12  1  0
 12 13  1  0
 14 15  1  0
 15 16  2  0
 15 17  1  0
 17 18  2  0
 18 19  1  0
 19 20  1  0
 19 21  2  0
 21 22  1  0
 21 23  1  0
 23 24  2  0
 23 25  1  0
 25 26  1  1
 25 27  1  0
M  END
