
     RDKit          3D

 27 27  0  0  0  0  0  0  0  0999 V2000
   -5.0950    0.4770    1.7350 C   0  0  0  0  0  0  0  0  0  0  0  0
   -4.3620   -0.7860    1.6880 N   0  0  0  0  0  0  0  0  0  0  0  0
   -3.7340   -0.9630    0.4530 N   0  0  0  0  0  0  0  0  0  0  0  0
   -3.3030   -2.2990    0.1000 C   0  0  0  0  0  0  0  0  0  0  0  0
   -3.5200    0.0810   -0.4830 C   0  0  0  0  0  0  0  0  0  0  0  0
   -2.4270    0.7840   -0.5720 C   0  0  0  0  0  0  0  0  0  0  0  0
   -1.2920    0.5960    0.2640 N   0  0  0  0  0  0  0  0  0  0  0  0
   -1.4220    0.2940    1.6570 C   0  0  0  0  0  0  0  0  0  0  0  0
   -0.0020    0.7420   -0.2410 N   0  0  0  0  0  0  0  0  0  0  0  0
    0.7920   -0.2270   -0.4890 C   0  0  0  0  0  0  0  0  0  0  0  0
    0.4720   -1.6240   -0.2820 C   0  0  0  0  0  0  0  0  0  0  0  0
    1.3020   -2.5170   -0.5480 O   0  0  0  0  0  0  0  0  0  0  0  0
    2.1500    0.0460   -1.0270 C   0  0  0  0  0  0  0  0  0  0  0  0
    2.4540    1.2430   -1.2150 O   0  0  0  0  0  0  0  0  0  0  0  0
    3.0580   -0.9460   -1.3170 O   0  0  0  0  0  0  0  0  0  0  0  0
    4.2820   -0.7120   -1.8010 O   0  0  0  0  0  0  0  0  0  0  0  0
    5.4030   -0.4610   -0.5430 P   0  0  0  0  0  0  0  0  0  0  0  0
    5.5370   -1.7630    0.5610 O   0  0  0  0  0  0  0  0  0  0  0  0
    5.3580    1.0780    0.1700 O   0  0  0  0  0  0  0  0  0  0  0  0
    6.4920    1.7650    0.1610 N   0  0  0  0  0  0  0  0  0  0  0  0
    7.5520    1.2090   -0.6120 C   0  0  0  0  0  0  0  0  0  0  0  0
    6.9100    2.1010    1.3970 O   0  0  0  0  0  0  0  0  0  0  0  0
   -2.3810    1.7900   -1.5650 O   0  0  0  0  0  0  0  0  0  0  0  0
   -3.4350    2.0020   -2.3810 O   0  0  0  0  0  0  0  0  0  0  0  0
   -4.5950    1.2520   -2.2810 C   0  0  0  0  0  0  0  0  0  0  0  0
   -5.6330    1.5230   -3.1460 O   0  0  0  0  0  0  0  0  0  0  0  0
   -4.6290    0.3450   -1.3810 N   0  0  0  0  0  0  0  0  0  0  0  0
  1  2  1  0
  2  3  1  0
  3  4  1  0
  3  5  1  0
  5  6  2  0
  5 27  1  0
  6  7  1  0
  6 23  1  0
  7  8  1  0
  7  9  1  0
  9 10  2  3
 10 11  1  0
 10 13  1  0
 11 12  2  0
 13 14  2  0
 13 15  1  0
 15 16  1  0
 16 17  1  0
 17 18  1  0
 17 19  1  0
 19 20  1  0
 20 21  1  0
 20 22  1  0
 23 24  1  0
 24 25  1  0
 25 26  1  0
 25 27  2  0
M  END
