
     RDKit          3D

 27 28  0  0  0  0  0  0  0  0999 V2000
    3.7140    1.1010   -1.8930 C   0  0  0  0  0  0  0  0  0  0  0  0
    3.6410    0.1940   -0.7300 N   0  0  0  0  0  0  0  0  0  0  0  0
    3.9460    0.8710    0.4490 C   0  0  0  0  0  0  0  0  0  0  0  0
    5.4730    1.3390    0.4040 C   0  0  0  0  0  0  0  0  0  0  0  0
    6.0490    0.0700    0.2530 O   0  0  0  0  0  0  0  0  0  0  0  0
    6.9420   -0.2590    1.1080 O   0  0  0  0  0  0  0  0  0  0  0  0
    3.1370   -0.9140   -0.9470 O   0  0  0  0  0  0  0  0  0  0  0  0
    2.1820   -1.2590   -0.0920 N   0  0  0  0  0  0  0  0  0  0  0  0
    0.8630   -1.5190   -0.7290 C   0  0  0  0  0  0  0  0  0  0  0  0
   -0.0500   -0.9790    0.3230 C   0  0  1  0  0  0  0  0  0  0  0  0
   -0.7130    0.2690   -0.0950 C   0  0  0  0  0  0  0  0  0  0  0  0
   -1.7980    0.3310   -1.1030 C   0  0  0  0  0  0  0  0  0  0  0  0
   -3.1180    0.3900   -0.4110 N   0  0  0  0  0  0  0  0  0  0  0  0
   -4.0160    0.8850   -1.2030 O   0  0  0  0  0  0  0  0  0  0  0  0
   -5.3090    0.4150   -1.1690 C   0  0  2  0  0  0  0  0  0  0  0  0
   -6.0970    1.3260   -1.8450 O   0  0  0  0  0  0  0  0  0  0  0  0
   -5.8110    0.5430    0.3360 C   0  0  0  0  0  0  0  0  0  0  0  0
   -4.8420   -0.1870    1.0810 O   0  0  0  0  0  0  0  0  0  0  0  0
   -5.1450   -0.2530    2.4590 N   0  0  0  0  0  0  0  0  0  0  0  0
   -5.2690    0.8750    3.0330 O   0  0  0  0  0  0  0  0  0  0  0  0
   -1.1610   -1.9550    0.5810 N   0  0  0  0  0  0  0  0  0  0  0  0
   -0.8810   -2.9320    1.3850 C   0  0  0  0  0  0  0  0  0  0  0  0
   -2.1840   -4.3260    1.7900 Br  0  0  0  0  0  0  0  0  0  0  0  0
    0.3700   -2.9100    1.9440 O   0  0  0  0  0  0  0  0  0  0  0  0
    1.2170   -1.9170    2.0130 O   0  0  0  0  0  0  0  0  0  0  0  0
    0.8140   -0.7780    1.4220 N   0  0  0  0  0  0  0  0  0  0  0  0
    1.9110   -0.2670    0.7890 O   0  0  0  0  0  0  0  0  0  0  0  0
  1  2  1  0
  2  3  1  0
  2  7  1  0
  3  4  1  0
  4  5  1  0
  5  6  1  0
  7  8  1  0
  8  9  1  0
  8 27  1  0
  9 10  1  0
 10 11  1  6
 10 21  1  0
 10 26  1  0
 11 12  1  0
 12 13  1  0
 13 14  1  0
 14 15  1  0
 15 16  1  6
 15 17  1  0
 17 18  1  0
 18 19  1  0
 19 20  2  0
 21 22  2  0
 22 23  1  0
 22 24  1  0
 24 25  1  0
 25 26  1  0
 26 27  1  0
M  END
