
     RDKit          3D

 17 16  0  0  0  0  0  0  0  0999 V2000
   -4.0860   -1.0240    0.5730 C   0  0  0  0  0  0  0  0  0  0  0  0
   -3.5600    0.0450   -0.3580 C   0  0  2  0  0  0  0  0  0  0  0  0
   -4.5640    0.4290   -1.4210 C   0  0  0  0  0  0  0  0  0  0  0  0
   -2.2730   -0.4810   -0.9690 C   0  0  0  0  0  0  0  0  0  0  0  0
   -1.3320   -0.7420    0.1510 C   0  0  0  0  0  0  0  0  0  0  0  0
   -1.3870   -1.7470    0.8390 O   0  0  0  0  0  0  0  0  0  0  0  0
   -0.2590    0.2460    0.4800 C   0  0  1  0  0  0  0  0  0  0  0  0
   -0.3450    1.3430   -0.4090 O   0  0  0  0  0  0  0  0  0  0  0  0
   -0.3030    0.6550    1.7980 O   0  0  0  0  0  0  0  0  0  0  0  0
    1.0600   -0.4220    0.1870 C   0  0  1  0  0  0  0  0  0  0  0  0
    1.0250   -0.8270   -1.1560 O   0  0  0  0  0  0  0  0  0  0  0  0
    2.2290    0.5250    0.3230 C   0  0  0  0  0  0  0  0  0  0  0  0
    3.3380   -0.2390   -0.0520 O   0  0  0  0  0  0  0  0  0  0  0  0
    4.7430    0.3580   -0.0500 P   0  0  0  0  0  0  0  0  0  0  0  0
    5.5140   -1.0050   -0.5010 O   0  0  0  0  0  0  0  0  0  0  0  0
    4.3930    1.5240   -1.1260 O   0  0  0  0  0  0  0  0  0  0  0  0
    4.5060    0.6970    1.5910 O   0  0  0  0  0  0  0  0  0  0  0  0
  2  1  1  1
  2  3  1  0
  2  4  1  0
  4  5  1  0
  5  6  2  0
  5  7  1  0
  7  8  1  6
  7  9  1  0
  7 10  1  0
 10 11  1  6
 10 12  1  0
 12 13  1  0
 13 14  1  0
 14 15  1  0
 14 16  1  0
 14 17  1  0
M  END
