
     RDKit          3D

 27 29  0  0  0  0  0  0  0  0999 V2000
   -3.9770   -1.3030    1.3940 C   0  0  0  0  0  0  0  0  0  0  0  0
   -4.3160   -0.2710    0.4120 C   0  0  0  0  0  0  0  0  0  0  0  0
   -5.2340    0.5260    0.6810 O   0  0  0  0  0  0  0  0  0  0  0  0
   -3.6620   -0.0700   -0.9080 C   0  0  1  0  0  0  0  0  0  0  0  0
   -4.2450    1.0090   -1.5990 O   0  0  0  0  0  0  0  0  0  0  0  0
   -4.0850    2.0920   -0.8040 N   0  0  0  0  0  0  0  0  0  0  0  0
   -4.9370    3.0390   -1.2430 O   0  0  0  0  0  0  0  0  0  0  0  0
   -2.8430    2.5750   -0.8280 O   0  0  0  0  0  0  0  0  0  0  0  0
   -1.8740    1.6480   -0.6870 N   0  0  0  0  0  0  0  0  0  0  0  0
   -0.5540    2.0590   -0.5140 N   0  0  0  0  0  0  0  0  0  0  0  0
    0.3540    1.1490   -0.3790 C   0  0  0  0  0  0  0  0  0  0  0  0
    1.7400    1.5430   -0.1980 C   0  0  0  0  0  0  0  0  0  0  0  0
    2.0760    2.7470   -0.1670 O   0  0  0  0  0  0  0  0  0  0  0  0
    2.7440    0.5130   -0.0510 N   0  0  0  0  0  0  0  0  0  0  0  0
    4.0270    0.8390    0.1010 O   0  0  0  0  0  0  0  0  0  0  0  0
    4.7430   -0.0830    0.7430 N   0  0  0  0  0  0  0  0  0  0  0  0
    4.5240   -0.3510    2.0300 O   0  0  0  0  0  0  0  0  0  0  0  0
    4.9770    1.0910    3.0920 Br  0  0  0  0  0  0  0  0  0  0  0  0
    5.7680   -0.7880    0.0170 C   0  0  0  0  0  0  0  0  0  0  0  0
    6.0180   -0.5920   -1.1810 O   0  0  0  0  0  0  0  0  0  0  0  0
    6.5480   -1.7600    0.6820 O   0  0  0  0  0  0  0  0  0  0  0  0
    2.3320   -0.8430   -0.0890 C   0  0  0  0  0  0  0  0  0  0  0  0
    3.2770   -1.8520    0.0500 O   0  0  0  0  0  0  0  0  0  0  0  0
    1.0600   -1.2230   -0.2560 C   0  0  0  0  0  0  0  0  0  0  0  0
    0.0550   -0.2410   -0.4030 N   0  0  0  0  0  0  0  0  0  0  0  0
   -1.2970   -0.6710   -0.5800 C   0  0  0  0  0  0  0  0  0  0  0  0
   -2.2320    0.2780   -0.7180 C   0  0  0  0  0  0  0  0  0  0  0  0
  1  2  1  0
  2  3  2  0
  4  2  1  1
  4  5  1  0
  4 27  1  0
  5  6  1  0
  6  7  1  0
  6  8  1  0
  8  9  1  0
  9 10  1  0
  9 27  1  0
 10 11  2  0
 11 12  1  0
 11 25  1  0
 12 13  2  0
 12 14  1  0
 14 15  1  0
 14 22  1  0
 15 16  1  0
 16 17  1  0
 16 19  1  0
 17 18  1  0
 19 20  2  0
 19 21  1  0
 22 23  1  0
 22 24  2  0
 24 25  1  0
 25 26  1  0
 26 27  2  0
M  END
