
     RDKit          3D

 12 11  0  0  0  0  0  0  0  0999 V2000
    0.2490    1.3860    1.0490 C   0  0  0  0  0  0  0  0  0  0  0  0
   -0.5160    0.3200    0.4510 N   0  0  0  0  0  0  0  0  0  0  0  0
    0.3110   -0.3420   -0.5220 C   0  0  0  0  0  0  0  0  0  0  0  0
    1.3990   -0.9100    0.0780 O   0  0  0  0  0  0  0  0  0  0  0  0
    2.2300   -0.1160    0.7150 O   0  0  0  0  0  0  0  0  0  0  0  0
    3.5060    0.1990    0.3130 C   0  0  0  0  0  0  0  0  0  0  0  0
    3.9230   -0.3140   -0.7580 O   0  0  0  0  0  0  0  0  0  0  0  0
    4.3610    1.0430    1.0090 O   0  0  0  0  0  0  0  0  0  0  0  0
   -1.7120    0.8790   -0.0980 C   0  0  0  0  0  0  0  0  0  0  0  0
   -2.8160   -0.3310   -0.9050 P   0  0  0  0  0  0  0  0  0  0  0  0
   -4.4790    0.0330   -0.7880 O   0  0  0  0  0  0  0  0  0  0  0  0
   -2.4250   -1.9650   -0.6060 O   0  0  0  0  0  0  0  0  0  0  0  0
  1  2  1  0
  2  3  1  0
  2  9  1  0
  3  4  1  0
  4  5  1  0
  5  6  1  0
  6  7  2  0
  6  8  1  0
  9 10  1  0
 10 11  1  0
 10 12  1  0
M  END
