
     RDKit          3D

 12 12  0  0  0  0  0  0  0  0999 V2000
    2.1890   -1.5790    1.2610 O   0  0  0  0  0  0  0  0  0  0  0  0
    2.6700   -0.6820    0.5300 C   0  0  0  0  0  0  0  0  0  0  0  0
    4.0060   -0.6370    0.2320 O   0  0  0  0  0  0  0  0  0  0  0  0
    1.8140    0.2760    0.0240 O   0  0  0  0  0  0  0  0  0  0  0  0
    0.4640    0.2950    0.2810 N   0  0  0  0  0  0  0  0  0  0  0  0
   -0.0470    1.5140   -0.3440 C   0  0  0  0  0  0  0  0  0  0  0  0
   -1.3000    1.9960    0.3340 C   0  0  0  0  0  0  0  0  0  0  0  0
   -2.3760    1.1470    0.1080 O   0  0  0  0  0  0  0  0  0  0  0  0
   -1.9270   -0.2460   -0.8090 P   0  0  0  0  0  0  0  0  0  0  0  0
   -3.0930   -1.4930   -0.6890 O   0  0  0  0  0  0  0  0  0  0  0  0
   -2.7920   -2.3960    0.2140 O   0  0  0  0  0  0  0  0  0  0  0  0
   -0.2210   -0.8130   -0.4030 C   0  0  0  0  0  0  0  0  0  0  0  0
  1  2  2  0
  2  3  1  0
  2  4  1  0
  4  5  1  0
  5  6  1  0
  5 12  1  0
  6  7  1  0
  7  8  1  0
  8  9  1  0
  9 10  1  0
  9 12  1  0
 10 11  1  0
M  END
