
     RDKit          3D

 11 11  0  0  0  0  0  0  0  0999 V2000
   -1.3990    2.0840    0.6230 O   0  0  0  0  0  0  0  0  0  0  0  0
   -1.8260    0.8820    0.1150 C   0  0  0  0  0  0  0  0  0  0  0  0
   -0.8110    0.2060   -0.7650 C   0  0  2  0  0  0  0  0  0  0  0  0
   -1.4280   -1.0000   -1.1850 O   0  0  0  0  0  0  0  0  0  0  0  0
   -1.6200   -1.5770    0.0360 N   0  0  0  0  0  0  0  0  0  0  0  0
   -0.3080   -1.6130    0.6270 C   0  0  0  0  0  0  0  0  0  0  0  0
    0.3440   -0.3730    0.0190 C   0  0  2  0  0  0  0  0  0  0  0  0
    0.8680    0.4710    0.9520 O   0  0  0  0  0  0  0  0  0  0  0  0
    2.5750    0.6510    0.6280 P   0  0  0  0  0  0  0  0  0  0  0  0
    3.1590   -0.7410   -0.2450 O   0  0  0  0  0  0  0  0  0  0  0  0
    2.8830    2.0410   -0.3670 O   0  0  0  0  0  0  0  0  0  0  0  0
  1  2  1  0
  3  2  1  1
  3  4  1  0
  3  7  1  0
  4  5  1  0
  5  6  1  0
  6  7  1  0
  7  8  1  1
  8  9  1  0
  9 10  1  0
  9 11  1  0
M  END
