
     RDKit          3D

 12 12  0  0  0  0  0  0  0  0999 V2000
    2.6400   -0.1830   -1.6490 O   0  0  0  0  0  0  0  0  0  0  0  0
    2.2920   -0.2240   -0.4370 C   0  0  0  0  0  0  0  0  0  0  0  0
    3.2970   -0.3220    0.5060 O   0  0  0  0  0  0  0  0  0  0  0  0
    4.6010   -0.3740    0.2030 O   0  0  0  0  0  0  0  0  0  0  0  0
    0.9170   -0.1680   -0.1200 N   0  0  0  0  0  0  0  0  0  0  0  0
   -0.3400   -0.0690   -0.8260 C   0  0  0  0  0  0  0  0  0  0  0  0
   -0.9060    0.6110    0.4170 C   0  0  1  0  0  0  0  0  0  0  0  0
   -0.6510    1.9700    0.4530 O   0  0  0  0  0  0  0  0  0  0  0  0
   -2.6210    0.0880    0.7870 P   0  0  0  0  0  0  0  0  0  0  0  0
   -3.7050    0.8370   -0.3410 O   0  0  0  0  0  0  0  0  0  0  0  0
   -2.7060   -1.6440    0.6560 O   0  0  0  0  0  0  0  0  0  0  0  0
    0.1600   -0.1890    1.1190 C   0  0  0  0  0  0  0  0  0  0  0  0
  1  2  2  0
  2  3  1  0
  2  5  1  0
  3  4  1  0
  5  6  1  0
  5 12  1  0
  6  7  1  0
  7  8  1  6
  7  9  1  0
  7 12  1  0
  9 10  1  0
  9 11  1  0
M  END
