
     RDKit          3D

 12 12  0  0  0  0  0  0  0  0999 V2000
    3.2590    0.4480   -0.7520 O   0  0  0  0  0  0  0  0  0  0  0  0
    2.8300   -0.0770    0.3050 C   0  0  0  0  0  0  0  0  0  0  0  0
    3.5380    0.0470    1.4980 O   0  0  0  0  0  0  0  0  0  0  0  0
    1.6280   -0.7770    0.2240 O   0  0  0  0  0  0  0  0  0  0  0  0
    0.9610   -0.8800   -0.9480 N   0  0  0  0  0  0  0  0  0  0  0  0
   -0.3710   -0.3350   -0.9130 C   0  0  2  0  0  0  0  0  0  0  0  0
   -0.3910    1.1370   -0.5720 C   0  0  0  0  0  0  0  0  0  0  0  0
   -1.8090    1.6090   -0.5820 C   0  0  0  0  0  0  0  0  0  0  0  0
   -2.7440    0.5920   -0.6490 O   0  0  0  0  0  0  0  0  0  0  0  0
   -2.8140   -0.0850    0.5020 O   0  0  0  0  0  0  0  0  0  0  0  0
   -1.3900   -1.1190    0.4620 P   0  0  0  0  0  0  0  0  0  0  0  0
   -1.7860   -2.7410    0.1150 O   0  0  0  0  0  0  0  0  0  0  0  0
  1  2  2  0
  2  3  1  0
  2  4  1  0
  4  5  1  0
  6  5  1  1
  6  7  1  0
  6 11  1  0
  7  8  1  0
  8  9  1  0
  9 10  1  0
 10 11  1  0
 11 12  1  0
M  END
