
     RDKit          3D

 11 10  0  0  0  0  0  0  0  0999 V2000
   -0.7830   -2.7780   -0.0410 C   0  0  0  0  0  0  0  0  0  0  0  0
   -0.0270   -1.6210    0.3600 N   0  0  0  0  0  0  0  0  0  0  0  0
   -0.3100   -0.3710   -0.2360 C   0  0  0  0  0  0  0  0  0  0  0  0
   -1.4340    0.2600    0.0660 C   0  0  0  0  0  0  0  0  0  0  0  0
   -1.8630    1.8800   -0.6680 P   0  0  0  0  0  0  0  0  0  0  0  0
   -3.3850    2.4330   -0.0690 O   0  0  0  0  0  0  0  0  0  0  0  0
   -0.6210    3.0000   -0.2170 O   0  0  0  0  0  0  0  0  0  0  0  0
    0.5440    0.2450   -1.1390 O   0  0  0  0  0  0  0  0  0  0  0  0
    1.8470    0.0720   -1.1930 O   0  0  0  0  0  0  0  0  0  0  0  0
    2.5490    0.6140   -0.1440 C   0  0  0  0  0  0  0  0  0  0  0  0
    3.9100    0.3350   -0.3670 O   0  0  0  0  0  0  0  0  0  0  0  0
  1  2  1  0
  2  3  1  0
  3  4  2  3
  3  8  1  0
  4  5  1  0
  5  6  1  0
  5  7  1  0
  8  9  1  0
  9 10  1  0
 10 11  1  0
M  END
