
     RDKit          3D

 12 12  0  0  0  0  0  0  0  0999 V2000
    4.0990   -1.0280    0.7710 C   0  0  0  0  0  0  0  0  0  0  0  0
    3.0300   -0.1670    1.0630 O   0  0  0  0  0  0  0  0  0  0  0  0
    1.9910    0.1170    0.2010 C   0  0  0  0  0  0  0  0  0  0  0  0
    2.0170   -0.4470   -0.9280 O   0  0  0  0  0  0  0  0  0  0  0  0
    0.9450    0.9580    0.4840 O   0  0  0  0  0  0  0  0  0  0  0  0
   -0.1160    1.2400   -0.4120 C   0  0  0  0  0  0  0  0  0  0  0  0
   -1.0200   -0.3210   -0.8480 P   0  0  0  0  0  0  0  0  0  0  0  0
   -2.7350    0.0970   -1.2970 N   0  0  0  0  0  0  0  0  0  0  0  0
   -3.4450   -0.1030   -0.0200 C   0  0  0  0  0  0  0  0  0  0  0  0
   -3.4250   -1.4000    0.4000 O   0  0  0  0  0  0  0  0  0  0  0  0
   -2.2960   -1.9950    0.4280 O   0  0  0  0  0  0  0  0  0  0  0  0
   -1.2460   -1.2770    0.6120 O   0  0  0  0  0  0  0  0  0  0  0  0
  1  2  1  0
  2  3  1  0
  3  4  2  0
  3  5  1  0
  5  6  1  0
  6  7  1  0
  7  8  1  0
  7 12  1  0
  8  9  1  0
  9 10  1  0
 10 11  1  0
 11 12  1  0
M  END
