
     RDKit          3D

 11 12  0  0  0  0  0  0  0  0999 V2000
   -2.1220   -1.6250   -0.5490 C   0  0  0  0  0  0  0  0  0  0  0  0
   -1.1070   -0.5550   -0.2970 C   0  0  2  0  0  0  0  0  0  0  0  0
   -1.2520   -0.1320    1.1580 C   0  0  0  0  0  0  0  0  0  0  0  0
   -0.2110    0.8850    1.5410 C   0  0  0  0  0  0  0  0  0  0  0  0
    0.6470    1.1200    0.2950 C   0  0  2  0  0  0  0  0  0  0  0  0
   -0.2340    1.6530   -0.8240 C   0  0  0  0  0  0  0  0  0  0  0  0
   -1.3870    0.7100   -1.1180 C   0  0  0  0  0  0  0  0  0  0  0  0
    1.1770   -0.2040   -0.1330 C   0  0  1  0  0  0  0  0  0  0  0  0
    2.3240   -0.0440   -1.1230 C   0  0  0  0  0  0  0  0  0  0  0  0
    1.7850   -0.9910    1.0370 C   0  0  0  0  0  0  0  0  0  0  0  0
    0.1520   -0.9740   -0.6190 O   0  0  0  0  0  0  0  0  0  0  0  0
  2  1  1  6
  2  3  1  0
  2  7  1  0
  2 11  1  0
  3  4  1  0
  4  5  1  0
  5  6  1  6
  5  8  1  0
  6  7  1  0
  8  9  1  6
  8 10  1  0
  8 11  1  0
M  END
