
     RDKit          3D

 11 12  0  0  0  0  0  0  0  0999 V2000
   -1.1770   -1.4860   -1.1450 C   0  0  0  0  0  0  0  0  0  0  0  0
   -0.8670   -0.4450   -0.0620 C   0  0  2  0  0  0  0  0  0  0  0  0
   -1.2890   -1.0060    1.2640 C   0  0  0  0  0  0  0  0  0  0  0  0
   -1.6130    0.7970   -0.4280 C   0  0  0  0  0  0  0  0  0  0  0  0
   -1.0610    2.0350    0.2350 C   0  0  0  0  0  0  0  0  0  0  0  0
    0.2450    2.2450   -0.2530 O   0  0  0  0  0  0  0  0  0  0  0  0
    1.1420    1.1690   -0.1150 C   0  0  0  0  0  0  0  0  0  0  0  0
    2.4620    1.1610   -0.0540 C   0  0  0  0  0  0  0  0  0  0  0  0
    2.9070   -0.2310    0.0910 C   0  0  0  0  0  0  0  0  0  0  0  0
    1.6380   -0.9930    0.1020 C   0  0  0  0  0  0  0  0  0  0  0  0
    0.6070   -0.1770   -0.0190 C   0  0  0  0  0  0  0  0  0  0  0  0
  2  1  1  6
  2  3  1  0
  2  4  1  0
  2 11  1  0
  4  5  1  0
  5  6  1  0
  6  7  1  0
  7  8  2  0
  7 11  1  0
  8  9  1  0
  9 10  1  0
 10 11  2  0
M  END
