
     RDKit          3D

 11 12  0  0  0  0  0  0  0  0999 V2000
   -2.3790   -2.0330    0.4710 C   0  0  0  0  0  0  0  0  0  0  0  0
   -1.3410   -0.9380    0.4250 C   0  0  2  0  0  0  0  0  0  0  0  0
   -1.9520    0.3010   -0.1020 C   0  0  0  0  0  0  0  0  0  0  0  0
   -1.0640    1.4190   -0.4510 C   0  0  0  0  0  0  0  0  0  0  0  0
    0.0690    1.7060    0.4670 C   0  0  0  0  0  0  0  0  0  0  0  0
    1.2010    0.8040    0.0680 C   0  0  0  0  0  0  0  0  0  0  0  0
    2.4650    1.1660   -0.0410 C   0  0  0  0  0  0  0  0  0  0  0  0
    3.2380   -0.0260   -0.4560 C   0  0  0  0  0  0  0  0  0  0  0  0
    2.2130   -1.0860   -0.5570 C   0  0  0  0  0  0  0  0  0  0  0  0
    1.0330   -0.6070   -0.2540 C   0  0  0  0  0  0  0  0  0  0  0  0
   -0.1690   -1.3560   -0.2510 O   0  0  0  0  0  0  0  0  0  0  0  0
  2  1  1  6
  2  3  1  0
  2 11  1  0
  3  4  1  0
  4  5  1  0
  5  6  1  0
  6  7  2  0
  6 10  1  0
  7  8  1  0
  8  9  1  0
  9 10  2  0
 10 11  1  0
M  END
