
     RDKit          3D

 11 12  0  0  0  0  0  0  0  0999 V2000
    2.7320    0.1180   -0.1590 C   0  0  0  0  0  0  0  0  0  0  0  0
    1.3240    0.3190    0.3270 C   0  0  1  0  0  0  0  0  0  0  0  0
    0.6700    1.3280   -0.6810 C   0  0  0  0  0  0  0  0  0  0  0  0
   -0.7850    1.0830   -0.5550 C   0  0  0  0  0  0  0  0  0  0  0  0
   -1.4230    1.3810    0.5780 C   0  0  0  0  0  0  0  0  0  0  0  0
   -1.4090    0.0350    1.3920 C   0  0  0  0  0  0  0  0  0  0  0  0
   -0.8490   -1.0500    0.5170 C   0  0  1  0  0  0  0  0  0  0  0  0
   -1.6620   -1.1340   -0.7930 C   0  0  0  0  0  0  0  0  0  0  0  0
   -1.5740    0.2770   -1.4750 C   0  0  0  0  0  0  0  0  0  0  0  0
   -2.1780    0.3000   -2.5570 O   0  0  0  0  0  0  0  0  0  0  0  0
    0.6120   -0.9750    0.3120 C   0  0  0  0  0  0  0  0  0  0  0  0
  2  1  1  6
  2  3  1  0
  2 11  1  0
  3  4  1  0
  4  5  2  0
  4  9  1  0
  5  6  1  0
  6  7  1  0
  7  8  1  6
  7 11  1  0
  8  9  1  0
  9 10  2  0
M  END
