
     RDKit          3D

 11 12  0  0  0  0  0  0  0  0999 V2000
   -2.2150   -0.3900    1.0540 C   0  0  0  0  0  0  0  0  0  0  0  0
   -1.2400   -0.0380   -0.0790 C   0  0  2  0  0  0  0  0  0  0  0  0
   -2.0680    0.3970   -1.2900 C   0  0  0  0  0  0  0  0  0  0  0  0
   -0.3320   -1.1580   -0.4150 C   0  0  0  0  0  0  0  0  0  0  0  0
    1.0460   -0.6320   -0.1380 C   0  0  0  0  0  0  0  0  0  0  0  0
    2.3060   -0.9910   -0.1820 C   0  0  0  0  0  0  0  0  0  0  0  0
    3.1320    0.1340    0.2700 C   0  0  0  0  0  0  0  0  0  0  0  0
    2.1680    1.2030    0.5830 C   0  0  0  0  0  0  0  0  0  0  0  0
    0.9560    0.7370    0.3380 C   0  0  0  0  0  0  0  0  0  0  0  0
   -0.4570    1.1060    0.3740 C   0  0  0  0  0  0  0  0  0  0  0  0
   -0.8980    2.2040    0.7310 O   0  0  0  0  0  0  0  0  0  0  0  0
  2  1  1  1
  2  3  1  0
  2  4  1  0
  2 10  1  0
  4  5  1  0
  5  6  2  0
  5  9  1  0
  6  7  1  0
  7  8  1  0
  8  9  2  0
  9 10  1  0
 10 11  2  0
M  END
