
     RDKit          3D

 11 12  0  0  0  0  0  0  0  0999 V2000
   -2.5800   -0.9060    0.6120 C   0  0  0  0  0  0  0  0  0  0  0  0
   -1.5680    0.0540   -0.0270 C   0  0  1  0  0  0  0  0  0  0  0  0
   -2.4020    1.2750   -0.4600 C   0  0  0  0  0  0  0  0  0  0  0  0
   -0.5860    0.4340    1.0090 C   0  0  0  0  0  0  0  0  0  0  0  0
    0.8060    0.0330    0.7270 C   0  0  0  0  0  0  0  0  0  0  0  0
    1.9270    0.0680    1.4130 C   0  0  0  0  0  0  0  0  0  0  0  0
    3.0660   -0.4900    0.5890 C   0  0  0  0  0  0  0  0  0  0  0  0
    2.5250   -0.0860   -0.7970 C   0  0  0  0  0  0  0  0  0  0  0  0
    1.1130   -0.5580   -0.6000 C   0  0  2  0  0  0  0  0  0  0  0  0
    0.1300   -0.0560   -1.6200 C   0  0  0  0  0  0  0  0  0  0  0  0
   -1.1130   -0.5060   -1.1810 O   0  0  0  0  0  0  0  0  0  0  0  0
  2  1  1  1
  2  3  1  0
  2  4  1  0
  2 11  1  0
  4  5  1  0
  5  6  2  0
  5  9  1  0
  6  7  1  0
  7  8  1  0
  9  8  1  6
  9 10  1  0
 10 11  1  0
M  END
