
     RDKit          3D

 11 12  0  0  0  0  0  0  0  0999 V2000
    3.8010    0.2280    0.2830 C   0  0  0  0  0  0  0  0  0  0  0  0
    2.3560   -0.1360    0.0630 C   0  0  0  0  0  0  0  0  0  0  0  0
    1.4080    0.7860    0.1460 C   0  0  0  0  0  0  0  0  0  0  0  0
   -0.0100    0.4840   -0.0590 C   0  0  0  0  0  0  0  0  0  0  0  0
   -0.3140   -0.7680   -0.3380 C   0  0  0  0  0  0  0  0  0  0  0  0
   -1.7520   -1.1130   -0.5540 C   0  0  0  0  0  0  0  0  0  0  0  0
   -2.6120   -0.2960    0.3860 C   0  0  0  0  0  0  0  0  0  0  0  0
   -2.3830    1.1790    0.2340 C   0  0  0  0  0  0  0  0  0  0  0  0
   -0.9710    1.5790    0.0570 C   0  0  0  0  0  0  0  0  0  0  0  0
    0.6730   -1.8610   -0.4510 C   0  0  0  0  0  0  0  0  0  0  0  0
    1.9840   -1.4280   -0.2310 O   0  0  0  0  0  0  0  0  0  0  0  0
  1  2  1  0
  2  3  2  0
  2 11  1  0
  3  4  1  0
  4  5  2  0
  4  9  1  0
  5  6  1  0
  5 10  1  0
  6  7  1  0
  7  8  1  0
  8  9  1  0
 10 11  1  0
M  END
