
     RDKit          3D

 11 12  0  0  0  0  0  0  0  0999 V2000
    3.4420    0.1130    0.2250 C   0  0  0  0  0  0  0  0  0  0  0  0
    1.9440   -0.0900    0.1670 C   0  0  0  0  0  0  0  0  0  0  0  0
    1.4590   -1.2440    0.5430 C   0  0  0  0  0  0  0  0  0  0  0  0
    0.0310   -1.5480    0.5350 C   0  0  0  0  0  0  0  0  0  0  0  0
   -0.7840   -0.5720   -0.1780 C   0  0  1  0  0  0  0  0  0  0  0  0
   -1.1690   -1.0720   -1.4500 O   0  0  0  0  0  0  0  0  0  0  0  0
   -2.0920   -0.1740    0.5350 C   0  0  0  0  0  0  0  0  0  0  0  0
   -2.3500    1.2600    0.1790 C   0  0  0  0  0  0  0  0  0  0  0  0
   -1.3560    1.5440   -0.9280 C   0  0  0  0  0  0  0  0  0  0  0  0
   -0.1900    0.7510   -0.4660 C   0  0  0  0  0  0  0  0  0  0  0  0
    1.0870    0.9530   -0.3540 C   0  0  0  0  0  0  0  0  0  0  0  0
  1  2  1  0
  2  3  2  0
  2 11  1  0
  3  4  1  0
  4  5  1  0
  5  6  1  6
  5  7  1  0
  5 10  1  0
  7  8  1  0
  8  9  1  0
  9 10  1  0
 10 11  2  0
M  END
