
     RDKit          3D

 17 18  0  0  0  0  0  0  0  0999 V2000
   -4.4370    1.1770    0.0410 C   0  0  0  0  0  0  0  0  0  0  0  0
   -4.6860   -0.1120   -0.1150 C   0  0  0  0  0  0  0  0  0  0  0  0
   -6.3340   -0.6660   -0.2890 Cl  0  0  0  0  0  0  0  0  0  0  0  0
   -3.6210   -1.0880   -0.1470 C   0  0  0  0  0  0  0  0  0  0  0  0
   -3.8580   -2.3610   -0.3010 C   0  0  0  0  0  0  0  0  0  0  0  0
   -2.2840   -0.6350   -0.0060 N   0  0  0  0  0  0  0  0  0  0  0  0
   -1.5240   -0.1340   -1.1250 C   0  0  0  0  0  0  0  0  0  0  0  0
   -0.1700    0.2490   -0.6080 C   0  0  0  0  0  0  0  0  0  0  0  0
    0.0470    1.5270   -0.1510 C   0  0  0  0  0  0  0  0  0  0  0  0
    1.2710    1.9120    0.3280 C   0  0  0  0  0  0  0  0  0  0  0  0
    2.2870    0.9940    0.3440 C   0  0  0  0  0  0  0  0  0  0  0  0
    2.0260   -0.2750   -0.1240 C   0  0  0  0  0  0  0  0  0  0  0  0
    0.8250   -0.6430   -0.5910 N   0  0  0  0  0  0  0  0  0  0  0  0
    3.1120   -1.2050   -0.0930 N   0  0  0  0  0  0  0  0  0  0  0  0
    4.1070   -1.0180    0.9440 C   0  0  0  0  0  0  0  0  0  0  0  0
    4.6500    0.4010    0.8920 C   0  0  0  0  0  0  0  0  0  0  0  0
    3.5880    1.3620    0.8390 N   0  0  0  0  0  0  0  0  0  0  0  0
  1  2  2  0
  2  3  1  0
  2  4  1  0
  4  5  2  0
  4  6  1  0
  6  7  1  0
  7  8  1  0
  8  9  2  0
  8 13  1  0
  9 10  1  0
 10 11  2  0
 11 12  1  0
 11 17  1  0
 12 13  2  0
 12 14  1  0
 14 15  1  0
 15 16  1  0
 16 17  1  0
M  END
