
     RDKit          3D

 21 23  0  0  0  0  0  0  0  0999 V2000
    5.9060   -0.6450    0.0110 C   0  0  0  0  0  0  0  0  0  0  0  0
    5.0890    0.0220   -1.0750 C   0  0  0  0  0  0  0  0  0  0  0  0
    3.7050    0.2260   -0.5990 C   0  0  0  0  0  0  0  0  0  0  0  0
    2.6980   -0.5550   -1.0120 N   0  0  0  0  0  0  0  0  0  0  0  0
    1.4220   -0.3890   -0.5920 C   0  0  0  0  0  0  0  0  0  0  0  0
    0.4220   -1.2190   -1.0460 C   0  0  0  0  0  0  0  0  0  0  0  0
   -0.9120   -1.0800   -0.6350 C   0  0  0  0  0  0  0  0  0  0  0  0
   -1.1770   -0.0660    0.2500 C   0  0  0  0  0  0  0  0  0  0  0  0
   -0.1680    0.7850    0.7200 C   0  0  0  0  0  0  0  0  0  0  0  0
    1.1270    0.6250    0.3020 C   0  0  0  0  0  0  0  0  0  0  0  0
    2.1510    1.4430    0.7410 C   0  0  0  0  0  0  0  0  0  0  0  0
    3.4260    1.2360    0.2880 C   0  0  0  0  0  0  0  0  0  0  0  0
    4.4170    2.0350    0.7190 F   0  0  0  0  0  0  0  0  0  0  0  0
   -2.5570    0.1760    0.7180 C   0  0  0  0  0  0  0  0  0  0  0  0
   -3.5210   -0.7700    0.2200 N   0  0  0  0  0  0  0  0  0  0  0  0
   -4.8820   -0.6830    0.6770 C   0  0  0  0  0  0  0  0  0  0  0  0
   -5.5760    0.5460    0.1740 C   0  0  0  0  0  0  0  0  0  0  0  0
   -5.0010    1.7220    0.5620 F   0  0  0  0  0  0  0  0  0  0  0  0
   -3.2010   -1.8130   -0.7090 C   0  0  0  0  0  0  0  0  0  0  0  0
   -4.3890   -2.8090   -1.2560 S   0  0  0  0  0  0  0  0  0  0  0  0
   -1.8880   -1.9410   -1.1160 O   0  0  0  0  0  0  0  0  0  0  0  0
  1  2  1  0
  2  3  1  0
  3  4  2  0
  3 12  1  0
  4  5  1  0
  5  6  2  0
  5 10  1  0
  6  7  1  0
  7  8  2  0
  7 21  1  0
  8  9  1  0
  8 14  1  0
  9 10  2  0
 10 11  1  0
 11 12  2  0
 12 13  1  0
 14 15  1  0
 15 16  1  0
 15 19  1  0
 16 17  1  0
 17 18  1  0
 19 20  2  0
 19 21  1  0
M  END
