
     RDKit          3D

 24 27  0  0  0  0  0  0  0  0999 V2000
   -6.2820    0.1770    3.3060 F   0  0  0  0  0  0  0  0  0  0  0  0
   -5.2830    0.3410    2.3920 C   0  0  0  0  0  0  0  0  0  0  0  0
   -4.8430   -0.7650    1.7120 C   0  0  0  0  0  0  0  0  0  0  0  0
   -3.8330   -0.6490    0.7770 C   0  0  0  0  0  0  0  0  0  0  0  0
   -3.2330    0.5620    0.4900 C   0  0  0  0  0  0  0  0  0  0  0  0
   -2.1450    0.6810   -0.5190 C   0  0  2  0  0  0  0  0  0  0  0  0
   -2.6850    0.2500   -1.8420 C   0  0  0  0  0  0  0  0  0  0  0  0
   -1.6080   -0.0540   -2.8570 C   0  0  0  0  0  0  0  0  0  0  0  0
   -0.7130   -1.0830   -2.4240 N   0  0  0  0  0  0  0  0  0  0  0  0
   -0.7300   -1.3340   -1.0210 C   0  0  0  0  0  0  0  0  0  0  0  0
   -0.9520   -0.1280   -0.1680 C   0  0  1  0  0  0  0  0  0  0  0  0
    0.3440    0.6910   -0.2040 C   0  0  0  0  0  0  0  0  0  0  0  0
    1.3560   -0.2200    0.1490 O   0  0  0  0  0  0  0  0  0  0  0  0
    2.6810    0.0400    0.2540 C   0  0  0  0  0  0  0  0  0  0  0  0
    3.2280    1.2800    0.0180 C   0  0  0  0  0  0  0  0  0  0  0  0
    4.5900    1.4610    0.1470 C   0  0  0  0  0  0  0  0  0  0  0  0
    5.4280    0.4340    0.5070 C   0  0  0  0  0  0  0  0  0  0  0  0
    4.8870   -0.8110    0.7460 C   0  0  0  0  0  0  0  0  0  0  0  0
    3.5320   -0.9770    0.6140 C   0  0  0  0  0  0  0  0  0  0  0  0
    5.9040   -1.6800    1.0900 O   0  0  0  0  0  0  0  0  0  0  0  0
    7.0440   -0.8860    1.3770 C   0  0  0  0  0  0  0  0  0  0  0  0
    6.8190    0.3460    0.7070 O   0  0  0  0  0  0  0  0  0  0  0  0
   -3.7020    1.6640    1.1970 C   0  0  0  0  0  0  0  0  0  0  0  0
   -4.7150    1.5580    2.1380 C   0  0  0  0  0  0  0  0  0  0  0  0
  1  2  1  0
  2  3  2  0
  2 24  1  0
  3  4  1  0
  4  5  2  0
  6  5  1  1
  5 23  1  0
  6  7  1  0
  6 11  1  0
  7  8  1  0
  8  9  1  0
  9 10  1  0
 10 11  1  0
 11 12  1  6
 12 13  1  0
 13 14  1  0
 14 15  2  0
 14 19  1  0
 15 16  1  0
 16 17  2  0
 17 18  1  0
 17 22  1  0
 18 19  2  0
 18 20  1  0
 20 21  1  0
 21 22  1  0
 23 24  2  0
M  CHG  1   9   1
M  END
