
     RDKit          3D

 17 18  0  0  0  0  0  0  0  0999 V2000
    4.5170   -0.9910    0.0170 C   0  0  0  0  0  0  0  0  0  0  0  0
    4.9500    0.3610    0.4310 C   0  0  0  0  0  0  0  0  0  0  0  0
    6.4580    1.0530   -0.1090 Cl  0  0  0  0  0  0  0  0  0  0  0  0
    4.1870    1.0680    1.2260 C   0  0  0  0  0  0  0  0  0  0  0  0
    2.9570    0.5180    1.6740 N   0  0  0  0  0  0  0  0  0  0  0  0
    1.8380    0.5020    0.7740 C   0  0  0  0  0  0  0  0  0  0  0  0
    1.8190    0.9760   -0.5200 C   0  0  0  0  0  0  0  0  0  0  0  0
    0.5860    0.7620   -0.9840 N   0  0  0  0  0  0  0  0  0  0  0  0
   -0.1880    0.1880   -0.0870 N   0  0  0  0  0  0  0  0  0  0  0  0
   -1.5780   -0.2120   -0.1810 C   0  0  1  0  0  0  0  0  0  0  0  0
   -2.4940    0.9080    0.2560 C   0  0  0  0  0  0  0  0  0  0  0  0
   -3.8930    0.3840    0.3800 C   0  0  0  0  0  0  0  0  0  0  0  0
   -4.1180   -0.6110   -0.7380 C   0  0  0  0  0  0  0  0  0  0  0  0
   -3.2610   -0.2950   -1.9470 C   0  0  0  0  0  0  0  0  0  0  0  0
   -1.8380   -0.6570   -1.5970 C   0  0  0  0  0  0  0  0  0  0  0  0
    0.5720    0.0130    1.0260 C   0  0  0  0  0  0  0  0  0  0  0  0
    0.1320   -0.5730    2.2360 N   0  0  0  0  0  0  0  0  0  0  0  0
  1  2  1  0
  2  3  1  0
  2  4  2  3
  4  5  1  0
  5  6  1  0
  6  7  1  0
  6 16  2  0
  7  8  2  0
  8  9  1  0
 10  9  1  6
  9 16  1  0
 10 11  1  0
 10 15  1  0
 11 12  1  0
 12 13  1  0
 13 14  1  0
 14 15  1  0
 16 17  1  0
M  END
