
     RDKit          3D

 21 23  0  0  0  0  0  0  0  0999 V2000
   -3.4920   -1.2100   -1.2310 C   0  0  0  0  0  0  0  0  0  0  0  0
   -2.6780   -0.7350   -0.0410 C   0  0  2  0  0  0  0  0  0  0  0  0
   -3.5970    0.0210    0.8970 C   0  0  0  0  0  0  0  0  0  0  0  0
   -1.5560    0.1670   -0.5080 C   0  0  0  0  0  0  0  0  0  0  0  0
   -1.8870    1.2080   -1.3040 N   0  0  0  0  0  0  0  0  0  0  0  0
   -0.8690    1.9850   -1.7050 C   0  0  0  0  0  0  0  0  0  0  0  0
   -1.0540    2.9800   -2.4460 O   0  0  0  0  0  0  0  0  0  0  0  0
    0.4160    1.7070   -1.3100 C   0  0  0  0  0  0  0  0  0  0  0  0
    1.9720    2.5250   -1.6600 S   0  0  0  0  0  0  0  0  0  0  0  0
    2.9800    1.4180   -0.7140 C   0  0  0  0  0  0  0  0  0  0  0  0
    4.3450    1.4230   -0.5150 C   0  0  0  0  0  0  0  0  0  0  0  0
    4.9190    0.4490    0.2640 C   0  0  0  0  0  0  0  0  0  0  0  0
    4.0670   -0.4810    0.8000 C   0  0  0  0  0  0  0  0  0  0  0  0
    2.7070   -0.4740    0.5930 C   0  0  0  0  0  0  0  0  0  0  0  0
    2.0990    0.5230   -0.2070 C   0  0  0  0  0  0  0  0  0  0  0  0
    0.7830    0.6510   -0.4970 C   0  0  0  0  0  0  0  0  0  0  0  0
   -0.3070   -0.1070   -0.1200 N   0  0  0  0  0  0  0  0  0  0  0  0
   -0.1590   -1.2530    0.7510 C   0  0  0  0  0  0  0  0  0  0  0  0
   -0.4320   -1.2040    2.0370 C   0  0  0  0  0  0  0  0  0  0  0  0
   -0.2660   -2.3190    2.7770 F   0  0  0  0  0  0  0  0  0  0  0  0
   -0.8720   -0.0870    2.6580 F   0  0  0  0  0  0  0  0  0  0  0  0
  2  1  1  6
  2  3  1  0
  2  4  1  0
  4  5  2  0
  4 17  1  0
  5  6  1  0
  6  7  2  0
  6  8  1  0
  8  9  1  0
  8 16  2  0
  9 10  1  0
 10 11  2  0
 10 15  1  0
 11 12  1  0
 12 13  2  0
 13 14  1  0
 14 15  2  0
 15 16  1  0
 16 17  1  0
 17 18  1  0
 18 19  2  3
 19 20  1  0
 19 21  1  0
M  END
