
     RDKit          3D

 16 15  0  0  0  0  0  0  0  0999 V2000
   -4.6110    0.5590   -0.8870 C   0  0  0  0  0  0  0  0  0  0  0  0
   -4.8130    0.9590    0.5720 C   0  0  0  0  0  0  0  0  0  0  0  0
   -3.9190    0.1760    1.4050 N   0  0  0  0  0  0  0  0  0  0  0  0
   -2.5050    0.2950    1.1660 C   0  0  0  0  0  0  0  0  0  0  0  0
   -2.0830    1.0580    0.2640 O   0  0  0  0  0  0  0  0  0  0  0  0
   -1.5620   -0.4360    1.9350 N   0  0  0  0  0  0  0  0  0  0  0  0
   -0.1780   -0.3700    1.7600 N   0  0  0  0  0  0  0  0  0  0  0  0
    0.4890   -0.4620    0.5170 C   0  0  0  0  0  0  0  0  0  0  0  0
   -0.2070   -0.6140   -0.5170 O   0  0  0  0  0  0  0  0  0  0  0  0
    1.8930   -0.3860    0.4270 O   0  0  0  0  0  0  0  0  0  0  0  0
    2.5530   -0.4790   -0.8260 C   0  0  0  0  0  0  0  0  0  0  0  0
    4.0370   -0.3570   -0.5490 C   0  0  0  0  0  0  0  0  0  0  0  0
    4.8170   -0.4390   -1.7660 N   0  0  0  0  0  0  0  0  0  0  0  0
    4.8010   -1.5270   -2.5850 O   0  0  0  0  0  0  0  0  0  0  0  0
    5.5450    0.5580   -2.0650 N   0  0  0  0  0  0  0  0  0  0  0  0
    5.6110    2.0030   -1.0400 S   0  0  0  0  0  0  0  0  0  0  0  0
  1  2  1  0
  2  3  1  0
  3  4  1  0
  4  5  2  0
  4  6  1  0
  6  7  1  0
  7  8  1  0
  8  9  2  0
  8 10  1  0
 10 11  1  0
 11 12  1  0
 12 13  1  0
 13 14  1  0
 13 15  2  3
 15 16  1  0
M  CHG  2  13   1  14  -1
M  END
