
     RDKit          3D

 16 16  0  0  0  0  0  0  0  0999 V2000
   -4.7120    0.2610    0.3410 C   0  0  0  0  0  0  0  0  0  0  0  0
   -3.2900    0.3160    0.7150 C   0  0  0  0  0  0  0  0  0  0  0  0
   -2.9710    0.7390    1.8620 O   0  0  0  0  0  0  0  0  0  0  0  0
   -2.2260   -0.0790   -0.1320 N   0  0  0  0  0  0  0  0  0  0  0  0
   -0.8630   -0.0210    0.2420 C   0  0  0  0  0  0  0  0  0  0  0  0
   -0.3770    0.5990    1.9250 S   0  0  0  0  0  0  0  0  0  0  0  0
    1.3940    0.3330    1.5310 N   0  0  0  0  0  0  0  0  0  0  0  0
    1.4330   -0.1610    0.2570 C   0  0  0  0  0  0  0  0  0  0  0  0
    2.7700   -0.4480   -0.2680 N   0  0  0  0  0  0  0  0  0  0  0  0
    3.8870   -0.2210    0.4970 N   0  0  0  0  0  0  0  0  0  0  0  0
    4.8410    0.7810    0.1780 C   0  0  0  0  0  0  0  0  0  0  0  0
    4.5980    1.4660   -0.8710 O   0  0  0  0  0  0  0  0  0  0  0  0
    0.2730   -0.3360   -0.3860 C   0  0  0  0  0  0  0  0  0  0  0  0
    0.2020   -0.8590   -1.7540 N   0  0  0  0  0  0  0  0  0  0  0  0
    0.4080   -2.0500   -2.0160 O   0  0  0  0  0  0  0  0  0  0  0  0
   -0.1000   -0.0110   -2.7800 O   0  0  0  0  0  0  0  0  0  0  0  0
  1  2  1  0
  2  3  2  0
  2  4  1  0
  4  5  1  0
  5  6  1  0
  5 13  2  0
  6  7  1  0
  7  8  2  0
  8  9  1  0
  8 13  1  0
  9 10  1  0
 10 11  1  0
 11 12  2  0
 13 14  1  0
 14 15  2  0
 14 16  1  0
M  CHG  2  14   1  16  -1
M  END
