
     RDKit          3D

 16 16  0  0  0  0  0  0  0  0999 V2000
   -3.6200   -1.1870    1.2050 C   0  0  0  0  0  0  0  0  0  0  0  0
   -2.1630   -1.0690    1.0580 N   0  0  0  0  0  0  0  0  0  0  0  0
   -1.8880   -0.4500   -0.1120 O   0  0  0  0  0  0  0  0  0  0  0  0
   -1.1190    0.7110   -0.2450 C   0  0  0  0  0  0  0  0  0  0  0  0
   -1.6850    1.9310   -0.2970 N   0  0  0  0  0  0  0  0  0  0  0  0
   -0.9320    3.0380   -0.4260 C   0  0  0  0  0  0  0  0  0  0  0  0
    0.4380    2.8520   -0.5000 C   0  0  0  0  0  0  0  0  0  0  0  0
    1.2590    4.0120   -0.6380 N   0  0  0  0  0  0  0  0  0  0  0  0
    2.3810    4.1170   -0.1190 O   0  0  0  0  0  0  0  0  0  0  0  0
    1.0130    1.6360   -0.4490 N   0  0  0  0  0  0  0  0  0  0  0  0
    0.2510    0.5340   -0.3200 C   0  0  0  0  0  0  0  0  0  0  0  0
    0.8320   -0.7750   -0.2670 N   0  0  0  0  0  0  0  0  0  0  0  0
    2.2330   -0.9220   -0.3440 C   0  0  0  0  0  0  0  0  0  0  0  0
    2.9610    0.1150   -0.4590 O   0  0  0  0  0  0  0  0  0  0  0  0
    2.8990   -2.1740   -0.3010 N   0  0  0  0  0  0  0  0  0  0  0  0
    4.6520   -2.3220   -0.4010 S   0  0  0  0  0  0  0  0  0  0  0  0
  1  2  1  0
  2  3  1  0
  3  4  1  0
  4  5  2  0
  4 11  1  0
  5  6  1  0
  6  7  2  0
  7  8  1  0
  7 10  1  0
  8  9  2  0
 10 11  2  0
 11 12  1  0
 12 13  1  0
 13 14  2  0
 13 15  1  0
 15 16  1  0
M  END
