
     RDKit          3D

 16 16  0  0  0  0  0  0  0  0999 V2000
   -3.2910   -1.7880   -1.1580 O   0  0  0  0  0  0  0  0  0  0  0  0
   -3.2960   -0.7170   -0.4920 C   0  0  0  0  0  0  0  0  0  0  0  0
   -4.6040   -0.1080   -0.1240 C   0  0  0  0  0  0  0  0  0  0  0  0
   -4.4760    1.1020    0.6280 N   0  0  0  0  0  0  0  0  0  0  0  0
   -4.9530    1.1820    1.7690 O   0  0  0  0  0  0  0  0  0  0  0  0
   -3.8140    2.1550    0.0440 O   0  0  0  0  0  0  0  0  0  0  0  0
   -2.0510   -0.1430   -0.1250 N   0  0  0  0  0  0  0  0  0  0  0  0
   -0.8770   -0.7920   -0.5190 N   0  0  0  0  0  0  0  0  0  0  0  0
    0.4130   -0.2300   -0.2260 C   0  0  0  0  0  0  0  0  0  0  0  0
    0.4130    0.8500    0.3890 O   0  0  0  0  0  0  0  0  0  0  0  0
    1.6070   -0.8670   -0.6130 N   0  0  0  0  0  0  0  0  0  0  0  0
    2.9420   -0.3560   -0.3490 C   0  0  0  0  0  0  0  0  0  0  0  0
    3.2180    0.7390    0.2650 C   0  0  0  0  0  0  0  0  0  0  0  0
    4.6380    1.1140    0.4500 C   0  0  0  0  0  0  0  0  0  0  0  0
    5.4330   -0.4940    0.1260 S   0  0  0  0  0  0  0  0  0  0  0  0
    4.0690   -1.1210   -0.8000 N   0  0  0  0  0  0  0  0  0  0  0  0
  1  2  2  0
  2  3  1  0
  2  7  1  0
  3  4  1  0
  4  5  2  0
  4  6  1  0
  7  8  1  0
  8  9  1  0
  9 10  2  0
  9 11  1  0
 11 12  1  0
 12 13  2  0
 12 16  1  0
 13 14  1  0
 14 15  1  0
 15 16  1  0
M  CHG  2   4   1   6  -1
M  END
