
     RDKit          3D

 16 16  0  0  0  0  0  0  0  0999 V2000
    4.1160   -0.5680   -0.8360 O   0  0  0  0  0  0  0  0  0  0  0  0
    3.4350   -0.1800    0.1430 C   0  0  0  0  0  0  0  0  0  0  0  0
    2.1680    0.5630   -0.0580 C   0  0  0  0  0  0  0  0  0  0  0  0
    1.9280    0.6970   -1.5370 C   0  0  0  0  0  0  0  0  0  0  0  0
    0.3880    1.5990   -1.8880 S   0  0  0  0  0  0  0  0  0  0  0  0
   -1.0010    0.6070   -1.3160 C   0  0  0  0  0  0  0  0  0  0  0  0
   -1.6610   -0.3130   -2.0420 N   0  0  0  0  0  0  0  0  0  0  0  0
   -2.6300   -0.8430   -1.2780 N   0  0  0  0  0  0  0  0  0  0  0  0
   -2.6000   -0.2700   -0.0620 C   0  0  0  0  0  0  0  0  0  0  0  0
   -3.5140   -0.5750    1.0960 C   0  0  0  0  0  0  0  0  0  0  0  0
   -4.6910    0.2460    1.0350 N   0  0  0  0  0  0  0  0  0  0  0  0
   -4.9880    1.0370    1.9480 O   0  0  0  0  0  0  0  0  0  0  0  0
   -5.5260    0.1730   -0.0480 O   0  0  0  0  0  0  0  0  0  0  0  0
   -1.5900    0.6190   -0.1070 N   0  0  0  0  0  0  0  0  0  0  0  0
    3.9270   -0.4820    1.4630 N   0  0  0  0  0  0  0  0  0  0  0  0
    5.0720   -1.1530    1.6730 O   0  0  0  0  0  0  0  0  0  0  0  0
  1  2  2  0
  2  3  1  0
  2 15  1  0
  3  4  1  0
  4  5  1  0
  5  6  1  0
  6  7  2  0
  6 14  1  0
  7  8  1  0
  8  9  1  0
  9 10  1  0
  9 14  2  0
 10 11  1  0
 11 12  2  0
 11 13  1  0
 15 16  1  0
M  CHG  2  11   1  13  -1
M  END
