
     RDKit          3D

 16 16  0  0  0  0  0  0  0  0999 V2000
    5.4780    2.2390   -0.0860 N   0  0  0  0  0  0  0  0  0  0  0  0
    4.8350    1.1040   -0.5630 C   0  0  0  0  0  0  0  0  0  0  0  0
    4.1840   -0.0830   -1.0450 C   0  0  0  0  0  0  0  0  0  0  0  0
    3.0950   -0.3900   -0.1650 N   0  0  0  0  0  0  0  0  0  0  0  0
    1.7930   -0.0420   -0.3930 C   0  0  0  0  0  0  0  0  0  0  0  0
    0.9950   -0.3980    0.6960 C   0  0  0  0  0  0  0  0  0  0  0  0
   -0.6070   -0.5130    1.1090 S   0  0  2  0  0  0  0  0  0  0  0  0
   -0.5990    0.1600    2.6260 O   0  0  0  0  0  0  0  0  0  0  0  0
   -0.8620   -2.0300    1.4160 O   0  0  0  0  0  0  0  0  0  0  0  0
   -1.8010    0.2450    0.3850 N   0  0  0  0  0  0  0  0  0  0  0  0
   -2.8530   -0.7660   -0.0670 C   0  0  0  0  0  0  0  0  0  0  0  0
   -3.9200    0.1630   -0.4120 C   0  0  0  0  0  0  0  0  0  0  0  0
   -4.3000    1.4280   -0.5050 N   0  0  0  0  0  0  0  0  0  0  0  0
   -4.9970   -0.6810   -0.8380 O   0  0  0  0  0  0  0  0  0  0  0  0
    1.9930   -1.0180    1.5790 N   0  0  0  0  0  0  0  0  0  0  0  0
    3.1150   -0.9480    0.9640 N   0  0  0  0  0  0  0  0  0  0  0  0
  1  2  3  0
  2  3  1  0
  3  4  1  0
  4  5  1  0
  4 16  1  0
  5  6  2  0
  6  7  1  0
  6 15  1  0
  7  8  2  0
  7  9  2  0
  7 10  1  6
 10 11  1  0
 11 12  1  0
 12 13  1  0
 12 14  2  0
 15 16  2  0
M  END
