
     RDKit          3D

 16 16  0  0  0  0  0  0  0  0999 V2000
    5.3860   -0.4120    0.6690 N   0  0  0  0  0  0  0  0  0  0  0  0
    4.4450   -1.1470    1.0620 N   0  0  0  0  0  0  0  0  0  0  0  0
    3.2270   -1.1520    0.3550 N   0  0  0  0  0  0  0  0  0  0  0  0
    2.5720    0.0720    0.0780 C   0  0  0  0  0  0  0  0  0  0  0  0
    3.0870    1.1500    0.4690 O   0  0  0  0  0  0  0  0  0  0  0  0
    1.2980    0.1350   -0.6560 C   0  0  0  0  0  0  0  0  0  0  0  0
    0.7700    1.5150   -0.8420 C   0  0  0  0  0  0  0  0  0  0  0  0
   -0.7970    1.4310   -1.7620 S   0  0  0  0  0  0  0  0  0  0  0  0
   -2.0730    0.6250   -0.8360 C   0  0  0  0  0  0  0  0  0  0  0  0
   -2.8450    1.4070   -0.0370 N   0  0  0  0  0  0  0  0  0  0  0  0
   -3.8260    0.9140    0.6990 N   0  0  0  0  0  0  0  0  0  0  0  0
   -4.0540   -0.4180    0.6400 C   0  0  0  0  0  0  0  0  0  0  0  0
   -4.9950   -0.8580    1.3520 O   0  0  0  0  0  0  0  0  0  0  0  0
   -3.3160   -1.2340   -0.1360 N   0  0  0  0  0  0  0  0  0  0  0  0
   -2.3200   -0.7300   -0.8820 C   0  0  0  0  0  0  0  0  0  0  0  0
   -1.5920   -1.4340   -1.6290 O   0  0  0  0  0  0  0  0  0  0  0  0
  1  2  2  0
  2  3  1  0
  3  4  1  0
  4  5  2  0
  4  6  1  0
  6  7  1  0
  7  8  1  0
  8  9  1  0
  9 10  2  0
  9 15  1  0
 10 11  1  0
 11 12  1  0
 12 13  2  0
 12 14  1  0
 14 15  1  0
 15 16  2  0
M  END
