
     RDKit          3D

 16 16  0  0  0  0  0  0  0  0999 V2000
    1.5530   -1.0670   -0.6400 O   0  0  0  0  0  0  0  0  0  0  0  0
    1.9020    0.1470   -0.4480 C   0  0  0  0  0  0  0  0  0  0  0  0
    3.1610    0.4410    0.2640 C   0  0  0  0  0  0  0  0  0  0  0  0
    3.8050   -0.8020    0.6330 N   0  0  0  0  0  0  0  0  0  0  0  0
    4.9430   -1.0960    0.2200 O   0  0  0  0  0  0  0  0  0  0  0  0
    3.1940   -1.7220    1.4600 O   0  0  0  0  0  0  0  0  0  0  0  0
    1.0200    1.1300   -0.9520 N   0  0  0  0  0  0  0  0  0  0  0  0
   -0.2030    0.7430   -1.6460 C   0  0  0  0  0  0  0  0  0  0  0  0
   -1.2550    0.2890   -0.7160 C   0  0  0  0  0  0  0  0  0  0  0  0
   -2.2240    1.1270   -0.3230 N   0  0  0  0  0  0  0  0  0  0  0  0
   -3.2070    0.7680    0.5240 C   0  0  0  0  0  0  0  0  0  0  0  0
   -4.1970    1.6660    0.9100 O   0  0  0  0  0  0  0  0  0  0  0  0
   -3.1790   -0.5000    0.9750 N   0  0  0  0  0  0  0  0  0  0  0  0
   -2.2200   -1.3600    0.5960 C   0  0  0  0  0  0  0  0  0  0  0  0
   -2.2780   -3.0350    1.2590 S   0  0  0  0  0  0  0  0  0  0  0  0
   -1.2740   -0.9600   -0.2400 N   0  0  0  0  0  0  0  0  0  0  0  0
  1  2  2  0
  2  3  1  0
  2  7  1  0
  3  4  1  0
  4  5  2  0
  4  6  1  0
  7  8  1  0
  8  9  1  0
  9 10  2  0
  9 16  1  0
 10 11  1  0
 11 12  1  0
 11 13  2  0
 13 14  1  0
 14 15  1  0
 14 16  2  0
M  CHG  2   4   1   6  -1
M  END
