
     RDKit          3D

 30 31  0  0  0  0  0  0  0  0999 V2000
    9.2220   -0.7200   -0.5080 C   0  0  0  0  0  0  0  0  0  0  0  0
    8.3530   -0.1460    0.2940 C   0  0  0  0  0  0  0  0  0  0  0  0
    7.1240   -0.8550    0.7110 C   0  0  0  0  0  0  0  0  0  0  0  0
    5.9390   -0.0920    0.2770 C   0  0  0  0  0  0  0  0  0  0  0  0
    6.0760    1.0360   -0.3700 C   0  0  0  0  0  0  0  0  0  0  0  0
    4.8630    1.7540   -0.7780 C   0  0  0  0  0  0  0  0  0  0  0  0
    4.9130    2.8960   -1.4310 C   0  0  0  0  0  0  0  0  0  0  0  0
    3.7130    3.6320   -1.8500 C   0  0  0  0  0  0  0  0  0  0  0  0
    2.5140    3.1480   -1.5720 C   0  0  0  0  0  0  0  0  0  0  0  0
    1.0400    3.9500   -2.0290 Cl  0  0  0  0  0  0  0  0  0  0  0  0
    2.4110    1.8800   -0.8460 C   0  0  0  0  0  0  0  0  0  0  0  0
    1.2400    1.3570   -0.5470 C   0  0  0  0  0  0  0  0  0  0  0  0
    1.1850    0.0730    0.1880 C   0  0  0  0  0  0  0  0  0  0  0  0
    0.4160    0.2680    1.4650 C   0  0  1  0  0  0  0  0  0  0  0  0
    1.1560    1.2710    2.1660 O   0  0  0  0  0  0  0  0  0  0  0  0
   -1.0050    0.6920    1.3270 C   0  0  0  0  0  0  0  0  0  0  0  0
   -1.9080   -0.1030    0.7680 O   0  0  0  0  0  0  0  0  0  0  0  0
   -1.9320   -0.4890   -0.5180 C   0  0  1  0  0  0  0  0  0  0  0  0
   -1.7210   -1.9810   -0.6710 C   0  0  0  0  0  0  0  0  0  0  0  0
   -3.0110   -2.7310   -0.7670 C   0  0  0  0  0  0  0  0  0  0  0  0
   -4.1610   -2.0290   -0.0930 C   0  0  0  0  0  0  0  0  0  0  0  0
   -4.4740   -0.6600   -0.5510 C   0  0  1  0  0  0  0  0  0  0  0  0
   -5.5470   -0.7010   -1.6510 C   0  0  0  0  0  0  0  0  0  0  0  0
   -6.7300   -1.1860   -1.1560 O   0  0  0  0  0  0  0  0  0  0  0  0
   -4.8440    0.1600    0.5260 N   0  0  0  0  0  0  0  0  0  0  0  0
   -5.9560    0.0120    1.3140 C   0  0  0  0  0  0  0  0  0  0  0  0
   -6.0400   -1.1640    2.2490 C   0  0  0  0  0  0  0  0  0  0  0  0
   -7.6120   -0.9630    3.1270 Cl  0  0  0  0  0  0  0  0  0  0  0  0
   -3.2220   -0.0390   -1.1410 C   0  0  0  0  0  0  0  0  0  0  0  0
    3.6020    1.2530   -0.4900 O   0  0  0  0  0  0  0  0  0  0  0  0
  1  2  2  0
  2  3  1  0
  3  4  1  0
  4  5  2  3
  5  6  1  0
  6  7  2  0
  6 30  1  0
  7  8  1  0
  8  9  2  0
  9 10  1  0
  9 11  1  0
 11 12  2  3
 11 30  1  0
 12 13  1  0
 13 14  1  0
 14 15  1  1
 14 16  1  0
 16 17  1  0
 18 17  1  1
 18 19  1  0
 18 29  1  0
 19 20  1  0
 20 21  1  0
 21 22  1  0
 22 23  1  6
 22 25  1  0
 22 29  1  0
 23 24  1  0
 25 26  1  0
 26 27  1  0
 27 28  1  0
M  END
