
     RDKit          3D

 31 33  0  0  0  0  0  0  0  0999 V2000
    8.8560    1.3640    0.8050 C   0  0  0  0  0  0  0  0  0  0  0  0
    8.1530    0.9570   -0.4710 C   0  0  1  0  0  0  0  0  0  0  0  0
    8.6090   -0.3530   -0.7490 O   0  0  0  0  0  0  0  0  0  0  0  0
    6.6780    0.8140   -0.2440 C   0  0  0  0  0  0  0  0  0  0  0  0
    5.8670    1.3130    0.6760 C   0  0  0  0  0  0  0  0  0  0  0  0
    4.5460    1.0150    0.6480 C   0  0  0  0  0  0  0  0  0  0  0  0
    4.0970    0.2060   -0.3330 C   0  0  0  0  0  0  0  0  0  0  0  0
    2.7790   -0.3260   -0.6820 C   0  0  0  0  0  0  0  0  0  0  0  0
    2.6180   -1.0840   -1.6760 O   0  0  0  0  0  0  0  0  0  0  0  0
    1.6410   -0.0110    0.0800 N   0  0  0  0  0  0  0  0  0  0  0  0
    0.3740   -0.5440   -0.2850 N   0  0  0  0  0  0  0  0  0  0  0  0
    0.2130   -1.9300   -0.2880 C   0  0  0  0  0  0  0  0  0  0  0  0
    1.2380   -2.6270    0.0280 O   0  0  0  0  0  0  0  0  0  0  0  0
   -0.9560   -2.5940   -0.6120 N   0  0  0  0  0  0  0  0  0  0  0  0
   -1.1170   -4.0690   -0.7840 C   0  0  0  0  0  0  0  0  0  0  0  0
   -1.8730   -3.9810   -2.1160 C   0  0  0  0  0  0  0  0  0  0  0  0
   -1.6570   -4.6270   -3.1530 O   0  0  0  0  0  0  0  0  0  0  0  0
   -2.8450   -2.9980   -1.8400 N   0  0  0  0  0  0  0  0  0  0  0  0
   -2.2590   -2.0810   -0.8460 C   0  0  0  0  0  0  0  0  0  0  0  0
   -2.9330   -1.1640   -0.3400 N   0  0  0  0  0  0  0  0  0  0  0  0
   -2.8130   -0.2060    0.6540 C   0  0  1  0  0  0  0  0  0  0  0  0
   -3.0850    1.1160    0.0500 N   0  0  0  0  0  0  0  0  0  0  0  0
   -4.3360    0.9410   -0.6810 C   0  0  0  0  0  0  0  0  0  0  0  0
   -5.4580    1.0420    0.3290 C   0  0  2  0  0  0  0  0  0  0  0  0
   -5.4540    2.2650    0.9910 O   0  0  0  0  0  0  0  0  0  0  0  0
   -6.6950    2.9070    0.8870 C   0  0  0  0  0  0  0  0  0  0  0  0
   -7.0420    3.1590   -0.4370 O   0  0  0  0  0  0  0  0  0  0  0  0
   -5.2470    0.0070    1.3200 N   0  0  0  0  0  0  0  0  0  0  0  0
   -3.9210   -0.3340    1.7010 C   0  0  0  0  0  0  0  0  0  0  0  0
   -3.6280   -0.7320    2.8550 O   0  0  0  0  0  0  0  0  0  0  0  0
    5.6360   -0.1410   -1.2550 S   0  0  0  0  0  0  0  0  0  0  0  0
  2  1  1  1
  2  3  1  0
  2  4  1  0
  4  5  2  0
  4 31  1  0
  5  6  1  0
  6  7  2  0
  7  8  1  0
  7 31  1  0
  8  9  2  0
  8 10  1  0
 10 11  1  0
 11 12  1  0
 12 13  2  0
 12 14  1  0
 14 15  1  0
 14 19  1  0
 15 16  1  0
 16 17  2  0
 16 18  1  0
 18 19  1  0
 19 20  2  3
 21 20  1  6
 21 22  1  0
 21 29  1  0
 22 23  1  0
 23 24  1  0
 24 25  1  1
 24 28  1  0
 25 26  1  0
 26 27  1  0
 28 29  1  0
 29 30  2  0
M  CHG  1  22   1
M  END
