
     RDKit          3D

 30 32  0  0  0  0  0  0  0  0999 V2000
    7.7840   -0.0920   -0.7730 C   0  0  0  0  0  0  0  0  0  0  0  0
    6.6830    0.6310   -0.2830 O   0  0  0  0  0  0  0  0  0  0  0  0
    5.8960   -0.1720    0.4910 C   0  0  1  0  0  0  0  0  0  0  0  0
    5.7440    0.3720    1.8750 C   0  0  0  0  0  0  0  0  0  0  0  0
    4.9770   -0.3790    2.7200 O   0  0  0  0  0  0  0  0  0  0  0  0
    4.2610   -1.3620    2.1520 N   0  0  0  0  0  0  0  0  0  0  0  0
    3.7670   -1.2120    0.8420 C   0  0  0  0  0  0  0  0  0  0  0  0
    2.7520   -1.8250    0.4760 O   0  0  0  0  0  0  0  0  0  0  0  0
    4.4790   -0.3160   -0.0820 C   0  0  1  0  0  0  0  0  0  0  0  0
    3.8220    0.9860   -0.0350 N   0  0  0  0  0  0  0  0  0  0  0  0
    3.0140    1.0980   -1.1740 N   0  0  0  0  0  0  0  0  0  0  0  0
    1.6360    0.7510   -1.1810 C   0  0  0  0  0  0  0  0  0  0  0  0
    1.2470   -0.2530   -1.9370 C   0  0  0  0  0  0  0  0  0  0  0  0
   -0.1440   -0.6710   -2.0010 C   0  0  0  0  0  0  0  0  0  0  0  0
   -0.5000   -1.6290   -2.7270 O   0  0  0  0  0  0  0  0  0  0  0  0
   -1.1230    0.0640   -1.1890 C   0  0  0  0  0  0  0  0  0  0  0  0
   -2.3740   -0.2720   -1.2130 C   0  0  0  0  0  0  0  0  0  0  0  0
   -3.4590    0.2860   -0.5260 N   0  0  0  0  0  0  0  0  0  0  0  0
   -4.7010   -0.2880   -0.7500 C   0  0  0  0  0  0  0  0  0  0  0  0
   -5.9450    0.1880   -0.0980 C   0  0  0  0  0  0  0  0  0  0  0  0
   -5.9000    1.1550    0.6970 O   0  0  0  0  0  0  0  0  0  0  0  0
   -7.2150   -0.3950   -0.3240 N   0  0  0  0  0  0  0  0  0  0  0  0
   -8.3820    0.1280    0.3540 C   0  0  0  0  0  0  0  0  0  0  0  0
   -8.2100    0.0040    1.8120 C   0  0  0  0  0  0  0  0  0  0  0  0
   -7.0420   -0.5650    2.3600 N   0  0  0  0  0  0  0  0  0  0  0  0
   -9.1030    0.4030    2.6120 O   0  0  0  0  0  0  0  0  0  0  0  0
   -4.7660   -1.3020   -1.5820 C   0  0  0  0  0  0  0  0  0  0  0  0
   -3.0900   -1.5860   -2.1610 S   0  0  0  0  0  0  0  0  0  0  0  0
   -0.5900    1.1610   -0.3840 C   0  0  0  0  0  0  0  0  0  0  0  0
    0.6640    1.4310   -0.4160 N   0  0  0  0  0  0  0  0  0  0  0  0
  1  2  1  0
  3  2  1  6
  3  4  1  0
  3  9  1  0
  4  5  1  0
  5  6  1  0
  6  7  1  0
  7  8  2  0
  7  9  1  0
  9 10  1  1
 10 11  1  0
 11 12  1  0
 12 13  2  0
 12 30  1  0
 13 14  1  0
 14 15  2  0
 14 16  1  0
 16 17  2  3
 16 29  1  0
 17 18  1  0
 17 28  1  0
 18 19  1  0
 19 20  1  0
 19 27  2  0
 20 21  2  0
 20 22  1  0
 22 23  1  0
 23 24  1  0
 24 25  1  0
 24 26  2  0
 27 28  1  0
 29 30  2  0
M  CHG  1  10   1
M  END
