
     RDKit          3D

 35 38  0  0  0  0  0  0  0  0999 V2000
    8.5620   -2.4480    1.0050 C   0  0  0  0  0  0  0  0  0  0  0  0
    7.8660   -2.9690    0.0090 C   0  0  0  0  0  0  0  0  0  0  0  0
    7.7090   -2.2730   -1.2810 C   0  0  0  0  0  0  0  0  0  0  0  0
    6.3400   -2.0100   -1.6230 N   0  0  0  0  0  0  0  0  0  0  0  0
    5.4710   -1.1310   -0.9280 C   0  0  0  0  0  0  0  0  0  0  0  0
    5.9140   -0.2730    0.0260 C   0  0  0  0  0  0  0  0  0  0  0  0
    5.0260    0.5520    0.6820 C   0  0  0  0  0  0  0  0  0  0  0  0
    3.6540    0.5740    0.4300 C   0  0  0  0  0  0  0  0  0  0  0  0
    3.1990   -0.3040   -0.5470 C   0  0  0  0  0  0  0  0  0  0  0  0
    4.1080   -1.1170   -1.1860 C   0  0  0  0  0  0  0  0  0  0  0  0
    1.7540   -0.4040   -0.9060 C   0  0  0  0  0  0  0  0  0  0  0  0
    0.9060   -0.1600   -0.1060 N   0  0  0  0  0  0  0  0  0  0  0  0
   -0.2590    0.0210    0.4830 N   0  0  0  0  0  0  0  0  0  0  0  0
   -1.4180    0.4480   -0.2130 C   0  0  0  0  0  0  0  0  0  0  0  0
   -1.6540    1.5920   -0.8140 C   0  0  0  0  0  0  0  0  0  0  0  0
   -2.9340    1.7440   -1.4470 N   0  0  0  0  0  0  0  0  0  0  0  0
   -3.9920    2.4270   -0.7540 C   0  0  0  0  0  0  0  0  0  0  0  0
   -4.3460    1.8600    0.5140 N   0  0  0  0  0  0  0  0  0  0  0  0
   -4.8930    0.5680    0.5980 C   0  0  0  0  0  0  0  0  0  0  0  0
   -5.1430   -0.1510   -0.5410 C   0  0  0  0  0  0  0  0  0  0  0  0
   -5.6870   -1.4130   -0.4390 C   0  0  0  0  0  0  0  0  0  0  0  0
   -5.9730   -1.9430    0.7930 C   0  0  0  0  0  0  0  0  0  0  0  0
   -5.7100   -1.1920    1.9450 C   0  0  0  0  0  0  0  0  0  0  0  0
   -5.1680    0.0690    1.8640 C   0  0  0  0  0  0  0  0  0  0  0  0
   -4.8960    0.8460    3.0830 C   0  0  0  0  0  0  0  0  0  0  0  0
   -6.4830   -3.1510    0.6770 C   0  0  0  0  0  0  0  0  0  0  0  0
   -6.5470   -3.4690   -0.7690 C   0  0  0  0  0  0  0  0  0  0  0  0
   -6.0040   -2.2700   -1.4120 C   0  0  0  0  0  0  0  0  0  0  0  0
   -0.5750    2.9600   -0.9020 S   0  0  1  0  0  0  0  0  0  0  0  0
   -1.1680    3.9770   -1.8880 O   0  0  0  0  0  0  0  0  0  0  0  0
   -0.5870    3.7320    0.4150 O   0  0  0  0  0  0  0  0  0  0  0  0
    0.9730    2.6310   -1.4840 N   0  0  0  0  0  0  0  0  0  0  0  0
    2.0790    2.9440   -0.6500 C   0  0  0  0  0  0  0  0  0  0  0  0
    2.0330    2.4930    0.7520 C   0  0  0  0  0  0  0  0  0  0  0  0
    2.8470    1.4190    1.1190 O   0  0  0  0  0  0  0  0  0  0  0  0
  1  2  2  0
  2  3  1  0
  3  4  1  0
  4  5  1  0
  5  6  2  0
  5 10  1  0
  6  7  1  0
  7  8  2  0
  8  9  1  0
  8 35  1  0
  9 10  2  0
  9 11  1  0
 11 12  2  0
 12 13  1  0
 13 14  1  0
 14 15  2  0
 15 16  1  0
 15 29  1  0
 16 17  1  0
 17 18  1  0
 18 19  1  0
 19 20  2  0
 19 24  1  0
 20 21  1  0
 21 22  1  0
 21 28  2  0
 22 23  1  0
 22 26  2  0
 23 24  2  0
 24 25  1  0
 26 27  1  0
 27 28  1  0
 29 30  2  0
 29 31  2  0
 29 32  1  6
 32 33  1  0
 33 34  1  0
 34 35  1  0
M  END
