
     RDKit          3D

 35 37  0  0  0  0  0  0  0  0999 V2000
    4.3060    2.1390    2.6690 C   0  0  0  0  0  0  0  0  0  0  0  0
    4.0610    1.1840    1.6300 N   0  0  0  0  0  0  0  0  0  0  0  0
    4.9370    0.5930    0.9200 C   0  0  0  0  0  0  0  0  0  0  0  0
    6.3540    0.9550    1.2270 C   0  0  0  0  0  0  0  0  0  0  0  0
    7.3200    0.0100    0.6710 C   0  0  0  0  0  0  0  0  0  0  0  0
    6.9930   -0.9220   -0.1930 C   0  0  0  0  0  0  0  0  0  0  0  0
    8.0530   -1.8410   -0.7180 C   0  0  0  0  0  0  0  0  0  0  0  0
    5.6160   -1.1130   -0.5570 C   0  0  0  0  0  0  0  0  0  0  0  0
    4.5570   -0.4020   -0.0600 C   0  0  0  0  0  0  0  0  0  0  0  0
    3.2430   -0.7150   -0.5110 C   0  0  0  0  0  0  0  0  0  0  0  0
    2.0330   -0.3740   -0.4040 C   0  0  0  0  0  0  0  0  0  0  0  0
    1.3960    0.6370    0.3350 C   0  0  0  0  0  0  0  0  0  0  0  0
    0.1250    0.9750    0.4240 C   0  0  0  0  0  0  0  0  0  0  0  0
   -0.1670    2.0930    1.3200 N   0  0  0  0  0  0  0  0  0  0  0  0
   -1.4510    2.5860    1.5390 C   0  0  0  0  0  0  0  0  0  0  0  0
   -2.5590    2.0680    0.9360 C   0  0  0  0  0  0  0  0  0  0  0  0
   -3.7840    2.6910    1.2740 C   0  0  0  0  0  0  0  0  0  0  0  0
   -5.0370    2.6750    1.0710 C   0  0  0  0  0  0  0  0  0  0  0  0
   -5.8240    3.7100    1.8210 C   0  0  0  0  0  0  0  0  0  0  0  0
   -5.2270    4.5210    2.5870 O   0  0  0  0  0  0  0  0  0  0  0  0
   -7.2150    3.8310    1.7160 N   0  0  0  0  0  0  0  0  0  0  0  0
   -7.9540    2.9670    0.8840 C   0  0  0  0  0  0  0  0  0  0  0  0
   -9.5810    3.1370    0.7850 S   0  0  0  0  0  0  0  0  0  0  0  0
   -7.2890    1.9760    0.1530 N   0  0  0  0  0  0  0  0  0  0  0  0
   -5.8380    1.8250    0.2420 C   0  0  0  0  0  0  0  0  0  0  0  0
   -5.3600    0.9160   -0.4470 O   0  0  0  0  0  0  0  0  0  0  0  0
   -2.2850    0.9860    0.0640 C   0  0  0  0  0  0  0  0  0  0  0  0
   -3.1970    0.4310   -0.5400 O   0  0  0  0  0  0  0  0  0  0  0  0
   -0.9540    0.4110   -0.2200 N   0  0  0  0  0  0  0  0  0  0  0  0
   -0.9580   -0.6550   -1.1990 C   0  0  0  0  0  0  0  0  0  0  0  0
   -1.1370   -1.9530   -0.5110 C   0  0  0  0  0  0  0  0  0  0  0  0
   -1.1510   -3.1050   -1.3640 N   0  0  0  0  0  0  0  0  0  0  0  0
   -2.1750   -3.0840   -2.3710 C   0  0  2  0  0  0  0  0  0  0  0  0
   -3.5650   -3.0840   -1.7710 C   0  0  0  0  0  0  0  0  0  0  0  0
   -2.0520   -4.4080   -3.1370 C   0  0  0  0  0  0  0  0  0  0  0  0
  1  2  1  0
  2  3  2  3
  3  4  1  0
  3  9  1  0
  4  5  1  0
  5  6  2  0
  6  7  1  0
  6  8  1  0
  8  9  2  0
  9 10  1  0
 10 11  2  3
 11 12  1  0
 12 13  2  3
 13 14  1  0
 13 29  1  0
 14 15  1  0
 15 16  2  0
 16 17  1  0
 16 27  1  0
 17 18  2  3
 18 19  1  0
 18 25  1  0
 19 20  2  0
 19 21  1  0
 21 22  1  0
 22 23  2  0
 22 24  1  0
 24 25  1  0
 25 26  2  0
 27 28  2  0
 27 29  1  0
 29 30  1  0
 30 31  1  0
 31 32  1  0
 32 33  1  0
 33 34  1  1
 33 35  1  0
M  CHG  1  32   1
M  END
