
     RDKit          3D

 35 38  0  0  0  0  0  0  0  0999 V2000
    5.1900   -1.3340    3.7430 C   0  0  0  0  0  0  0  0  0  0  0  0
    5.7410   -1.1600    2.3690 C   0  0  1  0  0  0  0  0  0  0  0  0
    4.6510   -0.8810    1.3540 C   0  0  0  0  0  0  0  0  0  0  0  0
    5.1840   -0.7130    0.0870 O   0  0  0  0  0  0  0  0  0  0  0  0
    4.5680   -0.4530   -1.0980 C   0  0  0  0  0  0  0  0  0  0  0  0
    5.3500   -0.3230   -2.2200 C   0  0  0  0  0  0  0  0  0  0  0  0
    4.7510   -0.0610   -3.4220 C   0  0  0  0  0  0  0  0  0  0  0  0
    3.3680    0.0720   -3.4960 C   0  0  0  0  0  0  0  0  0  0  0  0
    2.5440   -0.0490   -2.3960 C   0  0  0  0  0  0  0  0  0  0  0  0
    1.1540    0.1090   -2.5630 N   0  0  0  0  0  0  0  0  0  0  0  0
    0.7030    0.5120   -3.9240 C   0  0  0  0  0  0  0  0  0  0  0  0
    0.1640   -0.0980   -1.5390 C   0  0  0  0  0  0  0  0  0  0  0  0
   -0.4390    1.2510   -1.1970 C   0  0  0  0  0  0  0  0  0  0  0  0
   -0.0170    2.2850   -1.7600 O   0  0  0  0  0  0  0  0  0  0  0  0
   -1.4840    1.3190   -0.2380 N   0  0  0  0  0  0  0  0  0  0  0  0
   -2.1300    2.4800    0.1850 C   0  0  0  0  0  0  0  0  0  0  0  0
   -1.7550    3.7770   -0.0660 C   0  0  0  0  0  0  0  0  0  0  0  0
   -2.4350    4.8820    0.4300 C   0  0  0  0  0  0  0  0  0  0  0  0
   -3.5420    4.6890    1.2140 C   0  0  0  0  0  0  0  0  0  0  0  0
   -3.9580    3.4110    1.4950 C   0  0  0  0  0  0  0  0  0  0  0  0
   -3.2670    2.3240    0.9900 C   0  0  0  0  0  0  0  0  0  0  0  0
   -3.7180    1.0020    1.2680 N   0  0  0  0  0  0  0  0  0  0  0  0
   -4.1570    0.2330    0.3610 C   0  0  0  0  0  0  0  0  0  0  0  0
   -4.2750    0.6910   -1.3930 S   0  0  0  0  0  0  0  0  0  0  0  0
   -4.9570   -0.9110   -1.9320 C   0  0  0  0  0  0  0  0  0  0  0  0
   -5.0080   -1.5810   -0.7300 C   0  0  0  0  0  0  0  0  0  0  0  0
   -4.6260   -1.0290    0.3570 N   0  0  0  0  0  0  0  0  0  0  0  0
   -4.7250   -1.8630    1.5820 C   0  0  0  0  0  0  0  0  0  0  0  0
   -6.0860   -2.4640    1.6700 C   0  0  0  0  0  0  0  0  0  0  0  0
   -6.5550   -2.9950    0.4260 N   0  0  0  0  0  0  0  0  0  0  0  0
   -5.5140   -3.0180   -0.5900 C   0  0  0  0  0  0  0  0  0  0  0  0
    3.1790   -0.3150   -1.1990 C   0  0  0  0  0  0  0  0  0  0  0  0
    6.7790   -0.1240    2.3670 C   0  0  0  0  0  0  0  0  0  0  0  0
    8.0280   -0.2720    3.0410 N   0  0  0  0  0  0  0  0  0  0  0  0
    6.6000    0.9770    1.7470 O   0  0  0  0  0  0  0  0  0  0  0  0
  2  1  1  1
  2  3  1  0
  2 33  1  0
  3  4  1  0
  4  5  1  0
  5  6  2  0
  5 32  1  0
  6  7  1  0
  7  8  2  0
  8  9  1  0
  9 10  1  0
  9 32  2  0
 10 11  1  0
 10 12  1  0
 12 13  1  0
 13 14  2  0
 13 15  1  0
 15 16  1  0
 16 17  2  0
 16 21  1  0
 17 18  1  0
 18 19  2  0
 19 20  1  0
 20 21  2  0
 21 22  1  0
 22 23  2  3
 23 24  1  0
 23 27  1  0
 24 25  1  0
 25 26  2  0
 26 27  1  0
 26 31  1  0
 27 28  1  0
 28 29  1  0
 29 30  1  0
 30 31  1  0
 33 34  1  0
 33 35  2  0
M  CHG  1  30   1
M  END
