
     RDKit          3D

 34 34  0  0  0  0  0  0  0  0999 V2000
   -3.3060    2.4080    3.8230 C   0  0  0  0  0  0  0  0  0  0  0  0
   -2.1750    2.9860    2.9960 C   0  0  0  0  0  0  0  0  0  0  0  0
   -2.7150    3.3230    1.7240 O   0  0  0  0  0  0  0  0  0  0  0  0
   -3.2700    2.2790    0.9940 C   0  0  0  0  0  0  0  0  0  0  0  0
   -3.2820    1.1030    1.4570 O   0  0  0  0  0  0  0  0  0  0  0  0
   -3.8030    2.6030   -0.2560 O   0  0  0  0  0  0  0  0  0  0  0  0
   -4.3650    1.5930   -1.0270 C   0  0  0  0  0  0  0  0  0  0  0  0
   -3.3930    0.5670   -1.4100 C   0  0  0  0  0  0  0  0  0  0  0  0
   -3.7720   -0.4790   -2.0450 O   0  0  0  0  0  0  0  0  0  0  0  0
   -1.9930    0.6120   -1.1390 N   0  0  0  0  0  0  0  0  0  0  0  0
   -1.1270   -0.4370   -1.5500 C   0  0  0  0  0  0  0  0  0  0  0  0
   -0.1180   -0.3060   -2.3670 C   0  0  0  0  0  0  0  0  0  0  0  0
    0.8180   -1.3520   -2.8290 C   0  0  1  0  0  0  0  0  0  0  0  0
    0.7250   -1.2530   -4.3830 C   0  0  0  0  0  0  0  0  0  0  0  0
    2.2010   -0.8240   -2.5200 C   0  0  2  0  0  0  0  0  0  0  0  0
    3.2220   -1.7170   -2.8460 O   0  0  0  0  0  0  0  0  0  0  0  0
    2.3970   -0.0100   -1.3260 C   0  0  0  0  0  0  0  0  0  0  0  0
    2.1400   -0.4940    0.0010 C   0  0  0  0  0  0  0  0  0  0  0  0
    1.7940   -1.6380    0.2900 O   0  0  0  0  0  0  0  0  0  0  0  0
    2.2890    0.4100    1.1250 N   0  0  0  0  0  0  0  0  0  0  0  0
    2.0460   -0.0150    2.4560 C   0  0  0  0  0  0  0  0  0  0  0  0
    1.6950   -1.2090    2.6150 O   0  0  0  0  0  0  0  0  0  0  0  0
    2.2030    0.9270    3.6170 C   0  0  1  0  0  0  0  0  0  0  0  0
    1.8780    0.2110    4.7810 O   0  0  0  0  0  0  0  0  0  0  0  0
    3.6410    1.3600    3.7780 C   0  0  1  0  0  0  0  0  0  0  0  0
    4.0290    2.0750    2.6620 O   0  0  0  0  0  0  0  0  0  0  0  0
    3.6740    2.2400    4.8630 O   0  0  0  0  0  0  0  0  0  0  0  0
    0.4960   -2.6900   -2.3660 C   0  0  2  0  0  0  0  0  0  0  0  0
    0.2750   -3.7410   -3.4110 C   0  0  0  0  0  0  0  0  0  0  0  0
   -0.0550   -5.0260   -2.8700 N   0  0  0  0  0  0  0  0  0  0  0  0
    0.3380   -3.6420   -4.6220 O   0  0  0  0  0  0  0  0  0  0  0  0
   -0.6430   -2.7800   -1.4430 C   0  0  0  0  0  0  0  0  0  0  0  0
   -1.4050   -1.7830   -1.0500 C   0  0  0  0  0  0  0  0  0  0  0  0
   -2.4940   -1.9540   -0.1550 N   0  0  0  0  0  0  0  0  0  0  0  0
  1  2  1  0
  2  3  1  0
  3  4  1  0
  4  5  2  0
  4  6  1  0
  6  7  1  0
  7  8  1  0
  8  9  2  0
  8 10  1  0
 10 11  1  0
 11 12  2  0
 11 33  1  0
 12 13  1  0
 13 14  1  6
 13 15  1  0
 13 28  1  0
 15 16  1  1
 15 17  1  0
 17 18  1  0
 18 19  2  0
 18 20  1  0
 20 21  1  0
 21 22  2  0
 21 23  1  0
 23 24  1  1
 23 25  1  0
 25 26  1  6
 25 27  1  0
 28 29  1  6
 28 32  1  0
 29 30  1  0
 29 31  2  0
 32 33  2  0
 33 34  1  0
M  END
