
     RDKit          3D

 35 38  0  0  0  0  0  0  0  0999 V2000
   -5.7290    0.9810   -1.7160 C   0  0  0  0  0  0  0  0  0  0  0  0
   -4.3660    0.4320   -1.5810 C   0  0  0  0  0  0  0  0  0  0  0  0
   -3.2930    1.2710   -1.9230 C   0  0  0  0  0  0  0  0  0  0  0  0
   -2.0300    0.8260   -1.7880 C   0  0  0  0  0  0  0  0  0  0  0  0
   -0.8650    1.6930   -2.1430 C   0  0  0  0  0  0  0  0  0  0  0  0
   -1.8010   -0.4820   -1.3030 C   0  0  0  0  0  0  0  0  0  0  0  0
   -0.3930   -0.8080   -1.1520 C   0  0  0  0  0  0  0  0  0  0  0  0
    0.2360   -1.3080   -2.1230 O   0  0  0  0  0  0  0  0  0  0  0  0
    0.3080   -0.5620    0.0510 N   0  0  0  0  0  0  0  0  0  0  0  0
   -0.4610   -0.4700    1.2830 C   0  0  0  0  0  0  0  0  0  0  0  0
    1.6980   -0.4280   -0.0400 C   0  0  0  0  0  0  0  0  0  0  0  0
    2.4480   -0.2050   -1.1560 N   0  0  0  0  0  0  0  0  0  0  0  0
    3.6950   -0.0370   -1.0100 N   0  0  0  0  0  0  0  0  0  0  0  0
    4.3350   -0.0500    0.0390 C   0  0  0  0  0  0  0  0  0  0  0  0
    5.6610    0.1750    0.5180 N   0  0  0  0  0  0  0  0  0  0  0  0
    6.6280    0.6270   -0.4130 C   0  0  0  0  0  0  0  0  0  0  0  0
    6.2220    0.7760   -1.6060 O   0  0  0  0  0  0  0  0  0  0  0  0
    8.0190    0.9140   -0.0890 C   0  0  0  0  0  0  0  0  0  0  0  0
    8.9140    1.3770   -0.9890 C   0  0  0  0  0  0  0  0  0  0  0  0
   10.2010    1.5420   -0.2960 C   0  0  0  0  0  0  0  0  0  0  0  0
    9.9420    1.1200    1.0870 C   0  0  0  0  0  0  0  0  0  0  0  0
    8.6500    0.7510    1.1960 C   0  0  0  0  0  0  0  0  0  0  0  0
    8.0940    0.2780    2.4440 N   0  0  0  0  0  0  0  0  0  0  0  0
    2.9100   -0.3810    1.2130 S   0  0  0  0  0  0  0  0  0  0  0  0
   -2.8590   -1.2730   -0.9810 C   0  0  0  0  0  0  0  0  0  0  0  0
   -2.6160   -2.6600   -0.4610 C   0  0  0  0  0  0  0  0  0  0  0  0
   -4.1630   -0.8370   -1.1110 C   0  0  0  0  0  0  0  0  0  0  0  0
   -5.3230   -1.6140   -0.7370 C   0  0  0  0  0  0  0  0  0  0  0  0
   -5.6500   -2.6670   -1.3130 O   0  0  0  0  0  0  0  0  0  0  0  0
   -6.1620   -1.1300    0.3940 C   0  0  0  0  0  0  0  0  0  0  0  0
   -7.4730   -1.4600    0.4740 C   0  0  0  0  0  0  0  0  0  0  0  0
   -8.2340   -0.9870    1.5180 C   0  0  0  0  0  0  0  0  0  0  0  0
   -7.6940   -0.1960    2.4670 N   0  0  0  0  0  0  0  0  0  0  0  0
   -6.3630    0.1390    2.3830 C   0  0  0  0  0  0  0  0  0  0  0  0
   -5.5990   -0.3250    1.3540 C   0  0  0  0  0  0  0  0  0  0  0  0
  1  2  1  0
  2  3  2  0
  2 27  1  0
  3  4  1  0
  4  5  1  0
  4  6  2  0
  6  7  1  0
  6 25  1  0
  7  8  2  0
  7  9  1  0
  9 10  1  0
  9 11  1  0
 11 12  2  0
 11 24  1  0
 12 13  1  0
 13 14  2  0
 14 15  1  0
 14 24  1  0
 15 16  1  0
 16 17  2  0
 16 18  1  0
 18 19  2  0
 18 22  1  0
 19 20  1  0
 20 21  1  0
 21 22  2  0
 22 23  1  0
 25 26  1  0
 25 27  2  0
 27 28  1  0
 28 29  2  0
 28 30  1  0
 30 31  2  0
 30 35  1  0
 31 32  1  0
 32 33  2  0
 33 34  1  0
 34 35  2  0
M  CHG  1  33   1
M  END
