
     RDKit          3D

 35 37  0  0  0  0  0  0  0  0999 V2000
   -3.5670    6.1150    2.8590 C   0  0  0  0  0  0  0  0  0  0  0  0
   -2.6610    6.9750    2.0830 C   0  0  0  0  0  0  0  0  0  0  0  0
   -1.7180    6.4910    1.2800 C   0  0  0  0  0  0  0  0  0  0  0  0
   -1.5440    5.0740    1.1380 C   0  0  0  0  0  0  0  0  0  0  0  0
   -0.5890    4.6120    0.3250 C   0  0  0  0  0  0  0  0  0  0  0  0
   -0.4300    3.1730    0.1950 C   0  0  0  0  0  0  0  0  0  0  0  0
    0.4990    2.6430   -0.5950 C   0  0  0  0  0  0  0  0  0  0  0  0
    1.4480    3.4400   -1.4090 C   0  0  0  0  0  0  0  0  0  0  0  0
    1.5170    4.6760   -1.4680 O   0  0  0  0  0  0  0  0  0  0  0  0
    2.2570    2.5060   -2.1010 N   0  0  0  0  0  0  0  0  0  0  0  0
    1.8490    1.2180   -1.7510 C   0  0  0  0  0  0  0  0  0  0  0  0
    2.4470    0.0100   -2.2620 N   0  0  0  0  0  0  0  0  0  0  0  0
    3.3350   -0.6300   -1.5660 C   0  0  0  0  0  0  0  0  0  0  0  0
    3.9610   -1.8480   -2.0430 C   0  0  0  0  0  0  0  0  0  0  0  0
    4.8700   -2.6090   -1.4620 C   0  0  0  0  0  0  0  0  0  0  0  0
    5.4430   -2.3200   -0.1260 C   0  0  0  0  0  0  0  0  0  0  0  0
    5.1840   -3.6950   -2.3010 N   0  0  0  0  0  0  0  0  0  0  0  0
    4.3940   -3.5440   -3.4500 C   0  0  0  0  0  0  0  0  0  0  0  0
    3.6560   -2.4670   -3.3410 C   0  0  0  0  0  0  0  0  0  0  0  0
    0.8100    1.2540   -0.8610 C   0  0  0  0  0  0  0  0  0  0  0  0
    0.2140    0.0260   -0.3550 C   0  0  0  0  0  0  0  0  0  0  0  0
    0.7140   -1.0900   -0.8010 O   0  0  0  0  0  0  0  0  0  0  0  0
   -0.8190   -0.0790    0.5420 N   0  0  0  0  0  0  0  0  0  0  0  0
   -1.4310   -1.3000    1.0340 C   0  0  0  0  0  0  0  0  0  0  0  0
   -0.9530   -2.6110    0.5840 C   0  0  0  0  0  0  0  0  0  0  0  0
   -1.5020   -2.9860   -0.7610 C   0  0  0  0  0  0  0  0  0  0  0  0
   -0.9130   -4.3510   -1.1500 C   0  0  0  0  0  0  0  0  0  0  0  0
   -1.4770   -4.7120   -2.5070 C   0  0  0  0  0  0  0  0  0  0  0  0
   -2.3980   -1.1510    1.9090 C   0  0  0  0  0  0  0  0  0  0  0  0
   -2.9820    0.4350    2.5090 S   0  0  0  0  0  0  0  0  0  0  0  0
   -4.2420   -0.2560    3.5930 C   0  0  0  0  0  0  0  0  0  0  0  0
   -5.0890    0.5670    4.3910 N   0  0  0  0  0  0  0  0  0  0  0  0
   -4.1700   -1.4980    3.4640 N   0  0  0  0  0  0  0  0  0  0  0  0
   -3.2470   -2.0720    2.6140 C   0  0  0  0  0  0  0  0  0  0  0  0
   -3.1600   -3.3420    2.4670 O   0  0  0  0  0  0  0  0  0  0  0  0
  1  2  1  0
  2  3  2  3
  3  4  1  0
  4  5  2  3
  5  6  1  0
  6  7  2  3
  7  8  1  0
  7 20  1  0
  8  9  2  0
  8 10  1  0
 10 11  1  0
 11 12  1  0
 11 20  2  0
 12 13  2  3
 13 14  1  0
 14 15  2  0
 14 19  1  0
 15 16  1  0
 15 17  1  0
 17 18  1  0
 18 19  2  0
 20 21  1  0
 21 22  2  0
 21 23  1  0
 23 24  1  0
 24 25  1  0
 24 29  2  3
 25 26  1  0
 26 27  1  0
 27 28  1  0
 29 30  1  0
 29 34  1  0
 30 31  1  0
 31 32  1  0
 31 33  2  0
 33 34  1  0
 34 35  2  0
M  CHG  1  17   1
M  END
