
     RDKit          3D

 35 37  0  0  0  0  0  0  0  0999 V2000
   -3.9060    1.5750   -0.3320 C   0  0  0  0  0  0  0  0  0  0  0  0
   -4.8480    0.3470   -0.5760 C   0  0  2  0  0  0  0  0  0  0  0  0
   -4.8580    0.2640   -2.0090 O   0  0  0  0  0  0  0  0  0  0  0  0
   -6.1510    0.6170   -0.0290 C   0  0  0  0  0  0  0  0  0  0  0  0
   -7.2420   -0.1420   -0.2170 C   0  0  0  0  0  0  0  0  0  0  0  0
   -8.5130    0.0230    0.2450 C   0  0  0  0  0  0  0  0  0  0  0  0
   -8.7070    1.1830    1.0600 C   0  0  0  0  0  0  0  0  0  0  0  0
   -9.9790    1.3830    1.5480 O   0  0  0  0  0  0  0  0  0  0  0  0
   -7.6210    1.9870    1.2870 C   0  0  0  0  0  0  0  0  0  0  0  0
   -6.3630    1.7840    0.8050 C   0  0  0  0  0  0  0  0  0  0  0  0
   -4.0870   -0.8320   -0.0490 C   0  0  2  0  0  0  0  0  0  0  0  0
   -2.6740   -0.7000   -0.4760 N   0  0  0  0  0  0  0  0  0  0  0  0
   -1.5830   -0.6420    0.3740 C   0  0  0  0  0  0  0  0  0  0  0  0
   -1.7360   -0.7530    1.6520 O   0  0  0  0  0  0  0  0  0  0  0  0
   -0.2130   -0.4440   -0.0560 C   0  0  0  0  0  0  0  0  0  0  0  0
    0.0980    0.8740   -0.3860 C   0  0  0  0  0  0  0  0  0  0  0  0
    1.4870    1.1460   -0.6770 C   0  0  0  0  0  0  0  0  0  0  0  0
    2.4230    0.1350   -0.6270 C   0  0  0  0  0  0  0  0  0  0  0  0
    3.7750    0.3020   -0.6500 C   0  0  0  0  0  0  0  0  0  0  0  0
    5.1000    0.4430   -0.6680 C   0  0  0  0  0  0  0  0  0  0  0  0
    6.3630    0.5690   -0.6780 C   0  0  0  0  0  0  0  0  0  0  0  0
    7.5990    0.6930   -0.6800 C   0  0  0  0  0  0  0  0  0  0  0  0
    9.0890    0.8370   -0.6740 C   0  0  0  0  0  0  0  0  0  0  0  0
    9.7290    1.7680   -0.0930 C   0  0  0  0  0  0  0  0  0  0  0  0
   10.9230    1.3910    0.7080 C   0  0  0  0  0  0  0  0  0  0  0  0
   11.2900    0.0860    0.7460 C   0  0  0  0  0  0  0  0  0  0  0  0
   12.3890   -0.4100    1.5870 N   0  0  0  0  0  0  0  0  0  0  0  0
   10.6260   -0.9600    0.0830 C   0  0  0  0  0  0  0  0  0  0  0  0
    9.5200   -0.5970   -0.6290 C   0  0  0  0  0  0  0  0  0  0  0  0
    1.9870   -1.1800   -0.2900 C   0  0  0  0  0  0  0  0  0  0  0  0
    0.6760   -1.4770   -0.0010 C   0  0  0  0  0  0  0  0  0  0  0  0
   -4.6160   -2.1060   -0.6560 C   0  0  0  0  0  0  0  0  0  0  0  0
   -4.3240   -2.4390   -1.7960 O   0  0  0  0  0  0  0  0  0  0  0  0
   -5.4650   -2.8820    0.1460 N   0  0  0  0  0  0  0  0  0  0  0  0
   -5.9550   -4.0440   -0.3800 O   0  0  0  0  0  0  0  0  0  0  0  0
  2  1  1  6
  2  3  1  0
  2  4  1  0
  2 11  1  0
  4  5  2  0
  4 10  1  0
  5  6  1  0
  6  7  2  0
  7  8  1  0
  7  9  1  0
  9 10  2  0
 11 12  1  6
 11 32  1  0
 12 13  1  0
 13 14  2  0
 13 15  1  0
 15 16  2  0
 15 31  1  0
 16 17  1  0
 17 18  2  0
 18 19  1  0
 18 30  1  0
 19 20  3  0
 20 21  1  0
 21 22  3  0
 22 23  1  0
 23 24  2  0
 23 29  1  0
 24 25  1  0
 25 26  2  0
 26 27  1  0
 26 28  1  0
 28 29  2  0
 30 31  2  0
 32 33  2  0
 32 34  1  0
 34 35  1  0
M  END
