
     RDKit          3D

 35 38  0  0  0  0  0  0  0  0999 V2000
    4.2570   -1.5240    0.4400 O   0  0  0  0  0  0  0  0  0  0  0  0
    5.0420   -1.0130   -0.3660 C   0  0  0  0  0  0  0  0  0  0  0  0
    6.3560   -0.5430    0.1210 C   0  0  0  0  0  0  0  0  0  0  0  0
    6.6830   -0.6650    1.3880 C   0  0  0  0  0  0  0  0  0  0  0  0
    7.9290   -0.2450    1.9750 C   0  0  0  0  0  0  0  0  0  0  0  0
    8.1940   -0.4730    3.3320 C   0  0  0  0  0  0  0  0  0  0  0  0
    9.4160    0.0230    3.5650 N   0  0  0  0  0  0  0  0  0  0  0  0
    9.8780    0.5330    2.4050 C   0  0  0  0  0  0  0  0  0  0  0  0
    9.0070    0.3930    1.4090 N   0  0  0  0  0  0  0  0  0  0  0  0
    9.3640    0.8950    0.1390 C   0  0  0  0  0  0  0  0  0  0  0  0
   10.5880    1.7550    0.1400 C   0  0  0  0  0  0  0  0  0  0  0  0
   11.3130    1.3440    1.7480 S   0  0  0  0  0  0  0  0  0  0  0  0
    4.7010   -0.8760   -1.7210 N   0  0  0  0  0  0  0  0  0  0  0  0
    3.4210   -1.3350   -2.1950 C   0  0  0  0  0  0  0  0  0  0  0  0
    2.2470   -0.6750   -1.5500 C   0  0  0  0  0  0  0  0  0  0  0  0
    0.9960   -1.2360   -2.1280 C   0  0  0  0  0  0  0  0  0  0  0  0
    1.0080   -2.1200   -3.0140 O   0  0  0  0  0  0  0  0  0  0  0  0
   -0.2860   -0.7580   -1.6610 N   0  0  0  0  0  0  0  0  0  0  0  0
   -1.4460   -1.3260   -2.2460 C   0  0  0  0  0  0  0  0  0  0  0  0
   -2.7430   -0.8250   -1.7580 C   0  0  0  0  0  0  0  0  0  0  0  0
   -3.7660   -1.3520   -2.3000 O   0  0  0  0  0  0  0  0  0  0  0  0
   -2.9470    0.1530   -0.7770 N   0  0  0  0  0  0  0  0  0  0  0  0
   -4.1720    0.6560   -0.2790 C   0  0  0  0  0  0  0  0  0  0  0  0
   -4.1210    1.8060    0.5210 C   0  0  0  0  0  0  0  0  0  0  0  0
   -5.2870    2.3010    1.0200 C   0  0  0  0  0  0  0  0  0  0  0  0
   -6.5200    1.7350    0.7830 C   0  0  0  0  0  0  0  0  0  0  0  0
   -6.5490    0.6080   -0.0020 C   0  0  0  0  0  0  0  0  0  0  0  0
   -7.7700   -0.0720   -0.2870 N   0  0  0  0  0  0  0  0  0  0  0  0
   -8.8530    0.0050    0.6140 C   0  0  0  0  0  0  0  0  0  0  0  0
  -10.1220   -0.1410    0.0530 C   0  0  0  0  0  0  0  0  0  0  0  0
  -11.2290   -0.1110    0.8520 C   0  0  0  0  0  0  0  0  0  0  0  0
  -11.0750    0.0650    2.2100 C   0  0  0  0  0  0  0  0  0  0  0  0
   -9.8320    0.2110    2.7850 C   0  0  0  0  0  0  0  0  0  0  0  0
   -8.6970    0.1780    1.9610 C   0  0  0  0  0  0  0  0  0  0  0  0
   -5.3640    0.0680   -0.5360 C   0  0  0  0  0  0  0  0  0  0  0  0
  1  2  2  0
  2  3  1  0
  2 13  1  0
  3  4  2  3
  4  5  1  0
  5  6  2  0
  5  9  1  0
  6  7  1  0
  7  8  2  0
  8  9  1  0
  8 12  1  0
  9 10  1  0
 10 11  1  0
 11 12  1  0
 13 14  1  0
 14 15  1  0
 15 16  1  0
 16 17  2  0
 16 18  1  0
 18 19  1  0
 19 20  1  0
 20 21  2  0
 20 22  1  0
 22 23  1  0
 23 24  2  0
 23 35  1  0
 24 25  1  0
 25 26  2  0
 26 27  1  0
 27 28  1  0
 27 35  2  0
 28 29  1  0
 29 30  2  0
 29 34  1  0
 30 31  1  0
 31 32  2  0
 32 33  1  0
 33 34  2  0
M  CHG  1   7   1
M  END
