
     RDKit          3D

 19 21  0  0  0  0  0  0  0  0999 V2000
   -3.3880    2.5220    1.4180 N   0  0  0  0  0  0  0  0  0  0  0  0
   -3.2060    1.3330    0.6420 C   0  0  0  0  0  0  0  0  0  0  0  0
   -4.2480    0.8120   -0.0320 N   0  0  0  0  0  0  0  0  0  0  0  0
   -4.1480   -0.2930   -0.7730 C   0  0  0  0  0  0  0  0  0  0  0  0
   -5.1420   -0.7590   -1.3950 O   0  0  0  0  0  0  0  0  0  0  0  0
   -2.9110   -0.9070   -0.8330 C   0  0  0  0  0  0  0  0  0  0  0  0
   -2.4620   -1.9990   -1.4620 N   0  0  0  0  0  0  0  0  0  0  0  0
   -1.1440   -2.1880   -1.2010 C   0  0  0  0  0  0  0  0  0  0  0  0
   -0.7490   -1.1940   -0.3890 N   0  0  0  0  0  0  0  0  0  0  0  0
    0.5610   -1.0060    0.1330 C   0  0  1  0  0  0  0  0  0  0  0  0
    1.6410   -1.3980   -0.8830 C   0  0  0  0  0  0  0  0  0  0  0  0
    2.8550   -0.8240   -0.1780 C   0  0  2  0  0  0  0  0  0  0  0  0
    3.3560   -1.8470    0.6430 O   0  0  0  0  0  0  0  0  0  0  0  0
    2.2600    0.2810    0.6420 C   0  0  1  0  0  0  0  0  0  0  0  0
    2.9490    1.5840    0.3420 C   0  0  0  0  0  0  0  0  0  0  0  0
    2.4280    2.6320    1.0720 O   0  0  0  0  0  0  0  0  0  0  0  0
    0.9020    0.3250    0.3550 O   0  0  0  0  0  0  0  0  0  0  0  0
   -1.8030   -0.3990   -0.1490 C   0  0  0  0  0  0  0  0  0  0  0  0
   -2.0030    0.7340    0.5830 N   0  0  0  0  0  0  0  0  0  0  0  0
  1  2  1  0
  2  3  2  0
  2 19  1  0
  3  4  1  0
  4  5  2  0
  4  6  1  0
  6  7  1  0
  6 18  2  0
  7  8  2  0
  8  9  1  0
 10  9  1  6
  9 18  1  0
 10 11  1  0
 10 17  1  0
 11 12  1  0
 12 13  1  1
 12 14  1  0
 14 15  1  6
 14 17  1  0
 15 16  1  0
 18 19  1  0
M  END
