
     RDKit          3D

 25 27  0  0  0  0  0  0  0  0999 V2000
   -6.0840    0.5830   -0.7040 C   0  0  0  0  0  0  0  0  0  0  0  0
   -4.6770    0.6810   -0.2350 C   0  0  0  0  0  0  0  0  0  0  0  0
   -4.4290    1.2780    0.9720 C   0  0  0  0  0  0  0  0  0  0  0  0
   -3.1170    1.3580    1.3860 C   0  0  0  0  0  0  0  0  0  0  0  0
   -2.1010    0.8580    0.6180 C   0  0  0  0  0  0  0  0  0  0  0  0
   -2.4060    0.2720   -0.5780 C   0  0  0  0  0  0  0  0  0  0  0  0
   -1.4090   -0.3010   -1.4950 C   0  0  0  0  0  0  0  0  0  0  0  0
   -0.0580   -0.1670   -1.0630 N   0  0  0  0  0  0  0  0  0  0  0  0
    0.2300   -1.1160   -0.0510 C   0  0  0  0  0  0  0  0  0  0  0  0
   -0.7400   -1.9670    0.3840 C   0  0  0  0  0  0  0  0  0  0  0  0
   -0.4760   -2.9050    1.3760 C   0  0  0  0  0  0  0  0  0  0  0  0
   -1.7210   -4.0040    1.9400 Cl  0  0  0  0  0  0  0  0  0  0  0  0
    0.7890   -2.9460    1.9010 C   0  0  0  0  0  0  0  0  0  0  0  0
    1.1800   -4.1000    3.1470 Cl  0  0  0  0  0  0  0  0  0  0  0  0
    1.7720   -2.0650    1.4440 C   0  0  0  0  0  0  0  0  0  0  0  0
    1.5410   -1.1400    0.4760 C   0  0  0  0  0  0  0  0  0  0  0  0
    2.4570   -0.2110   -0.0520 N   0  0  0  0  0  0  0  0  0  0  0  0
    3.8150   -0.0570    0.3210 C   0  0  0  0  0  0  0  0  0  0  0  0
    4.2660   -0.8170    1.2130 O   0  0  0  0  0  0  0  0  0  0  0  0
    4.6700    0.9530   -0.3070 C   0  0  0  0  0  0  0  0  0  0  0  0
    4.3490    1.8550   -1.2830 C   0  0  0  0  0  0  0  0  0  0  0  0
    5.4960    2.6040   -1.5520 C   0  0  0  0  0  0  0  0  0  0  0  0
    6.4480    2.1630   -0.7710 O   0  0  0  0  0  0  0  0  0  0  0  0
    5.9870    1.1670   -0.0050 C   0  0  0  0  0  0  0  0  0  0  0  0
   -3.7040    0.1900   -0.9930 N   0  0  0  0  0  0  0  0  0  0  0  0
  1  2  1  0
  2  3  2  0
  2 25  1  0
  3  4  1  0
  4  5  2  0
  5  6  1  0
  6  7  1  0
  6 25  2  0
  7  8  1  0
  8  9  1  0
  9 10  2  0
  9 16  1  0
 10 11  1  0
 11 12  1  0
 11 13  2  0
 13 14  1  0
 13 15  1  0
 15 16  2  0
 16 17  1  0
 17 18  1  0
 18 19  2  0
 18 20  1  0
 20 21  1  0
 20 24  2  0
 21 22  2  0
 22 23  1  0
 23 24  1  0
M  CHG  1   8   1
M  END
