
     RDKit          3D

 27 29  0  0  0  0  0  0  0  0999 V2000
    1.9680    0.2600    1.3830 N   0  0  0  0  0  0  0  0  0  0  0  0
    1.7710    0.0620   -0.0290 C   0  0  1  0  0  0  0  0  0  0  0  0
    0.8450    1.2080   -0.4770 C   0  0  0  0  0  0  0  0  0  0  0  0
   -0.4090    1.2120    0.1870 N   0  0  0  0  0  0  0  0  0  0  0  0
   -1.2990    0.1230    0.0770 C   0  0  0  0  0  0  0  0  0  0  0  0
   -1.0210   -0.8740   -0.6040 O   0  0  0  0  0  0  0  0  0  0  0  0
   -2.5990    0.1880    0.8030 C   0  0  1  0  0  0  0  0  0  0  0  0
   -3.4340    1.3130    0.3320 C   0  0  0  0  0  0  0  0  0  0  0  0
   -4.8080    1.3770    0.5920 C   0  0  0  0  0  0  0  0  0  0  0  0
   -5.2840    2.5380    0.0220 C   0  0  0  0  0  0  0  0  0  0  0  0
   -4.1890    3.1380   -0.5610 C   0  0  0  0  0  0  0  0  0  0  0  0
   -3.1340    2.3820   -0.3510 O   0  0  0  0  0  0  0  0  0  0  0  0
   -3.3160   -1.0500    0.5210 N   0  0  0  0  0  0  0  0  0  0  0  0
   -3.6870   -1.2780   -0.8000 N   0  0  0  0  0  0  0  0  0  0  0  0
   -4.3810   -2.4550   -1.1340 C   0  0  0  0  0  0  0  0  0  0  0  0
   -4.7160   -2.6620   -2.3210 O   0  0  0  0  0  0  0  0  0  0  0  0
   -4.7050   -3.4100   -0.1360 N   0  0  0  0  0  0  0  0  0  0  0  0
   -4.3300   -3.1710    1.1770 N   0  0  0  0  0  0  0  0  0  0  0  0
   -3.6300   -1.9880    1.5240 C   0  0  0  0  0  0  0  0  0  0  0  0
   -3.2790   -1.7500    2.7070 O   0  0  0  0  0  0  0  0  0  0  0  0
    2.9990    0.1770   -0.8420 C   0  0  0  0  0  0  0  0  0  0  0  0
    4.1250   -0.7360   -0.6310 C   0  0  1  0  0  0  0  0  0  0  0  0
    5.2150   -0.3560   -1.6400 C   0  0  0  0  0  0  0  0  0  0  0  0
    5.8270    0.9380   -1.1560 C   0  0  0  0  0  0  0  0  0  0  0  0
    5.9300    0.6130    0.6240 S   0  0  0  0  0  0  0  0  0  0  0  0
    5.3590    1.7700    1.4230 O   0  0  0  0  0  0  0  0  0  0  0  0
    4.7980   -0.8230    0.6750 C   0  0  0  0  0  0  0  0  0  0  0  0
  2  1  1  1
  2  3  1  0
  2 21  1  0
  3  4  1  0
  4  5  1  0
  5  6  2  0
  5  7  1  0
  7  8  1  0
  7 13  1  6
  8  9  2  0
  8 12  1  0
  9 10  1  0
 10 11  2  0
 11 12  1  0
 13 14  1  0
 13 19  1  0
 14 15  1  0
 15 16  2  0
 15 17  1  0
 17 18  1  0
 18 19  1  0
 19 20  2  0
 22 21  1  1
 22 23  1  0
 22 27  1  0
 23 24  1  0
 25 24  1  6
 25 26  2  0
 25 27  1  0
M  CHG  1   1   1
M  END
