
     RDKit          3D

 27 28  0  0  0  0  0  0  0  0999 V2000
    1.8810   -2.2730   -3.3760 C   0  0  0  0  0  0  0  0  0  0  0  0
    1.9210   -1.2270   -2.3090 C   0  0  0  0  0  0  0  0  0  0  0  0
    3.0320   -0.7990   -1.5930 C   0  0  0  0  0  0  0  0  0  0  0  0
    2.6510    0.1740   -0.7090 C   0  0  0  0  0  0  0  0  0  0  0  0
    3.4570    0.8880    0.2170 N   0  0  0  0  0  0  0  0  0  0  0  0
    4.8640    0.6890    0.3750 C   0  0  0  0  0  0  0  0  0  0  0  0
    5.4450   -0.1460   -0.3180 O   0  0  0  0  0  0  0  0  0  0  0  0
    5.8030    1.6420    1.5740 S   0  0  0  0  0  0  0  0  0  0  0  0
    7.5310    1.1160    1.4880 C   0  0  0  0  0  0  0  0  0  0  0  0
    7.7050   -0.2830    1.9350 C   0  0  0  0  0  0  0  0  0  0  0  0
    7.6360   -1.4130    1.0960 N   0  0  0  0  0  0  0  0  0  0  0  0
    7.9330   -0.4870    3.1650 O   0  0  0  0  0  0  0  0  0  0  0  0
    1.3260    0.3400   -0.8780 N   0  0  0  0  0  0  0  0  0  0  0  0
    0.4700    1.2470   -0.1760 C   0  0  0  0  0  0  0  0  0  0  0  0
    0.8340    2.0240    0.7090 O   0  0  0  0  0  0  0  0  0  0  0  0
   -0.9840    1.2690   -0.5300 C   0  0  2  0  0  0  0  0  0  0  0  0
   -1.6920    2.1840    0.2360 O   0  0  0  0  0  0  0  0  0  0  0  0
   -3.0030    1.8960   -0.0430 C   0  0  0  0  0  0  0  0  0  0  0  0
   -3.1270    0.4190   -0.0940 C   0  0  2  0  0  0  0  0  0  0  0  0
   -3.7320   -0.2210    1.0190 N   0  0  0  0  0  0  0  0  0  0  0  0
   -3.7470   -1.6450    0.8070 C   0  0  0  0  0  0  0  0  0  0  0  0
   -4.9700    0.3070    1.4780 C   0  0  0  0  0  0  0  0  0  0  0  0
   -6.1240    0.1210    0.5170 C   0  0  0  0  0  0  0  0  0  0  0  0
   -7.2950    0.7260    1.1640 N   0  0  0  0  0  0  0  0  0  0  0  0
   -1.6570   -0.0290   -0.1300 C   0  0  2  0  0  0  0  0  0  0  0  0
   -1.2320   -0.4640    1.1150 O   0  0  0  0  0  0  0  0  0  0  0  0
    0.9070   -0.5010   -1.8340 N   0  0  0  0  0  0  0  0  0  0  0  0
  1  2  1  0
  2  3  1  0
  2 27  2  0
  3  4  2  0
  4  5  1  0
  4 13  1  0
  5  6  1  0
  6  7  2  0
  6  8  1  0
  8  9  1  0
  9 10  1  0
 10 11  1  0
 10 12  2  0
 13 14  1  0
 13 27  1  0
 14 15  2  0
 16 14  1  1
 16 17  1  0
 16 25  1  0
 17 18  1  0
 18 19  1  0
 19 20  1  1
 19 25  1  0
 20 21  1  0
 20 22  1  0
 22 23  1  0
 23 24  1  0
 25 26  1  1
M  CHG  1  24   1
M  END
