
     RDKit          3D

 25 27  0  0  0  0  0  0  0  0999 V2000
    6.1670    0.4690    1.2680 C   0  0  0  0  0  0  0  0  0  0  0  0
    5.6160   -0.0780   -0.0360 C   0  0  1  0  0  0  0  0  0  0  0  0
    6.2760    0.5990   -1.2120 C   0  0  0  0  0  0  0  0  0  0  0  0
    5.7870   -1.5090   -0.0430 N   0  0  0  0  0  0  0  0  0  0  0  0
    4.7960   -1.9230    0.9640 C   0  0  0  0  0  0  0  0  0  0  0  0
    3.6370   -1.0670    0.5160 C   0  0  0  0  0  0  0  0  0  0  0  0
    2.3060   -1.2260    0.6140 N   0  0  0  0  0  0  0  0  0  0  0  0
    1.4990   -0.2730    0.1100 C   0  0  0  0  0  0  0  0  0  0  0  0
    0.0480   -0.4750    0.2330 C   0  0  0  0  0  0  0  0  0  0  0  0
   -0.6380    0.6170   -0.3470 O   0  0  0  0  0  0  0  0  0  0  0  0
   -2.0160    0.6080   -0.3280 C   0  0  0  0  0  0  0  0  0  0  0  0
   -2.6930    1.6660   -0.8890 C   0  0  0  0  0  0  0  0  0  0  0  0
   -4.0830    1.6800   -0.8830 C   0  0  0  0  0  0  0  0  0  0  0  0
   -4.8020    0.6490   -0.3210 C   0  0  0  0  0  0  0  0  0  0  0  0
   -6.2560    0.7020   -0.3360 C   0  0  1  0  0  0  0  0  0  0  0  0
   -6.7610    0.6730    1.1010 C   0  0  0  0  0  0  0  0  0  0  0  0
   -6.7970    2.2320   -1.0940 Cl  0  0  0  0  0  0  0  0  0  0  0  0
   -6.9270   -0.4220   -1.0820 C   0  0  0  0  0  0  0  0  0  0  0  0
   -8.6980   -0.1250   -0.9520 Cl  0  0  0  0  0  0  0  0  0  0  0  0
   -4.1280   -0.4120    0.2420 C   0  0  0  0  0  0  0  0  0  0  0  0
   -4.8870   -1.4290    0.7970 O   0  0  0  0  0  0  0  0  0  0  0  0
   -2.7270   -0.4240    0.2350 C   0  0  0  0  0  0  0  0  0  0  0  0
    1.9780    0.8260   -0.4870 N   0  0  0  0  0  0  0  0  0  0  0  0
    3.3020    1.0270   -0.6080 C   0  0  0  0  0  0  0  0  0  0  0  0
    4.1380    0.0630   -0.0980 C   0  0  0  0  0  0  0  0  0  0  0  0
  2  1  1  1
  2  3  1  0
  2  4  1  0
  2 25  1  0
  4  5  1  0
  5  6  1  0
  6  7  2  0
  6 25  1  0
  7  8  1  0
  8  9  1  0
  8 23  2  0
  9 10  1  0
 10 11  1  0
 11 12  2  0
 11 22  1  0
 12 13  1  0
 13 14  2  0
 14 15  1  0
 14 20  1  0
 15 16  1  1
 15 17  1  0
 15 18  1  0
 18 19  1  0
 20 21  1  0
 20 22  2  0
 23 24  1  0
 24 25  2  0
M  CHG  1   4   1
M  END
