
     RDKit          3D

 25 27  0  0  0  0  0  0  0  0999 V2000
    5.5710   -2.4190   -1.0130 C   0  0  0  0  0  0  0  0  0  0  0  0
    4.4950   -1.7280   -0.4240 O   0  0  0  0  0  0  0  0  0  0  0  0
    4.4950   -0.3450   -0.4130 C   0  0  0  0  0  0  0  0  0  0  0  0
    5.5410    0.3380   -0.9740 C   0  0  0  0  0  0  0  0  0  0  0  0
    5.5590    1.7080   -0.9730 C   0  0  0  0  0  0  0  0  0  0  0  0
    4.5320    2.4220   -0.4100 C   0  0  0  0  0  0  0  0  0  0  0  0
    4.5430    4.1810   -0.4020 Cl  0  0  0  0  0  0  0  0  0  0  0  0
    3.4800    1.7110    0.1540 C   0  0  0  0  0  0  0  0  0  0  0  0
    3.4460    0.3570    0.1620 C   0  0  0  0  0  0  0  0  0  0  0  0
    2.3930   -0.3920    0.7260 N   0  0  0  0  0  0  0  0  0  0  0  0
    1.2410    0.1070    1.3550 C   0  0  0  0  0  0  0  0  0  0  0  0
    1.0360    1.3170    1.4760 O   0  0  0  0  0  0  0  0  0  0  0  0
    0.2270   -0.7660    1.8970 N   0  0  0  0  0  0  0  0  0  0  0  0
   -0.9670   -0.2870    2.5470 C   0  0  0  0  0  0  0  0  0  0  0  0
   -1.8440    0.5590    1.6650 C   0  0  0  0  0  0  0  0  0  0  0  0
   -2.3150   -0.1060    0.4940 N   0  0  1  0  0  0  0  0  0  0  0  0
   -2.6260   -1.4960    0.6880 C   0  0  0  0  0  0  0  0  0  0  0  0
   -3.4210   -1.7840   -0.5960 C   0  0  0  0  0  0  0  0  0  0  0  0
   -4.2510   -0.5630   -0.6580 C   0  0  0  0  0  0  0  0  0  0  0  0
   -5.4720   -0.2780   -1.2100 C   0  0  0  0  0  0  0  0  0  0  0  0
   -6.0320    0.9970   -1.1130 C   0  0  0  0  0  0  0  0  0  0  0  0
   -7.6000    1.3150   -1.8360 Cl  0  0  0  0  0  0  0  0  0  0  0  0
   -5.3370    1.9930   -0.4440 C   0  0  0  0  0  0  0  0  0  0  0  0
   -4.1040    1.6870    0.1070 C   0  0  0  0  0  0  0  0  0  0  0  0
   -3.5460    0.4160    0.0100 C   0  0  0  0  0  0  0  0  0  0  0  0
  1  2  1  0
  2  3  1  0
  3  4  2  0
  3  9  1  0
  4  5  1  0
  5  6  2  0
  6  7  1  0
  6  8  1  0
  8  9  2  0
  9 10  1  0
 10 11  1  0
 11 12  2  0
 11 13  1  0
 13 14  1  0
 14 15  1  0
 16 15  1  1
 16 17  1  0
 16 25  1  0
 17 18  1  0
 18 19  1  0
 19 20  2  0
 19 25  1  0
 20 21  1  0
 21 22  1  0
 21 23  2  0
 23 24  1  0
 24 25  2  0
M  CHG  1  16   1
M  END
