
     RDKit          3D

 28 30  0  0  0  0  0  0  0  0999 V2000
    4.1440    0.4880   -1.9790 C   0  0  0  0  0  0  0  0  0  0  0  0
    3.9480    1.3410   -0.7890 C   0  0  2  0  0  0  0  0  0  0  0  0
    3.6560    2.7750   -1.2890 C   0  0  0  0  0  0  0  0  0  0  0  0
    4.9900    1.4600    0.1470 N   0  0  0  0  0  0  0  0  0  0  0  0
    5.4400    0.3260    0.8540 C   0  0  0  0  0  0  0  0  0  0  0  0
    6.1600   -0.7170    0.0300 C   0  0  2  0  0  0  0  0  0  0  0  0
    6.7620   -1.7910    0.9520 C   0  0  0  0  0  0  0  0  0  0  0  0
    8.2410   -1.4830    1.0220 C   0  0  0  0  0  0  0  0  0  0  0  0
    8.3100   -0.1360    0.3180 C   0  0  0  0  0  0  0  0  0  0  0  0
    7.2830   -0.2320   -0.5870 O   0  0  0  0  0  0  0  0  0  0  0  0
    2.6350    0.9360   -0.1490 C   0  0  0  0  0  0  0  0  0  0  0  0
    2.5870    0.7800    1.0850 O   0  0  0  0  0  0  0  0  0  0  0  0
    1.5410    0.7640   -1.0230 N   0  0  0  0  0  0  0  0  0  0  0  0
    0.2400    0.3990   -0.6280 C   0  0  0  0  0  0  0  0  0  0  0  0
   -0.1640    0.5350    0.6670 C   0  0  0  0  0  0  0  0  0  0  0  0
   -1.4680    0.1320    0.9930 C   0  0  0  0  0  0  0  0  0  0  0  0
   -2.3230   -0.3840    0.0570 C   0  0  0  0  0  0  0  0  0  0  0  0
   -3.6180   -0.7820    0.4350 N   0  0  0  0  0  0  0  0  0  0  0  0
   -3.9300   -1.1110    1.8000 C   0  0  0  0  0  0  0  0  0  0  0  0
   -5.0860   -0.1590    2.1630 C   0  0  0  0  0  0  0  0  0  0  0  0
   -6.1740   -0.4990    1.3050 N   0  0  0  0  0  0  0  0  0  0  0  0
   -5.9670   -0.3430   -0.0930 C   0  0  2  0  0  0  0  0  0  0  0  0
   -6.1510    1.1370   -0.4340 C   0  0  0  0  0  0  0  0  0  0  0  0
   -7.0600   -1.0860   -0.8300 C   0  0  0  0  0  0  0  0  0  0  0  0
   -8.3300   -0.5010   -0.4250 N   0  0  0  0  0  0  0  0  0  0  0  0
   -4.6390   -0.8220   -0.6030 C   0  0  0  0  0  0  0  0  0  0  0  0
   -1.8780   -0.5120   -1.2690 C   0  0  0  0  0  0  0  0  0  0  0  0
   -0.6070   -0.1170   -1.5790 C   0  0  0  0  0  0  0  0  0  0  0  0
  2  1  1  6
  2  3  1  0
  2  4  1  0
  2 11  1  0
  4  5  1  0
  6  5  1  1
  6  7  1  0
  6 10  1  0
  7  8  1  0
  8  9  1  0
  9 10  1  0
 11 12  2  0
 11 13  1  0
 13 14  1  0
 14 15  2  0
 14 28  1  0
 15 16  1  0
 16 17  2  0
 17 18  1  0
 17 27  1  0
 18 19  1  0
 18 26  1  0
 19 20  1  0
 20 21  1  0
 21 22  1  0
 22 23  1  1
 22 24  1  0
 22 26  1  0
 24 25  1  0
 27 28  2  0
M  CHG  2  21   1  25   1
M  END
