
     RDKit          3D

 28 30  0  0  0  0  0  0  0  0999 V2000
   -8.3510    1.1190   -0.3240 C   0  0  0  0  0  0  0  0  0  0  0  0
   -7.0050    1.3540    0.3180 C   0  0  0  0  0  0  0  0  0  0  0  0
   -6.5760    0.1110    1.0700 C   0  0  2  0  0  0  0  0  0  0  0  0
   -7.6470   -0.1420    2.1260 C   0  0  0  0  0  0  0  0  0  0  0  0
   -5.3360    0.3040    1.7740 N   0  0  0  0  0  0  0  0  0  0  0  0
   -4.2110    0.5850    0.9280 C   0  0  0  0  0  0  0  0  0  0  0  0
   -4.1770   -0.1940   -0.3470 C   0  0  1  0  0  0  0  0  0  0  0  0
   -2.7670   -0.7230   -0.4920 C   0  0  0  0  0  0  0  0  0  0  0  0
   -2.5440   -1.9300   -0.6590 O   0  0  0  0  0  0  0  0  0  0  0  0
   -1.6820    0.1860   -0.4360 N   0  0  0  0  0  0  0  0  0  0  0  0
   -0.3210   -0.1010   -0.5480 C   0  0  0  0  0  0  0  0  0  0  0  0
    0.2160   -1.3420   -0.7360 C   0  0  0  0  0  0  0  0  0  0  0  0
    1.6080   -1.4940   -0.8320 C   0  0  0  0  0  0  0  0  0  0  0  0
    2.4780   -0.4300   -0.7460 C   0  0  0  0  0  0  0  0  0  0  0  0
    3.9330   -0.6100   -0.8500 C   0  0  0  0  0  0  0  0  0  0  0  0
    4.5510   -1.7420   -1.0280 C   0  0  0  0  0  0  0  0  0  0  0  0
    5.9560   -1.5720   -1.0850 N   0  0  0  0  0  0  0  0  0  0  0  0
    6.2330   -0.1920   -0.9250 C   0  0  0  0  0  0  0  0  0  0  0  0
    7.4090    0.4260   -0.9130 C   0  0  0  0  0  0  0  0  0  0  0  0
    8.6660   -0.3250   -1.0780 C   0  0  0  0  0  0  0  0  0  0  0  0
    9.5270   -0.1520    0.0980 N   0  0  0  0  0  0  0  0  0  0  0  0
    8.6570    0.0230    1.2450 C   0  0  0  0  0  0  0  0  0  0  0  0
    4.9190    0.4880   -0.7660 C   0  0  0  0  0  0  0  0  0  0  0  0
    1.9280    0.8200   -0.5570 C   0  0  0  0  0  0  0  0  0  0  0  0
    0.5700    0.9510   -0.4640 C   0  0  0  0  0  0  0  0  0  0  0  0
   -5.1350   -1.2530   -0.4290 N   0  0  0  0  0  0  0  0  0  0  0  0
   -6.4000   -1.0470    0.1700 C   0  0  0  0  0  0  0  0  0  0  0  0
   -7.3610   -1.8170   -0.0440 O   0  0  0  0  0  0  0  0  0  0  0  0
  1  2  1  0
  2  3  1  0
  3  4  1  1
  3  5  1  0
  3 27  1  0
  5  6  1  0
  6  7  1  0
  7  8  1  1
  7 26  1  0
  8  9  2  0
  8 10  1  0
 10 11  1  0
 11 12  2  0
 11 25  1  0
 12 13  1  0
 13 14  2  0
 14 15  1  0
 14 24  1  0
 15 16  2  0
 15 23  1  0
 16 17  1  0
 17 18  1  0
 18 19  2  3
 18 23  1  0
 19 20  1  0
 20 21  1  0
 21 22  1  0
 24 25  2  0
 26 27  1  0
 27 28  2  0
M  CHG  2   5   1  21   1
M  END
