
     RDKit          3D

 28 29  0  0  0  0  0  0  0  0999 V2000
   -8.1920    0.1110   -1.5220 C   0  0  0  0  0  0  0  0  0  0  0  0
   -7.2940    0.1450   -0.2680 C   0  0  1  0  0  0  0  0  0  0  0  0
   -7.2250   -1.3040    0.1870 C   0  0  0  0  0  0  0  0  0  0  0  0
   -5.9210    0.6500   -0.6620 C   0  0  0  0  0  0  0  0  0  0  0  0
   -5.0510    0.7910    0.5500 C   0  0  2  0  0  0  0  0  0  0  0  0
   -4.1910   -0.3580    0.7800 N   0  0  0  0  0  0  0  0  0  0  0  0
   -2.7650   -0.1950    1.0010 C   0  0  0  0  0  0  0  0  0  0  0  0
   -2.3720    0.9900    0.9880 O   0  0  0  0  0  0  0  0  0  0  0  0
   -1.9110   -1.3930    1.2140 C   0  0  0  0  0  0  0  0  0  0  0  0
   -0.4730   -1.0080    1.4170 C   0  0  0  0  0  0  0  0  0  0  0  0
    0.1440   -0.3130    0.2270 C   0  0  0  0  0  0  0  0  0  0  0  0
    1.4900    0.0360    0.3650 N   0  0  0  0  0  0  0  0  0  0  0  0
    2.0340    0.7260   -0.7320 C   0  0  0  0  0  0  0  0  0  0  0  0
    3.3900    0.2090   -1.1580 C   0  0  0  0  0  0  0  0  0  0  0  0
    4.1050   -0.2400    0.0060 N   0  0  0  0  0  0  0  0  0  0  0  0
    5.2020   -1.1240   -0.0830 C   0  0  0  0  0  0  0  0  0  0  0  0
    6.3520   -1.1720   -0.3370 C   0  0  0  0  0  0  0  0  0  0  0  0
    7.2630   -0.0980   -0.8020 C   0  0  0  0  0  0  0  0  0  0  0  0
    8.5160   -0.3040   -1.0620 C   0  0  0  0  0  0  0  0  0  0  0  0
    9.1850   -1.5820   -0.9360 C   0  0  0  0  0  0  0  0  0  0  0  0
   10.4010   -1.6480   -1.2290 O   0  0  0  0  0  0  0  0  0  0  0  0
    9.3110    0.8920   -1.5240 C   0  0  0  0  0  0  0  0  0  0  0  0
    9.7590    0.6420   -2.8600 N   0  0  0  0  0  0  0  0  0  0  0  0
    3.6810    0.2410    1.3040 C   0  0  0  0  0  0  0  0  0  0  0  0
    2.2330   -0.2400    1.4970 C   0  0  0  0  0  0  0  0  0  0  0  0
   -5.8340    1.1800    1.7780 C   0  0  0  0  0  0  0  0  0  0  0  0
   -7.0990    1.8900    1.4070 C   0  0  0  0  0  0  0  0  0  0  0  0
   -7.9630    0.9760    0.6860 N   0  0  0  0  0  0  0  0  0  0  0  0
  2  1  1  6
  2  3  1  0
  2  4  1  0
  2 28  1  0
  4  5  1  0
  5  6  1  1
  5 26  1  0
  6  7  1  0
  7  8  2  0
  7  9  1  0
  9 10  1  0
 10 11  1  0
 11 12  1  0
 12 13  1  0
 12 25  1  0
 13 14  1  0
 14 15  1  0
 15 16  1  0
 15 24  1  0
 16 17  2  3
 17 18  1  0
 18 19  2  3
 19 20  1  0
 19 22  1  0
 20 21  2  0
 22 23  1  0
 24 25  1  0
 26 27  1  0
 27 28  1  0
M  CHG  2  23   1  28   1
M  END
