
     RDKit          3D

 28 30  0  0  0  0  0  0  0  0999 V2000
    8.6000    0.9270   -0.3530 C   0  0  0  0  0  0  0  0  0  0  0  0
    7.4190    1.6440    0.1300 C   0  0  0  0  0  0  0  0  0  0  0  0
    6.2360    1.1260    0.2470 C   0  0  0  0  0  0  0  0  0  0  0  0
    5.1030    1.9110    0.7390 C   0  0  0  0  0  0  0  0  0  0  0  0
    4.1680    2.5500    1.1610 C   0  0  0  0  0  0  0  0  0  0  0  0
    3.0490    3.3400    1.6800 C   0  0  0  0  0  0  0  0  0  0  0  0
    1.9440    2.5200    1.9300 O   0  0  0  0  0  0  0  0  0  0  0  0
    1.3290    1.7910    0.9520 C   0  0  0  0  0  0  0  0  0  0  0  0
    1.7640    1.8540   -0.2060 O   0  0  0  0  0  0  0  0  0  0  0  0
    0.1430    0.9120    1.2180 C   0  0  0  0  0  0  0  0  0  0  0  0
   -0.2980    0.2720   -0.0040 N   0  0  2  0  0  0  0  0  0  0  0  0
   -1.3820    1.0020   -0.5900 C   0  0  0  0  0  0  0  0  0  0  0  0
   -2.6400    0.7160    0.1990 C   0  0  0  0  0  0  0  0  0  0  0  0
   -3.0480   -0.7060   -0.1110 C   0  0  2  0  0  0  0  0  0  0  0  0
   -3.8840   -1.2840    1.0010 C   0  0  1  0  0  0  0  0  0  0  0  0
   -5.0600   -0.4570    1.1360 N   0  0  0  0  0  0  0  0  0  0  0  0
   -5.8990   -0.7670    0.0410 C   0  0  0  0  0  0  0  0  0  0  0  0
   -6.9210   -0.0850   -0.6280 C   0  0  0  0  0  0  0  0  0  0  0  0
   -7.5930   -0.6390   -1.6970 C   0  0  0  0  0  0  0  0  0  0  0  0
   -7.2300   -1.9060   -2.1050 C   0  0  0  0  0  0  0  0  0  0  0  0
   -6.2200   -2.5880   -1.4500 C   0  0  0  0  0  0  0  0  0  0  0  0
   -5.5360   -2.0470   -0.3760 C   0  0  0  0  0  0  0  0  0  0  0  0
   -4.4720   -2.5140    0.4730 N   0  0  0  0  0  0  0  0  0  0  0  0
   -1.8560   -1.5740   -0.4400 C   0  0  0  0  0  0  0  0  0  0  0  0
   -0.6050   -1.1140    0.2680 C   0  0  0  0  0  0  0  0  0  0  0  0
    5.9500   -0.2510   -0.0980 C   0  0  0  0  0  0  0  0  0  0  0  0
    6.8880   -1.1900   -0.5940 N   0  0  0  0  0  0  0  0  0  0  0  0
    4.7210   -0.7080    0.0460 N   0  0  0  0  0  0  0  0  0  0  0  0
  1  2  1  0
  2  3  2  3
  3  4  1  0
  3 26  1  0
  4  5  3  0
  5  6  1  0
  6  7  1  0
  7  8  1  0
  8  9  2  0
  8 10  1  0
 11 10  1  1
 11 12  1  0
 11 25  1  0
 12 13  1  0
 14 13  1  1
 14 15  1  0
 14 24  1  0
 15 16  1  6
 15 23  1  0
 16 17  1  0
 17 18  2  0
 17 22  1  0
 18 19  1  0
 19 20  2  0
 20 21  1  0
 21 22  2  0
 22 23  1  0
 24 25  1  0
 26 27  1  0
 26 28  2  0
M  CHG  2  11   1  28   1
M  END
