
     RDKit          3D

 12 12  0  0  0  0  0  0  0  0999 V2000
    3.6520    0.2880   -0.3920 C   0  0  0  0  0  0  0  0  0  0  0  0
    2.2960    0.3460   -0.6940 O   0  0  0  0  0  0  0  0  0  0  0  0
    1.5870   -0.3800    0.2860 C   0  0  0  0  0  0  0  0  0  0  0  0
    0.1320   -0.3410   -0.0020 C   0  0  0  0  0  0  0  0  0  0  0  0
   -0.6320    0.6830    0.5360 C   0  0  0  0  0  0  0  0  0  0  0  0
   -1.9840    0.7770    0.3080 C   0  0  0  0  0  0  0  0  0  0  0  0
   -2.6910    1.8230    0.8740 O   0  0  0  0  0  0  0  0  0  0  0  0
   -2.5660   -0.1860   -0.4800 C   0  0  0  0  0  0  0  0  0  0  0  0
   -3.9210   -0.1010   -0.7150 O   0  0  0  0  0  0  0  0  0  0  0  0
   -1.8110   -1.2280   -1.0330 C   0  0  0  0  0  0  0  0  0  0  0  0
   -2.6530   -2.4100   -2.0270 Cl  0  0  0  0  0  0  0  0  0  0  0  0
   -0.4620   -1.3020   -0.7910 C   0  0  0  0  0  0  0  0  0  0  0  0
  1  2  1  0
  2  3  1  0
  3  4  1  0
  4  5  2  0
  4 12  1  0
  5  6  1  0
  6  7  1  0
  6  8  2  0
  8  9  1  0
  8 10  1  0
 10 11  1  0
 10 12  2  0
M  END
