
     RDKit          3D

 12 12  0  0  0  0  0  0  0  0999 V2000
    2.4020   -1.9820    0.4500 O   0  0  0  0  0  0  0  0  0  0  0  0
    2.0150   -0.7620   -0.0950 C   0  0  0  0  0  0  0  0  0  0  0  0
    0.5710   -0.5080    0.0590 C   0  0  0  0  0  0  0  0  0  0  0  0
   -0.2800   -1.4050    0.6870 C   0  0  0  0  0  0  0  0  0  0  0  0
   -1.6270   -1.1050    0.8010 C   0  0  0  0  0  0  0  0  0  0  0  0
   -2.4790   -2.0140    1.4340 O   0  0  0  0  0  0  0  0  0  0  0  0
   -2.1330    0.0760    0.2980 C   0  0  0  0  0  0  0  0  0  0  0  0
   -1.3000    0.9790   -0.3290 C   0  0  0  0  0  0  0  0  0  0  0  0
   -1.8620    2.1360   -0.8080 O   0  0  0  0  0  0  0  0  0  0  0  0
    0.0350    0.6680   -0.4350 C   0  0  0  0  0  0  0  0  0  0  0  0
    0.9320    1.6220   -1.0900 C   0  0  0  0  0  0  0  0  0  0  0  0
    1.8280    2.4550    0.2350 Cl  0  0  0  0  0  0  0  0  0  0  0  0
  1  2  1  0
  2  3  1  0
  3  4  2  0
  3 10  1  0
  4  5  1  0
  5  6  1  0
  5  7  2  0
  7  8  1  0
  8  9  1  0
  8 10  2  0
 10 11  1  0
 11 12  1  0
M  END
