
     RDKit          3D

 12 12  0  0  0  0  0  0  0  0999 V2000
   -3.7970   -1.1950   -0.5350 O   0  0  0  0  0  0  0  0  0  0  0  0
   -2.5400   -0.6590   -0.2780 C   0  0  0  0  0  0  0  0  0  0  0  0
   -1.4730   -1.5070   -0.1120 C   0  0  0  0  0  0  0  0  0  0  0  0
   -0.2070   -0.9960    0.1450 C   0  0  0  0  0  0  0  0  0  0  0  0
    0.0020    0.3580    0.2380 C   0  0  0  0  0  0  0  0  0  0  0  0
    1.2240    0.8910    0.4840 O   0  0  0  0  0  0  0  0  0  0  0  0
    2.4780    0.3770    0.6660 C   0  0  0  0  0  0  0  0  0  0  0  0
    3.1100   -0.3560   -0.4680 C   0  0  0  0  0  0  0  0  0  0  0  0
    3.2580    0.7330   -1.8920 Cl  0  0  0  0  0  0  0  0  0  0  0  0
   -1.1110    1.2180    0.0640 C   0  0  0  0  0  0  0  0  0  0  0  0
   -0.8700    2.5740    0.1630 O   0  0  0  0  0  0  0  0  0  0  0  0
   -2.3510    0.7090   -0.1880 C   0  0  0  0  0  0  0  0  0  0  0  0
  1  2  1  0
  2  3  2  0
  2 12  1  0
  3  4  1  0
  4  5  2  0
  5  6  1  0
  5 10  1  0
  6  7  1  0
  7  8  1  0
  8  9  1  0
 10 11  1  0
 10 12  2  0
M  END
