
     RDKit          3D

 19 20  0  0  0  0  0  0  0  0999 V2000
    3.5970   -0.5000    2.1010 C   0  0  0  0  0  0  0  0  0  0  0  0
    2.9190   -0.2300    0.8050 C   0  0  0  0  0  0  0  0  0  0  0  0
    1.6240    0.2280    0.7150 C   0  0  0  0  0  0  0  0  0  0  0  0
    1.0110    0.4720   -0.4570 N   0  0  0  0  0  0  0  0  0  0  0  0
   -0.3540    0.9530   -0.4770 C   0  0  1  0  0  0  0  0  0  0  0  0
   -1.1630    0.4070   -1.6090 C   0  0  0  0  0  0  0  0  0  0  0  0
   -2.5120    0.1690   -0.9800 C   0  0  2  0  0  0  0  0  0  0  0  0
   -3.4610    1.2070   -1.3760 N   0  0  0  0  0  0  0  0  0  0  0  0
   -3.7770    2.0360   -0.5200 N   0  0  0  0  0  0  0  0  0  0  0  0
   -4.1180    2.9000    0.2940 N   0  0  0  0  0  0  0  0  0  0  0  0
   -2.2330    0.1960    0.4770 C   0  0  1  0  0  0  0  0  0  0  0  0
   -2.5570   -1.1440    1.1060 C   0  0  0  0  0  0  0  0  0  0  0  0
   -1.6950   -2.1420    0.5910 O   0  0  0  0  0  0  0  0  0  0  0  0
   -0.9610    0.6120    0.7050 O   0  0  0  0  0  0  0  0  0  0  0  0
    1.7230    0.2480   -1.5740 C   0  0  0  0  0  0  0  0  0  0  0  0
    1.1970    0.4600   -2.7090 O   0  0  0  0  0  0  0  0  0  0  0  0
    2.9970   -0.2020   -1.5270 N   0  0  0  0  0  0  0  0  0  0  0  0
    3.6030   -0.4440   -0.3610 C   0  0  0  0  0  0  0  0  0  0  0  0
    4.7940   -0.8640   -0.3170 O   0  0  0  0  0  0  0  0  0  0  0  0
  1  2  1  0
  2  3  2  0
  2 18  1  0
  3  4  1  0
  5  4  1  1
  4 15  1  0
  5  6  1  0
  5 14  1  0
  6  7  1  0
  7  8  1  1
  7 11  1  0
  8  9  2  0
  9 10  2  0
 11 12  1  6
 11 14  1  0
 12 13  1  0
 15 16  2  0
 15 17  1  0
 17 18  1  0
 18 19  2  0
M  CHG  2   9   1  10  -1
M  END
