
     RDKit          3D

 12 12  0  0  0  0  0  0  0  0999 V2000
    2.7960   -0.3090    0.4780 C   0  0  0  0  0  0  0  0  0  0  0  0
    2.5840    0.4950   -0.6170 O   0  0  0  0  0  0  0  0  0  0  0  0
    1.4910    1.3330   -0.6050 C   0  0  0  0  0  0  0  0  0  0  0  0
    0.2360    0.5470   -0.3610 C   0  0  0  0  0  0  0  0  0  0  0  0
   -0.6080    0.8810    0.7060 C   0  0  0  0  0  0  0  0  0  0  0  0
   -1.7930    0.1830    0.8230 C   0  0  0  0  0  0  0  0  0  0  0  0
   -2.6960    0.4660    1.8780 O   0  0  0  0  0  0  0  0  0  0  0  0
   -2.1190   -0.8090   -0.0850 C   0  0  0  0  0  0  0  0  0  0  0  0
   -3.3170   -1.4680    0.0880 O   0  0  0  0  0  0  0  0  0  0  0  0
   -1.2460   -1.1110   -1.1310 C   0  0  0  0  0  0  0  0  0  0  0  0
   -0.0700   -0.4230   -1.2620 C   0  0  0  0  0  0  0  0  0  0  0  0
    1.0780   -0.7820   -2.5640 Cl  0  0  0  0  0  0  0  0  0  0  0  0
  1  2  1  0
  2  3  1  0
  3  4  1  0
  4  5  2  0
  4 11  1  0
  5  6  1  0
  6  7  1  0
  6  8  2  0
  8  9  1  0
  8 10  1  0
 10 11  2  0
 11 12  1  0
M  END
