
     RDKit          3D

 12 12  0  0  0  0  0  0  0  0999 V2000
    0.9090    1.2950    0.1390 O   0  0  0  0  0  0  0  0  0  0  0  0
    0.5200    0.1040    0.0390 C   0  0  0  0  0  0  0  0  0  0  0  0
    1.3770   -0.8390   -0.4500 O   0  0  0  0  0  0  0  0  0  0  0  0
    2.6960   -0.5510   -0.8550 C   0  0  0  0  0  0  0  0  0  0  0  0
    3.5530    0.0030    0.2600 C   0  0  0  0  0  0  0  0  0  0  0  0
    4.8380    0.2790   -0.1520 O   0  0  0  0  0  0  0  0  0  0  0  0
   -0.8700   -0.1820    0.4720 C   0  0  1  0  0  0  0  0  0  0  0  0
   -0.9490   -1.3460    1.7850 Cl  0  0  0  0  0  0  0  0  0  0  0  0
   -1.6410    1.0880    0.7560 C   0  0  0  0  0  0  0  0  0  0  0  0
   -3.0690    0.5860    0.7700 C   0  0  0  0  0  0  0  0  0  0  0  0
   -3.0960   -0.6570   -0.0960 C   0  0  0  0  0  0  0  0  0  0  0  0
   -1.6900   -0.7570   -0.6910 C   0  0  0  0  0  0  0  0  0  0  0  0
  1  2  2  0
  2  3  1  0
  2  7  1  0
  3  4  1  0
  4  5  1  0
  5  6  1  0
  7  8  1  1
  7  9  1  0
  7 12  1  0
  9 10  1  0
 10 11  1  0
 11 12  1  0
M  END
