
     RDKit          3D

 11 10  0  0  0  0  0  0  0  0999 V2000
   -2.7180   -1.6080    0.4530 C   0  0  0  0  0  0  0  0  0  0  0  0
   -1.6500   -0.7300    0.6730 O   0  0  0  0  0  0  0  0  0  0  0  0
   -1.2580   -0.1860   -0.5290 C   0  0  0  0  0  0  0  0  0  0  0  0
   -0.0940    0.7670   -0.2700 C   0  0  1  0  0  0  0  0  0  0  0  0
   -0.5150    1.7790    0.6040 O   0  0  0  0  0  0  0  0  0  0  0  0
   -0.3650    2.9270   -0.0120 O   0  0  0  0  0  0  0  0  0  0  0  0
    0.8990    0.0170    0.3440 O   0  0  0  0  0  0  0  0  0  0  0  0
    1.9730    0.0390   -0.4550 O   0  0  0  0  0  0  0  0  0  0  0  0
    3.2050   -0.2210    0.1020 C   0  0  0  0  0  0  0  0  0  0  0  0
    3.2850   -0.4680    1.3290 O   0  0  0  0  0  0  0  0  0  0  0  0
    4.3450   -0.2110   -0.6790 O   0  0  0  0  0  0  0  0  0  0  0  0
  1  2  1  0
  2  3  1  0
  4  3  1  1
  4  5  1  0
  4  7  1  0
  5  6  1  0
  7  8  1  0
  8  9  1  0
  9 10  2  0
  9 11  1  0
M  END
