
     RDKit          3D

 13 14  0  0  0  0  0  0  0  0999 V2000
   -2.1820   -0.3660   -0.7290 C   0  0  0  0  0  0  0  0  0  0  0  0
   -1.0890   -0.1980    0.3540 C   0  0  2  0  0  0  0  0  0  0  0  0
   -1.7720    0.5990    1.4410 C   0  0  0  0  0  0  0  0  0  0  0  0
   -1.9830    1.8860    0.6600 C   0  0  0  0  0  0  0  0  0  0  0  0
   -0.9850    1.9970   -0.2360 C   0  0  0  0  0  0  0  0  0  0  0  0
   -0.1060    0.8190   -0.0810 C   0  0  0  0  0  0  0  0  0  0  0  0
    1.1340    0.7110   -0.2330 N   0  0  0  0  0  0  0  0  0  0  0  0
    1.9490   -0.3730   -0.0380 N   0  0  0  0  0  0  0  0  0  0  0  0
    3.3830   -0.3980   -0.2460 C   0  0  0  0  0  0  0  0  0  0  0  0
    3.7780   -0.0950   -1.5800 N   0  0  0  0  0  0  0  0  0  0  0  0
    1.0390   -1.8380    0.5270 P   0  0  0  0  0  0  0  0  0  0  0  0
   -0.6060   -1.5030    0.6710 C   0  0  0  0  0  0  0  0  0  0  0  0
   -1.5010   -2.4730    1.0930 O   0  0  0  0  0  0  0  0  0  0  0  0
  2  1  1  6
  2  3  1  0
  2  6  1  0
  2 12  1  0
  3  4  1  0
  4  5  2  0
  5  6  1  0
  6  7  2  0
  7  8  1  0
  8  9  1  0
  8 11  1  0
  9 10  1  0
 11 12  2  0
 12 13  1  0
M  END
