
     RDKit          3D

 13 14  0  0  0  0  0  0  0  0999 V2000
    3.9230   -0.2050    0.7180 C   0  0  0  0  0  0  0  0  0  0  0  0
    2.6620    0.4670    0.2650 C   0  0  0  0  0  0  0  0  0  0  0  0
    1.5520    0.0970    1.0560 O   0  0  0  0  0  0  0  0  0  0  0  0
    0.4920    0.7630    0.5500 N   0  0  0  0  0  0  0  0  0  0  0  0
    0.5130    2.1450    0.3020 N   0  0  0  0  0  0  0  0  0  0  0  0
   -0.6200    2.6550    0.8260 O   0  0  0  0  0  0  0  0  0  0  0  0
   -1.7710    2.2290    0.1630 C   0  0  0  0  0  0  0  0  0  0  0  0
   -1.8850    0.7970    0.1420 N   0  0  0  0  0  0  0  0  0  0  0  0
   -2.9850   -0.0940    0.0260 C   0  0  0  0  0  0  0  0  0  0  0  0
   -2.4000   -1.4660   -0.2100 C   0  0  0  0  0  0  0  0  0  0  0  0
   -0.9630   -1.2620    0.0640 C   0  0  0  0  0  0  0  0  0  0  0  0
    0.0340   -2.3610    0.1110 C   0  0  0  0  0  0  0  0  0  0  0  0
   -0.7090    0.0160    0.2550 C   0  0  0  0  0  0  0  0  0  0  0  0
  1  2  1  0
  2  3  1  0
  3  4  1  0
  4  5  1  0
  4 13  1  0
  5  6  1  0
  6  7  1  0
  7  8  1  0
  8  9  1  0
  8 13  1  0
  9 10  1  0
 10 11  1  0
 11 12  1  0
 11 13  2  0
M  END
