
     RDKit          3D

 13 13  0  0  0  0  0  0  0  0999 V2000
    1.2040   -1.5610    1.0110 C   0  0  0  0  0  0  0  0  0  0  0  0
    0.8660   -0.5460    0.2820 C   0  0  0  0  0  0  0  0  0  0  0  0
    1.8690    0.0720   -0.5340 N   0  0  0  0  0  0  0  0  0  0  0  0
    2.8170    0.7900   -0.0350 C   0  0  0  0  0  0  0  0  0  0  0  0
    3.7890    1.3690   -1.0090 C   0  0  0  0  0  0  0  0  0  0  0  0
   -0.4890   -0.0080    0.2220 C   0  0  0  0  0  0  0  0  0  0  0  0
   -0.5530    1.3550    0.1990 N   0  0  0  0  0  0  0  0  0  0  0  0
   -1.6220    2.0660    0.1310 O   0  0  0  0  0  0  0  0  0  0  0  0
   -3.0640    1.2660    0.0660 P   0  0  0  0  0  0  0  0  0  0  0  0
   -4.6060    1.9180   -0.3500 O   0  0  0  0  0  0  0  0  0  0  0  0
   -2.8700   -0.4100    0.1000 N   0  0  0  0  0  0  0  0  0  0  0  0
   -1.5760   -0.8420    0.1750 C   0  0  0  0  0  0  0  0  0  0  0  0
   -1.4340   -2.3510    0.1570 C   0  0  0  0  0  0  0  0  0  0  0  0
  1  2  2  0
  2  3  1  0
  2  6  1  0
  3  4  2  3
  4  5  1  0
  6  7  1  0
  6 12  2  0
  7  8  1  0
  8  9  1  0
  9 10  1  0
  9 11  1  0
 11 12  1  0
 12 13  1  0
M  END
