
     RDKit          3D

 11 10  0  0  0  0  0  0  0  0999 V2000
    1.8840   -0.1460    1.6170 O   0  0  0  0  0  0  0  0  0  0  0  0
    2.3430    0.4250    0.6020 C   0  0  0  0  0  0  0  0  0  0  0  0
    3.4220    1.2820    0.7900 O   0  0  0  0  0  0  0  0  0  0  0  0
    1.7680    0.1790   -0.6180 O   0  0  0  0  0  0  0  0  0  0  0  0
    0.6930   -0.6770   -0.7680 C   0  0  0  0  0  0  0  0  0  0  0  0
   -0.5210   -0.2290   -0.0130 C   0  0  2  0  0  0  0  0  0  0  0  0
   -1.6610   -1.1730   -0.3490 C   0  0  0  0  0  0  0  0  0  0  0  0
   -1.3940   -2.4510    0.1170 O   0  0  0  0  0  0  0  0  0  0  0  0
   -0.8590    1.0430   -0.5130 O   0  0  0  0  0  0  0  0  0  0  0  0
   -0.8600    1.9190    0.4450 O   0  0  0  0  0  0  0  0  0  0  0  0
   -1.8660    2.7650    0.2320 O   0  0  0  0  0  0  0  0  0  0  0  0
  1  2  2  0
  2  3  1  0
  2  4  1  0
  4  5  1  0
  6  5  1  6
  6  7  1  0
  6  9  1  0
  7  8  1  0
  9 10  1  0
 10 11  1  0
M  END
