
     RDKit          3D

 13 14  0  0  0  0  0  0  0  0999 V2000
   -2.3280   -1.1020    0.0630 C   0  0  0  0  0  0  0  0  0  0  0  0
   -1.2980   -0.0020    0.1530 C   0  0  0  0  0  0  0  0  0  0  0  0
   -1.7110    1.1400    0.6770 C   0  0  0  0  0  0  0  0  0  0  0  0
   -0.4730    2.4850    0.7930 P   0  0  0  0  0  0  0  0  0  0  0  0
   -0.8760    3.8160   -0.2360 O   0  0  0  0  0  0  0  0  0  0  0  0
    1.0450    1.7700    0.3660 O   0  0  0  0  0  0  0  0  0  0  0  0
    0.9260    0.8550   -0.6490 C   0  0  1  0  0  0  0  0  0  0  0  0
    2.1920    0.1590   -0.6780 O   0  0  0  0  0  0  0  0  0  0  0  0
    2.1120   -0.8510    0.3100 C   0  0  0  0  0  0  0  0  0  0  0  0
    3.2860   -1.3870    0.8990 N   0  0  0  0  0  0  0  0  0  0  0  0
    0.8500   -1.1460    0.5330 C   0  0  0  0  0  0  0  0  0  0  0  0
    0.0290   -0.3040   -0.3390 C   0  0  1  0  0  0  0  0  0  0  0  0
   -0.1100   -1.0530   -1.6050 N   0  0  0  0  0  0  0  0  0  0  0  0
  1  2  1  0
  2  3  2  0
  2 12  1  0
  3  4  1  0
  4  5  1  0
  4  6  1  0
  7  6  1  1
  7  8  1  0
  7 12  1  0
  8  9  1  0
  9 10  1  0
  9 11  2  0
 11 12  1  0
 12 13  1  6
M  END
