
     RDKit          3D

 11 11  0  0  0  0  0  0  0  0999 V2000
   -4.5300   -0.3720    1.0470 O   0  0  0  0  0  0  0  0  0  0  0  0
   -3.2600   -0.7550    0.9790 O   0  0  0  0  0  0  0  0  0  0  0  0
   -2.6590   -0.2250   -0.0550 O   0  0  0  0  0  0  0  0  0  0  0  0
   -1.6370   -0.9020   -0.4780 O   0  0  0  0  0  0  0  0  0  0  0  0
   -0.4130   -0.3420   -0.0520 C   0  0  2  0  0  0  0  0  0  0  0  0
    0.3630    0.0720   -1.3050 C   0  0  0  0  0  0  0  0  0  0  0  0
    1.6830   -0.3660   -1.2300 O   0  0  0  0  0  0  0  0  0  0  0  0
    2.4110    0.3150   -0.2690 C   0  0  0  0  0  0  0  0  0  0  0  0
    1.7910    0.2700    1.0980 C   0  0  0  0  0  0  0  0  0  0  0  0
    1.1960   -0.9200    1.4140 O   0  0  0  0  0  0  0  0  0  0  0  0
    0.2640   -1.3190    0.6260 O   0  0  0  0  0  0  0  0  0  0  0  0
  1  2  1  0
  2  3  1  0
  3  4  1  0
  5  4  1  6
  5  6  1  0
  5 11  1  0
  6  7  1  0
  7  8  1  0
  8  9  1  0
  9 10  1  0
 10 11  1  0
M  END
