
     RDKit          3D

 11 10  0  0  0  0  0  0  0  0999 V2000
   -2.8020    0.9870    1.6380 O   0  0  0  0  0  0  0  0  0  0  0  0
   -2.1290    1.0100    0.6200 C   0  0  0  0  0  0  0  0  0  0  0  0
   -2.0450    2.3110   -0.0380 O   0  0  0  0  0  0  0  0  0  0  0  0
   -1.4310   -0.0720    0.0450 C   0  0  2  0  0  0  0  0  0  0  0  0
   -1.7210   -1.2330    1.0100 O   0  0  0  0  0  0  0  0  0  0  0  0
   -1.3270   -2.2760    0.2780 O   0  0  0  0  0  0  0  0  0  0  0  0
   -0.0750    0.0550    0.2980 O   0  0  0  0  0  0  0  0  0  0  0  0
    0.7430   -0.6220   -0.5200 C   0  0  0  0  0  0  0  0  0  0  0  0
    2.1140   -0.5940    0.3070 C   0  0  0  0  0  0  0  0  0  0  0  0
    2.2570    0.7460    0.4120 O   0  0  0  0  0  0  0  0  0  0  0  0
    3.3650    1.2340   -0.1440 O   0  0  0  0  0  0  0  0  0  0  0  0
  1  2  2  0
  2  3  1  0
  2  4  1  0
  4  5  1  1
  4  7  1  0
  5  6  1  0
  7  8  1  0
  8  9  1  0
  9 10  1  0
 10 11  1  0
M  END
