
     RDKit          3D

 27 29  0  0  0  0  0  0  0  0999 V2000
   -6.3320    2.5520    0.6390 N   0  0  0  0  0  0  0  0  0  0  0  0
   -5.0500    2.1650    0.2160 C   0  0  0  0  0  0  0  0  0  0  0  0
   -4.3050    2.9150   -0.6490 N   0  0  0  0  0  0  0  0  0  0  0  0
   -3.0770    2.5410   -1.0530 C   0  0  0  0  0  0  0  0  0  0  0  0
   -2.5310    1.3740   -0.5970 N   0  0  0  0  0  0  0  0  0  0  0  0
   -3.2230    0.6030    0.2530 C   0  0  0  0  0  0  0  0  0  0  0  0
   -4.4830    0.9960    0.6610 C   0  0  0  0  0  0  0  0  0  0  0  0
   -4.9190    0.0370    1.4980 N   0  0  0  0  0  0  0  0  0  0  0  0
   -3.9720   -0.9140    1.6070 C   0  0  0  0  0  0  0  0  0  0  0  0
   -2.9150   -0.5600    0.8310 N   0  0  0  0  0  0  0  0  0  0  0  0
   -1.7340   -1.3170    0.6950 C   0  0  2  0  0  0  0  0  0  0  0  0
   -0.5630   -0.5630    0.6000 O   0  0  0  0  0  0  0  0  0  0  0  0
    0.3650   -1.5660    0.4730 C   0  0  2  0  0  0  0  0  0  0  0  0
    1.7440   -1.1180    0.1240 C   0  0  0  0  0  0  0  0  0  0  0  0
    1.8610   -0.4450   -1.0490 O   0  0  0  0  0  0  0  0  0  0  0  0
    3.4200    0.0060   -1.3120 P   0  0  0  0  0  0  0  0  0  0  0  0
    3.5020   -0.9280   -2.5280 O   0  0  0  0  0  0  0  0  0  0  0  0
    4.6690   -0.8270   -0.5850 O   0  0  0  0  0  0  0  0  0  0  0  0
    3.3880    0.8900   -0.0620 O   0  0  0  0  0  0  0  0  0  0  0  0
    4.4320    2.0450    0.3240 P   0  0  0  0  0  0  0  0  0  0  0  0
    3.9460    3.6780    0.3490 O   0  0  0  0  0  0  0  0  0  0  0  0
    4.1430    1.9790    1.8230 O   0  0  0  0  0  0  0  0  0  0  0  0
    6.0430    1.7650    0.5580 O   0  0  0  0  0  0  0  0  0  0  0  0
   -0.1860   -2.5870   -0.5000 C   0  0  1  0  0  0  0  0  0  0  0  0
   -0.2240   -3.8720    0.0790 O   0  0  0  0  0  0  0  0  0  0  0  0
   -1.6550   -2.1410   -0.5710 C   0  0  1  0  0  0  0  0  0  0  0  0
   -2.5060   -3.2330   -0.5360 O   0  0  0  0  0  0  0  0  0  0  0  0
  1  2  1  0
  2  3  2  0
  2  7  1  0
  3  4  1  0
  4  5  2  0
  5  6  1  0
  6  7  2  0
  6 10  1  0
  7  8  1  0
  8  9  2  0
  9 10  1  0
 11 10  1  6
 11 12  1  0
 11 26  1  0
 12 13  1  0
 13 14  1  6
 13 24  1  0
 14 15  1  0
 15 16  1  0
 16 17  1  0
 16 18  1  0
 16 19  1  0
 19 20  1  0
 20 21  1  0
 20 22  1  0
 20 23  1  0
 24 25  1  1
 24 26  1  0
 26 27  1  1
M  END
