
     RDKit          3D

 20 20  0  0  0  0  0  0  0  0999 V2000
   -2.7550   -1.2100   -1.1330 N   0  0  0  0  0  0  0  0  0  0  0  0
   -2.2130   -0.9890    0.1930 C   0  0  2  0  0  0  0  0  0  0  0  0
   -3.1330   -1.4420    1.2780 C   0  0  0  0  0  0  0  0  0  0  0  0
   -4.4720   -1.2130    0.9980 O   0  0  0  0  0  0  0  0  0  0  0  0
   -4.6500    0.5020    0.7380 P   0  0  0  0  0  0  0  0  0  0  0  0
   -6.3250    0.9100    0.5350 O   0  0  0  0  0  0  0  0  0  0  0  0
   -3.8610    0.8380   -0.7940 O   0  0  0  0  0  0  0  0  0  0  0  0
   -2.5920    1.3580   -0.5410 C   0  0  0  0  0  0  0  0  0  0  0  0
   -1.7870    0.4760    0.3730 C   0  0  1  0  0  0  0  0  0  0  0  0
   -2.1460    0.8070    1.6800 O   0  0  0  0  0  0  0  0  0  0  0  0
   -0.3450    0.6340    0.2550 C   0  0  0  0  0  0  0  0  0  0  0  0
    0.3560    1.0140    1.2410 O   0  0  0  0  0  0  0  0  0  0  0  0
    0.4090    0.3920   -0.9290 N   0  0  0  0  0  0  0  0  0  0  0  0
    1.8050    0.5480   -1.0310 C   0  0  0  0  0  0  0  0  0  0  0  0
    2.6460   -0.2870   -0.1230 C   0  0  0  0  0  0  0  0  0  0  0  0
    4.0940    0.0520   -0.4130 C   0  0  0  0  0  0  0  0  0  0  0  0
    4.9800   -0.6930    0.4030 O   0  0  0  0  0  0  0  0  0  0  0  0
    6.3340   -0.4520    0.2110 C   0  0  0  0  0  0  0  0  0  0  0  0
    6.7370    0.3900   -0.6490 O   0  0  0  0  0  0  0  0  0  0  0  0
    7.3210   -1.1040    0.9340 O   0  0  0  0  0  0  0  0  0  0  0  0
  2  1  1  6
  2  3  1  0
  2  9  1  0
  3  4  1  0
  4  5  1  0
  5  6  1  0
  5  7  1  0
  7  8  1  0
  8  9  1  0
  9 10  1  1
  9 11  1  0
 11 12  2  0
 11 13  1  0
 13 14  1  0
 14 15  1  0
 15 16  1  0
 16 17  1  0
 17 18  1  0
 18 19  2  0
 18 20  1  0
M  END
