
     RDKit          3D

 21 22  0  0  0  0  0  0  0  0999 V2000
    6.8720   -0.8330    0.9410 O   0  0  0  0  0  0  0  0  0  0  0  0
    5.3740   -0.5440    1.3020 P   0  0  0  0  0  0  0  0  0  0  0  0
    4.5630    0.7570    0.4500 O   0  0  0  0  0  0  0  0  0  0  0  0
    3.2250    0.5050    0.6580 C   0  0  0  0  0  0  0  0  0  0  0  0
    2.6410    0.3170   -0.8260 C   0  0  0  0  0  0  0  0  0  0  0  0
    1.2430   -0.0580   -0.5090 N   0  0  0  0  0  0  0  0  0  0  0  0
    1.0800   -1.3490    0.1570 C   0  0  0  0  0  0  0  0  0  0  0  0
    1.9720   -2.2040    0.0390 O   0  0  0  0  0  0  0  0  0  0  0  0
   -0.0930   -1.5320    0.9190 O   0  0  0  0  0  0  0  0  0  0  0  0
   -0.9140   -0.4080    0.9790 C   0  0  0  0  0  0  0  0  0  0  0  0
   -1.4680   -0.1080    2.0940 O   0  0  0  0  0  0  0  0  0  0  0  0
   -1.1140    0.3950   -0.2420 C   0  0  2  0  0  0  0  0  0  0  0  0
   -2.1440    1.4850   -0.1810 C   0  0  0  0  0  0  0  0  0  0  0  0
   -3.1390    1.1240   -1.1190 O   0  0  0  0  0  0  0  0  0  0  0  0
   -3.0690   -0.3790   -1.0560 C   0  0  2  0  0  0  0  0  0  0  0  0
   -3.7130   -0.6280    0.2210 C   0  0  0  0  0  0  0  0  0  0  0  0
   -3.9710    0.0810    1.1550 O   0  0  0  0  0  0  0  0  0  0  0  0
   -4.1270   -2.0190    0.3850 O   0  0  0  0  0  0  0  0  0  0  0  0
   -1.6700   -0.4550   -1.2160 N   0  0  0  0  0  0  0  0  0  0  0  0
    0.2860    0.9520   -0.5400 C   0  0  0  0  0  0  0  0  0  0  0  0
    0.4380    2.1150   -0.7740 O   0  0  0  0  0  0  0  0  0  0  0  0
  1  2  2  0
  2  3  1  0
  3  4  1  0
  4  5  1  0
  5  6  1  0
  6  7  1  0
  6 20  1  0
  7  8  2  0
  7  9  1  0
  9 10  1  0
 10 11  2  0
 10 12  1  0
 12 13  1  1
 12 19  1  0
 12 20  1  0
 13 14  1  0
 14 15  1  0
 15 16  1  1
 15 19  1  0
 16 17  2  0
 16 18  1  0
 20 21  2  0
M  END
