
     RDKit          3D

 20 20  0  0  0  0  0  0  0  0999 V2000
    6.1080    0.0010    0.6120 C   0  0  0  0  0  0  0  0  0  0  0  0
    4.7620   -0.0250    1.0740 O   0  0  0  0  0  0  0  0  0  0  0  0
    3.7130   -0.0010    0.1710 C   0  0  0  0  0  0  0  0  0  0  0  0
    4.0130    0.0450   -1.0510 O   0  0  0  0  0  0  0  0  0  0  0  0
    2.3780   -0.0240    0.5320 O   0  0  0  0  0  0  0  0  0  0  0  0
    1.3680    0.0030   -0.4380 C   0  0  0  0  0  0  0  0  0  0  0  0
    1.7630    0.0480   -1.6310 O   0  0  0  0  0  0  0  0  0  0  0  0
   -0.0030   -0.0210   -0.0800 N   0  0  0  0  0  0  0  0  0  0  0  0
   -0.5280   -0.0730    1.2690 C   0  0  0  0  0  0  0  0  0  0  0  0
   -2.0190   -0.2540    1.1330 C   0  0  1  0  0  0  0  0  0  0  0  0
   -2.9970    1.2010    1.6200 P   0  0  0  0  0  0  0  0  0  0  0  0
   -4.1190    1.7430    0.4580 O   0  0  0  0  0  0  0  0  0  0  0  0
   -2.1330    2.4260    2.4200 O   0  0  0  0  0  0  0  0  0  0  0  0
   -2.2140   -0.6980   -0.2770 C   0  0  2  0  0  0  0  0  0  0  0  0
   -1.9140   -2.2010   -0.3300 C   0  0  0  0  0  0  0  0  0  0  0  0
   -2.0790   -2.7180   -1.6670 N   0  0  0  0  0  0  0  0  0  0  0  0
   -1.1010    0.0040   -1.0240 C   0  0  1  0  0  0  0  0  0  0  0  0
   -1.4380    1.4140   -1.3020 C   0  0  0  0  0  0  0  0  0  0  0  0
   -2.3720    1.6910   -2.1020 O   0  0  0  0  0  0  0  0  0  0  0  0
   -0.7770    2.4910   -0.7240 O   0  0  0  0  0  0  0  0  0  0  0  0
  1  2  1  0
  2  3  1  0
  3  4  2  0
  3  5  1  0
  5  6  1  0
  6  7  2  0
  6  8  1  0
  8  9  1  0
  8 17  1  0
  9 10  1  0
 10 11  1  6
 10 14  1  0
 11 12  1  0
 11 13  1  0
 14 15  1  1
 14 17  1  0
 15 16  1  0
 17 18  1  1
 18 19  2  0
 18 20  1  0
M  END
