
     RDKit          3D

 20 21  0  0  0  0  0  0  0  0999 V2000
   -0.6200   -0.9910   -1.4300 O   0  0  0  0  0  0  0  0  0  0  0  0
   -1.5540   -0.8320   -0.6440 C   0  0  0  0  0  0  0  0  0  0  0  0
   -2.2390   -1.9170   -0.0090 N   0  0  0  0  0  0  0  0  0  0  0  0
   -3.6350   -1.8040    0.2900 C   0  0  0  0  0  0  0  0  0  0  0  0
   -3.9060   -0.4570    0.9060 C   0  0  2  0  0  0  0  0  0  0  0  0
   -5.2660   -0.2680    1.1240 O   0  0  0  0  0  0  0  0  0  0  0  0
   -3.4620    0.6210   -0.0660 C   0  0  0  0  0  0  0  0  0  0  0  0
   -2.0110    0.4790   -0.3210 N   0  0  0  0  0  0  0  0  0  0  0  0
   -1.2170    1.6290   -0.2420 C   0  0  0  0  0  0  0  0  0  0  0  0
   -1.8120    2.7350    0.0130 O   0  0  0  0  0  0  0  0  0  0  0  0
    0.2180    1.6590   -0.4240 C   0  0  0  0  0  0  0  0  0  0  0  0
    0.9810    2.7630   -0.3550 C   0  0  0  0  0  0  0  0  0  0  0  0
    2.3090    2.4880   -0.5690 O   0  0  0  0  0  0  0  0  0  0  0  0
    2.3540    1.1570   -1.0720 C   0  0  1  0  0  0  0  0  0  0  0  0
    3.4860    0.3810   -0.4100 C   0  0  0  0  0  0  0  0  0  0  0  0
    3.4810   -0.8940   -0.9330 O   0  0  0  0  0  0  0  0  0  0  0  0
    4.6920   -1.9200   -0.3040 P   0  0  0  0  0  0  0  0  0  0  0  0
    4.4990   -2.2960    1.3580 O   0  0  0  0  0  0  0  0  0  0  0  0
    6.2890   -1.4600   -0.7300 O   0  0  0  0  0  0  0  0  0  0  0  0
    1.1030    0.6350   -0.6930 O   0  0  0  0  0  0  0  0  0  0  0  0
  1  2  2  0
  2  3  1  0
  2  8  1  0
  3  4  1  0
  4  5  1  0
  5  6  1  6
  5  7  1  0
  7  8  1  0
  8  9  1  0
  9 10  2  0
  9 11  1  0
 11 12  2  0
 11 20  1  0
 12 13  1  0
 13 14  1  0
 14 15  1  1
 14 20  1  0
 15 16  1  0
 16 17  1  0
 17 18  1  0
 17 19  1  0
M  END
