
     RDKit          3D

 20 21  0  0  0  0  0  0  0  0999 V2000
    5.9830   -1.5500    0.6730 O   0  0  0  0  0  0  0  0  0  0  0  0
    5.1340   -0.6750    0.3570 C   0  0  0  0  0  0  0  0  0  0  0  0
    5.4640    0.5360   -0.3040 N   0  0  0  0  0  0  0  0  0  0  0  0
    4.2190    1.2470   -0.4910 C   0  0  0  0  0  0  0  0  0  0  0  0
    3.3440    0.6350    0.5740 C   0  0  1  0  0  0  0  0  0  0  0  0
    1.9020    0.8200    0.3160 C   0  0  0  0  0  0  0  0  0  0  0  0
    1.4660    2.0000    0.2950 O   0  0  0  0  0  0  0  0  0  0  0  0
    1.0040   -0.1990    0.0980 O   0  0  0  0  0  0  0  0  0  0  0  0
   -0.3580   -0.0360   -0.1460 C   0  0  1  0  0  0  0  0  0  0  0  0
   -0.7140   -0.6220   -1.4650 C   0  0  0  0  0  0  0  0  0  0  0  0
   -0.0240   -0.8360   -2.4450 O   0  0  0  0  0  0  0  0  0  0  0  0
   -2.1710   -0.9310   -1.3820 C   0  0  0  0  0  0  0  0  0  0  0  0
   -2.4270   -1.0550    0.0490 N   0  0  0  0  0  0  0  0  0  0  0  0
   -3.7370   -1.3670    0.5930 C   0  0  0  0  0  0  0  0  0  0  0  0
   -4.7300    0.1450    0.9360 P   0  0  0  0  0  0  0  0  0  0  0  0
   -6.1690    0.1650   -0.0200 O   0  0  0  0  0  0  0  0  0  0  0  0
   -3.8190    1.5940    0.8090 O   0  0  0  0  0  0  0  0  0  0  0  0
   -1.2170   -0.8270    0.7750 C   0  0  0  0  0  0  0  0  0  0  0  0
   -1.0110   -1.2400    1.9300 O   0  0  0  0  0  0  0  0  0  0  0  0
    3.7410   -0.7060    0.5790 O   0  0  0  0  0  0  0  0  0  0  0  0
  1  2  2  0
  2  3  1  0
  2 20  1  0
  3  4  1  0
  4  5  1  0
  5  6  1  6
  5 20  1  0
  6  7  2  0
  6  8  1  0
  9  8  1  1
  9 10  1  0
  9 18  1  0
 10 11  2  0
 10 12  1  0
 12 13  1  0
 13 14  1  0
 13 18  1  0
 14 15  1  0
 15 16  1  0
 15 17  1  0
 18 19  2  0
M  END
