
     RDKit          3D

 20 20  0  0  0  0  0  0  0  0999 V2000
    5.9930   -1.6940    0.4180 C   0  0  0  0  0  0  0  0  0  0  0  0
    4.5850   -1.7580    0.2820 O   0  0  0  0  0  0  0  0  0  0  0  0
    3.8180   -0.6060    0.2720 C   0  0  0  0  0  0  0  0  0  0  0  0
    4.4000    0.4980    0.3850 O   0  0  0  0  0  0  0  0  0  0  0  0
    2.4390   -0.5970    0.1430 O   0  0  0  0  0  0  0  0  0  0  0  0
    1.6890    0.5720    0.1350 C   0  0  0  0  0  0  0  0  0  0  0  0
    2.2860    1.6690    0.2490 O   0  0  0  0  0  0  0  0  0  0  0  0
    0.2800    0.5780    0.0030 N   0  0  0  0  0  0  0  0  0  0  0  0
   -0.5550    1.7420   -0.0130 C   0  0  0  0  0  0  0  0  0  0  0  0
   -1.8540    1.2590    0.6230 C   0  0  1  0  0  0  0  0  0  0  0  0
   -3.1980    2.3890    0.0250 P   0  0  0  0  0  0  0  0  0  0  0  0
   -2.6850    3.2520   -1.4150 O   0  0  0  0  0  0  0  0  0  0  0  0
   -3.5580    3.6090    1.2180 O   0  0  0  0  0  0  0  0  0  0  0  0
   -1.9790   -0.1230    0.0550 C   0  0  2  0  0  0  0  0  0  0  0  0
   -2.6620   -1.0700    1.0150 C   0  0  0  0  0  0  0  0  0  0  0  0
   -2.7470   -2.3790    0.4020 N   0  0  0  0  0  0  0  0  0  0  0  0
   -0.5630   -0.5900   -0.1380 C   0  0  1  0  0  0  0  0  0  0  0  0
   -0.3790   -1.2090   -1.4990 C   0  0  0  0  0  0  0  0  0  0  0  0
    0.4170   -0.7220   -2.3430 O   0  0  0  0  0  0  0  0  0  0  0  0
   -1.0870   -2.3390   -1.8560 O   0  0  0  0  0  0  0  0  0  0  0  0
  1  2  1  0
  2  3  1  0
  3  4  2  0
  3  5  1  0
  5  6  1  0
  6  7  2  0
  6  8  1  0
  8  9  1  0
  8 17  1  0
  9 10  1  0
 10 11  1  6
 10 14  1  0
 11 12  1  0
 11 13  1  0
 14 15  1  1
 14 17  1  0
 15 16  1  0
 17 18  1  6
 18 19  2  0
 18 20  1  0
M  END
