
     RDKit          3D

 20 20  0  0  0  0  0  0  0  0999 V2000
   -0.5760    1.3090    0.6190 N   0  0  0  0  0  0  0  0  0  0  0  0
   -1.9530    0.9400    0.2650 C   0  0  2  0  0  0  0  0  0  0  0  0
   -2.8580    0.9810    1.4390 C   0  0  0  0  0  0  0  0  0  0  0  0
   -4.1260    1.3720    1.0310 O   0  0  0  0  0  0  0  0  0  0  0  0
   -4.7360    0.1950   -0.0500 P   0  0  0  0  0  0  0  0  0  0  0  0
   -5.0790    0.7630   -1.6110 O   0  0  0  0  0  0  0  0  0  0  0  0
   -4.0770   -1.3400    0.0730 O   0  0  0  0  0  0  0  0  0  0  0  0
   -2.7230   -1.4520    0.1280 C   0  0  0  0  0  0  0  0  0  0  0  0
   -1.9630   -0.3280   -0.5160 C   0  0  1  0  0  0  0  0  0  0  0  0
   -2.4610   -0.1640   -1.8060 O   0  0  0  0  0  0  0  0  0  0  0  0
   -0.5470   -0.8190   -0.6810 C   0  0  0  0  0  0  0  0  0  0  0  0
   -0.0230   -1.0070   -1.7990 O   0  0  0  0  0  0  0  0  0  0  0  0
    0.1870   -1.0670    0.5030 N   0  0  0  0  0  0  0  0  0  0  0  0
    1.5390   -1.5350    0.4950 C   0  0  0  0  0  0  0  0  0  0  0  0
    2.4670   -0.5540   -0.2220 C   0  0  0  0  0  0  0  0  0  0  0  0
    3.8890   -1.0770   -0.2120 C   0  0  0  0  0  0  0  0  0  0  0  0
    4.7790   -0.2050   -0.8640 O   0  0  0  0  0  0  0  0  0  0  0  0
    5.0380    1.0950   -0.5030 C   0  0  0  0  0  0  0  0  0  0  0  0
    4.4470    1.5820    0.4930 O   0  0  0  0  0  0  0  0  0  0  0  0
    5.9340    1.9200   -1.1890 O   0  0  0  0  0  0  0  0  0  0  0  0
  2  1  1  1
  2  3  1  0
  2  9  1  0
  3  4  1  0
  4  5  1  0
  5  6  1  0
  5  7  1  0
  7  8  1  0
  8  9  1  0
  9 10  1  6
  9 11  1  0
 11 12  2  0
 11 13  1  0
 13 14  1  0
 14 15  1  0
 15 16  1  0
 16 17  1  0
 17 18  1  0
 18 19  2  0
 18 20  1  0
M  END
