
     RDKit          3D

 20 21  0  0  0  0  0  0  0  0999 V2000
   -2.8490    2.9570   -0.8660 O   0  0  0  0  0  0  0  0  0  0  0  0
   -3.0850    1.8060   -0.4150 C   0  0  0  0  0  0  0  0  0  0  0  0
   -4.4200    1.3600   -0.0890 N   0  0  0  0  0  0  0  0  0  0  0  0
   -4.7080    0.0730    0.4180 C   0  0  0  0  0  0  0  0  0  0  0  0
   -3.4940   -0.7840    0.3960 C   0  0  2  0  0  0  0  0  0  0  0  0
   -3.6980   -2.0130    0.9850 O   0  0  0  0  0  0  0  0  0  0  0  0
   -2.2760   -0.0410    0.9150 C   0  0  0  0  0  0  0  0  0  0  0  0
   -1.9850    0.9010   -0.2170 N   0  0  0  0  0  0  0  0  0  0  0  0
   -0.8210    0.8960   -0.9950 C   0  0  0  0  0  0  0  0  0  0  0  0
   -0.8530    1.6460   -2.0160 O   0  0  0  0  0  0  0  0  0  0  0  0
    0.4140    0.1840   -0.8200 C   0  0  0  0  0  0  0  0  0  0  0  0
    1.4450    0.1390   -1.6880 C   0  0  0  0  0  0  0  0  0  0  0  0
    2.4450   -0.6930   -1.1410 O   0  0  0  0  0  0  0  0  0  0  0  0
    2.1160   -0.7760    0.3210 C   0  0  1  0  0  0  0  0  0  0  0  0
    3.2560    0.0330    0.8460 C   0  0  0  0  0  0  0  0  0  0  0  0
    4.1310   -0.9450    1.4330 O   0  0  0  0  0  0  0  0  0  0  0  0
    5.6920   -0.8540    0.7850 P   0  0  0  0  0  0  0  0  0  0  0  0
    6.7890    0.3370    1.0560 O   0  0  0  0  0  0  0  0  0  0  0  0
    5.7160   -1.6170   -0.8180 O   0  0  0  0  0  0  0  0  0  0  0  0
    0.8090   -0.5760    0.3060 O   0  0  0  0  0  0  0  0  0  0  0  0
  1  2  2  0
  2  3  1  0
  2  8  1  0
  3  4  1  0
  4  5  1  0
  5  6  1  1
  5  7  1  0
  7  8  1  0
  8  9  1  0
  9 10  2  0
  9 11  1  0
 11 12  2  0
 11 20  1  0
 12 13  1  0
 13 14  1  0
 14 15  1  1
 14 20  1  0
 15 16  1  0
 16 17  1  0
 17 18  1  0
 17 19  1  0
M  END
