
     RDKit          3D

 20 21  0  0  0  0  0  0  0  0999 V2000
   -2.7680    3.0950   -0.0540 N   0  0  0  0  0  0  0  0  0  0  0  0
   -2.6740    1.8000   -0.0970 C   0  0  0  0  0  0  0  0  0  0  0  0
   -1.3150    1.3190   -0.1280 N   0  0  0  0  0  0  0  0  0  0  0  0
   -0.9130    0.1140    0.0950 C   0  0  0  0  0  0  0  0  0  0  0  0
    0.5360   -0.1370    0.0050 C   0  0  0  0  0  0  0  0  0  0  0  0
    1.1400   -1.2940    0.1970 C   0  0  0  0  0  0  0  0  0  0  0  0
    2.5100   -1.1830    0.0360 O   0  0  0  0  0  0  0  0  0  0  0  0
    2.7240    0.0420   -0.6360 C   0  0  2  0  0  0  0  0  0  0  0  0
    3.9470    0.6800    0.0010 C   0  0  0  0  0  0  0  0  0  0  0  0
    5.0020   -0.2200   -0.1860 O   0  0  0  0  0  0  0  0  0  0  0  0
    6.4080    0.4800    0.5290 P   0  0  0  0  0  0  0  0  0  0  0  0
    7.4050   -0.7880    1.1350 O   0  0  0  0  0  0  0  0  0  0  0  0
    5.9140    1.5670    1.7870 O   0  0  0  0  0  0  0  0  0  0  0  0
    1.5350    0.7780   -0.2950 O   0  0  0  0  0  0  0  0  0  0  0  0
   -1.6990   -0.9690    0.4100 O   0  0  0  0  0  0  0  0  0  0  0  0
   -3.0870   -1.1240    0.6340 C   0  0  0  0  0  0  0  0  0  0  0  0
   -3.9250   -0.3290   -0.3400 C   0  0  1  0  0  0  0  0  0  0  0  0
   -5.3600   -0.7580   -0.2210 C   0  0  0  0  0  0  0  0  0  0  0  0
   -5.5490   -2.1030   -0.4310 O   0  0  0  0  0  0  0  0  0  0  0  0
   -3.8530    1.0660   -0.1060 O   0  0  0  0  0  0  0  0  0  0  0  0
  1  2  2  0
  2  3  1  0
  2 20  1  0
  3  4  2  0
  4  5  1  0
  4 15  1  0
  5  6  2  0
  5 14  1  0
  6  7  1  0
  7  8  1  0
  8  9  1  1
  8 14  1  0
  9 10  1  0
 10 11  1  0
 11 12  1  0
 11 13  1  0
 15 16  1  0
 16 17  1  0
 17 18  1  1
 17 20  1  0
 18 19  1  0
M  END
