
     RDKit          3D

 21 21  0  0  0  0  0  0  0  0999 V2000
    0.8880    0.5220   -0.5670 O   0  0  0  0  0  0  0  0  0  0  0  0
    0.8020    0.2020    0.6140 C   0  0  0  0  0  0  0  0  0  0  0  0
    1.9700    0.2380    1.4130 N   0  0  0  0  0  0  0  0  0  0  0  0
    3.1730    0.7610    0.9240 C   0  0  0  0  0  0  0  0  0  0  0  0
    4.4000    0.1870    1.8200 C   0  0  0  0  0  0  0  0  0  0  0  0
    5.4770    0.8230    1.1870 O   0  0  0  0  0  0  0  0  0  0  0  0
    6.4940   -0.1000    0.3270 P   0  0  0  0  0  0  0  0  0  0  0  0
    5.9950   -0.4390   -1.3000 O   0  0  0  0  0  0  0  0  0  0  0  0
    7.5770   -1.1590    0.9220 O   0  0  0  0  0  0  0  0  0  0  0  0
   -0.4220   -0.2090    1.1720 N   0  0  0  0  0  0  0  0  0  0  0  0
   -1.6370   -0.4790    0.4920 C   0  0  2  0  0  0  0  0  0  0  0  0
   -1.4580   -0.7570   -0.9870 C   0  0  0  0  0  0  0  0  0  0  0  0
   -2.4260   -1.6870   -1.3470 O   0  0  0  0  0  0  0  0  0  0  0  0
   -3.4720   -1.2210   -2.0900 C   0  0  0  0  0  0  0  0  0  0  0  0
   -4.2610   -0.1190   -1.4040 C   0  0  1  0  0  0  0  0  0  0  0  0
   -3.9550    1.0700   -2.0250 O   0  0  0  0  0  0  0  0  0  0  0  0
   -5.6370   -0.3110   -1.5980 O   0  0  0  0  0  0  0  0  0  0  0  0
   -6.3450    0.6700   -1.0640 O   0  0  0  0  0  0  0  0  0  0  0  0
   -3.9200   -0.1100    0.0390 C   0  0  0  0  0  0  0  0  0  0  0  0
   -4.6820   -0.6640    0.8010 O   0  0  0  0  0  0  0  0  0  0  0  0
   -2.7120    0.5260    0.6620 C   0  0  0  0  0  0  0  0  0  0  0  0
  1  2  2  0
  2  3  1  0
  2 10  1  0
  3  4  1  0
  4  5  1  0
  5  6  1  0
  6  7  1  0
  7  8  1  0
  7  9  1  0
 11 10  1  6
 11 12  1  0
 11 21  1  0
 12 13  1  0
 13 14  1  0
 14 15  1  0
 15 16  1  6
 15 17  1  0
 15 19  1  0
 17 18  1  0
 19 20  2  0
 19 21  1  0
M  END
