
     RDKit          3D

 20 21  0  0  0  0  0  0  0  0999 V2000
   -3.3900    0.8240   -0.7100 N   0  0  0  0  0  0  0  0  0  0  0  0
   -2.5540    0.0360    0.2350 C   0  0  2  0  0  0  0  0  0  0  0  0
   -1.3690    0.7760    0.6020 C   0  0  0  0  0  0  0  0  0  0  0  0
   -0.1000    0.5730    0.5970 C   0  0  0  0  0  0  0  0  0  0  0  0
    0.6180   -0.6100    0.1660 C   0  0  0  0  0  0  0  0  0  0  0  0
    0.1120   -1.6200   -0.2730 O   0  0  0  0  0  0  0  0  0  0  0  0
    2.0480   -0.5950    0.2620 N   0  0  0  0  0  0  0  0  0  0  0  0
    2.7960   -1.7810   -0.1690 C   0  0  0  0  0  0  0  0  0  0  0  0
    4.1310   -1.5510    0.0080 O   0  0  0  0  0  0  0  0  0  0  0  0
    4.7200   -0.2030   -0.8910 P   0  0  0  0  0  0  0  0  0  0  0  0
    4.6000    1.2720    0.0190 O   0  0  0  0  0  0  0  0  0  0  0  0
    6.4110   -0.4190   -1.3070 O   0  0  0  0  0  0  0  0  0  0  0  0
    0.6200    1.8070    1.1440 C   0  0  0  0  0  0  0  0  0  0  0  0
   -0.3650    2.7020    1.3940 O   0  0  0  0  0  0  0  0  0  0  0  0
   -1.5800    2.1720    1.1220 C   0  0  0  0  0  0  0  0  0  0  0  0
   -2.6680    2.7710    1.2900 O   0  0  0  0  0  0  0  0  0  0  0  0
   -2.5700   -1.3340   -0.2430 C   0  0  0  0  0  0  0  0  0  0  0  0
   -4.0210   -1.5290   -0.2490 O   0  0  0  0  0  0  0  0  0  0  0  0
   -4.4600   -0.8500    0.8570 C   0  0  0  0  0  0  0  0  0  0  0  0
   -3.4330   -0.0910    1.3620 O   0  0  0  0  0  0  0  0  0  0  0  0
  2  1  1  6
  2  3  1  0
  2 17  1  0
  2 20  1  0
  3  4  2  0
  3 15  1  0
  4  5  1  0
  4 13  1  0
  5  6  2  0
  5  7  1  0
  7  8  1  0
  8  9  1  0
  9 10  1  0
 10 11  1  0
 10 12  1  0
 13 14  1  0
 14 15  1  0
 15 16  2  0
 17 18  1  0
 18 19  1  0
 19 20  1  0
M  END
