
     RDKit          3D

 24 25  0  0  0  0  0  0  0  0999 V2000
    5.1880    1.4780   -1.0400 C   0  0  0  0  0  0  0  0  0  0  0  0
    5.7980    0.4190   -0.5730 C   0  0  0  0  0  0  0  0  0  0  0  0
    6.8470    0.5960    0.4260 C   0  0  0  0  0  0  0  0  0  0  0  0
    7.1820    1.7320    0.8510 N   0  0  0  0  0  0  0  0  0  0  0  0
    5.4210   -0.9380   -1.0370 C   0  0  0  0  0  0  0  0  0  0  0  0
    4.2550   -1.0220   -1.9450 C   0  0  0  0  0  0  0  0  0  0  0  0
    3.0000   -0.5710   -1.4060 N   0  0  0  0  0  0  0  0  0  0  0  0
    2.4630   -1.1830   -0.2420 C   0  0  0  0  0  0  0  0  0  0  0  0
    3.0910   -2.1190    0.3110 O   0  0  0  0  0  0  0  0  0  0  0  0
    1.2310   -0.7850    0.3390 N   0  0  0  0  0  0  0  0  0  0  0  0
    0.7180   -1.4310    1.5230 C   0  0  0  0  0  0  0  0  0  0  0  0
   -0.5740   -0.8180    1.9050 C   0  0  0  0  0  0  0  0  0  0  0  0
   -1.2400   -1.1930    2.9040 O   0  0  0  0  0  0  0  0  0  0  0  0
   -1.0930    0.2340    1.1250 N   0  0  0  0  0  0  0  0  0  0  0  0
   -2.3620    0.2810    0.7840 C   0  0  0  0  0  0  0  0  0  0  0  0
   -2.9560    1.2290    0.0500 N   0  0  0  0  0  0  0  0  0  0  0  0
   -4.2810    0.9330   -0.0920 C   0  0  0  0  0  0  0  0  0  0  0  0
   -4.5030   -0.2450    0.5840 C   0  0  0  0  0  0  0  0  0  0  0  0
   -3.3180   -0.6070    1.1000 N   0  0  0  0  0  0  0  0  0  0  0  0
   -5.9220   -0.5090    0.4000 C   0  0  0  0  0  0  0  0  0  0  0  0
   -6.5420   -1.5020    0.8630 O   0  0  0  0  0  0  0  0  0  0  0  0
   -6.5400    0.5010   -0.3790 N   0  0  0  0  0  0  0  0  0  0  0  0
   -7.9640    0.5620   -0.7660 C   0  0  0  0  0  0  0  0  0  0  0  0
   -5.5170    1.4560   -0.7200 C   0  0  0  0  0  0  0  0  0  0  0  0
  1  2  2  0
  2  3  1  0
  2  5  1  0
  3  4  2  0
  5  6  1  0
  6  7  1  0
  7  8  1  0
  8  9  2  0
  8 10  1  0
 10 11  1  0
 11 12  1  0
 12 13  2  0
 12 14  1  0
 14 15  2  3
 15 16  1  0
 15 19  1  0
 16 17  1  0
 17 18  2  0
 17 24  1  0
 18 19  1  0
 18 20  1  0
 20 21  2  0
 20 22  1  0
 22 23  1  0
 22 24  1  0
M  END
