
     RDKit          3D

 24 25  0  0  0  0  0  0  0  0999 V2000
   -4.1550    1.2740    2.0850 C   0  0  0  0  0  0  0  0  0  0  0  0
   -3.5170    1.0590    0.7300 C   0  0  2  0  0  0  0  0  0  0  0  0
   -4.4730    1.5450   -0.3130 C   0  0  0  0  0  0  0  0  0  0  0  0
   -3.1720   -0.4080    0.5600 C   0  0  0  0  0  0  0  0  0  0  0  0
   -2.5580   -0.6690   -0.7220 N   0  0  0  0  0  0  0  0  0  0  0  0
   -3.1990   -0.9920   -1.8540 N   0  0  0  0  0  0  0  0  0  0  0  0
   -2.2770   -1.1560   -2.8320 C   0  0  0  0  0  0  0  0  0  0  0  0
   -2.4880   -1.5160   -4.2600 C   0  0  0  0  0  0  0  0  0  0  0  0
   -3.8290   -1.6880   -4.5440 O   0  0  0  0  0  0  0  0  0  0  0  0
   -1.1000   -0.9250   -2.2520 N   0  0  0  0  0  0  0  0  0  0  0  0
   -1.2360   -0.6220   -0.9490 C   0  0  0  0  0  0  0  0  0  0  0  0
   -0.1900   -0.3190   -0.0300 N   0  0  0  0  0  0  0  0  0  0  0  0
    1.1700   -0.3320   -0.5210 C   0  0  0  0  0  0  0  0  0  0  0  0
    1.3650   -0.6040   -1.7120 O   0  0  0  0  0  0  0  0  0  0  0  0
    2.2600   -0.0430    0.3280 N   0  0  0  0  0  0  0  0  0  0  0  0
    3.6250   -0.0160   -0.0180 C   0  0  0  0  0  0  0  0  0  0  0  0
    4.0820   -0.0590   -1.3200 C   0  0  0  0  0  0  0  0  0  0  0  0
    5.4050    0.0260   -1.6510 N   0  0  0  0  0  0  0  0  0  0  0  0
    6.2690    0.1550   -0.6590 C   0  0  0  0  0  0  0  0  0  0  0  0
    5.9110    0.2080    0.6910 C   0  0  0  0  0  0  0  0  0  0  0  0
    4.5720    0.1210    1.0120 C   0  0  0  0  0  0  0  0  0  0  0  0
    4.1180    0.0990    2.3390 N   0  0  0  0  0  0  0  0  0  0  0  0
    4.9400    0.4280    3.4400 C   0  0  0  0  0  0  0  0  0  0  0  0
    6.1270    0.7720    3.3750 O   0  0  0  0  0  0  0  0  0  0  0  0
  2  1  1  1
  2  3  1  0
  2  4  1  0
  4  5  1  0
  5  6  1  0
  5 11  1  0
  6  7  2  0
  7  8  1  0
  7 10  1  0
  8  9  1  0
 10 11  2  0
 11 12  1  0
 12 13  1  0
 13 14  2  0
 13 15  1  0
 15 16  1  0
 16 17  2  0
 16 21  1  0
 17 18  1  0
 18 19  2  0
 19 20  1  0
 20 21  2  0
 21 22  1  0
 22 23  1  0
 23 24  2  0
M  END
