
     RDKit          3D

 24 25  0  0  0  0  0  0  0  0999 V2000
   -1.6570   -1.6310    0.9650 C   0  0  0  0  0  0  0  0  0  0  0  0
   -1.7040   -0.5740    0.1990 C   0  0  0  0  0  0  0  0  0  0  0  0
   -0.6190    0.2590   -0.0440 N   0  0  0  0  0  0  0  0  0  0  0  0
    0.4780    0.5190    0.8330 C   0  0  1  0  0  0  0  0  0  0  0  0
    1.3420   -0.6190    1.1340 C   0  0  0  0  0  0  0  0  0  0  0  0
    1.7820   -0.9590    2.4140 C   0  0  0  0  0  0  0  0  0  0  0  0
    2.5590   -2.0460    2.2990 N   0  0  0  0  0  0  0  0  0  0  0  0
    2.6390   -2.4140    1.0330 N   0  0  0  0  0  0  0  0  0  0  0  0
    1.9090   -1.5650    0.3060 C   0  0  0  0  0  0  0  0  0  0  0  0
    1.7410   -1.6420   -1.1420 C   0  0  0  0  0  0  0  0  0  0  0  0
    2.6200   -0.5960   -1.7940 C   0  0  0  0  0  0  0  0  0  0  0  0
    1.2350    1.6920    0.3490 N   0  0  0  0  0  0  0  0  0  0  0  0
    0.5430    2.6140   -0.3430 N   0  0  0  0  0  0  0  0  0  0  0  0
    1.1430    3.7130   -0.8210 C   0  0  0  0  0  0  0  0  0  0  0  0
    2.4470    3.8850   -0.6010 N   0  0  0  0  0  0  0  0  0  0  0  0
    3.1620    2.9920    0.0810 C   0  0  0  0  0  0  0  0  0  0  0  0
    4.5450    3.1910    0.3050 N   0  0  0  0  0  0  0  0  0  0  0  0
    2.5200    1.8660    0.5640 C   0  0  0  0  0  0  0  0  0  0  0  0
    3.2010    1.0180    1.2130 O   0  0  0  0  0  0  0  0  0  0  0  0
   -2.9910   -0.2600   -0.4430 C   0  0  0  0  0  0  0  0  0  0  0  0
   -3.1300    0.7380   -1.1950 O   0  0  0  0  0  0  0  0  0  0  0  0
   -4.1230   -1.0550   -0.2520 O   0  0  0  0  0  0  0  0  0  0  0  0
   -5.3600   -0.7340   -0.8860 C   0  0  0  0  0  0  0  0  0  0  0  0
   -6.3830   -1.7570   -0.4950 C   0  0  0  0  0  0  0  0  0  0  0  0
  1  2  2  0
  2  3  1  0
  2 20  1  0
  4  3  1  6
  4  5  1  0
  4 12  1  0
  5  6  1  0
  5  9  2  0
  6  7  2  0
  7  8  1  0
  8  9  1  0
  9 10  1  0
 10 11  1  0
 12 13  1  0
 12 18  1  0
 13 14  2  0
 14 15  1  0
 15 16  2  0
 16 17  1  0
 16 18  1  0
 18 19  2  0
 20 21  2  0
 20 22  1  0
 22 23  1  0
 23 24  1  0
M  END
