
     RDKit          3D

 24 25  0  0  0  0  0  0  0  0999 V2000
    0.8910   -5.0370   -0.6510 C   0  0  0  0  0  0  0  0  0  0  0  0
    0.7660   -3.6420   -0.1980 N   0  0  0  0  0  0  0  0  0  0  0  0
   -0.4930   -3.0070   -0.2860 C   0  0  0  0  0  0  0  0  0  0  0  0
   -1.5510   -3.6370   -0.7690 N   0  0  0  0  0  0  0  0  0  0  0  0
   -2.7790   -3.0980   -0.8800 C   0  0  0  0  0  0  0  0  0  0  0  0
   -2.9200   -1.8340   -0.4660 N   0  0  0  0  0  0  0  0  0  0  0  0
   -1.8890   -1.0920    0.0500 C   0  0  0  0  0  0  0  0  0  0  0  0
   -2.1530    0.2330    0.4200 N   0  0  0  0  0  0  0  0  0  0  0  0
   -1.7570    1.3370   -0.4070 C   0  0  0  0  0  0  0  0  0  0  0  0
   -2.5460    2.5990   -0.0000 C   0  0  0  0  0  0  0  0  0  0  0  0
   -3.9920    2.2550    0.2360 C   0  0  0  0  0  0  0  0  0  0  0  0
   -4.1710    1.1580    1.2400 C   0  0  0  0  0  0  0  0  0  0  0  0
   -2.8400    0.5210    1.6490 C   0  0  0  0  0  0  0  0  0  0  0  0
   -0.6500   -1.6950    0.1400 C   0  0  0  0  0  0  0  0  0  0  0  0
    0.4820   -1.0430    0.6770 N   0  0  0  0  0  0  0  0  0  0  0  0
    1.3790   -0.2650   -0.0370 C   0  0  0  0  0  0  0  0  0  0  0  0
    1.2180   -0.0860   -1.2690 O   0  0  0  0  0  0  0  0  0  0  0  0
    2.5670    0.3910    0.6300 C   0  0  0  0  0  0  0  0  0  0  0  0
    3.2420    1.1770   -0.3150 N   0  0  0  0  0  0  0  0  0  0  0  0
    4.4880    1.9430   -0.0170 C   0  0  0  0  0  0  0  0  0  0  0  0
    4.9330    1.8300    1.0630 O   0  0  0  0  0  0  0  0  0  0  0  0
    4.8240    2.6570   -1.2040 N   0  0  0  0  0  0  0  0  0  0  0  0
    6.2240    3.4590   -0.5380 C   0  0  0  0  0  0  0  0  0  0  0  0
    6.4530    3.2050    0.5670 O   0  0  0  0  0  0  0  0  0  0  0  0
  1  2  1  0
  2  3  1  0
  3  4  2  0
  3 14  1  0
  4  5  1  0
  5  6  2  0
  6  7  1  0
  7  8  1  0
  7 14  2  0
  8  9  1  0
  8 13  1  0
  9 10  1  0
 10 11  1  0
 11 12  1  0
 12 13  1  0
 14 15  1  0
 15 16  1  0
 16 17  2  0
 16 18  1  0
 18 19  1  0
 19 20  1  0
 20 21  2  0
 20 22  1  0
 22 23  1  0
 23 24  2  0
M  END
