
     RDKit          3D

 24 25  0  0  0  0  0  0  0  0999 V2000
    5.0780   -1.3790   -1.8620 C   0  0  0  0  0  0  0  0  0  0  0  0
    5.2330    0.1010   -1.6280 C   0  0  0  0  0  0  0  0  0  0  0  0
    6.0740    0.8930   -2.3120 N   0  0  0  0  0  0  0  0  0  0  0  0
    5.9470    2.1240   -1.8440 N   0  0  0  0  0  0  0  0  0  0  0  0
    5.0290    2.1400   -0.8600 C   0  0  0  0  0  0  0  0  0  0  0  0
    4.6040    0.8700   -0.7490 N   0  0  0  0  0  0  0  0  0  0  0  0
    3.6020    0.4490    0.2090 C   0  0  0  0  0  0  0  0  0  0  0  0
    2.2630    0.5720   -0.4420 C   0  0  0  0  0  0  0  0  0  0  0  0
    1.1670    0.1490    0.5060 C   0  0  0  0  0  0  0  0  0  0  0  0
    1.4790   -0.2250    1.6370 O   0  0  0  0  0  0  0  0  0  0  0  0
   -0.1840    0.1760    0.1150 N   0  0  0  0  0  0  0  0  0  0  0  0
   -1.3480   -0.1590    0.8020 C   0  0  0  0  0  0  0  0  0  0  0  0
   -2.5760   -0.0610    0.2230 C   0  0  0  0  0  0  0  0  0  0  0  0
   -2.6990    0.4060   -1.1410 C   0  0  0  0  0  0  0  0  0  0  0  0
   -3.8060    0.5800   -1.8160 C   0  0  0  0  0  0  0  0  0  0  0  0
   -5.1080    0.3580   -1.3740 N   0  0  0  0  0  0  0  0  0  0  0  0
   -3.6650    1.0590   -3.1850 O   0  0  0  0  0  0  0  0  0  0  0  0
   -3.8160   -0.4520    0.9210 C   0  0  0  0  0  0  0  0  0  0  0  0
   -3.5560   -1.4720    2.0240 C   0  0  0  0  0  0  0  0  0  0  0  0
   -2.5530   -0.8890    2.8700 N   0  0  0  0  0  0  0  0  0  0  0  0
   -2.6890   -0.6080    4.2450 C   0  0  0  0  0  0  0  0  0  0  0  0
   -3.7480   -0.8550    4.8680 O   0  0  0  0  0  0  0  0  0  0  0  0
   -1.3080   -0.5880    2.1830 C   0  0  0  0  0  0  0  0  0  0  0  0
   -0.2570   -0.7230    2.9010 N   0  0  0  0  0  0  0  0  0  0  0  0
  1  2  1  0
  2  3  2  0
  2  6  1  0
  3  4  1  0
  4  5  2  0
  5  6  1  0
  6  7  1  0
  7  8  1  0
  8  9  1  0
  9 10  2  0
  9 11  1  0
 11 12  1  0
 12 13  2  0
 12 23  1  0
 13 14  1  0
 13 18  1  0
 14 15  2  3
 15 16  1  0
 15 17  1  0
 18 19  1  0
 19 20  1  0
 20 21  1  0
 20 23  1  0
 21 22  2  0
 23 24  2  0
M  END
