
     RDKit          3D

 15 16  0  0  0  0  0  0  0  0999 V2000
    4.2980    2.0400    0.5410 O   0  0  0  0  0  0  0  0  0  0  0  0
    3.5560    0.8030    0.8780 S   0  0  2  0  0  0  0  0  0  0  0  0
    4.0050    0.1390    2.1330 O   0  0  0  0  0  0  0  0  0  0  0  0
    3.6150   -0.4110   -0.4380 C   0  0  0  0  0  0  0  0  0  0  0  0
    2.3310   -1.1480   -0.0700 C   0  0  0  0  0  0  0  0  0  0  0  0
    1.2810   -0.0830    0.0040 C   0  0  1  0  0  0  0  0  0  0  0  0
    0.0730   -0.6520    0.5790 N   0  0  0  0  0  0  0  0  0  0  0  0
   -1.0490   -0.5040   -0.3440 C   0  0  1  0  0  0  0  0  0  0  0  0
   -1.9120   -1.7510   -0.2840 C   0  0  0  0  0  0  0  0  0  0  0  0
   -3.2500   -1.2670    0.2600 C   0  0  0  0  0  0  0  0  0  0  0  0
   -3.3110    0.1170   -0.3580 C   0  0  0  0  0  0  0  0  0  0  0  0
   -1.9390    0.6540    0.0340 C   0  0  2  0  0  0  0  0  0  0  0  0
   -1.6400    2.1140   -0.9870 S   0  0  0  0  0  0  0  0  0  0  0  0
   -2.3230    3.8110    0.1170 S   0  0  0  0  0  0  0  0  0  0  0  0
    1.7830    1.0350    0.8660 C   0  0  0  0  0  0  0  0  0  0  0  0
  1  2  2  0
  2  3  2  0
  2  4  1  6
  2 15  1  0
  4  5  1  0
  5  6  1  0
  6  7  1  1
  6 15  1  0
  8  7  1  1
  8  9  1  0
  8 12  1  0
  9 10  1  0
 10 11  1  0
 11 12  1  0
 12 13  1  6
 13 14  1  0
M  CHG  1   7   1
M  END
