
     RDKit          3D

 15 16  0  0  0  0  0  0  0  0999 V2000
    4.2420    1.3840    0.3830 C   0  0  0  0  0  0  0  0  0  0  0  0
    3.1650    0.5760   -0.3420 C   0  0  1  0  0  0  0  0  0  0  0  0
    3.4010   -0.8640   -0.1420 C   0  0  0  0  0  0  0  0  0  0  0  0
    1.8760   -1.7280    0.1360 S   0  0  0  0  0  0  0  0  0  0  0  0
    0.5980   -0.5110   -0.2150 C   0  0  1  0  0  0  0  0  0  0  0  0
    0.2810   -0.5470   -1.6770 C   0  0  0  0  0  0  0  0  0  0  0  0
   -0.6120   -0.6700    0.6650 C   0  0  0  0  0  0  0  0  0  0  0  0
   -1.6340    0.2980    0.3880 N   0  0  0  0  0  0  0  0  0  0  0  0
   -2.9060   -0.1030    0.8740 C   0  0  1  0  0  0  0  0  0  0  0  0
   -3.8550    1.0950    1.0410 C   0  0  0  0  0  0  0  0  0  0  0  0
   -5.4140    0.1360    1.2400 S   0  0  0  0  0  0  0  0  0  0  0  0
   -4.8490   -1.3570    0.4860 O   0  0  0  0  0  0  0  0  0  0  0  0
   -3.6070   -1.0400   -0.0400 C   0  0  0  0  0  0  0  0  0  0  0  0
   -3.1280   -1.4830   -1.1420 O   0  0  0  0  0  0  0  0  0  0  0  0
    1.5170    1.0100    0.1760 S   0  0  0  0  0  0  0  0  0  0  0  0
  2  1  1  1
  2  3  1  0
  2 15  1  0
  3  4  1  0
  4  5  1  0
  5  6  1  6
  5  7  1  0
  5 15  1  0
  7  8  1  0
  9  8  1  6
  9 10  1  0
  9 13  1  0
 10 11  1  0
 11 12  1  0
 12 13  1  0
 13 14  2  0
M  CHG  1   8   1
M  END
