
     RDKit          3D

 15 16  0  0  0  0  0  0  0  0999 V2000
    3.7140    2.0240   -2.0070 Cl  0  0  0  0  0  0  0  0  0  0  0  0
    3.8500    0.3300   -1.4630 C   0  0  0  0  0  0  0  0  0  0  0  0
    2.5410   -0.2280   -1.3190 N   0  0  0  0  0  0  0  0  0  0  0  0
    1.5830    0.3190   -0.4210 C   0  0  0  0  0  0  0  0  0  0  0  0
    1.8640    1.4030    0.3490 N   0  0  0  0  0  0  0  0  0  0  0  0
    0.9480    1.9100    1.1940 C   0  0  0  0  0  0  0  0  0  0  0  0
   -0.2810    1.3570    1.3040 N   0  0  0  0  0  0  0  0  0  0  0  0
   -0.5770    0.2880    0.5550 C   0  0  0  0  0  0  0  0  0  0  0  0
   -1.9040   -0.3510    0.6380 C   0  0  0  0  0  0  0  0  0  0  0  0
   -2.3340   -1.4330   -0.0610 C   0  0  0  0  0  0  0  0  0  0  0  0
   -3.6350   -1.6660    0.3490 C   0  0  0  0  0  0  0  0  0  0  0  0
   -3.9330   -0.7110    1.2800 C   0  0  0  0  0  0  0  0  0  0  0  0
   -5.4160   -0.4610    2.1740 Cl  0  0  0  0  0  0  0  0  0  0  0  0
   -2.8750    0.0370    1.4110 O   0  0  0  0  0  0  0  0  0  0  0  0
    0.3500   -0.1960   -0.2770 N   0  0  0  0  0  0  0  0  0  0  0  0
  1  2  1  0
  2  3  1  0
  3  4  1  0
  4  5  2  0
  4 15  1  0
  5  6  1  0
  6  7  2  0
  7  8  1  0
  8  9  1  0
  8 15  2  0
  9 10  2  0
  9 14  1  0
 10 11  1  0
 11 12  2  0
 12 13  1  0
 12 14  1  0
M  END
