
     RDKit          3D

 15 16  0  0  0  0  0  0  0  0999 V2000
    2.5050    1.4680   -0.7150 C   0  0  0  0  0  0  0  0  0  0  0  0
    2.6210    0.3380    0.2840 C   0  0  2  0  0  0  0  0  0  0  0  0
    4.1760   -0.5370   -0.1040 S   0  0  0  0  0  0  0  0  0  0  0  0
    3.8650   -2.2690    0.4080 C   0  0  0  0  0  0  0  0  0  0  0  0
    2.2140   -2.0640    1.1840 S   0  0  0  0  0  0  0  0  0  0  0  0
    1.5690   -0.7020    0.1360 C   0  0  1  0  0  0  0  0  0  0  0  0
    0.2850   -0.3510    0.6370 N   0  0  0  0  0  0  0  0  0  0  0  0
   -0.5970    0.1670   -0.4210 C   0  0  2  0  0  0  0  0  0  0  0  0
   -1.2580    1.3830    0.1040 C   0  0  0  0  0  0  0  0  0  0  0  0
   -2.4200    1.1380    1.0060 C   0  0  0  0  0  0  0  0  0  0  0  0
   -3.6120    0.8360    0.0870 C   0  0  0  0  0  0  0  0  0  0  0  0
   -3.1810   -0.6930   -0.7220 S   0  0  2  0  0  0  0  0  0  0  0  0
   -3.9940   -0.7570   -1.9950 O   0  0  0  0  0  0  0  0  0  0  0  0
   -3.7240   -1.8030    0.1680 O   0  0  0  0  0  0  0  0  0  0  0  0
   -1.4740   -0.8710   -0.9950 C   0  0  0  0  0  0  0  0  0  0  0  0
  2  1  1  6
  2  3  1  0
  2  6  1  0
  3  4  1  0
  4  5  1  0
  5  6  1  0
  6  7  1  1
  8  7  1  1
  8  9  1  0
  8 15  1  0
  9 10  1  0
 10 11  1  0
 12 11  1  1
 12 13  2  0
 12 14  2  0
 12 15  1  0
M  CHG  1   7   1
M  END
