
     RDKit          3D

 15 16  0  0  0  0  0  0  0  0999 V2000
    4.9910    1.2830   -0.4090 C   0  0  0  0  0  0  0  0  0  0  0  0
    3.2510    1.7410   -0.2550 S   0  0  0  0  0  0  0  0  0  0  0  0
    2.3180    0.3160    0.2570 C   0  0  0  0  0  0  0  0  0  0  0  0
    2.9690   -0.9540    0.4820 C   0  0  0  0  0  0  0  0  0  0  0  0
    4.2130   -1.0900    0.3230 O   0  0  0  0  0  0  0  0  0  0  0  0
    1.0210    0.4290    0.4300 C   0  0  0  0  0  0  0  0  0  0  0  0
    0.3210    1.7080    0.2100 C   0  0  0  0  0  0  0  0  0  0  0  0
   -1.1880    1.5180   -0.7090 S   0  0  0  0  0  0  0  0  0  0  0  0
   -2.1410    0.0800   -0.3690 C   0  0  2  0  0  0  0  0  0  0  0  0
   -3.1170   -0.1320   -1.5330 C   0  0  0  0  0  0  0  0  0  0  0  0
   -2.9520    0.1330    0.8280 N   0  0  0  0  0  0  0  0  0  0  0  0
   -3.3600   -1.1130    1.0620 O   0  0  0  0  0  0  0  0  0  0  0  0
   -2.4110   -2.0030    0.6340 C   0  0  0  0  0  0  0  0  0  0  0  0
   -1.3660   -1.1920   -0.1460 C   0  0  2  0  0  0  0  0  0  0  0  0
    0.0370   -0.9680    0.9430 S   0  0  0  0  0  0  0  0  0  0  0  0
  1  2  1  0
  2  3  1  0
  3  4  1  0
  3  6  2  3
  4  5  2  0
  6  7  1  0
  6 15  1  0
  7  8  1  0
  8  9  1  0
  9 10  1  6
  9 11  1  0
  9 14  1  0
 11 12  1  0
 12 13  1  0
 14 13  1  1
 14 15  1  0
M  CHG  1  11   1
M  END
