
     RDKit          3D

 15 16  0  0  0  0  0  0  0  0999 V2000
   -4.4720    0.4990   -0.0580 C   0  0  0  0  0  0  0  0  0  0  0  0
   -3.1870   -0.2990   -0.1810 C   0  0  2  0  0  0  0  0  0  0  0  0
   -2.4350   -0.1250    1.1170 C   0  0  0  0  0  0  0  0  0  0  0  0
   -1.5380   -1.1700    1.2710 O   0  0  0  0  0  0  0  0  0  0  0  0
   -0.6570   -1.1770    0.2120 C   0  0  0  0  0  0  0  0  0  0  0  0
    0.0410    0.1540    0.0750 C   0  0  1  0  0  0  0  0  0  0  0  0
    1.4040   -0.1180   -0.3440 N   0  0  0  0  0  0  0  0  0  0  0  0
    2.2630   -0.3240    0.8280 C   0  0  0  0  0  0  0  0  0  0  0  0
    3.7080   -0.1670    0.4240 C   0  0  0  0  0  0  0  0  0  0  0  0
    4.1240    0.1100   -0.7940 C   0  0  0  0  0  0  0  0  0  0  0  0
    5.8970    0.2180   -0.8920 S   0  0  0  0  0  0  0  0  0  0  0  0
    6.4250    0.2510    0.7460 O   0  0  0  0  0  0  0  0  0  0  0  0
    5.0660   -0.3420    1.5660 S   0  0  0  0  0  0  0  0  0  0  0  0
   -0.6670    1.0600   -0.9080 C   0  0  0  0  0  0  0  0  0  0  0  0
   -2.1730    0.2870   -1.5580 S   0  0  0  0  0  0  0  0  0  0  0  0
  2  1  1  1
  2  3  1  0
  2 15  1  0
  3  4  1  0
  4  5  1  0
  5  6  1  0
  6  7  1  6
  6 14  1  0
  7  8  1  0
  8  9  1  0
  9 10  2  0
  9 13  1  0
 10 11  1  0
 11 12  1  0
 12 13  1  0
 14 15  1  0
M  CHG  1   7   1
M  END
