
     RDKit          3D

 33 36  0  0  0  0  0  0  0  0999 V2000
   -0.3160    1.5430   -0.7370 O   0  0  0  0  0  0  0  0  0  0  0  0
   -0.6070    0.3040   -0.7290 C   0  0  0  0  0  0  0  0  0  0  0  0
    0.4900   -0.6910   -0.7440 C   0  0  0  0  0  0  0  0  0  0  0  0
    1.7450   -0.2900   -0.7610 C   0  0  0  0  0  0  0  0  0  0  0  0
    2.8310   -1.2520   -0.7760 C   0  0  0  0  0  0  0  0  0  0  0  0
    4.1740   -0.9670   -0.6450 C   0  0  0  0  0  0  0  0  0  0  0  0
    4.8280    0.2700   -0.2410 C   0  0  0  0  0  0  0  0  0  0  0  0
    6.1810    0.4610   -0.5270 C   0  0  0  0  0  0  0  0  0  0  0  0
    6.8790    1.5750   -0.1050 C   0  0  0  0  0  0  0  0  0  0  0  0
    6.2770    2.5690    0.6280 C   0  0  0  0  0  0  0  0  0  0  0  0
    4.9500    2.4090    0.9250 C   0  0  0  0  0  0  0  0  0  0  0  0
    4.2480    1.2750    0.4930 C   0  0  0  0  0  0  0  0  0  0  0  0
    4.8050   -2.1650   -0.8460 N   0  0  0  0  0  0  0  0  0  0  0  0
    6.1450   -2.4010   -0.8080 O   0  0  0  0  0  0  0  0  0  0  0  0
    3.9250   -3.1120   -1.0790 N   0  0  0  0  0  0  0  0  0  0  0  0
    2.6940   -2.6050   -1.0460 C   0  0  0  0  0  0  0  0  0  0  0  0
    1.6420   -3.2440   -1.2270 O   0  0  0  0  0  0  0  0  0  0  0  0
   -1.9760   -0.0530   -0.7080 N   0  0  0  0  0  0  0  0  0  0  0  0
   -2.9640    0.9860   -0.7520 C   0  0  0  0  0  0  0  0  0  0  0  0
   -3.3750    1.5030    0.5710 C   0  0  0  0  0  0  0  0  0  0  0  0
   -2.8170    1.0170    1.7360 C   0  0  0  0  0  0  0  0  0  0  0  0
   -3.2050    1.5150    2.9670 C   0  0  0  0  0  0  0  0  0  0  0  0
   -4.1350    2.4810    3.0110 N   0  0  0  0  0  0  0  0  0  0  0  0
   -4.6960    2.9720    1.8670 C   0  0  0  0  0  0  0  0  0  0  0  0
   -5.6490    3.9720    2.0440 O   0  0  0  0  0  0  0  0  0  0  0  0
   -4.3340    2.5010    0.6280 C   0  0  0  0  0  0  0  0  0  0  0  0
   -4.9240    3.0220   -0.5140 O   0  0  0  0  0  0  0  0  0  0  0  0
   -2.3630   -1.4270   -0.6690 C   0  0  0  0  0  0  0  0  0  0  0  0
   -1.9550   -2.2580    0.3310 C   0  0  0  0  0  0  0  0  0  0  0  0
   -2.3260   -3.6060    0.3880 C   0  0  0  0  0  0  0  0  0  0  0  0
   -3.1340   -4.1090   -0.6060 C   0  0  0  0  0  0  0  0  0  0  0  0
   -3.5450   -3.2520   -1.6220 C   0  0  0  0  0  0  0  0  0  0  0  0
   -3.1720   -1.9270   -1.6660 C   0  0  0  0  0  0  0  0  0  0  0  0
  1  2  2  0
  2  3  1  0
  2 18  1  0
  3  4  2  3
  4  5  1  0
  5  6  2  0
  5 16  1  0
  6  7  1  0
  6 13  1  0
  7  8  2  0
  7 12  1  0
  8  9  1  0
  9 10  2  0
 10 11  1  0
 11 12  2  0
 13 14  1  0
 13 15  1  0
 15 16  1  0
 16 17  2  0
 18 19  1  0
 18 28  1  0
 19 20  1  0
 20 21  2  0
 20 26  1  0
 21 22  1  0
 22 23  2  0
 23 24  1  0
 24 25  1  0
 24 26  2  0
 26 27  1  0
 28 29  2  0
 28 33  1  0
 29 30  1  0
 30 31  2  0
 31 32  1  0
 32 33  2  0
M  CHG  2  14  -1  23   1
M  END
