
     RDKit          3D

 32 36  0  0  0  0  0  0  0  0999 V2000
   -2.5300    5.7830   -2.0260 C   0  0  0  0  0  0  0  0  0  0  0  0
   -2.1550    4.4070   -1.5400 C   0  0  0  0  0  0  0  0  0  0  0  0
   -2.9990    3.4690   -1.2130 C   0  0  0  0  0  0  0  0  0  0  0  0
   -2.1790    2.2660   -0.7870 C   0  0  0  0  0  0  0  0  0  0  0  0
   -2.7220    1.1310   -0.4050 C   0  0  0  0  0  0  0  0  0  0  0  0
   -4.2230    1.0180   -0.3790 C   0  0  0  0  0  0  0  0  0  0  0  0
   -4.7730    0.0550   -1.3890 C   0  0  0  0  0  0  0  0  0  0  0  0
   -3.9550   -1.1850   -1.3820 C   0  0  0  0  0  0  0  0  0  0  0  0
   -3.0710   -1.3380   -0.1960 C   0  0  2  0  0  0  0  0  0  0  0  0
   -3.6760   -1.8520    1.0410 C   0  0  0  0  0  0  0  0  0  0  0  0
   -2.5260   -2.5210    1.8290 C   0  0  0  0  0  0  0  0  0  0  0  0
   -1.5860   -1.4210    2.1920 C   0  0  0  0  0  0  0  0  0  0  0  0
   -1.7810   -0.1550    1.4490 C   0  0  0  0  0  0  0  0  0  0  0  0
   -2.0560   -0.1750   -0.0090 C   0  0  2  0  0  0  0  0  0  0  0  0
   -1.0470   -0.4980   -0.9580 N   0  0  0  0  0  0  0  0  0  0  0  0
   -0.1220   -1.5140   -1.0820 C   0  0  0  0  0  0  0  0  0  0  0  0
    0.0570   -1.9060   -2.3230 O   0  0  0  0  0  0  0  0  0  0  0  0
    0.7110   -2.2640   -0.1530 C   0  0  0  0  0  0  0  0  0  0  0  0
    1.9730   -2.8250   -0.8390 C   0  0  0  0  0  0  0  0  0  0  0  0
    3.0630   -2.8500    0.2070 C   0  0  0  0  0  0  0  0  0  0  0  0
    4.0660   -1.7540    0.0810 C   0  0  2  0  0  0  0  0  0  0  0  0
    5.3800   -2.2680    0.6540 C   0  0  0  0  0  0  0  0  0  0  0  0
    5.8590   -1.2480    1.6360 C   0  0  0  0  0  0  0  0  0  0  0  0
    5.0160   -0.0270    1.4740 C   0  0  0  0  0  0  0  0  0  0  0  0
    3.7330   -0.4870    0.7980 C   0  0  1  0  0  0  0  0  0  0  0  0
    3.3530    0.6300   -0.1820 C   0  0  0  0  0  0  0  0  0  0  0  0
    2.6510    1.7600    0.4860 C   0  0  0  0  0  0  0  0  0  0  0  0
    1.1210    1.5510    0.5680 C   0  0  0  0  0  0  0  0  0  0  0  0
    0.4670    2.0100   -0.6760 C   0  0  0  0  0  0  0  0  0  0  0  0
    1.2240    1.7370   -1.7060 O   0  0  0  0  0  0  0  0  0  0  0  0
   -0.7980    2.6780   -0.9210 C   0  0  0  0  0  0  0  0  0  0  0  0
   -0.8100    3.9750   -1.3820 C   0  0  0  0  0  0  0  0  0  0  0  0
  1  2  1  0
  2  3  2  0
  2 32  1  0
  3  4  1  0
  4  5  2  0
  4 31  1  0
  5  6  1  0
  5 14  1  0
  6  7  1  0
  7  8  1  0
  9  8  1  6
  9 10  1  0
  9 14  1  0
 10 11  1  0
 11 12  1  0
 12 13  1  0
 14 13  1  1
 14 15  1  0
 15 16  1  0
 16 17  2  0
 16 18  1  0
 18 19  1  0
 19 20  1  0
 21 20  1  1
 21 22  1  0
 21 25  1  0
 22 23  1  0
 23 24  1  0
 25 24  1  6
 25 26  1  0
 26 27  1  0
 27 28  1  0
 28 29  1  0
 29 30  2  0
 29 31  1  0
 31 32  2  0
M  END
