
     RDKit          3D

 32 35  0  0  0  0  0  0  0  0999 V2000
    0.6110    4.2360   -0.0880 O   0  0  0  0  0  0  0  0  0  0  0  0
    0.1480    3.0730   -0.0660 C   0  0  0  0  0  0  0  0  0  0  0  0
    1.0020    2.0640   -0.2970 N   0  0  0  0  0  0  0  0  0  0  0  0
    0.6190    0.7290   -0.3020 C   0  0  0  0  0  0  0  0  0  0  0  0
    1.6620   -0.2520   -0.5020 C   0  0  0  0  0  0  0  0  0  0  0  0
    1.4900   -1.4690   -1.0470 C   0  0  0  0  0  0  0  0  0  0  0  0
    2.5560   -2.3870   -1.1170 C   0  0  0  0  0  0  0  0  0  0  0  0
    3.8040   -2.0900   -0.6410 C   0  0  0  0  0  0  0  0  0  0  0  0
    4.8490   -3.0220   -0.7240 O   0  0  0  0  0  0  0  0  0  0  0  0
    3.9980   -0.8480   -0.0820 C   0  0  0  0  0  0  0  0  0  0  0  0
    5.3250   -0.4520    0.4610 C   0  0  0  0  0  0  0  0  0  0  0  0
    5.5310   -1.0990    1.7930 C   0  0  0  0  0  0  0  0  0  0  0  0
    5.5000   -2.4820    1.7500 O   0  0  0  0  0  0  0  0  0  0  0  0
    2.9450    0.0400   -0.0190 C   0  0  0  0  0  0  0  0  0  0  0  0
   -0.7020    0.4930   -0.0510 C   0  0  0  0  0  0  0  0  0  0  0  0
   -1.2270   -0.8080    0.0560 N   0  0  0  0  0  0  0  0  0  0  0  0
   -2.0980   -1.2040   -1.0010 C   0  0  0  0  0  0  0  0  0  0  0  0
   -2.6440   -2.5440   -0.8150 C   0  0  0  0  0  0  0  0  0  0  0  0
   -2.4370   -3.2790    0.3280 C   0  0  0  0  0  0  0  0  0  0  0  0
   -2.9640   -4.5490    0.4820 C   0  0  0  0  0  0  0  0  0  0  0  0
   -3.7100   -5.1050   -0.5110 N   0  0  0  0  0  0  0  0  0  0  0  0
   -3.9330   -4.4080   -1.6490 C   0  0  0  0  0  0  0  0  0  0  0  0
   -4.6940   -4.9770   -2.6590 O   0  0  0  0  0  0  0  0  0  0  0  0
   -3.4090   -3.1290   -1.8160 C   0  0  0  0  0  0  0  0  0  0  0  0
   -1.5890    1.5650    0.1880 C   0  0  0  0  0  0  0  0  0  0  0  0
   -1.1770    2.8890    0.1860 C   0  0  0  0  0  0  0  0  0  0  0  0
   -2.1770    3.9140    0.4450 C   0  0  0  0  0  0  0  0  0  0  0  0
   -1.9150    5.2480    0.4810 C   0  0  0  0  0  0  0  0  0  0  0  0
   -2.9370    6.1810    0.7390 C   0  0  0  0  0  0  0  0  0  0  0  0
   -4.2210    5.7580    0.9610 C   0  0  0  0  0  0  0  0  0  0  0  0
   -4.4380    4.3970    0.9140 C   0  0  0  0  0  0  0  0  0  0  0  0
   -3.4740    3.5170    0.6700 N   0  0  0  0  0  0  0  0  0  0  0  0
  1  2  2  0
  2  3  1  0
  2 26  1  0
  3  4  1  0
  4  5  1  0
  4 15  2  0
  5  6  2  0
  5 14  1  0
  6  7  1  0
  7  8  2  0
  8  9  1  0
  8 10  1  0
 10 11  1  0
 10 14  2  0
 11 12  1  0
 12 13  1  0
 15 16  1  0
 15 25  1  0
 16 17  1  0
 17 18  1  0
 18 19  2  0
 18 24  1  0
 19 20  1  0
 20 21  2  0
 21 22  1  0
 22 23  1  0
 22 24  2  0
 25 26  2  0
 26 27  1  0
 27 28  2  0
 27 32  1  0
 28 29  1  0
 29 30  2  0
 30 31  1  0
 31 32  2  0
M  CHG  2  16   1  23  -1
M  END
