
     RDKit          3D

 32 36  0  0  0  0  0  0  0  0999 V2000
   -2.1080    3.1260   -4.5100 C   0  0  0  0  0  0  0  0  0  0  0  0
   -2.6170    2.6680   -3.1730 C   0  0  0  0  0  0  0  0  0  0  0  0
   -1.7690    1.5670   -2.5790 C   0  0  1  0  0  0  0  0  0  0  0  0
   -0.3900    2.0760   -2.4050 C   0  0  0  0  0  0  0  0  0  0  0  0
    0.3250    1.5150   -1.1970 C   0  0  0  0  0  0  0  0  0  0  0  0
   -0.2850    0.2560   -0.7010 C   0  0  0  0  0  0  0  0  0  0  0  0
   -1.6930    0.1170   -0.6880 C   0  0  0  0  0  0  0  0  0  0  0  0
   -2.2950   -1.0360   -0.2830 C   0  0  0  0  0  0  0  0  0  0  0  0
   -1.4420   -2.0710    0.1140 C   0  0  0  0  0  0  0  0  0  0  0  0
   -0.0800   -1.9540    0.1110 C   0  0  0  0  0  0  0  0  0  0  0  0
    0.7940   -3.0590    0.5960 C   0  0  0  0  0  0  0  0  0  0  0  0
    0.5310   -0.7730   -0.3020 C   0  0  0  0  0  0  0  0  0  0  0  0
    1.9860   -0.7030   -0.2230 C   0  0  0  0  0  0  0  0  0  0  0  0
    2.6450   -1.7570   -0.5740 O   0  0  0  0  0  0  0  0  0  0  0  0
    2.7520    0.3990    0.2050 N   0  0  0  0  0  0  0  0  0  0  0  0
    4.2300    0.3640    0.2370 C   0  0  1  0  0  0  0  0  0  0  0  0
    4.8210    1.3270   -0.7480 C   0  0  0  0  0  0  0  0  0  0  0  0
    5.5380    2.4820   -0.1360 C   0  0  0  0  0  0  0  0  0  0  0  0
    6.3780    2.0240    0.8480 O   0  0  0  0  0  0  0  0  0  0  0  0
    5.5740    1.6800    1.9340 C   0  0  0  0  0  0  0  0  0  0  0  0
    4.7370    0.4980    1.6270 C   0  0  2  0  0  0  0  0  0  0  0  0
    5.4850   -0.7450    2.1160 C   0  0  0  0  0  0  0  0  0  0  0  0
    6.6820   -1.0320    1.2360 C   0  0  0  0  0  0  0  0  0  0  0  0
   -2.0930   -3.3920    0.5050 C   0  0  0  0  0  0  0  0  0  0  0  0
   -3.0020   -2.9440    1.6200 C   0  0  0  0  0  0  0  0  0  0  0  0
   -4.0260   -2.0230    1.0940 C   0  0  1  0  0  0  0  0  0  0  0  0
   -4.4380   -1.0800    2.2010 C   0  0  0  0  0  0  0  0  0  0  0  0
   -5.9250   -0.7960    1.9470 C   0  0  0  0  0  0  0  0  0  0  0  0
   -6.0530   -0.7460    0.4460 C   0  0  0  0  0  0  0  0  0  0  0  0
   -4.7260   -0.2240   -0.1790 C   0  0  0  0  0  0  0  0  0  0  0  0
   -3.6900   -1.2750   -0.2060 C   0  0  1  0  0  0  0  0  0  0  0  0
   -2.3500    1.3010   -1.1690 C   0  0  0  0  0  0  0  0  0  0  0  0
  1  2  1  0
  3  2  1  1
  3  4  1  0
  3 32  1  0
  4  5  1  0
  5  6  1  0
  6  7  2  0
  6 12  1  0
  7  8  1  0
  7 32  1  0
  8  9  2  0
  8 31  1  0
  9 10  1  0
  9 24  1  0
 10 11  1  0
 10 12  2  0
 12 13  1  0
 13 14  2  0
 13 15  1  0
 16 15  1  1
 16 17  1  0
 16 21  1  0
 17 18  1  0
 18 19  1  0
 19 20  1  0
 20 21  1  0
 21 22  1  6
 22 23  1  0
 24 25  1  0
 26 25  1  1
 26 27  1  0
 26 31  1  0
 27 28  1  0
 28 29  1  0
 29 30  1  0
 31 30  1  1
M  END
