
     RDKit          3D

 27 28  0  0  0  0  0  0  0  0999 V2000
    2.2440   -0.4530    2.1570 N   0  0  0  0  0  0  0  0  0  0  0  0
    2.3770    0.0750    0.8610 C   0  0  0  0  0  0  0  0  0  0  0  0
    1.4470   -0.2110   -0.1000 C   0  0  0  0  0  0  0  0  0  0  0  0
    0.3210   -1.0630    0.1940 C   0  0  0  0  0  0  0  0  0  0  0  0
   -0.9340   -0.8590   -0.1160 C   0  0  0  0  0  0  0  0  0  0  0  0
   -1.4620    0.2370   -0.8060 N   0  0  0  0  0  0  0  0  0  0  0  0
   -1.1140    1.4130   -0.8860 N   0  0  0  0  0  0  0  0  0  0  0  0
   -1.8070    2.4210   -1.6740 C   0  0  2  0  0  0  0  0  0  0  0  0
   -1.1060    3.6230   -1.6710 O   0  0  0  0  0  0  0  0  0  0  0  0
   -3.1950    2.6880   -1.1470 C   0  0  0  0  0  0  0  0  0  0  0  0
   -3.1290    3.2130    0.2040 N   0  0  0  0  0  0  0  0  0  0  0  0
   -1.8650   -1.8240    0.2730 O   0  0  0  0  0  0  0  0  0  0  0  0
   -2.1220   -2.9960   -0.4520 C   0  0  2  0  0  0  0  0  0  0  0  0
   -2.5960   -2.6460   -1.8120 C   0  0  0  0  0  0  0  0  0  0  0  0
   -2.8840   -3.5050   -2.6190 O   0  0  0  0  0  0  0  0  0  0  0  0
   -3.1490   -3.8330    0.2900 C   0  0  0  0  0  0  0  0  0  0  0  0
   -2.7000   -4.2080    1.5930 N   0  0  0  0  0  0  0  0  0  0  0  0
   -3.8270   -5.1530    2.4920 S   0  0  0  0  0  0  0  0  0  0  0  0
   -3.1890   -5.6110    3.7990 O   0  0  0  0  0  0  0  0  0  0  0  0
    1.6100    0.3040   -1.3200 N   0  0  0  0  0  0  0  0  0  0  0  0
    2.6760    1.1040   -1.6190 C   0  0  0  0  0  0  0  0  0  0  0  0
    2.8220    1.5840   -2.7710 O   0  0  0  0  0  0  0  0  0  0  0  0
    3.6290    1.4000   -0.6360 C   0  0  0  0  0  0  0  0  0  0  0  0
    3.4920    0.8930    0.6040 C   0  0  0  0  0  0  0  0  0  0  0  0
    4.5790    1.3150    1.4930 C   0  0  0  0  0  0  0  0  0  0  0  0
    5.4620    2.1690    0.6410 C   0  0  0  0  0  0  0  0  0  0  0  0
    4.8440    2.2270   -0.7200 C   0  0  0  0  0  0  0  0  0  0  0  0
  1  2  1  0
  2  3  2  0
  2 24  1  0
  3  4  1  0
  3 20  1  0
  4  5  2  3
  5  6  1  0
  5 12  1  0
  6  7  2  3
  7  8  1  0
  8  9  1  1
  8 10  1  0
 10 11  1  0
 12 13  1  0
 13 14  1  0
 13 16  1  1
 14 15  2  0
 16 17  1  0
 17 18  1  0
 18 19  2  0
 20 21  1  0
 21 22  2  0
 21 23  1  0
 23 24  2  0
 23 27  1  0
 24 25  1  0
 25 26  1  0
 26 27  1  0
M  CHG  1  11   1
M  END
