
     RDKit          3D

  9  8  0  0  0  0  0  0  0  0999 V2000
   -0.4320   -1.9420    0.6420 O   0  0  0  0  0  0  0  0  0  0  0  0
   -0.9880   -1.2460   -0.4060 C   0  0  0  0  0  0  0  0  0  0  0  0
   -0.7500    0.2410   -0.3310 C   0  0  1  0  0  0  0  0  0  0  0  0
   -1.3560    0.7360    0.9510 C   0  0  0  0  0  0  0  0  0  0  0  0
   -1.1430    2.1030    1.0300 O   0  0  0  0  0  0  0  0  0  0  0  0
    0.6110    0.6870   -0.6270 C   0  0  2  0  0  0  0  0  0  0  0  0
    0.9380    0.2900   -1.9410 O   0  0  0  0  0  0  0  0  0  0  0  0
    1.7230    0.2880    0.2580 C   0  0  0  0  0  0  0  0  0  0  0  0
    1.9920   -1.0790    0.2670 O   0  0  0  0  0  0  0  0  0  0  0  0
  1  2  1  0
  3  2  1  1
  3  4  1  0
  3  6  1  0
  4  5  1  0
  6  7  1  6
  6  8  1  0
  8  9  1  0
M  END
