
     RDKit          3D

 27 28  0  0  0  0  0  0  0  0999 V2000
   -0.1860    1.9890    1.9290 C   0  0  0  0  0  0  0  0  0  0  0  0
   -0.8850    0.6870    1.9300 O   0  0  0  0  0  0  0  0  0  0  0  0
   -0.5570   -0.0180    0.7830 C   0  0  0  0  0  0  0  0  0  0  0  0
   -1.4960   -0.5460   -0.0220 C   0  0  0  0  0  0  0  0  0  0  0  0
   -0.8920   -1.2210   -1.1360 C   0  0  0  0  0  0  0  0  0  0  0  0
   -0.3410   -1.8650   -2.1990 N   0  0  0  0  0  0  0  0  0  0  0  0
   -2.8740   -0.5370    0.2690 C   0  0  2  0  0  0  0  0  0  0  0  0
   -3.5870   -1.8800    0.0340 N   0  0  0  0  0  0  0  0  0  0  0  0
   -3.8130    0.4430   -0.2900 C   0  0  2  0  0  0  0  0  0  0  0  0
   -3.2330    1.8730   -0.3510 C   0  0  0  0  0  0  0  0  0  0  0  0
   -4.9890    0.5460    0.6930 C   0  0  0  0  0  0  0  0  0  0  0  0
   -6.1690    0.5740   -0.2240 C   0  0  0  0  0  0  0  0  0  0  0  0
   -5.6240   -0.2010   -1.4190 C   0  0  0  0  0  0  0  0  0  0  0  0
   -4.2810    0.1950   -1.5230 O   0  0  0  0  0  0  0  0  0  0  0  0
    0.8600   -0.1520    0.5000 N   0  0  0  0  0  0  0  0  0  0  0  0
    1.4660   -1.3600    0.4340 C   0  0  0  0  0  0  0  0  0  0  0  0
    2.8140   -1.2200    0.1620 C   0  0  0  0  0  0  0  0  0  0  0  0
    3.8870   -2.1740    0.0380 C   0  0  0  0  0  0  0  0  0  0  0  0
    3.3490   -3.4900    0.2870 N   0  0  0  0  0  0  0  0  0  0  0  0
    2.9830    0.1770    0.0880 C   0  0  0  0  0  0  0  0  0  0  0  0
    4.2090    0.8220   -0.3430 C   0  0  0  0  0  0  0  0  0  0  0  0
    5.2800    0.6240    0.5740 O   0  0  0  0  0  0  0  0  0  0  0  0
    6.6200    1.3640   -0.2320 S   0  0  2  0  0  0  0  0  0  0  0  0
    6.0610    2.3900   -1.4880 N   0  0  0  0  0  0  0  0  0  0  0  0
    7.3830    0.2090   -0.8040 O   0  0  0  0  0  0  0  0  0  0  0  0
    7.4130    2.1370    0.7620 O   0  0  0  0  0  0  0  0  0  0  0  0
    1.7800    0.7380    0.2920 N   0  0  0  0  0  0  0  0  0  0  0  0
  1  2  1  0
  2  3  1  0
  3  4  2  3
  3 15  1  0
  4  5  1  0
  4  7  1  0
  5  6  3  0
  7  8  1  6
  7  9  1  0
  9 10  1  6
  9 11  1  0
  9 14  1  0
 11 12  1  0
 12 13  1  0
 13 14  1  0
 15 16  1  0
 15 27  1  0
 16 17  2  0
 17 18  1  0
 17 20  1  0
 18 19  1  0
 20 21  1  0
 20 27  2  0
 21 22  1  0
 22 23  1  0
 23 24  1  6
 23 25  2  0
 23 26  2  0
M  CHG  1  19   1
M  END
