
     RDKit          3D

 27 29  0  0  0  0  0  0  0  0999 V2000
   10.3280   -0.1250   -0.6510 N   0  0  0  0  0  0  0  0  0  0  0  0
    8.9480    0.2390   -0.7820 C   0  0  0  0  0  0  0  0  0  0  0  0
    8.4690    1.0020    0.0820 O   0  0  0  0  0  0  0  0  0  0  0  0
    8.1500   -0.2130   -1.8030 O   0  0  0  0  0  0  0  0  0  0  0  0
    6.7900    0.1210   -1.9660 C   0  0  0  0  0  0  0  0  0  0  0  0
    6.0180   -0.3400   -0.7600 C   0  0  0  0  0  0  0  0  0  0  0  0
    6.6610   -0.9060    0.1260 O   0  0  0  0  0  0  0  0  0  0  0  0
    4.6360   -0.1290   -0.6590 N   0  0  0  0  0  0  0  0  0  0  0  0
    3.8530   -0.5580    0.4880 C   0  0  0  0  0  0  0  0  0  0  0  0
    4.4510   -1.2300    1.6000 C   0  0  0  0  0  0  0  0  0  0  0  0
    3.0070   -1.4840    2.6500 S   0  0  0  0  0  0  0  0  0  0  0  0
    1.7920   -0.6650    1.4770 C   0  0  0  0  0  0  0  0  0  0  0  0
    0.4530   -0.6140    1.8780 N   0  0  0  0  0  0  0  0  0  0  0  0
   -0.4840   -0.0080    1.0260 C   0  0  0  0  0  0  0  0  0  0  0  0
   -0.0850    0.4710   -0.0790 O   0  0  0  0  0  0  0  0  0  0  0  0
   -1.8580    0.1060    1.3150 N   0  0  0  0  0  0  0  0  0  0  0  0
   -2.7610    0.7470    0.3810 C   0  0  2  0  0  0  0  0  0  0  0  0
   -3.5940    1.8030    1.1120 C   0  0  0  0  0  0  0  0  0  0  0  0
   -4.7700    1.3190    0.2530 C   0  0  1  0  0  0  0  0  0  0  0  0
   -4.7170    1.9490   -0.9710 O   0  0  0  0  0  0  0  0  0  0  0  0
   -5.4720    1.3310   -1.9500 C   0  0  0  0  0  0  0  0  0  0  0  0
   -5.2480   -0.1510   -2.0400 C   0  0  0  0  0  0  0  0  0  0  0  0
   -4.1310   -0.6450   -1.1730 C   0  0  0  0  0  0  0  0  0  0  0  0
   -4.0570   -0.0080    0.1690 C   0  0  1  0  0  0  0  0  0  0  0  0
   -4.3880   -0.9180    1.3280 C   0  0  0  0  0  0  0  0  0  0  0  0
   -5.6160   -1.6180    1.1010 N   0  0  0  0  0  0  0  0  0  0  0  0
    2.5750   -0.3710    0.5970 N   0  0  0  0  0  0  0  0  0  0  0  0
  1  2  1  0
  2  3  2  0
  2  4  1  0
  4  5  1  0
  5  6  1  0
  6  7  2  0
  6  8  1  0
  8  9  1  0
  9 10  2  0
  9 27  1  0
 10 11  1  0
 11 12  1  0
 12 13  1  0
 12 27  2  0
 13 14  1  0
 14 15  2  0
 14 16  1  0
 17 16  1  1
 17 18  1  0
 17 24  1  0
 19 18  1  1
 19 20  1  0
 19 24  1  0
 20 21  1  0
 21 22  1  0
 22 23  1  0
 23 24  1  0
 24 25  1  1
 25 26  1  0
M  CHG  1  26   1
M  END
