
     RDKit          3D

 17 18  0  0  0  0  0  0  0  0999 V2000
   -0.0180   -1.0040   -2.8150 C   0  0  0  0  0  0  0  0  0  0  0  0
   -0.8750   -1.1630   -1.8580 C   0  0  0  0  0  0  0  0  0  0  0  0
   -1.8870   -2.1730   -1.9180 N   0  0  0  0  0  0  0  0  0  0  0  0
   -0.8720   -0.3460   -0.5970 C   0  0  0  0  0  0  0  0  0  0  0  0
    0.3050   -0.0330   -0.0330 C   0  0  0  0  0  0  0  0  0  0  0  0
    1.6490   -0.3930   -0.3380 N   0  0  0  0  0  0  0  0  0  0  0  0
    2.6900    0.1550    0.4470 C   0  0  0  0  0  0  0  0  0  0  0  0
    2.4030    0.9370    1.3830 O   0  0  0  0  0  0  0  0  0  0  0  0
    4.1220   -0.1530    0.2170 C   0  0  0  0  0  0  0  0  0  0  0  0
    5.0060    0.5740    1.2060 C   0  0  0  0  0  0  0  0  0  0  0  0
    4.7090    0.2160    2.5180 O   0  0  0  0  0  0  0  0  0  0  0  0
   -0.1590    0.9840    1.3670 S   0  0  0  0  0  0  0  0  0  0  0  0
   -1.9360    0.8920    1.0620 C   0  0  0  0  0  0  0  0  0  0  0  0
   -2.0060    0.1390   -0.0170 C   0  0  0  0  0  0  0  0  0  0  0  0
   -3.5090    0.0260   -0.3300 C   0  0  0  0  0  0  0  0  0  0  0  0
   -4.2030    0.5040    0.9010 C   0  0  0  0  0  0  0  0  0  0  0  0
   -3.1990    1.3720    1.6240 C   0  0  0  0  0  0  0  0  0  0  0  0
  1  2  2  0
  2  3  1  0
  2  4  1  0
  4  5  2  0
  4 14  1  0
  5  6  1  0
  5 12  1  0
  6  7  1  0
  7  8  2  0
  7  9  1  0
  9 10  1  0
 10 11  1  0
 12 13  1  0
 13 14  2  0
 13 17  1  0
 14 15  1  0
 15 16  1  0
 16 17  1  0
M  END
