
     RDKit          3D

 17 18  0  0  0  0  0  0  0  0999 V2000
    5.7780    1.5180    0.3080 N   0  0  0  0  0  0  0  0  0  0  0  0
    4.5340    1.0150   -0.2040 C   0  0  0  0  0  0  0  0  0  0  0  0
    4.2560    1.1020   -1.4220 O   0  0  0  0  0  0  0  0  0  0  0  0
    3.6280    0.4170    0.7090 N   0  0  0  0  0  0  0  0  0  0  0  0
    2.3710   -0.1250    0.3810 C   0  0  0  0  0  0  0  0  0  0  0  0
    1.6130   -0.6550    1.4320 C   0  0  0  0  0  0  0  0  0  0  0  0
    0.3680   -1.2140    1.2360 C   0  0  0  0  0  0  0  0  0  0  0  0
   -0.1740   -1.2660   -0.0340 C   0  0  0  0  0  0  0  0  0  0  0  0
   -1.7810   -1.9760   -0.3580 S   0  0  0  0  0  0  0  0  0  0  0  0
   -3.0690   -0.7510   -0.2360 C   0  0  0  0  0  0  0  0  0  0  0  0
   -4.3500   -1.0090   -0.4280 C   0  0  0  0  0  0  0  0  0  0  0  0
   -5.1620    0.2120   -0.2560 C   0  0  0  0  0  0  0  0  0  0  0  0
   -4.1550    1.2440    0.0710 C   0  0  0  0  0  0  0  0  0  0  0  0
   -2.9780    0.6660    0.0750 C   0  0  0  0  0  0  0  0  0  0  0  0
    0.5430   -0.7550   -1.0910 C   0  0  0  0  0  0  0  0  0  0  0  0
    0.0330   -0.7890   -2.3820 O   0  0  0  0  0  0  0  0  0  0  0  0
    1.7980   -0.1990   -0.8470 C   0  0  0  0  0  0  0  0  0  0  0  0
  1  2  1  0
  2  3  2  0
  2  4  1  0
  4  5  1  0
  5  6  2  0
  5 17  1  0
  6  7  1  0
  7  8  2  0
  8  9  1  0
  8 15  1  0
  9 10  1  0
 10 11  2  0
 10 14  1  0
 11 12  1  0
 12 13  1  0
 13 14  2  0
 15 16  1  0
 15 17  2  0
M  END
