
     RDKit          3D

 17 18  0  0  0  0  0  0  0  0999 V2000
    0.5880    0.9660   -2.2310 N   0  0  0  0  0  0  0  0  0  0  0  0
   -0.3470    0.5700   -1.2390 C   0  0  0  0  0  0  0  0  0  0  0  0
   -1.6930    0.7610   -1.5020 C   0  0  0  0  0  0  0  0  0  0  0  0
   -2.5950    0.3670   -0.5210 C   0  0  0  0  0  0  0  0  0  0  0  0
   -4.0040    0.5260   -0.7060 N   0  0  0  0  0  0  0  0  0  0  0  0
   -2.1800   -0.1930    0.6700 C   0  0  0  0  0  0  0  0  0  0  0  0
   -3.3520   -0.6750    1.8750 S   0  0  1  0  0  0  0  0  0  0  0  0
   -3.5660   -2.1690    1.6880 O   0  0  0  0  0  0  0  0  0  0  0  0
   -2.8590   -0.4240    3.2600 O   0  0  0  0  0  0  0  0  0  0  0  0
   -0.8180   -0.3640    0.8840 C   0  0  0  0  0  0  0  0  0  0  0  0
    0.1160    0.0170   -0.0690 C   0  0  0  0  0  0  0  0  0  0  0  0
    1.5490   -0.1470    0.1280 C   0  0  0  0  0  0  0  0  0  0  0  0
    2.4110    0.8830   -0.1760 C   0  0  0  0  0  0  0  0  0  0  0  0
    3.7730    0.7690   -0.0060 C   0  0  0  0  0  0  0  0  0  0  0  0
    4.3250   -0.3920    0.4800 C   0  0  0  0  0  0  0  0  0  0  0  0
    3.4760   -1.4330    0.7890 C   0  0  0  0  0  0  0  0  0  0  0  0
    2.1110   -1.3100    0.6150 C   0  0  0  0  0  0  0  0  0  0  0  0
  1  2  1  0
  2  3  2  0
  2 11  1  0
  3  4  1  0
  4  5  1  0
  4  6  2  0
  7  6  1  6
  6 10  1  0
  7  8  2  0
  7  9  2  0
 10 11  2  0
 11 12  1  0
 12 13  2  0
 12 17  1  0
 13 14  1  0
 14 15  2  0
 15 16  1  0
 16 17  2  0
M  END
