
     RDKit          3D

 17 18  0  0  0  0  0  0  0  0999 V2000
    5.9450    0.6300   -1.3480 N   0  0  0  0  0  0  0  0  0  0  0  0
    4.3150    0.8260   -0.8460 S   0  0  2  0  0  0  0  0  0  0  0  0
    3.3990    0.7290   -2.0330 O   0  0  0  0  0  0  0  0  0  0  0  0
    4.1320    2.1540   -0.1680 O   0  0  0  0  0  0  0  0  0  0  0  0
    3.8230   -0.4350    0.3100 C   0  0  0  0  0  0  0  0  0  0  0  0
    2.3940   -0.1470    0.6620 C   0  0  0  0  0  0  0  0  0  0  0  0
    1.2880   -0.6370    0.0060 C   0  0  0  0  0  0  0  0  0  0  0  0
    0.1570   -0.1410    0.6340 C   0  0  0  0  0  0  0  0  0  0  0  0
   -1.2310   -0.3880    0.2900 C   0  0  0  0  0  0  0  0  0  0  0  0
   -2.1830    0.1730    1.0050 C   0  0  0  0  0  0  0  0  0  0  0  0
   -3.6700    0.0970    0.8810 C   0  0  0  0  0  0  0  0  0  0  0  0
   -4.1040    0.7830   -0.4080 C   0  0  0  0  0  0  0  0  0  0  0  0
   -3.3010    0.2970   -1.5910 C   0  0  0  0  0  0  0  0  0  0  0  0
   -2.8600   -1.1300   -1.4420 C   0  0  0  0  0  0  0  0  0  0  0  0
   -1.4800   -1.2870   -0.8870 C   0  0  0  0  0  0  0  0  0  0  0  0
    0.5840    0.6460    1.6680 C   0  0  0  0  0  0  0  0  0  0  0  0
    1.9530    0.6280    1.6660 N   0  0  0  0  0  0  0  0  0  0  0  0
  2  1  1  6
  2  3  2  0
  2  4  2  0
  2  5  1  0
  5  6  1  0
  6  7  2  0
  6 17  1  0
  7  8  1  0
  8  9  1  0
  8 16  2  0
  9 10  2  0
  9 15  1  0
 10 11  1  0
 11 12  1  0
 12 13  1  0
 13 14  1  0
 14 15  1  0
 16 17  1  0
M  END
