
     RDKit          3D

 17 18  0  0  0  0  0  0  0  0999 V2000
   -1.6380   -1.2760    1.3470 N   0  0  0  0  0  0  0  0  0  0  0  0
   -2.1480   -0.1450    0.6640 C   0  0  0  0  0  0  0  0  0  0  0  0
   -3.5030    0.1510    0.6770 C   0  0  0  0  0  0  0  0  0  0  0  0
   -3.9930    1.2450    0.0110 C   0  0  0  0  0  0  0  0  0  0  0  0
   -3.0890    2.0380   -0.6710 C   0  0  0  0  0  0  0  0  0  0  0  0
   -1.7450    1.7350   -0.6780 C   0  0  0  0  0  0  0  0  0  0  0  0
   -1.2380    0.6330   -0.0100 C   0  0  0  0  0  0  0  0  0  0  0  0
    0.1790    0.3070   -0.0060 C   0  0  0  0  0  0  0  0  0  0  0  0
    1.1170    1.1770    0.5670 C   0  0  0  0  0  0  0  0  0  0  0  0
    2.4620    0.8860    0.5530 C   0  0  0  0  0  0  0  0  0  0  0  0
    2.9050   -0.2780   -0.0320 C   0  0  0  0  0  0  0  0  0  0  0  0
    4.6050   -0.6560   -0.0660 S   0  0  2  0  0  0  0  0  0  0  0  0
    4.8530   -2.0110    0.5130 O   0  0  0  0  0  0  0  0  0  0  0  0
    5.3680    0.4230    0.6670 O   0  0  0  0  0  0  0  0  0  0  0  0
    2.0050   -1.1400   -0.5960 C   0  0  0  0  0  0  0  0  0  0  0  0
    0.6530   -0.8350   -0.5740 C   0  0  0  0  0  0  0  0  0  0  0  0
   -0.2350   -1.7640   -1.1610 N   0  0  0  0  0  0  0  0  0  0  0  0
  1  2  1  0
  2  3  2  0
  2  7  1  0
  3  4  1  0
  4  5  2  0
  5  6  1  0
  6  7  2  0
  7  8  1  0
  8  9  2  0
  8 16  1  0
  9 10  1  0
 10 11  2  0
 12 11  1  1
 11 15  1  0
 12 13  2  0
 12 14  2  0
 15 16  2  0
 16 17  1  0
M  END
