
     RDKit          3D

 17 18  0  0  0  0  0  0  0  0999 V2000
    2.4320    2.7700    0.9680 N   0  0  0  0  0  0  0  0  0  0  0  0
    2.7130    1.3940    0.6350 C   0  0  0  0  0  0  0  0  0  0  0  0
    3.8600    1.0870    0.1050 C   0  0  0  0  0  0  0  0  0  0  0  0
    4.2860   -0.2410   -0.2810 C   0  0  0  0  0  0  0  0  0  0  0  0
    4.6630   -0.3440   -2.0770 S   0  0  0  0  0  0  0  0  0  0  0  0
    1.6750    0.4030    0.9140 C   0  0  0  0  0  0  0  0  0  0  0  0
    0.5250    0.7770    0.1680 O   0  0  0  0  0  0  0  0  0  0  0  0
   -0.6480    0.0120    0.2300 C   0  0  0  0  0  0  0  0  0  0  0  0
   -0.7490   -1.1180    0.9980 C   0  0  0  0  0  0  0  0  0  0  0  0
   -1.9430   -1.8060    0.9960 C   0  0  0  0  0  0  0  0  0  0  0  0
   -3.0050   -1.3820    0.2500 C   0  0  0  0  0  0  0  0  0  0  0  0
   -4.2540   -1.8240    0.0490 N   0  0  0  0  0  0  0  0  0  0  0  0
   -4.9180   -1.0360   -0.7930 C   0  0  0  0  0  0  0  0  0  0  0  0
   -4.0720   -0.0120   -1.1760 C   0  0  0  0  0  0  0  0  0  0  0  0
   -4.3470    1.0340   -2.0410 O   0  0  0  0  0  0  0  0  0  0  0  0
   -2.8810   -0.2380   -0.5190 C   0  0  0  0  0  0  0  0  0  0  0  0
   -1.7070    0.4830   -0.5490 C   0  0  0  0  0  0  0  0  0  0  0  0
  1  2  1  0
  2  3  2  3
  2  6  1  0
  3  4  1  0
  4  5  1  0
  6  7  1  0
  7  8  1  0
  8  9  2  0
  8 17  1  0
  9 10  1  0
 10 11  2  0
 11 12  1  0
 11 16  1  0
 12 13  1  0
 13 14  2  0
 14 15  1  0
 14 16  1  0
 16 17  2  0
M  END
