
     RDKit          3D

 17 18  0  0  0  0  0  0  0  0999 V2000
   -0.7590   -2.3970   -1.2160 N   0  0  0  0  0  0  0  0  0  0  0  0
    0.1760   -1.4990   -0.6510 C   0  0  0  0  0  0  0  0  0  0  0  0
    1.4110   -1.8430   -0.6320 N   0  0  0  0  0  0  0  0  0  0  0  0
    2.4390   -1.0130   -0.0860 C   0  0  0  0  0  0  0  0  0  0  0  0
    3.1560   -1.3890    1.0280 C   0  0  0  0  0  0  0  0  0  0  0  0
    4.1440   -0.5730    1.5390 C   0  0  0  0  0  0  0  0  0  0  0  0
    4.4310    0.6320    0.9450 C   0  0  0  0  0  0  0  0  0  0  0  0
    5.4330    1.4780    1.4490 O   0  0  0  0  0  0  0  0  0  0  0  0
    3.7340    1.0410   -0.1710 C   0  0  0  0  0  0  0  0  0  0  0  0
    2.7510    0.2150   -0.6700 C   0  0  0  0  0  0  0  0  0  0  0  0
    2.0220    0.5870   -1.7940 O   0  0  0  0  0  0  0  0  0  0  0  0
   -0.2540    0.0850    0.0380 S   0  0  0  0  0  0  0  0  0  0  0  0
   -2.0230    0.2980   -0.1220 C   0  0  2  0  0  0  0  0  0  0  0  0
   -2.5120    1.6240    0.4350 C   0  0  0  0  0  0  0  0  0  0  0  0
   -4.0200    1.3970    0.3930 C   0  0  0  0  0  0  0  0  0  0  0  0
   -4.2080   -0.0730    0.6530 C   0  0  0  0  0  0  0  0  0  0  0  0
   -2.8090   -0.6740    0.7560 C   0  0  0  0  0  0  0  0  0  0  0  0
  1  2  1  0
  2  3  2  3
  2 12  1  0
  3  4  1  0
  4  5  2  0
  4 10  1  0
  5  6  1  0
  6  7  2  0
  7  8  1  0
  7  9  1  0
  9 10  2  0
 10 11  1  0
 13 12  1  1
 13 14  1  0
 13 17  1  0
 14 15  1  0
 15 16  1  0
 16 17  1  0
M  END
