
     RDKit          3D

 11 12  0  0  0  0  0  0  0  0999 V2000
    1.9550   -1.5490    0.1890 N   0  0  0  0  0  0  0  0  0  0  0  0
    0.7020   -0.9260    0.0210 C   0  0  0  0  0  0  0  0  0  0  0  0
   -0.4520   -1.6180   -0.1160 N   0  0  0  0  0  0  0  0  0  0  0  0
   -1.6500   -1.0270   -0.2760 C   0  0  0  0  0  0  0  0  0  0  0  0
   -3.1430   -2.0280   -0.4510 S   0  0  0  0  0  0  0  0  0  0  0  0
   -1.7420    0.3180   -0.3070 N   0  0  0  0  0  0  0  0  0  0  0  0
   -0.6460    1.0860   -0.1790 C   0  0  0  0  0  0  0  0  0  0  0  0
   -0.4240    2.4230   -0.1700 N   0  0  0  0  0  0  0  0  0  0  0  0
    0.8590    2.6450   -0.0110 N   0  0  0  0  0  0  0  0  0  0  0  0
    1.4980    1.4730    0.0870 C   0  0  0  0  0  0  0  0  0  0  0  0
    0.5720    0.4680   -0.0160 C   0  0  0  0  0  0  0  0  0  0  0  0
  1  2  1  0
  2  3  2  0
  2 11  1  0
  3  4  1  0
  4  5  1  0
  4  6  2  0
  6  7  1  0
  7  8  1  0
  7 11  2  0
  8  9  1  0
  9 10  2  0
 10 11  1  0
M  END
