
     RDKit          3D

 38 42  0  0  0  0  0  0  0  0999 V2000
   10.6180    0.9560    0.6450 C   0  0  0  0  0  0  0  0  0  0  0  0
   10.3970   -0.4180    0.3100 N   0  0  0  0  0  0  0  0  0  0  0  0
    9.4540   -0.5500   -0.7770 C   0  0  0  0  0  0  0  0  0  0  0  0
    8.1030   -0.2530   -0.2540 C   0  0  0  0  0  0  0  0  0  0  0  0
    7.5840    1.0210   -0.3130 C   0  0  0  0  0  0  0  0  0  0  0  0
    6.3020    1.2680    0.1880 C   0  0  0  0  0  0  0  0  0  0  0  0
    5.5450    0.2650    0.7390 C   0  0  0  0  0  0  0  0  0  0  0  0
    4.2850    0.5390    1.2230 O   0  0  0  0  0  0  0  0  0  0  0  0
    3.2010    0.4070    0.3870 C   0  0  0  0  0  0  0  0  0  0  0  0
    2.7830    1.4600   -0.3680 C   0  0  0  0  0  0  0  0  0  0  0  0
    1.6990    1.3150   -1.1980 C   0  0  0  0  0  0  0  0  0  0  0  0
    1.0080    0.1100   -1.2920 C   0  0  0  0  0  0  0  0  0  0  0  0
   -0.0630   -0.0280   -2.1210 O   0  0  0  0  0  0  0  0  0  0  0  0
   -1.3440   -0.1950   -1.6310 C   0  0  0  0  0  0  0  0  0  0  0  0
   -2.3710   -0.4200   -2.5190 N   0  0  0  0  0  0  0  0  0  0  0  0
   -3.5970   -0.5810   -2.1210 N   0  0  0  0  0  0  0  0  0  0  0  0
   -3.9800   -0.5440   -0.8270 C   0  0  0  0  0  0  0  0  0  0  0  0
   -5.3430   -0.7490   -0.4410 N   0  0  0  0  0  0  0  0  0  0  0  0
   -6.0660    0.2550   -0.1610 C   0  0  0  0  0  0  0  0  0  0  0  0
   -5.3750    1.5340   -0.2720 C   0  0  0  0  0  0  0  0  0  0  0  0
   -4.4110    1.5610   -1.0660 O   0  0  0  0  0  0  0  0  0  0  0  0
   -5.6600    2.7400    0.4040 O   0  0  0  0  0  0  0  0  0  0  0  0
   -6.8620    3.0030    1.0990 C   0  0  0  0  0  0  0  0  0  0  0  0
   -8.0040    2.5290    0.2300 C   0  0  0  0  0  0  0  0  0  0  0  0
   -8.4850    1.1680    0.5890 C   0  0  0  0  0  0  0  0  0  0  0  0
   -7.4780    0.1230    0.2200 C   0  0  0  0  0  0  0  0  0  0  0  0
   -7.9950   -1.0730    0.2640 C   0  0  0  0  0  0  0  0  0  0  0  0
   -7.2530   -2.2830   -0.0440 C   0  0  0  0  0  0  0  0  0  0  0  0
   -5.8260   -2.0890   -0.3480 C   0  0  2  0  0  0  0  0  0  0  0  0
   -4.9360   -2.9020    0.6120 C   0  0  0  0  0  0  0  0  0  0  0  0
   -2.9990   -0.3250    0.0590 N   0  0  0  0  0  0  0  0  0  0  0  0
   -1.7020   -0.1500   -0.3050 C   0  0  0  0  0  0  0  0  0  0  0  0
   -0.8410    0.0570    0.5830 O   0  0  0  0  0  0  0  0  0  0  0  0
    1.4330   -0.9530   -0.5300 C   0  0  0  0  0  0  0  0  0  0  0  0
    0.6060   -2.4850   -0.6960 Cl  0  0  0  0  0  0  0  0  0  0  0  0
    2.5400   -0.7960    0.3170 C   0  0  0  0  0  0  0  0  0  0  0  0
    6.0780   -1.0030    0.7900 C   0  0  0  0  0  0  0  0  0  0  0  0
    7.3550   -1.2680    0.2960 C   0  0  0  0  0  0  0  0  0  0  0  0
  1  2  1  0
  2  3  1  0
  3  4  1  0
  4  5  2  0
  4 38  1  0
  5  6  1  0
  6  7  2  0
  7  8  1  0
  7 37  1  0
  8  9  1  0
  9 10  2  0
  9 36  1  0
 10 11  1  0
 11 12  2  0
 12 13  1  0
 12 34  1  0
 13 14  1  0
 14 15  2  0
 14 32  1  0
 15 16  1  0
 16 17  2  0
 17 18  1  0
 17 31  1  0
 18 19  2  0
 18 29  1  0
 19 20  1  0
 19 26  1  0
 20 21  2  0
 20 22  1  0
 22 23  1  0
 23 24  1  0
 24 25  1  0
 25 26  1  0
 26 27  2  0
 27 28  1  0
 28 29  1  0
 29 30  1  1
 31 32  1  0
 32 33  2  0
 34 35  1  0
 34 36  2  0
 37 38  2  0
M  CHG  2   2   1  18   1
M  END
