
     RDKit          3D

 38 42  0  0  0  0  0  0  0  0999 V2000
    8.0030    2.7470    1.3760 C   0  0  0  0  0  0  0  0  0  0  0  0
    8.4650    1.6600    0.4770 C   0  0  0  0  0  0  0  0  0  0  0  0
    7.4200    0.7590   -0.0400 C   0  0  0  0  0  0  0  0  0  0  0  0
    6.0860    0.9210    0.2920 N   0  0  0  0  0  0  0  0  0  0  0  0
    5.1590    0.0780   -0.1910 C   0  0  0  0  0  0  0  0  0  0  0  0
    5.5800   -0.9400   -1.0170 C   0  0  0  0  0  0  0  0  0  0  0  0
    6.9000   -1.0740   -1.3300 C   0  0  0  0  0  0  0  0  0  0  0  0
    7.3000   -2.0050   -2.0890 O   0  0  0  0  0  0  0  0  0  0  0  0
    7.7650   -0.2150   -0.8240 O   0  0  0  0  0  0  0  0  0  0  0  0
    4.5390   -1.8520   -1.5720 C   0  0  0  0  0  0  0  0  0  0  0  0
    3.3320   -0.9720   -1.7280 C   0  0  0  0  0  0  0  0  0  0  0  0
    2.7970   -0.5570   -0.3880 N   0  0  2  0  0  0  0  0  0  0  0  0
    1.5200   -0.0500   -0.7090 C   0  0  0  0  0  0  0  0  0  0  0  0
    0.4030   -0.3150    0.2230 C   0  0  0  0  0  0  0  0  0  0  0  0
   -0.4040    0.5850    0.7810 N   0  0  0  0  0  0  0  0  0  0  0  0
   -1.4650   -0.0340    1.3650 C   0  0  0  0  0  0  0  0  0  0  0  0
   -2.6480    0.5580    2.0630 C   0  0  2  0  0  0  0  0  0  0  0  0
   -3.5050   -0.5720    2.5090 C   0  0  0  0  0  0  0  0  0  0  0  0
   -4.5070   -1.1000    1.5640 C   0  0  0  0  0  0  0  0  0  0  0  0
   -4.4780   -0.4430    0.1890 C   0  0  0  0  0  0  0  0  0  0  0  0
   -4.5100    0.9730    0.4370 N   0  0  0  0  0  0  0  0  0  0  0  0
   -5.5480    1.8130    0.0450 C   0  0  0  0  0  0  0  0  0  0  0  0
   -5.6590    3.0170    0.1870 O   0  0  0  0  0  0  0  0  0  0  0  0
   -6.7250    1.1710   -0.7090 C   0  0  0  0  0  0  0  0  0  0  0  0
   -6.9490   -0.0480   -0.9360 O   0  0  0  0  0  0  0  0  0  0  0  0
   -8.1030   -0.2590   -1.6400 C   0  0  0  0  0  0  0  0  0  0  0  0
   -8.6050    0.9730   -1.8470 C   0  0  0  0  0  0  0  0  0  0  0  0
   -7.7530    1.8860   -1.2690 C   0  0  0  0  0  0  0  0  0  0  0  0
   -7.9710    3.3650   -1.3180 C   0  0  0  0  0  0  0  0  0  0  0  0
   -3.2890    1.4740    1.0650 C   0  0  0  0  0  0  0  0  0  0  0  0
   -1.2890   -1.3450    1.1510 N   0  0  0  0  0  0  0  0  0  0  0  0
   -0.2090   -1.5740    0.4730 C   0  0  0  0  0  0  0  0  0  0  0  0
    0.4130   -2.7480   -0.1690 C   0  0  0  0  0  0  0  0  0  0  0  0
    1.0130   -3.5340   -0.7110 C   0  0  0  0  0  0  0  0  0  0  0  0
    0.7120   -5.0080   -0.8390 C   0  0  0  0  0  0  0  0  0  0  0  0
   -0.3900   -5.3440   -0.2230 O   0  0  0  0  0  0  0  0  0  0  0  0
    1.6160   -6.1670   -1.6460 Cl  0  0  0  0  0  0  0  0  0  0  0  0
    3.7420    0.3180    0.2020 C   0  0  0  0  0  0  0  0  0  0  0  0
  1  2  1  0
  2  3  1  0
  3  4  2  0
  3  9  1  0
  4  5  1  0
  5  6  2  0
  5 38  1  0
  6  7  1  0
  6 10  1  0
  7  8  2  0
  7  9  1  0
 10 11  1  0
 11 12  1  0
 12 13  1  6
 12 38  1  0
 13 14  1  0
 14 15  1  0
 14 32  2  0
 15 16  1  0
 17 16  1  6
 16 31  2  0
 17 18  1  0
 17 30  1  0
 18 19  1  0
 19 20  1  0
 20 21  1  0
 21 22  1  0
 21 30  1  0
 22 23  2  0
 22 24  1  0
 24 25  1  0
 24 28  2  0
 25 26  1  0
 26 27  2  0
 27 28  1  0
 28 29  1  0
 31 32  1  0
 32 33  1  0
 33 34  2  3
 34 35  1  0
 35 36  2  0
 35 37  1  0
M  CHG  2   4   1  12   1
M  END
