
     RDKit          3D

 38 42  0  0  0  0  0  0  0  0999 V2000
    8.4200    1.9200   -1.8180 C   0  0  0  0  0  0  0  0  0  0  0  0
    7.2070    1.3140   -1.4830 O   0  0  0  0  0  0  0  0  0  0  0  0
    7.1660    0.2540   -0.5840 C   0  0  0  0  0  0  0  0  0  0  0  0
    8.3210   -0.2130   -0.0120 C   0  0  0  0  0  0  0  0  0  0  0  0
    8.2900   -1.2620    0.8790 C   0  0  0  0  0  0  0  0  0  0  0  0
    7.0620   -1.8090    1.1610 C   0  0  0  0  0  0  0  0  0  0  0  0
    5.8760   -1.3230    0.5690 C   0  0  0  0  0  0  0  0  0  0  0  0
    5.9000   -0.2870   -0.3120 C   0  0  0  0  0  0  0  0  0  0  0  0
    4.7610    0.2550   -0.9440 N   0  0  0  0  0  0  0  0  0  0  0  0
    3.4220   -0.1490   -0.8040 C   0  0  0  0  0  0  0  0  0  0  0  0
    3.1470   -1.0940   -0.0440 O   0  0  0  0  0  0  0  0  0  0  0  0
    2.3080    0.5160   -1.5380 C   0  0  0  0  0  0  0  0  0  0  0  0
    1.0530   -0.0070   -1.3020 O   0  0  0  0  0  0  0  0  0  0  0  0
    0.3860   -0.0940   -0.0870 C   0  0  0  0  0  0  0  0  0  0  0  0
    0.9860    0.3400    0.9270 O   0  0  0  0  0  0  0  0  0  0  0  0
   -0.9490   -0.6610    0.0660 C   0  0  0  0  0  0  0  0  0  0  0  0
   -0.9750   -2.0560    0.2490 C   0  0  0  0  0  0  0  0  0  0  0  0
    0.2610   -2.8730    0.2580 C   0  0  0  0  0  0  0  0  0  0  0  0
    0.8140   -3.0420   -1.4180 Cl  0  0  0  0  0  0  0  0  0  0  0  0
   -2.1690   -2.6230    0.4190 N   0  0  0  0  0  0  0  0  0  0  0  0
   -3.3050   -1.9390    0.4220 C   0  0  0  0  0  0  0  0  0  0  0  0
   -4.5440   -2.6130    0.6060 N   0  0  0  0  0  0  0  0  0  0  0  0
   -5.8310   -1.9810    0.6260 C   0  0  0  0  0  0  0  0  0  0  0  0
   -6.8530   -3.0690    0.6470 C   0  0  0  0  0  0  0  0  0  0  0  0
   -6.1280   -4.3530    0.3920 C   0  0  0  0  0  0  0  0  0  0  0  0
   -4.7160   -4.0430    0.8050 C   0  0  0  0  0  0  0  0  0  0  0  0
   -3.2440   -0.6290    0.2480 N   0  0  0  0  0  0  0  0  0  0  0  0
   -2.0830    0.0990    0.0610 C   0  0  0  0  0  0  0  0  0  0  0  0
   -2.1970    1.5370   -0.0260 C   0  0  0  0  0  0  0  0  0  0  0  0
   -1.2010    2.3560   -0.4410 C   0  0  0  0  0  0  0  0  0  0  0  0
   -1.2970    3.7620   -0.4720 C   0  0  0  0  0  0  0  0  0  0  0  0
   -2.4520    4.3530   -0.0660 C   0  0  0  0  0  0  0  0  0  0  0  0
   -3.4830    3.5650    0.3610 C   0  0  0  0  0  0  0  0  0  0  0  0
   -3.3660    2.1680    0.3840 C   0  0  0  0  0  0  0  0  0  0  0  0
   -4.5850    4.4370    0.7350 C   0  0  0  0  0  0  0  0  0  0  0  0
   -5.6650    4.0650    1.2500 O   0  0  0  0  0  0  0  0  0  0  0  0
   -4.2110    5.8410    0.4010 C   0  0  0  0  0  0  0  0  0  0  0  0
   -2.8290    5.7390    0.0100 N   0  0  0  0  0  0  0  0  0  0  0  0
  1  2  1  0
  2  3  1  0
  3  4  2  0
  3  8  1  0
  4  5  1  0
  5  6  2  0
  6  7  1  0
  7  8  2  0
  8  9  1  0
  9 10  1  0
 10 11  2  0
 10 12  1  0
 12 13  1  0
 13 14  1  0
 14 15  2  0
 14 16  1  0
 16 17  2  0
 16 28  1  0
 17 18  1  0
 17 20  1  0
 18 19  1  0
 20 21  2  0
 21 22  1  0
 21 27  1  0
 22 23  1  0
 22 26  1  0
 23 24  1  0
 24 25  1  0
 25 26  1  0
 27 28  2  0
 28 29  1  0
 29 30  2  0
 29 34  1  0
 30 31  1  0
 31 32  2  0
 32 33  1  0
 32 38  1  0
 33 34  2  0
 33 35  1  0
 35 36  2  0
 35 37  1  0
 37 38  1  0
M  CHG  2  20   1  27   1
M  END
