
     RDKit          3D

 38 42  0  0  0  0  0  0  0  0999 V2000
   -5.1290    3.5420    0.5400 C   0  0  0  0  0  0  0  0  0  0  0  0
   -5.5670    2.2630   -0.0390 N   0  0  2  0  0  0  0  0  0  0  0  0
   -6.6930    2.5710   -0.8970 C   0  0  0  0  0  0  0  0  0  0  0  0
   -7.4300    1.3450   -1.3500 C   0  0  0  0  0  0  0  0  0  0  0  0
   -7.5770    0.2930   -0.3010 C   0  0  0  0  0  0  0  0  0  0  0  0
   -6.3020    0.0590    0.4960 C   0  0  1  0  0  0  0  0  0  0  0  0
   -5.2330   -0.5020   -0.3300 C   0  0  0  0  0  0  0  0  0  0  0  0
   -5.4300   -0.6130   -1.5760 O   0  0  0  0  0  0  0  0  0  0  0  0
   -4.0050   -0.9160    0.2170 N   0  0  0  0  0  0  0  0  0  0  0  0
   -3.6150   -0.8790    1.5930 C   0  0  0  0  0  0  0  0  0  0  0  0
   -2.7190   -2.0780    1.7520 C   0  0  0  0  0  0  0  0  0  0  0  0
   -2.2860   -2.4410    0.4400 N   0  0  2  0  0  0  0  0  0  0  0  0
   -0.8670   -2.5930    0.3670 C   0  0  0  0  0  0  0  0  0  0  0  0
   -0.3790   -2.6960   -1.0520 C   0  0  0  0  0  0  0  0  0  0  0  0
    1.0170   -2.8480   -1.1570 O   0  0  0  0  0  0  0  0  0  0  0  0
    1.7210   -3.9090   -0.6230 C   0  0  0  0  0  0  0  0  0  0  0  0
    1.1090   -4.8060   -0.0040 O   0  0  0  0  0  0  0  0  0  0  0  0
    3.1930   -4.0080   -0.7680 C   0  0  0  0  0  0  0  0  0  0  0  0
    3.6700   -2.8690   -1.5060 N   0  0  0  0  0  0  0  0  0  0  0  0
    3.8080   -2.7750   -2.8090 N   0  0  0  0  0  0  0  0  0  0  0  0
    4.2810   -1.5530   -3.1030 C   0  0  0  0  0  0  0  0  0  0  0  0
    4.4380   -0.8720   -1.9230 C   0  0  0  0  0  0  0  0  0  0  0  0
    4.8870    0.4180   -1.6190 C   0  0  0  0  0  0  0  0  0  0  0  0
    4.9470    0.8620   -0.3220 C   0  0  0  0  0  0  0  0  0  0  0  0
    5.3840    2.1290    0.0220 O   0  0  0  0  0  0  0  0  0  0  0  0
    6.6940    2.4520    0.3080 C   0  0  0  0  0  0  0  0  0  0  0  0
    7.6690    1.4840    0.2600 C   0  0  0  0  0  0  0  0  0  0  0  0
    8.9740    1.7760    0.5380 C   0  0  0  0  0  0  0  0  0  0  0  0
    9.3520    3.0760    0.8830 C   0  0  0  0  0  0  0  0  0  0  0  0
   10.6780    3.3710    1.1660 O   0  0  0  0  0  0  0  0  0  0  0  0
    8.3790    4.0290    0.9290 C   0  0  0  0  0  0  0  0  0  0  0  0
    8.8120    5.6710    1.3560 Cl  0  0  0  0  0  0  0  0  0  0  0  0
    7.0470    3.7270    0.6430 C   0  0  0  0  0  0  0  0  0  0  0  0
    4.5520    0.0060    0.6850 C   0  0  0  0  0  0  0  0  0  0  0  0
    4.1040   -1.2760    0.3930 C   0  0  0  0  0  0  0  0  0  0  0  0
    4.0460   -1.7180   -0.9170 C   0  0  0  0  0  0  0  0  0  0  0  0
   -2.8420   -1.4800   -0.4860 C   0  0  0  0  0  0  0  0  0  0  0  0
   -5.9260    1.4190    1.0630 C   0  0  0  0  0  0  0  0  0  0  0  0
  2  1  1  1
  2  3  1  0
  2 38  1  0
  3  4  1  0
  4  5  1  0
  5  6  1  0
  6  7  1  6
  6 38  1  0
  7  8  2  0
  7  9  1  0
  9 10  1  0
  9 37  1  0
 10 11  1  0
 11 12  1  0
 12 13  1  1
 12 37  1  0
 13 14  1  0
 14 15  1  0
 15 16  1  0
 16 17  2  0
 16 18  1  0
 18 19  1  0
 19 20  1  0
 19 36  1  0
 20 21  2  0
 21 22  1  0
 22 23  2  0
 22 36  1  0
 23 24  1  0
 24 25  1  0
 24 34  2  0
 25 26  1  0
 26 27  2  0
 26 33  1  0
 27 28  1  0
 28 29  2  0
 29 30  1  0
 29 31  1  0
 31 32  1  0
 31 33  2  0
 34 35  1  0
 35 36  2  0
M  CHG  2   2   1  12   1
M  END
