
     RDKit          3D

 38 42  0  0  0  0  0  0  0  0999 V2000
    6.9850   -2.4060   -2.2340 C   0  0  0  0  0  0  0  0  0  0  0  0
    7.1380   -1.0230   -2.1880 O   0  0  0  0  0  0  0  0  0  0  0  0
    8.1150   -0.6920   -1.2460 C   0  0  0  0  0  0  0  0  0  0  0  0
    8.3200    0.7730   -1.1520 C   0  0  0  0  0  0  0  0  0  0  0  0
    9.6100    1.2690   -1.3670 C   0  0  0  0  0  0  0  0  0  0  0  0
    9.8480    2.6040   -1.2920 C   0  0  0  0  0  0  0  0  0  0  0  0
    8.7960    3.4420   -1.0020 C   0  0  0  0  0  0  0  0  0  0  0  0
    8.9910    5.1790   -0.8800 Cl  0  0  0  0  0  0  0  0  0  0  0  0
    7.5490    2.8940   -0.8000 C   0  0  0  0  0  0  0  0  0  0  0  0
    7.2850    1.5700   -0.8690 N   0  0  0  0  0  0  0  0  0  0  0  0
    5.9820    1.0580   -0.6580 C   0  0  0  0  0  0  0  0  0  0  0  0
    4.8810    1.8080   -1.0230 C   0  0  0  0  0  0  0  0  0  0  0  0
    3.5800    1.3790   -0.8460 C   0  0  0  0  0  0  0  0  0  0  0  0
    3.3670    0.1420   -0.2770 C   0  0  0  0  0  0  0  0  0  0  0  0
    2.0300   -0.4190   -0.0340 C   0  0  0  0  0  0  0  0  0  0  0  0
    1.9950   -1.5630    0.4700 O   0  0  0  0  0  0  0  0  0  0  0  0
    0.8270    0.2360   -0.3260 N   0  0  0  0  0  0  0  0  0  0  0  0
   -0.4850   -0.2040   -0.1410 C   0  0  0  0  0  0  0  0  0  0  0  0
   -0.8190   -1.4950    0.1540 C   0  0  0  0  0  0  0  0  0  0  0  0
   -2.1530   -1.9090    0.3560 C   0  0  0  0  0  0  0  0  0  0  0  0
   -3.1630   -0.9660    0.2510 C   0  0  0  0  0  0  0  0  0  0  0  0
   -4.4830   -1.2840    0.4330 O   0  0  0  0  0  0  0  0  0  0  0  0
   -5.0550   -2.5080    0.7370 C   0  0  1  0  0  0  0  0  0  0  0  0
   -5.8040   -2.4860    2.0640 C   0  0  0  0  0  0  0  0  0  0  0  0
   -6.6660   -3.7230    1.9080 C   0  0  0  0  0  0  0  0  0  0  0  0
   -6.9200   -3.8700    0.5060 N   0  0  0  0  0  0  0  0  0  0  0  0
   -6.1470   -2.9170   -0.2260 C   0  0  0  0  0  0  0  0  0  0  0  0
   -2.8260    0.3350   -0.0460 C   0  0  0  0  0  0  0  0  0  0  0  0
   -3.9400    1.3030   -0.1420 C   0  0  0  0  0  0  0  0  0  0  0  0
   -3.6610    2.4940   -0.4100 O   0  0  0  0  0  0  0  0  0  0  0  0
   -5.2300    0.9770    0.0410 O   0  0  0  0  0  0  0  0  0  0  0  0
   -6.4350    1.5970    0.0390 C   0  0  0  0  0  0  0  0  0  0  0  0
   -6.8300    2.5810    1.0580 C   0  0  2  0  0  0  0  0  0  0  0  0
   -6.0820    3.8640    1.2480 C   0  0  0  0  0  0  0  0  0  0  0  0
   -6.0270    2.7890    2.2960 C   0  0  0  0  0  0  0  0  0  0  0  0
   -1.5320    0.7400   -0.2440 C   0  0  0  0  0  0  0  0  0  0  0  0
    4.4640   -0.5600    0.0650 N   0  0  0  0  0  0  0  0  0  0  0  0
    5.7010   -0.1370   -0.1100 N   0  0  0  0  0  0  0  0  0  0  0  0
  1  2  1  0
  2  3  1  0
  3  4  1  0
  4  5  2  0
  4 10  1  0
  5  6  1  0
  6  7  2  0
  7  8  1  0
  7  9  1  0
  9 10  2  0
 10 11  1  0
 11 12  2  0
 11 38  1  0
 12 13  1  0
 13 14  2  0
 14 15  1  0
 14 37  1  0
 15 16  2  0
 15 17  1  0
 17 18  1  0
 18 19  2  0
 18 36  1  0
 19 20  1  0
 20 21  2  0
 21 22  1  0
 21 28  1  0
 23 22  1  6
 23 24  1  0
 23 27  1  0
 24 25  1  0
 25 26  1  0
 26 27  1  0
 28 29  1  0
 28 36  2  0
 29 30  2  0
 29 31  1  0
 31 32  1  0
 33 32  1  6
 33 34  1  0
 33 35  1  0
 34 35  1  0
 37 38  2  0
M  CHG  2  10   1  26   1
M  END
