
     RDKit          3D

 38 42  0  0  0  0  0  0  0  0999 V2000
    6.6690   -2.5110   -1.6230 C   0  0  0  0  0  0  0  0  0  0  0  0
    6.8790   -2.6940   -0.3190 O   0  0  0  0  0  0  0  0  0  0  0  0
    6.4760   -1.8850    0.6600 C   0  0  2  0  0  0  0  0  0  0  0  0
    7.3130   -1.6370    1.8320 C   0  0  0  0  0  0  0  0  0  0  0  0
    5.0400   -2.3240    1.1690 C   0  0  0  0  0  0  0  0  0  0  0  0
    4.1170   -1.9180    0.1910 O   0  0  0  0  0  0  0  0  0  0  0  0
    3.9350   -0.5250    0.0580 C   0  0  0  0  0  0  0  0  0  0  0  0
    4.5470    0.2500    0.8200 O   0  0  0  0  0  0  0  0  0  0  0  0
    3.0540    0.0370   -0.9520 C   0  0  0  0  0  0  0  0  0  0  0  0
    1.8270    0.6680   -0.5210 N   0  0  0  0  0  0  0  0  0  0  0  0
    0.8120   -0.1240   -0.2430 C   0  0  0  0  0  0  0  0  0  0  0  0
    1.0360   -1.3770   -0.2330 O   0  0  0  0  0  0  0  0  0  0  0  0
   -0.5080    0.3430    0.0430 C   0  0  0  0  0  0  0  0  0  0  0  0
   -1.4090   -0.6990    0.4470 C   0  0  0  0  0  0  0  0  0  0  0  0
   -2.5850   -1.1060   -0.2240 N   0  0  2  0  0  0  0  0  0  0  0  0
   -3.7070   -0.4330   -0.6100 C   0  0  0  0  0  0  0  0  0  0  0  0
   -4.4300   -1.3240   -1.6590 C   0  0  0  0  0  0  0  0  0  0  0  0
   -4.9350   -2.4610   -1.0100 N   0  0  0  0  0  0  0  0  0  0  0  0
   -6.2520   -2.2430   -0.5130 C   0  0  0  0  0  0  0  0  0  0  0  0
   -6.4150   -3.1700    0.5920 N   0  0  0  0  0  0  0  0  0  0  0  0
   -5.0960   -3.1800    1.1840 C   0  0  0  0  0  0  0  0  0  0  0  0
   -4.1330   -3.0510   -0.0170 C   0  0  1  0  0  0  0  0  0  0  0  0
   -3.8470   -4.5080   -0.4210 C   0  0  0  0  0  0  0  0  0  0  0  0
   -2.9040   -2.4310    0.3900 C   0  0  0  0  0  0  0  0  0  0  0  0
   -0.6180    1.6940    0.0070 C   0  0  0  0  0  0  0  0  0  0  0  0
   -1.8310    2.2200    0.3020 C   0  0  0  0  0  0  0  0  0  0  0  0
   -2.0690    3.5530    0.3220 C   0  0  0  0  0  0  0  0  0  0  0  0
   -1.0200    4.4050    0.0320 C   0  0  0  0  0  0  0  0  0  0  0  0
   -1.2250    5.7540    0.0570 C   0  0  0  0  0  0  0  0  0  0  0  0
   -0.1650    6.5860   -0.2230 C   0  0  0  0  0  0  0  0  0  0  0  0
   -0.4090    8.3310   -0.1970 Cl  0  0  0  0  0  0  0  0  0  0  0  0
    1.0660    6.0890   -0.5180 C   0  0  0  0  0  0  0  0  0  0  0  0
    2.1820    7.0410   -0.8130 C   0  0  0  0  0  0  0  0  0  0  0  0
    1.2910    4.7020   -0.5490 C   0  0  0  0  0  0  0  0  0  0  0  0
    0.2420    3.8580   -0.2670 C   0  0  0  0  0  0  0  0  0  0  0  0
    0.4400    2.5100   -0.2780 N   0  0  0  0  0  0  0  0  0  0  0  0
    1.6440    2.0170   -0.5390 C   0  0  0  0  0  0  0  0  0  0  0  0
    2.6680    2.6570   -0.8030 O   0  0  0  0  0  0  0  0  0  0  0  0
  1  2  1  0
  2  3  1  0
  3  4  1  1
  3  5  1  0
  5  6  1  0
  6  7  1  0
  7  8  2  0
  7  9  1  0
  9 10  1  0
 10 11  1  0
 10 37  1  0
 11 12  2  0
 11 13  1  0
 13 14  1  0
 13 25  2  0
 15 14  1  1
 15 16  1  0
 15 24  1  0
 16 17  1  0
 17 18  1  0
 18 19  1  0
 18 22  1  0
 19 20  1  0
 20 21  1  0
 21 22  1  0
 22 23  1  6
 22 24  1  0
 25 26  1  0
 25 36  1  0
 26 27  2  0
 27 28  1  0
 28 29  2  0
 28 35  1  0
 29 30  1  0
 30 31  1  0
 30 32  2  0
 32 33  1  0
 32 34  1  0
 34 35  2  0
 35 36  1  0
 36 37  1  0
 37 38  2  0
M  CHG  2  15   1  20   1
M  END
