
     RDKit          3D

 37 42  0  0  0  0  0  0  0  0999 V2000
    8.6930    2.7530    1.3130 C   0  0  0  0  0  0  0  0  0  0  0  0
    8.3770    1.5050    1.9740 N   0  0  0  0  0  0  0  0  0  0  0  0
    7.7410    0.6220    1.0080 C   0  0  0  0  0  0  0  0  0  0  0  0
    6.5460   -0.0050    1.6960 C   0  0  0  0  0  0  0  0  0  0  0  0
    5.8880   -0.9080    0.7190 C   0  0  0  0  0  0  0  0  0  0  0  0
    6.2710   -2.2300    0.6370 C   0  0  0  0  0  0  0  0  0  0  0  0
    5.6600   -3.0820   -0.2740 C   0  0  0  0  0  0  0  0  0  0  0  0
    4.6650   -2.5760   -1.0920 C   0  0  0  0  0  0  0  0  0  0  0  0
    4.2860   -1.2540   -1.0060 C   0  0  0  0  0  0  0  0  0  0  0  0
    3.2950   -0.7070   -1.8050 O   0  0  0  0  0  0  0  0  0  0  0  0
    1.9600   -0.7310   -1.3580 C   0  0  0  0  0  0  0  0  0  0  0  0
    1.6640   -1.2990   -0.1380 C   0  0  0  0  0  0  0  0  0  0  0  0
    0.3750   -1.3470    0.3440 C   0  0  0  0  0  0  0  0  0  0  0  0
   -0.6600   -0.8180   -0.4000 C   0  0  0  0  0  0  0  0  0  0  0  0
   -0.3700   -0.2380   -1.6410 C   0  0  0  0  0  0  0  0  0  0  0  0
    0.9410   -0.2020   -2.1050 C   0  0  0  0  0  0  0  0  0  0  0  0
    1.1900    0.3800   -3.3380 O   0  0  0  0  0  0  0  0  0  0  0  0
    1.1400   -0.4580   -4.4770 C   0  0  0  0  0  0  0  0  0  0  0  0
   -0.1370   -1.0340   -4.6000 O   0  0  0  0  0  0  0  0  0  0  0  0
   -1.4000    0.3030   -2.4070 O   0  0  0  0  0  0  0  0  0  0  0  0
   -2.7370    0.2720   -1.9470 C   0  0  0  0  0  0  0  0  0  0  0  0
   -3.8870    0.6790   -2.3920 N   0  0  0  0  0  0  0  0  0  0  0  0
   -4.9130    0.3740   -1.4550 N   0  0  0  0  0  0  0  0  0  0  0  0
   -6.2520    0.8670   -1.8950 C   0  0  0  0  0  0  0  0  0  0  0  0
   -7.2690    0.6300   -0.8320 C   0  0  0  0  0  0  0  0  0  0  0  0
   -7.1040    1.4940    0.3180 N   0  0  1  0  0  0  0  0  0  0  0  0
   -8.2310    2.3390    0.5700 C   0  0  0  0  0  0  0  0  0  0  0  0
   -6.8760    0.6320    1.4640 C   0  0  0  0  0  0  0  0  0  0  0  0
   -5.4090    0.7600    1.8260 C   0  0  0  0  0  0  0  0  0  0  0  0
   -4.5500    0.0200    0.9830 N   0  0  0  0  0  0  0  0  0  0  0  0
   -3.5710   -0.5450    1.9000 C   0  0  0  0  0  0  0  0  0  0  0  0
   -3.6550   -0.3310    3.1290 O   0  0  0  0  0  0  0  0  0  0  0  0
   -2.4240   -1.4030    1.4370 C   0  0  0  0  0  0  0  0  0  0  0  0
   -2.0250   -0.8700    0.0980 C   0  0  0  0  0  0  0  0  0  0  0  0
   -2.9170   -0.3460   -0.6860 C   0  0  0  0  0  0  0  0  0  0  0  0
   -4.3650   -0.3130   -0.3710 C   0  0  2  0  0  0  0  0  0  0  0  0
    4.8980   -0.3970   -0.0920 C   0  0  0  0  0  0  0  0  0  0  0  0
  1  2  1  0
  2  3  1  0
  3  4  1  0
  4  5  1  0
  5  6  2  0
  5 37  1  0
  6  7  1  0
  7  8  2  0
  8  9  1  0
  9 10  1  0
  9 37  2  0
 10 11  1  0
 11 12  2  0
 11 16  1  0
 12 13  1  0
 13 14  2  0
 14 15  1  0
 14 34  1  0
 15 16  2  0
 15 20  1  0
 16 17  1  0
 17 18  1  0
 18 19  1  0
 20 21  1  0
 21 22  2  0
 21 35  1  0
 22 23  1  0
 23 24  1  0
 36 23  1  6
 24 25  1  0
 25 26  1  0
 26 27  1  1
 26 28  1  0
 28 29  1  0
 29 30  1  0
 30 31  1  0
 30 36  1  0
 31 32  2  0
 31 33  1  0
 33 34  1  0
 34 35  2  0
 35 36  1  0
M  CHG  2   2   1  26   1
M  END
