
     RDKit          3D

 25 27  0  0  0  0  0  0  0  0999 V2000
    2.4410    2.8900    0.5700 C   0  0  0  0  0  0  0  0  0  0  0  0
    2.4690    1.5200    1.2310 C   0  0  1  0  0  0  0  0  0  0  0  0
    1.1110    1.1010    1.3990 N   0  0  0  0  0  0  0  0  0  0  0  0
    0.8260   -0.0350    0.6290 C   0  0  0  0  0  0  0  0  0  0  0  0
   -0.4130   -0.7490    0.5100 N   0  0  0  0  0  0  0  0  0  0  0  0
   -1.5930   -0.1270    0.0400 C   0  0  0  0  0  0  0  0  0  0  0  0
   -1.5490    1.0810   -0.2800 O   0  0  0  0  0  0  0  0  0  0  0  0
   -2.8390   -0.8780   -0.0710 C   0  0  0  0  0  0  0  0  0  0  0  0
   -3.9310    0.0210   -0.5790 C   0  0  0  0  0  0  0  0  0  0  0  0
   -5.2600   -0.6510   -0.7330 C   0  0  1  0  0  0  0  0  0  0  0  0
   -5.7920   -1.2130    0.5560 C   0  0  0  0  0  0  0  0  0  0  0  0
   -7.2780   -1.3340    0.2600 C   0  0  0  0  0  0  0  0  0  0  0  0
   -7.5880   -0.2140   -0.7160 C   0  0  0  0  0  0  0  0  0  0  0  0
   -6.2800    0.4350   -1.0500 C   0  0  0  0  0  0  0  0  0  0  0  0
    1.9340   -0.3840   -0.0220 C   0  0  0  0  0  0  0  0  0  0  0  0
    3.0250    0.5090    0.2810 C   0  0  0  0  0  0  0  0  0  0  0  0
    4.2900    0.4720   -0.1160 C   0  0  0  0  0  0  0  0  0  0  0  0
    5.3060    1.4370    0.3520 C   0  0  0  0  0  0  0  0  0  0  0  0
    6.5930    0.7600    0.6670 C   0  0  0  0  0  0  0  0  0  0  0  0
    6.6060   -0.6730    0.4040 C   0  0  0  0  0  0  0  0  0  0  0  0
    7.1570   -1.5250    1.1620 O   0  0  0  0  0  0  0  0  0  0  0  0
    5.9610   -1.1770   -0.7830 N   0  0  0  0  0  0  0  0  0  0  0  0
    4.6870   -0.5500   -1.0740 C   0  0  0  0  0  0  0  0  0  0  0  0
    4.0100   -0.8640   -2.1300 C   0  0  0  0  0  0  0  0  0  0  0  0
    4.4630   -1.8900   -3.0320 N   0  0  0  0  0  0  0  0  0  0  0  0
  2  1  1  6
  2  3  1  0
  2 16  1  0
  3  4  1  0
  4  5  1  0
  4 15  2  0
  5  6  1  0
  6  7  2  0
  6  8  1  0
  8  9  1  0
 10  9  1  1
 10 11  1  0
 10 14  1  0
 11 12  1  0
 12 13  1  0
 13 14  1  0
 15 16  1  0
 16 17  2  3
 17 18  1  0
 17 23  1  0
 18 19  1  0
 19 20  1  0
 20 21  2  0
 20 22  1  0
 22 23  1  0
 23 24  2  3
 24 25  1  0
M  END
