
     RDKit          3D

 25 27  0  0  0  0  0  0  0  0999 V2000
   -6.2840    0.1260    1.3760 C   0  0  0  0  0  0  0  0  0  0  0  0
   -5.5730    0.9610    0.3690 C   0  0  0  0  0  0  0  0  0  0  0  0
   -4.2260    0.4060   -0.0480 C   0  0  1  0  0  0  0  0  0  0  0  0
   -4.4720   -0.9640   -0.6470 C   0  0  0  0  0  0  0  0  0  0  0  0
   -5.0730   -1.8910    0.2240 N   0  0  0  0  0  0  0  0  0  0  0  0
   -3.7780    1.2930   -1.2190 C   0  0  0  0  0  0  0  0  0  0  0  0
   -3.1030    2.4860   -0.5630 C   0  0  0  0  0  0  0  0  0  0  0  0
   -1.7410    1.9880   -0.1570 C   0  0  0  0  0  0  0  0  0  0  0  0
   -1.8730    0.8620    0.7890 C   0  0  2  0  0  0  0  0  0  0  0  0
   -1.2860    1.2570    2.0180 O   0  0  0  0  0  0  0  0  0  0  0  0
   -0.9720   -0.2580    0.2940 C   0  0  0  0  0  0  0  0  0  0  0  0
    0.4270    0.2770    0.2690 C   0  0  0  0  0  0  0  0  0  0  0  0
    0.6600    1.4520    0.6120 O   0  0  0  0  0  0  0  0  0  0  0  0
    1.4560   -0.5880   -0.1500 N   0  0  0  0  0  0  0  0  0  0  0  0
    2.8190   -0.2700   -0.2440 C   0  0  0  0  0  0  0  0  0  0  0  0
    3.3530    0.9860   -0.1300 C   0  0  0  0  0  0  0  0  0  0  0  0
    4.7260    1.2080   -0.2220 C   0  0  0  0  0  0  0  0  0  0  0  0
    5.5720    0.1600   -0.4320 C   0  0  0  0  0  0  0  0  0  0  0  0
    5.0670   -1.1250   -0.5520 C   0  0  0  0  0  0  0  0  0  0  0  0
    3.7170   -1.3210   -0.4580 C   0  0  0  0  0  0  0  0  0  0  0  0
    5.9650   -2.2850   -0.7760 C   0  0  0  0  0  0  0  0  0  0  0  0
    7.2400   -2.0030   -0.1300 N   0  0  0  0  0  0  0  0  0  0  0  0
    7.8160   -0.8400   -0.7870 C   0  0  0  0  0  0  0  0  0  0  0  0
    6.9820    0.3090   -0.5390 N   0  0  0  0  0  0  0  0  0  0  0  0
   -3.2400    0.3300    1.0370 C   0  0  0  0  0  0  0  0  0  0  0  0
  1  2  1  0
  3  2  1  1
  3  4  1  0
  3  6  1  0
  3 25  1  0
  4  5  1  0
  6  7  1  0
  7  8  1  0
  8  9  1  0
  9 10  1  1
  9 11  1  0
  9 25  1  0
 11 12  1  0
 12 13  2  0
 12 14  1  0
 14 15  1  0
 15 16  2  0
 15 20  1  0
 16 17  1  0
 17 18  2  0
 18 19  1  0
 18 24  1  0
 19 20  2  0
 19 21  1  0
 21 22  1  0
 22 23  1  0
 23 24  1  0
M  CHG  1  22   1
M  END
