
     RDKit          3D

 25 27  0  0  0  0  0  0  0  0999 V2000
   -5.2860   -0.5250   -2.1750 C   0  0  0  0  0  0  0  0  0  0  0  0
   -3.8330   -0.5740   -1.8220 C   0  0  0  0  0  0  0  0  0  0  0  0
   -3.3710    0.4310   -0.8240 C   0  0  2  0  0  0  0  0  0  0  0  0
   -1.8880    0.2680   -0.5750 C   0  0  0  0  0  0  0  0  0  0  0  0
   -1.1530    1.2360   -0.8150 O   0  0  0  0  0  0  0  0  0  0  0  0
   -1.3530   -0.9280   -0.0910 N   0  0  0  0  0  0  0  0  0  0  0  0
   -0.0140   -1.2460    0.1930 C   0  0  0  0  0  0  0  0  0  0  0  0
    0.3140   -2.5070    0.6730 C   0  0  0  0  0  0  0  0  0  0  0  0
    1.6030   -2.8700    0.9670 C   0  0  0  0  0  0  0  0  0  0  0  0
    2.6350   -1.9790    0.7920 C   0  0  0  0  0  0  0  0  0  0  0  0
    3.9100   -2.3450    1.0840 C   0  0  0  0  0  0  0  0  0  0  0  0
    4.1450   -3.5070    1.5170 O   0  0  0  0  0  0  0  0  0  0  0  0
    4.9190   -1.4950    0.9200 N   0  0  0  0  0  0  0  0  0  0  0  0
    4.6960   -0.2640    0.4640 C   0  0  0  0  0  0  0  0  0  0  0  0
    5.7920    0.5650    0.3190 C   0  0  0  0  0  0  0  0  0  0  0  0
    5.5870    1.8390   -0.1500 C   0  0  0  0  0  0  0  0  0  0  0  0
    6.6910    2.7310   -0.3160 N   0  0  0  0  0  0  0  0  0  0  0  0
    4.3180    2.2410   -0.4540 C   0  0  0  0  0  0  0  0  0  0  0  0
    3.2040    1.4040   -0.3080 C   0  0  0  0  0  0  0  0  0  0  0  0
    3.4080    0.1430    0.1560 C   0  0  0  0  0  0  0  0  0  0  0  0
    2.3520   -0.7150    0.3160 C   0  0  0  0  0  0  0  0  0  0  0  0
    1.0240   -0.3750    0.0260 C   0  0  0  0  0  0  0  0  0  0  0  0
   -3.9980    0.4020    0.5150 C   0  0  2  0  0  0  0  0  0  0  0  0
   -5.4520    0.6130    0.6260 C   0  0  0  0  0  0  0  0  0  0  0  0
   -3.3390    1.4460    1.3180 N   0  0  0  0  0  0  0  0  0  0  0  0
  1  2  1  0
  3  2  1  6
  3  4  1  0
  3 23  1  0
  4  5  2  0
  4  6  1  0
  6  7  1  0
  7  8  2  0
  7 22  1  0
  8  9  1  0
  9 10  2  0
 10 11  1  0
 10 21  1  0
 11 12  2  0
 11 13  1  0
 13 14  1  0
 14 15  2  0
 14 20  1  0
 15 16  1  0
 16 17  1  0
 16 18  2  0
 18 19  1  0
 19 20  2  0
 20 21  1  0
 21 22  2  0
 23 24  1  6
 23 25  1  0
M  CHG  1  25   1
M  END
