
     RDKit          3D

 25 27  0  0  0  0  0  0  0  0999 V2000
    6.3730   -0.0640    0.2000 C   0  0  0  0  0  0  0  0  0  0  0  0
    4.9070    0.1670    0.0750 C   0  0  0  0  0  0  0  0  0  0  0  0
    4.3070    1.3310    0.4850 C   0  0  0  0  0  0  0  0  0  0  0  0
    2.9330    1.4900    0.3430 C   0  0  0  0  0  0  0  0  0  0  0  0
    2.4000    2.6920    0.7800 O   0  0  0  0  0  0  0  0  0  0  0  0
    2.1810    0.4740   -0.2080 C   0  0  0  0  0  0  0  0  0  0  0  0
    0.7710    0.7090   -0.3210 N   0  0  0  0  0  0  0  0  0  0  0  0
   -0.1410    0.3530    0.7170 C   0  0  0  0  0  0  0  0  0  0  0  0
    0.3630   -0.1800    1.7350 O   0  0  0  0  0  0  0  0  0  0  0  0
   -1.5540    0.6290    0.5210 C   0  0  0  0  0  0  0  0  0  0  0  0
   -1.9880    1.8630    0.0160 C   0  0  0  0  0  0  0  0  0  0  0  0
   -3.3290    2.1070   -0.1600 C   0  0  0  0  0  0  0  0  0  0  0  0
   -4.2900    1.1730    0.1440 C   0  0  0  0  0  0  0  0  0  0  0  0
   -3.8600   -0.0400    0.6400 C   0  0  0  0  0  0  0  0  0  0  0  0
   -2.5120   -0.3100    0.8270 C   0  0  0  0  0  0  0  0  0  0  0  0
   -2.0880   -1.6230    1.3520 C   0  0  0  0  0  0  0  0  0  0  0  0
   -1.5470   -2.4770    0.2130 C   0  0  0  0  0  0  0  0  0  0  0  0
   -1.1150   -3.7730    0.6900 N   0  0  0  0  0  0  0  0  0  0  0  0
   -5.6150    1.7670   -0.1630 C   0  0  0  0  0  0  0  0  0  0  0  0
   -5.2760    2.8450   -1.1640 C   0  0  0  0  0  0  0  0  0  0  0  0
   -3.9790    3.2930   -0.6620 N   0  0  0  0  0  0  0  0  0  0  0  0
    2.8090   -0.6640   -0.6030 C   0  0  0  0  0  0  0  0  0  0  0  0
    2.0160   -1.7570   -1.1950 C   0  0  0  0  0  0  0  0  0  0  0  0
    4.1730   -0.8670   -0.4820 C   0  0  0  0  0  0  0  0  0  0  0  0
    4.8010   -2.0700   -0.9020 N   0  0  0  0  0  0  0  0  0  0  0  0
  1  2  1  0
  2  3  2  0
  2 24  1  0
  3  4  1  0
  4  5  1  0
  4  6  2  0
  6  7  1  0
  6 22  1  0
  7  8  1  0
  8  9  2  0
  8 10  1  0
 10 11  2  0
 10 15  1  0
 11 12  1  0
 12 13  2  0
 12 21  1  0
 13 14  1  0
 13 19  1  0
 14 15  2  0
 15 16  1  0
 16 17  1  0
 17 18  1  0
 19 20  1  0
 20 21  1  0
 22 23  1  0
 22 24  2  0
 24 25  1  0
M  END
