
     RDKit          3D

 12 13  0  0  0  0  0  0  0  0999 V2000
   -2.5930    2.1340   -1.7320 O   0  0  0  0  0  0  0  0  0  0  0  0
   -2.3580    1.2590   -0.8680 C   0  0  0  0  0  0  0  0  0  0  0  0
   -1.2100    1.4040    0.0700 C   0  0  0  0  0  0  0  0  0  0  0  0
   -0.5800    0.1100    0.1860 N   0  0  0  0  0  0  0  0  0  0  0  0
    0.8380    0.0050    0.0230 C   0  0  0  0  0  0  0  0  0  0  0  0
    1.4870   -1.0890   -0.3900 C   0  0  0  0  0  0  0  0  0  0  0  0
    2.9510   -0.8390   -0.4420 C   0  0  0  0  0  0  0  0  0  0  0  0
    3.0820    0.2740    0.6090 C   0  0  0  0  0  0  0  0  0  0  0  0
    1.8430    1.0690    0.2710 C   0  0  0  0  0  0  0  0  0  0  0  0
   -1.3200   -1.0730    0.4570 C   0  0  0  0  0  0  0  0  0  0  0  0
   -2.7890   -0.9800    0.1790 C   0  0  0  0  0  0  0  0  0  0  0  0
   -3.1500    0.0760   -0.7130 N   0  0  0  0  0  0  0  0  0  0  0  0
  1  2  2  0
  2  3  1  0
  2 12  1  0
  3  4  1  0
  4  5  1  0
  4 10  1  0
  5  6  2  0
  5  9  1  0
  6  7  1  0
  7  8  1  0
  8  9  1  0
 10 11  1  0
 11 12  1  0
M  END
