
     RDKit          3D

 12 13  0  0  0  0  0  0  0  0999 V2000
   -2.7860   -0.8400    0.3040 C   0  0  0  0  0  0  0  0  0  0  0  0
   -1.8250    0.2700    0.1390 C   0  0  0  0  0  0  0  0  0  0  0  0
   -2.2360    1.5460    0.1130 N   0  0  0  0  0  0  0  0  0  0  0  0
   -1.3840    2.5520   -0.0350 N   0  0  0  0  0  0  0  0  0  0  0  0
   -0.0650    2.3430   -0.1650 C   0  0  0  0  0  0  0  0  0  0  0  0
    0.4410    1.0590   -0.1490 C   0  0  0  0  0  0  0  0  0  0  0  0
    1.7960    0.8230   -0.2810 C   0  0  0  0  0  0  0  0  0  0  0  0
    2.2900   -0.4660   -0.2630 C   0  0  0  0  0  0  0  0  0  0  0  0
    3.6560   -0.7110   -0.3970 O   0  0  0  0  0  0  0  0  0  0  0  0
    1.3720   -1.4850   -0.1080 C   0  0  0  0  0  0  0  0  0  0  0  0
    0.0150   -1.2650    0.0260 C   0  0  0  0  0  0  0  0  0  0  0  0
   -0.4680    0.0300    0.0060 C   0  0  0  0  0  0  0  0  0  0  0  0
  1  2  1  0
  2  3  2  0
  2 12  1  0
  3  4  1  0
  4  5  2  0
  5  6  1  0
  6  7  2  0
  6 12  1  0
  7  8  1  0
  8  9  1  0
  8 10  2  0
 10 11  1  0
 11 12  2  0
M  END
