
     RDKit          3D

 12 13  0  0  0  0  0  0  0  0999 V2000
   -2.7060    0.5340    1.3700 O   0  0  0  0  0  0  0  0  0  0  0  0
   -1.5660    0.3150    0.5920 C   0  0  1  0  0  0  0  0  0  0  0  0
   -1.6580   -1.0560   -0.0330 C   0  0  0  0  0  0  0  0  0  0  0  0
   -0.4040   -1.8100    0.3830 C   0  0  0  0  0  0  0  0  0  0  0  0
    0.6540   -1.4690   -0.6650 C   0  0  0  0  0  0  0  0  0  0  0  0
    1.3760   -0.2740   -0.3230 N   0  0  0  0  0  0  0  0  0  0  0  0
    2.6430   -0.4490    0.0860 C   0  0  0  0  0  0  0  0  0  0  0  0
    3.1460    0.7890    0.3570 C   0  0  0  0  0  0  0  0  0  0  0  0
    2.1770    1.6640    0.1070 N   0  0  0  0  0  0  0  0  0  0  0  0
    1.0500    1.0350   -0.3230 C   0  0  0  0  0  0  0  0  0  0  0  0
   -0.0680    1.9280   -0.6220 C   0  0  0  0  0  0  0  0  0  0  0  0
   -1.4220    1.3190   -0.5050 C   0  0  0  0  0  0  0  0  0  0  0  0
  2  1  1  6
  2  3  1  0
  2 12  1  0
  3  4  1  0
  4  5  1  0
  5  6  1  0
  6  7  1  0
  6 10  1  0
  7  8  2  0
  8  9  1  0
  9 10  2  0
 10 11  1  0
 11 12  1  0
M  END
