
     RDKit          3D

 12 13  0  0  0  0  0  0  0  0999 V2000
   -1.9300   -1.7130   -0.0380 C   0  0  0  0  0  0  0  0  0  0  0  0
   -1.4770   -0.3190    0.0350 C   0  0  0  0  0  0  0  0  0  0  0  0
   -2.3610    0.6860    0.1740 N   0  0  0  0  0  0  0  0  0  0  0  0
   -2.0240    1.9770    0.2470 C   0  0  0  0  0  0  0  0  0  0  0  0
   -0.6860    2.3180    0.1780 C   0  0  0  0  0  0  0  0  0  0  0  0
    0.2850    1.3450    0.0360 C   0  0  0  0  0  0  0  0  0  0  0  0
    1.5870    1.6320   -0.0340 N   0  0  0  0  0  0  0  0  0  0  0  0
    2.5240    0.6570   -0.1740 C   0  0  0  0  0  0  0  0  0  0  0  0
    2.1720   -0.6760   -0.2500 C   0  0  0  0  0  0  0  0  0  0  0  0
    3.1190   -1.6810   -0.3930 O   0  0  0  0  0  0  0  0  0  0  0  0
    0.8210   -0.9710   -0.1770 C   0  0  0  0  0  0  0  0  0  0  0  0
   -0.1320    0.0270   -0.0340 C   0  0  0  0  0  0  0  0  0  0  0  0
  1  2  1  0
  2  3  2  0
  2 12  1  0
  3  4  1  0
  4  5  2  0
  5  6  1  0
  6  7  2  0
  6 12  1  0
  7  8  1  0
  8  9  2  0
  9 10  1  0
  9 11  1  0
 11 12  2  0
M  END
