
     RDKit          3D

 12 13  0  0  0  0  0  0  0  0999 V2000
    0.0520   -2.4690   -0.0610 C   0  0  0  0  0  0  0  0  0  0  0  0
    0.6780   -1.1180   -0.0170 C   0  0  0  0  0  0  0  0  0  0  0  0
    2.0240   -0.9720    0.0100 N   0  0  0  0  0  0  0  0  0  0  0  0
    2.6110    0.2320    0.0500 C   0  0  0  0  0  0  0  0  0  0  0  0
    1.8890    1.4050    0.0670 C   0  0  0  0  0  0  0  0  0  0  0  0
    0.5090    1.3050    0.0400 C   0  0  0  0  0  0  0  0  0  0  0  0
   -0.2710    2.4590    0.0550 C   0  0  0  0  0  0  0  0  0  0  0  0
   -1.6010    2.2950    0.0280 N   0  0  0  0  0  0  0  0  0  0  0  0
   -2.2000    1.1080   -0.0120 C   0  0  0  0  0  0  0  0  0  0  0  0
   -1.4550   -0.0450   -0.0280 C   0  0  0  0  0  0  0  0  0  0  0  0
   -2.0530   -1.3010   -0.0690 O   0  0  0  0  0  0  0  0  0  0  0  0
   -0.0760    0.0490   -0.0010 C   0  0  0  0  0  0  0  0  0  0  0  0
  1  2  1  0
  2  3  2  0
  2 12  1  0
  3  4  1  0
  4  5  2  0
  5  6  1  0
  6  7  2  0
  6 12  1  0
  7  8  1  0
  8  9  2  0
  9 10  1  0
 10 11  1  0
 10 12  2  0
M  END
