
     RDKit          3D

 12 13  0  0  0  0  0  0  0  0999 V2000
    2.5150   -1.4140   -0.4010 C   0  0  0  0  0  0  0  0  0  0  0  0
    1.8260   -0.1370   -0.1080 C   0  0  0  0  0  0  0  0  0  0  0  0
    2.4850    0.9910    0.2550 N   0  0  0  0  0  0  0  0  0  0  0  0
    1.7980    2.1260    0.5090 C   0  0  0  0  0  0  0  0  0  0  0  0
    2.4430    3.1480    0.8410 O   0  0  0  0  0  0  0  0  0  0  0  0
    0.4480    2.1760    0.4130 N   0  0  0  0  0  0  0  0  0  0  0  0
   -0.2530    1.0860    0.0580 C   0  0  0  0  0  0  0  0  0  0  0  0
    0.4570   -0.0640   -0.1990 C   0  0  0  0  0  0  0  0  0  0  0  0
   -0.3170   -1.2650   -0.5910 C   0  0  0  0  0  0  0  0  0  0  0  0
   -1.5240   -1.3360    0.3160 C   0  0  0  0  0  0  0  0  0  0  0  0
   -2.4130   -0.1360    0.2020 C   0  0  0  0  0  0  0  0  0  0  0  0
   -1.7040    1.1440   -0.0440 C   0  0  0  0  0  0  0  0  0  0  0  0
  1  2  1  0
  2  3  2  0
  2  8  1  0
  3  4  1  0
  4  5  2  0
  4  6  1  0
  6  7  1  0
  7  8  2  0
  7 12  1  0
  8  9  1  0
  9 10  1  0
 10 11  1  0
 11 12  1  0
M  END
