
     RDKit          3D

 12 13  0  0  0  0  0  0  0  0999 V2000
   -2.3110   -0.8880   -2.0310 C   0  0  0  0  0  0  0  0  0  0  0  0
   -2.0760   -1.1480   -0.5460 C   0  0  0  0  0  0  0  0  0  0  0  0
   -0.8090   -0.5660   -0.1360 C   0  0  0  0  0  0  0  0  0  0  0  0
    0.2630   -1.3380    0.0690 N   0  0  0  0  0  0  0  0  0  0  0  0
    1.4400   -0.7900    0.4510 C   0  0  0  0  0  0  0  0  0  0  0  0
    1.5410    0.5740    0.6330 C   0  0  0  0  0  0  0  0  0  0  0  0
    0.4710    1.3650    0.4310 N   0  0  0  0  0  0  0  0  0  0  0  0
   -0.7000    0.7920    0.0470 C   0  0  0  0  0  0  0  0  0  0  0  0
   -1.8840    1.6290   -0.1820 C   0  0  0  0  0  0  0  0  0  0  0  0
    2.9390    0.8320    1.0420 C   0  0  0  0  0  0  0  0  0  0  0  0
    3.3090   -0.5070    1.6840 C   0  0  0  0  0  0  0  0  0  0  0  0
    2.6900   -1.3820    0.7250 O   0  0  0  0  0  0  0  0  0  0  0  0
  1  2  1  0
  2  3  1  0
  3  4  2  0
  3  8  1  0
  4  5  1  0
  5  6  2  0
  5 12  1  0
  6  7  1  0
  6 10  1  0
  7  8  2  0
  8  9  1  0
 10 11  1  0
 11 12  1  0
M  END
