
     RDKit          3D

 12 13  0  0  0  0  0  0  0  0999 V2000
   -2.6600   -0.8490    1.0880 C   0  0  0  0  0  0  0  0  0  0  0  0
   -1.3550   -0.3780    0.5440 C   0  0  0  0  0  0  0  0  0  0  0  0
   -0.3300   -1.2750    0.2710 C   0  0  0  0  0  0  0  0  0  0  0  0
    0.8840   -0.8570   -0.2320 C   0  0  0  0  0  0  0  0  0  0  0  0
    1.8770   -1.7240   -0.4960 N   0  0  0  0  0  0  0  0  0  0  0  0
    3.0560   -1.3380   -0.9820 N   0  0  0  0  0  0  0  0  0  0  0  0
    3.3420   -0.0500   -1.2460 C   0  0  0  0  0  0  0  0  0  0  0  0
    2.3470    0.8730   -0.9870 C   0  0  0  0  0  0  0  0  0  0  0  0
    1.1220    0.4840   -0.4830 C   0  0  0  0  0  0  0  0  0  0  0  0
    0.1100    1.3840   -0.2160 C   0  0  0  0  0  0  0  0  0  0  0  0
   -1.1080    0.9570    0.2900 C   0  0  0  0  0  0  0  0  0  0  0  0
   -2.0980    1.8830    0.5460 O   0  0  0  0  0  0  0  0  0  0  0  0
  1  2  1  0
  2  3  2  0
  2 11  1  0
  3  4  1  0
  4  5  2  0
  4  9  1  0
  5  6  1  0
  6  7  2  0
  7  8  1  0
  8  9  2  0
  9 10  1  0
 10 11  2  0
 11 12  1  0
M  END
