
     RDKit          3D

  9  9  0  0  0  0  0  0  0  0999 V2000
   -2.0280   -1.2170    0.0240 C   0  0  0  0  0  0  0  0  0  0  0  0
   -0.8250   -0.3560    0.0130 C   0  0  0  0  0  0  0  0  0  0  0  0
    0.4330   -0.9530   -0.0440 C   0  0  0  0  0  0  0  0  0  0  0  0
    1.5690   -0.1720   -0.0550 C   0  0  0  0  0  0  0  0  0  0  0  0
    2.8840   -0.7110   -0.1110 N   0  0  0  0  0  0  0  0  0  0  0  0
    1.4100    1.1960   -0.0080 C   0  0  0  0  0  0  0  0  0  0  0  0
    0.1610    1.7920    0.0480 C   0  0  0  0  0  0  0  0  0  0  0  0
   -0.9830    1.0110    0.0590 C   0  0  0  0  0  0  0  0  0  0  0  0
   -2.2050    1.6500    0.1160 O   0  0  0  0  0  0  0  0  0  0  0  0
  1  2  1  0
  2  3  2  0
  2  8  1  0
  3  4  1  0
  4  5  1  0
  4  6  2  0
  6  7  1  0
  7  8  2  0
  8  9  1  0
M  END
