
     RDKit          3D

 12 12  0  0  0  0  0  0  0  0999 V2000
    0.1170   -1.7890   -0.8620 N   0  0  0  0  0  0  0  0  0  0  0  0
    0.1190   -0.5890   -0.0270 C   0  0  2  0  0  0  0  0  0  0  0  0
   -1.2190    0.0750    0.0040 C   0  0  1  0  0  0  0  0  0  0  0  0
   -2.3040   -0.7520    0.6180 C   0  0  2  0  0  0  0  0  0  0  0  0
   -1.9650   -1.0700    1.9270 O   0  0  0  0  0  0  0  0  0  0  0  0
   -2.6300   -1.8760   -0.1300 O   0  0  0  0  0  0  0  0  0  0  0  0
   -1.0900    1.2370    0.7660 O   0  0  0  0  0  0  0  0  0  0  0  0
   -0.5010    2.1680   -0.0910 C   0  0  0  0  0  0  0  0  0  0  0  0
    0.9190    1.7780   -0.3550 C   0  0  0  0  0  0  0  0  0  0  0  0
    1.1580    0.3300   -0.5480 C   0  0  1  0  0  0  0  0  0  0  0  0
    2.5450    0.0090    0.0280 C   0  0  0  0  0  0  0  0  0  0  0  0
    2.5520    0.1180    1.4070 O   0  0  0  0  0  0  0  0  0  0  0  0
  2  1  1  6
  2  3  1  0
  2 10  1  0
  3  4  1  0
  3  7  1  1
  4  5  1  1
  4  6  1  0
  7  8  1  0
  8  9  1  0
  9 10  1  0
 10 11  1  1
 11 12  1  0
M  CHG  1   1   1
M  END
