
     RDKit          3D

 12 12  0  0  0  0  0  0  0  0999 V2000
   -2.8250   -0.2600    1.1190 N   0  0  0  0  0  0  0  0  0  0  0  0
   -1.9550    0.0580    0.0090 C   0  0  1  0  0  0  0  0  0  0  0  0
   -1.3030    1.3920    0.1920 C   0  0  0  0  0  0  0  0  0  0  0  0
    0.0590    1.2180    0.2140 O   0  0  0  0  0  0  0  0  0  0  0  0
    0.3170    0.0650   -0.4850 C   0  0  1  0  0  0  0  0  0  0  0  0
    0.0810    0.3540   -1.9640 C   0  0  0  0  0  0  0  0  0  0  0  0
    0.9840    1.3900   -2.2930 O   0  0  0  0  0  0  0  0  0  0  0  0
    1.7050   -0.4510   -0.3500 C   0  0  0  0  0  0  0  0  0  0  0  0
    2.1030   -0.7850    1.0620 C   0  0  1  0  0  0  0  0  0  0  0  0
    3.4150   -1.2560    1.0680 O   0  0  0  0  0  0  0  0  0  0  0  0
    2.1260    0.4260    1.7860 O   0  0  0  0  0  0  0  0  0  0  0  0
   -0.7370   -0.8770    0.0260 C   0  0  0  0  0  0  0  0  0  0  0  0
  2  1  1  1
  2  3  1  0
  2 12  1  0
  3  4  1  0
  4  5  1  0
  5  6  1  6
  5  8  1  0
  5 12  1  0
  6  7  1  0
  8  9  1  0
  9 10  1  6
  9 11  1  0
M  CHG  1   1   1
M  END
