
     RDKit          3D

 23 25  0  0  0  0  0  0  0  0999 V2000
    2.9480    0.5120   -1.7250 C   0  0  0  0  0  0  0  0  0  0  0  0
    3.8290    0.2220   -0.5750 C   0  0  0  0  0  0  0  0  0  0  0  0
    5.1610    0.5540   -0.4990 C   0  0  0  0  0  0  0  0  0  0  0  0
    5.9130    0.3140    0.6430 C   0  0  0  0  0  0  0  0  0  0  0  0
    7.5900    0.8110    0.6680 Cl  0  0  0  0  0  0  0  0  0  0  0  0
    5.3510   -0.2640    1.7430 C   0  0  0  0  0  0  0  0  0  0  0  0
    3.9900   -0.6050    1.6660 C   0  0  0  0  0  0  0  0  0  0  0  0
    3.3320   -1.3680    3.0980 Cl  0  0  0  0  0  0  0  0  0  0  0  0
    3.2760   -0.3640    0.5430 C   0  0  0  0  0  0  0  0  0  0  0  0
    1.8610   -0.8670    0.4300 C   0  0  0  0  0  0  0  0  0  0  0  0
    0.9780    0.1720    0.1740 O   0  0  0  0  0  0  0  0  0  0  0  0
   -0.3740    0.0370    0.1160 C   0  0  0  0  0  0  0  0  0  0  0  0
   -1.1140   -1.0870    0.3780 C   0  0  0  0  0  0  0  0  0  0  0  0
   -2.5140   -1.0730    0.2650 C   0  0  0  0  0  0  0  0  0  0  0  0
   -3.1940    0.0480   -0.1040 C   0  0  0  0  0  0  0  0  0  0  0  0
   -4.6350    0.1980   -0.1900 C   0  0  0  0  0  0  0  0  0  0  0  0
   -5.3260    1.2160   -0.7520 N   0  0  0  0  0  0  0  0  0  0  0  0
   -6.6410    0.9900   -0.6740 N   0  0  0  0  0  0  0  0  0  0  0  0
   -6.7940   -0.1890   -0.0510 C   0  0  0  0  0  0  0  0  0  0  0  0
   -7.8990   -0.7230    0.1980 O   0  0  0  0  0  0  0  0  0  0  0  0
   -5.5770   -0.6630    0.2370 N   0  0  0  0  0  0  0  0  0  0  0  0
   -2.4280    1.1750   -0.3700 C   0  0  0  0  0  0  0  0  0  0  0  0
   -1.0720    1.2030   -0.2720 C   0  0  0  0  0  0  0  0  0  0  0  0
  1  2  1  0
  2  3  2  0
  2  9  1  0
  3  4  1  0
  4  5  1  0
  4  6  2  0
  6  7  1  0
  7  8  1  0
  7  9  2  0
  9 10  1  0
 10 11  1  0
 11 12  1  0
 12 13  2  0
 12 23  1  0
 13 14  1  0
 14 15  2  0
 15 16  1  0
 15 22  1  0
 16 17  2  0
 16 21  1  0
 17 18  1  0
 18 19  1  0
 19 20  2  0
 19 21  1  0
 22 23  2  0
M  END
