
     RDKit          3D

 12 12  0  0  0  0  0  0  0  0999 V2000
   -1.6050   -1.2630   -1.1820 N   0  0  0  0  0  0  0  0  0  0  0  0
   -0.7570   -0.2930   -0.4670 C   0  0  2  0  0  0  0  0  0  0  0  0
    0.6700   -0.5890   -0.6120 C   0  0  2  0  0  0  0  0  0  0  0  0
    0.9200   -1.8740   -0.0810 O   0  0  0  0  0  0  0  0  0  0  0  0
    1.6540    0.3750   -0.0740 C   0  0  0  0  0  0  0  0  0  0  0  0
    3.0440   -0.2170   -0.3710 C   0  0  0  0  0  0  0  0  0  0  0  0
    4.0030    0.6680    0.1230 O   0  0  0  0  0  0  0  0  0  0  0  0
   -1.3000   -0.2590    0.9350 C   0  0  0  0  0  0  0  0  0  0  0  0
   -2.5190    0.6490    0.7540 C   0  0  0  0  0  0  0  0  0  0  0  0
   -2.4990    1.0990   -0.5630 O   0  0  0  0  0  0  0  0  0  0  0  0
   -1.1510    1.0830   -0.9500 C   0  0  1  0  0  0  0  0  0  0  0  0
   -0.5050    2.0720   -0.1840 O   0  0  0  0  0  0  0  0  0  0  0  0
  2  1  1  6
  2  3  1  0
  2  8  1  0
  2 11  1  0
  3  4  1  1
  3  5  1  0
  5  6  1  0
  6  7  1  0
  8  9  1  0
  9 10  1  0
 10 11  1  0
 11 12  1  1
M  CHG  1   1   1
M  END
