
     RDKit          3D

 12 12  0  0  0  0  0  0  0  0999 V2000
   -1.0110   -2.1710    0.4240 N   0  0  0  0  0  0  0  0  0  0  0  0
   -0.3420   -1.0340   -0.0580 C   0  0  2  0  0  0  0  0  0  0  0  0
    0.8610   -0.6790    0.8070 C   0  0  0  0  0  0  0  0  0  0  0  0
    1.5550    0.4140    0.0200 C   0  0  2  0  0  0  0  0  0  0  0  0
    2.9810    0.5860    0.4560 C   0  0  0  0  0  0  0  0  0  0  0  0
    3.6630    1.5430   -0.2430 O   0  0  0  0  0  0  0  0  0  0  0  0
    0.7880    1.5410    0.1470 O   0  0  0  0  0  0  0  0  0  0  0  0
   -0.4160    1.4290   -0.4810 C   0  0  0  0  0  0  0  0  0  0  0  0
   -1.1920    0.1940   -0.2210 C   0  0  1  0  0  0  0  0  0  0  0  0
   -2.0070   -0.0340   -1.3490 O   0  0  0  0  0  0  0  0  0  0  0  0
   -2.1280    0.4280    0.9360 C   0  0  0  0  0  0  0  0  0  0  0  0
   -2.9030    1.5570    0.5900 O   0  0  0  0  0  0  0  0  0  0  0  0
  2  1  1  1
  2  3  1  0
  2  9  1  0
  3  4  1  0
  4  5  1  1
  4  7  1  0
  5  6  1  0
  7  8  1  0
  8  9  1  0
  9 10  1  6
  9 11  1  0
 11 12  1  0
M  CHG  1   1   1
M  END
