
     RDKit          3D

 12 12  0  0  0  0  0  0  0  0999 V2000
    3.3620    0.6880   -1.4150 O   0  0  0  0  0  0  0  0  0  0  0  0
    2.1110    0.0890   -1.1690 C   0  0  0  0  0  0  0  0  0  0  0  0
    2.2490   -0.7570    0.0650 C   0  0  2  0  0  0  0  0  0  0  0  0
    3.2230   -1.7320   -0.1510 O   0  0  0  0  0  0  0  0  0  0  0  0
    0.9180   -1.3720    0.3960 C   0  0  0  0  0  0  0  0  0  0  0  0
   -0.0500   -0.3330    0.6090 N   0  0  0  0  0  0  0  0  0  0  0  0
   -0.9380   -0.1520   -0.5220 C   0  0  1  0  0  0  0  0  0  0  0  0
   -2.2410   -0.8670   -0.1790 C   0  0  0  0  0  0  0  0  0  0  0  0
   -2.8620   -0.0670    0.7420 O   0  0  0  0  0  0  0  0  0  0  0  0
   -2.4390    1.2240    0.5910 C   0  0  0  0  0  0  0  0  0  0  0  0
   -1.4760    1.2740   -0.5700 C   0  0  2  0  0  0  0  0  0  0  0  0
   -2.2320    1.3890   -1.7300 O   0  0  0  0  0  0  0  0  0  0  0  0
  1  2  1  0
  2  3  1  0
  3  4  1  6
  3  5  1  0
  5  6  1  0
  7  6  1  1
  7  8  1  0
  7 11  1  0
  8  9  1  0
  9 10  1  0
 10 11  1  0
 11 12  1  6
M  CHG  1   6   1
M  END
