
     RDKit          3D

  9  9  0  0  0  0  0  0  0  0999 V2000
   -2.1510   -1.7130   -0.2130 C   0  0  0  0  0  0  0  0  0  0  0  0
   -1.0700   -0.6780   -0.1160 C   0  0  0  0  0  0  0  0  0  0  0  0
    0.2570   -1.0390    0.0540 C   0  0  0  0  0  0  0  0  0  0  0  0
    1.2460   -0.0730    0.1430 C   0  0  0  0  0  0  0  0  0  0  0  0
    2.6830   -0.4140    0.3260 C   0  0  0  0  0  0  0  0  0  0  0  0
    0.8840    1.1980    0.0600 N   0  0  0  0  0  0  0  0  0  0  0  0
   -0.4090    1.5950   -0.1070 C   0  0  0  0  0  0  0  0  0  0  0  0
   -0.7310    2.9890   -0.1890 N   0  0  0  0  0  0  0  0  0  0  0  0
   -1.3440    0.6390   -0.1890 N   0  0  0  0  0  0  0  0  0  0  0  0
  1  2  1  0
  2  3  2  0
  2  9  1  0
  3  4  1  0
  4  5  1  0
  4  6  2  0
  6  7  1  0
  7  8  1  0
  7  9  2  0
M  END
