
     RDKit          3D

  9  9  0  0  0  0  0  0  0  0999 V2000
   -2.0890   -0.6380    0.1580 C   0  0  0  0  0  0  0  0  0  0  0  0
   -0.6260   -0.6970    0.0680 C   0  0  0  0  0  0  0  0  0  0  0  0
   -0.0180   -1.9420    0.0770 C   0  0  0  0  0  0  0  0  0  0  0  0
    1.3300   -1.9760   -0.0070 N   0  0  0  0  0  0  0  0  0  0  0  0
    2.0510   -0.8580   -0.0950 N   0  0  0  0  0  0  0  0  0  0  0  0
    1.4920    0.3650   -0.1060 C   0  0  0  0  0  0  0  0  0  0  0  0
    2.2490    1.4170   -0.1940 N   0  0  0  0  0  0  0  0  0  0  0  0
    0.1180    0.4600   -0.0230 C   0  0  0  0  0  0  0  0  0  0  0  0
   -0.5600    1.7760   -0.0300 C   0  0  0  0  0  0  0  0  0  0  0  0
  1  2  1  0
  2  3  1  0
  2  8  2  0
  3  4  2  0
  4  5  1  0
  5  6  1  0
  6  7  2  0
  6  8  1  0
  8  9  1  0
M  END
