
     RDKit          3D

  9  9  0  0  0  0  0  0  0  0999 V2000
    3.0960   -0.0980    0.1970 C   0  0  0  0  0  0  0  0  0  0  0  0
    1.6130   -0.1390   -0.0240 C   0  0  0  0  0  0  0  0  0  0  0  0
    1.0590   -0.8270   -1.0830 C   0  0  0  0  0  0  0  0  0  0  0  0
   -0.2710   -0.8580   -1.2740 N   0  0  0  0  0  0  0  0  0  0  0  0
   -1.1190   -0.2220   -0.4420 C   0  0  0  0  0  0  0  0  0  0  0  0
   -2.5980   -0.2560   -0.6520 C   0  0  0  0  0  0  0  0  0  0  0  0
   -0.5670    0.4680    0.6210 C   0  0  0  0  0  0  0  0  0  0  0  0
   -1.4730    1.1360    1.4920 N   0  0  0  0  0  0  0  0  0  0  0  0
    0.7600    0.4930    0.8010 N   0  0  0  0  0  0  0  0  0  0  0  0
  1  2  1  0
  2  3  2  0
  2  9  1  0
  3  4  1  0
  4  5  2  0
  5  6  1  0
  5  7  1  0
  7  8  1  0
  7  9  2  0
M  END
