
     RDKit          3D

 28 30  0  0  0  0  0  0  0  0999 V2000
    5.3080    3.3690   -0.1840 C   0  0  0  0  0  0  0  0  0  0  0  0
    5.0240    1.9090   -0.2040 C   0  0  0  0  0  0  0  0  0  0  0  0
    5.7270    1.0020   -1.5240 Cl  0  0  0  0  0  0  0  0  0  0  0  0
    4.2720    1.3950    0.7440 C   0  0  0  0  0  0  0  0  0  0  0  0
    3.9380   -0.0250    0.8110 C   0  0  0  0  0  0  0  0  0  0  0  0
    4.8770   -0.9910    0.5290 C   0  0  0  0  0  0  0  0  0  0  0  0
    4.5570   -2.3400    0.5740 C   0  0  0  0  0  0  0  0  0  0  0  0
    5.8080   -3.5210    0.2060 Cl  0  0  0  0  0  0  0  0  0  0  0  0
    3.2860   -2.7140    0.9060 C   0  0  0  0  0  0  0  0  0  0  0  0
    2.3270   -1.7710    1.1930 C   0  0  0  0  0  0  0  0  0  0  0  0
    1.0320   -2.1900    1.5280 O   0  0  0  0  0  0  0  0  0  0  0  0
   -0.0340   -1.9400    0.6450 C   0  0  0  0  0  0  0  0  0  0  0  0
    0.2880   -1.3400   -0.3990 O   0  0  0  0  0  0  0  0  0  0  0  0
   -1.3820   -2.3510    0.9440 C   0  0  0  0  0  0  0  0  0  0  0  0
   -2.4790   -2.2080    0.3020 C   0  0  0  0  0  0  0  0  0  0  0  0
   -2.6150   -1.5270   -0.9950 C   0  0  0  0  0  0  0  0  0  0  0  0
   -3.6770   -0.4120   -0.8390 C   0  0  0  0  0  0  0  0  0  0  0  0
   -4.9710   -0.7870   -0.8210 C   0  0  0  0  0  0  0  0  0  0  0  0
   -5.6710   -2.0530   -0.9230 C   0  0  0  0  0  0  0  0  0  0  0  0
   -5.8150    0.8400   -0.6120 S   0  0  0  0  0  0  0  0  0  0  0  0
   -4.3650    1.7860   -0.5770 C   0  0  0  0  0  0  0  0  0  0  0  0
   -4.1660    3.1830   -0.4360 C   0  0  0  0  0  0  0  0  0  0  0  0
   -2.8930    3.7050   -0.4340 C   0  0  0  0  0  0  0  0  0  0  0  0
   -1.9070    2.8070   -0.5730 N   0  0  0  0  0  0  0  0  0  0  0  0
   -2.0620    1.4890   -0.7070 C   0  0  0  0  0  0  0  0  0  0  0  0
   -3.3550    0.8950   -0.7160 C   0  0  0  0  0  0  0  0  0  0  0  0
    2.6650   -0.4500    1.1410 C   0  0  0  0  0  0  0  0  0  0  0  0
    1.7010    0.5080    1.4300 O   0  0  0  0  0  0  0  0  0  0  0  0
  1  2  1  0
  2  3  1  0
  2  4  2  3
  4  5  1  0
  5  6  2  0
  5 27  1  0
  6  7  1  0
  7  8  1  0
  7  9  2  0
  9 10  1  0
 10 11  1  0
 10 27  2  0
 11 12  1  0
 12 13  2  0
 12 14  1  0
 14 15  2  3
 15 16  1  0
 16 17  1  0
 17 18  2  0
 17 26  1  0
 18 19  1  0
 18 20  1  0
 20 21  1  0
 21 22  2  0
 21 26  1  0
 22 23  1  0
 23 24  2  0
 24 25  1  0
 25 26  2  0
 27 28  1  0
M  END
