
     RDKit          3D

  9  9  0  0  0  0  0  0  0  0999 V2000
    2.9710    0.7020   -0.1300 C   0  0  0  0  0  0  0  0  0  0  0  0
    1.9360   -0.3410    0.2150 C   0  0  0  0  0  0  0  0  0  0  0  0
    0.6300    0.2280   -0.0430 N   0  0  0  0  0  0  0  0  0  0  0  0
   -0.5480   -0.5140    0.1850 C   0  0  0  0  0  0  0  0  0  0  0  0
   -0.6270   -1.7900    0.6510 C   0  0  0  0  0  0  0  0  0  0  0  0
   -1.9280   -2.1140    0.7210 N   0  0  0  0  0  0  0  0  0  0  0  0
   -2.6390   -1.0580    0.3070 N   0  0  0  0  0  0  0  0  0  0  0  0
   -1.8210   -0.0530   -0.0310 C   0  0  0  0  0  0  0  0  0  0  0  0
   -2.1550    1.2960   -0.5390 C   0  0  0  0  0  0  0  0  0  0  0  0
  1  2  1  0
  2  3  1  0
  3  4  1  0
  4  5  1  0
  4  8  2  0
  5  6  2  0
  6  7  1  0
  7  8  1  0
  8  9  1  0
M  END
