
     RDKit          3D

  9  9  0  0  0  0  0  0  0  0999 V2000
   -2.0020   -1.1840   -0.8210 C   0  0  0  0  0  0  0  0  0  0  0  0
   -1.2690   -0.1460   -0.0830 C   0  0  0  0  0  0  0  0  0  0  0  0
   -1.8270    0.8340    0.6340 N   0  0  0  0  0  0  0  0  0  0  0  0
   -0.8600    1.5930    1.1660 C   0  0  0  0  0  0  0  0  0  0  0  0
    0.3110    1.0780    0.7750 N   0  0  0  0  0  0  0  0  0  0  0  0
    0.0910    0.0080    0.0060 C   0  0  0  0  0  0  0  0  0  0  0  0
    1.1310   -0.8010   -0.5960 C   0  0  0  0  0  0  0  0  0  0  0  0
    2.3940   -0.5160   -0.4100 C   0  0  0  0  0  0  0  0  0  0  0  0
    2.7560    0.6200    0.4040 N   0  0  0  0  0  0  0  0  0  0  0  0
  1  2  1  0
  2  3  1  0
  2  6  2  0
  3  4  1  0
  4  5  2  0
  5  6  1  0
  6  7  1  0
  7  8  2  3
  8  9  1  0
M  END
