
     RDKit          3D

  9  9  0  0  0  0  0  0  0  0999 V2000
    2.0940   -0.3710   -1.1230 C   0  0  0  0  0  0  0  0  0  0  0  0
    1.1530    0.0080   -0.3090 C   0  0  0  0  0  0  0  0  0  0  0  0
    1.5160    0.8570    0.8550 C   0  0  0  0  0  0  0  0  0  0  0  0
   -0.2610   -0.3740   -0.4970 C   0  0  0  0  0  0  0  0  0  0  0  0
   -0.7720   -1.1320   -1.4820 N   0  0  0  0  0  0  0  0  0  0  0  0
   -2.0820   -1.2600   -1.3230 N   0  0  0  0  0  0  0  0  0  0  0  0
   -2.4800   -0.5900   -0.2240 C   0  0  0  0  0  0  0  0  0  0  0  0
   -1.3320   -0.0300    0.2980 C   0  0  0  0  0  0  0  0  0  0  0  0
   -1.2950    0.7700    1.4720 N   0  0  0  0  0  0  0  0  0  0  0  0
  1  2  2  0
  2  3  1  0
  2  4  1  0
  4  5  1  0
  4  8  2  0
  5  6  1  0
  6  7  2  0
  7  8  1  0
  8  9  1  0
M  END
