
     RDKit          3D

  9  9  0  0  0  0  0  0  0  0999 V2000
   -2.1820   -1.0380    0.4680 C   0  0  0  0  0  0  0  0  0  0  0  0
   -0.7690   -0.6550    0.2370 C   0  0  0  0  0  0  0  0  0  0  0  0
    0.1970   -1.5790    0.3860 N   0  0  0  0  0  0  0  0  0  0  0  0
    1.4900   -1.2540    0.1810 C   0  0  0  0  0  0  0  0  0  0  0  0
    1.8840    0.0140   -0.1840 C   0  0  0  0  0  0  0  0  0  0  0  0
    3.2580    0.3170   -0.3900 N   0  0  0  0  0  0  0  0  0  0  0  0
    0.9160    0.9350   -0.3310 N   0  0  0  0  0  0  0  0  0  0  0  0
   -0.3790    0.6110   -0.1270 C   0  0  0  0  0  0  0  0  0  0  0  0
   -1.4540    1.6460   -0.2940 C   0  0  0  0  0  0  0  0  0  0  0  0
  1  2  1  0
  2  3  2  0
  2  8  1  0
  3  4  1  0
  4  5  2  0
  5  6  1  0
  5  7  1  0
  7  8  2  0
  8  9  1  0
M  END
