
     RDKit          3D

 15 16  0  0  0  0  0  0  0  0999 V2000
    0.8210    0.1400    1.3690 O   0  0  0  0  0  0  0  0  0  0  0  0
    0.7610   -0.3020    0.0740 C   0  0  1  0  0  0  0  0  0  0  0  0
   -0.6300   -0.5400   -0.4630 C   0  0  0  0  0  0  0  0  0  0  0  0
   -1.4970    0.5750   -0.4670 N   0  0  0  0  0  0  0  0  0  0  0  0
   -1.9580    1.0550    0.7970 C   0  0  0  0  0  0  0  0  0  0  0  0
   -3.0330    0.1520    1.3920 C   0  0  0  0  0  0  0  0  0  0  0  0
   -4.1370    0.2120    0.5720 O   0  0  0  0  0  0  0  0  0  0  0  0
   -3.7980   -0.3140   -0.6600 C   0  0  0  0  0  0  0  0  0  0  0  0
   -2.6360    0.3760   -1.3320 C   0  0  0  0  0  0  0  0  0  0  0  0
    1.5490    0.6430   -0.8070 C   0  0  0  0  0  0  0  0  0  0  0  0
    2.5570    1.3060   -0.0490 N   0  0  0  0  0  0  0  0  0  0  0  0
    3.7990    0.5800    0.0380 C   0  0  0  0  0  0  0  0  0  0  0  0
    3.5100   -0.8010    0.6280 C   0  0  0  0  0  0  0  0  0  0  0  0
    2.8170   -1.5430   -0.2970 O   0  0  0  0  0  0  0  0  0  0  0  0
    1.4750   -1.6570   -0.0510 C   0  0  0  0  0  0  0  0  0  0  0  0
  2  1  1  1
  2  3  1  0
  2 10  1  0
  2 15  1  0
  3  4  1  0
  4  5  1  0
  4  9  1  0
  5  6  1  0
  6  7  1  0
  7  8  1  0
  8  9  1  0
 10 11  1  0
 11 12  1  0
 12 13  1  0
 13 14  1  0
 14 15  1  0
M  END
