
     RDKit          3D

 15 16  0  0  0  0  0  0  0  0999 V2000
    5.0930    0.4320   -0.3820 C   0  0  0  0  0  0  0  0  0  0  0  0
    4.0480   -0.4990   -0.6370 O   0  0  0  0  0  0  0  0  0  0  0  0
    2.7050   -0.1530   -0.4230 C   0  0  0  0  0  0  0  0  0  0  0  0
    2.4970    1.0040   -0.0020 O   0  0  0  0  0  0  0  0  0  0  0  0
    1.6480   -1.0230   -0.6560 N   0  0  0  0  0  0  0  0  0  0  0  0
    0.2610   -0.8050   -0.4840 C   0  0  0  0  0  0  0  0  0  0  0  0
   -0.2570    0.3840   -0.0310 C   0  0  0  0  0  0  0  0  0  0  0  0
   -1.6350    0.5670    0.1280 C   0  0  0  0  0  0  0  0  0  0  0  0
   -2.4850   -0.4620   -0.1750 C   0  0  0  0  0  0  0  0  0  0  0  0
   -1.9640   -1.6180   -0.6170 N   0  0  0  0  0  0  0  0  0  0  0  0
   -0.6530   -1.8100   -0.7740 C   0  0  0  0  0  0  0  0  0  0  0  0
   -0.1940   -2.9110   -1.1920 O   0  0  0  0  0  0  0  0  0  0  0  0
   -3.7520   -0.1070    0.0370 C   0  0  0  0  0  0  0  0  0  0  0  0
   -3.7310    1.2820    0.5230 C   0  0  0  0  0  0  0  0  0  0  0  0
   -2.2990    1.6390    0.5500 C   0  0  0  0  0  0  0  0  0  0  0  0
  1  2  1  0
  2  3  1  0
  3  4  2  0
  3  5  1  0
  5  6  1  0
  6  7  2  0
  6 11  1  0
  7  8  1  0
  8  9  1  0
  8 15  2  0
  9 10  1  0
  9 13  2  0
 10 11  1  0
 11 12  2  0
 13 14  1  0
 14 15  1  0
M  END
