
     RDKit          3D

 15 16  0  0  0  0  0  0  0  0999 V2000
   -0.5290   -1.9430    0.5660 O   0  0  0  0  0  0  0  0  0  0  0  0
    0.0240   -0.8210    0.5230 C   0  0  0  0  0  0  0  0  0  0  0  0
    1.3600   -0.7640    0.1940 C   0  0  0  0  0  0  0  0  0  0  0  0
    2.0200    0.4500    0.1380 C   0  0  0  0  0  0  0  0  0  0  0  0
    1.3130    1.6170    0.4190 C   0  0  0  0  0  0  0  0  0  0  0  0
    1.9660    2.8440    0.3660 O   0  0  0  0  0  0  0  0  0  0  0  0
    0.0210    1.4910    0.7310 N   0  0  0  0  0  0  0  0  0  0  0  0
   -0.6280    0.3110    0.7870 N   0  0  0  0  0  0  0  0  0  0  0  0
   -2.0450    0.3870    1.1060 C   0  0  0  0  0  0  0  0  0  0  0  0
   -2.8140    0.7160   -0.1180 C   0  0  0  0  0  0  0  0  0  0  0  0
   -2.6790   -0.3340   -1.1730 C   0  0  0  0  0  0  0  0  0  0  0  0
   -3.1990   -1.5460   -0.6800 O   0  0  0  0  0  0  0  0  0  0  0  0
    3.2890    0.2930   -0.1940 C   0  0  0  0  0  0  0  0  0  0  0  0
    3.5080   -1.1610   -0.3790 C   0  0  0  0  0  0  0  0  0  0  0  0
    2.1900   -1.7460   -0.1020 C   0  0  0  0  0  0  0  0  0  0  0  0
  1  2  2  0
  2  3  1  0
  2  8  1  0
  3  4  1  0
  3 15  2  0
  4  5  1  0
  4 13  2  0
  5  6  1  0
  5  7  2  0
  7  8  1  0
  8  9  1  0
  9 10  1  0
 10 11  1  0
 11 12  1  0
 13 14  1  0
 14 15  1  0
M  END
