
     RDKit          3D

 15 16  0  0  0  0  0  0  0  0999 V2000
   -4.1410    1.4260   -1.6340 O   0  0  0  0  0  0  0  0  0  0  0  0
   -3.5820    0.8200   -0.7060 C   0  0  0  0  0  0  0  0  0  0  0  0
   -2.4290   -0.1000   -0.8760 C   0  0  0  0  0  0  0  0  0  0  0  0
   -1.6790    0.1150    0.3960 C   0  0  0  0  0  0  0  0  0  0  0  0
   -0.3700    0.0580    0.5950 C   0  0  0  0  0  0  0  0  0  0  0  0
    0.5680   -0.2420   -0.4670 C   0  0  0  0  0  0  0  0  0  0  0  0
    1.8600   -0.3050   -0.3010 C   0  0  0  0  0  0  0  0  0  0  0  0
    2.8550   -0.6030   -1.3380 C   0  0  0  0  0  0  0  0  0  0  0  0
    4.0700   -0.5910   -0.8490 C   0  0  0  0  0  0  0  0  0  0  0  0
    4.0040   -0.2920    0.5240 N   0  0  0  0  0  0  0  0  0  0  0  0
    2.6530   -0.1080    0.9000 C   0  0  0  0  0  0  0  0  0  0  0  0
    2.2570    0.1660    2.0380 O   0  0  0  0  0  0  0  0  0  0  0  0
   -2.7080    0.4060    1.3900 C   0  0  0  0  0  0  0  0  0  0  0  0
   -2.5980    0.2970    2.6600 O   0  0  0  0  0  0  0  0  0  0  0  0
   -3.8750    0.8400    0.6950 N   0  0  0  0  0  0  0  0  0  0  0  0
  1  2  2  0
  2  3  1  0
  2 15  1  0
  3  4  1  0
  4  5  2  3
  4 13  1  0
  5  6  1  0
  6  7  2  3
  7  8  1  0
  7 11  1  0
  8  9  2  0
  9 10  1  0
 10 11  1  0
 11 12  2  0
 13 14  2  0
 13 15  1  0
M  END
