
     RDKit          3D

 15 16  0  0  0  0  0  0  0  0999 V2000
    4.4130    0.4300   -0.4990 N   0  0  0  0  0  0  0  0  0  0  0  0
    3.3540   -0.1980    0.1730 C   0  0  0  0  0  0  0  0  0  0  0  0
    3.5950   -0.8700    1.2120 O   0  0  0  0  0  0  0  0  0  0  0  0
    1.9620   -0.1000   -0.2960 C   0  0  0  0  0  0  0  0  0  0  0  0
    1.0650   -0.8790    0.6350 C   0  0  0  0  0  0  0  0  0  0  0  0
   -0.3040   -0.7550    0.1340 N   0  0  0  0  0  0  0  0  0  0  0  0
   -0.8400   -1.6790   -0.7950 C   0  0  0  0  0  0  0  0  0  0  0  0
   -0.0550   -2.4600   -1.3790 O   0  0  0  0  0  0  0  0  0  0  0  0
   -2.2850   -1.7690   -1.1100 C   0  0  0  0  0  0  0  0  0  0  0  0
   -2.9580   -0.5530   -0.8660 O   0  0  0  0  0  0  0  0  0  0  0  0
   -2.4820    0.4000    0.0580 C   0  0  0  0  0  0  0  0  0  0  0  0
   -3.1010    1.4490    0.5790 C   0  0  0  0  0  0  0  0  0  0  0  0
   -2.1650    2.1220    1.4920 C   0  0  0  0  0  0  0  0  0  0  0  0
   -0.9350    1.3130    1.4170 C   0  0  0  0  0  0  0  0  0  0  0  0
   -1.1270    0.3110    0.5790 C   0  0  0  0  0  0  0  0  0  0  0  0
  1  2  1  0
  2  3  2  0
  2  4  1  0
  4  5  1  0
  5  6  1  0
  6  7  1  0
  6 15  1  0
  7  8  2  0
  7  9  1  0
  9 10  1  0
 10 11  1  0
 11 12  2  0
 11 15  1  0
 12 13  1  0
 13 14  1  0
 14 15  2  0
M  END
