
     RDKit          3D

 15 16  0  0  0  0  0  0  0  0999 V2000
    4.7070    1.4190   -0.3900 O   0  0  0  0  0  0  0  0  0  0  0  0
    4.2580    0.3980    0.2120 C   0  0  0  0  0  0  0  0  0  0  0  0
    5.1940   -0.4030    0.8410 O   0  0  0  0  0  0  0  0  0  0  0  0
    2.8420    0.0790    0.2440 C   0  0  0  0  0  0  0  0  0  0  0  0
    1.9250    0.8280   -0.3490 C   0  0  0  0  0  0  0  0  0  0  0  0
    0.5500    0.4760   -0.2910 N   0  0  0  0  0  0  0  0  0  0  0  0
    0.0630   -0.5830    0.3310 N   0  0  0  0  0  0  0  0  0  0  0  0
   -1.2950   -0.6070    0.1800 C   0  0  0  0  0  0  0  0  0  0  0  0
   -2.2810   -1.4620    0.6100 C   0  0  0  0  0  0  0  0  0  0  0  0
   -3.5850   -1.2060    0.2850 C   0  0  0  0  0  0  0  0  0  0  0  0
   -3.9680   -0.1050   -0.4690 C   0  0  0  0  0  0  0  0  0  0  0  0
   -2.9570    0.7330   -0.8850 C   0  0  0  0  0  0  0  0  0  0  0  0
   -1.6450    0.4910   -0.5690 C   0  0  0  0  0  0  0  0  0  0  0  0
   -0.4550    1.1670   -0.8580 C   0  0  0  0  0  0  0  0  0  0  0  0
   -0.3860    2.2230   -1.5300 O   0  0  0  0  0  0  0  0  0  0  0  0
  1  2  2  0
  2  3  1  0
  2  4  1  0
  4  5  2  3
  5  6  1  0
  6  7  1  0
  6 14  1  0
  7  8  1  0
  8  9  2  0
  8 13  1  0
  9 10  1  0
 10 11  2  0
 11 12  1  0
 12 13  2  0
 13 14  1  0
 14 15  2  0
M  END
