
     RDKit          3D

 15 16  0  0  0  0  0  0  0  0999 V2000
   -3.3920    0.2610   -0.1670 C   0  0  0  0  0  0  0  0  0  0  0  0
   -1.9820    0.7230   -0.2490 C   0  0  0  0  0  0  0  0  0  0  0  0
   -0.9650   -0.1010   -0.0000 C   0  0  0  0  0  0  0  0  0  0  0  0
   -1.2010   -1.4920    0.3630 C   0  0  0  0  0  0  0  0  0  0  0  0
   -2.3680   -1.9650    0.4550 O   0  0  0  0  0  0  0  0  0  0  0  0
   -0.0850   -2.3950    0.6350 C   0  0  0  0  0  0  0  0  0  0  0  0
    1.1510   -1.9500    0.5520 C   0  0  0  0  0  0  0  0  0  0  0  0
    1.4470   -0.5740    0.1950 C   0  0  0  0  0  0  0  0  0  0  0  0
    2.7180   -0.1130    0.1080 N   0  0  0  0  0  0  0  0  0  0  0  0
    3.0200    1.1550   -0.2200 C   0  0  0  0  0  0  0  0  0  0  0  0
    4.2090    1.5580   -0.2940 O   0  0  0  0  0  0  0  0  0  0  0  0
    2.0220    2.0540   -0.4880 C   0  0  0  0  0  0  0  0  0  0  0  0
    2.2670    3.2490   -0.7990 O   0  0  0  0  0  0  0  0  0  0  0  0
    0.7380    1.6000   -0.4040 N   0  0  0  0  0  0  0  0  0  0  0  0
    0.4280    0.3350   -0.0760 C   0  0  0  0  0  0  0  0  0  0  0  0
  1  2  1  0
  2  3  2  3
  3  4  1  0
  3 15  1  0
  4  5  2  0
  4  6  1  0
  6  7  2  0
  7  8  1  0
  8  9  1  0
  8 15  2  0
  9 10  1  0
 10 11  2  0
 10 12  1  0
 12 13  2  0
 12 14  1  0
 14 15  1  0
M  END
