
     RDKit          3D

 13 14  0  0  0  0  0  0  0  0999 V2000
    4.1560    1.5610   -0.1590 O   0  0  0  0  0  0  0  0  0  0  0  0
    3.0550    0.7350   -0.2520 N   0  0  0  0  0  0  0  0  0  0  0  0
    3.0360   -0.5290   -0.7500 C   0  0  0  0  0  0  0  0  0  0  0  0
    1.7400   -0.9600   -0.6450 C   0  0  0  0  0  0  0  0  0  0  0  0
    0.9820    0.0290   -0.0890 N   0  0  0  0  0  0  0  0  0  0  0  0
   -0.3960   -0.0960    0.1550 C   0  0  0  0  0  0  0  0  0  0  0  0
   -0.8660   -1.0600    1.0390 C   0  0  0  0  0  0  0  0  0  0  0  0
   -2.2150   -1.2060    1.2980 C   0  0  0  0  0  0  0  0  0  0  0  0
   -3.1260   -0.3830    0.6710 C   0  0  0  0  0  0  0  0  0  0  0  0
   -2.6670    0.5750   -0.2070 C   0  0  0  0  0  0  0  0  0  0  0  0
   -1.3020    0.7280   -0.4740 C   0  0  0  0  0  0  0  0  0  0  0  0
   -0.8580    1.6850   -1.3500 O   0  0  0  0  0  0  0  0  0  0  0  0
    1.8020    1.0450    0.1390 C   0  0  0  0  0  0  0  0  0  0  0  0
  1  2  1  0
  2  3  1  0
  2 13  2  0
  3  4  2  0
  4  5  1  0
  5  6  1  0
  5 13  1  0
  6  7  2  0
  6 11  1  0
  7  8  1  0
  8  9  2  0
  9 10  1  0
 10 11  2  0
 11 12  1  0
M  CHG  2   1  -1   2   1
M  END
