
     RDKit          3D

 12 13  0  0  0  0  0  0  0  0999 V2000
   -0.1450   -1.2650   -2.0440 O   0  0  0  0  0  0  0  0  0  0  0  0
   -0.9590   -0.6160   -1.1310 N   0  0  0  0  0  0  0  0  0  0  0  0
   -2.2950   -0.5560   -1.2860 C   0  0  0  0  0  0  0  0  0  0  0  0
   -3.1410    0.0690   -0.4170 C   0  0  0  0  0  0  0  0  0  0  0  0
   -2.5940    0.6800    0.6920 C   0  0  0  0  0  0  0  0  0  0  0  0
   -1.2290    0.6200    0.8510 C   0  0  0  0  0  0  0  0  0  0  0  0
   -0.4000   -0.0260   -0.0550 C   0  0  0  0  0  0  0  0  0  0  0  0
    1.0060   -0.0630    0.1500 N   0  0  0  0  0  0  0  0  0  0  0  0
    1.7650   -1.0640    0.6240 C   0  0  0  0  0  0  0  0  0  0  0  0
    3.1040   -0.6620    0.6580 C   0  0  0  0  0  0  0  0  0  0  0  0
    3.1350    0.6250    0.1860 C   0  0  0  0  0  0  0  0  0  0  0  0
    1.8230    0.9780   -0.1240 C   0  0  0  0  0  0  0  0  0  0  0  0
  1  2  1  0
  2  3  2  0
  2  7  1  0
  3  4  1  0
  4  5  2  0
  5  6  1  0
  6  7  2  0
  7  8  1  0
  8  9  1  0
  8 12  1  0
  9 10  2  0
 10 11  1  0
 11 12  2  0
M  CHG  2   1  -1   2   1
M  END
