
     RDKit          3D

 13 14  0  0  0  0  0  0  0  0999 V2000
    1.8870   -2.4930   -0.5090 O   0  0  0  0  0  0  0  0  0  0  0  0
    2.3660   -1.5220    0.0920 N   0  0  0  0  0  0  0  0  0  0  0  0
    3.5130   -1.6590    0.8310 O   0  0  0  0  0  0  0  0  0  0  0  0
    1.7370   -0.2490    0.0280 C   0  0  0  0  0  0  0  0  0  0  0  0
    2.5020    0.9210    0.0910 C   0  0  0  0  0  0  0  0  0  0  0  0
    1.9430    2.1780    0.0360 C   0  0  0  0  0  0  0  0  0  0  0  0
    0.5970    2.2360   -0.0850 N   0  0  0  0  0  0  0  0  0  0  0  0
   -0.1610    1.1280   -0.1480 C   0  0  0  0  0  0  0  0  0  0  0  0
    0.3690   -0.1550   -0.0950 C   0  0  0  0  0  0  0  0  0  0  0  0
   -0.4580   -1.3740   -0.1660 C   0  0  0  0  0  0  0  0  0  0  0  0
   -1.9300   -1.1330   -0.1200 C   0  0  0  0  0  0  0  0  0  0  0  0
   -2.3360    0.1630    0.5030 C   0  0  0  0  0  0  0  0  0  0  0  0
   -1.6430    1.2690   -0.2780 C   0  0  0  0  0  0  0  0  0  0  0  0
  1  2  2  0
  2  3  1  0
  2  4  1  0
  4  5  2  0
  4  9  1  0
  5  6  1  0
  6  7  2  0
  7  8  1  0
  8  9  2  0
  8 13  1  0
  9 10  1  0
 10 11  1  0
 11 12  1  0
 12 13  1  0
M  CHG  2   2   1   3  -1
M  END
