
     RDKit          3D

 13 14  0  0  0  0  0  0  0  0999 V2000
   -1.2130   -2.5710    0.0630 C   0  0  0  0  0  0  0  0  0  0  0  0
   -0.9590   -1.1300    0.0320 N   0  0  0  0  0  0  0  0  0  0  0  0
   -1.8590   -0.1350    0.0190 C   0  0  0  0  0  0  0  0  0  0  0  0
   -1.2390    1.0950   -0.0120 C   0  0  0  0  0  0  0  0  0  0  0  0
   -1.8590    2.3710   -0.0320 N   0  0  0  0  0  0  0  0  0  0  0  0
   -2.9890    2.5410    0.4670 O   0  0  0  0  0  0  0  0  0  0  0  0
   -1.2710    3.4810   -0.5890 O   0  0  0  0  0  0  0  0  0  0  0  0
    0.1200    0.8330   -0.0180 C   0  0  0  0  0  0  0  0  0  0  0  0
    1.2520    1.6440   -0.0450 C   0  0  0  0  0  0  0  0  0  0  0  0
    2.5310    1.1270   -0.0460 C   0  0  0  0  0  0  0  0  0  0  0  0
    2.6550   -0.2460   -0.0190 C   0  0  0  0  0  0  0  0  0  0  0  0
    1.5400   -1.0550    0.0080 C   0  0  0  0  0  0  0  0  0  0  0  0
    0.2460   -0.5380    0.0090 C   0  0  0  0  0  0  0  0  0  0  0  0
  1  2  1  0
  2  3  1  0
  2 13  1  0
  3  4  2  0
  4  5  1  0
  4  8  1  0
  5  6  2  0
  5  7  1  0
  8  9  2  0
  8 13  1  0
  9 10  1  0
 10 11  2  0
 11 12  1  0
 12 13  2  0
M  CHG  2   5   1   7  -1
M  END
