
     RDKit          3D

 13 14  0  0  0  0  0  0  0  0999 V2000
    3.2510    0.3140    0.4190 C   0  0  0  0  0  0  0  0  0  0  0  0
    3.0830   -1.0120    0.1270 O   0  0  0  0  0  0  0  0  0  0  0  0
    2.2080   -1.2640   -0.8990 C   0  0  0  0  0  0  0  0  0  0  0  0
    0.8480   -0.7390   -0.5250 C   0  0  0  0  0  0  0  0  0  0  0  0
    0.3650   -0.5820    0.7180 N   0  0  0  0  0  0  0  0  0  0  0  0
   -0.8840   -0.0860    0.6760 C   0  0  0  0  0  0  0  0  0  0  0  0
   -1.8330    0.2640    1.6100 C   0  0  0  0  0  0  0  0  0  0  0  0
   -3.0720    0.7640    1.2710 C   0  0  0  0  0  0  0  0  0  0  0  0
   -3.3930    0.9280   -0.0770 C   0  0  0  0  0  0  0  0  0  0  0  0
   -2.4480    0.5790   -1.0150 C   0  0  0  0  0  0  0  0  0  0  0  0
   -1.2100    0.0800   -0.6670 C   0  0  0  0  0  0  0  0  0  0  0  0
   -0.1250   -0.3310   -1.3530 N   0  0  0  0  0  0  0  0  0  0  0  0
   -0.0330   -0.3300   -2.7250 O   0  0  0  0  0  0  0  0  0  0  0  0
  1  2  1  0
  2  3  1  0
  3  4  1  0
  4  5  1  0
  4 12  2  0
  5  6  1  0
  6  7  2  0
  6 11  1  0
  7  8  1  0
  8  9  2  0
  9 10  1  0
 10 11  2  0
 11 12  1  0
 12 13  1  0
M  CHG  2  12   1  13  -1
M  END
