
     RDKit          3D

 13 14  0  0  0  0  0  0  0  0999 V2000
   -3.2190   -1.9830    0.6420 O   0  0  0  0  0  0  0  0  0  0  0  0
   -2.0910   -1.8540    0.0350 N   0  0  0  0  0  0  0  0  0  0  0  0
   -1.6030   -2.9980   -0.5080 O   0  0  0  0  0  0  0  0  0  0  0  0
   -1.5210   -0.5780    0.0190 C   0  0  0  0  0  0  0  0  0  0  0  0
   -2.3310    0.5080    0.0430 N   0  0  0  0  0  0  0  0  0  0  0  0
   -1.9100    1.7590    0.0410 C   0  0  0  0  0  0  0  0  0  0  0  0
   -0.5530    1.9900    0.0100 C   0  0  0  0  0  0  0  0  0  0  0  0
    0.3300    0.9530   -0.0150 C   0  0  0  0  0  0  0  0  0  0  0  0
    1.6900    1.2030   -0.0350 C   0  0  0  0  0  0  0  0  0  0  0  0
    2.5610    0.1420   -0.0500 C   0  0  0  0  0  0  0  0  0  0  0  0
    2.0780   -1.1390   -0.0440 C   0  0  0  0  0  0  0  0  0  0  0  0
    0.7210   -1.4150   -0.0240 C   0  0  0  0  0  0  0  0  0  0  0  0
   -0.1680   -0.3660   -0.0100 C   0  0  0  0  0  0  0  0  0  0  0  0
  1  2  2  0
  2  3  1  0
  2  4  1  0
  4  5  2  0
  4 13  1  0
  5  6  1  0
  6  7  2  0
  7  8  1  0
  8  9  2  0
  8 13  1  0
  9 10  1  0
 10 11  2  0
 11 12  1  0
 12 13  2  0
M  CHG  2   2   1   3  -1
M  END
