
     RDKit          3D

 13 14  0  0  0  0  0  0  0  0999 V2000
   -2.9500   -0.4840    0.6090 C   0  0  0  0  0  0  0  0  0  0  0  0
   -2.1520   -0.4260   -0.6650 C   0  0  0  0  0  0  0  0  0  0  0  0
   -0.9370    0.3440   -0.5280 N   0  0  0  0  0  0  0  0  0  0  0  0
   -0.7150    1.6320   -0.7220 C   0  0  0  0  0  0  0  0  0  0  0  0
    0.5870    1.9270   -0.4750 C   0  0  0  0  0  0  0  0  0  0  0  0
    1.2500    3.1390   -0.5520 O   0  0  0  0  0  0  0  0  0  0  0  0
    1.2040    0.7330   -0.1040 C   0  0  0  0  0  0  0  0  0  0  0  0
    2.4700    0.3790    0.2580 C   0  0  0  0  0  0  0  0  0  0  0  0
    2.7850   -0.8810    0.5710 N   0  0  0  0  0  0  0  0  0  0  0  0
    4.0570   -1.2530    0.9370 O   0  0  0  0  0  0  0  0  0  0  0  0
    1.8510   -1.8300    0.5340 C   0  0  0  0  0  0  0  0  0  0  0  0
    0.5620   -1.5420    0.1790 C   0  0  0  0  0  0  0  0  0  0  0  0
    0.2290   -0.2490   -0.1440 C   0  0  0  0  0  0  0  0  0  0  0  0
  1  2  1  0
  2  3  1  0
  3  4  1  0
  3 13  1  0
  4  5  2  0
  5  6  1  0
  5  7  1  0
  7  8  2  0
  7 13  1  0
  8  9  1  0
  9 10  1  0
  9 11  2  0
 11 12  1  0
 12 13  2  0
M  CHG  2   9   1  10  -1
M  END
