
     RDKit          3D

 13 14  0  0  0  0  0  0  0  0999 V2000
    2.5400   -1.9750   -0.0460 C   0  0  0  0  0  0  0  0  0  0  0  0
    2.2570   -0.7340   -0.3640 C   0  0  0  0  0  0  0  0  0  0  0  0
    0.9190   -0.2150   -0.1800 C   0  0  0  0  0  0  0  0  0  0  0  0
    0.0180   -0.9000    0.6020 C   0  0  0  0  0  0  0  0  0  0  0  0
   -1.2830   -0.4270    0.8110 C   0  0  0  0  0  0  0  0  0  0  0  0
   -1.6290    0.7460    0.2080 C   0  0  0  0  0  0  0  0  0  0  0  0
   -0.7290    1.4330   -0.5760 C   0  0  0  0  0  0  0  0  0  0  0  0
    0.5490    0.9650   -0.7800 C   0  0  0  0  0  0  0  0  0  0  0  0
    1.4140    1.7490   -1.6090 N   0  0  0  0  0  0  0  0  0  0  0  0
    2.2470    1.2150   -2.3380 O   0  0  0  0  0  0  0  0  0  0  0  0
    1.2690    3.1220   -1.5890 O   0  0  0  0  0  0  0  0  0  0  0  0
   -2.9420    0.6850    0.7610 N   0  0  0  0  0  0  0  0  0  0  0  0
   -2.6130   -0.5510    1.4050 C   0  0  0  0  0  0  0  0  0  0  0  0
  1  2  2  0
  2  3  1  0
  3  4  2  0
  3  8  1  0
  4  5  1  0
  5  6  2  0
  5 13  1  0
  6  7  1  0
  6 12  1  0
  7  8  2  0
  8  9  1  0
  9 10  2  0
  9 11  1  0
 12 13  1  0
M  CHG  2   9   1  11  -1
M  END
