
     RDKit          3D

 12 13  0  0  0  0  0  0  0  0999 V2000
    2.7360   -1.0060   -0.0430 C   0  0  0  0  0  0  0  0  0  0  0  0
    2.4140    0.1890   -0.8830 C   0  0  0  0  0  0  0  0  0  0  0  0
    1.4130    1.0100   -0.3700 O   0  0  0  0  0  0  0  0  0  0  0  0
    0.1200    0.6490   -0.1060 C   0  0  0  0  0  0  0  0  0  0  0  0
   -0.3350   -0.6250   -0.3340 C   0  0  0  0  0  0  0  0  0  0  0  0
   -1.6520   -0.9500   -0.0530 C   0  0  0  0  0  0  0  0  0  0  0  0
   -2.5320    0.0020    0.4620 C   0  0  0  0  0  0  0  0  0  0  0  0
   -3.8580   -0.3650    0.7340 O   0  0  0  0  0  0  0  0  0  0  0  0
   -2.0720    1.2670    0.6860 C   0  0  0  0  0  0  0  0  0  0  0  0
   -1.6470    2.5450    0.9250 C   0  0  0  0  0  0  0  0  0  0  0  0
   -1.8960    3.7120    1.3220 O   0  0  0  0  0  0  0  0  0  0  0  0
   -0.7540    1.5830    0.4030 C   0  0  0  0  0  0  0  0  0  0  0  0
  1  2  1  0
  2  3  1  0
  3  4  1  0
  4  5  2  0
  4 12  1  0
  5  6  1  0
  6  7  2  0
  7  8  1  0
  7  9  1  0
  9 10  1  0
  9 12  2  0
 10 11  2  0
 10 12  1  0
M  END
