
     RDKit          3D

 12 12  0  0  0  0  0  0  0  0999 V2000
   -3.5080   -0.9020   -0.3010 C   0  0  0  0  0  0  0  0  0  0  0  0
   -2.8800    0.4740   -0.2960 C   0  0  0  0  0  0  0  0  0  0  0  0
   -1.4750    0.3990    0.2620 C   0  0  0  0  0  0  0  0  0  0  0  0
   -0.6680   -0.4590   -0.5190 O   0  0  0  0  0  0  0  0  0  0  0  0
    0.6750   -0.7000   -0.2150 C   0  0  0  0  0  0  0  0  0  0  0  0
    1.0440   -1.8550    0.2910 C   0  0  0  0  0  0  0  0  0  0  0  0
    2.4370   -2.1880    0.6390 C   0  0  0  0  0  0  0  0  0  0  0  0
    3.2810   -1.1170    0.3570 O   0  0  0  0  0  0  0  0  0  0  0  0
    2.9190    0.0930   -0.1690 C   0  0  0  0  0  0  0  0  0  0  0  0
    1.6670    0.3300   -0.4570 C   0  0  0  0  0  0  0  0  0  0  0  0
    1.2110    1.5320   -0.9940 O   0  0  0  0  0  0  0  0  0  0  0  0
    1.4920    2.7020   -0.2110 C   0  0  0  0  0  0  0  0  0  0  0  0
  1  2  1  0
  2  3  1  0
  3  4  1  0
  4  5  1  0
  5  6  2  0
  5 10  1  0
  6  7  1  0
  7  8  1  0
  8  9  1  0
  9 10  2  0
 10 11  1  0
 11 12  1  0
M  END
