
     RDKit          3D

 12 12  0  0  0  0  0  0  0  0999 V2000
    4.2580   -1.0510   -1.5000 C   0  0  0  0  0  0  0  0  0  0  0  0
    3.6480   -0.6270   -0.3070 O   0  0  0  0  0  0  0  0  0  0  0  0
    2.2280   -0.4420   -0.2120 C   0  0  0  0  0  0  0  0  0  0  0  0
    1.6600   -0.7010   -1.2870 O   0  0  0  0  0  0  0  0  0  0  0  0
    1.6400   -0.0130    1.0060 C   0  0  0  0  0  0  0  0  0  0  0  0
    0.4520    0.2450    1.4390 C   0  0  0  0  0  0  0  0  0  0  0  0
   -0.8560    0.2060    0.8450 C   0  0  0  0  0  0  0  0  0  0  0  0
   -1.9070    0.5550    1.6070 C   0  0  0  0  0  0  0  0  0  0  0  0
   -3.2950    0.5460    1.0820 C   0  0  0  0  0  0  0  0  0  0  0  0
   -3.1370    0.8450   -0.4110 C   0  0  0  0  0  0  0  0  0  0  0  0
   -2.4470   -0.2560   -0.9080 O   0  0  0  0  0  0  0  0  0  0  0  0
   -1.0880   -0.2130   -0.5620 C   0  0  0  0  0  0  0  0  0  0  0  0
  1  2  1  0
  2  3  1  0
  3  4  2  0
  3  5  1  0
  5  6  2  3
  6  7  1  0
  7  8  2  0
  7 12  1  0
  8  9  1  0
  9 10  1  0
 10 11  1  0
 11 12  1  0
M  END
