
     RDKit          3D

 12 12  0  0  0  0  0  0  0  0999 V2000
    3.9730    1.0610   -0.0200 C   0  0  0  0  0  0  0  0  0  0  0  0
    3.0660    0.0300   -0.6170 C   0  0  0  0  0  0  0  0  0  0  0  0
    1.9290   -0.1260    0.2450 O   0  0  0  0  0  0  0  0  0  0  0  0
    0.9130   -1.0200   -0.0580 C   0  0  0  0  0  0  0  0  0  0  0  0
    1.0320   -1.6850   -1.1170 O   0  0  0  0  0  0  0  0  0  0  0  0
   -0.2840   -1.1960    0.8290 C   0  0  0  0  0  0  0  0  0  0  0  0
   -1.4450   -0.4380    0.3400 C   0  0  0  0  0  0  0  0  0  0  0  0
   -2.5540   -1.0480    0.0220 C   0  0  0  0  0  0  0  0  0  0  0  0
   -3.7320   -0.3230   -0.4690 C   0  0  0  0  0  0  0  0  0  0  0  0
   -3.5460    1.0400   -0.5570 O   0  0  0  0  0  0  0  0  0  0  0  0
   -2.4080    1.7070   -0.2360 C   0  0  0  0  0  0  0  0  0  0  0  0
   -1.3640    1.0060    0.2060 C   0  0  0  0  0  0  0  0  0  0  0  0
  1  2  1  0
  2  3  1  0
  3  4  1  0
  4  5  2  0
  4  6  1  0
  6  7  1  0
  7  8  2  0
  7 12  1  0
  8  9  1  0
  9 10  1  0
 10 11  1  0
 11 12  2  0
M  END
