
     RDKit          3D

 13 13  0  0  0  0  0  0  0  0999 V2000
    4.3600    0.1760    1.1850 O   0  0  0  0  0  0  0  0  0  0  0  0
    3.3890    0.2080    0.2140 C   0  0  0  0  0  0  0  0  0  0  0  0
    2.1750   -0.2800    0.7370 O   0  0  0  0  0  0  0  0  0  0  0  0
    1.1630   -0.2720   -0.1910 C   0  0  1  0  0  0  0  0  0  0  0  0
    0.6350   -1.4840   -0.4910 O   0  0  0  0  0  0  0  0  0  0  0  0
   -0.4500   -1.8920    0.2390 C   0  0  0  0  0  0  0  0  0  0  0  0
   -1.6050   -0.9200    0.2270 C   0  0  2  0  0  0  0  0  0  0  0  0
   -2.7320   -1.4160   -0.3820 O   0  0  0  0  0  0  0  0  0  0  0  0
   -1.1600    0.3310   -0.4500 C   0  0  1  0  0  0  0  0  0  0  0  0
   -2.1940    1.4240   -0.4560 C   0  0  0  0  0  0  0  0  0  0  0  0
   -3.3570    1.0400   -1.1070 O   0  0  0  0  0  0  0  0  0  0  0  0
    0.1250    0.7650    0.2230 C   0  0  2  0  0  0  0  0  0  0  0  0
    0.5020    2.0460   -0.1040 O   0  0  0  0  0  0  0  0  0  0  0  0
  1  2  1  0
  2  3  1  0
  4  3  1  1
  4  5  1  0
  4 12  1  0
  5  6  1  0
  6  7  1  0
  7  8  1  6
  7  9  1  0
  9 10  1  1
  9 12  1  0
 10 11  1  0
 12 13  1  6
M  END
