
     RDKit          3D

 12 12  0  0  0  0  0  0  0  0999 V2000
    4.2000   -0.3250    0.3690 C   0  0  0  0  0  0  0  0  0  0  0  0
    2.8130   -0.6060    0.5860 O   0  0  0  0  0  0  0  0  0  0  0  0
    1.8250    0.1370   -0.0750 C   0  0  0  0  0  0  0  0  0  0  0  0
    2.2450    1.0380   -0.8440 O   0  0  0  0  0  0  0  0  0  0  0  0
    0.4040   -0.1370    0.1350 C   0  0  0  0  0  0  0  0  0  0  0  0
   -0.4480    0.6320   -0.5440 C   0  0  0  0  0  0  0  0  0  0  0  0
   -1.8780    0.4570   -0.4210 C   0  0  0  0  0  0  0  0  0  0  0  0
   -2.7450    1.2740   -0.9740 C   0  0  0  0  0  0  0  0  0  0  0  0
   -2.3060    2.3680   -1.7180 O   0  0  0  0  0  0  0  0  0  0  0  0
   -2.3410   -0.7020    0.3680 C   0  0  0  0  0  0  0  0  0  0  0  0
   -1.4230   -0.8240    1.5660 C   0  0  0  0  0  0  0  0  0  0  0  0
   -0.0400   -1.2060    1.0490 C   0  0  0  0  0  0  0  0  0  0  0  0
  1  2  1  0
  2  3  1  0
  3  4  2  0
  3  5  1  0
  5  6  2  0
  5 12  1  0
  6  7  1  0
  7  8  2  3
  7 10  1  0
  8  9  1  0
 10 11  1  0
 11 12  1  0
M  END
