
     RDKit          3D

 19 21  0  0  0  0  0  0  0  0999 V2000
   -1.4430    1.6530   -0.7790 N   0  0  0  0  0  0  0  0  0  0  0  0
   -1.1810    0.2910   -0.4640 C   0  0  0  0  0  0  0  0  0  0  0  0
   -2.1580   -0.6760   -0.3630 C   0  0  0  0  0  0  0  0  0  0  0  0
   -3.5540   -0.2890   -0.5780 C   0  0  0  0  0  0  0  0  0  0  0  0
   -4.1830    0.4290    0.5860 C   0  0  0  0  0  0  0  0  0  0  0  0
   -5.5530    0.7780    0.3030 N   0  0  0  0  0  0  0  0  0  0  0  0
   -1.8410   -1.9850   -0.0620 C   0  0  0  0  0  0  0  0  0  0  0  0
   -2.7500   -2.8800    0.0300 O   0  0  0  0  0  0  0  0  0  0  0  0
   -0.5500   -2.2900    0.1310 N   0  0  0  0  0  0  0  0  0  0  0  0
    0.4380   -1.3870    0.0450 C   0  0  0  0  0  0  0  0  0  0  0  0
    1.8090   -1.3960    0.1840 C   0  0  0  0  0  0  0  0  0  0  0  0
    2.3070   -0.1720   -0.0180 N   0  0  0  0  0  0  0  0  0  0  0  0
    3.6850    0.1740    0.0470 C   0  0  0  0  0  0  0  0  0  0  0  0
    4.6780   -0.6320    0.3160 C   0  0  0  0  0  0  0  0  0  0  0  0
    5.9280    0.1700    0.2730 C   0  0  0  0  0  0  0  0  0  0  0  0
    5.4920    1.5490   -0.0620 C   0  0  0  0  0  0  0  0  0  0  0  0
    4.1830    1.5280   -0.1880 C   0  0  0  0  0  0  0  0  0  0  0  0
    1.2710    0.6140   -0.2840 N   0  0  0  0  0  0  0  0  0  0  0  0
    0.1270   -0.0820   -0.2550 C   0  0  0  0  0  0  0  0  0  0  0  0
  1  2  1  0
  2  3  2  0
  2 19  1  0
  3  4  1  0
  3  7  1  0
  4  5  1  0
  5  6  1  0
  7  8  2  0
  7  9  1  0
  9 10  1  0
 10 11  2  0
 10 19  1  0
 11 12  1  0
 12 13  1  0
 12 18  1  0
 13 14  2  0
 13 17  1  0
 14 15  1  0
 15 16  1  0
 16 17  2  0
 18 19  2  0
M  CHG  1   6   1
M  END
