
     RDKit          3D

 19 21  0  0  0  0  0  0  0  0999 V2000
    3.7960   -2.0040   -2.6610 N   0  0  0  0  0  0  0  0  0  0  0  0
    3.4280   -1.1680   -1.5660 C   0  0  0  0  0  0  0  0  0  0  0  0
    4.3330   -0.8170   -0.5870 C   0  0  0  0  0  0  0  0  0  0  0  0
    3.9320   -0.0100    0.4470 C   0  0  0  0  0  0  0  0  0  0  0  0
    2.6330    0.4270    0.4750 C   0  0  0  0  0  0  0  0  0  0  0  0
    2.2270    1.2360    1.5100 C   0  0  0  0  0  0  0  0  0  0  0  0
    0.9240    1.6650    1.5240 C   0  0  0  0  0  0  0  0  0  0  0  0
    0.5150    2.4780    2.5620 O   0  0  0  0  0  0  0  0  0  0  0  0
   -0.0150    1.3230    0.5400 C   0  0  0  0  0  0  0  0  0  0  0  0
   -1.3380    1.8210    0.5970 N   0  0  0  0  0  0  0  0  0  0  0  0
   -2.3530    1.5030   -0.3350 C   0  0  0  0  0  0  0  0  0  0  0  0
   -2.9690    0.1600   -0.2070 C   0  0  0  0  0  0  0  0  0  0  0  0
   -4.2900    0.0420    0.0400 C   0  0  0  0  0  0  0  0  0  0  0  0
   -4.6260   -1.3900    0.1160 C   0  0  0  0  0  0  0  0  0  0  0  0
   -3.3370   -2.0450   -0.1200 C   0  0  0  0  0  0  0  0  0  0  0  0
   -2.4080   -1.1380   -0.3010 N   0  0  0  0  0  0  0  0  0  0  0  0
    0.4460    0.5330   -0.4380 N   0  0  0  0  0  0  0  0  0  0  0  0
    1.7060    0.0800   -0.5090 C   0  0  0  0  0  0  0  0  0  0  0  0
    2.1510   -0.7080   -1.4930 N   0  0  0  0  0  0  0  0  0  0  0  0
  1  2  1  0
  2  3  2  0
  2 19  1  0
  3  4  1  0
  4  5  2  0
  5  6  1  0
  5 18  1  0
  6  7  2  0
  7  8  1  0
  7  9  1  0
  9 10  1  0
  9 17  2  0
 10 11  1  0
 11 12  1  0
 12 13  2  0
 12 16  1  0
 13 14  1  0
 14 15  1  0
 15 16  2  0
 17 18  1  0
 18 19  2  0
M  CHG  1  16   1
M  END
