
     RDKit          3D

 19 20  0  0  0  0  0  0  0  0999 V2000
   -4.1470    1.4790    1.9040 C   0  0  0  0  0  0  0  0  0  0  0  0
   -4.6490    0.1120    1.7260 C   0  0  0  0  0  0  0  0  0  0  0  0
   -3.8800   -0.8210    1.2170 C   0  0  0  0  0  0  0  0  0  0  0  0
   -4.3590   -2.2260    1.0210 C   0  0  0  0  0  0  0  0  0  0  0  0
   -2.5160   -0.4590    0.8350 C   0  0  0  0  0  0  0  0  0  0  0  0
   -1.6820   -1.3450    0.3150 C   0  0  0  0  0  0  0  0  0  0  0  0
   -0.3240   -0.9890   -0.0660 C   0  0  0  0  0  0  0  0  0  0  0  0
    0.5120   -1.8940   -0.5910 N   0  0  0  0  0  0  0  0  0  0  0  0
    1.7750   -1.5960   -0.9550 C   0  0  0  0  0  0  0  0  0  0  0  0
    2.6650   -2.5400   -1.5090 N   0  0  0  0  0  0  0  0  0  0  0  0
    2.1940   -0.2940   -0.7640 C   0  0  0  0  0  0  0  0  0  0  0  0
    1.3480    0.6670   -0.2210 C   0  0  0  0  0  0  0  0  0  0  0  0
    0.0910    0.2760    0.1160 N   0  0  0  0  0  0  0  0  0  0  0  0
    2.0170    1.9170   -0.1310 N   0  0  0  0  0  0  0  0  0  0  0  0
    3.3280    1.7260   -0.6380 C   0  0  0  0  0  0  0  0  0  0  0  0
    4.2420    2.6680   -0.7130 C   0  0  0  0  0  0  0  0  0  0  0  0
    4.0420    3.9770   -0.3050 O   0  0  0  0  0  0  0  0  0  0  0  0
    3.4750    0.3440   -1.0460 C   0  0  0  0  0  0  0  0  0  0  0  0
    4.5340   -0.1900   -1.5530 N   0  0  0  0  0  0  0  0  0  0  0  0
  1  2  1  0
  2  3  2  3
  3  4  1  0
  3  5  1  0
  5  6  2  3
  6  7  1  0
  7  8  2  0
  7 13  1  0
  8  9  1  0
  9 10  1  0
  9 11  2  0
 11 12  1  0
 11 18  1  0
 12 13  2  0
 12 14  1  0
 14 15  1  0
 15 16  2  3
 15 18  1  0
 16 17  1  0
 18 19  2  0
M  CHG  1  19   1
M  END
