
     RDKit          3D

 19 20  0  0  0  0  0  0  0  0999 V2000
   -3.4850   -0.5350   -2.3050 C   0  0  0  0  0  0  0  0  0  0  0  0
   -3.0270   -0.9970   -1.1300 C   0  0  0  0  0  0  0  0  0  0  0  0
   -3.7260   -1.9450   -0.4160 C   0  0  0  0  0  0  0  0  0  0  0  0
   -2.9540   -2.1640    0.6790 C   0  0  0  0  0  0  0  0  0  0  0  0
   -1.8080   -1.3890    0.6670 N   0  0  0  0  0  0  0  0  0  0  0  0
   -0.8090   -1.3950    1.6130 C   0  0  0  0  0  0  0  0  0  0  0  0
    0.5300   -1.5620    1.5520 C   0  0  0  0  0  0  0  0  0  0  0  0
    1.5400   -1.1310    0.7340 C   0  0  0  0  0  0  0  0  0  0  0  0
    2.1230    0.1060    0.5010 C   0  0  0  0  0  0  0  0  0  0  0  0
    2.7310    0.3880   -0.8730 C   0  0  0  0  0  0  0  0  0  0  0  0
    3.1750    1.7270   -1.0080 N   0  0  0  0  0  0  0  0  0  0  0  0
    2.2270    1.1240    1.3750 N   0  0  0  0  0  0  0  0  0  0  0  0
    1.3590    1.4300    2.3820 C   0  0  0  0  0  0  0  0  0  0  0  0
    1.8090    1.5740    3.5790 O   0  0  0  0  0  0  0  0  0  0  0  0
    0.0420    1.5850    2.1480 N   0  0  0  0  0  0  0  0  0  0  0  0
   -0.5830    1.4610    1.0380 N   0  0  0  0  0  0  0  0  0  0  0  0
   -0.4350    1.3680   -0.2300 C   0  0  0  0  0  0  0  0  0  0  0  0
   -0.9210    0.2750   -0.9180 C   0  0  0  0  0  0  0  0  0  0  0  0
   -1.8530   -0.6680   -0.4470 C   0  0  0  0  0  0  0  0  0  0  0  0
  1  2  2  0
  2  3  1  0
  2 19  1  0
  3  4  2  0
  4  5  1  0
  5  6  1  0
  5 19  1  0
  6  7  2  0
  7  8  1  0
  8  9  2  0
  9 10  1  0
  9 12  1  0
 10 11  1  0
 12 13  1  0
 13 14  2  0
 13 15  1  0
 15 16  1  0
 16 17  2  0
 17 18  1  0
 18 19  2  0
M  CHG  1  11   1
M  END
