
     RDKit          3D

 19 21  0  0  0  0  0  0  0  0999 V2000
   -2.6270   -2.7310   -1.1030 N   0  0  0  0  0  0  0  0  0  0  0  0
   -2.2270   -1.4720   -0.6200 C   0  0  0  0  0  0  0  0  0  0  0  0
   -0.9120   -1.1330   -0.4770 N   0  0  0  0  0  0  0  0  0  0  0  0
   -0.5690    0.0750   -0.0150 C   0  0  0  0  0  0  0  0  0  0  0  0
    0.8390    0.4640    0.1480 C   0  0  0  0  0  0  0  0  0  0  0  0
    1.8690   -0.3880   -0.1650 C   0  0  0  0  0  0  0  0  0  0  0  0
    3.1780   -0.0170   -0.0100 C   0  0  0  0  0  0  0  0  0  0  0  0
    4.3130   -0.9230   -0.3420 C   0  0  0  0  0  0  0  0  0  0  0  0
    5.5590   -0.2350   -0.0680 N   0  0  0  0  0  0  0  0  0  0  0  0
    3.4340    1.2480    0.4730 C   0  0  0  0  0  0  0  0  0  0  0  0
    2.3900    2.0930    0.7830 C   0  0  0  0  0  0  0  0  0  0  0  0
    1.1410    1.6840    0.6140 N   0  0  0  0  0  0  0  0  0  0  0  0
   -1.5390    0.9370    0.3020 N   0  0  0  0  0  0  0  0  0  0  0  0
   -2.8460    0.6630    0.1840 C   0  0  0  0  0  0  0  0  0  0  0  0
   -3.2090   -0.5590   -0.2840 C   0  0  0  0  0  0  0  0  0  0  0  0
   -4.4910   -0.8710   -0.4160 C   0  0  0  0  0  0  0  0  0  0  0  0
   -5.4550    0.0660   -0.0710 O   0  0  0  0  0  0  0  0  0  0  0  0
   -5.1600    1.3480    0.4190 C   0  0  0  0  0  0  0  0  0  0  0  0
   -3.7070    1.6040    0.5320 C   0  0  0  0  0  0  0  0  0  0  0  0
  1  2  1  0
  2  3  2  0
  2 15  1  0
  3  4  1  0
  4  5  1  0
  4 13  2  0
  5  6  2  0
  5 12  1  0
  6  7  1  0
  7  8  1  0
  7 10  2  0
  8  9  1  0
 10 11  1  0
 11 12  2  0
 13 14  1  0
 14 15  1  0
 14 19  2  0
 15 16  2  0
 16 17  1  0
 17 18  1  0
 18 19  1  0
M  CHG  1   9   1
M  END
