
     RDKit          3D

 13 14  0  0  0  0  0  0  0  0999 V2000
   -3.4790    1.0510    0.4710 C   0  0  0  0  0  0  0  0  0  0  0  0
   -2.9810   -0.3170    0.1950 C   0  0  0  0  0  0  0  0  0  0  0  0
   -3.8220   -1.2470    0.0980 O   0  0  0  0  0  0  0  0  0  0  0  0
   -1.5740   -0.5520    0.0450 C   0  0  0  0  0  0  0  0  0  0  0  0
   -1.0960   -1.8320   -0.2140 C   0  0  0  0  0  0  0  0  0  0  0  0
    0.2670   -1.9900   -0.3480 C   0  0  0  0  0  0  0  0  0  0  0  0
    1.1220   -0.9190   -0.2280 C   0  0  0  0  0  0  0  0  0  0  0  0
    0.6630    0.3610    0.0300 C   0  0  0  0  0  0  0  0  0  0  0  0
   -0.7020    0.5050    0.1610 C   0  0  0  0  0  0  0  0  0  0  0  0
    1.5530    1.4050    0.1420 O   0  0  0  0  0  0  0  0  0  0  0  0
    2.8590    1.3210   -0.4130 C   0  0  0  0  0  0  0  0  0  0  0  0
    3.4090   -0.0420   -0.0230 C   0  0  0  0  0  0  0  0  0  0  0  0
    2.4940   -1.0740   -0.3610 O   0  0  0  0  0  0  0  0  0  0  0  0
  1  2  1  0
  2  3  2  0
  2  4  1  0
  4  5  2  0
  4  9  1  0
  5  6  1  0
  6  7  2  0
  7  8  1  0
  7 13  1  0
  8  9  2  0
  8 10  1  0
 10 11  1  0
 11 12  1  0
 12 13  1  0
M  END
