
     RDKit          3D

 12 11  0  0  0  0  0  0  0  0999 V2000
   -3.4620    1.6950   -0.1520 C   0  0  0  0  0  0  0  0  0  0  0  0
   -4.0150    0.3890   -0.5660 C   0  0  0  0  0  0  0  0  0  0  0  0
   -3.3090   -0.7150   -0.4400 C   0  0  0  0  0  0  0  0  0  0  0  0
   -1.9410   -0.6510    0.1240 C   0  0  0  0  0  0  0  0  0  0  0  0
   -0.9810   -1.1240   -0.7880 O   0  0  0  0  0  0  0  0  0  0  0  0
    0.4180   -1.1320   -0.3970 C   0  0  0  0  0  0  0  0  0  0  0  0
    1.0050   -0.0180   -0.6020 C   0  0  0  0  0  0  0  0  0  0  0  0
    2.3970    0.3360   -0.3330 C   0  0  0  0  0  0  0  0  0  0  0  0
    2.4980    1.5090    0.6480 C   0  0  0  0  0  0  0  0  0  0  0  0
    1.7830    2.6670   -0.0050 C   0  0  0  0  0  0  0  0  0  0  0  0
    0.7950   -2.4220    0.1330 C   0  0  0  0  0  0  0  0  0  0  0  0
    2.1590   -2.7040    0.6000 C   0  0  0  0  0  0  0  0  0  0  0  0
  1  2  1  0
  2  3  2  3
  3  4  1  0
  4  5  1  0
  5  6  1  0
  6  7  2  3
  6 11  1  0
  7  8  1  0
  8  9  1  0
  9 10  1  0
 11 12  1  0
M  END
