
     RDKit          3D

 11 12  0  0  0  0  0  0  0  0999 V2000
   -3.5500   -0.1900    1.3100 O   0  0  0  0  0  0  0  0  0  0  0  0
   -2.2410    0.1170    0.9310 C   0  0  0  0  0  0  0  0  0  0  0  0
   -1.3620   -0.8820    0.5450 C   0  0  0  0  0  0  0  0  0  0  0  0
   -0.0670   -0.6460    0.1620 C   0  0  0  0  0  0  0  0  0  0  0  0
    0.7820   -1.6210   -0.2130 N   0  0  0  0  0  0  0  0  0  0  0  0
    2.0550   -1.3860   -0.5890 C   0  0  0  0  0  0  0  0  0  0  0  0
    2.4890   -0.0760   -0.5830 C   0  0  0  0  0  0  0  0  0  0  0  0
    1.6510    0.9710   -0.2040 C   0  0  0  0  0  0  0  0  0  0  0  0
    0.3580    0.6740    0.1720 C   0  0  0  0  0  0  0  0  0  0  0  0
   -0.5020    1.6830    0.5530 C   0  0  0  0  0  0  0  0  0  0  0  0
   -1.7770    1.3800    0.9230 N   0  0  0  0  0  0  0  0  0  0  0  0
  1  2  1  0
  2  3  2  0
  2 11  1  0
  3  4  1  0
  4  5  2  0
  4  9  1  0
  5  6  1  0
  6  7  2  0
  7  8  1  0
  8  9  2  0
  9 10  1  0
 10 11  2  0
M  END
