
     RDKit          3D

 11 12  0  0  0  0  0  0  0  0999 V2000
   -1.6820    2.1130    0.5330 O   0  0  0  0  0  0  0  0  0  0  0  0
   -1.4970    0.9000    0.2550 C   0  0  0  0  0  0  0  0  0  0  0  0
   -2.5430    0.0710    0.1060 N   0  0  0  0  0  0  0  0  0  0  0  0
   -2.2650   -1.2120   -0.1920 C   0  0  0  0  0  0  0  0  0  0  0  0
   -0.9880   -1.6470   -0.3340 N   0  0  0  0  0  0  0  0  0  0  0  0
    0.0690   -0.8270   -0.1880 C   0  0  0  0  0  0  0  0  0  0  0  0
    1.3810   -1.2630   -0.3320 C   0  0  0  0  0  0  0  0  0  0  0  0
    2.4610   -0.4060   -0.1780 C   0  0  0  0  0  0  0  0  0  0  0  0
    2.1950    0.9190    0.1280 C   0  0  0  0  0  0  0  0  0  0  0  0
    0.8860    1.3590    0.2730 C   0  0  0  0  0  0  0  0  0  0  0  0
   -0.1830    0.4920    0.1170 C   0  0  0  0  0  0  0  0  0  0  0  0
  1  2  2  0
  2  3  1  0
  2 11  1  0
  3  4  1  0
  4  5  2  0
  5  6  1  0
  6  7  2  0
  6 11  1  0
  7  8  1  0
  8  9  2  0
  9 10  1  0
 10 11  2  0
M  END
