
     RDKit          3D

 11 12  0  0  0  0  0  0  0  0999 V2000
   -2.7460    0.8530   -0.0180 C   0  0  0  0  0  0  0  0  0  0  0  0
   -1.6930   -0.1530   -0.0710 N   0  0  0  0  0  0  0  0  0  0  0  0
   -1.8610   -1.4850   -0.1480 C   0  0  0  0  0  0  0  0  0  0  0  0
   -0.6730   -2.1130   -0.1780 N   0  0  0  0  0  0  0  0  0  0  0  0
    0.2960   -1.1660   -0.1180 C   0  0  0  0  0  0  0  0  0  0  0  0
    1.6780   -1.2080   -0.1130 C   0  0  0  0  0  0  0  0  0  0  0  0
    2.4530   -0.0700   -0.0440 C   0  0  0  0  0  0  0  0  0  0  0  0
    3.8500   -0.1460   -0.0410 O   0  0  0  0  0  0  0  0  0  0  0  0
    1.7900    1.1390    0.0220 C   0  0  0  0  0  0  0  0  0  0  0  0
    0.4130    1.1830    0.0180 C   0  0  0  0  0  0  0  0  0  0  0  0
   -0.3600    0.0430   -0.0520 C   0  0  0  0  0  0  0  0  0  0  0  0
  1  2  1  0
  2  3  1  0
  2 11  1  0
  3  4  2  0
  4  5  1  0
  5  6  2  0
  5 11  1  0
  6  7  1  0
  7  8  1  0
  7  9  2  0
  9 10  1  0
 10 11  2  0
M  END
