
     RDKit          3D

 10 11  0  0  0  0  0  0  0  0999 V2000
   -1.3510   -0.6590    0.7760 C   0  0  0  0  0  0  0  0  0  0  0  0
   -0.4600    0.0070    0.0640 C   0  0  0  0  0  0  0  0  0  0  0  0
    0.9780   -0.2040    0.0330 C   0  0  0  0  0  0  0  0  0  0  0  0
    1.7290   -1.1400    0.7360 C   0  0  0  0  0  0  0  0  0  0  0  0
    3.0260   -0.9770    0.4010 N   0  0  0  0  0  0  0  0  0  0  0  0
    3.1160    0.0120   -0.4730 N   0  0  0  0  0  0  0  0  0  0  0  0
    1.9000    0.4960   -0.7130 C   0  0  0  0  0  0  0  0  0  0  0  0
   -1.1820    1.0180   -0.7090 C   0  0  0  0  0  0  0  0  0  0  0  0
   -2.5390    0.7950   -0.5390 O   0  0  0  0  0  0  0  0  0  0  0  0
   -2.6990   -0.1080    0.4970 C   0  0  0  0  0  0  0  0  0  0  0  0
  1  2  2  0
  1 10  1  0
  2  3  1  0
  2  8  1  0
  3  4  1  0
  3  7  2  0
  4  5  2  0
  5  6  1  0
  6  7  1  0
  8  9  1  0
  9 10  1  0
M  END
