
     RDKit          3D

 23 23  0  0  0  0  0  0  0  0999 V2000
   -2.8740    0.2480   -1.5300 C   0  0  0  0  0  0  0  0  0  0  0  0
   -1.8870    0.3910   -0.4240 C   0  0  1  0  0  0  0  0  0  0  0  0
   -1.1960    1.6170   -0.5850 O   0  0  0  0  0  0  0  0  0  0  0  0
   -2.5790    0.4660    0.8890 C   0  0  2  0  0  0  0  0  0  0  0  0
   -3.4170   -0.7300    1.2300 C   0  0  0  0  0  0  0  0  0  0  0  0
   -4.4310   -0.9940    0.3460 O   0  0  0  0  0  0  0  0  0  0  0  0
   -3.4030    1.7010    1.0260 C   0  0  0  0  0  0  0  0  0  0  0  0
   -2.6710    2.8780    0.9190 O   0  0  0  0  0  0  0  0  0  0  0  0
   -0.8330   -0.6830   -0.4900 C   0  0  2  0  0  0  0  0  0  0  0  0
   -1.3180   -1.9580   -0.3520 O   0  0  0  0  0  0  0  0  0  0  0  0
    0.2610   -0.4260    0.5270 C   0  0  0  0  0  0  0  0  0  0  0  0
    1.4970   -0.3130   -0.3320 C   0  0  1  0  0  0  0  0  0  0  0  0
    1.6410    0.9760   -0.8050 O   0  0  0  0  0  0  0  0  0  0  0  0
    2.6990   -0.8560    0.2910 C   0  0  0  0  0  0  0  0  0  0  0  0
    2.6930   -2.0190    0.7600 O   0  0  0  0  0  0  0  0  0  0  0  0
    3.8600   -0.1220    0.3830 O   0  0  0  0  0  0  0  0  0  0  0  0
    5.0510   -0.6140    0.9810 C   0  0  0  0  0  0  0  0  0  0  0  0
    6.0660    0.4680    0.8840 C   0  0  0  0  0  0  0  0  0  0  0  0
    5.8370    1.5860    0.3540 O   0  0  0  0  0  0  0  0  0  0  0  0
    7.3430    0.2580    1.3970 O   0  0  0  0  0  0  0  0  0  0  0  0
    1.1610   -1.1150   -1.4340 O   0  0  0  0  0  0  0  0  0  0  0  0
   -0.0750   -0.5220   -1.7870 C   0  0  1  0  0  0  0  0  0  0  0  0
   -0.5930   -1.2630   -2.8210 O   0  0  0  0  0  0  0  0  0  0  0  0
  2  1  1  6
  2  3  1  0
  2  4  1  0
  2  9  1  0
  4  5  1  6
  4  7  1  0
  5  6  1  0
  7  8  1  0
  9 10  1  1
  9 11  1  0
  9 22  1  0
 11 12  1  0
 12 13  1  6
 12 14  1  0
 12 21  1  0
 14 15  2  0
 14 16  1  0
 16 17  1  0
 17 18  1  0
 18 19  2  0
 18 20  1  0
 21 22  1  0
 22 23  1  6
M  END
