
     RDKit          3D

 22 23  0  0  0  0  0  0  0  0999 V2000
    5.1570    1.0770   -0.8350 C   0  0  0  0  0  0  0  0  0  0  0  0
    3.8270    0.9520   -0.4220 O   0  0  0  0  0  0  0  0  0  0  0  0
    3.1620   -0.2360   -0.2180 C   0  0  0  0  0  0  0  0  0  0  0  0
    3.7940   -1.3000   -0.4170 O   0  0  0  0  0  0  0  0  0  0  0  0
    1.7700   -0.3100    0.2150 C   0  0  2  0  0  0  0  0  0  0  0  0
    1.3420   -1.6140    0.3440 O   0  0  0  0  0  0  0  0  0  0  0  0
    0.1010   -1.6760    1.0180 C   0  0  2  0  0  0  0  0  0  0  0  0
   -0.2640   -3.1170    1.0820 C   0  0  0  0  0  0  0  0  0  0  0  0
    0.4540   -4.0330    0.6020 O   0  0  0  0  0  0  0  0  0  0  0  0
   -1.4520   -3.5360    1.6930 O   0  0  0  0  0  0  0  0  0  0  0  0
   -0.8650   -0.8730    0.2320 C   0  0  1  0  0  0  0  0  0  0  0  0
   -1.1840   -1.4580   -1.1200 C   0  0  0  0  0  0  0  0  0  0  0  0
   -2.1440   -0.5350    0.9160 C   0  0  1  0  0  0  0  0  0  0  0  0
   -1.9260   -0.2440    2.2750 O   0  0  0  0  0  0  0  0  0  0  0  0
   -2.6030    0.7420    0.1990 C   0  0  0  0  0  0  0  0  0  0  0  0
   -1.3890    1.2500   -0.5540 C   0  0  1  0  0  0  0  0  0  0  0  0
   -1.5160    0.9940   -1.9230 O   0  0  0  0  0  0  0  0  0  0  0  0
   -1.2840    2.7720   -0.4180 C   0  0  0  0  0  0  0  0  0  0  0  0
   -2.4860    3.2730   -0.9680 O   0  0  0  0  0  0  0  0  0  0  0  0
   -0.2690    0.5360    0.0900 C   0  0  1  0  0  0  0  0  0  0  0  0
   -0.0680    1.0430    1.3610 O   0  0  0  0  0  0  0  0  0  0  0  0
    0.9040    0.4620   -0.5960 O   0  0  0  0  0  0  0  0  0  0  0  0
  1  2  1  0
  2  3  1  0
  3  4  2  0
  5  3  1  6
  5  6  1  0
  5 22  1  0
  6  7  1  0
  7  8  1  6
  7 11  1  0
  8  9  2  0
  8 10  1  0
 11 12  1  6
 11 13  1  0
 11 20  1  0
 13 14  1  1
 13 15  1  0
 15 16  1  0
 16 17  1  6
 16 18  1  0
 16 20  1  0
 18 19  1  0
 20 21  1  1
 20 22  1  0
M  END
