
     RDKit          3D

 22 23  0  0  0  0  0  0  0  0999 V2000
    4.8740   -0.9910    1.0110 O   0  0  0  0  0  0  0  0  0  0  0  0
    4.4430    0.0990    0.5970 C   0  0  0  0  0  0  0  0  0  0  0  0
    5.0870    1.3210    0.7620 O   0  0  0  0  0  0  0  0  0  0  0  0
    4.7030    2.2160   -0.2660 C   0  0  0  0  0  0  0  0  0  0  0  0
    3.6700    1.4810   -1.1040 C   0  0  0  0  0  0  0  0  0  0  0  0
    3.1990    0.4150   -0.1480 C   0  0  1  0  0  0  0  0  0  0  0  0
    2.6400   -0.6770   -0.7630 O   0  0  0  0  0  0  0  0  0  0  0  0
    1.3810   -0.8690   -0.2960 C   0  0  1  0  0  0  0  0  0  0  0  0
    0.3900   -0.8200   -1.2570 O   0  0  0  0  0  0  0  0  0  0  0  0
   -0.8660   -0.8680   -0.7670 C   0  0  2  0  0  0  0  0  0  0  0  0
   -1.7110   -1.3280   -1.8080 O   0  0  0  0  0  0  0  0  0  0  0  0
   -1.3340    0.5740   -0.5160 C   0  0  0  0  0  0  0  0  0  0  0  0
   -2.6300    0.4640   -0.0130 O   0  0  0  0  0  0  0  0  0  0  0  0
   -3.1930    1.7020    0.2650 C   0  0  0  0  0  0  0  0  0  0  0  0
   -4.5950    1.4280    0.8030 C   0  0  1  0  0  0  0  0  0  0  0  0
   -4.4140    0.6420    1.9580 O   0  0  0  0  0  0  0  0  0  0  0  0
   -5.2390    2.5850    1.1890 O   0  0  0  0  0  0  0  0  0  0  0  0
   -1.1320   -1.6860    0.4260 C   0  0  1  0  0  0  0  0  0  0  0  0
   -1.8400   -2.8660    0.0910 O   0  0  0  0  0  0  0  0  0  0  0  0
    0.0370   -2.1050    1.2400 C   0  0  0  0  0  0  0  0  0  0  0  0
    1.2550   -2.2670    0.3330 C   0  0  1  0  0  0  0  0  0  0  0  0
    0.8880   -3.1620   -0.6740 O   0  0  0  0  0  0  0  0  0  0  0  0
  1  2  2  0
  2  3  1  0
  2  6  1  0
  3  4  1  0
  4  5  1  0
  5  6  1  0
  6  7  1  6
  8  7  1  6
  8  9  1  0
  8 21  1  0
  9 10  1  0
 10 11  1  6
 10 12  1  0
 10 18  1  0
 12 13  1  0
 13 14  1  0
 14 15  1  0
 15 16  1  1
 15 17  1  0
 18 19  1  6
 18 20  1  0
 20 21  1  0
 21 22  1  6
M  END
