
     RDKit          3D

 22 22  0  0  0  0  0  0  0  0999 V2000
   -2.7620   -2.3400   -0.9900 O   0  0  0  0  0  0  0  0  0  0  0  0
   -2.1470   -1.1420   -1.3960 C   0  0  0  0  0  0  0  0  0  0  0  0
   -2.7210   -0.0170   -0.5400 C   0  0  1  0  0  0  0  0  0  0  0  0
   -2.1260    1.1600   -0.9310 O   0  0  0  0  0  0  0  0  0  0  0  0
   -1.5200    1.9060    0.0260 C   0  0  0  0  0  0  0  0  0  0  0  0
   -0.3670    1.3180    0.7520 C   0  0  1  0  0  0  0  0  0  0  0  0
   -0.5840    0.1610    1.4430 O   0  0  0  0  0  0  0  0  0  0  0  0
    0.8440    1.1210   -0.1570 C   0  0  0  0  0  0  0  0  0  0  0  0
    1.9400    0.8160    0.6760 O   0  0  0  0  0  0  0  0  0  0  0  0
    3.0370    0.6370   -0.1280 C   0  0  1  0  0  0  0  0  0  0  0  0
    4.0990    1.6490    0.2270 C   0  0  0  0  0  0  0  0  0  0  0  0
    4.8960    1.2650    1.2800 O   0  0  0  0  0  0  0  0  0  0  0  0
    5.5280    0.0610    1.1220 C   0  0  0  0  0  0  0  0  0  0  0  0
    5.0510   -0.7270   -0.0750 C   0  0  1  0  0  0  0  0  0  0  0  0
    5.5540   -2.0170    0.0130 O   0  0  0  0  0  0  0  0  0  0  0  0
    3.5240   -0.7830    0.0330 C   0  0  2  0  0  0  0  0  0  0  0  0
    2.9780   -1.6500   -0.8920 O   0  0  0  0  0  0  0  0  0  0  0  0
   -4.1070    0.0010   -0.8490 O   0  0  0  0  0  0  0  0  0  0  0  0
   -4.8930   -0.2410    0.2480 C   0  0  1  0  0  0  0  0  0  0  0  0
   -5.7030    0.9080    0.4150 O   0  0  0  0  0  0  0  0  0  0  0  0
   -5.8680   -1.3830    0.0310 C   0  0  0  0  0  0  0  0  0  0  0  0
   -6.6450   -1.5910    1.1700 O   0  0  0  0  0  0  0  0  0  0  0  0
  1  2  1  0
  3  2  1  6
  3  4  1  0
  3 18  1  0
  4  5  1  0
  5  6  1  0
  6  7  1  6
  6  8  1  0
  8  9  1  0
 10  9  1  1
 10 11  1  0
 10 16  1  0
 11 12  1  0
 12 13  1  0
 13 14  1  0
 14 15  1  1
 14 16  1  0
 16 17  1  6
 18 19  1  0
 19 20  1  6
 19 21  1  0
 21 22  1  0
M  END
