
     RDKit          3D

 22 22  0  0  0  0  0  0  0  0999 V2000
    6.3000    0.7160    0.8000 O   0  0  0  0  0  0  0  0  0  0  0  0
    5.3220    1.4320    0.4530 C   0  0  0  0  0  0  0  0  0  0  0  0
    5.2390    2.7470    0.9010 O   0  0  0  0  0  0  0  0  0  0  0  0
    4.3380    0.9050   -0.3690 O   0  0  0  0  0  0  0  0  0  0  0  0
    4.3870   -0.4390   -0.8480 C   0  0  0  0  0  0  0  0  0  0  0  0
    3.1320   -0.6170   -1.7090 C   0  0  2  0  0  0  0  0  0  0  0  0
    3.1440    0.2790   -2.7490 O   0  0  0  0  0  0  0  0  0  0  0  0
    1.9250   -0.3990   -0.8070 C   0  0  1  0  0  0  0  0  0  0  0  0
    2.0720    0.9360   -0.3330 O   0  0  0  0  0  0  0  0  0  0  0  0
    0.7470   -0.4430   -1.4500 O   0  0  0  0  0  0  0  0  0  0  0  0
   -0.2700   -1.2160   -1.0380 C   0  0  0  0  0  0  0  0  0  0  0  0
   -0.8620   -0.9100    0.3290 C   0  0  2  0  0  0  0  0  0  0  0  0
    0.1940   -1.0870    1.2400 O   0  0  0  0  0  0  0  0  0  0  0  0
   -1.9540   -1.9010    0.6190 C   0  0  0  0  0  0  0  0  0  0  0  0
   -3.2880   -1.5570    0.0640 C   0  0  0  0  0  0  0  0  0  0  0  0
   -3.4170   -0.1510   -0.4410 C   0  0  0  0  0  0  0  0  0  0  0  0
   -2.6870    0.8570    0.3610 C   0  0  1  0  0  0  0  0  0  0  0  0
   -3.3000    1.1490    1.6990 C   0  0  1  0  0  0  0  0  0  0  0  0
   -4.6040    1.6320    1.4390 O   0  0  0  0  0  0  0  0  0  0  0  0
   -3.4280    0.1010    2.5540 O   0  0  0  0  0  0  0  0  0  0  0  0
   -1.2450    0.5240    0.3840 C   0  0  1  0  0  0  0  0  0  0  0  0
   -0.5780    1.1650    1.4540 O   0  0  0  0  0  0  0  0  0  0  0  0
  1  2  2  0
  2  3  1  0
  2  4  1  0
  4  5  1  0
  5  6  1  0
  6  7  1  6
  6  8  1  0
  8  9  1  6
  8 10  1  0
 10 11  1  0
 11 12  1  0
 12 13  1  1
 12 14  1  0
 12 21  1  0
 14 15  1  0
 15 16  1  0
 17 16  1  1
 17 18  1  0
 17 21  1  0
 18 19  1  6
 18 20  1  0
 21 22  1  1
M  END
