
     RDKit          3D

 23 23  0  0  0  0  0  0  0  0999 V2000
    3.2890   -0.7710   -1.8760 O   0  0  0  0  0  0  0  0  0  0  0  0
    2.5600   -0.4490   -0.9030 C   0  0  0  0  0  0  0  0  0  0  0  0
    3.0000   -0.7170    0.3600 O   0  0  0  0  0  0  0  0  0  0  0  0
    4.1950   -1.3140    0.7470 C   0  0  0  0  0  0  0  0  0  0  0  0
    5.4510   -0.5730    0.4070 C   0  0  1  0  0  0  0  0  0  0  0  0
    5.5960   -0.4030   -0.9350 O   0  0  0  0  0  0  0  0  0  0  0  0
    5.4320    0.6630    1.1030 O   0  0  0  0  0  0  0  0  0  0  0  0
    1.2490    0.2090   -1.1620 C   0  0  1  0  0  0  0  0  0  0  0  0
    1.0810    0.3470   -2.5370 O   0  0  0  0  0  0  0  0  0  0  0  0
    0.0930   -0.6440   -0.6700 C   0  0  0  0  0  0  0  0  0  0  0  0
   -0.9110    0.4880   -0.3930 C   0  0  1  0  0  0  0  0  0  0  0  0
   -1.2440    1.0260   -1.6330 O   0  0  0  0  0  0  0  0  0  0  0  0
   -2.0630    0.0480    0.4080 C   0  0  2  0  0  0  0  0  0  0  0  0
   -3.0050    1.2110    0.6330 C   0  0  0  0  0  0  0  0  0  0  0  0
   -4.1180    0.8320    1.3840 O   0  0  0  0  0  0  0  0  0  0  0  0
   -1.5850   -0.3380    1.8200 C   0  0  0  0  0  0  0  0  0  0  0  0
   -2.7700   -0.7420    2.4840 O   0  0  0  0  0  0  0  0  0  0  0  0
   -2.7840   -1.1520   -0.1030 C   0  0  0  0  0  0  0  0  0  0  0  0
   -3.3650   -1.0120   -1.4770 C   0  0  0  0  0  0  0  0  0  0  0  0
   -4.2860   -0.0120   -1.6060 O   0  0  0  0  0  0  0  0  0  0  0  0
    0.0320    1.4660    0.2620 C   0  0  2  0  0  0  0  0  0  0  0  0
   -0.5060    2.7530    0.3460 O   0  0  0  0  0  0  0  0  0  0  0  0
    1.1380    1.4400   -0.5890 O   0  0  0  0  0  0  0  0  0  0  0  0
  1  2  2  0
  2  3  1  0
  2  8  1  0
  3  4  1  0
  4  5  1  0
  5  6  1  6
  5  7  1  0
  8  9  1  6
  8 10  1  0
  8 23  1  0
 10 11  1  0
 11 12  1  6
 11 13  1  0
 11 21  1  0
 13 14  1  1
 13 16  1  0
 13 18  1  0
 14 15  1  0
 16 17  1  0
 18 19  1  0
 19 20  1  0
 21 22  1  6
 21 23  1  0
M  END
