
     RDKit          3D

 25 28  0  0  0  0  0  0  0  0999 V2000
   -6.6560    0.1100   -0.6700 C   0  0  0  0  0  0  0  0  0  0  0  0
   -6.1830   -0.0920    0.7490 C   0  0  0  0  0  0  0  0  0  0  0  0
   -5.1610    0.8950    1.1650 C   0  0  0  0  0  0  0  0  0  0  0  0
   -5.3970    1.9400    1.9670 N   0  0  0  0  0  0  0  0  0  0  0  0
   -4.2900    2.6160    2.1420 N   0  0  0  0  0  0  0  0  0  0  0  0
   -3.3050    1.9990    1.4390 C   0  0  0  0  0  0  0  0  0  0  0  0
   -3.8060    0.9040    0.8020 C   0  0  0  0  0  0  0  0  0  0  0  0
   -3.2260   -0.0960   -0.0630 C   0  0  0  0  0  0  0  0  0  0  0  0
   -3.9180   -1.1420   -0.6230 N   0  0  0  0  0  0  0  0  0  0  0  0
   -3.1300   -1.8810   -1.3580 N   0  0  0  0  0  0  0  0  0  0  0  0
   -1.8740   -1.4020   -1.3500 C   0  0  0  0  0  0  0  0  0  0  0  0
   -0.6940   -1.7950   -1.9420 C   0  0  0  0  0  0  0  0  0  0  0  0
    0.4420   -1.0570   -1.7170 C   0  0  0  0  0  0  0  0  0  0  0  0
    0.3950    0.0490   -0.9180 C   0  0  0  0  0  0  0  0  0  0  0  0
    1.5720    0.8410   -0.6640 N   0  0  0  0  0  0  0  0  0  0  0  0
    2.3460    0.2610    0.3890 C   0  0  0  0  0  0  0  0  0  0  0  0
    3.6520   -0.3460   -0.0760 C   0  0  1  0  0  0  0  0  0  0  0  0
    4.4810    0.7130   -0.7070 C   0  0  0  0  0  0  0  0  0  0  0  0
    5.8940    0.1560   -0.8980 C   0  0  0  0  0  0  0  0  0  0  0  0
    6.4200   -0.0130    0.4390 N   0  0  0  0  0  0  0  0  0  0  0  0
    6.2600    1.1110    1.1360 F   0  0  0  0  0  0  0  0  0  0  0  0
    5.7710   -1.1610    1.0240 C   0  0  0  0  0  0  0  0  0  0  0  0
    4.2830   -1.0700    1.0570 C   0  0  0  0  0  0  0  0  0  0  0  0
   -0.7840    0.4350   -0.3300 C   0  0  0  0  0  0  0  0  0  0  0  0
   -1.9390   -0.2660   -0.5250 C   0  0  0  0  0  0  0  0  0  0  0  0
  1  2  1  0
  2  3  1  0
  3  4  2  0
  3  7  1  0
  4  5  1  0
  5  6  1  0
  6  7  2  0
  7  8  1  0
  8  9  2  0
  8 25  1  0
  9 10  1  0
 10 11  1  0
 11 12  2  0
 11 25  1  0
 12 13  1  0
 13 14  2  0
 14 15  1  0
 14 24  1  0
 15 16  1  0
 17 16  1  1
 17 18  1  0
 17 23  1  0
 18 19  1  0
 19 20  1  0
 20 21  1  0
 20 22  1  0
 22 23  1  0
 24 25  2  0
M  CHG  1  15   1
M  END
