
     RDKit          3D

 24 27  0  0  0  0  0  0  0  0999 V2000
   -5.8580    1.7310   -0.2770 C   0  0  0  0  0  0  0  0  0  0  0  0
   -5.4230    0.2890   -0.1050 C   0  0  2  0  0  0  0  0  0  0  0  0
   -5.9030   -0.4160   -1.3670 C   0  0  0  0  0  0  0  0  0  0  0  0
   -6.0920   -0.2300    1.1370 C   0  0  0  0  0  0  0  0  0  0  0  0
   -3.9380    0.2140   -0.0420 C   0  0  0  0  0  0  0  0  0  0  0  0
   -3.1880   -0.8150    0.4580 N   0  0  0  0  0  0  0  0  0  0  0  0
   -1.8650   -0.5130    0.3270 C   0  0  0  0  0  0  0  0  0  0  0  0
   -0.6930   -1.1610    0.6360 C   0  0  0  0  0  0  0  0  0  0  0  0
    0.5080   -0.5410    0.3370 C   0  0  0  0  0  0  0  0  0  0  0  0
    1.7200   -1.1790    0.5870 C   0  0  0  0  0  0  0  0  0  0  0  0
    2.9170   -0.5910    0.2500 C   0  0  0  0  0  0  0  0  0  0  0  0
    4.1750   -1.2520    0.4870 N   0  0  0  0  0  0  0  0  0  0  0  0
    5.2270   -1.1940   -0.4970 C   0  0  0  0  0  0  0  0  0  0  0  0
    6.4410   -0.4890   -0.1450 C   0  0  0  0  0  0  0  0  0  0  0  0
    7.5010   -1.0090    0.5870 C   0  0  0  0  0  0  0  0  0  0  0  0
    8.4400   -0.0560    0.6590 N   0  0  0  0  0  0  0  0  0  0  0  0
    8.0340    1.0130    0.0240 N   0  0  0  0  0  0  0  0  0  0  0  0
    6.8150    0.8110   -0.4910 C   0  0  0  0  0  0  0  0  0  0  0  0
    2.9380    0.6520   -0.3420 C   0  0  0  0  0  0  0  0  0  0  0  0
    1.7550    1.3070   -0.6000 C   0  0  0  0  0  0  0  0  0  0  0  0
    0.5400    0.7070   -0.2610 C   0  0  0  0  0  0  0  0  0  0  0  0
   -0.6280    1.2860   -0.5330 N   0  0  0  0  0  0  0  0  0  0  0  0
   -1.8340    0.7310   -0.2660 C   0  0  0  0  0  0  0  0  0  0  0  0
   -3.1030    1.1650   -0.4870 N   0  0  0  0  0  0  0  0  0  0  0  0
  2  1  1  6
  2  3  1  0
  2  4  1  0
  2  5  1  0
  5  6  1  0
  5 24  2  0
  6  7  1  0
  7  8  2  0
  7 23  1  0
  8  9  1  0
  9 10  2  0
  9 21  1  0
 10 11  1  0
 11 12  1  0
 11 19  2  0
 12 13  1  0
 13 14  1  0
 14 15  1  0
 14 18  2  0
 15 16  2  0
 16 17  1  0
 17 18  1  0
 19 20  1  0
 20 21  2  0
 21 22  1  0
 22 23  2  0
 23 24  1  0
M  CHG  1  24   1
M  END
