
     RDKit          3D

 25 27  0  0  0  0  0  0  0  0999 V2000
    7.1270   -1.4760   -1.0520 N   0  0  0  0  0  0  0  0  0  0  0  0
    5.6980   -1.5740   -1.2400 C   0  0  0  0  0  0  0  0  0  0  0  0
    4.9880   -0.7190   -0.2260 C   0  0  0  0  0  0  0  0  0  0  0  0
    5.6760   -0.1050    0.7980 C   0  0  0  0  0  0  0  0  0  0  0  0
    5.0510    0.6790    1.7380 C   0  0  0  0  0  0  0  0  0  0  0  0
    3.6730    0.8400    1.6250 C   0  0  0  0  0  0  0  0  0  0  0  0
    2.9590    1.6000    2.5100 C   0  0  0  0  0  0  0  0  0  0  0  0
    1.6410    1.7340    2.3730 N   0  0  0  0  0  0  0  0  0  0  0  0
    0.9490    1.1390    1.3730 C   0  0  0  0  0  0  0  0  0  0  0  0
   -0.5410    1.3460    1.2870 C   0  0  0  0  0  0  0  0  0  0  0  0
   -1.1250    0.6400    0.1200 C   0  0  0  0  0  0  0  0  0  0  0  0
   -2.5700    0.7720   -0.0090 N   0  0  0  0  0  0  0  0  0  0  0  0
   -3.1320    1.4930    1.0630 C   0  0  0  0  0  0  0  0  0  0  0  0
   -4.2610    1.4240    1.7710 C   0  0  0  0  0  0  0  0  0  0  0  0
   -5.3670    0.5380    1.6880 N   0  0  0  0  0  0  0  0  0  0  0  0
   -5.4980   -0.7960    1.2030 C   0  0  0  0  0  0  0  0  0  0  0  0
   -5.1590   -0.9870   -0.2240 C   0  0  0  0  0  0  0  0  0  0  0  0
   -4.2620   -0.6530   -1.1420 C   0  0  0  0  0  0  0  0  0  0  0  0
   -4.6040   -1.2540   -2.4090 C   0  0  0  0  0  0  0  0  0  0  0  0
   -3.9270   -1.1240   -3.5010 C   0  0  0  0  0  0  0  0  0  0  0  0
   -2.7990   -0.4230   -3.6670 F   0  0  0  0  0  0  0  0  0  0  0  0
   -3.0540    0.1450   -1.2070 C   0  0  0  0  0  0  0  0  0  0  0  0
    1.6340    0.3940    0.5020 N   0  0  0  0  0  0  0  0  0  0  0  0
    2.9820    0.2240    0.5980 C   0  0  0  0  0  0  0  0  0  0  0  0
    3.6590   -0.5290   -0.2870 N   0  0  0  0  0  0  0  0  0  0  0  0
  1  2  1  0
  2  3  1  0
  3  4  2  0
  3 25  1  0
  4  5  1  0
  5  6  2  0
  6  7  1  0
  6 24  1  0
  7  8  2  0
  8  9  1  0
  9 10  1  0
  9 23  2  0
 10 11  1  0
 11 12  1  0
 12 13  1  0
 12 22  1  0
 13 14  2  0
 14 15  1  0
 15 16  1  0
 16 17  1  0
 17 18  2  0
 18 19  1  0
 18 22  1  0
 19 20  2  3
 20 21  1  0
 23 24  1  0
 24 25  2  0
M  CHG  1   1   1
M  END
