
     RDKit          3D

  8  8  0  0  0  0  0  0  0  0999 V2000
    1.4960   -1.3190   -1.2390 O   0  0  0  0  0  0  0  0  0  0  0  0
    1.8200   -0.0940   -1.1580 C   0  0  0  0  0  0  0  0  0  0  0  0
    2.9190    0.4420   -1.7910 O   0  0  0  0  0  0  0  0  0  0  0  0
    1.0030    0.7430   -0.3760 N   0  0  0  0  0  0  0  0  0  0  0  0
   -0.1500    0.2130    0.2970 C   0  0  0  0  0  0  0  0  0  0  0  0
   -0.7300   -0.9800    0.4020 C   0  0  0  0  0  0  0  0  0  0  0  0
   -1.7720   -0.4480    1.2650 C   0  0  0  0  0  0  0  0  0  0  0  0
   -1.2010    0.7370    1.1630 C   0  0  0  0  0  0  0  0  0  0  0  0
  1  2  2  0
  2  3  1  0
  2  4  1  0
  4  5  1  0
  5  6  2  0
  5  8  1  0
  6  7  1  0
  7  8  2  0
M  CHG  1   3  -1
M  END
