
     RDKit          3D

 24 27  0  0  0  0  0  0  0  0999 V2000
    3.6850    0.0520   -1.8030 C   0  0  0  0  0  0  0  0  0  0  0  0
    4.0530   -0.3920   -0.4100 C   0  0  0  0  0  0  0  0  0  0  0  0
    3.0520   -0.6850    0.4990 C   0  0  0  0  0  0  0  0  0  0  0  0
    1.6740   -0.4950    0.0600 C   0  0  0  0  0  0  0  0  0  0  0  0
    0.6600   -0.6040    1.1050 N   0  0  0  0  0  0  0  0  0  0  0  0
   -0.6420   -0.2420    0.6020 C   0  0  0  0  0  0  0  0  0  0  0  0
   -1.2580    0.8920    1.1250 C   0  0  0  0  0  0  0  0  0  0  0  0
   -2.4320    1.3260    0.6940 C   0  0  0  0  0  0  0  0  0  0  0  0
   -3.0630    2.6390    1.1010 C   0  0  0  0  0  0  0  0  0  0  0  0
   -3.5660    2.5270    2.4580 N   0  0  0  0  0  0  0  0  0  0  0  0
   -3.0970    0.6450   -0.3110 C   0  0  0  0  0  0  0  0  0  0  0  0
   -2.5210   -0.4940   -0.8390 C   0  0  0  0  0  0  0  0  0  0  0  0
   -1.3210   -0.8880   -0.3700 N   0  0  0  0  0  0  0  0  0  0  0  0
   -3.5580   -1.2580   -1.6520 C   0  0  1  0  0  0  0  0  0  0  0  0
   -3.9630   -2.4520   -0.7140 C   0  0  0  0  0  0  0  0  0  0  0  0
   -4.7700   -0.3550   -1.6310 C   0  0  0  0  0  0  0  0  0  0  0  0
   -4.3090    0.9630   -1.1020 C   0  0  0  0  0  0  0  0  0  0  0  0
    3.4810   -1.1060    1.7470 C   0  0  0  0  0  0  0  0  0  0  0  0
    4.7700   -1.2060    2.0110 N   0  0  0  0  0  0  0  0  0  0  0  0
    5.7170   -0.8950    1.0890 C   0  0  0  0  0  0  0  0  0  0  0  0
    7.1020   -0.8750    1.1330 C   0  0  0  0  0  0  0  0  0  0  0  0
    7.5600   -0.4410   -0.0940 C   0  0  0  0  0  0  0  0  0  0  0  0
    6.4350   -0.2210   -0.8290 N   0  0  0  0  0  0  0  0  0  0  0  0
    5.3530   -0.4830   -0.1340 N   0  0  0  0  0  0  0  0  0  0  0  0
  1  2  1  0
  2  3  2  0
  2 24  1  0
  3  4  1  0
  3 18  1  0
  4  5  1  0
  5  6  1  0
  6  7  2  0
  6 13  1  0
  7  8  1  0
  8  9  1  0
  8 11  2  0
  9 10  1  0
 11 12  1  0
 11 17  1  0
 12 13  2  0
 12 14  1  0
 14 15  1  1
 14 16  1  0
 16 17  1  0
 18 19  2  0
 19 20  1  0
 20 21  2  0
 20 24  1  0
 21 22  1  0
 22 23  2  0
 23 24  1  0
M  CHG  1  10   1
M  END
