
     RDKit          3D

 25 28  0  0  0  0  0  0  0  0999 V2000
    1.0710    1.9380    1.0790 C   0  0  0  0  0  0  0  0  0  0  0  0
    0.4160    0.7770    0.3870 C   0  0  0  0  0  0  0  0  0  0  0  0
   -0.8950    0.6630    0.2990 N   0  0  0  0  0  0  0  0  0  0  0  0
   -1.4920   -0.4530   -0.1880 C   0  0  0  0  0  0  0  0  0  0  0  0
   -2.8430   -0.7410   -0.3470 C   0  0  0  0  0  0  0  0  0  0  0  0
   -3.8760    0.1850   -0.0230 N   0  0  0  0  0  0  0  0  0  0  0  0
   -5.2880   -0.1020   -0.0260 C   0  0  0  0  0  0  0  0  0  0  0  0
   -5.9450    1.0650    0.6270 C   0  0  0  0  0  0  0  0  0  0  0  0
   -4.9500    2.1490    0.7950 C   0  0  0  0  0  0  0  0  0  0  0  0
   -3.6880    1.5750    0.2790 C   0  0  0  0  0  0  0  0  0  0  0  0
   -2.8370   -1.9950   -0.8570 C   0  0  0  0  0  0  0  0  0  0  0  0
   -4.0500   -2.7810   -1.2180 C   0  0  0  0  0  0  0  0  0  0  0  0
   -1.5390   -2.4220   -0.9900 N   0  0  0  0  0  0  0  0  0  0  0  0
   -0.7050   -1.4370   -0.5700 N   0  0  0  0  0  0  0  0  0  0  0  0
    0.6680   -1.4060   -0.5150 C   0  0  0  0  0  0  0  0  0  0  0  0
    1.3820   -2.6130   -1.1010 C   0  0  0  0  0  0  0  0  0  0  0  0
    1.2460   -0.2890   -0.0360 C   0  0  0  0  0  0  0  0  0  0  0  0
    2.6630    0.0280   -0.0890 C   0  0  0  0  0  0  0  0  0  0  0  0
    3.6400   -0.4580    0.8040 N   0  0  0  0  0  0  0  0  0  0  0  0
    4.9470    0.1220    0.6610 C   0  0  0  0  0  0  0  0  0  0  0  0
    6.0680   -0.4370    0.2480 C   0  0  0  0  0  0  0  0  0  0  0  0
    7.1530    0.4870    0.2620 N   0  0  0  0  0  0  0  0  0  0  0  0
    6.6140    1.6980    0.7400 C   0  0  0  0  0  0  0  0  0  0  0  0
    5.3210    1.4970    0.9710 C   0  0  0  0  0  0  0  0  0  0  0  0
    4.4700    2.4850    1.4300 F   0  0  0  0  0  0  0  0  0  0  0  0
  1  2  1  0
  2  3  2  0
  2 17  1  0
  3  4  1  0
  4  5  2  0
  4 14  1  0
  5  6  1  0
  5 11  1  0
  6  7  1  0
  6 10  1  0
  7  8  1  0
  8  9  1  0
  9 10  1  0
 11 12  1  0
 11 13  2  0
 13 14  1  0
 14 15  1  0
 15 16  1  0
 15 17  2  0
 17 18  1  0
 18 19  1  0
 19 20  1  0
 20 21  2  0
 20 24  1  0
 21 22  1  0
 22 23  1  0
 23 24  2  0
 24 25  1  0
M  CHG  1  22   1
M  END
