
     RDKit          3D

 24 27  0  0  0  0  0  0  0  0999 V2000
   -5.2150    0.8640   -2.1120 C   0  0  0  0  0  0  0  0  0  0  0  0
   -4.6560   -0.4120   -1.5160 C   0  0  0  0  0  0  0  0  0  0  0  0
   -4.0840   -0.1560   -0.1820 C   0  0  0  0  0  0  0  0  0  0  0  0
   -2.7200   -0.0650    0.0030 C   0  0  0  0  0  0  0  0  0  0  0  0
   -2.2060    0.1740    1.2380 N   0  0  0  0  0  0  0  0  0  0  0  0
   -0.9530    0.2950    1.6650 C   0  0  0  0  0  0  0  0  0  0  0  0
    0.2880    0.1200    1.0110 N   0  0  0  0  0  0  0  0  0  0  0  0
    1.4150    0.7140    1.7310 C   0  0  0  0  0  0  0  0  0  0  0  0
    2.2950    1.4140    0.7510 C   0  0  0  0  0  0  0  0  0  0  0  0
    3.1810    0.4200    0.0720 C   0  0  0  0  0  0  0  0  0  0  0  0
    4.4780    0.6610   -0.2750 C   0  0  0  0  0  0  0  0  0  0  0  0
    4.9900   -0.4760   -0.8840 C   0  0  0  0  0  0  0  0  0  0  0  0
    6.3590   -0.6670   -1.4160 C   0  0  0  0  0  0  0  0  0  0  0  0
    7.1910    0.4470   -1.0980 N   0  0  0  0  0  0  0  0  0  0  0  0
    3.9540   -1.3930   -0.8840 C   0  0  0  0  0  0  0  0  0  0  0  0
    2.8800   -0.8380   -0.3070 N   0  0  0  0  0  0  0  0  0  0  0  0
    1.6520   -1.5770   -0.1640 C   0  0  0  0  0  0  0  0  0  0  0  0
    0.4210   -0.6350   -0.1890 C   0  0  0  0  0  0  0  0  0  0  0  0
   -1.0160    0.5390    3.0190 N   0  0  0  0  0  0  0  0  0  0  0  0
   -2.2550    0.5650    3.4270 N   0  0  0  0  0  0  0  0  0  0  0  0
   -2.9980    0.3330    2.3100 C   0  0  0  0  0  0  0  0  0  0  0  0
   -4.3760    0.2460    2.1540 C   0  0  0  0  0  0  0  0  0  0  0  0
   -4.9090   -0.0000    0.8990 C   0  0  0  0  0  0  0  0  0  0  0  0
   -6.3830   -0.1290    0.7080 C   0  0  0  0  0  0  0  0  0  0  0  0
  1  2  1  0
  2  3  1  0
  3  4  2  0
  3 23  1  0
  4  5  1  0
  5  6  1  0
  5 21  1  0
  6  7  1  0
  6 19  2  0
  7  8  1  0
  7 18  1  0
  8  9  1  0
  9 10  1  0
 10 11  2  0
 10 16  1  0
 11 12  1  0
 12 13  1  0
 12 15  2  0
 13 14  1  0
 15 16  1  0
 16 17  1  0
 17 18  1  0
 19 20  1  0
 20 21  2  0
 21 22  1  0
 22 23  2  0
 23 24  1  0
M  CHG  1  14   1
M  END
