
     RDKit          3D

 25 27  0  0  0  0  0  0  0  0999 V2000
    6.3880    0.8000    0.9320 C   0  0  0  0  0  0  0  0  0  0  0  0
    6.9440    0.8780   -0.4540 C   0  0  0  0  0  0  0  0  0  0  0  0
    6.2360    0.0380   -1.3240 O   0  0  0  0  0  0  0  0  0  0  0  0
    4.8750    0.2080   -1.5370 C   0  0  0  0  0  0  0  0  0  0  0  0
    4.3050    1.1320   -0.9310 O   0  0  0  0  0  0  0  0  0  0  0  0
    4.0960   -0.6600   -2.4490 C   0  0  0  0  0  0  0  0  0  0  0  0
    2.7340   -0.3780   -2.4930 O   0  0  0  0  0  0  0  0  0  0  0  0
    1.8260   -0.4480   -1.4690 C   0  0  0  0  0  0  0  0  0  0  0  0
    2.1970   -0.8450   -0.2090 C   0  0  0  0  0  0  0  0  0  0  0  0
    1.2300   -0.8980    0.8090 C   0  0  0  0  0  0  0  0  0  0  0  0
   -0.0860   -0.5620    0.5770 C   0  0  0  0  0  0  0  0  0  0  0  0
   -0.9880   -0.6260    1.5820 N   0  0  0  0  0  0  0  0  0  0  0  0
   -2.2680   -0.3010    1.3630 C   0  0  0  0  0  0  0  0  0  0  0  0
   -3.2260   -0.3510    2.3600 C   0  0  0  0  0  0  0  0  0  0  0  0
   -2.7090   -0.8610    3.9450 Cl  0  0  0  0  0  0  0  0  0  0  0  0
   -4.5280   -0.0030    2.0690 C   0  0  0  0  0  0  0  0  0  0  0  0
   -4.9280    0.3990    0.8120 C   0  0  0  0  0  0  0  0  0  0  0  0
   -6.3290    0.7740    0.5000 C   0  0  0  0  0  0  0  0  0  0  0  0
   -7.1530   -0.4000    0.0440 C   0  0  0  0  0  0  0  0  0  0  0  0
   -3.9760    0.4510   -0.1850 C   0  0  0  0  0  0  0  0  0  0  0  0
   -2.6510    0.1000    0.0970 C   0  0  0  0  0  0  0  0  0  0  0  0
   -1.7340    0.1690   -0.9430 C   0  0  0  0  0  0  0  0  0  0  0  0
   -2.1350    0.5440   -2.0910 O   0  0  0  0  0  0  0  0  0  0  0  0
   -0.4220   -0.1680   -0.7020 C   0  0  0  0  0  0  0  0  0  0  0  0
    0.5040   -0.1050   -1.7230 C   0  0  0  0  0  0  0  0  0  0  0  0
  1  2  1  0
  2  3  1  0
  3  4  1  0
  4  5  2  0
  4  6  1  0
  6  7  1  0
  7  8  1  0
  8  9  2  0
  8 25  1  0
  9 10  1  0
 10 11  2  0
 11 12  1  0
 11 24  1  0
 12 13  1  0
 13 14  2  0
 13 21  1  0
 14 15  1  0
 14 16  1  0
 16 17  2  0
 17 18  1  0
 17 20  1  0
 18 19  1  0
 20 21  2  0
 21 22  1  0
 22 23  2  0
 22 24  1  0
 24 25  2  0
M  END
