
     RDKit          3D

 22 25  0  0  0  0  0  0  0  0999 V2000
    6.9310    0.2610    0.1020 C   0  0  0  0  0  0  0  0  0  0  0  0
    6.5270   -0.1640   -1.1470 C   0  0  0  0  0  0  0  0  0  0  0  0
    5.1710   -0.3090   -1.4450 C   0  0  0  0  0  0  0  0  0  0  0  0
    4.1990   -0.0340   -0.5120 C   0  0  0  0  0  0  0  0  0  0  0  0
    2.7780   -0.1960   -0.8560 C   0  0  0  0  0  0  0  0  0  0  0  0
    2.3130   -0.6000   -2.0330 N   0  0  0  0  0  0  0  0  0  0  0  0
    1.0070   -0.6270   -1.9810 N   0  0  0  0  0  0  0  0  0  0  0  0
    0.5890   -0.2400   -0.7620 C   0  0  0  0  0  0  0  0  0  0  0  0
   -0.8030   -0.1390   -0.3110 C   0  0  0  0  0  0  0  0  0  0  0  0
   -1.8570   -0.4480   -1.1390 C   0  0  0  0  0  0  0  0  0  0  0  0
   -3.1780   -0.3540   -0.7170 C   0  0  0  0  0  0  0  0  0  0  0  0
   -3.4910    0.0570    0.5590 C   0  0  0  0  0  0  0  0  0  0  0  0
   -4.8430    0.1610    1.0160 N   0  0  0  0  0  0  0  0  0  0  0  0
   -5.9150   -0.1100    0.2830 C   0  0  0  0  0  0  0  0  0  0  0  0
   -7.0790    0.0960    1.0350 C   0  0  0  0  0  0  0  0  0  0  0  0
   -6.6190    0.5090    2.2650 C   0  0  0  0  0  0  0  0  0  0  0  0
   -5.2840    0.5300    2.1980 N   0  0  0  0  0  0  0  0  0  0  0  0
   -2.4270    0.3640    1.3820 C   0  0  0  0  0  0  0  0  0  0  0  0
   -1.1140    0.2720    0.9660 C   0  0  0  0  0  0  0  0  0  0  0  0
    1.7080    0.0250   -0.0750 N   0  0  0  0  0  0  0  0  0  0  0  0
    4.6040    0.3910    0.7360 C   0  0  0  0  0  0  0  0  0  0  0  0
    5.9530    0.5350    1.0350 C   0  0  0  0  0  0  0  0  0  0  0  0
  1  2  2  0
  1 22  1  0
  2  3  1  0
  3  4  2  0
  4  5  1  0
  4 21  1  0
  5  6  2  0
  5 20  1  0
  6  7  1  0
  7  8  1  0
  8  9  1  0
  8 20  2  0
  9 10  2  0
  9 19  1  0
 10 11  1  0
 11 12  2  0
 12 13  1  0
 12 18  1  0
 13 14  1  0
 13 17  1  0
 14 15  2  0
 15 16  1  0
 16 17  2  0
 18 19  2  0
 21 22  2  0
M  END
