
     RDKit          3D

 25 27  0  0  0  0  0  0  0  0999 V2000
   -6.7400    1.1050    2.2900 C   0  0  0  0  0  0  0  0  0  0  0  0
   -5.5430    0.8650    1.4060 C   0  0  0  0  0  0  0  0  0  0  0  0
   -5.3410   -0.3090    0.8510 C   0  0  0  0  0  0  0  0  0  0  0  0
   -4.2230   -0.6440   -0.0150 C   0  0  0  0  0  0  0  0  0  0  0  0
   -4.0880   -2.0230   -0.5980 C   0  0  0  0  0  0  0  0  0  0  0  0
   -3.3120    0.2690   -0.2970 C   0  0  0  0  0  0  0  0  0  0  0  0
   -2.1670   -0.0660   -1.1800 C   0  0  0  0  0  0  0  0  0  0  0  0
   -0.8520    0.0930   -0.4830 C   0  0  0  0  0  0  0  0  0  0  0  0
    0.2770   -0.2450   -1.3710 C   0  0  0  0  0  0  0  0  0  0  0  0
    0.0490   -0.6070   -2.5440 O   0  0  0  0  0  0  0  0  0  0  0  0
    1.6360   -0.1700   -0.9300 N   0  0  0  0  0  0  0  0  0  0  0  0
    2.7190   -0.5040   -1.8150 C   0  0  0  0  0  0  0  0  0  0  0  0
    4.0640   -0.3850   -1.2360 C   0  0  0  0  0  0  0  0  0  0  0  0
    4.3720    0.0090    0.0450 C   0  0  0  0  0  0  0  0  0  0  0  0
    5.6920    0.0920    0.5060 C   0  0  0  0  0  0  0  0  0  0  0  0
    6.7490   -0.2220   -0.3170 C   0  0  0  0  0  0  0  0  0  0  0  0
    6.4500   -0.6160   -1.6000 C   0  0  0  0  0  0  0  0  0  0  0  0
    5.1550   -0.7000   -2.0580 C   0  0  0  0  0  0  0  0  0  0  0  0
    4.8190   -1.2090   -3.7070 Cl  0  0  0  0  0  0  0  0  0  0  0  0
    7.9280   -0.0480    0.4060 O   0  0  0  0  0  0  0  0  0  0  0  0
    7.6040    0.0340    1.8000 C   0  0  0  0  0  0  0  0  0  0  0  0
    6.2530    0.4530    1.7230 O   0  0  0  0  0  0  0  0  0  0  0  0
   -3.4800    1.5990    0.2780 C   0  0  0  0  0  0  0  0  0  0  0  0
   -2.6110    2.4570   -0.0260 O   0  0  0  0  0  0  0  0  0  0  0  0
   -4.5790    1.9620    1.1610 C   0  0  0  0  0  0  0  0  0  0  0  0
  1  2  1  0
  2  3  2  0
  2 25  1  0
  3  4  1  0
  4  5  1  0
  4  6  2  0
  6  7  1  0
  6 23  1  0
  7  8  1  0
  8  9  1  0
  9 10  2  0
  9 11  1  0
 11 12  1  0
 12 13  1  0
 13 14  2  0
 13 18  1  0
 14 15  1  0
 15 16  2  0
 15 22  1  0
 16 17  1  0
 16 20  1  0
 17 18  2  0
 18 19  1  0
 20 21  1  0
 21 22  1  0
 23 24  2  0
 23 25  1  0
M  END
