
     RDKit          3D

 22 25  0  0  0  0  0  0  0  0999 V2000
    6.4580   -1.0560    0.5770 C   0  0  0  0  0  0  0  0  0  0  0  0
    5.2190   -1.5200    0.9450 C   0  0  0  0  0  0  0  0  0  0  0  0
    4.0600   -0.8200    0.5970 C   0  0  0  0  0  0  0  0  0  0  0  0
    4.1020    0.3510   -0.1200 C   0  0  0  0  0  0  0  0  0  0  0  0
    2.9670    1.1050   -0.5120 N   0  0  0  0  0  0  0  0  0  0  0  0
    1.6320    0.7020   -0.3260 C   0  0  0  0  0  0  0  0  0  0  0  0
    0.4890    1.4230   -0.6910 C   0  0  0  0  0  0  0  0  0  0  0  0
   -0.6320    0.7000   -0.3530 C   0  0  0  0  0  0  0  0  0  0  0  0
   -1.9610    0.9040   -0.4680 N   0  0  0  0  0  0  0  0  0  0  0  0
   -2.8160   -0.0360   -0.0210 C   0  0  0  0  0  0  0  0  0  0  0  0
   -4.2430    0.2020   -0.1540 C   0  0  0  0  0  0  0  0  0  0  0  0
   -5.2360   -0.6580    0.2530 C   0  0  0  0  0  0  0  0  0  0  0  0
   -6.5890   -0.3570    0.0890 C   0  0  0  0  0  0  0  0  0  0  0  0
   -6.9110    0.8440   -0.4990 C   0  0  0  0  0  0  0  0  0  0  0  0
   -5.9520    1.6980   -0.9030 N   0  0  0  0  0  0  0  0  0  0  0  0
   -4.6510    1.4000   -0.7420 C   0  0  0  0  0  0  0  0  0  0  0  0
   -2.3580   -1.2040    0.5540 C   0  0  0  0  0  0  0  0  0  0  0  0
   -0.9790   -1.3980    0.6650 C   0  0  0  0  0  0  0  0  0  0  0  0
   -0.1690   -0.4310    0.2040 N   0  0  0  0  0  0  0  0  0  0  0  0
    1.1660   -0.4090    0.2090 N   0  0  0  0  0  0  0  0  0  0  0  0
    5.3850    0.7980   -0.4800 C   0  0  0  0  0  0  0  0  0  0  0  0
    6.5210    0.1140   -0.1410 C   0  0  0  0  0  0  0  0  0  0  0  0
  1  2  2  0
  1 22  1  0
  2  3  1  0
  3  4  2  0
  4  5  1  0
  4 21  1  0
  5  6  1  0
  6  7  1  0
  6 20  2  0
  7  8  2  0
  8  9  1  0
  8 19  1  0
  9 10  2  0
 10 11  1  0
 10 17  1  0
 11 12  2  0
 11 16  1  0
 12 13  1  0
 13 14  2  0
 14 15  1  0
 15 16  2  0
 17 18  2  0
 18 19  1  0
 19 20  1  0
 21 22  2  0
M  END
