
     RDKit          3D

 19 19  0  0  0  0  0  0  0  0999 V2000
    5.8520    0.7010    0.2390 C   0  0  0  0  0  0  0  0  0  0  0  0
    5.7380    0.4020   -1.2480 C   0  0  0  0  0  0  0  0  0  0  0  0
    4.2910    0.3150   -1.6150 C   0  0  0  0  0  0  0  0  0  0  0  0
    3.6190   -0.7680   -0.8450 C   0  0  0  0  0  0  0  0  0  0  0  0
    2.5960   -0.5020   -0.0360 C   0  0  0  0  0  0  0  0  0  0  0  0
    1.8900   -1.5420    0.7540 C   0  0  0  0  0  0  0  0  0  0  0  0
    0.4220   -1.5770    0.3570 C   0  0  0  0  0  0  0  0  0  0  0  0
   -0.1070   -0.3400    0.6180 O   0  0  0  0  0  0  0  0  0  0  0  0
   -1.4640   -0.2460    0.2920 C   0  0  1  0  0  0  0  0  0  0  0  0
   -2.1640   -0.0410    1.4290 O   0  0  0  0  0  0  0  0  0  0  0  0
   -3.4090    0.4710    1.3720 C   0  0  2  0  0  0  0  0  0  0  0  0
   -4.4430   -0.4170    2.0330 C   0  0  0  0  0  0  0  0  0  0  0  0
   -4.5050   -1.6710    1.4340 O   0  0  0  0  0  0  0  0  0  0  0  0
   -3.8610    0.8500   -0.0360 C   0  0  1  0  0  0  0  0  0  0  0  0
   -5.0630    1.5120   -0.0040 O   0  0  0  0  0  0  0  0  0  0  0  0
   -2.7290    1.7270   -0.5430 C   0  0  2  0  0  0  0  0  0  0  0  0
   -3.0670    2.4650   -1.6440 O   0  0  0  0  0  0  0  0  0  0  0  0
   -1.6020    0.7380   -0.8050 C   0  0  2  0  0  0  0  0  0  0  0  0
   -1.8950    0.1200   -2.0210 O   0  0  0  0  0  0  0  0  0  0  0  0
  1  2  1  0
  2  3  1  0
  3  4  1  0
  4  5  2  3
  5  6  1  0
  6  7  1  0
  7  8  1  0
  9  8  1  1
  9 10  1  0
  9 18  1  0
 10 11  1  0
 11 12  1  6
 11 14  1  0
 12 13  1  0
 14 15  1  1
 14 16  1  0
 16 17  1  6
 16 18  1  0
 18 19  1  6
M  END
