
     RDKit          3D

 22 25  0  0  0  0  0  0  0  0999 V2000
    0.5640    3.5520   -1.5270 C   0  0  0  0  0  0  0  0  0  0  0  0
    0.5810    2.9880   -0.1470 C   0  0  0  0  0  0  0  0  0  0  0  0
    1.1630    1.6460   -0.0270 C   0  0  0  0  0  0  0  0  0  0  0  0
    0.5880    0.4420   -0.3740 C   0  0  0  0  0  0  0  0  0  0  0  0
   -0.7180    0.2800   -0.9310 N   0  0  0  0  0  0  0  0  0  0  0  0
   -1.0700    0.3570   -2.2420 C   0  0  0  0  0  0  0  0  0  0  0  0
   -2.3960    0.1370   -2.2920 N   0  0  0  0  0  0  0  0  0  0  0  0
   -2.8720   -0.0750   -1.0290 C   0  0  0  0  0  0  0  0  0  0  0  0
   -1.7850    0.0220   -0.1940 C   0  0  0  0  0  0  0  0  0  0  0  0
   -2.0260   -0.1790    1.2580 C   0  0  0  0  0  0  0  0  0  0  0  0
   -2.9170   -1.4320    1.3260 C   0  0  0  0  0  0  0  0  0  0  0  0
   -4.2700   -0.9770    0.8420 C   0  0  0  0  0  0  0  0  0  0  0  0
   -4.2220   -0.3540   -0.4980 C   0  0  0  0  0  0  0  0  0  0  0  0
    1.4890   -0.5600   -0.0910 C   0  0  0  0  0  0  0  0  0  0  0  0
    1.3490   -1.9490   -0.2710 N   0  0  0  0  0  0  0  0  0  0  0  0
    2.4020   -2.8400    0.0800 C   0  0  0  0  0  0  0  0  0  0  0  0
    3.7360   -2.7570    0.1100 C   0  0  0  0  0  0  0  0  0  0  0  0
    3.8370   -4.1220    0.5810 C   0  0  0  0  0  0  0  0  0  0  0  0
    2.5250   -4.2100    0.5540 C   0  0  0  0  0  0  0  0  0  0  0  0
    2.5770    0.0620    0.4170 N   0  0  0  0  0  0  0  0  0  0  0  0
    2.4010    1.3720    0.4630 N   0  0  0  0  0  0  0  0  0  0  0  0
    3.3230    2.3930    0.9390 C   0  0  0  0  0  0  0  0  0  0  0  0
  1  2  1  0
  2  3  1  0
  3  4  2  0
  3 21  1  0
  4  5  1  0
  4 14  1  0
  5  6  1  0
  5  9  1  0
  6  7  2  0
  7  8  1  0
  8  9  2  0
  8 13  1  0
  9 10  1  0
 10 11  1  0
 11 12  1  0
 12 13  1  0
 14 15  1  0
 14 20  2  0
 15 16  1  0
 16 17  2  0
 16 19  1  0
 17 18  1  0
 18 19  2  0
 20 21  1  0
 21 22  1  0
M  END
