
     RDKit          3D

 25 27  0  0  0  0  0  0  0  0999 V2000
   -4.8460   -1.1490    0.0210 C   0  0  0  0  0  0  0  0  0  0  0  0
   -3.8910   -0.2710   -0.0600 C   0  0  0  0  0  0  0  0  0  0  0  0
   -4.1520    0.9530   -0.8450 C   0  0  0  0  0  0  0  0  0  0  0  0
   -3.2270    1.7260   -1.4250 C   0  0  0  0  0  0  0  0  0  0  0  0
   -3.7030    2.8290   -2.1150 O   0  0  0  0  0  0  0  0  0  0  0  0
   -3.5290    4.1130   -1.5120 C   0  0  0  0  0  0  0  0  0  0  0  0
   -1.7740    1.5170   -1.4000 C   0  0  0  0  0  0  0  0  0  0  0  0
   -0.9920    0.6550   -0.7900 C   0  0  0  0  0  0  0  0  0  0  0  0
    0.4490    0.7500   -1.0050 C   0  0  0  0  0  0  0  0  0  0  0  0
    0.8610    1.6490   -1.7590 O   0  0  0  0  0  0  0  0  0  0  0  0
    1.3270   -0.1490   -0.3750 N   0  0  0  0  0  0  0  0  0  0  0  0
    2.7470   -0.1730   -0.4930 C   0  0  0  0  0  0  0  0  0  0  0  0
    3.4660    0.7060   -1.2610 C   0  0  0  0  0  0  0  0  0  0  0  0
    4.8490    0.6410   -1.3430 C   0  0  0  0  0  0  0  0  0  0  0  0
    5.4950   -0.3330   -0.6310 C   0  0  0  0  0  0  0  0  0  0  0  0
    4.7950   -1.2210    0.1420 C   0  0  0  0  0  0  0  0  0  0  0  0
    3.4420   -1.1510    0.2170 C   0  0  0  0  0  0  0  0  0  0  0  0
    2.9660   -2.2500    1.1360 C   0  0  0  0  0  0  0  0  0  0  0  0
    4.2350   -2.4870    1.9470 C   0  0  0  0  0  0  0  0  0  0  0  0
    5.2260   -2.2790    0.9420 O   0  0  0  0  0  0  0  0  0  0  0  0
   -1.3850   -0.3870    0.0750 O   0  0  0  0  0  0  0  0  0  0  0  0
   -2.6630   -0.5800    0.6370 C   0  0  0  0  0  0  0  0  0  0  0  0
   -2.7060   -1.0580    1.8460 C   0  0  0  0  0  0  0  0  0  0  0  0
   -1.4450   -1.3800    2.5540 C   0  0  0  0  0  0  0  0  0  0  0  0
   -4.1960   -1.2910    2.7080 Cl  0  0  0  0  0  0  0  0  0  0  0  0
  1  2  2  0
  2  3  1  0
  2 22  1  0
  3  4  2  0
  4  5  1  0
  4  7  1  0
  5  6  1  0
  7  8  2  0
  8  9  1  0
  8 21  1  0
  9 10  2  0
  9 11  1  0
 11 12  1  0
 12 13  2  0
 12 17  1  0
 13 14  1  0
 14 15  2  0
 15 16  1  0
 16 17  2  0
 16 20  1  0
 17 18  1  0
 18 19  1  0
 19 20  1  0
 21 22  1  0
 22 23  2  3
 23 24  1  0
 23 25  1  0
M  END
