
     RDKit          3D

 39 42  0  0  0  0  0  0  0  0999 V2000
    5.9020    3.0570    2.8690 C   0  0  0  0  0  0  0  0  0  0  0  0
    5.7650    1.6550    2.9280 O   0  0  0  0  0  0  0  0  0  0  0  0
    5.5740    0.9560    1.7430 C   0  0  0  0  0  0  0  0  0  0  0  0
    5.5080    1.5340    0.4950 C   0  0  0  0  0  0  0  0  0  0  0  0
    5.3190    0.8460   -0.6860 C   0  0  0  0  0  0  0  0  0  0  0  0
    5.1860   -0.5200   -0.6250 C   0  0  0  0  0  0  0  0  0  0  0  0
    5.2520   -1.1470    0.6270 C   0  0  0  0  0  0  0  0  0  0  0  0
    5.4370   -0.4470    1.7780 C   0  0  0  0  0  0  0  0  0  0  0  0
    5.1120   -2.5500    0.5140 O   0  0  0  0  0  0  0  0  0  0  0  0
    5.8870   -3.1660   -0.5370 C   0  0  0  0  0  0  0  0  0  0  0  0
    5.5830   -2.6030   -1.8930 C   0  0  1  0  0  0  0  0  0  0  0  0
    4.6140   -3.6070   -2.5430 C   0  0  0  0  0  0  0  0  0  0  0  0
    4.9350   -1.2960   -1.7710 N   0  0  0  0  0  0  0  0  0  0  0  0
    4.0080   -0.8430   -2.7350 C   0  0  0  0  0  0  0  0  0  0  0  0
    4.1130   -1.3650   -3.9060 O   0  0  0  0  0  0  0  0  0  0  0  0
    2.9470    0.1450   -2.5090 C   0  0  2  0  0  0  0  0  0  0  0  0
    2.0050   -0.4490   -1.4650 C   0  0  0  0  0  0  0  0  0  0  0  0
    0.7760   -0.7910   -2.0510 N   0  0  0  0  0  0  0  0  0  0  0  0
    0.0220   -2.2250   -1.7470 S   0  0  1  0  0  0  0  0  0  0  0  0
   -1.2030   -2.3620   -2.6530 O   0  0  0  0  0  0  0  0  0  0  0  0
    0.9380   -3.3940   -2.1240 O   0  0  0  0  0  0  0  0  0  0  0  0
   -0.4480   -2.5340   -0.0600 C   0  0  0  0  0  0  0  0  0  0  0  0
   -1.3820   -1.4820    0.3650 C   0  0  0  0  0  0  0  0  0  0  0  0
   -0.9430   -0.3500    1.0000 C   0  0  0  0  0  0  0  0  0  0  0  0
   -1.8770    0.6190    1.3880 C   0  0  0  0  0  0  0  0  0  0  0  0
   -3.2260    0.4900    1.1620 C   0  0  0  0  0  0  0  0  0  0  0  0
   -4.2120    1.5100    1.5960 C   0  0  2  0  0  0  0  0  0  0  0  0
   -4.0160    1.8140    2.9330 O   0  0  0  0  0  0  0  0  0  0  0  0
   -5.6410    1.0520    1.3200 C   0  0  0  0  0  0  0  0  0  0  0  0
   -6.5430    2.1430    1.8070 C   0  0  1  0  0  0  0  0  0  0  0  0
   -6.1750    3.4450    1.0550 C   0  0  0  0  0  0  0  0  0  0  0  0
   -7.9710    1.8480    1.4470 C   0  0  0  0  0  0  0  0  0  0  0  0
   -8.4710    0.5810    2.0300 C   0  0  0  0  0  0  0  0  0  0  0  0
   -7.8200   -0.5620    1.6320 O   0  0  0  0  0  0  0  0  0  0  0  0
   -3.6270   -0.6830    0.5090 C   0  0  0  0  0  0  0  0  0  0  0  0
   -2.7200   -1.6420    0.1230 C   0  0  0  0  0  0  0  0  0  0  0  0
    0.0930    0.3020   -2.6230 C   0  0  0  0  0  0  0  0  0  0  0  0
    1.0720    1.1480   -3.4540 C   0  0  0  0  0  0  0  0  0  0  0  0
    2.2190    0.3770   -3.6920 O   0  0  0  0  0  0  0  0  0  0  0  0
  1  2  1  0
  2  3  1  0
  3  4  2  0
  3  8  1  0
  4  5  1  0
  5  6  2  0
  6  7  1  0
  6 13  1  0
  7  8  2  0
  7  9  1  0
  9 10  1  0
 10 11  1  0
 11 12  1  1
 11 13  1  0
 13 14  1  0
 14 15  2  0
 16 14  1  6
 16 17  1  0
 16 39  1  0
 17 18  1  0
 18 19  1  0
 18 37  1  0
 19 20  2  0
 19 21  2  0
 19 22  1  1
 22 23  1  0
 23 24  2  0
 23 36  1  0
 24 25  1  0
 25 26  2  0
 26 27  1  0
 26 35  1  0
 27 28  1  1
 27 29  1  0
 29 30  1  0
 30 31  1  6
 30 32  1  0
 32 33  1  0
 33 34  1  0
 35 36  2  0
 37 38  1  0
 38 39  1  0
M  END
