
     RDKit          3D

 39 41  0  0  0  0  0  0  0  0999 V2000
   -8.3820   -0.4860    0.6300 C   0  0  0  0  0  0  0  0  0  0  0  0
   -7.6950   -0.6550   -0.6930 C   0  0  0  0  0  0  0  0  0  0  0  0
   -6.2370   -0.6220   -0.5930 N   0  0  0  0  0  0  0  0  0  0  0  0
   -5.6380    0.5600   -0.0730 C   0  0  0  0  0  0  0  0  0  0  0  0
   -6.4010    1.4940    0.2630 O   0  0  0  0  0  0  0  0  0  0  0  0
   -4.1850    0.7360    0.0890 C   0  0  0  0  0  0  0  0  0  0  0  0
   -3.6970    1.8240    0.5560 C   0  0  0  0  0  0  0  0  0  0  0  0
   -4.3850    3.0100    0.9840 C   0  0  0  0  0  0  0  0  0  0  0  0
   -3.6910    4.0710    1.4670 C   0  0  0  0  0  0  0  0  0  0  0  0
   -4.3030    5.2590    1.9020 N   0  0  0  0  0  0  0  0  0  0  0  0
   -3.3660   -0.3630   -0.3680 N   0  0  0  0  0  0  0  0  0  0  0  0
   -2.0170   -0.2980   -0.6490 C   0  0  0  0  0  0  0  0  0  0  0  0
   -1.4060    0.8310   -0.5400 O   0  0  0  0  0  0  0  0  0  0  0  0
   -1.1320   -1.3730   -1.0770 C   0  0  0  0  0  0  0  0  0  0  0  0
   -0.0210   -1.0510   -1.8240 N   0  0  0  0  0  0  0  0  0  0  0  0
    0.8970   -1.9450   -2.2020 C   0  0  0  0  0  0  0  0  0  0  0  0
    2.0980   -1.5920   -3.0040 C   0  0  0  0  0  0  0  0  0  0  0  0
    3.2660   -1.2200   -2.1150 C   0  0  0  0  0  0  0  0  0  0  0  0
    2.8180   -0.0220   -1.2980 C   0  0  0  0  0  0  0  0  0  0  0  0
    3.8300    0.4350   -0.4010 N   0  0  0  0  0  0  0  0  0  0  0  0
    5.1830    0.1780   -0.8520 C   0  0  0  0  0  0  0  0  0  0  0  0
    6.1240    0.7080    0.1970 C   0  0  0  0  0  0  0  0  0  0  0  0
    6.4440   -0.0410    1.3050 C   0  0  0  0  0  0  0  0  0  0  0  0
    7.3090    0.4120    2.3010 C   0  0  0  0  0  0  0  0  0  0  0  0
    7.8530    1.6870    2.1250 C   0  0  0  0  0  0  0  0  0  0  0  0
    7.5500    2.4570    1.0260 C   0  0  0  0  0  0  0  0  0  0  0  0
    6.6730    1.9590    0.0490 C   0  0  0  0  0  0  0  0  0  0  0  0
    8.1770    3.6240    1.0680 C   0  0  0  0  0  0  0  0  0  0  0  0
    8.9740    3.6270    2.3170 C   0  0  0  0  0  0  0  0  0  0  0  0
    8.6960    2.3270    2.9320 C   0  0  0  0  0  0  0  0  0  0  0  0
    0.7040   -3.2520   -1.8150 C   0  0  0  0  0  0  0  0  0  0  0  0
   -0.3690   -3.6660   -1.0730 C   0  0  0  0  0  0  0  0  0  0  0  0
   -1.3030   -2.6580   -0.7080 C   0  0  0  0  0  0  0  0  0  0  0  0
   -2.4280   -3.1240    0.0660 C   0  0  0  0  0  0  0  0  0  0  0  0
   -2.5980   -2.8850    1.2830 O   0  0  0  0  0  0  0  0  0  0  0  0
   -3.4380   -3.9320   -0.5800 N   0  0  0  0  0  0  0  0  0  0  0  0
   -4.5560   -4.4060    0.1730 C   0  0  0  0  0  0  0  0  0  0  0  0
   -5.5560   -5.2330   -0.3850 N   0  0  0  0  0  0  0  0  0  0  0  0
   -4.6790   -4.0150    1.7590 S   0  0  0  0  0  0  0  0  0  0  0  0
  1  2  1  0
  2  3  1  0
  3  4  1  0
  4  5  2  0
  4  6  1  0
  6  7  2  3
  6 11  1  0
  7  8  1  0
  8  9  2  3
  9 10  1  0
 11 12  1  0
 12 13  2  0
 12 14  1  0
 14 15  2  0
 14 33  1  0
 15 16  1  0
 16 17  1  0
 16 31  2  0
 17 18  1  0
 18 19  1  0
 19 20  1  0
 20 21  1  0
 21 22  1  0
 22 23  1  0
 22 27  2  0
 23 24  2  0
 24 25  1  0
 25 26  1  0
 25 30  2  0
 26 27  1  0
 26 28  2  0
 28 29  1  0
 29 30  1  0
 31 32  1  0
 32 33  2  0
 33 34  1  0
 34 35  2  0
 34 36  1  0
 36 37  1  0
 37 38  1  0
 37 39  2  0
M  CHG  2  10   1  20   1
M  END
