
     RDKit          3D

 39 42  0  0  0  0  0  0  0  0999 V2000
    6.7290    4.0390    0.6490 C   0  0  0  0  0  0  0  0  0  0  0  0
    7.4580    3.0090    1.3470 N   0  0  0  0  0  0  0  0  0  0  0  0
    6.5440    2.0610    1.9420 C   0  0  0  0  0  0  0  0  0  0  0  0
    6.7860    1.5270    3.1820 C   0  0  0  0  0  0  0  0  0  0  0  0
    5.9160    0.6220    3.7500 C   0  0  0  0  0  0  0  0  0  0  0  0
    4.7880    0.2400    3.0740 C   0  0  0  0  0  0  0  0  0  0  0  0
    4.4970    0.7590    1.7980 C   0  0  0  0  0  0  0  0  0  0  0  0
    3.2700    0.4350    1.1260 C   0  0  0  0  0  0  0  0  0  0  0  0
    2.3730    0.0500    1.9820 O   0  0  0  0  0  0  0  0  0  0  0  0
    3.0050    0.4960   -0.2220 N   0  0  0  0  0  0  0  0  0  0  0  0
    3.9190    0.8420   -1.3230 C   0  0  0  0  0  0  0  0  0  0  0  0
    3.4500    2.0890   -1.9760 C   0  0  0  0  0  0  0  0  0  0  0  0
    2.0300    2.5010   -1.6710 C   0  0  0  0  0  0  0  0  0  0  0  0
    1.1670    1.3080   -1.6330 C   0  0  0  0  0  0  0  0  0  0  0  0
    0.1520    1.0620   -2.2890 O   0  0  0  0  0  0  0  0  0  0  0  0
    1.6180    0.2750   -0.6470 C   0  0  0  0  0  0  0  0  0  0  0  0
    0.9120   -0.7130   -0.2740 C   0  0  0  0  0  0  0  0  0  0  0  0
   -0.4290   -0.8100   -0.7490 N   0  0  0  0  0  0  0  0  0  0  0  0
   -1.5360   -0.1210   -0.1620 C   0  0  0  0  0  0  0  0  0  0  0  0
   -2.7980   -0.4520   -0.9210 C   0  0  0  0  0  0  0  0  0  0  0  0
   -2.6970   -1.2250   -1.8880 O   0  0  0  0  0  0  0  0  0  0  0  0
   -4.0370    0.0720   -0.5730 N   0  0  0  0  0  0  0  0  0  0  0  0
   -5.3020   -0.1370   -1.1650 C   0  0  0  0  0  0  0  0  0  0  0  0
   -5.4820   -1.0990   -2.1100 C   0  0  0  0  0  0  0  0  0  0  0  0
   -6.7340   -1.2960   -2.7050 C   0  0  0  0  0  0  0  0  0  0  0  0
   -7.8030   -0.5190   -2.3430 C   0  0  0  0  0  0  0  0  0  0  0  0
   -9.0850   -0.6950   -2.9300 N   0  0  0  0  0  0  0  0  0  0  0  0
   -7.6010    0.4590   -1.3770 C   0  0  0  0  0  0  0  0  0  0  0  0
   -8.7880    1.2820   -1.0080 C   0  0  0  0  0  0  0  0  0  0  0  0
   -8.3810    2.2330    0.0010 N   0  0  0  0  0  0  0  0  0  0  0  0
   -6.3860    0.6570   -0.7930 C   0  0  0  0  0  0  0  0  0  0  0  0
    1.3860   -1.7730    0.5110 N   0  0  0  0  0  0  0  0  0  0  0  0
    0.6520   -2.5740    1.4510 C   0  0  2  0  0  0  0  0  0  0  0  0
    1.6030   -3.5090    2.2110 C   0  0  0  0  0  0  0  0  0  0  0  0
    2.4130   -4.3750    1.3110 C   0  0  0  0  0  0  0  0  0  0  0  0
    1.4350   -5.2560    0.0810 S   0  0  0  0  0  0  0  0  0  0  0  0
   -0.0080   -4.2370   -0.3200 C   0  0  0  0  0  0  0  0  0  0  0  0
   -0.4430   -3.4130    0.8410 C   0  0  0  0  0  0  0  0  0  0  0  0
    5.3840    1.6520    1.2790 C   0  0  0  0  0  0  0  0  0  0  0  0
  1  2  1  0
  2  3  1  0
  3  4  2  0
  3 39  1  0
  4  5  1  0
  5  6  2  0
  6  7  1  0
  7  8  1  0
  7 39  2  0
  8  9  2  0
  8 10  1  0
 10 11  1  0
 10 16  1  0
 11 12  1  0
 12 13  1  0
 13 14  1  0
 14 15  2  0
 14 16  1  0
 16 17  2  3
 17 18  1  0
 17 32  1  0
 18 19  1  0
 19 20  1  0
 20 21  2  0
 20 22  1  0
 22 23  1  0
 23 24  2  0
 23 31  1  0
 24 25  1  0
 25 26  2  0
 26 27  1  0
 26 28  1  0
 28 29  1  0
 28 31  2  0
 29 30  1  0
 33 32  1  6
 33 34  1  0
 33 38  1  0
 34 35  1  0
 35 36  1  0
 36 37  1  0
 37 38  1  0
M  CHG  2   2   1  30   1
M  END
