
     RDKit          3D

 39 41  0  0  0  0  0  0  0  0999 V2000
    9.8900   -1.4190    0.9190 C   0  0  0  0  0  0  0  0  0  0  0  0
    9.1860   -0.4370   -0.0180 C   0  0  1  0  0  0  0  0  0  0  0  0
    8.0080    0.0270    0.6690 N   0  0  0  0  0  0  0  0  0  0  0  0
    6.7090   -0.1530    0.4940 C   0  0  0  0  0  0  0  0  0  0  0  0
    6.4060   -0.9630   -0.6320 O   0  0  0  0  0  0  0  0  0  0  0  0
    5.5170    0.1890    1.0870 N   0  0  0  0  0  0  0  0  0  0  0  0
    4.1960   -0.2310    0.8700 C   0  0  0  0  0  0  0  0  0  0  0  0
    3.8340   -1.5130    1.3070 C   0  0  0  0  0  0  0  0  0  0  0  0
    2.4640   -1.9250    1.0350 C   0  0  0  0  0  0  0  0  0  0  0  0
    1.7840   -1.1590    0.4720 C   0  0  0  0  0  0  0  0  0  0  0  0
    0.5400   -1.5520   -0.3090 C   0  0  0  0  0  0  0  0  0  0  0  0
   -0.7080   -1.9310   -1.0850 C   0  0  0  0  0  0  0  0  0  0  0  0
   -1.9540   -2.2930   -1.8330 C   0  0  0  0  0  0  0  0  0  0  0  0
   -2.8920   -1.3870   -1.3730 N   0  0  0  0  0  0  0  0  0  0  0  0
   -2.9420   -0.0060   -1.6260 C   0  0  0  0  0  0  0  0  0  0  0  0
   -3.9500    0.4300   -0.3190 C   0  0  0  0  0  0  0  0  0  0  0  0
   -4.6710    0.7560    0.6310 C   0  0  0  0  0  0  0  0  0  0  0  0
   -5.5570    1.1550    1.7690 C   0  0  0  0  0  0  0  0  0  0  0  0
   -6.4890    0.0230    1.8890 N   0  0  0  0  0  0  0  0  0  0  0  0
   -7.3670   -0.3680    0.8360 C   0  0  2  0  0  0  0  0  0  0  0  0
   -6.7570   -1.0300   -0.3780 C   0  0  0  0  0  0  0  0  0  0  0  0
   -6.0870   -2.2520   -0.0880 N   0  0  0  0  0  0  0  0  0  0  0  0
   -8.4010    0.5600    0.3690 C   0  0  0  0  0  0  0  0  0  0  0  0
   -8.2920    1.4820   -0.7110 C   0  0  0  0  0  0  0  0  0  0  0  0
   -9.5410    2.0850   -0.7810 C   0  0  0  0  0  0  0  0  0  0  0  0
  -10.3210    1.5320    0.2190 C   0  0  0  0  0  0  0  0  0  0  0  0
  -12.0360    1.8560    0.5520 S   0  0  0  0  0  0  0  0  0  0  0  0
  -12.9670    0.4340    0.0290 C   0  0  0  0  0  0  0  0  0  0  0  0
  -12.3940    3.1110   -0.2700 O   0  0  0  0  0  0  0  0  0  0  0  0
   -9.5630    0.6720    0.8300 O   0  0  0  0  0  0  0  0  0  0  0  0
    1.9430    0.2110   -0.0640 C   0  0  0  0  0  0  0  0  0  0  0  0
    3.2770    0.6040    0.2090 C   0  0  0  0  0  0  0  0  0  0  0  0
   10.0710    0.6420   -0.4320 C   0  0  0  0  0  0  0  0  0  0  0  0
    9.6750    1.6310   -1.2990 C   0  0  0  0  0  0  0  0  0  0  0  0
   10.5240    2.7120   -1.6880 C   0  0  0  0  0  0  0  0  0  0  0  0
   11.7240    2.7230   -1.1790 N   0  0  0  0  0  0  0  0  0  0  0  0
   12.2140    1.7870   -0.3280 C   0  0  0  0  0  0  0  0  0  0  0  0
   13.5080    1.7830    0.2080 N   0  0  0  0  0  0  0  0  0  0  0  0
   11.3430    0.7090    0.0700 C   0  0  0  0  0  0  0  0  0  0  0  0
  2  1  1  1
  2  3  1  0
  2 33  1  0
  3  4  1  0
  4  5  2  0
  4  6  1  0
  6  7  1  0
  7  8  2  0
  7 32  1  0
  8  9  1  0
  9 10  2  0
 10 11  1  0
 10 31  1  0
 11 12  3  0
 12 13  1  0
 13 14  1  0
 14 15  1  0
 15 16  1  0
 16 17  3  0
 17 18  1  0
 18 19  1  0
 19 20  1  0
 20 21  1  6
 20 23  1  0
 21 22  1  0
 23 24  2  0
 23 30  1  0
 24 25  1  0
 25 26  2  0
 26 27  1  0
 26 30  1  0
 27 28  1  6
 27 29  2  0
 31 32  2  0
 33 34  2  0
 33 39  1  0
 34 35  1  0
 35 36  2  0
 36 37  1  0
 37 38  1  0
 37 39  2  0
M  CHG  2  19   1  22   1
M  END
