
     RDKit          3D

 39 42  0  0  0  0  0  0  0  0999 V2000
   -6.9540   -2.8690    1.8390 C   0  0  0  0  0  0  0  0  0  0  0  0
   -5.6740   -2.6770    1.1780 N   0  0  1  0  0  0  0  0  0  0  0  0
   -5.4150   -3.8020    0.3430 C   0  0  0  0  0  0  0  0  0  0  0  0
   -4.5260   -3.5520   -0.8170 C   0  0  0  0  0  0  0  0  0  0  0  0
   -3.6690   -2.4250   -0.5130 N   0  0  0  0  0  0  0  0  0  0  0  0
   -2.2790   -2.6290   -0.4520 C   0  0  0  0  0  0  0  0  0  0  0  0
   -1.7850   -3.7840   -0.6190 O   0  0  0  0  0  0  0  0  0  0  0  0
   -1.2700   -1.5160   -0.1910 C   0  0  2  0  0  0  0  0  0  0  0  0
   -1.3450   -0.6510   -1.3980 C   0  0  0  0  0  0  0  0  0  0  0  0
   -0.5380    0.5710   -1.3490 N   0  0  0  0  0  0  0  0  0  0  0  0
   -0.8260    1.5100   -0.2920 C   0  0  0  0  0  0  0  0  0  0  0  0
   -1.6830    1.2870    0.5560 O   0  0  0  0  0  0  0  0  0  0  0  0
   -0.0910    2.8110   -0.1900 C   0  0  0  0  0  0  0  0  0  0  0  0
    0.8120    3.3450   -0.9930 C   0  0  0  0  0  0  0  0  0  0  0  0
    1.3200    4.5590   -0.7290 C   0  0  0  0  0  0  0  0  0  0  0  0
    0.8720    5.2080    0.3870 C   0  0  0  0  0  0  0  0  0  0  0  0
    1.2430    6.7690    1.1100 Cl  0  0  0  0  0  0  0  0  0  0  0  0
   -0.3290    3.9930    1.0600 S   0  0  0  0  0  0  0  0  0  0  0  0
   -0.0090   -2.2510   -0.1510 N   0  0  0  0  0  0  0  0  0  0  0  0
    0.9580   -2.0730    1.1920 S   0  0  2  0  0  0  0  0  0  0  0  0
    2.0910   -3.0830    1.1050 O   0  0  0  0  0  0  0  0  0  0  0  0
    0.1300   -2.3970    2.4340 O   0  0  0  0  0  0  0  0  0  0  0  0
    1.6100   -0.4960    1.4220 C   0  0  0  0  0  0  0  0  0  0  0  0
    1.2180    0.3760    2.3840 C   0  0  0  0  0  0  0  0  0  0  0  0
    1.7980    1.6260    2.5470 C   0  0  0  0  0  0  0  0  0  0  0  0
    1.3500    2.4440    3.5310 F   0  0  0  0  0  0  0  0  0  0  0  0
    2.8160    1.9840    1.6910 C   0  0  0  0  0  0  0  0  0  0  0  0
    3.2550    1.1540    0.7060 C   0  0  0  0  0  0  0  0  0  0  0  0
    4.3770    1.5140   -0.1310 N   0  0  0  0  0  0  0  0  0  0  0  0
    4.1650    2.0010   -1.4580 C   0  0  0  0  0  0  0  0  0  0  0  0
    5.4710    2.3700   -2.0920 C   0  0  0  0  0  0  0  0  0  0  0  0
    6.5400    1.3390   -1.9660 C   0  0  0  0  0  0  0  0  0  0  0  0
    6.8490    1.0130   -0.5150 C   0  0  0  0  0  0  0  0  0  0  0  0
    5.7060    1.3700    0.3560 C   0  0  0  0  0  0  0  0  0  0  0  0
    5.9170    1.5530    1.5710 O   0  0  0  0  0  0  0  0  0  0  0  0
    2.6510   -0.0690    0.5790 C   0  0  0  0  0  0  0  0  0  0  0  0
    3.2450   -1.1040   -0.7130 Cl  0  0  0  0  0  0  0  0  0  0  0  0
   -4.3440   -1.1810   -0.2830 C   0  0  0  0  0  0  0  0  0  0  0  0
   -5.5920   -1.4050    0.5170 C   0  0  0  0  0  0  0  0  0  0  0  0
  2  1  1  6
  2  3  1  0
  2 39  1  0
  3  4  1  0
  4  5  1  0
  5  6  1  0
  5 38  1  0
  6  7  2  0
  6  8  1  0
  8  9  1  6
  8 19  1  0
  9 10  1  0
 10 11  1  0
 11 12  2  0
 11 13  1  0
 13 14  2  0
 13 18  1  0
 14 15  1  0
 15 16  2  0
 16 17  1  0
 16 18  1  0
 20 19  1  6
 20 21  2  0
 20 22  2  0
 20 23  1  0
 23 24  2  0
 23 36  1  0
 24 25  1  0
 25 26  1  0
 25 27  2  0
 27 28  1  0
 28 29  1  0
 28 36  2  0
 29 30  1  0
 29 34  1  0
 30 31  1  0
 31 32  1  0
 32 33  1  0
 33 34  1  0
 34 35  2  0
 36 37  1  0
 38 39  1  0
M  CHG  1   2   1
M  END
