
     RDKit          3D

 39 42  0  0  0  0  0  0  0  0999 V2000
   10.1330    1.4090   -0.0350 C   0  0  0  0  0  0  0  0  0  0  0  0
    9.8100    2.6110   -0.8620 C   0  0  0  0  0  0  0  0  0  0  0  0
    8.8810    2.2650   -1.8510 O   0  0  0  0  0  0  0  0  0  0  0  0
    7.6200    1.8120   -1.5200 C   0  0  0  0  0  0  0  0  0  0  0  0
    7.1690    1.6810   -0.2300 C   0  0  0  0  0  0  0  0  0  0  0  0
    5.8820    1.2130    0.0290 C   0  0  0  0  0  0  0  0  0  0  0  0
    5.0180    0.8670   -0.9800 C   0  0  0  0  0  0  0  0  0  0  0  0
    3.7530    0.4090   -0.6600 O   0  0  0  0  0  0  0  0  0  0  0  0
    2.6460    1.1830   -0.5450 C   0  0  0  0  0  0  0  0  0  0  0  0
    2.6860    2.4140   -0.7270 O   0  0  0  0  0  0  0  0  0  0  0  0
    1.3630    0.5650   -0.1980 C   0  0  0  0  0  0  0  0  0  0  0  0
    1.0670   -0.7340    0.0480 C   0  0  0  0  0  0  0  0  0  0  0  0
   -0.2020   -1.0480    0.3480 C   0  0  0  0  0  0  0  0  0  0  0  0
   -1.1410   -0.0720    0.3970 C   0  0  0  0  0  0  0  0  0  0  0  0
   -0.1420    1.3950   -0.0150 S   0  0  0  0  0  0  0  0  0  0  0  0
   -2.5590   -0.2650    0.7150 C   0  0  1  0  0  0  0  0  0  0  0  0
   -3.3090    0.8870    0.2530 N   0  0  0  0  0  0  0  0  0  0  0  0
   -3.9320    1.7240    1.2070 C   0  0  0  0  0  0  0  0  0  0  0  0
   -3.8330    1.4690    2.4460 O   0  0  0  0  0  0  0  0  0  0  0  0
   -4.7220    2.9250    0.8440 C   0  0  2  0  0  0  0  0  0  0  0  0
   -4.0200    3.8420   -0.1060 C   0  0  0  0  0  0  0  0  0  0  0  0
   -4.9660    4.9080   -0.4460 N   0  0  0  0  0  0  0  0  0  0  0  0
   -4.4440    5.7460   -1.5070 C   0  0  0  0  0  0  0  0  0  0  0  0
   -5.2800    5.6760    0.7430 C   0  0  0  0  0  0  0  0  0  0  0  0
   -4.9440    4.9190    2.0070 C   0  0  0  0  0  0  0  0  0  0  0  0
   -5.2220    3.5810    1.9380 O   0  0  0  0  0  0  0  0  0  0  0  0
   -3.0560   -1.5270    0.0950 C   0  0  0  0  0  0  0  0  0  0  0  0
   -2.0780   -2.6110   -0.0170 C   0  0  2  0  0  0  0  0  0  0  0  0
   -1.8520   -2.8920   -1.5190 C   0  0  0  0  0  0  0  0  0  0  0  0
   -2.6280   -3.9020    0.5020 C   0  0  0  0  0  0  0  0  0  0  0  0
   -3.7930   -3.8970    0.9530 O   0  0  0  0  0  0  0  0  0  0  0  0
   -1.9280   -5.0920    0.5110 O   0  0  0  0  0  0  0  0  0  0  0  0
   -2.4610   -6.3070    1.0050 C   0  0  2  0  0  0  0  0  0  0  0  0
   -1.6130   -6.9440    2.0640 C   0  0  0  0  0  0  0  0  0  0  0  0
   -2.5150   -7.2740   -0.1810 C   0  0  0  0  0  0  0  0  0  0  0  0
   -3.0250   -8.4950    0.2070 O   0  0  0  0  0  0  0  0  0  0  0  0
   -0.7460   -2.4430    0.6500 C   0  0  0  0  0  0  0  0  0  0  0  0
    5.4790    1.0020   -2.2680 C   0  0  0  0  0  0  0  0  0  0  0  0
    6.7440    1.4600   -2.5610 C   0  0  0  0  0  0  0  0  0  0  0  0
  1  2  1  0
  2  3  1  0
  3  4  1  0
  4  5  2  0
  4 39  1  0
  5  6  1  0
  6  7  2  0
  7  8  1  0
  7 38  1  0
  8  9  1  0
  9 10  2  0
  9 11  1  0
 11 12  2  0
 11 15  1  0
 12 13  1  0
 13 14  2  0
 13 37  1  0
 14 15  1  0
 14 16  1  0
 16 17  1  6
 16 27  1  0
 17 18  1  0
 18 19  2  0
 20 18  1  1
 20 21  1  0
 20 26  1  0
 21 22  1  0
 22 23  1  0
 22 24  1  0
 24 25  1  0
 25 26  1  0
 27 28  1  0
 28 29  1  6
 28 30  1  0
 28 37  1  0
 30 31  2  0
 30 32  1  0
 32 33  1  0
 33 34  1  1
 33 35  1  0
 35 36  1  0
 38 39  2  0
M  END
