
     RDKit          3D

 19 20  0  0  0  0  0  0  0  0999 V2000
    0.5710   -2.7260   -1.6310 O   0  0  0  0  0  0  0  0  0  0  0  0
   -0.1480   -1.7810   -1.1640 C   0  0  0  0  0  0  0  0  0  0  0  0
   -1.4120   -2.0190   -0.6580 O   0  0  0  0  0  0  0  0  0  0  0  0
   -2.1690   -0.9470   -0.1530 C   0  0  0  0  0  0  0  0  0  0  0  0
   -1.7070    0.3410   -0.1380 C   0  0  0  0  0  0  0  0  0  0  0  0
   -2.5010    1.3870    0.3790 C   0  0  0  0  0  0  0  0  0  0  0  0
   -3.7410    1.0640    0.8590 C   0  0  0  0  0  0  0  0  0  0  0  0
   -4.5240    2.1160    1.3720 O   0  0  0  0  0  0  0  0  0  0  0  0
   -4.1990   -0.2010    0.8460 N   0  0  0  0  0  0  0  0  0  0  0  0
   -3.4410   -1.1900    0.3550 C   0  0  0  0  0  0  0  0  0  0  0  0
   -3.8380   -2.3940    0.3250 O   0  0  0  0  0  0  0  0  0  0  0  0
   -0.3700    0.6980   -0.6550 C   0  0  0  0  0  0  0  0  0  0  0  0
    0.3330   -0.4470   -1.1490 N   0  0  0  0  0  0  0  0  0  0  0  0
    1.6940   -0.2910   -1.7100 C   0  0  0  0  0  0  0  0  0  0  0  0
    2.6840   -0.4620   -0.5790 C   0  0  0  0  0  0  0  0  0  0  0  0
    2.4890    0.4780    0.4120 O   0  0  0  0  0  0  0  0  0  0  0  0
    3.6530    0.2140    1.6580 P   0  0  0  0  0  0  0  0  0  0  0  0
    4.7450   -1.0520    1.2220 O   0  0  0  0  0  0  0  0  0  0  0  0
    4.5190    1.6620    2.0530 O   0  0  0  0  0  0  0  0  0  0  0  0
  1  2  2  0
  2  3  1  0
  2 13  1  0
  3  4  1  0
  4  5  2  0
  4 10  1  0
  5  6  1  0
  5 12  1  0
  6  7  2  0
  7  8  1  0
  7  9  1  0
  9 10  1  0
 10 11  2  0
 12 13  1  0
 13 14  1  0
 14 15  1  0
 15 16  1  0
 16 17  1  0
 17 18  1  0
 17 19  1  0
M  END
