
     RDKit          3D

 20 20  0  0  0  0  0  0  0  0999 V2000
   -5.3710    0.9670    0.9560 C   0  0  0  0  0  0  0  0  0  0  0  0
   -4.5160    0.6620    0.0060 C   0  0  0  0  0  0  0  0  0  0  0  0
   -4.9720    0.7640   -1.4100 C   0  0  0  0  0  0  0  0  0  0  0  0
   -6.2960    1.1880   -1.4550 O   0  0  0  0  0  0  0  0  0  0  0  0
   -3.1500    0.2330    0.3250 C   0  0  0  0  0  0  0  0  0  0  0  0
   -2.2910   -0.0710   -0.5440 N   0  0  0  0  0  0  0  0  0  0  0  0
   -0.9680   -0.4840   -0.1570 C   0  0  0  0  0  0  0  0  0  0  0  0
   -0.0710   -0.8010   -1.0690 C   0  0  0  0  0  0  0  0  0  0  0  0
    1.2810   -1.2300   -0.8740 C   0  0  0  0  0  0  0  0  0  0  0  0
    2.0270   -1.5020   -1.8940 O   0  0  0  0  0  0  0  0  0  0  0  0
    1.9540   -1.4090    0.3660 N   0  0  0  0  0  0  0  0  0  0  0  0
    3.3370   -1.8520    0.4330 C   0  0  0  0  0  0  0  0  0  0  0  0
    4.2870   -0.9320   -0.2560 C   0  0  0  0  0  0  0  0  0  0  0  0
    4.2800    0.3550    0.2780 O   0  0  0  0  0  0  0  0  0  0  0  0
    5.3870    1.3920   -0.5390 P   0  0  0  0  0  0  0  0  0  0  0  0
    6.2600    0.5540   -1.7790 O   0  0  0  0  0  0  0  0  0  0  0  0
    4.6520    2.8400   -1.1110 O   0  0  0  0  0  0  0  0  0  0  0  0
   -0.7000   -0.5290    1.1980 O   0  0  0  0  0  0  0  0  0  0  0  0
   -1.4320    0.3010    2.0700 C   0  0  0  0  0  0  0  0  0  0  0  0
   -2.8030    0.1660    1.6780 O   0  0  0  0  0  0  0  0  0  0  0  0
  1  2  2  0
  2  3  1  0
  2  5  1  0
  3  4  1  0
  5  6  2  0
  5 20  1  0
  6  7  1  0
  7  8  2  3
  7 18  1  0
  8  9  1  0
  9 10  2  0
  9 11  1  0
 11 12  1  0
 12 13  1  0
 13 14  1  0
 14 15  1  0
 15 16  1  0
 15 17  1  0
 18 19  1  0
 19 20  1  0
M  END
