
     RDKit          3D

 24 24  0  0  0  0  0  0  0  0999 V2000
    2.5950    1.3400    1.2780 C   0  0  0  0  0  0  0  0  0  0  0  0
    3.0280   -0.0160    0.8270 C   0  0  2  0  0  0  0  0  0  0  0  0
    2.7940   -1.0140    1.7330 O   0  0  0  0  0  0  0  0  0  0  0  0
    1.9740   -2.0200    1.3040 C   0  0  0  0  0  0  0  0  0  0  0  0
    0.5900   -1.5590    0.9310 C   0  0  0  0  0  0  0  0  0  0  0  0
    0.2270   -1.0400   -0.2510 N   0  0  0  0  0  0  0  0  0  0  0  0
   -1.0840   -0.7510   -0.2230 C   0  0  0  0  0  0  0  0  0  0  0  0
   -1.9190   -0.1520   -1.3180 C   0  0  0  0  0  0  0  0  0  0  0  0
   -3.2940   -0.2080   -0.9210 N   0  0  0  0  0  0  0  0  0  0  0  0
   -3.8020    0.7010    0.0360 C   0  0  0  0  0  0  0  0  0  0  0  0
   -3.0370    1.5800    0.5600 O   0  0  0  0  0  0  0  0  0  0  0  0
   -5.2210    0.6360    0.4350 C   0  0  0  0  0  0  0  0  0  0  0  0
   -5.9880   -0.2720   -0.2940 O   0  0  0  0  0  0  0  0  0  0  0  0
   -6.2490   -0.2120   -1.6430 C   0  0  0  0  0  0  0  0  0  0  0  0
   -5.7730    0.7400   -2.3130 O   0  0  0  0  0  0  0  0  0  0  0  0
   -7.0160   -1.1520   -2.3190 O   0  0  0  0  0  0  0  0  0  0  0  0
   -1.5030   -1.1060    1.0000 N   0  0  0  0  0  0  0  0  0  0  0  0
   -0.5040   -1.5910    1.6940 N   0  0  0  0  0  0  0  0  0  0  0  0
    4.4570    0.0590    0.4090 C   0  0  0  0  0  0  0  0  0  0  0  0
    5.3440   -0.6950    0.8580 O   0  0  0  0  0  0  0  0  0  0  0  0
    4.8400    1.0360   -0.5510 N   0  0  0  0  0  0  0  0  0  0  0  0
    6.1810    1.1740   -1.0090 C   0  0  0  0  0  0  0  0  0  0  0  0
    7.0680    0.4110   -0.5520 O   0  0  0  0  0  0  0  0  0  0  0  0
    6.5790    2.1170   -1.9470 O   0  0  0  0  0  0  0  0  0  0  0  0
  2  1  1  1
  2  3  1  0
  2 19  1  0
  3  4  1  0
  4  5  1  0
  5  6  2  0
  5 18  1  0
  6  7  1  0
  7  8  1  0
  7 17  2  0
  8  9  1  0
  9 10  1  0
 10 11  2  0
 10 12  1  0
 12 13  1  0
 13 14  1  0
 14 15  2  0
 14 16  1  0
 17 18  1  0
 19 20  2  0
 19 21  1  0
 21 22  1  0
 22 23  2  0
 22 24  1  0
M  END
