
     RDKit          3D

 26 28  0  0  0  0  0  0  0  0999 V2000
    7.0700   -0.5210   -1.6320 C   0  0  0  0  0  0  0  0  0  0  0  0
    5.7090   -0.4420   -1.0220 C   0  0  0  0  0  0  0  0  0  0  0  0
    5.5140   -0.5120    0.3400 C   0  0  0  0  0  0  0  0  0  0  0  0
    4.2460   -0.4380    0.9080 C   0  0  0  0  0  0  0  0  0  0  0  0
    3.1330   -0.2920    0.1100 C   0  0  0  0  0  0  0  0  0  0  0  0
    1.8020   -0.2120    0.6640 C   0  0  0  0  0  0  0  0  0  0  0  0
    0.5850   -0.0760    0.1720 C   0  0  0  0  0  0  0  0  0  0  0  0
   -0.4980   -0.0340    0.9800 C   0  0  0  0  0  0  0  0  0  0  0  0
   -1.8630    0.1050    0.6380 C   0  0  0  0  0  0  0  0  0  0  0  0
   -2.2990    0.2280   -0.7020 N   0  0  0  0  0  0  0  0  0  0  0  0
   -3.6920    0.3700   -1.0450 C   0  0  1  0  0  0  0  0  0  0  0  0
   -4.6620   -1.0600   -0.4750 P   0  0  1  0  0  0  0  0  0  0  0  0
   -5.4770   -0.6980    0.7410 O   0  0  0  0  0  0  0  0  0  0  0  0
   -5.7010   -1.5150   -1.7300 O   0  0  0  0  0  0  0  0  0  0  0  0
   -3.6310   -2.3310   -0.0680 O   0  0  0  0  0  0  0  0  0  0  0  0
   -4.3570    1.8620   -0.2230 P   0  0  2  0  0  0  0  0  0  0  0  0
   -5.0880    1.4300    1.0220 O   0  0  0  0  0  0  0  0  0  0  0  0
   -5.4260    2.6570   -1.2690 O   0  0  0  0  0  0  0  0  0  0  0  0
   -3.0540    2.8720    0.1190 O   0  0  0  0  0  0  0  0  0  0  0  0
   -2.7920    0.1240    1.6000 N   0  0  0  0  0  0  0  0  0  0  0  0
   -2.5480    0.0220    2.8920 C   0  0  0  0  0  0  0  0  0  0  0  0
   -1.2480   -0.1140    3.2590 N   0  0  0  0  0  0  0  0  0  0  0  0
   -0.2760   -0.1380    2.3230 C   0  0  0  0  0  0  0  0  0  0  0  0
    1.4980   -0.3010    2.4790 S   0  0  0  0  0  0  0  0  0  0  0  0
    3.3170   -0.2210   -1.2480 C   0  0  0  0  0  0  0  0  0  0  0  0
    4.5950   -0.2960   -1.8160 C   0  0  0  0  0  0  0  0  0  0  0  0
  1  2  1  0
  2  3  2  0
  2 26  1  0
  3  4  1  0
  4  5  2  0
  5  6  1  0
  5 25  1  0
  6  7  2  0
  6 24  1  0
  7  8  1  0
  8  9  2  0
  8 23  1  0
  9 10  1  0
  9 20  1  0
 11 10  1  1
 11 12  1  0
 11 16  1  0
 12 13  2  0
 12 14  1  6
 12 15  1  0
 16 17  2  0
 16 18  1  6
 16 19  1  0
 20 21  2  0
 21 22  1  0
 22 23  2  0
 23 24  1  0
 25 26  2  0
M  END
