
     RDKit          3D

 20 20  0  0  0  0  0  0  0  0999 V2000
    3.3560   -0.5590    1.5720 O   0  0  0  0  0  0  0  0  0  0  0  0
    3.5900   -1.2580    0.5520 C   0  0  0  0  0  0  0  0  0  0  0  0
    3.8500   -0.6290   -0.6920 N   0  0  0  0  0  0  0  0  0  0  0  0
    3.8420    0.8020   -0.8220 C   0  0  0  0  0  0  0  0  0  0  0  0
    2.5390    1.4430   -0.5590 C   0  0  0  0  0  0  0  0  0  0  0  0
    2.3950    2.6840   -0.5830 O   0  0  0  0  0  0  0  0  0  0  0  0
    1.3530    0.6590   -0.2620 N   0  0  0  0  0  0  0  0  0  0  0  0
    0.1250    1.2820    0.0090 C   0  0  0  0  0  0  0  0  0  0  0  0
    0.1670    2.5720   -0.0370 O   0  0  0  0  0  0  0  0  0  0  0  0
   -1.1630    0.7270    0.3280 C   0  0  0  0  0  0  0  0  0  0  0  0
   -1.4270   -0.5500    0.4290 C   0  0  0  0  0  0  0  0  0  0  0  0
   -0.0830   -1.7290    0.1520 P   0  0  0  0  0  0  0  0  0  0  0  0
    0.3140   -2.4590    1.6940 O   0  0  0  0  0  0  0  0  0  0  0  0
   -0.5910   -2.9860   -0.9210 O   0  0  0  0  0  0  0  0  0  0  0  0
   -2.7200   -1.2020    0.7540 C   0  0  0  0  0  0  0  0  0  0  0  0
   -2.6210   -2.3600    1.2930 O   0  0  0  0  0  0  0  0  0  0  0  0
   -3.9750   -0.6870    0.5340 O   0  0  0  0  0  0  0  0  0  0  0  0
   -4.3880    0.5610    0.0190 C   0  0  0  0  0  0  0  0  0  0  0  0
   -3.4870    1.6500    0.3990 C   0  0  0  0  0  0  0  0  0  0  0  0
   -2.1990    1.7740    0.5380 C   0  0  0  0  0  0  0  0  0  0  0  0
  1  2  2  0
  2  3  1  0
  3  4  1  0
  4  5  1  0
  5  6  2  0
  5  7  1  0
  7  8  1  0
  8  9  2  0
  8 10  1  0
 10 11  2  0
 10 20  1  0
 11 12  1  0
 11 15  1  0
 12 13  1  0
 12 14  1  0
 15 16  2  0
 15 17  1  0
 17 18  1  0
 18 19  1  0
 19 20  2  0
M  END
