
     RDKit          3D

 24 24  0  0  0  0  0  0  0  0999 V2000
   -3.1180   -2.5980    1.0170 N   0  0  0  0  0  0  0  0  0  0  0  0
   -2.5690   -2.4580   -0.1390 C   0  0  0  0  0  0  0  0  0  0  0  0
   -2.2760   -3.6180   -0.9010 N   0  0  0  0  0  0  0  0  0  0  0  0
   -2.2540   -1.1810   -0.6630 N   0  0  0  0  0  0  0  0  0  0  0  0
   -0.9790   -0.8650   -0.9700 O   0  0  0  0  0  0  0  0  0  0  0  0
   -0.0700   -1.2450   -0.0100 C   0  0  0  0  0  0  0  0  0  0  0  0
    0.7910   -0.0270    0.3220 C   0  0  2  0  0  0  0  0  0  0  0  0
    2.2270   -0.4480    0.5190 C   0  0  0  0  0  0  0  0  0  0  0  0
    2.7480   -0.1490    1.6170 O   0  0  0  0  0  0  0  0  0  0  0  0
    2.9100   -1.1410   -0.5050 N   0  0  0  0  0  0  0  0  0  0  0  0
    4.2570   -1.5800   -0.4500 C   0  0  0  0  0  0  0  0  0  0  0  0
    5.2300   -0.4660   -0.3440 C   0  0  0  0  0  0  0  0  0  0  0  0
    5.0360    0.2860    0.7910 O   0  0  0  0  0  0  0  0  0  0  0  0
    5.9210    1.2660    0.8490 O   0  0  0  0  0  0  0  0  0  0  0  0
    0.3300    0.6300    1.4440 O   0  0  0  0  0  0  0  0  0  0  0  0
    0.1620    1.9350    1.2200 O   0  0  0  0  0  0  0  0  0  0  0  0
   -1.1630    2.2680    1.3860 C   0  0  0  0  0  0  0  0  0  0  0  0
   -1.6460    3.3080    0.3970 C   0  0  0  0  0  0  0  0  0  0  0  0
   -3.0920    3.2100    0.3460 N   0  0  0  0  0  0  0  0  0  0  0  0
   -3.7240    2.0490   -0.1660 C   0  0  0  0  0  0  0  0  0  0  0  0
   -4.8940    1.7520    0.1760 O   0  0  0  0  0  0  0  0  0  0  0  0
   -3.0120    1.1610   -1.1180 C   0  0  0  0  0  0  0  0  0  0  0  0
   -3.3180   -0.2580   -0.8510 C   0  0  0  0  0  0  0  0  0  0  0  0
   -4.5400   -0.6300   -0.7930 O   0  0  0  0  0  0  0  0  0  0  0  0
  1  2  2  0
  2  3  1  0
  2  4  1  0
  4  5  1  0
  4 23  1  0
  5  6  1  0
  6  7  1  0
  7  8  1  1
  7 15  1  0
  8  9  2  0
  8 10  1  0
 10 11  1  0
 11 12  1  0
 12 13  1  0
 13 14  1  0
 15 16  1  0
 16 17  1  0
 17 18  1  0
 18 19  1  0
 19 20  1  0
 20 21  2  0
 20 22  1  0
 22 23  1  0
 23 24  2  0
M  END
