
     RDKit          3D

 13 14  0  0  0  0  0  0  0  0999 V2000
    1.0960   -2.4120   -0.4380 C   0  0  0  0  0  0  0  0  0  0  0  0
    0.9600   -0.9230   -0.3170 C   0  0  0  0  0  0  0  0  0  0  0  0
    1.9240   -0.1850   -0.8360 C   0  0  0  0  0  0  0  0  0  0  0  0
    1.6920    1.6200   -0.6510 P   0  0  0  0  0  0  0  0  0  0  0  0
    3.1980    2.4730   -0.6410 O   0  0  0  0  0  0  0  0  0  0  0  0
    0.9190    1.7690    0.8930 O   0  0  0  0  0  0  0  0  0  0  0  0
   -0.0640    0.8800    1.1310 C   0  0  1  0  0  0  0  0  0  0  0  0
   -1.3440    1.5200    0.9820 O   0  0  0  0  0  0  0  0  0  0  0  0
   -1.9280    1.0920   -0.1900 C   0  0  0  0  0  0  0  0  0  0  0  0
   -3.0320    1.7210   -0.8600 N   0  0  0  0  0  0  0  0  0  0  0  0
   -1.3020    0.0080   -0.5930 C   0  0  0  0  0  0  0  0  0  0  0  0
   -0.2150   -0.3440    0.3530 C   0  0  1  0  0  0  0  0  0  0  0  0
   -0.7790   -1.3830    1.2230 N   0  0  0  0  0  0  0  0  0  0  0  0
  1  2  1  0
  2  3  2  0
  2 12  1  0
  3  4  1  0
  4  5  1  0
  4  6  1  0
  7  6  1  6
  7  8  1  0
  7 12  1  0
  8  9  1  0
  9 10  1  0
  9 11  2  0
 11 12  1  0
 12 13  1  1
M  END
