
     RDKit          3D

 11 10  0  0  0  0  0  0  0  0999 V2000
   -2.5650    0.2160    2.0870 O   0  0  0  0  0  0  0  0  0  0  0  0
   -1.8090    0.6090    1.1800 C   0  0  0  0  0  0  0  0  0  0  0  0
   -1.3410    1.9030    1.2290 O   0  0  0  0  0  0  0  0  0  0  0  0
   -1.3890   -0.2560    0.0470 C   0  0  2  0  0  0  0  0  0  0  0  0
   -1.9810   -1.4940    0.2170 O   0  0  0  0  0  0  0  0  0  0  0  0
   -2.6930   -1.8300   -0.8560 O   0  0  0  0  0  0  0  0  0  0  0  0
   -0.0140   -0.4250    0.1520 O   0  0  0  0  0  0  0  0  0  0  0  0
    0.6600    0.0070   -1.0020 C   0  0  0  0  0  0  0  0  0  0  0  0
    2.1470   -0.2490   -0.7160 C   0  0  0  0  0  0  0  0  0  0  0  0
    2.5230    0.4890    0.4180 O   0  0  0  0  0  0  0  0  0  0  0  0
    3.7730    0.3200    0.7180 O   0  0  0  0  0  0  0  0  0  0  0  0
  1  2  2  0
  2  3  1  0
  2  4  1  0
  4  5  1  1
  4  7  1  0
  5  6  1  0
  7  8  1  0
  8  9  1  0
  9 10  1  0
 10 11  1  0
M  END
