
     RDKit          3D

 28 30  0  0  0  0  0  0  0  0999 V2000
   -6.9530   -1.6440    0.1410 N   0  0  0  0  0  0  0  0  0  0  0  0
   -6.1670   -0.4980   -0.1480 C   0  0  0  0  0  0  0  0  0  0  0  0
   -4.8650   -0.4790    0.2180 N   0  0  0  0  0  0  0  0  0  0  0  0
   -4.0780    0.5820   -0.0330 C   0  0  0  0  0  0  0  0  0  0  0  0
   -4.6590    1.6590   -0.6830 C   0  0  0  0  0  0  0  0  0  0  0  0
   -3.7090    2.5740   -0.8220 N   0  0  0  0  0  0  0  0  0  0  0  0
   -2.5940    2.0990   -0.2870 C   0  0  0  0  0  0  0  0  0  0  0  0
   -2.7680    0.8640    0.2180 N   0  0  0  0  0  0  0  0  0  0  0  0
   -1.8150   -0.0050    0.8820 C   0  0  2  0  0  0  0  0  0  0  0  0
   -0.7820    0.7910    1.3520 O   0  0  0  0  0  0  0  0  0  0  0  0
    0.3550    0.0110    1.4180 C   0  0  2  0  0  0  0  0  0  0  0  0
    1.6270    0.7920    1.1800 C   0  0  0  0  0  0  0  0  0  0  0  0
    2.6450   -0.1540    1.2860 O   0  0  0  0  0  0  0  0  0  0  0  0
    4.1180    0.1960    1.1150 P   0  0  0  0  0  0  0  0  0  0  0  0
    4.7130   -1.2690    1.4090 O   0  0  0  0  0  0  0  0  0  0  0  0
    3.7530    0.6650   -0.4530 O   0  0  0  0  0  0  0  0  0  0  0  0
    5.5020    0.8740    0.8980 O   0  0  0  0  0  0  0  0  0  0  0  0
    6.3780    0.1990   -0.3720 P   0  0  0  0  0  0  0  0  0  0  0  0
    7.8190    0.9120   -0.7580 O   0  0  0  0  0  0  0  0  0  0  0  0
    5.9670   -1.2310   -0.9810 O   0  0  0  0  0  0  0  0  0  0  0  0
    5.6670    1.0820   -1.3850 O   0  0  0  0  0  0  0  0  0  0  0  0
    0.2530   -1.0370    0.3530 C   0  0  1  0  0  0  0  0  0  0  0  0
    0.6260   -2.2670    0.9060 O   0  0  0  0  0  0  0  0  0  0  0  0
   -1.2000   -1.0140   -0.0550 C   0  0  1  0  0  0  0  0  0  0  0  0
   -1.7050   -2.2990    0.1460 O   0  0  0  0  0  0  0  0  0  0  0  0
   -6.0060    1.6210   -1.0540 C   0  0  0  0  0  0  0  0  0  0  0  0
   -6.5300    2.5890   -1.6390 O   0  0  0  0  0  0  0  0  0  0  0  0
   -6.7400    0.5370   -0.7780 N   0  0  0  0  0  0  0  0  0  0  0  0
  1  2  1  0
  2  3  1  0
  2 28  2  0
  3  4  1  0
  4  5  2  0
  4  8  1  0
  5  6  1  0
  5 26  1  0
  6  7  2  0
  7  8  1  0
  9  8  1  6
  9 10  1  0
  9 24  1  0
 10 11  1  0
 11 12  1  6
 11 22  1  0
 12 13  1  0
 13 14  1  0
 14 15  1  0
 14 16  1  0
 14 17  1  0
 17 18  1  0
 18 19  1  0
 18 20  1  0
 18 21  1  0
 22 23  1  1
 22 24  1  0
 24 25  1  1
 26 27  2  0
 26 28  1  0
M  CHG  1  28   1
M  END
