
     RDKit          3D

 13 14  0  0  0  0  0  0  0  0999 V2000
    3.6410    1.0330    0.5450 C   0  0  0  0  0  0  0  0  0  0  0  0
    2.4460    0.0840    0.6280 C   0  0  0  0  0  0  0  0  0  0  0  0
    1.7400    0.1230   -0.5570 O   0  0  0  0  0  0  0  0  0  0  0  0
    0.6880   -0.7080   -0.4940 N   0  0  0  0  0  0  0  0  0  0  0  0
    0.8760   -2.0660   -0.6570 N   0  0  0  0  0  0  0  0  0  0  0  0
   -0.1400   -2.8300   -0.2650 O   0  0  0  0  0  0  0  0  0  0  0  0
   -1.3750   -2.4320   -0.7880 C   0  0  0  0  0  0  0  0  0  0  0  0
   -1.6760   -1.1440   -0.2000 N   0  0  0  0  0  0  0  0  0  0  0  0
   -2.8000   -0.5260    0.4670 C   0  0  0  0  0  0  0  0  0  0  0  0
   -2.6040    0.9380    0.1330 C   0  0  0  0  0  0  0  0  0  0  0  0
   -1.1330    1.0200   -0.0680 C   0  0  0  0  0  0  0  0  0  0  0  0
   -0.3350    2.2840   -0.0590 C   0  0  0  0  0  0  0  0  0  0  0  0
   -0.6290   -0.1690   -0.2540 C   0  0  0  0  0  0  0  0  0  0  0  0
  1  2  1  0
  2  3  1  0
  3  4  1  0
  4  5  1  0
  4 13  1  0
  5  6  1  0
  6  7  1  0
  7  8  1  0
  8  9  1  0
  8 13  1  0
  9 10  1  0
 10 11  1  0
 11 12  1  0
 11 13  2  0
M  END
