
     RDKit          3D

 13 14  0  0  0  0  0  0  0  0999 V2000
   -1.8750   -1.5670   -0.4620 C   0  0  0  0  0  0  0  0  0  0  0  0
   -1.1130   -0.2660   -0.0520 C   0  0  2  0  0  0  0  0  0  0  0  0
   -1.9840    0.9130   -0.4770 C   0  0  0  0  0  0  0  0  0  0  0  0
   -1.9150    0.7170   -1.9700 C   0  0  0  0  0  0  0  0  0  0  0  0
   -0.7650    0.1510   -2.2720 C   0  0  0  0  0  0  0  0  0  0  0  0
   -0.0020   -0.0590   -0.9750 C   0  0  0  0  0  0  0  0  0  0  0  0
    1.2410    0.0090   -0.7680 N   0  0  0  0  0  0  0  0  0  0  0  0
    1.9160   -0.0880    0.4430 N   0  0  0  0  0  0  0  0  0  0  0  0
    3.3420    0.0040    0.5150 C   0  0  0  0  0  0  0  0  0  0  0  0
    3.7090    1.3250   -0.0170 N   0  0  0  0  0  0  0  0  0  0  0  0
    0.7780   -0.3320    1.8050 P   0  0  0  0  0  0  0  0  0  0  0  0
   -0.8070   -0.3950    1.3350 C   0  0  0  0  0  0  0  0  0  0  0  0
   -1.8480   -0.5770    2.3040 O   0  0  0  0  0  0  0  0  0  0  0  0
  2  1  1  6
  2  3  1  0
  2  6  1  0
  2 12  1  0
  3  4  1  0
  4  5  2  0
  5  6  1  0
  6  7  2  0
  7  8  1  0
  8  9  1  0
  8 11  1  0
  9 10  1  0
 11 12  2  0
 12 13  1  0
M  END
