
     RDKit          3D

 13 13  0  0  0  0  0  0  0  0999 V2000
    1.2720   -0.8600    1.3260 C   0  0  0  0  0  0  0  0  0  0  0  0
    0.7090    0.0960    0.6150 C   0  0  0  0  0  0  0  0  0  0  0  0
    1.5200    1.2210    0.1820 N   0  0  0  0  0  0  0  0  0  0  0  0
    2.7250    0.9500   -0.1900 C   0  0  0  0  0  0  0  0  0  0  0  0
    3.6190    2.0350   -0.6460 C   0  0  0  0  0  0  0  0  0  0  0  0
   -0.6890    0.0980    0.1960 C   0  0  0  0  0  0  0  0  0  0  0  0
   -1.2910    1.3070    0.2710 N   0  0  0  0  0  0  0  0  0  0  0  0
   -2.5090    1.5820   -0.0520 O   0  0  0  0  0  0  0  0  0  0  0  0
   -3.4210    0.3180   -0.6160 P   0  0  0  0  0  0  0  0  0  0  0  0
   -5.1480    0.3030   -0.7580 O   0  0  0  0  0  0  0  0  0  0  0  0
   -2.5720   -1.1440   -0.6710 N   0  0  0  0  0  0  0  0  0  0  0  0
   -1.2720   -1.0550   -0.2430 C   0  0  0  0  0  0  0  0  0  0  0  0
   -0.5190   -2.3600   -0.3410 C   0  0  0  0  0  0  0  0  0  0  0  0
  1  2  2  0
  2  3  1  0
  2  6  1  0
  3  4  2  3
  4  5  1  0
  6  7  1  0
  6 12  2  0
  7  8  1  0
  8  9  1  0
  9 10  1  0
  9 11  1  0
 11 12  1  0
 12 13  1  0
M  END
