
     RDKit          3D

 11 10  0  0  0  0  0  0  0  0999 V2000
    1.9820   -0.1920   -1.4870 O   0  0  0  0  0  0  0  0  0  0  0  0
    2.0590   -0.0430   -0.3160 C   0  0  0  0  0  0  0  0  0  0  0  0
    3.1030    0.8090    0.3720 C   0  0  0  0  0  0  0  0  0  0  0  0
    3.6660    1.7840   -0.3870 O   0  0  0  0  0  0  0  0  0  0  0  0
    1.1680   -0.7060    0.4960 O   0  0  0  0  0  0  0  0  0  0  0  0
    0.2640   -1.4140    0.5100 O   0  0  0  0  0  0  0  0  0  0  0  0
   -0.8910   -1.7330   -0.0370 C   0  0  0  0  0  0  0  0  0  0  0  0
   -1.7930   -0.5020    0.4280 C   0  0  0  0  0  0  0  0  0  0  0  0
   -3.0340   -0.8200    0.1040 O   0  0  0  0  0  0  0  0  0  0  0  0
   -3.9030    0.1630    0.2730 O   0  0  0  0  0  0  0  0  0  0  0  0
   -3.3460    1.2930   -0.1690 O   0  0  0  0  0  0  0  0  0  0  0  0
  1  2  2  0
  2  3  1  0
  2  5  1  0
  3  4  1  0
  5  6  1  0
  6  7  1  0
  7  8  1  0
  8  9  1  0
  9 10  1  0
 10 11  1  0
M  END
