
     RDKit          3D

 11 11  0  0  0  0  0  0  0  0999 V2000
    3.6700    0.1310   -0.2350 O   0  0  0  0  0  0  0  0  0  0  0  0
    3.4770   -1.1390   -0.4670 O   0  0  0  0  0  0  0  0  0  0  0  0
    2.3770   -1.5560    0.1550 O   0  0  0  0  0  0  0  0  0  0  0  0
    1.3740   -1.3860   -0.6790 O   0  0  0  0  0  0  0  0  0  0  0  0
    0.3940   -0.5420   -0.1560 C   0  0  2  0  0  0  0  0  0  0  0  0
   -0.9060   -1.3300   -0.1520 C   0  0  0  0  0  0  0  0  0  0  0  0
   -1.9140   -0.6570    0.5140 O   0  0  0  0  0  0  0  0  0  0  0  0
   -2.1220    0.6310    0.0590 C   0  0  0  0  0  0  0  0  0  0  0  0
   -1.0230    1.5850    0.4620 C   0  0  0  0  0  0  0  0  0  0  0  0
   -0.0040    1.6470   -0.4780 O   0  0  0  0  0  0  0  0  0  0  0  0
    0.2330    0.5000   -1.0580 O   0  0  0  0  0  0  0  0  0  0  0  0
  1  2  1  0
  2  3  1  0
  3  4  1  0
  5  4  1  6
  5  6  1  0
  5 11  1  0
  6  7  1  0
  7  8  1  0
  8  9  1  0
  9 10  1  0
 10 11  1  0
M  END
