
     RDKit          3D

 13 13  0  0  0  0  0  0  0  0999 V2000
    3.9680   -1.5160    1.7910 C   0  0  0  0  0  0  0  0  0  0  0  0
    3.3410   -1.9030    0.7580 N   0  0  0  0  0  0  0  0  0  0  0  0
    2.2030   -1.2620    0.2860 C   0  0  0  0  0  0  0  0  0  0  0  0
    2.2580   -0.0380   -0.0750 N   0  0  0  0  0  0  0  0  0  0  0  0
    1.2770    0.7490   -0.5530 O   0  0  0  0  0  0  0  0  0  0  0  0
   -0.0240    0.3970   -0.7610 C   0  0  0  0  0  0  0  0  0  0  0  0
   -0.9410    1.4400   -1.3030 C   0  0  0  0  0  0  0  0  0  0  0  0
   -0.4780    2.6380   -1.5560 C   0  0  0  0  0  0  0  0  0  0  0  0
   -2.3000    1.1400   -1.5410 N   0  0  0  0  0  0  0  0  0  0  0  0
   -3.2120    0.9820   -0.4360 C   0  0  0  0  0  0  0  0  0  0  0  0
   -0.5230   -0.7920   -0.5190 C   0  0  0  0  0  0  0  0  0  0  0  0
    0.5680   -2.0720    0.1370 P   0  0  0  0  0  0  0  0  0  0  0  0
    0.0340   -2.7080    1.6540 O   0  0  0  0  0  0  0  0  0  0  0  0
  1  2  2  0
  2  3  1  0
  3  4  2  0
  3 12  1  0
  4  5  1  0
  5  6  1  0
  6  7  1  0
  6 11  2  0
  7  8  2  0
  7  9  1  0
  9 10  1  0
 11 12  1  0
 12 13  1  0
M  END
