
     RDKit          3D

 18 18  0  0  0  0  0  0  0  0999 V2000
    5.0570    0.6120   -1.6310 N   0  0  0  0  0  0  0  0  0  0  0  0
    4.8910   -0.7760   -1.3730 C   0  0  0  0  0  0  0  0  0  0  0  0
    6.1510   -1.7620   -1.6770 S   0  0  0  0  0  0  0  0  0  0  0  0
    3.6620   -1.3330   -0.8570 C   0  0  0  0  0  0  0  0  0  0  0  0
    3.5940   -2.5690   -0.6550 O   0  0  0  0  0  0  0  0  0  0  0  0
    2.5410   -0.5400   -0.5740 O   0  0  0  0  0  0  0  0  0  0  0  0
    1.3990   -1.2060   -0.0730 C   0  0  0  0  0  0  0  0  0  0  0  0
    0.2830   -0.2480    0.1840 C   0  0  0  0  0  0  0  0  0  0  0  0
    0.4820    0.9690   -0.0610 O   0  0  0  0  0  0  0  0  0  0  0  0
   -0.9700   -0.6460    0.6850 N   0  0  0  0  0  0  0  0  0  0  0  0
   -2.0740    0.1970    0.9380 C   0  0  0  0  0  0  0  0  0  0  0  0
   -2.4420    0.4390    2.2150 C   0  0  0  0  0  0  0  0  0  0  0  0
   -3.5750    1.3010    2.5350 C   0  0  0  0  0  0  0  0  0  0  0  0
   -4.2790    1.8700    1.5710 C   0  0  0  0  0  0  0  0  0  0  0  0
   -3.9240    1.6330    0.2580 O   0  0  0  0  0  0  0  0  0  0  0  0
   -2.8380    0.8090   -0.1130 C   0  0  0  0  0  0  0  0  0  0  0  0
   -2.5470    0.6070   -1.3770 C   0  0  0  0  0  0  0  0  0  0  0  0
   -1.5390   -0.1710   -1.8800 O   0  0  0  0  0  0  0  0  0  0  0  0
  1  2  1  0
  2  3  2  0
  2  4  1  0
  4  5  2  0
  4  6  1  0
  6  7  1  0
  7  8  1  0
  8  9  2  0
  8 10  1  0
 10 11  1  0
 11 12  2  0
 11 16  1  0
 12 13  1  0
 13 14  2  0
 14 15  1  0
 15 16  1  0
 16 17  2  3
 17 18  1  0
M  END
