
     RDKit          3D

 18 18  0  0  0  0  0  0  0  0999 V2000
    5.3450    0.0460   -0.4770 C   0  0  0  0  0  0  0  0  0  0  0  0
    3.9330    0.0530   -0.3540 O   0  0  0  0  0  0  0  0  0  0  0  0
    3.2660   -1.1310   -0.0870 C   0  0  0  0  0  0  0  0  0  0  0  0
    3.9240   -2.1830    0.0400 O   0  0  0  0  0  0  0  0  0  0  0  0
    1.8160   -1.1960    0.0510 C   0  0  0  0  0  0  0  0  0  0  0  0
    0.9340   -0.2260   -0.0410 C   0  0  0  0  0  0  0  0  0  0  0  0
    1.4910    1.0790   -0.3230 N   0  0  0  0  0  0  0  0  0  0  0  0
   -0.4340   -0.5580    0.1950 C   0  0  0  0  0  0  0  0  0  0  0  0
   -1.4420    0.3320    0.1080 C   0  0  0  0  0  0  0  0  0  0  0  0
   -1.0750    1.7470   -0.2650 C   0  0  0  0  0  0  0  0  0  0  0  0
   -2.8280    0.0680    0.3140 C   0  0  0  0  0  0  0  0  0  0  0  0
   -3.3010   -1.2360    0.6210 O   0  0  0  0  0  0  0  0  0  0  0  0
   -3.8280    0.9240    0.2570 C   0  0  0  0  0  0  0  0  0  0  0  0
   -3.8300    2.2560   -0.0020 O   0  0  0  0  0  0  0  0  0  0  0  0
   -5.1470    0.4050    0.5030 O   0  0  0  0  0  0  0  0  0  0  0  0
   -0.6620   -1.9500    0.5200 C   0  0  0  0  0  0  0  0  0  0  0  0
   -1.6280   -2.6820    0.8700 N   0  0  0  0  0  0  0  0  0  0  0  0
    0.9720   -2.7170    0.3500 S   0  0  0  0  0  0  0  0  0  0  0  0
  1  2  1  0
  2  3  1  0
  3  4  2  0
  3  5  1  0
  5  6  2  0
  5 18  1  0
  6  7  1  0
  6  8  1  0
  8  9  2  3
  8 16  1  0
  9 10  1  0
  9 11  1  0
 11 12  1  0
 11 13  2  3
 13 14  1  0
 13 15  1  0
 16 17  2  0
 16 18  1  0
M  END
