
     RDKit          3D

 25 28  0  0  0  0  0  0  0  0999 V2000
    0.5770   -1.6140   -0.9570 O   0  0  0  0  0  0  0  0  0  0  0  0
    0.9720   -0.4360   -0.7280 C   0  0  0  0  0  0  0  0  0  0  0  0
   -0.0270    0.5150   -0.7510 O   0  0  0  0  0  0  0  0  0  0  0  0
   -1.3470    0.2910   -0.9900 C   0  0  0  0  0  0  0  0  0  0  0  0
   -1.9470    0.3160   -2.2340 C   0  0  0  0  0  0  0  0  0  0  0  0
   -3.2910    0.0820   -2.4330 C   0  0  0  0  0  0  0  0  0  0  0  0
   -4.0840   -0.1940   -1.3100 C   0  0  0  0  0  0  0  0  0  0  0  0
   -3.4730   -0.2140   -0.0850 C   0  0  0  0  0  0  0  0  0  0  0  0
   -4.3380   -0.4940    0.9470 C   0  0  0  0  0  0  0  0  0  0  0  0
   -3.8500   -0.5480    2.2550 C   0  0  0  0  0  0  0  0  0  0  0  0
   -2.5100   -0.3180    2.4780 C   0  0  0  0  0  0  0  0  0  0  0  0
   -1.6520   -0.0350    1.4120 C   0  0  0  0  0  0  0  0  0  0  0  0
   -2.1480    0.0170    0.1020 C   0  0  0  0  0  0  0  0  0  0  0  0
   -5.6360   -0.6690    0.3030 C   0  0  0  0  0  0  0  0  0  0  0  0
   -6.6990   -0.9370    0.8960 O   0  0  0  0  0  0  0  0  0  0  0  0
   -5.4240   -0.4740   -1.0800 O   0  0  0  0  0  0  0  0  0  0  0  0
    2.3660   -0.1130   -0.4630 C   0  0  0  0  0  0  0  0  0  0  0  0
    2.7330    1.1870   -0.2210 C   0  0  0  0  0  0  0  0  0  0  0  0
    4.0620    1.5420    0.0380 C   0  0  0  0  0  0  0  0  0  0  0  0
    5.0120    0.5700    0.0500 C   0  0  0  0  0  0  0  0  0  0  0  0
    6.3760    0.8750    0.3080 N   0  0  0  0  0  0  0  0  0  0  0  0
    6.7050    2.0460    0.5260 O   0  0  0  0  0  0  0  0  0  0  0  0
    7.3510   -0.0960    0.3240 O   0  0  0  0  0  0  0  0  0  0  0  0
    4.6650   -0.7470   -0.1910 C   0  0  0  0  0  0  0  0  0  0  0  0
    3.3320   -1.0810   -0.4480 C   0  0  0  0  0  0  0  0  0  0  0  0
  1  2  2  0
  2  3  1  0
  2 17  1  0
  3  4  1  0
  4  5  2  0
  4 13  1  0
  5  6  1  0
  6  7  2  0
  7  8  1  0
  7 16  1  0
  8  9  2  0
  8 13  1  0
  9 10  1  0
  9 14  1  0
 10 11  2  0
 11 12  1  0
 12 13  2  0
 14 15  2  0
 14 16  1  0
 17 18  2  0
 17 25  1  0
 18 19  1  0
 19 20  2  0
 20 21  1  0
 20 24  1  0
 21 22  2  0
 21 23  1  0
 24 25  2  0
M  CHG  2  21   1  23  -1
M  END
