
     RDKit          3D

 18 18  0  0  0  0  0  0  0  0999 V2000
   -6.1720    0.4460    0.3510 C   0  0  0  0  0  0  0  0  0  0  0  0
   -4.7730    0.1360    0.0140 C   0  0  0  0  0  0  0  0  0  0  0  0
   -4.4400   -1.1770   -0.3180 O   0  0  0  0  0  0  0  0  0  0  0  0
   -3.8760    1.0940    0.0340 C   0  0  0  0  0  0  0  0  0  0  0  0
   -4.3420    2.7560    0.4640 S   0  0  0  0  0  0  0  0  0  0  0  0
   -2.4950    0.7800   -0.2990 C   0  0  0  0  0  0  0  0  0  0  0  0
   -1.6200    1.6790   -0.2870 O   0  0  0  0  0  0  0  0  0  0  0  0
   -2.1100   -0.5050   -0.6360 O   0  0  0  0  0  0  0  0  0  0  0  0
   -0.7650   -0.7600   -0.9510 C   0  0  0  0  0  0  0  0  0  0  0  0
    0.1560   -0.4370    0.1690 C   0  0  0  0  0  0  0  0  0  0  0  0
   -0.2770    0.0170    1.2630 O   0  0  0  0  0  0  0  0  0  0  0  0
    1.5720   -0.6510   -0.0130 C   0  0  0  0  0  0  0  0  0  0  0  0
    2.1740   -1.1190   -1.1000 C   0  0  0  0  0  0  0  0  0  0  0  0
    3.5850   -1.1800   -0.8740 N   0  0  0  0  0  0  0  0  0  0  0  0
    3.7210   -1.0760    0.5690 C   0  0  1  0  0  0  0  0  0  0  0  0
    4.9540   -0.2670    0.9140 C   0  0  0  0  0  0  0  0  0  0  0  0
    4.9370    1.0040    0.2100 N   0  0  0  0  0  0  0  0  0  0  0  0
    2.5520   -0.4010    0.9240 O   0  0  0  0  0  0  0  0  0  0  0  0
  1  2  1  0
  2  3  1  0
  2  4  2  3
  4  5  1  0
  4  6  1  0
  6  7  2  0
  6  8  1  0
  8  9  1  0
  9 10  1  0
 10 11  2  0
 10 12  1  0
 12 13  2  0
 12 18  1  0
 13 14  1  0
 14 15  1  0
 15 16  1  6
 15 18  1  0
 16 17  1  0
M  CHG  1  17   1
M  END
