
     RDKit          3D

 10 10  0  0  0  0  0  0  0  0999 V2000
   -1.4300   -0.6580   -1.2950 N   0  0  0  0  0  0  0  0  0  0  0  0
   -1.2660   -0.6630    0.1290 C   0  0  2  0  0  0  0  0  0  0  0  0
   -1.3740    0.7350    0.6910 C   0  0  0  0  0  0  0  0  0  0  0  0
   -0.1440    1.5330    0.6510 C   0  0  0  0  0  0  0  0  0  0  0  0
    0.6800    1.4130   -0.5890 C   0  0  0  0  0  0  0  0  0  0  0  0
    1.8790    0.1430   -0.2990 S   0  0  2  0  0  0  0  0  0  0  0  0
    2.5560    0.4830    1.0220 O   0  0  0  0  0  0  0  0  0  0  0  0
    2.9040    0.0890   -1.3830 O   0  0  0  0  0  0  0  0  0  0  0  0
    1.1270   -1.4230   -0.1400 C   0  0  0  0  0  0  0  0  0  0  0  0
   -0.1350   -1.4500    0.6450 C   0  0  0  0  0  0  0  0  0  0  0  0
  2  1  1  6
  2  3  1  0
  2 10  1  0
  3  4  1  0
  4  5  1  0
  6  5  1  6
  6  7  2  0
  6  8  2  0
  6  9  1  0
  9 10  1  0
M  END
