
     RDKit          3D

 11 11  0  0  0  0  0  0  0  0999 V2000
    1.6630   -1.5010    0.5230 O   0  0  0  0  0  0  0  0  0  0  0  0
    1.6330   -0.3000    0.2140 C   0  0  0  0  0  0  0  0  0  0  0  0
    2.9620    0.4120    0.1450 C   0  0  0  0  0  0  0  0  0  0  0  0
    4.2750   -0.7120    0.5430 Cl  0  0  0  0  0  0  0  0  0  0  0  0
    0.4330    0.3600   -0.0560 N   0  0  0  0  0  0  0  0  0  0  0  0
   -0.8900   -0.2650   -0.0080 C   0  0  0  0  0  0  0  0  0  0  0  0
   -0.9760   -1.5850    0.3210 C   0  0  0  0  0  0  0  0  0  0  0  0
   -2.7810   -1.9200    0.2540 S   0  0  0  0  0  0  0  0  0  0  0  0
   -3.1940   -0.2430   -0.2090 C   0  0  0  0  0  0  0  0  0  0  0  0
   -2.0270    0.4040   -0.2750 C   0  0  0  0  0  0  0  0  0  0  0  0
   -2.0360    1.7910   -0.6300 O   0  0  0  0  0  0  0  0  0  0  0  0
  1  2  2  0
  2  3  1  0
  2  5  1  0
  3  4  1  0
  5  6  1  0
  6  7  2  0
  6 10  1  0
  7  8  1  0
  8  9  1  0
  9 10  2  0
 10 11  1  0
M  END
