
     RDKit          3D

 36 39  0  0  0  0  0  0  0  0999 V2000
   -7.0100   -2.9680    2.4740 C   0  0  0  0  0  0  0  0  0  0  0  0
   -6.4500   -1.8720    1.5670 C   0  0  0  0  0  0  0  0  0  0  0  0
   -5.8270   -2.5220    0.4420 N   0  0  0  0  0  0  0  0  0  0  0  0
   -5.2360   -1.6560   -0.4530 N   0  0  0  0  0  0  0  0  0  0  0  0
   -4.0790   -0.8670   -0.1020 C   0  0  0  0  0  0  0  0  0  0  0  0
   -3.6860   -1.0410    1.0660 O   0  0  0  0  0  0  0  0  0  0  0  0
   -3.4830    0.0210   -1.0580 C   0  0  0  0  0  0  0  0  0  0  0  0
   -2.4150    0.8070   -0.9130 C   0  0  0  0  0  0  0  0  0  0  0  0
   -1.6590    0.8720    0.3150 C   0  0  0  0  0  0  0  0  0  0  0  0
   -0.2910    0.3370    0.2810 N   0  0  0  0  0  0  0  0  0  0  0  0
   -0.0100   -1.0950    0.4330 C   0  0  0  0  0  0  0  0  0  0  0  0
   -0.9100   -1.9650    0.5190 O   0  0  0  0  0  0  0  0  0  0  0  0
    1.3940   -1.2700    0.4580 N   0  0  0  0  0  0  0  0  0  0  0  0
    1.9400   -0.0110    0.8470 C   0  0  1  0  0  0  0  0  0  0  0  0
    1.6570    0.1070    2.3630 C   0  0  0  0  0  0  0  0  0  0  0  0
    3.3550    0.1440    0.5620 C   0  0  0  0  0  0  0  0  0  0  0  0
    3.8550    1.0440   -0.2350 C   0  0  0  0  0  0  0  0  0  0  0  0
    5.3050    1.1890   -0.5170 C   0  0  0  0  0  0  0  0  0  0  0  0
    5.7940    2.0370   -1.2680 O   0  0  0  0  0  0  0  0  0  0  0  0
    6.2360    0.2550    0.1450 C   0  0  0  0  0  0  0  0  0  0  0  0
    7.5520    0.3930   -0.1170 C   0  0  0  0  0  0  0  0  0  0  0  0
    9.1620    0.8320   -0.6590 S   0  0  0  0  0  0  0  0  0  0  0  0
    8.8560   -0.4040    0.4070 C   0  0  2  0  0  0  0  0  0  0  0  0
    8.7860   -1.7460    0.0960 F   0  0  0  0  0  0  0  0  0  0  0  0
    5.6350   -0.7110    1.0050 C   0  0  0  0  0  0  0  0  0  0  0  0
    4.3170   -0.7840    1.2140 C   0  0  0  0  0  0  0  0  0  0  0  0
    3.7920   -1.7340    2.0520 O   0  0  0  0  0  0  0  0  0  0  0  0
    0.9880    0.9350    0.2220 C   0  0  0  0  0  0  0  0  0  0  0  0
    1.2080    2.0580   -0.2760 O   0  0  0  0  0  0  0  0  0  0  0  0
   -2.1030    1.6130   -2.0880 C   0  0  0  0  0  0  0  0  0  0  0  0
   -1.2990    2.7080   -2.0220 C   0  0  0  0  0  0  0  0  0  0  0  0
   -0.9400    3.4580   -3.1300 C   0  0  0  0  0  0  0  0  0  0  0  0
    0.1070    4.8700   -3.0120 Cl  0  0  0  0  0  0  0  0  0  0  0  0
   -1.4340    3.0600   -4.3490 C   0  0  0  0  0  0  0  0  0  0  0  0
   -2.2440    1.9550   -4.3900 C   0  0  0  0  0  0  0  0  0  0  0  0
   -2.5800    1.2400   -3.3100 N   0  0  0  0  0  0  0  0  0  0  0  0
  1  2  1  0
  2  3  1  0
  3  4  1  0
  4  5  1  0
  5  6  2  0
  5  7  1  0
  7  8  2  3
  8  9  1  0
  8 30  1  0
  9 10  1  0
 10 11  1  0
 10 28  1  0
 11 12  2  0
 11 13  1  0
 13 14  1  0
 14 15  1  1
 14 16  1  0
 14 28  1  0
 16 17  2  0
 16 26  1  0
 17 18  1  0
 18 19  2  0
 18 20  1  0
 20 21  2  3
 20 25  1  0
 21 22  1  0
 21 23  1  0
 22 23  1  0
 23 24  1  6
 25 26  2  0
 26 27  1  0
 28 29  2  0
 30 31  2  0
 30 36  1  0
 31 32  1  0
 32 33  1  0
 32 34  2  0
 34 35  1  0
 35 36  2  0
M  END
