
     RDKit          3D

 36 39  0  0  0  0  0  0  0  0999 V2000
   -3.9230   -3.2720   -0.8310 C   0  0  0  0  0  0  0  0  0  0  0  0
   -4.1770   -1.9490   -0.1480 C   0  0  2  0  0  0  0  0  0  0  0  0
   -5.6010   -1.5270   -0.4310 C   0  0  0  0  0  0  0  0  0  0  0  0
   -5.8100   -0.3570    0.5090 C   0  0  0  0  0  0  0  0  0  0  0  0
   -6.7890   -0.3290    1.2420 O   0  0  0  0  0  0  0  0  0  0  0  0
   -4.8350    0.7090    0.5160 C   0  0  0  0  0  0  0  0  0  0  0  0
   -5.1990    1.9380    1.0180 C   0  0  0  0  0  0  0  0  0  0  0  0
   -6.5500    2.2320    1.5350 C   0  0  0  0  0  0  0  0  0  0  0  0
   -7.5530    2.4610    0.4220 C   0  0  0  0  0  0  0  0  0  0  0  0
   -8.8120    2.7250    0.9210 F   0  0  0  0  0  0  0  0  0  0  0  0
   -4.2250    2.8980    0.9930 N   0  0  0  0  0  0  0  0  0  0  0  0
   -3.0120    2.6660    0.5190 C   0  0  0  0  0  0  0  0  0  0  0  0
   -2.1590    3.6150    0.5290 O   0  0  0  0  0  0  0  0  0  0  0  0
   -2.6370    1.4460    0.0160 C   0  0  0  0  0  0  0  0  0  0  0  0
   -1.3210    1.0830   -0.4220 C   0  0  0  0  0  0  0  0  0  0  0  0
   -1.0620    0.2530   -1.3020 O   0  0  0  0  0  0  0  0  0  0  0  0
   -0.1760    1.6270    0.1230 N   0  0  0  0  0  0  0  0  0  0  0  0
    1.1030    1.2570   -0.3600 C   0  0  0  0  0  0  0  0  0  0  0  0
    2.0320    1.5210    0.3790 N   0  0  0  0  0  0  0  0  0  0  0  0
    3.3210    1.2250    0.0800 C   0  0  0  0  0  0  0  0  0  0  0  0
    4.2360    1.5160    0.8860 O   0  0  0  0  0  0  0  0  0  0  0  0
    3.5450    0.5620   -1.2010 C   0  0  0  0  0  0  0  0  0  0  0  0
    4.5980    0.0340   -1.6900 N   0  0  0  0  0  0  0  0  0  0  0  0
    5.8400    0.0240   -0.9540 C   0  0  0  0  0  0  0  0  0  0  0  0
    6.5400   -1.0800   -0.9390 C   0  0  0  0  0  0  0  0  0  0  0  0
    7.8090   -1.3050   -0.2660 C   0  0  0  0  0  0  0  0  0  0  0  0
    8.4300   -2.5550   -0.3490 C   0  0  0  0  0  0  0  0  0  0  0  0
    7.6470   -3.8340   -1.2780 Cl  0  0  0  0  0  0  0  0  0  0  0  0
    9.6240   -2.7820    0.2810 C   0  0  0  0  0  0  0  0  0  0  0  0
   10.2560   -1.8170    1.0060 C   0  0  0  0  0  0  0  0  0  0  0  0
    9.6640   -0.6210    1.0860 N   0  0  0  0  0  0  0  0  0  0  0  0
    8.4740   -0.3640    0.4710 C   0  0  0  0  0  0  0  0  0  0  0  0
    8.0040    0.7970    0.6120 O   0  0  0  0  0  0  0  0  0  0  0  0
    1.9070    0.7150   -1.8730 S   0  0  0  0  0  0  0  0  0  0  0  0
   -3.5740    0.4200    0.0090 C   0  0  0  0  0  0  0  0  0  0  0  0
   -3.1840   -0.9030   -0.5090 C   0  0  0  0  0  0  0  0  0  0  0  0
  2  1  1  6
  2  3  1  0
  2 36  1  0
  3  4  1  0
  4  5  2  0
  4  6  1  0
  6  7  2  0
  6 35  1  0
  7  8  1  0
  7 11  1  0
  8  9  1  0
  9 10  1  0
 11 12  1  0
 12 13  2  0
 12 14  1  0
 14 15  1  0
 14 35  2  0
 15 16  2  0
 15 17  1  0
 17 18  1  0
 18 19  2  0
 18 34  1  0
 19 20  1  0
 20 21  2  0
 20 22  1  0
 22 23  2  3
 22 34  1  0
 23 24  1  0
 24 25  2  3
 25 26  1  0
 26 27  2  0
 26 32  1  0
 27 28  1  0
 27 29  1  0
 29 30  2  0
 30 31  1  0
 31 32  1  0
 32 33  2  0
 35 36  1  0
M  END
