
     RDKit          3D

 37 39  0  0  0  0  0  0  0  0999 V2000
    7.2740   -3.0080    0.9520 C   0  0  0  0  0  0  0  0  0  0  0  0
    7.2800   -1.6930    0.9410 C   0  0  0  0  0  0  0  0  0  0  0  0
    8.5030   -0.8720    1.1910 C   0  0  0  0  0  0  0  0  0  0  0  0
    8.6780    0.2460    0.2200 C   0  0  0  0  0  0  0  0  0  0  0  0
    7.4500    1.0680   -0.0590 C   0  0  0  0  0  0  0  0  0  0  0  0
    6.2150    0.2640   -0.2220 C   0  0  0  0  0  0  0  0  0  0  0  0
    5.3210    0.5480   -1.1120 C   0  0  0  0  0  0  0  0  0  0  0  0
    5.4250    1.6730   -2.0410 C   0  0  0  0  0  0  0  0  0  0  0  0
    6.5020    1.9940   -2.7810 N   0  0  0  0  0  0  0  0  0  0  0  0
    6.2620    3.0860   -3.5160 C   0  0  0  0  0  0  0  0  0  0  0  0
    4.9740    3.4450   -3.2050 C   0  0  0  0  0  0  0  0  0  0  0  0
    4.4480    2.5730   -2.2900 N   0  0  0  0  0  0  0  0  0  0  0  0
    3.1290    2.6580   -1.7360 C   0  0  0  0  0  0  0  0  0  0  0  0
    2.5020    3.2650   -0.9790 N   0  0  0  0  0  0  0  0  0  0  0  0
    1.2350    3.0800   -0.6870 N   0  0  0  0  0  0  0  0  0  0  0  0
    0.5630    2.2730   -1.1520 C   0  0  0  0  0  0  0  0  0  0  0  0
   -0.8430    1.7000   -1.1560 C   0  0  0  0  0  0  0  0  0  0  0  0
   -1.1600    0.7520   -1.8790 O   0  0  0  0  0  0  0  0  0  0  0  0
   -1.8080    2.2750   -0.3040 N   0  0  0  0  0  0  0  0  0  0  0  0
   -3.1640    1.8440   -0.2040 C   0  0  1  0  0  0  0  0  0  0  0  0
   -3.8490    2.7270    0.8360 C   0  0  0  0  0  0  0  0  0  0  0  0
   -3.9540    2.0230   -1.4760 C   0  0  0  0  0  0  0  0  0  0  0  0
   -3.3100    0.4180    0.2050 C   0  0  0  0  0  0  0  0  0  0  0  0
   -2.3080   -0.3210    0.4530 O   0  0  0  0  0  0  0  0  0  0  0  0
   -4.6270   -0.0990    0.3110 N   0  0  0  0  0  0  0  0  0  0  0  0
   -4.8790   -1.4710    0.7000 C   0  0  0  0  0  0  0  0  0  0  0  0
   -6.3900   -1.7110    0.7080 C   0  0  1  0  0  0  0  0  0  0  0  0
   -6.8800   -1.4490   -0.6830 C   0  0  0  0  0  0  0  0  0  0  0  0
   -6.6180   -3.1590    1.0560 C   0  0  0  0  0  0  0  0  0  0  0  0
   -5.9850   -4.1100    0.0870 C   0  0  0  0  0  0  0  0  0  0  0  0
   -7.0570   -0.8510    1.6360 N   0  0  0  0  0  0  0  0  0  0  0  0
   -8.2460   -0.2110    1.0930 C   0  0  0  0  0  0  0  0  0  0  0  0
    1.7940    1.4400   -2.3230 S   0  0  0  0  0  0  0  0  0  0  0  0
    6.0460   -0.9000    0.6760 C   0  0  0  0  0  0  0  0  0  0  0  0
    4.9300   -1.2090    1.2280 C   0  0  0  0  0  0  0  0  0  0  0  0
    4.7640   -2.3440    2.1510 C   0  0  0  0  0  0  0  0  0  0  0  0
    3.4930   -0.2380    0.9330 Cl  0  0  0  0  0  0  0  0  0  0  0  0
  1  2  2  0
  2  3  1  0
  2 34  1  0
  3  4  1  0
  4  5  1  0
  5  6  1  0
  6  7  2  3
  6 34  1  0
  7  8  1  0
  8  9  2  0
  8 12  1  0
  9 10  1  0
 10 11  2  0
 11 12  1  0
 12 13  1  0
 13 14  2  0
 13 33  1  0
 14 15  1  0
 15 16  2  0
 16 17  1  0
 16 33  1  0
 17 18  2  0
 17 19  1  0
 19 20  1  0
 20 21  1  1
 20 22  1  0
 20 23  1  0
 23 24  2  0
 23 25  1  0
 25 26  1  0
 26 27  1  0
 27 28  1  6
 27 29  1  0
 27 31  1  0
 29 30  1  0
 31 32  1  0
 34 35  2  3
 35 36  1  0
 35 37  1  0
M  CHG  1  31   1
M  END
