
     RDKit          3D

 37 40  0  0  0  0  0  0  0  0999 V2000
   -6.6650   -3.1880    1.2100 C   0  0  0  0  0  0  0  0  0  0  0  0
   -6.7130   -2.1870    0.3100 C   0  0  0  0  0  0  0  0  0  0  0  0
   -5.4780   -1.5740   -0.1720 C   0  0  0  0  0  0  0  0  0  0  0  0
   -5.5390   -0.6120   -1.0410 C   0  0  0  0  0  0  0  0  0  0  0  0
   -4.3420    0.0840   -1.5970 C   0  0  0  0  0  0  0  0  0  0  0  0
   -4.4410    1.4710   -1.5730 N   0  0  0  0  0  0  0  0  0  0  0  0
   -4.0820    2.1960   -0.4420 C   0  0  0  0  0  0  0  0  0  0  0  0
   -2.7480    2.0730    0.0630 N   0  0  0  0  0  0  0  0  0  0  0  0
   -2.2190    1.0440    0.8500 C   0  0  0  0  0  0  0  0  0  0  0  0
   -3.0690    0.1150    1.1570 O   0  0  0  0  0  0  0  0  0  0  0  0
   -0.8540    0.8800    1.3620 C   0  0  0  0  0  0  0  0  0  0  0  0
   -0.4070   -0.5760    2.3110 S   0  0  0  0  0  0  0  0  0  0  0  0
    1.3530   -0.0830    2.5830 C   0  0  0  0  0  0  0  0  0  0  0  0
    2.0690   -0.8400    3.2930 N   0  0  0  0  0  0  0  0  0  0  0  0
    3.4190   -0.7260    3.6770 C   0  0  0  0  0  0  0  0  0  0  0  0
    1.3810    1.0520    1.9530 N   0  0  0  0  0  0  0  0  0  0  0  0
    2.6970    1.7760    1.7340 C   0  0  0  0  0  0  0  0  0  0  0  0
    3.1580    1.5970    0.3250 C   0  0  0  0  0  0  0  0  0  0  0  0
    3.5450    0.3350   -0.1550 N   0  0  0  0  0  0  0  0  0  0  0  0
    4.7100   -0.3840    0.2250 C   0  0  0  0  0  0  0  0  0  0  0  0
    5.5150    0.1640    1.0350 O   0  0  0  0  0  0  0  0  0  0  0  0
    5.0270   -1.6830   -0.2530 N   0  0  0  0  0  0  0  0  0  0  0  0
    6.2200   -2.3960    0.1450 C   0  0  0  0  0  0  0  0  0  0  0  0
    7.4240   -1.8500   -0.5630 C   0  0  0  0  0  0  0  0  0  0  0  0
    7.2350   -0.9300   -1.5510 C   0  0  0  0  0  0  0  0  0  0  0  0
    8.3110   -0.3970   -2.2280 C   0  0  0  0  0  0  0  0  0  0  0  0
    9.5580   -0.8240   -1.8730 C   0  0  0  0  0  0  0  0  0  0  0  0
    9.7690   -1.7180   -0.9150 N   0  0  0  0  0  0  0  0  0  0  0  0
    8.7060   -2.2370   -0.2540 C   0  0  0  0  0  0  0  0  0  0  0  0
    0.3160    1.5660    1.3430 C   0  0  0  0  0  0  0  0  0  0  0  0
    0.3290    2.9390    0.6660 C   0  0  0  0  0  0  0  0  0  0  0  0
   -5.7010    2.0010   -2.0670 C   0  0  0  0  0  0  0  0  0  0  0  0
   -6.6680    0.9820   -2.5760 C   0  0  0  0  0  0  0  0  0  0  0  0
   -6.8170   -0.0960   -1.5780 C   0  0  0  0  0  0  0  0  0  0  0  0
   -7.9510   -0.6190   -1.1690 C   0  0  0  0  0  0  0  0  0  0  0  0
   -9.4410    0.0470   -1.8540 Cl  0  0  0  0  0  0  0  0  0  0  0  0
   -8.0030   -1.7140   -0.1850 C   0  0  0  0  0  0  0  0  0  0  0  0
  1  2  2  0
  2  3  1  0
  2 37  1  0
  3  4  2  0
  4  5  1  0
  4 34  1  0
  5  6  1  0
  6  7  1  0
  6 32  1  0
  7  8  1  0
  8  9  1  0
  9 10  2  0
  9 11  1  0
 11 12  1  0
 11 30  2  0
 12 13  1  0
 13 14  2  3
 13 16  1  0
 14 15  1  0
 16 17  1  0
 16 30  1  0
 17 18  1  0
 18 19  1  0
 19 20  1  0
 20 21  2  0
 20 22  1  0
 22 23  1  0
 23 24  1  0
 24 25  2  0
 24 29  1  0
 25 26  1  0
 26 27  2  0
 27 28  1  0
 28 29  2  0
 30 31  1  0
 32 33  1  0
 33 34  1  0
 34 35  2  0
 35 36  1  0
 35 37  1  0
M  CHG  1  14   1
M  END
