
     RDKit          3D

 37 41  0  0  0  0  0  0  0  0999 V2000
   -7.0930    2.8250   -0.2190 C   0  0  0  0  0  0  0  0  0  0  0  0
   -5.9550    2.3190   -1.0320 C   0  0  0  0  0  0  0  0  0  0  0  0
   -5.4560    3.1020   -2.0460 C   0  0  0  0  0  0  0  0  0  0  0  0
   -4.4060    2.6720   -2.8220 C   0  0  0  0  0  0  0  0  0  0  0  0
   -3.8230    1.4340   -2.6000 C   0  0  0  0  0  0  0  0  0  0  0  0
   -4.3060    0.6430   -1.5950 C   0  0  0  0  0  0  0  0  0  0  0  0
   -3.7580   -0.6590   -1.3530 N   0  0  0  0  0  0  0  0  0  0  0  0
   -4.2300   -1.7740   -1.9320 N   0  0  0  0  0  0  0  0  0  0  0  0
   -3.5600   -2.8560   -1.5580 C   0  0  0  0  0  0  0  0  0  0  0  0
   -3.7390   -4.2520   -1.9420 C   0  0  0  0  0  0  0  0  0  0  0  0
   -4.6480   -4.5650   -2.7490 O   0  0  0  0  0  0  0  0  0  0  0  0
   -2.9330   -5.2620   -1.4440 O   0  0  0  0  0  0  0  0  0  0  0  0
   -2.6020   -2.3970   -0.6870 C   0  0  0  0  0  0  0  0  0  0  0  0
   -2.7370   -0.9950   -0.5620 C   0  0  0  0  0  0  0  0  0  0  0  0
   -1.8710   -0.1860    0.2870 C   0  0  0  0  0  0  0  0  0  0  0  0
   -0.8540   -0.8150    0.9840 C   0  0  0  0  0  0  0  0  0  0  0  0
   -0.0000   -0.0860    1.8140 C   0  0  0  0  0  0  0  0  0  0  0  0
   -0.1400    1.2740    1.9660 C   0  0  0  0  0  0  0  0  0  0  0  0
    0.6680    2.0660    2.7700 O   0  0  0  0  0  0  0  0  0  0  0  0
    1.7350    1.5840    3.5270 C   0  0  0  0  0  0  0  0  0  0  0  0
    2.7360    0.9760    2.6520 C   0  0  0  0  0  0  0  0  0  0  0  0
    2.7340    1.2650    1.2970 C   0  0  0  0  0  0  0  0  0  0  0  0
    3.6810    0.6910    0.4400 C   0  0  0  0  0  0  0  0  0  0  0  0
    4.6270   -0.1700    0.9440 C   0  0  0  0  0  0  0  0  0  0  0  0
    5.6190   -0.7720    0.0480 C   0  0  0  0  0  0  0  0  0  0  0  0
    6.6240   -1.6470    0.3810 C   0  0  0  0  0  0  0  0  0  0  0  0
    7.3020   -1.9430   -0.7700 C   0  0  0  0  0  0  0  0  0  0  0  0
    6.6810   -1.2280   -1.7960 C   0  0  0  0  0  0  0  0  0  0  0  0
    7.0990   -1.2660   -3.1860 C   0  0  0  0  0  0  0  0  0  0  0  0
    6.4760   -0.5870   -4.0310 O   0  0  0  0  0  0  0  0  0  0  0  0
    8.1670   -2.0320   -3.6030 O   0  0  0  0  0  0  0  0  0  0  0  0
    5.7050   -0.5680   -1.2360 O   0  0  0  0  0  0  0  0  0  0  0  0
    4.6380   -0.4640    2.2900 C   0  0  0  0  0  0  0  0  0  0  0  0
    3.6940    0.1110    3.1310 C   0  0  0  0  0  0  0  0  0  0  0  0
   -1.1580    1.8820    1.2640 C   0  0  0  0  0  0  0  0  0  0  0  0
   -2.0250    1.1570    0.4240 C   0  0  0  0  0  0  0  0  0  0  0  0
   -5.3590    1.0890   -0.8270 C   0  0  0  0  0  0  0  0  0  0  0  0
  1  2  1  0
  2  3  2  0
  2 37  1  0
  3  4  1  0
  4  5  2  0
  5  6  1  0
  6  7  1  0
  6 37  2  0
  7  8  1  0
  7 14  1  0
  8  9  2  0
  9 10  1  0
  9 13  1  0
 10 11  2  0
 10 12  1  0
 13 14  2  0
 14 15  1  0
 15 16  2  0
 15 36  1  0
 16 17  1  0
 17 18  2  0
 18 19  1  0
 18 35  1  0
 19 20  1  0
 20 21  1  0
 21 22  2  0
 21 34  1  0
 22 23  1  0
 23 24  2  0
 24 25  1  0
 24 33  1  0
 25 26  2  0
 25 32  1  0
 26 27  1  0
 27 28  2  0
 28 29  1  0
 28 32  1  0
 29 30  2  0
 29 31  1  0
 33 34  2  0
 35 36  2  0
M  END
