
     RDKit          3D

 36 39  0  0  0  0  0  0  0  0999 V2000
    8.8280   -0.6630    0.5880 C   0  0  0  0  0  0  0  0  0  0  0  0
    7.6190   -0.1290    0.6760 C   0  0  0  0  0  0  0  0  0  0  0  0
    6.6880   -0.3910    1.7910 C   0  0  2  0  0  0  0  0  0  0  0  0
    5.7500   -1.3360    1.4100 O   0  0  0  0  0  0  0  0  0  0  0  0
    5.0000   -0.8220    0.3520 C   0  0  0  0  0  0  0  0  0  0  0  0
    4.3610    0.4240    0.7870 C   0  0  0  0  0  0  0  0  0  0  0  0
    3.2790    0.9400    0.4660 N   0  0  0  0  0  0  0  0  0  0  0  0
    2.3160    0.5100   -0.4070 N   0  0  0  0  0  0  0  0  0  0  0  0
    1.3860    1.2120   -0.9010 C   0  0  0  0  0  0  0  0  0  0  0  0
    1.4240    2.6660   -0.4160 C   0  0  0  0  0  0  0  0  0  0  0  0
    0.3620    0.9090   -1.8530 C   0  0  0  0  0  0  0  0  0  0  0  0
    0.1850   -0.2110   -2.4770 C   0  0  0  0  0  0  0  0  0  0  0  0
    1.0510   -1.3510   -2.2410 C   0  0  0  0  0  0  0  0  0  0  0  0
    0.7670   -2.5560   -2.9860 N   0  0  0  0  0  0  0  0  0  0  0  0
    2.0120   -1.4590   -1.4890 O   0  0  0  0  0  0  0  0  0  0  0  0
   -0.7550   -0.3130   -3.6000 N   0  0  0  0  0  0  0  0  0  0  0  0
   -1.4500    0.8340   -4.0060 C   0  0  0  0  0  0  0  0  0  0  0  0
   -2.2930    0.8260   -4.9680 O   0  0  0  0  0  0  0  0  0  0  0  0
   -1.1920    2.0090   -3.3180 O   0  0  0  0  0  0  0  0  0  0  0  0
   -0.7690    1.9210   -2.0000 C   0  0  1  0  0  0  0  0  0  0  0  0
   -1.9640    1.3820   -1.2280 C   0  0  0  0  0  0  0  0  0  0  0  0
   -3.0200    1.2430   -1.8730 O   0  0  0  0  0  0  0  0  0  0  0  0
   -1.9110    1.0480    0.1330 N   0  0  0  0  0  0  0  0  0  0  0  0
   -2.9630    0.5530    0.9080 C   0  0  0  0  0  0  0  0  0  0  0  0
   -2.6890    0.2800    2.2490 C   0  0  0  0  0  0  0  0  0  0  0  0
   -3.6520   -0.2090    3.1000 C   0  0  0  0  0  0  0  0  0  0  0  0
   -4.9290   -0.4500    2.6620 C   0  0  0  0  0  0  0  0  0  0  0  0
   -5.9210   -0.9420    3.4990 C   0  0  0  0  0  0  0  0  0  0  0  0
   -7.1820   -1.1710    3.0350 C   0  0  0  0  0  0  0  0  0  0  0  0
   -7.4900   -0.9090    1.7050 C   0  0  0  0  0  0  0  0  0  0  0  0
   -8.7420   -1.1360    1.2450 F   0  0  0  0  0  0  0  0  0  0  0  0
   -6.5000   -0.4220    0.8860 C   0  0  0  0  0  0  0  0  0  0  0  0
   -6.9030   -0.1000   -0.7810 Cl  0  0  0  0  0  0  0  0  0  0  0  0
   -5.2270   -0.1890    1.3450 C   0  0  0  0  0  0  0  0  0  0  0  0
   -4.2320    0.3120    0.4830 C   0  0  0  0  0  0  0  0  0  0  0  0
    5.5640    1.0740    1.9400 S   0  0  0  0  0  0  0  0  0  0  0  0
  1  2  2  0
  3  2  1  6
  3  4  1  0
  3 36  1  0
  4  5  1  0
  5  6  1  0
  6  7  2  3
  6 36  1  0
  7  8  1  0
  8  9  2  3
  9 10  1  0
  9 11  1  0
 11 12  2  0
 11 20  1  0
 12 13  1  0
 12 16  1  0
 13 14  1  0
 13 15  2  0
 16 17  1  0
 17 18  2  0
 17 19  1  0
 19 20  1  0
 20 21  1  1
 21 22  2  0
 21 23  1  0
 23 24  1  0
 24 25  2  0
 24 35  1  0
 25 26  1  0
 26 27  2  0
 27 28  1  0
 27 34  1  0
 28 29  2  0
 29 30  1  0
 30 31  1  0
 30 32  2  0
 32 33  1  0
 32 34  1  0
 34 35  2  0
M  END
