
     RDKit          3D

 37 40  0  0  0  0  0  0  0  0999 V2000
    4.3390   -3.8520   -1.4900 C   0  0  0  0  0  0  0  0  0  0  0  0
    3.0690   -3.4570   -1.6770 C   0  0  0  0  0  0  0  0  0  0  0  0
    2.6780   -2.0920   -1.2410 C   0  0  0  0  0  0  0  0  0  0  0  0
    1.6260   -2.1010   -0.2480 N   0  0  0  0  0  0  0  0  0  0  0  0
    1.2680   -0.8720    0.3730 C   0  0  0  0  0  0  0  0  0  0  0  0
    0.0160   -0.5840    0.2940 N   0  0  0  0  0  0  0  0  0  0  0  0
   -0.6480    0.4940    0.7710 N   0  0  0  0  0  0  0  0  0  0  0  0
   -2.1200    0.5080    0.6350 C   0  0  0  0  0  0  0  0  0  0  0  0
   -2.6800   -0.6520    0.6760 C   0  0  0  0  0  0  0  0  0  0  0  0
   -4.0120   -1.1400    0.5980 C   0  0  0  0  0  0  0  0  0  0  0  0
   -4.4800   -2.1350   -0.2830 C   0  0  0  0  0  0  0  0  0  0  0  0
   -5.8160   -2.3160   -0.0260 C   0  0  0  0  0  0  0  0  0  0  0  0
   -6.1270   -1.4420    0.9890 C   0  0  0  0  0  0  0  0  0  0  0  0
   -5.0480   -0.8020    1.2970 O   0  0  0  0  0  0  0  0  0  0  0  0
   -2.6980    1.8180    0.4550 C   0  0  0  0  0  0  0  0  0  0  0  0
   -1.8730    2.8270    0.4540 O   0  0  0  0  0  0  0  0  0  0  0  0
   -4.0400    2.1590    0.2740 N   0  0  0  0  0  0  0  0  0  0  0  0
   -4.4230    3.5680    0.1130 C   0  0  1  0  0  0  0  0  0  0  0  0
   -5.4160    3.7840   -1.0310 C   0  0  0  0  0  0  0  0  0  0  0  0
   -5.8010    3.9950    0.3820 C   0  0  0  0  0  0  0  0  0  0  0  0
    2.2250   -0.0660    1.0020 N   0  0  0  0  0  0  0  0  0  0  0  0
    2.9950   -0.4110    2.1690 C   0  0  0  0  0  0  0  0  0  0  0  0
    4.0300   -1.4650    1.9810 C   0  0  0  0  0  0  0  0  0  0  0  0
    2.4900    1.2640    0.4640 C   0  0  0  0  0  0  0  0  0  0  0  0
    2.4380    2.3630    1.0950 N   0  0  0  0  0  0  0  0  0  0  0  0
    2.7200    3.5720    0.4400 C   0  0  0  0  0  0  0  0  0  0  0  0
    3.2930    3.3690   -0.8980 C   0  0  0  0  0  0  0  0  0  0  0  0
    3.8960    4.2190   -1.6630 C   0  0  0  0  0  0  0  0  0  0  0  0
    4.1230    5.6600   -1.2750 C   0  0  0  0  0  0  0  0  0  0  0  0
    2.9570    1.6510   -1.2200 S   0  0  0  0  0  0  0  0  0  0  0  0
    0.8890   -3.3040    0.0830 C   0  0  0  0  0  0  0  0  0  0  0  0
    1.0790   -3.9700    1.2670 C   0  0  0  0  0  0  0  0  0  0  0  0
    0.3750   -5.1170    1.5340 C   0  0  0  0  0  0  0  0  0  0  0  0
   -0.4950   -5.5780    0.6350 N   0  0  0  0  0  0  0  0  0  0  0  0
   -0.7020   -4.9410   -0.5380 C   0  0  0  0  0  0  0  0  0  0  0  0
   -0.0090   -3.7770   -0.8460 C   0  0  0  0  0  0  0  0  0  0  0  0
   -0.3280   -2.9400   -2.3780 Cl  0  0  0  0  0  0  0  0  0  0  0  0
  1  2  2  0
  2  3  1  0
  3  4  1  0
  4  5  1  0
  4 31  1  0
  5  6  2  3
  5 21  1  0
  6  7  1  0
  7  8  1  0
  8  9  2  3
  8 15  1  0
  9 10  1  0
 10 11  2  0
 10 14  1  0
 11 12  1  0
 12 13  2  0
 13 14  1  0
 15 16  2  0
 15 17  1  0
 18 17  1  1
 18 19  1  0
 18 20  1  0
 19 20  1  0
 21 22  1  0
 21 24  1  0
 22 23  1  0
 24 25  2  0
 24 30  1  0
 25 26  1  0
 26 27  1  0
 27 28  2  3
 27 30  1  0
 28 29  1  0
 31 32  2  0
 31 36  1  0
 32 33  1  0
 33 34  2  0
 34 35  1  0
 35 36  2  0
 36 37  1  0
M  CHG  1  25   1
M  END
