
     RDKit          3D

 36 39  0  0  0  0  0  0  0  0999 V2000
   -6.6320   -2.5770    1.1530 C   0  0  0  0  0  0  0  0  0  0  0  0
   -6.5440   -1.1750    1.7110 C   0  0  0  0  0  0  0  0  0  0  0  0
   -5.6980   -0.3510    0.8560 N   0  0  0  0  0  0  0  0  0  0  0  0
   -4.3910   -0.3320    1.1580 C   0  0  0  0  0  0  0  0  0  0  0  0
   -3.9170   -0.9930    2.1150 O   0  0  0  0  0  0  0  0  0  0  0  0
   -3.5630    0.4290    0.3970 C   0  0  0  0  0  0  0  0  0  0  0  0
   -2.1340    0.4570    0.7290 C   0  0  0  0  0  0  0  0  0  0  0  0
   -1.8250    0.9420    1.8360 O   0  0  0  0  0  0  0  0  0  0  0  0
   -1.1780   -0.0320   -0.1570 N   0  0  0  0  0  0  0  0  0  0  0  0
    0.2220   -0.0460    0.0550 C   0  0  0  0  0  0  0  0  0  0  0  0
    0.7950    0.3720    1.2210 C   0  0  0  0  0  0  0  0  0  0  0  0
    2.1830    0.3360    1.3580 C   0  0  0  0  0  0  0  0  0  0  0  0
    3.0250   -0.1060    0.3620 C   0  0  0  0  0  0  0  0  0  0  0  0
    4.3930   -0.0800    0.6010 N   0  0  0  0  0  0  0  0  0  0  0  0
    5.4400   -0.4890   -0.2480 C   0  0  0  0  0  0  0  0  0  0  0  0
    5.1990   -0.9430   -1.3620 O   0  0  0  0  0  0  0  0  0  0  0  0
    6.8150   -0.3870    0.1580 N   0  0  0  0  0  0  0  0  0  0  0  0
    7.8840   -0.8030   -0.7170 C   0  0  0  0  0  0  0  0  0  0  0  0
    9.1970   -0.5680   -0.0610 C   0  0  0  0  0  0  0  0  0  0  0  0
    9.7810    0.6940    0.0070 C   0  0  0  0  0  0  0  0  0  0  0  0
   10.9850    0.5300    0.6810 C   0  0  0  0  0  0  0  0  0  0  0  0
   11.0650   -0.8090    0.9830 C   0  0  0  0  0  0  0  0  0  0  0  0
    9.9840   -1.4150    0.5240 O   0  0  0  0  0  0  0  0  0  0  0  0
    2.4480   -0.5210   -0.7940 C   0  0  0  0  0  0  0  0  0  0  0  0
    1.0830   -0.4990   -0.9610 C   0  0  0  0  0  0  0  0  0  0  0  0
    0.3500   -1.0390   -2.4630 Cl  0  0  0  0  0  0  0  0  0  0  0  0
   -4.0410    1.1560   -0.6500 C   0  0  0  0  0  0  0  0  0  0  0  0
   -5.4090    1.1340   -0.9650 C   0  0  0  0  0  0  0  0  0  0  0  0
   -6.2330    0.3630   -0.1860 C   0  0  0  0  0  0  0  0  0  0  0  0
   -7.4970    0.1550   -0.2130 N   0  0  0  0  0  0  0  0  0  0  0  0
   -8.7140    0.7580   -1.2660 S   0  0  0  0  0  0  0  0  0  0  0  0
   -9.8310    1.4570   -0.4680 O   0  0  0  0  0  0  0  0  0  0  0  0
   -8.0980    1.8170   -2.5290 C   0  0  0  0  0  0  0  0  0  0  0  0
   -6.8620    2.1810   -2.7050 C   0  0  0  0  0  0  0  0  0  0  0  0
   -6.7060    3.0200   -3.7900 F   0  0  0  0  0  0  0  0  0  0  0  0
   -5.6320    1.8850   -2.0080 C   0  0  0  0  0  0  0  0  0  0  0  0
  1  2  1  0
  2  3  1  0
  3  4  1  0
  3 29  1  0
  4  5  2  0
  4  6  1  0
  6  7  1  0
  6 27  2  0
  7  8  2  0
  7  9  1  0
  9 10  1  0
 10 11  2  0
 10 25  1  0
 11 12  1  0
 12 13  2  0
 13 14  1  0
 13 24  1  0
 14 15  1  0
 15 16  2  0
 15 17  1  0
 17 18  1  0
 18 19  1  0
 19 20  2  0
 19 23  1  0
 20 21  1  0
 21 22  2  0
 22 23  1  0
 24 25  2  0
 25 26  1  0
 27 28  1  0
 28 29  1  0
 28 36  2  0
 29 30  2  0
 30 31  1  0
 31 32  2  0
 31 33  1  6
 33 34  2  0
 34 35  1  0
 34 36  1  0
M  END
