
     RDKit          3D

  9  9  0  0  0  0  0  0  0  0999 V2000
    0.9260    1.5060    1.1180 C   0  0  0  0  0  0  0  0  0  0  0  0
    0.0990    0.6080    0.6670 C   0  0  0  0  0  0  0  0  0  0  0  0
   -1.5610    0.4000    1.3820 S   0  0  0  0  0  0  0  0  0  0  0  0
   -2.4480   -0.5360    0.0690 C   0  0  0  0  0  0  0  0  0  0  0  0
   -1.8500   -0.0150   -1.2280 C   0  0  0  0  0  0  0  0  0  0  0  0
   -0.5520   -0.6020   -1.4010 O   0  0  0  0  0  0  0  0  0  0  0  0
    0.4210   -0.2910   -0.4350 C   0  0  0  0  0  0  0  0  0  0  0  0
    1.6380   -0.7960   -0.4950 C   0  0  0  0  0  0  0  0  0  0  0  0
    2.6750   -0.5390    0.4300 N   0  0  0  0  0  0  0  0  0  0  0  0
  1  2  2  0
  2  3  1  0
  2  7  1  0
  3  4  1  0
  4  5  1  0
  5  6  1  0
  6  7  1  0
  7  8  2  3
  8  9  1  0
M  END
