
     RDKit          3D

  8  8  0  0  0  0  0  0  0  0999 V2000
    2.0050    1.8820   -2.2000 N   0  0  0  0  0  0  0  0  0  0  0  0
    1.3040    1.2780   -1.4880 C   0  0  0  0  0  0  0  0  0  0  0  0
    0.4490    0.5230   -0.5970 C   0  0  0  0  0  0  0  0  0  0  0  0
    1.0530   -0.3210    0.2130 C   0  0  0  0  0  0  0  0  0  0  0  0
    0.2300   -1.1230    1.1490 C   0  0  0  0  0  0  0  0  0  0  0  0
   -1.1420   -0.8860    1.0630 O   0  0  0  0  0  0  0  0  0  0  0  0
   -1.7720   -0.0020    0.2150 C   0  0  0  0  0  0  0  0  0  0  0  0
   -0.9990    0.6930   -0.6040 C   0  0  0  0  0  0  0  0  0  0  0  0
  1  2  3  0
  2  3  1  0
  3  4  2  0
  3  8  1  0
  4  5  1  0
  5  6  1  0
  6  7  1  0
  7  8  2  0
M  END
