
     RDKit          3D

  9  9  0  0  0  0  0  0  0  0999 V2000
    0.8390   -1.6950   -0.5000 C   0  0  0  0  0  0  0  0  0  0  0  0
    0.2810   -0.6020    0.0170 C   0  0  0  0  0  0  0  0  0  0  0  0
   -1.1260   -0.7080    0.4590 C   0  0  0  0  0  0  0  0  0  0  0  0
   -1.8910    0.3060   -0.2240 N   0  0  0  0  0  0  0  0  0  0  0  0
   -1.6080    1.6810   -0.0400 C   0  0  0  0  0  0  0  0  0  0  0  0
   -2.4600    2.5820   -0.1260 O   0  0  0  0  0  0  0  0  0  0  0  0
    0.0740    2.1500    0.3370 S   0  0  0  0  0  0  0  0  0  0  0  0
    1.0050    0.6430    0.1490 C   0  0  0  0  0  0  0  0  0  0  0  0
    2.3120    0.6860    0.1310 C   0  0  0  0  0  0  0  0  0  0  0  0
  1  2  2  0
  2  3  1  0
  2  8  1  0
  3  4  1  0
  4  5  1  0
  5  6  2  0
  5  7  1  0
  7  8  1  0
  8  9  2  0
M  END
