
     RDKit          3D

 27 30  0  0  0  0  0  0  0  0999 V2000
    6.9290    1.1710   -0.9710 C   0  0  0  0  0  0  0  0  0  0  0  0
    5.7610    1.4510   -0.1200 C   0  0  0  0  0  0  0  0  0  0  0  0
    4.7960    0.5220   -0.0040 C   0  0  0  0  0  0  0  0  0  0  0  0
    4.9090   -0.7460   -0.7120 C   0  0  0  0  0  0  0  0  0  0  0  0
    3.6950    0.8760    0.8420 C   0  0  0  0  0  0  0  0  0  0  0  0
    2.6480    0.1420    1.1020 C   0  0  0  0  0  0  0  0  0  0  0  0
    2.3070   -1.2000    0.6250 C   0  0  0  0  0  0  0  0  0  0  0  0
    0.8120   -1.3320    0.9630 C   0  0  0  0  0  0  0  0  0  0  0  0
    0.3950    0.0200    1.2560 N   0  0  0  0  0  0  0  0  0  0  0  0
   -0.8190    0.6280    0.8750 C   0  0  0  0  0  0  0  0  0  0  0  0
   -1.0230    1.9580    1.2610 C   0  0  0  0  0  0  0  0  0  0  0  0
   -2.2270    2.5570    0.8830 C   0  0  0  0  0  0  0  0  0  0  0  0
   -3.1660    1.8740    0.1700 C   0  0  0  0  0  0  0  0  0  0  0  0
   -2.9330    0.5560   -0.1870 C   0  0  0  0  0  0  0  0  0  0  0  0
   -1.7530   -0.0820    0.1560 C   0  0  0  0  0  0  0  0  0  0  0  0
   -3.8510   -0.3210   -0.8910 C   0  0  0  0  0  0  0  0  0  0  0  0
   -3.8710   -1.7160   -0.4580 C   0  0  0  0  0  0  0  0  0  0  0  0
   -3.3140   -2.3880    0.4950 C   0  0  0  0  0  0  0  0  0  0  0  0
   -3.7120   -3.8030    0.4240 C   0  0  0  0  0  0  0  0  0  0  0  0
   -4.5830   -3.8700   -0.7070 N   0  0  0  0  0  0  0  0  0  0  0  0
   -4.6860   -2.7040   -1.2170 C   0  0  0  0  0  0  0  0  0  0  0  0
   -4.6930    0.0170   -1.8570 N   0  0  0  0  0  0  0  0  0  0  0  0
   -4.8770    1.3140   -2.3940 N   0  0  0  0  0  0  0  0  0  0  0  0
   -4.9810    2.4660   -1.5210 C   0  0  0  0  0  0  0  0  0  0  0  0
   -5.7400    3.3620   -1.8780 O   0  0  0  0  0  0  0  0  0  0  0  0
   -4.2880    2.6780   -0.2720 N   0  0  0  0  0  0  0  0  0  0  0  0
    1.5000    0.5770    2.0210 C   0  0  0  0  0  0  0  0  0  0  0  0
  1  2  1  0
  2  3  2  3
  3  4  1  0
  3  5  1  0
  5  6  2  3
  6  7  1  0
  6 27  1  0
  7  8  1  0
  8  9  1  0
  9 10  1  0
  9 27  1  0
 10 11  2  0
 10 15  1  0
 11 12  1  0
 12 13  2  0
 13 14  1  0
 13 26  1  0
 14 15  2  0
 14 16  1  0
 16 17  1  0
 16 22  2  0
 17 18  2  0
 17 21  1  0
 18 19  1  0
 19 20  1  0
 20 21  2  0
 22 23  1  0
 23 24  1  0
 24 25  2  0
 24 26  1  0
M  END
