
     RDKit          3D

 25 26  0  0  0  0  0  0  0  0999 V2000
    3.7990   -2.9820   -1.8660 C   0  0  0  0  0  0  0  0  0  0  0  0
    4.0300   -1.6720   -1.2380 C   0  0  0  0  0  0  0  0  0  0  0  0
    4.8960   -0.7230   -1.7410 C   0  0  0  0  0  0  0  0  0  0  0  0
    5.1120    0.4940   -1.1600 C   0  0  0  0  0  0  0  0  0  0  0  0
    6.0020    1.4600   -1.6830 N   0  0  0  0  0  0  0  0  0  0  0  0
    4.4330    0.7810   -0.0210 N   0  0  0  0  0  0  0  0  0  0  0  0
    3.5790   -0.0940    0.5180 C   0  0  0  0  0  0  0  0  0  0  0  0
    2.8650    0.2640    1.7590 C   0  0  0  0  0  0  0  0  0  0  0  0
    1.7050    0.9480    1.4140 O   0  0  0  0  0  0  0  0  0  0  0  0
    0.8420    0.2230    0.6270 C   0  0  0  0  0  0  0  0  0  0  0  0
   -0.3810    1.0620    0.3190 C   0  0  2  0  0  0  0  0  0  0  0  0
   -0.0730    2.2740   -0.3770 N   0  0  0  0  0  0  0  0  0  0  0  0
   -1.0970    1.4210    1.6170 C   0  0  2  0  0  0  0  0  0  0  0  0
   -0.1930    2.3440    2.3850 C   0  0  0  0  0  0  0  0  0  0  0  0
   -1.3830    0.2490    2.2680 O   0  0  0  0  0  0  0  0  0  0  0  0
   -2.7180   -0.0390    2.3890 C   0  0  0  0  0  0  0  0  0  0  0  0
   -3.4200   -0.1670    1.0900 C   0  0  0  0  0  0  0  0  0  0  0  0
   -3.5040   -1.3970    0.4500 C   0  0  0  0  0  0  0  0  0  0  0  0
   -4.1450   -1.5630   -0.7570 C   0  0  0  0  0  0  0  0  0  0  0  0
   -4.2300   -2.8840   -1.4340 C   0  0  0  0  0  0  0  0  0  0  0  0
   -4.7150   -0.4500   -1.3270 C   0  0  0  0  0  0  0  0  0  0  0  0
   -4.6380    0.7750   -0.7010 C   0  0  0  0  0  0  0  0  0  0  0  0
   -5.2190    1.9530   -1.2670 N   0  0  0  0  0  0  0  0  0  0  0  0
   -4.0060    0.8680    0.4590 N   0  0  0  0  0  0  0  0  0  0  0  0
    3.3630   -1.3110   -0.0630 C   0  0  0  0  0  0  0  0  0  0  0  0
  1  2  1  0
  2  3  2  0
  2 25  1  0
  3  4  1  0
  4  5  1  0
  4  6  2  0
  6  7  1  0
  7  8  1  0
  7 25  2  0
  8  9  1  0
  9 10  1  0
 10 11  1  0
 11 12  1  1
 11 13  1  0
 13 14  1  1
 13 15  1  0
 15 16  1  0
 16 17  1  0
 17 18  2  0
 17 24  1  0
 18 19  1  0
 19 20  1  0
 19 21  2  0
 21 22  1  0
 22 23  1  0
 22 24  2  0
M  END
