
     RDKit          3D

 11 12  0  0  0  0  0  0  0  0999 V2000
   -2.2950    2.0360   -0.1470 O   0  0  0  0  0  0  0  0  0  0  0  0
   -1.7630    0.8830   -0.0890 C   0  0  0  0  0  0  0  0  0  0  0  0
   -2.4450   -0.2760   -0.0730 N   0  0  0  0  0  0  0  0  0  0  0  0
   -1.5210   -1.2190   -0.0090 N   0  0  0  0  0  0  0  0  0  0  0  0
   -0.2850   -0.7310    0.0150 C   0  0  0  0  0  0  0  0  0  0  0  0
    0.9870   -1.2610    0.0760 C   0  0  0  0  0  0  0  0  0  0  0  0
    2.0910   -0.4420    0.0850 C   0  0  0  0  0  0  0  0  0  0  0  0
    3.7030   -1.1500    0.1640 Cl  0  0  0  0  0  0  0  0  0  0  0  0
    1.9840    0.9280    0.0350 C   0  0  0  0  0  0  0  0  0  0  0  0
    0.7250    1.4630   -0.0260 C   0  0  0  0  0  0  0  0  0  0  0  0
   -0.4080    0.6410   -0.0360 C   0  0  0  0  0  0  0  0  0  0  0  0
  1  2  2  0
  2  3  1  0
  2 11  1  0
  3  4  1  0
  4  5  1  0
  5  6  2  0
  5 11  1  0
  6  7  1  0
  7  8  1  0
  7  9  2  0
  9 10  1  0
 10 11  2  0
M  END
