
     RDKit          3D

 11 12  0  0  0  0  0  0  0  0999 V2000
    1.1500   -2.1480    0.1330 N   0  0  0  0  0  0  0  0  0  0  0  0
    0.0760   -1.2260    0.0590 C   0  0  0  0  0  0  0  0  0  0  0  0
   -1.1990   -1.6220    0.0340 N   0  0  0  0  0  0  0  0  0  0  0  0
   -2.2040   -0.7360   -0.0370 C   0  0  0  0  0  0  0  0  0  0  0  0
   -1.9840    0.6240   -0.0880 C   0  0  0  0  0  0  0  0  0  0  0  0
   -0.6920    1.0700   -0.0650 C   0  0  0  0  0  0  0  0  0  0  0  0
   -0.1420    2.2770   -0.1000 O   0  0  0  0  0  0  0  0  0  0  0  0
    1.1660    2.1980   -0.0540 C   0  0  0  0  0  0  0  0  0  0  0  0
    1.4950    0.8670    0.0140 C   0  0  0  0  0  0  0  0  0  0  0  0
    3.1110    0.2080    0.0960 Cl  0  0  0  0  0  0  0  0  0  0  0  0
    0.3310    0.1490    0.0080 C   0  0  0  0  0  0  0  0  0  0  0  0
  1  2  1  0
  2  3  2  0
  2 11  1  0
  3  4  1  0
  4  5  2  0
  5  6  1  0
  6  7  1  0
  6 11  2  0
  7  8  1  0
  8  9  2  0
  9 10  1  0
  9 11  1  0
M  END
