
     RDKit          3D

 11 12  0  0  0  0  0  0  0  0999 V2000
   -2.0540   -2.2370    0.2040 O   0  0  0  0  0  0  0  0  0  0  0  0
   -1.6940   -1.0280    0.1330 C   0  0  0  0  0  0  0  0  0  0  0  0
   -2.4380    0.0830    0.1230 N   0  0  0  0  0  0  0  0  0  0  0  0
   -1.6400    1.1350    0.0360 N   0  0  0  0  0  0  0  0  0  0  0  0
   -0.3540    0.7300   -0.0130 C   0  0  0  0  0  0  0  0  0  0  0  0
    0.8630    1.4040   -0.1060 C   0  0  0  0  0  0  0  0  0  0  0  0
    2.0240    0.6810   -0.1350 C   0  0  0  0  0  0  0  0  0  0  0  0
    2.0440   -0.6990   -0.0760 C   0  0  0  0  0  0  0  0  0  0  0  0
    3.5600   -1.5980   -0.1160 Cl  0  0  0  0  0  0  0  0  0  0  0  0
    0.8330   -1.3520    0.0150 C   0  0  0  0  0  0  0  0  0  0  0  0
   -0.3530   -0.6280    0.0460 C   0  0  0  0  0  0  0  0  0  0  0  0
  1  2  2  0
  2  3  1  0
  2 11  1  0
  3  4  1  0
  4  5  1  0
  5  6  2  0
  5 11  1  0
  6  7  1  0
  7  8  2  0
  8  9  1  0
  8 10  1  0
 10 11  2  0
M  END
