
     RDKit          3D

 11 12  0  0  0  0  0  0  0  0999 V2000
   -2.0260   -1.5220    0.0120 N   0  0  0  0  0  0  0  0  0  0  0  0
   -1.0280   -0.5100    0.0130 C   0  0  0  0  0  0  0  0  0  0  0  0
   -1.4570    0.7990    0.0640 C   0  0  0  0  0  0  0  0  0  0  0  0
   -0.4910    1.7840    0.0660 C   0  0  0  0  0  0  0  0  0  0  0  0
   -1.0140    3.4560    0.1300 Cl  0  0  0  0  0  0  0  0  0  0  0  0
    0.8480    1.4530    0.0170 C   0  0  0  0  0  0  0  0  0  0  0  0
    1.2880    0.1460   -0.0340 C   0  0  0  0  0  0  0  0  0  0  0  0
    2.5230   -0.4600   -0.0870 C   0  0  0  0  0  0  0  0  0  0  0  0
    2.2640   -1.7770   -0.1190 N   0  0  0  0  0  0  0  0  0  0  0  0
    0.9790   -1.9820   -0.0880 O   0  0  0  0  0  0  0  0  0  0  0  0
    0.3170   -0.8430   -0.0350 C   0  0  0  0  0  0  0  0  0  0  0  0
  1  2  1  0
  2  3  2  0
  2 11  1  0
  3  4  1  0
  4  5  1  0
  4  6  2  0
  6  7  1  0
  7  8  1  0
  7 11  2  0
  8  9  2  0
  9 10  1  0
 10 11  1  0
M  END
