
     RDKit          3D

 11 12  0  0  0  0  0  0  0  0999 V2000
   -2.0660   -1.1290   -0.0290 N   0  0  0  0  0  0  0  0  0  0  0  0
   -1.0570   -0.1360   -0.0080 C   0  0  0  0  0  0  0  0  0  0  0  0
   -1.3260    1.2150    0.0150 C   0  0  0  0  0  0  0  0  0  0  0  0
   -0.3460    2.1870    0.0350 C   0  0  0  0  0  0  0  0  0  0  0  0
    0.9470    1.7530    0.0310 N   0  0  0  0  0  0  0  0  0  0  0  0
    1.2460    0.4410    0.0090 C   0  0  0  0  0  0  0  0  0  0  0  0
    2.4680   -0.2010    0.0010 C   0  0  0  0  0  0  0  0  0  0  0  0
    4.0580    0.5530    0.0190 Cl  0  0  0  0  0  0  0  0  0  0  0  0
    2.2030   -1.4800   -0.0230 O   0  0  0  0  0  0  0  0  0  0  0  0
    0.9270   -1.7400   -0.0310 C   0  0  0  0  0  0  0  0  0  0  0  0
    0.2700   -0.5340   -0.0120 C   0  0  0  0  0  0  0  0  0  0  0  0
  1  2  1  0
  2  3  2  0
  2 11  1  0
  3  4  1  0
  4  5  2  0
  5  6  1  0
  6  7  2  0
  6 11  1  0
  7  8  1  0
  7  9  1  0
  9 10  1  0
 10 11  2  0
M  END
