
     RDKit          3D

 45 47  0  0  0  0  0  0  0  0999 V2000
    1.1990   -4.0720   -1.6240 C   0  0  0  0  0  0  0  0  0  0  0  0
    0.6360   -3.7510   -0.3670 O   0  0  0  0  0  0  0  0  0  0  0  0
    0.7110   -2.5620    0.2680 C   0  0  0  0  0  0  0  0  0  0  0  0
   -0.2600   -1.6320    0.1000 C   0  0  0  0  0  0  0  0  0  0  0  0
   -1.3380   -1.9850   -0.7670 C   0  0  0  0  0  0  0  0  0  0  0  0
   -2.3890   -1.3610   -1.1190 C   0  0  0  0  0  0  0  0  0  0  0  0
   -2.8570   -0.0560   -0.7470 C   0  0  0  0  0  0  0  0  0  0  0  0
   -4.0050    0.3050   -1.3010 O   0  0  0  0  0  0  0  0  0  0  0  0
   -2.2860    0.8890    0.1130 N   0  0  0  0  0  0  0  0  0  0  0  0
   -3.0010    2.1480    0.3100 C   0  0  2  0  0  0  0  0  0  0  0  0
   -2.1490    3.3890    0.2980 C   0  0  1  0  0  0  0  0  0  0  0  0
   -2.1880    4.2150   -0.9590 C   0  0  0  0  0  0  0  0  0  0  0  0
   -2.9880    3.8980    1.4510 C   0  0  1  0  0  0  0  0  0  0  0  0
   -4.5650    4.6360    0.9000 S   0  0  0  0  0  0  0  0  0  0  0  0
   -3.2390    2.4400    1.8050 C   0  0  1  0  0  0  0  0  0  0  0  0
   -4.6220    2.1250    2.2570 C   0  0  0  0  0  0  0  0  0  0  0  0
   -2.1850    1.8510    2.6900 C   0  0  0  0  0  0  0  0  0  0  0  0
   -3.2980   -2.1050   -2.1080 C   0  0  0  0  0  0  0  0  0  0  0  0
   -2.9280   -3.2190   -2.4790 O   0  0  0  0  0  0  0  0  0  0  0  0
   -4.4450   -1.5630   -2.5430 O   0  0  0  0  0  0  0  0  0  0  0  0
   -5.3890   -2.0550   -3.4040 C   0  0  0  0  0  0  0  0  0  0  0  0
   -6.1520   -3.2730   -3.0470 C   0  0  1  0  0  0  0  0  0  0  0  0
   -5.4250   -4.5420   -2.8410 C   0  0  0  0  0  0  0  0  0  0  0  0
   -7.0430   -3.0340   -1.8270 C   0  0  0  0  0  0  0  0  0  0  0  0
    1.8280   -2.2080    1.1640 C   0  0  0  0  0  0  0  0  0  0  0  0
    2.7470   -3.1540    1.3170 C   0  0  0  0  0  0  0  0  0  0  0  0
    3.8950   -2.9900    2.1480 C   0  0  0  0  0  0  0  0  0  0  0  0
    5.1880   -3.2640    1.7380 C   0  0  0  0  0  0  0  0  0  0  0  0
    6.2220   -3.1250    2.6010 C   0  0  0  0  0  0  0  0  0  0  0  0
    5.9870   -2.7080    3.8910 C   0  0  0  0  0  0  0  0  0  0  0  0
    4.7370   -2.4360    4.3120 N   0  0  0  0  0  0  0  0  0  0  0  0
    3.7170   -2.5700    3.4740 C   0  0  0  0  0  0  0  0  0  0  0  0
    2.5520   -2.3150    3.8810 O   0  0  0  0  0  0  0  0  0  0  0  0
    1.8650   -0.9920    1.7620 O   0  0  0  0  0  0  0  0  0  0  0  0
    2.7430    0.0200    1.6920 C   0  0  0  0  0  0  0  0  0  0  0  0
    2.9050    0.5680    0.2720 C   0  0  0  0  0  0  0  0  0  0  0  0
    3.8410    1.6320    0.2990 O   0  0  0  0  0  0  0  0  0  0  0  0
    4.1770    2.3110   -0.8400 C   0  0  0  0  0  0  0  0  0  0  0  0
    3.6490    2.0090   -2.0670 C   0  0  0  0  0  0  0  0  0  0  0  0
    4.0370    2.7480   -3.1900 C   0  0  0  0  0  0  0  0  0  0  0  0
    4.9370    3.7650   -3.0760 C   0  0  0  0  0  0  0  0  0  0  0  0
    5.4800    4.0870   -1.8520 C   0  0  0  0  0  0  0  0  0  0  0  0
    5.0950    3.3520   -0.7300 C   0  0  0  0  0  0  0  0  0  0  0  0
    5.6140    3.6480    0.4970 O   0  0  0  0  0  0  0  0  0  0  0  0
    6.5360    4.6770    0.7010 C   0  0  0  0  0  0  0  0  0  0  0  0
  1  2  1  0
  2  3  1  0
  3  4  2  3
  3 25  1  0
  4  5  1  0
  5  6  2  3
  6  7  1  0
  6 18  1  0
  7  8  2  0
  7  9  1  0
 10  9  1  1
 10 11  1  0
 10 15  1  0
 11 12  1  6
 11 13  1  0
 13 14  1  6
 13 15  1  0
 15 16  1  1
 15 17  1  0
 18 19  2  0
 18 20  1  0
 20 21  1  0
 21 22  1  0
 22 23  1  1
 22 24  1  0
 25 26  2  3
 25 34  1  0
 26 27  1  0
 27 28  2  0
 27 32  1  0
 28 29  1  0
 29 30  2  0
 30 31  1  0
 31 32  1  0
 32 33  2  0
 34 35  1  0
 35 36  1  0
 36 37  1  0
 37 38  1  0
 38 39  2  0
 38 43  1  0
 39 40  1  0
 40 41  2  0
 41 42  1  0
 42 43  2  0
 43 44  1  0
 44 45  1  0
M  END
