
     RDKit          3D

 44 46  0  0  0  0  0  0  0  0999 V2000
   -2.4810   10.1420    2.8960 C   0  0  0  0  0  0  0  0  0  0  0  0
   -2.7520   10.3390    1.4170 C   0  0  0  0  0  0  0  0  0  0  0  0
   -3.3020    9.1970    0.8310 O   0  0  0  0  0  0  0  0  0  0  0  0
   -2.6280    8.0100    0.7700 C   0  0  0  0  0  0  0  0  0  0  0  0
   -1.3360    7.8480    1.2680 C   0  0  0  0  0  0  0  0  0  0  0  0
   -0.7110    6.6280    1.1770 C   0  0  0  0  0  0  0  0  0  0  0  0
   -1.3030    5.5380    0.6090 C   0  0  0  0  0  0  0  0  0  0  0  0
   -0.6430    4.3330    0.5330 O   0  0  0  0  0  0  0  0  0  0  0  0
   -1.2080    3.2010   -0.0420 C   0  0  0  0  0  0  0  0  0  0  0  0
   -0.1980    2.0750   -0.0200 C   0  0  0  0  0  0  0  0  0  0  0  0
    0.9530    2.3280    0.5090 C   0  0  0  0  0  0  0  0  0  0  0  0
    2.0410    1.3350    0.5920 C   0  0  0  0  0  0  0  0  0  0  0  0
    3.1610    1.6530    1.1790 C   0  0  0  0  0  0  0  0  0  0  0  0
    4.3040    0.8530    1.3500 C   0  0  0  0  0  0  0  0  0  0  0  0
    5.3150    1.4080    1.9620 O   0  0  0  0  0  0  0  0  0  0  0  0
    4.5420   -0.4890    0.9450 C   0  0  0  0  0  0  0  0  0  0  0  0
    5.7180   -0.6820    0.2040 C   0  0  0  0  0  0  0  0  0  0  0  0
    6.0810   -1.8810   -0.3190 C   0  0  0  0  0  0  0  0  0  0  0  0
    7.3070   -2.0450   -1.0760 C   0  0  0  0  0  0  0  0  0  0  0  0
    8.0500   -1.0600   -1.2630 O   0  0  0  0  0  0  0  0  0  0  0  0
    7.6740   -3.2720   -1.5960 O   0  0  0  0  0  0  0  0  0  0  0  0
    8.8610   -3.4230   -2.3260 C   0  0  0  0  0  0  0  0  0  0  0  0
    5.2460   -2.9850   -0.1130 C   0  0  0  0  0  0  0  0  0  0  0  0
    5.6340   -4.1930   -0.6540 O   0  0  0  0  0  0  0  0  0  0  0  0
    4.8720   -5.3500   -0.5070 C   0  0  0  0  0  0  0  0  0  0  0  0
    4.0980   -2.8130    0.6090 C   0  0  0  0  0  0  0  0  0  0  0  0
    3.7610   -1.5600    1.1320 C   0  0  0  0  0  0  0  0  0  0  0  0
    2.5370   -1.5020    1.9560 C   0  0  0  0  0  0  0  0  0  0  0  0
   -0.5990    0.8240   -0.5710 N   0  0  0  0  0  0  0  0  0  0  0  0
   -1.6720    0.0940    0.0460 C   0  0  0  0  0  0  0  0  0  0  0  0
   -2.2040    0.5680    1.0770 O   0  0  0  0  0  0  0  0  0  0  0  0
   -2.1630   -1.1530   -0.4690 N   0  0  0  0  0  0  0  0  0  0  0  0
   -3.2320   -1.8170    0.2150 C   0  0  0  0  0  0  0  0  0  0  0  0
   -3.6750   -3.1290   -0.4430 C   0  0  2  0  0  0  0  0  0  0  0  0
   -2.5120   -4.0280   -0.4470 C   0  0  0  0  0  0  0  0  0  0  0  0
   -2.5370   -5.3800   -0.9810 C   0  0  1  0  0  0  0  0  0  0  0  0
   -3.4630   -6.4020   -0.4230 C   0  0  0  0  0  0  0  0  0  0  0  0
   -2.6340   -5.4280   -2.4920 C   0  0  0  0  0  0  0  0  0  0  0  0
   -4.2420   -2.7300   -1.7390 C   0  0  0  0  0  0  0  0  0  0  0  0
   -5.5870   -3.2340   -2.0290 C   0  0  0  0  0  0  0  0  0  0  0  0
   -6.2620   -3.8410   -0.4640 S   0  0  0  0  0  0  0  0  0  0  0  0
   -4.7250   -3.6610    0.4850 C   0  0  0  0  0  0  0  0  0  0  0  0
   -2.6010    5.6710    0.1030 C   0  0  0  0  0  0  0  0  0  0  0  0
   -3.2070    6.8830    0.2000 C   0  0  0  0  0  0  0  0  0  0  0  0
  1  2  1  0
  2  3  1  0
  3  4  1  0
  4  5  2  0
  4 44  1  0
  5  6  1  0
  6  7  2  0
  7  8  1  0
  7 43  1  0
  8  9  1  0
  9 10  1  0
 10 11  2  3
 10 29  1  0
 11 12  1  0
 12 13  2  3
 13 14  1  0
 14 15  2  0
 14 16  1  0
 16 17  2  0
 16 27  1  0
 17 18  1  0
 18 19  1  0
 18 23  2  0
 19 20  2  0
 19 21  1  0
 21 22  1  0
 23 24  1  0
 23 26  1  0
 24 25  1  0
 26 27  2  0
 27 28  1  0
 29 30  1  0
 30 31  2  0
 30 32  1  0
 32 33  1  0
 34 33  1  1
 34 35  1  0
 34 39  1  0
 34 42  1  0
 35 36  1  0
 36 37  1  1
 36 38  1  0
 39 40  1  0
 40 41  1  0
 41 42  1  0
 43 44  2  0
M  END
