
     RDKit          3D

 45 48  0  0  0  0  0  0  0  0999 V2000
   -5.9570    5.3460    0.6110 C   0  0  0  0  0  0  0  0  0  0  0  0
   -5.1690    4.3690   -0.0350 O   0  0  0  0  0  0  0  0  0  0  0  0
   -3.8170    4.2350    0.1140 C   0  0  0  0  0  0  0  0  0  0  0  0
   -3.2240    5.0370    0.8770 O   0  0  0  0  0  0  0  0  0  0  0  0
   -3.1010    3.1640   -0.6190 C   0  0  2  0  0  0  0  0  0  0  0  0
   -3.3240    3.3770   -2.0990 C   0  0  0  0  0  0  0  0  0  0  0  0
   -2.6700    2.3250   -2.9160 C   0  0  0  0  0  0  0  0  0  0  0  0
   -2.4300    1.0790   -2.1630 N   0  0  0  0  0  0  0  0  0  0  0  0
   -1.3510    0.2310   -2.5010 C   0  0  0  0  0  0  0  0  0  0  0  0
   -0.9820    0.2490   -3.7540 O   0  0  0  0  0  0  0  0  0  0  0  0
   -0.6320   -0.6280   -1.6150 C   0  0  0  0  0  0  0  0  0  0  0  0
    0.3300   -1.4350   -2.1440 C   0  0  0  0  0  0  0  0  0  0  0  0
    1.0480   -2.3040   -1.2080 C   0  0  0  0  0  0  0  0  0  0  0  0
    0.1640   -3.0260   -0.2160 C   0  0  0  0  0  0  0  0  0  0  0  0
   -0.9090   -2.1080    0.3460 C   0  0  0  0  0  0  0  0  0  0  0  0
   -0.7130   -0.6940   -0.1610 C   0  0  1  0  0  0  0  0  0  0  0  0
    0.5780   -0.2760    0.4060 O   0  0  0  0  0  0  0  0  0  0  0  0
    0.6550    0.7230    1.3450 C   0  0  0  0  0  0  0  0  0  0  0  0
   -0.4230    1.2550    1.7070 O   0  0  0  0  0  0  0  0  0  0  0  0
    1.9120    1.2090    1.9520 C   0  0  0  0  0  0  0  0  0  0  0  0
    3.3780    0.4070    1.2190 S   0  0  0  0  0  0  0  0  0  0  0  0
    3.4940    0.8920   -0.5070 C   0  0  0  0  0  0  0  0  0  0  0  0
    4.7030    0.3670   -1.2070 C   0  0  0  0  0  0  0  0  0  0  0  0
    5.9100    0.9120   -0.4980 C   0  0  0  0  0  0  0  0  0  0  0  0
    6.0440    0.7390    0.7310 O   0  0  0  0  0  0  0  0  0  0  0  0
    6.8740    1.6080   -1.1980 O   0  0  0  0  0  0  0  0  0  0  0  0
    8.0110    2.1350   -0.5990 C   0  0  0  0  0  0  0  0  0  0  0  0
    8.8490    1.0890   -0.0030 C   0  0  0  0  0  0  0  0  0  0  0  0
    8.6430   -0.2510   -0.2860 C   0  0  0  0  0  0  0  0  0  0  0  0
    9.4620   -1.1920    0.2900 C   0  0  0  0  0  0  0  0  0  0  0  0
   10.4900   -0.8510    1.1480 C   0  0  0  0  0  0  0  0  0  0  0  0
   11.3180   -1.8260    1.7290 O   0  0  0  0  0  0  0  0  0  0  0  0
   10.6900    0.4840    1.4270 C   0  0  0  0  0  0  0  0  0  0  0  0
    9.8850    1.4500    0.8640 C   0  0  0  0  0  0  0  0  0  0  0  0
   -3.2730    0.7540   -1.0690 C   0  0  0  0  0  0  0  0  0  0  0  0
   -3.7190   -0.5350   -0.8650 C   0  0  0  0  0  0  0  0  0  0  0  0
   -4.5710   -0.8030    0.1750 C   0  0  0  0  0  0  0  0  0  0  0  0
   -5.0600   -2.1420    0.4080 N   0  0  0  0  0  0  0  0  0  0  0  0
   -6.0050   -2.4310    1.4380 C   0  0  0  0  0  0  0  0  0  0  0  0
   -6.4220   -3.8770    1.4870 C   0  0  2  0  0  0  0  0  0  0  0  0
   -7.4320   -3.9720    2.6430 C   0  0  0  0  0  0  0  0  0  0  0  0
   -5.2710   -4.7950    1.7820 C   0  0  0  0  0  0  0  0  0  0  0  0
   -4.9540    0.2390    0.9900 C   0  0  0  0  0  0  0  0  0  0  0  0
   -4.4920    1.5440    0.7700 C   0  0  0  0  0  0  0  0  0  0  0  0
   -3.6460    1.8310   -0.2590 C   0  0  0  0  0  0  0  0  0  0  0  0
  1  2  1  0
  2  3  1  0
  3  4  2  0
  5  3  1  1
  5  6  1  0
  5 45  1  0
  6  7  1  0
  7  8  1  0
  8  9  1  0
  8 35  1  0
  9 10  2  0
  9 11  1  0
 11 12  2  0
 11 16  1  0
 12 13  1  0
 13 14  1  0
 14 15  1  0
 15 16  1  0
 16 17  1  1
 17 18  1  0
 18 19  2  0
 18 20  1  0
 20 21  1  0
 21 22  1  0
 22 23  1  0
 23 24  1  0
 24 25  2  0
 24 26  1  0
 26 27  1  0
 27 28  1  0
 28 29  2  0
 28 34  1  0
 29 30  1  0
 30 31  2  0
 31 32  1  0
 31 33  1  0
 33 34  2  0
 35 36  2  0
 35 45  1  0
 36 37  1  0
 37 38  1  0
 37 43  2  0
 38 39  1  0
 39 40  1  0
 40 41  1  1
 40 42  1  0
 43 44  1  0
 44 45  2  0
M  END
