
     RDKit          3D

 45 47  0  0  0  0  0  0  0  0999 V2000
   -3.2770    3.2430    0.2580 C   0  0  0  0  0  0  0  0  0  0  0  0
   -3.7980    1.9610    0.7830 C   0  0  0  0  0  0  0  0  0  0  0  0
   -3.2370    1.3960    1.7100 O   0  0  0  0  0  0  0  0  0  0  0  0
   -4.9860    1.4150    0.1570 C   0  0  0  0  0  0  0  0  0  0  0  0
   -4.8110    0.5620   -0.9330 C   0  0  0  0  0  0  0  0  0  0  0  0
   -3.5030    0.1440   -1.3810 C   0  0  0  0  0  0  0  0  0  0  0  0
   -2.8400    0.9140   -2.1120 O   0  0  0  0  0  0  0  0  0  0  0  0
   -2.9710   -1.0990   -1.0150 N   0  0  0  0  0  0  0  0  0  0  0  0
   -3.7810   -2.0960   -0.3730 C   0  0  0  0  0  0  0  0  0  0  0  0
   -3.8060   -2.0550    1.1240 C   0  0  0  0  0  0  0  0  0  0  0  0
   -4.6250   -3.0890    1.6110 O   0  0  0  0  0  0  0  0  0  0  0  0
   -5.9710   -3.2640    1.4110 C   0  0  0  0  0  0  0  0  0  0  0  0
   -6.5710   -2.3850    0.7000 O   0  0  0  0  0  0  0  0  0  0  0  0
   -6.7180   -4.3840    1.9640 C   0  0  0  0  0  0  0  0  0  0  0  0
   -6.1280   -5.2290    2.6520 O   0  0  0  0  0  0  0  0  0  0  0  0
   -1.6110   -1.3850   -1.3440 C   0  0  0  0  0  0  0  0  0  0  0  0
   -0.5590   -0.8260   -0.6760 C   0  0  0  0  0  0  0  0  0  0  0  0
    0.7850   -1.0980   -0.9980 C   0  0  0  0  0  0  0  0  0  0  0  0
    1.8030   -0.4700   -0.2290 N   0  0  0  0  0  0  0  0  0  0  0  0
    3.1720   -0.3870   -0.5400 C   0  0  0  0  0  0  0  0  0  0  0  0
    3.5930   -0.8960   -1.5940 O   0  0  0  0  0  0  0  0  0  0  0  0
    4.1440    0.3030    0.3690 C   0  0  2  0  0  0  0  0  0  0  0  0
    3.7420    1.7540    0.6070 C   0  0  0  0  0  0  0  0  0  0  0  0
    5.7720    0.3640   -0.4300 S   0  0  0  0  0  0  0  0  0  0  0  0
    6.4460   -1.3000   -0.6060 C   0  0  0  0  0  0  0  0  0  0  0  0
    6.7600   -1.9230    0.7580 C   0  0  0  0  0  0  0  0  0  0  0  0
    7.7520   -1.1110    1.4880 C   0  0  0  0  0  0  0  0  0  0  0  0
    8.1500   -1.4440    2.6230 O   0  0  0  0  0  0  0  0  0  0  0  0
    8.2500    0.0370    0.9110 O   0  0  0  0  0  0  0  0  0  0  0  0
    9.2040    0.8600    1.5580 C   0  0  1  0  0  0  0  0  0  0  0  0
   10.4030    1.1000    0.6920 C   0  0  0  0  0  0  0  0  0  0  0  0
   10.8380    2.4950    1.0010 C   0  0  0  0  0  0  0  0  0  0  0  0
    9.5810    3.2440    1.3600 C   0  0  0  0  0  0  0  0  0  0  0  0
    8.5560    2.2210    1.7500 C   0  0  0  0  0  0  0  0  0  0  0  0
    1.0090   -1.9690   -2.0360 C   0  0  0  0  0  0  0  0  0  0  0  0
   -0.0770   -2.5200   -2.6940 C   0  0  0  0  0  0  0  0  0  0  0  0
   -1.3890   -2.2550   -2.3800 C   0  0  0  0  0  0  0  0  0  0  0  0
   -2.5110   -2.8920   -3.1400 C   0  0  0  0  0  0  0  0  0  0  0  0
   -5.9720    0.1030   -1.5290 C   0  0  0  0  0  0  0  0  0  0  0  0
   -7.2340    0.4520   -1.0920 C   0  0  0  0  0  0  0  0  0  0  0  0
   -8.4660   -0.0750   -1.7780 C   0  0  0  0  0  0  0  0  0  0  0  0
   -7.3590    1.3000   -0.0060 C   0  0  0  0  0  0  0  0  0  0  0  0
   -8.6880    1.7200    0.5230 C   0  0  0  0  0  0  0  0  0  0  0  0
   -6.2390    1.7780    0.6130 C   0  0  0  0  0  0  0  0  0  0  0  0
   -6.3700    2.7010    1.7950 C   0  0  0  0  0  0  0  0  0  0  0  0
  1  2  1  0
  2  3  2  0
  2  4  1  0
  4  5  2  0
  4 44  1  0
  5  6  1  0
  5 39  1  0
  6  7  2  0
  6  8  1  0
  8  9  1  0
  8 16  1  0
  9 10  1  0
 10 11  1  0
 11 12  1  0
 12 13  2  0
 12 14  1  0
 14 15  2  0
 16 17  2  0
 16 37  1  0
 17 18  1  0
 18 19  1  0
 18 35  2  0
 19 20  1  0
 20 21  2  0
 20 22  1  0
 22 23  1  6
 22 24  1  0
 24 25  1  0
 25 26  1  0
 26 27  1  0
 27 28  2  0
 27 29  1  0
 30 29  1  6
 30 31  1  0
 30 34  1  0
 31 32  1  0
 32 33  1  0
 33 34  1  0
 35 36  1  0
 36 37  2  0
 37 38  1  0
 39 40  2  0
 40 41  1  0
 40 42  1  0
 42 43  1  0
 42 44  2  0
 44 45  1  0
M  END
