
     RDKit          3D

 45 47  0  0  0  0  0  0  0  0999 V2000
    7.6860    3.8290    3.7030 C   0  0  0  0  0  0  0  0  0  0  0  0
    7.9520    2.8150    2.7530 O   0  0  0  0  0  0  0  0  0  0  0  0
    6.9550    2.4500    1.8610 C   0  0  0  0  0  0  0  0  0  0  0  0
    5.7000    3.0140    1.8320 C   0  0  0  0  0  0  0  0  0  0  0  0
    4.7250    2.6360    0.9360 C   0  0  0  0  0  0  0  0  0  0  0  0
    4.9720    1.6450    0.0030 C   0  0  0  0  0  0  0  0  0  0  0  0
    4.0020    1.2500   -0.9070 O   0  0  0  0  0  0  0  0  0  0  0  0
    3.2850    0.0740   -0.7350 C   0  0  0  0  0  0  0  0  0  0  0  0
    3.5860   -0.5770    0.3250 O   0  0  0  0  0  0  0  0  0  0  0  0
    2.2620   -0.4630   -1.6180 C   0  0  0  0  0  0  0  0  0  0  0  0
    1.3310   -1.4630   -0.9050 C   0  0  2  0  0  0  0  0  0  0  0  0
    0.4020   -1.9850   -1.9400 C   0  0  0  0  0  0  0  0  0  0  0  0
    0.2980   -3.5110   -1.7550 C   0  0  0  0  0  0  0  0  0  0  0  0
   -0.6630   -3.7450   -0.6210 C   0  0  0  0  0  0  0  0  0  0  0  0
   -1.8650   -4.4610   -0.9910 N   0  0  0  0  0  0  0  0  0  0  0  0
   -1.7410   -5.7000   -1.7160 C   0  0  0  0  0  0  0  0  0  0  0  0
   -1.6460   -6.8930   -0.7840 C   0  0  0  0  0  0  0  0  0  0  0  0
   -1.5280   -8.0550   -1.5380 O   0  0  0  0  0  0  0  0  0  0  0  0
   -3.1640   -3.9840   -0.6570 C   0  0  0  0  0  0  0  0  0  0  0  0
   -4.1700   -4.5070   -1.1970 O   0  0  0  0  0  0  0  0  0  0  0  0
   -3.3340   -2.8700    0.3270 C   0  0  0  0  0  0  0  0  0  0  0  0
   -3.4610   -1.5650   -0.4310 C   0  0  0  0  0  0  0  0  0  0  0  0
   -3.0370   -0.4190    0.3910 N   0  0  0  0  0  0  0  0  0  0  0  0
   -4.1540    0.3740    0.8360 C   0  0  0  0  0  0  0  0  0  0  0  0
   -5.0160   -0.0040    1.8190 C   0  0  0  0  0  0  0  0  0  0  0  0
   -6.0810    0.7910    2.1400 C   0  0  0  0  0  0  0  0  0  0  0  0
   -6.3540    2.0210    1.4950 C   0  0  0  0  0  0  0  0  0  0  0  0
   -7.4140    2.7200    1.8750 O   0  0  0  0  0  0  0  0  0  0  0  0
   -8.2170    3.7540    1.7830 C   0  0  0  0  0  0  0  0  0  0  0  0
   -9.0200    4.0090    0.5400 C   0  0  1  0  0  0  0  0  0  0  0  0
   -8.1480    4.2210   -0.6460 C   0  0  0  0  0  0  0  0  0  0  0  0
   -9.9670    2.8190    0.3290 C   0  0  0  0  0  0  0  0  0  0  0  0
   -5.4580    2.3810    0.5020 C   0  0  0  0  0  0  0  0  0  0  0  0
   -4.3780    1.5580    0.1880 C   0  0  0  0  0  0  0  0  0  0  0  0
   -1.7260   -0.0990    0.7300 C   0  0  0  0  0  0  0  0  0  0  0  0
   -1.4930    0.0740    1.9840 O   0  0  0  0  0  0  0  0  0  0  0  0
   -0.5460    0.0770   -0.1530 C   0  0  0  0  0  0  0  0  0  0  0  0
    0.6240   -0.7500    0.2320 C   0  0  0  0  0  0  0  0  0  0  0  0
    6.2310    1.0680    0.0200 C   0  0  0  0  0  0  0  0  0  0  0  0
    7.2050    1.4470    0.9160 C   0  0  0  0  0  0  0  0  0  0  0  0
    8.5350    0.8140    0.9610 C   0  0  0  0  0  0  0  0  0  0  0  0
    8.8030   -0.4310   -0.3080 S   0  0  0  0  0  0  0  0  0  0  0  0
    8.9400    0.3380   -1.9290 C   0  0  0  0  0  0  0  0  0  0  0  0
   10.2010    1.1750   -2.0800 C   0  0  0  0  0  0  0  0  0  0  0  0
   10.2380    2.2050   -1.1550 O   0  0  0  0  0  0  0  0  0  0  0  0
  1  2  1  0
  2  3  1  0
  3  4  2  0
  3 40  1  0
  4  5  1  0
  5  6  2  0
  6  7  1  0
  6 39  1  0
  7  8  1  0
  8  9  2  0
  8 10  1  0
 11 10  1  6
 11 12  1  0
 11 38  1  0
 12 13  1  0
 13 14  1  0
 14 15  1  0
 15 16  1  0
 15 19  1  0
 16 17  1  0
 17 18  1  0
 19 20  2  0
 19 21  1  0
 21 22  1  0
 22 23  1  0
 23 24  1  0
 23 35  1  0
 24 25  2  0
 24 34  1  0
 25 26  1  0
 26 27  2  0
 27 28  1  0
 27 33  1  0
 28 29  1  0
 29 30  1  0
 30 31  1  6
 30 32  1  0
 33 34  2  0
 35 36  2  0
 35 37  1  0
 37 38  1  0
 39 40  2  0
 40 41  1  0
 41 42  1  0
 42 43  1  0
 43 44  1  0
 44 45  1  0
M  END
