
     RDKit          3D

 45 47  0  0  0  0  0  0  0  0999 V2000
   -0.6150    5.2520   -2.3740 C   0  0  0  0  0  0  0  0  0  0  0  0
   -0.7090    5.6630   -0.9230 C   0  0  0  0  0  0  0  0  0  0  0  0
    0.6690    5.8810   -0.3530 C   0  0  0  0  0  0  0  0  0  0  0  0
    1.4090    7.0210   -0.6140 C   0  0  0  0  0  0  0  0  0  0  0  0
    0.9580    8.1500   -1.4540 C   0  0  0  0  0  0  0  0  0  0  0  0
    2.5460    6.8790    0.0260 N   0  0  0  0  0  0  0  0  0  0  0  0
    2.6030    5.6910    0.7070 C   0  0  0  0  0  0  0  0  0  0  0  0
    3.7630    5.2570    1.5180 C   0  0  0  0  0  0  0  0  0  0  0  0
    1.3980    5.0530    0.4630 C   0  0  0  0  0  0  0  0  0  0  0  0
    0.9640    3.7340    0.9780 C   0  0  0  0  0  0  0  0  0  0  0  0
   -0.1620    3.3220    0.6440 O   0  0  0  0  0  0  0  0  0  0  0  0
    1.7890    2.8930    1.8620 C   0  0  0  0  0  0  0  0  0  0  0  0
    1.2390    1.8340    2.4920 O   0  0  0  0  0  0  0  0  0  0  0  0
    0.5950    0.6810    2.1760 C   0  0  0  0  0  0  0  0  0  0  0  0
    1.3230   -0.4920    1.6850 C   0  0  0  0  0  0  0  0  0  0  0  0
    0.7260   -1.5590    1.3110 O   0  0  0  0  0  0  0  0  0  0  0  0
    2.7590   -0.5490    1.5890 C   0  0  0  0  0  0  0  0  0  0  0  0
    3.4910    0.3600    1.9970 O   0  0  0  0  0  0  0  0  0  0  0  0
    3.3890   -1.6780    1.0060 N   0  0  0  0  0  0  0  0  0  0  0  0
    4.8330   -1.8120    0.8660 C   0  0  0  0  0  0  0  0  0  0  0  0
    5.1940   -3.0880    0.2240 C   0  0  0  0  0  0  0  0  0  0  0  0
    4.2330   -3.8780   -0.0750 O   0  0  0  0  0  0  0  0  0  0  0  0
    6.4620   -3.4880   -0.0750 O   0  0  0  0  0  0  0  0  0  0  0  0
    6.7850   -4.7190   -0.6900 C   0  0  1  0  0  0  0  0  0  0  0  0
    6.1410   -4.8910   -2.0400 C   0  0  0  0  0  0  0  0  0  0  0  0
    8.3010   -4.6490   -0.9560 C   0  0  0  0  0  0  0  0  0  0  0  0
    6.5520   -5.9090    0.1750 C   0  0  0  0  0  0  0  0  0  0  0  0
   -0.7060    0.6580    2.3390 C   0  0  0  0  0  0  0  0  0  0  0  0
   -1.3160    1.8460    2.8330 O   0  0  0  0  0  0  0  0  0  0  0  0
   -1.6230   -0.4310    2.0880 C   0  0  0  0  0  0  0  0  0  0  0  0
   -2.6340   -0.1390    1.1040 O   0  0  0  0  0  0  0  0  0  0  0  0
   -3.5700   -1.1130    0.7940 C   0  0  0  0  0  0  0  0  0  0  0  0
   -3.5540   -2.3220    1.4040 C   0  0  0  0  0  0  0  0  0  0  0  0
   -4.4920   -3.2740    1.0770 C   0  0  0  0  0  0  0  0  0  0  0  0
   -4.4720   -4.5800    1.7430 C   0  0  0  0  0  0  0  0  0  0  0  0
   -5.4710   -2.9680    0.0940 C   0  0  0  0  0  0  0  0  0  0  0  0
   -6.3640   -4.0950   -0.2620 C   0  0  0  0  0  0  0  0  0  0  0  0
   -5.5100   -1.7790   -0.5210 C   0  0  0  0  0  0  0  0  0  0  0  0
   -6.5690   -1.3480   -1.4410 C   0  0  0  0  0  0  0  0  0  0  0  0
   -7.7840   -1.7990   -1.3960 C   0  0  0  0  0  0  0  0  0  0  0  0
   -8.9710   -1.5050   -2.2170 C   0  0  0  0  0  0  0  0  0  0  0  0
   -8.5780   -0.4090   -3.5600 S   0  0  0  0  0  0  0  0  0  0  0  0
   -6.8920    0.0550   -3.4070 C   0  0  0  0  0  0  0  0  0  0  0  0
   -6.1100   -0.3880   -2.4830 C   0  0  0  0  0  0  0  0  0  0  0  0
   -4.5260   -0.8300   -0.1550 C   0  0  0  0  0  0  0  0  0  0  0  0
  1  2  1  0
  2  3  1  0
  3  4  2  0
  3  9  1  0
  4  5  1  0
  4  6  1  0
  6  7  1  0
  7  8  1  0
  7  9  2  0
  9 10  1  0
 10 11  2  0
 10 12  1  0
 12 13  1  0
 13 14  1  0
 14 15  1  0
 14 28  2  3
 15 16  2  0
 15 17  1  0
 17 18  2  0
 17 19  1  0
 19 20  1  0
 20 21  1  0
 21 22  2  0
 21 23  1  0
 23 24  1  0
 24 25  1  6
 24 26  1  0
 24 27  1  0
 28 29  1  0
 28 30  1  0
 30 31  1  0
 31 32  1  0
 32 33  2  0
 32 45  1  0
 33 34  1  0
 34 35  1  0
 34 36  2  0
 36 37  1  0
 36 38  1  0
 38 39  1  0
 38 45  2  0
 39 40  2  0
 39 44  1  0
 40 41  1  0
 41 42  1  0
 42 43  1  0
 43 44  2  0
M  END
