
     RDKit          3D

 45 47  0  0  0  0  0  0  0  0999 V2000
    1.0320    5.9310    1.6220 C   0  0  0  0  0  0  0  0  0  0  0  0
   -0.2250    6.3610    2.3130 C   0  0  0  0  0  0  0  0  0  0  0  0
   -1.3900    5.9900    1.6230 O   0  0  0  0  0  0  0  0  0  0  0  0
   -1.7390    4.7000    1.3290 C   0  0  0  0  0  0  0  0  0  0  0  0
   -0.9640    3.7720    1.7010 O   0  0  0  0  0  0  0  0  0  0  0  0
   -2.9120    4.4240    0.6420 O   0  0  0  0  0  0  0  0  0  0  0  0
   -3.3000    3.1220    0.3240 C   0  0  0  0  0  0  0  0  0  0  0  0
   -2.2730    2.4360   -0.5490 C   0  0  0  0  0  0  0  0  0  0  0  0
   -1.2770    3.1010   -0.8320 O   0  0  0  0  0  0  0  0  0  0  0  0
   -2.4810    1.1070   -0.9920 N   0  0  0  0  0  0  0  0  0  0  0  0
   -1.5680    0.3580   -1.8130 C   0  0  0  0  0  0  0  0  0  0  0  0
   -0.2560    0.7870   -1.9450 C   0  0  0  0  0  0  0  0  0  0  0  0
    0.6560    0.0780   -2.6680 C   0  0  0  0  0  0  0  0  0  0  0  0
    2.0560    0.5970   -2.7690 C   0  0  0  0  0  0  0  0  0  0  0  0
    2.8620    0.0080   -1.6020 C   0  0  0  0  0  0  0  0  0  0  0  0
    4.2570    0.5670   -1.7470 C   0  0  0  0  0  0  0  0  0  0  0  0
    5.1920    0.1150   -0.7110 C   0  0  0  0  0  0  0  0  0  0  0  0
    6.2910   -0.5430   -1.0070 C   0  0  0  0  0  0  0  0  0  0  0  0
    7.1600   -0.9510    0.0940 C   0  0  0  0  0  0  0  0  0  0  0  0
    7.7790   -2.0570   -0.0550 O   0  0  0  0  0  0  0  0  0  0  0  0
    7.3820   -0.2190    1.3350 C   0  0  1  0  0  0  0  0  0  0  0  0
    7.5600   -1.1820    2.5180 C   0  0  0  0  0  0  0  0  0  0  0  0
    8.7350    0.4950    1.1850 C   0  0  0  0  0  0  0  0  0  0  0  0
    9.0720    1.2900    2.4170 C   0  0  0  0  0  0  0  0  0  0  0  0
    6.4030    0.7370    1.7120 N   0  0  0  0  0  0  0  0  0  0  0  0
    4.8770    0.4320    0.9700 S   0  0  1  0  0  0  0  0  0  0  0  0
    3.9420    1.5880    1.1640 O   0  0  0  0  0  0  0  0  0  0  0  0
    4.3320   -0.8310    1.5760 O   0  0  0  0  0  0  0  0  0  0  0  0
    0.2450   -1.0820   -3.2670 C   0  0  0  0  0  0  0  0  0  0  0  0
   -1.0340   -1.5320   -3.1570 C   0  0  0  0  0  0  0  0  0  0  0  0
   -1.9860   -0.7900   -2.4030 C   0  0  0  0  0  0  0  0  0  0  0  0
   -3.3030   -1.3960   -2.4280 C   0  0  0  0  0  0  0  0  0  0  0  0
   -4.4820   -0.8600   -1.8700 C   0  0  0  0  0  0  0  0  0  0  0  0
   -5.2030   -1.2800   -0.8760 C   0  0  0  0  0  0  0  0  0  0  0  0
   -6.4350   -0.4270   -0.5780 C   0  0  0  0  0  0  0  0  0  0  0  0
   -7.6620   -1.1820   -1.0260 C   0  0  0  0  0  0  0  0  0  0  0  0
   -4.8950   -2.3580    0.0660 C   0  0  0  0  0  0  0  0  0  0  0  0
   -3.6830   -2.9780    0.1800 C   0  0  0  0  0  0  0  0  0  0  0  0
   -3.4610   -4.0360    1.0750 C   0  0  0  0  0  0  0  0  0  0  0  0
   -4.4770   -4.4790    1.8730 C   0  0  0  0  0  0  0  0  0  0  0  0
   -5.7110   -3.8880    1.7980 C   0  0  0  0  0  0  0  0  0  0  0  0
   -6.8080   -4.3420    2.6400 C   0  0  0  0  0  0  0  0  0  0  0  0
   -6.5570   -5.4620    3.5800 C   0  0  0  0  0  0  0  0  0  0  0  0
   -7.9390   -3.8050    2.5770 O   0  0  0  0  0  0  0  0  0  0  0  0
   -5.9010   -2.8500    0.9080 C   0  0  0  0  0  0  0  0  0  0  0  0
  1  2  1  0
  2  3  1  0
  3  4  1  0
  4  5  2  0
  4  6  1  0
  6  7  1  0
  7  8  1  0
  8  9  2  0
  8 10  1  0
 10 11  1  0
 11 12  2  0
 11 31  1  0
 12 13  1  0
 13 14  1  0
 13 29  2  0
 14 15  1  0
 15 16  1  0
 16 17  1  0
 17 18  2  0
 17 26  1  0
 18 19  1  0
 19 20  2  0
 19 21  1  0
 21 22  1  1
 21 23  1  0
 21 25  1  0
 23 24  1  0
 26 25  1  1
 26 27  2  0
 26 28  2  0
 29 30  1  0
 30 31  2  0
 31 32  1  0
 32 33  1  0
 33 34  2  3
 34 35  1  0
 34 37  1  0
 35 36  1  0
 37 38  2  0
 37 45  1  0
 38 39  1  0
 39 40  2  0
 40 41  1  0
 41 42  1  0
 41 45  2  0
 42 43  1  0
 42 44  2  0
M  END
