
     RDKit          3D

 45 47  0  0  0  0  0  0  0  0999 V2000
  -12.0750   -3.6000   -0.6620 C   0  0  0  0  0  0  0  0  0  0  0  0
  -10.7930   -2.9010   -0.3090 C   0  0  0  0  0  0  0  0  0  0  0  0
   -9.8530   -2.5410   -1.2350 C   0  0  0  0  0  0  0  0  0  0  0  0
   -8.8160   -1.9240   -0.5210 C   0  0  0  0  0  0  0  0  0  0  0  0
   -7.5860   -1.4110   -1.1350 C   0  0  0  0  0  0  0  0  0  0  0  0
   -7.5340   -1.2490   -2.3980 O   0  0  0  0  0  0  0  0  0  0  0  0
   -6.4770   -1.1000   -0.3850 N   0  0  0  0  0  0  0  0  0  0  0  0
   -5.1930   -0.5590   -1.0060 C   0  0  2  0  0  0  0  0  0  0  0  0
   -4.2480   -1.6700   -0.7890 C   0  0  0  0  0  0  0  0  0  0  0  0
   -2.8470   -1.5840   -1.2770 C   0  0  2  0  0  0  0  0  0  0  0  0
   -2.2630   -2.9900   -0.8620 C   0  0  0  0  0  0  0  0  0  0  0  0
   -1.9850   -0.5770   -0.5840 C   0  0  0  0  0  0  0  0  0  0  0  0
   -0.6160   -0.6420   -1.2480 C   0  0  0  0  0  0  0  0  0  0  0  0
   -0.4160   -1.3090   -2.2790 O   0  0  0  0  0  0  0  0  0  0  0  0
    0.4750    0.0680   -0.6910 N   0  0  0  0  0  0  0  0  0  0  0  0
    1.7900    0.0340   -1.2770 C   0  0  0  0  0  0  0  0  0  0  0  0
    2.3090   -1.3740   -1.2830 C   0  0  0  0  0  0  0  0  0  0  0  0
    3.7070   -1.4810   -1.8890 C   0  0  0  0  0  0  0  0  0  0  0  0
    4.6880   -0.7250   -1.1160 C   0  0  0  0  0  0  0  0  0  0  0  0
    4.3950   -0.1740   -0.0360 O   0  0  0  0  0  0  0  0  0  0  0  0
    5.9890   -0.5860   -1.5520 O   0  0  0  0  0  0  0  0  0  0  0  0
    6.9140    0.1390   -0.8100 C   0  0  0  0  0  0  0  0  0  0  0  0
    7.0460    1.4910   -0.8630 C   0  0  0  0  0  0  0  0  0  0  0  0
    7.9690    2.1610   -0.1180 C   0  0  0  0  0  0  0  0  0  0  0  0
    8.7930    1.4470    0.7180 C   0  0  0  0  0  0  0  0  0  0  0  0
    9.9790    2.3810    1.6620 S   0  0  0  0  0  0  0  0  0  0  0  0
   10.7470    2.7280    0.1910 C   0  0  0  0  0  0  0  0  0  0  0  0
    9.5960    3.9860    1.9120 C   0  0  0  0  0  0  0  0  0  0  0  0
   11.3400    1.7360    2.1350 O   0  0  0  0  0  0  0  0  0  0  0  0
    8.7070    0.1000    0.8110 C   0  0  0  0  0  0  0  0  0  0  0  0
    9.5350   -0.5830    1.6640 C   0  0  0  0  0  0  0  0  0  0  0  0
    9.4140   -1.9730    1.7450 C   0  0  0  0  0  0  0  0  0  0  0  0
    8.4890   -2.6620    0.9960 C   0  0  0  0  0  0  0  0  0  0  0  0
    7.6750   -1.9340    0.1520 C   0  0  0  0  0  0  0  0  0  0  0  0
    7.7570   -0.5700    0.0380 C   0  0  0  0  0  0  0  0  0  0  0  0
   -4.9350    0.6240   -0.2000 C   0  0  0  0  0  0  0  0  0  0  0  0
   -5.1390    0.5590    1.0600 O   0  0  0  0  0  0  0  0  0  0  0  0
   -4.4890    1.8290   -0.6940 O   0  0  0  0  0  0  0  0  0  0  0  0
   -4.3180    2.9250    0.1790 C   0  0  2  0  0  0  0  0  0  0  0  0
   -3.3420    2.5640    1.2650 C   0  0  0  0  0  0  0  0  0  0  0  0
   -5.6680    3.3600    0.7010 C   0  0  0  0  0  0  0  0  0  0  0  0
   -3.7360    4.0990   -0.5890 C   0  0  0  0  0  0  0  0  0  0  0  0
   -9.2090   -1.9550    0.8020 C   0  0  0  0  0  0  0  0  0  0  0  0
   -8.4840   -1.4360    1.9720 C   0  0  0  0  0  0  0  0  0  0  0  0
  -10.3920   -2.5480    0.8630 O   0  0  0  0  0  0  0  0  0  0  0  0
  1  2  1  0
  2  3  2  0
  2 45  1  0
  3  4  1  0
  4  5  1  0
  4 43  2  0
  5  6  2  0
  5  7  1  0
  7  8  1  0
  8  9  1  1
  8 36  1  0
  9 10  1  0
 10 11  1  1
 10 12  1  0
 12 13  1  0
 13 14  2  0
 13 15  1  0
 15 16  1  0
 16 17  1  0
 17 18  1  0
 18 19  1  0
 19 20  2  0
 19 21  1  0
 21 22  1  0
 22 23  2  0
 22 35  1  0
 23 24  1  0
 24 25  2  0
 25 26  1  0
 25 30  1  0
 26 27  1  0
 26 28  1  0
 26 29  2  0
 30 31  2  0
 30 35  1  0
 31 32  1  0
 32 33  2  0
 33 34  1  0
 34 35  2  0
 36 37  2  0
 36 38  1  0
 38 39  1  0
 39 40  1  1
 39 41  1  0
 39 42  1  0
 43 44  1  0
 43 45  1  0
M  END
