
     RDKit          3D

 19 19  0  0  0  0  0  0  0  0999 V2000
   -6.3320    0.0730   -1.9310 O   0  0  0  0  0  0  0  0  0  0  0  0
   -5.9380    0.1500   -0.7190 C   0  0  0  0  0  0  0  0  0  0  0  0
   -4.5380   -0.2310   -0.4000 C   0  0  0  0  0  0  0  0  0  0  0  0
   -3.8060   -0.6620   -1.6500 C   0  0  0  0  0  0  0  0  0  0  0  0
   -2.3900   -1.0560   -1.3830 C   0  0  0  0  0  0  0  0  0  0  0  0
   -1.5580    0.0440   -0.7920 C   0  0  0  0  0  0  0  0  0  0  0  0
   -0.1610   -0.4900   -0.5760 C   0  0  0  0  0  0  0  0  0  0  0  0
    0.7550    0.5460    0.0180 C   0  0  0  0  0  0  0  0  0  0  0  0
    2.1330   -0.0810    0.1990 C   0  0  0  0  0  0  0  0  0  0  0  0
    2.2820   -1.2740   -0.1490 O   0  0  0  0  0  0  0  0  0  0  0  0
    3.1870    0.6470    0.7300 N   0  0  0  0  0  0  0  0  0  0  0  0
    4.4930    0.1770    0.9370 C   0  0  0  0  0  0  0  0  0  0  0  0
    5.3960    0.9780    1.6770 C   0  0  0  0  0  0  0  0  0  0  0  0
    6.6850    0.5880    1.9070 C   0  0  0  0  0  0  0  0  0  0  0  0
    7.1680   -0.6220    1.4190 C   0  0  0  0  0  0  0  0  0  0  0  0
    6.3360   -1.4170    0.7060 C   0  0  0  0  0  0  0  0  0  0  0  0
    5.0230   -0.9990    0.4830 C   0  0  0  0  0  0  0  0  0  0  0  0
   -6.8630    0.5940    0.2410 N   0  0  0  0  0  0  0  0  0  0  0  0
   -8.1350    0.9230   -0.1500 O   0  0  0  0  0  0  0  0  0  0  0  0
  1  2  2  0
  2  3  1  0
  2 18  1  0
  3  4  1  0
  4  5  1  0
  5  6  1  0
  6  7  1  0
  7  8  1  0
  8  9  1  0
  9 10  2  0
  9 11  1  0
 11 12  1  0
 12 13  2  0
 12 17  1  0
 13 14  1  0
 14 15  2  0
 15 16  1  0
 16 17  2  0
 18 19  1  0
M  END
