
     RDKit          3D

 27 29  0  0  0  0  0  0  0  0999 V2000
   -6.6920    0.1310    0.2570 C   0  0  0  0  0  0  0  0  0  0  0  0
   -5.6900   -0.0220    1.4050 C   0  0  0  0  0  0  0  0  0  0  0  0
   -4.3140   -0.2140    0.8400 C   0  0  0  0  0  0  0  0  0  0  0  0
   -3.6800   -1.4140    0.6260 C   0  0  0  0  0  0  0  0  0  0  0  0
   -4.3100   -2.6550    1.1260 C   0  0  0  0  0  0  0  0  0  0  0  0
   -2.4620   -1.4570   -0.0740 C   0  0  0  0  0  0  0  0  0  0  0  0
   -1.8550   -0.3530   -0.5780 C   0  0  0  0  0  0  0  0  0  0  0  0
   -0.7650   -0.2960   -1.5280 C   0  0  0  0  0  0  0  0  0  0  0  0
    0.5460   -0.2600   -1.2640 N   0  0  0  0  0  0  0  0  0  0  0  0
    1.5760   -1.0470   -0.7430 C   0  0  0  0  0  0  0  0  0  0  0  0
    1.3310   -2.2020   -0.3790 O   0  0  0  0  0  0  0  0  0  0  0  0
    2.8940   -0.5340   -0.6240 N   0  0  0  0  0  0  0  0  0  0  0  0
    4.0710   -1.1680   -0.1950 C   0  0  0  0  0  0  0  0  0  0  0  0
    4.2020   -2.4640    0.0650 N   0  0  0  0  0  0  0  0  0  0  0  0
    5.3530   -3.0750    0.4160 C   0  0  0  0  0  0  0  0  0  0  0  0
    6.5380   -2.3300    0.5280 C   0  0  0  0  0  0  0  0  0  0  0  0
    6.4280   -1.0060    0.2690 C   0  0  0  0  0  0  0  0  0  0  0  0
    5.2240   -0.3710   -0.0920 C   0  0  0  0  0  0  0  0  0  0  0  0
    5.2740    1.0250   -0.3140 N   0  0  0  0  0  0  0  0  0  0  0  0
    6.2830    1.8260    0.1610 C   0  0  0  0  0  0  0  0  0  0  0  0
    6.0150    3.1310   -0.2500 C   0  0  0  0  0  0  0  0  0  0  0  0
    4.8450    3.0740   -0.9670 C   0  0  0  0  0  0  0  0  0  0  0  0
    4.4410    1.7990   -0.9770 N   0  0  0  0  0  0  0  0  0  0  0  0
   -2.5570    0.8520   -0.3190 C   0  0  0  0  0  0  0  0  0  0  0  0
   -1.8920    2.1280   -0.7710 C   0  0  0  0  0  0  0  0  0  0  0  0
   -3.7180    0.9400    0.3480 C   0  0  0  0  0  0  0  0  0  0  0  0
   -4.3490    2.2870    0.5510 C   0  0  0  0  0  0  0  0  0  0  0  0
  1  2  1  0
  2  3  1  0
  3  4  2  0
  3 26  1  0
  4  5  1  0
  4  6  1  0
  6  7  2  0
  7  8  1  0
  7 24  1  0
  8  9  1  0
  9 10  1  0
 10 11  2  0
 10 12  1  0
 12 13  1  0
 13 14  2  0
 13 18  1  0
 14 15  1  0
 15 16  2  0
 16 17  1  0
 17 18  2  0
 18 19  1  0
 19 20  1  0
 19 23  1  0
 20 21  2  0
 21 22  1  0
 22 23  2  0
 24 25  1  0
 24 26  2  0
 26 27  1  0
M  CHG  1  14   1
M  END
