
     RDKit          3D

 27 30  0  0  0  0  0  0  0  0999 V2000
    5.7220    3.0000    1.6900 C   0  0  0  0  0  0  0  0  0  0  0  0
    4.8340    1.8510    1.4560 N   0  0  0  0  0  0  0  0  0  0  0  0
    3.6510    2.0100    0.7360 C   0  0  0  0  0  0  0  0  0  0  0  0
    3.4280    3.2090    0.3030 O   0  0  0  0  0  0  0  0  0  0  0  0
    2.6390    1.0430    0.3960 C   0  0  0  0  0  0  0  0  0  0  0  0
    1.8650    1.2220   -0.7710 C   0  0  0  0  0  0  0  0  0  0  0  0
    0.9390    0.3440   -1.1630 N   0  0  0  0  0  0  0  0  0  0  0  0
    0.6560   -0.7850   -0.4910 C   0  0  0  0  0  0  0  0  0  0  0  0
   -0.3360   -1.6470   -1.0010 N   0  0  0  0  0  0  0  0  0  0  0  0
    0.1820   -2.7630   -1.8140 C   0  0  0  0  0  0  0  0  0  0  0  0
   -0.1590   -2.5120   -3.2550 C   0  0  0  0  0  0  0  0  0  0  0  0
   -1.4660   -3.1820   -3.6290 C   0  0  0  0  0  0  0  0  0  0  0  0
   -2.5780   -2.8290   -2.6800 C   0  0  0  0  0  0  0  0  0  0  0  0
   -2.4140   -1.4410   -2.1360 C   0  0  0  0  0  0  0  0  0  0  0  0
   -1.7240   -1.4580   -0.7660 C   0  0  2  0  0  0  0  0  0  0  0  0
   -2.1020   -0.3080    0.0490 C   0  0  0  0  0  0  0  0  0  0  0  0
   -1.6460    0.9620    0.0440 N   0  0  0  0  0  0  0  0  0  0  0  0
   -2.2910    1.7030    0.9640 C   0  0  0  0  0  0  0  0  0  0  0  0
   -2.2350    3.0210    1.3790 C   0  0  0  0  0  0  0  0  0  0  0  0
   -3.0640    3.4930    2.3850 C   0  0  0  0  0  0  0  0  0  0  0  0
   -3.9750    2.6640    3.0100 C   0  0  0  0  0  0  0  0  0  0  0  0
   -4.0270    1.3580    2.5960 C   0  0  0  0  0  0  0  0  0  0  0  0
   -3.1980    0.8670    1.5820 C   0  0  0  0  0  0  0  0  0  0  0  0
   -3.0530   -0.3320    1.0040 N   0  0  0  0  0  0  0  0  0  0  0  0
    1.3870   -0.9950    0.6490 C   0  0  0  0  0  0  0  0  0  0  0  0
    2.3760   -0.0940    1.1040 C   0  0  0  0  0  0  0  0  0  0  0  0
    3.0610   -0.4240    2.3760 C   0  0  0  0  0  0  0  0  0  0  0  0
  1  2  1  0
  2  3  1  0
  3  4  2  0
  3  5  1  0
  5  6  2  0
  5 26  1  0
  6  7  1  0
  7  8  2  0
  8  9  1  0
  8 25  1  0
  9 10  1  0
  9 15  1  0
 10 11  1  0
 11 12  1  0
 12 13  1  0
 13 14  1  0
 14 15  1  0
 15 16  1  6
 16 17  2  0
 16 24  1  0
 17 18  1  0
 18 19  2  0
 18 23  1  0
 19 20  1  0
 20 21  2  0
 21 22  1  0
 22 23  2  0
 23 24  1  0
 25 26  2  0
 26 27  1  0
M  CHG  1   7   1
M  END
