
     RDKit          3D

 27 31  0  0  0  0  0  0  0  0999 V2000
   -7.9990   -1.0540   -0.0180 C   0  0  0  0  0  0  0  0  0  0  0  0
   -7.0430   -0.1440   -0.0550 C   0  0  0  0  0  0  0  0  0  0  0  0
   -7.1970    1.2320   -0.1150 C   0  0  0  0  0  0  0  0  0  0  0  0
   -6.1040    2.0450   -0.1470 C   0  0  0  0  0  0  0  0  0  0  0  0
   -4.8400    1.4990   -0.1190 C   0  0  0  0  0  0  0  0  0  0  0  0
   -3.7140    2.3240   -0.1510 C   0  0  0  0  0  0  0  0  0  0  0  0
   -2.5170    1.7150   -0.1210 N   0  0  0  0  0  0  0  0  0  0  0  0
   -2.3330    0.3970   -0.0630 C   0  0  0  0  0  0  0  0  0  0  0  0
   -1.0400   -0.1520   -0.0350 N   0  0  0  0  0  0  0  0  0  0  0  0
    0.1060    0.7270   -0.0690 C   0  0  0  0  0  0  0  0  0  0  0  0
    1.3740   -0.0820   -0.0300 C   0  0  0  0  0  0  0  0  0  0  0  0
    2.5600    0.8130   -0.0650 C   0  0  0  0  0  0  0  0  0  0  0  0
    2.5720    2.1680   -0.1240 N   0  0  0  0  0  0  0  0  0  0  0  0
    3.8370    2.5560   -0.1370 N   0  0  0  0  0  0  0  0  0  0  0  0
    4.6210    1.4660   -0.0880 C   0  0  0  0  0  0  0  0  0  0  0  0
    6.0990    1.5360   -0.0860 C   0  0  0  0  0  0  0  0  0  0  0  0
    6.7120    0.2350   -0.0280 N   0  0  0  0  0  0  0  0  0  0  0  0
    6.3830   -0.6250   -1.1140 C   0  0  0  0  0  0  0  0  0  0  0  0
    6.2680   -2.0290   -0.5660 C   0  0  0  0  0  0  0  0  0  0  0  0
    6.2930   -1.9040    0.9210 C   0  0  0  0  0  0  0  0  0  0  0  0
    6.4330   -0.4410    1.1980 C   0  0  0  0  0  0  0  0  0  0  0  0
    3.8090    0.4490   -0.0460 O   0  0  0  0  0  0  0  0  0  0  0  0
   -3.4420   -0.4470   -0.0300 C   0  0  0  0  0  0  0  0  0  0  0  0
   -4.6950    0.1280   -0.0590 C   0  0  0  0  0  0  0  0  0  0  0  0
   -5.7880   -0.7370   -0.0250 C   0  0  0  0  0  0  0  0  0  0  0  0
   -5.9140   -2.0470    0.0320 C   0  0  0  0  0  0  0  0  0  0  0  0
   -7.3580   -2.3800    0.0410 C   0  0  0  0  0  0  0  0  0  0  0  0
  1  2  2  0
  1 27  1  0
  2  3  1  0
  2 25  1  0
  3  4  2  0
  4  5  1  0
  5  6  2  0
  5 24  1  0
  6  7  1  0
  7  8  2  0
  8  9  1  0
  8 23  1  0
  9 10  1  0
 10 11  1  0
 11 12  1  0
 12 13  2  0
 12 22  1  0
 13 14  1  0
 14 15  2  0
 15 16  1  0
 15 22  1  0
 16 17  1  0
 17 18  1  0
 17 21  1  0
 18 19  1  0
 19 20  1  0
 20 21  1  0
 23 24  2  0
 24 25  1  0
 25 26  2  0
 26 27  1  0
M  CHG  1   7   1
M  END
