
     RDKit          3D

 27 30  0  0  0  0  0  0  0  0999 V2000
   -8.3450    1.9070   -0.9370 C   0  0  0  0  0  0  0  0  0  0  0  0
   -6.9580    1.3550   -0.7800 C   0  0  0  0  0  0  0  0  0  0  0  0
   -5.8740    1.9720   -1.3650 C   0  0  0  0  0  0  0  0  0  0  0  0
   -4.5950    1.4870   -1.2380 C   0  0  0  0  0  0  0  0  0  0  0  0
   -4.4050    0.3410   -0.4940 C   0  0  0  0  0  0  0  0  0  0  0  0
   -3.1420   -0.2090   -0.3200 C   0  0  0  0  0  0  0  0  0  0  0  0
   -2.9730   -1.3400    0.4170 C   0  0  0  0  0  0  0  0  0  0  0  0
   -1.6700   -1.9180    0.6410 C   0  0  0  0  0  0  0  0  0  0  0  0
   -1.7330   -3.0740    1.2670 O   0  0  0  0  0  0  0  0  0  0  0  0
   -0.3850   -1.4650    0.3120 N   0  0  0  0  0  0  0  0  0  0  0  0
    0.0370   -0.2640   -0.3270 C   0  0  0  0  0  0  0  0  0  0  0  0
    1.5310   -0.0540   -0.3130 C   0  0  0  0  0  0  0  0  0  0  0  0
    2.3370   -0.6450    0.5420 C   0  0  0  0  0  0  0  0  0  0  0  0
    3.7620   -0.4370    0.5520 C   0  0  0  0  0  0  0  0  0  0  0  0
    4.6140   -1.0290    1.4640 C   0  0  0  0  0  0  0  0  0  0  0  0
    5.9870   -0.8480    1.4860 C   0  0  0  0  0  0  0  0  0  0  0  0
    6.5330   -0.0540    0.5730 N   0  0  0  0  0  0  0  0  0  0  0  0
    5.7540    0.5490   -0.3390 C   0  0  0  0  0  0  0  0  0  0  0  0
    6.4140    1.4420   -1.3560 C   0  0  0  0  0  0  0  0  0  0  0  0
    6.4270    2.7750   -0.7580 N   0  0  0  0  0  0  0  0  0  0  0  0
    4.3830    0.3860   -0.3830 C   0  0  0  0  0  0  0  0  0  0  0  0
    1.6850   -1.5730    1.4990 C   0  0  0  0  0  0  0  0  0  0  0  0
    0.7100   -2.4000    0.6690 C   0  0  0  0  0  0  0  0  0  0  0  0
   -4.0930   -1.9470    1.0000 C   0  0  0  0  0  0  0  0  0  0  0  0
   -5.2980   -1.4000    0.8190 N   0  0  0  0  0  0  0  0  0  0  0  0
   -5.4790   -0.2830    0.0940 C   0  0  0  0  0  0  0  0  0  0  0  0
   -6.7240    0.2450   -0.0680 N   0  0  0  0  0  0  0  0  0  0  0  0
  1  2  1  0
  2  3  2  0
  2 27  1  0
  3  4  1  0
  4  5  2  0
  5  6  1  0
  5 26  1  0
  6  7  2  0
  7  8  1  0
  7 24  1  0
  8  9  2  0
  8 10  1  0
 10 11  1  0
 10 23  1  0
 11 12  1  0
 12 13  2  0
 13 14  1  0
 13 22  1  0
 14 15  2  0
 14 21  1  0
 15 16  1  0
 16 17  2  0
 17 18  1  0
 18 19  1  0
 18 21  2  0
 19 20  1  0
 22 23  1  0
 24 25  2  0
 25 26  1  0
 26 27  2  0
M  CHG  1  17   1
M  END
