
     RDKit          3D

 27 30  0  0  0  0  0  0  0  0999 V2000
   -6.3170    0.7160    0.9100 C   0  0  0  0  0  0  0  0  0  0  0  0
   -5.2110   -0.1060    0.3500 C   0  0  0  0  0  0  0  0  0  0  0  0
   -4.0780    0.4380   -0.0660 C   0  0  0  0  0  0  0  0  0  0  0  0
   -4.0170    1.9130    0.0750 C   0  0  0  0  0  0  0  0  0  0  0  0
   -3.3250    2.1470    1.3930 C   0  0  0  0  0  0  0  0  0  0  0  0
   -2.2080    1.5400    1.7360 C   0  0  0  0  0  0  0  0  0  0  0  0
   -1.3660    0.5550    1.0390 C   0  0  0  0  0  0  0  0  0  0  0  0
   -1.7210   -0.3120    0.0320 C   0  0  0  0  0  0  0  0  0  0  0  0
   -0.8330   -1.1690   -0.5210 N   0  0  0  0  0  0  0  0  0  0  0  0
    0.4560   -1.1760   -0.0680 C   0  0  0  0  0  0  0  0  0  0  0  0
    0.8470   -0.3360    0.9250 C   0  0  0  0  0  0  0  0  0  0  0  0
   -0.0670    0.5570    1.5060 C   0  0  0  0  0  0  0  0  0  0  0  0
    0.2900    1.4480    2.5380 N   0  0  0  0  0  0  0  0  0  0  0  0
    2.2180   -0.2410    1.5110 C   0  0  0  0  0  0  0  0  0  0  0  0
    2.9980   -1.4560    1.0100 C   0  0  0  0  0  0  0  0  0  0  0  0
    2.7660   -1.5750   -0.3890 N   0  0  0  0  0  0  0  0  0  0  0  0
    3.6050   -1.1840   -1.4270 C   0  0  0  0  0  0  0  0  0  0  0  0
    3.1780   -1.4760   -2.6450 O   0  0  0  0  0  0  0  0  0  0  0  0
    4.8730   -0.5110   -1.4430 C   0  0  0  0  0  0  0  0  0  0  0  0
    5.4240    0.1070   -0.3490 C   0  0  0  0  0  0  0  0  0  0  0  0
    6.6550    0.6990   -0.3620 N   0  0  0  0  0  0  0  0  0  0  0  0
    7.3670    0.6860   -1.4900 C   0  0  0  0  0  0  0  0  0  0  0  0
    6.8670    0.0950   -2.5820 N   0  0  0  0  0  0  0  0  0  0  0  0
    5.6730   -0.4920   -2.6040 C   0  0  0  0  0  0  0  0  0  0  0  0
    1.4200   -2.1440   -0.7050 C   0  0  0  0  0  0  0  0  0  0  0  0
   -3.0530   -0.4690   -0.6010 C   0  0  2  0  0  0  0  0  0  0  0  0
   -2.9830   -0.3000   -2.1040 C   0  0  0  0  0  0  0  0  0  0  0  0
  1  2  1  0
  2  3  2  3
  3  4  1  0
  3 26  1  0
  4  5  1  0
  5  6  2  0
  6  7  1  0
  7  8  2  0
  7 12  1  0
  8  9  1  0
  8 26  1  0
  9 10  2  0
 10 11  1  0
 10 25  1  0
 11 12  2  0
 11 14  1  0
 12 13  1  0
 14 15  1  0
 15 16  1  0
 16 17  1  0
 16 25  1  0
 17 18  2  0
 17 19  1  0
 19 20  2  0
 19 24  1  0
 20 21  1  0
 21 22  2  0
 22 23  1  0
 23 24  2  0
 26 27  1  6
M  CHG  1   9   1
M  END
