
     RDKit          3D

 27 30  0  0  0  0  0  0  0  0999 V2000
   -4.6060    2.4020    2.3200 N   0  0  0  0  0  0  0  0  0  0  0  0
   -4.3690    2.3940    1.0500 C   0  0  0  0  0  0  0  0  0  0  0  0
   -4.7390    1.3200    0.2180 N   0  0  0  0  0  0  0  0  0  0  0  0
   -5.5980    0.2170    0.6560 C   0  0  0  0  0  0  0  0  0  0  0  0
   -5.8100   -0.6570   -0.5360 C   0  0  0  0  0  0  0  0  0  0  0  0
   -5.3420    0.1380   -1.7200 C   0  0  0  0  0  0  0  0  0  0  0  0
   -4.3580    1.1220   -1.1480 C   0  0  2  0  0  0  0  0  0  0  0  0
   -2.9830    0.5430   -1.2830 C   0  0  0  0  0  0  0  0  0  0  0  0
   -2.5820    0.3420   -2.4420 O   0  0  0  0  0  0  0  0  0  0  0  0
   -2.2060    0.2500   -0.1590 N   0  0  0  0  0  0  0  0  0  0  0  0
   -0.8990   -0.2960   -0.1580 C   0  0  0  0  0  0  0  0  0  0  0  0
   -0.2850   -0.5560    1.0680 C   0  0  0  0  0  0  0  0  0  0  0  0
    0.9670   -1.0770    1.1720 C   0  0  0  0  0  0  0  0  0  0  0  0
    1.7040   -1.3800    0.0490 C   0  0  0  0  0  0  0  0  0  0  0  0
    2.9960   -1.9550    0.1110 N   0  0  0  0  0  0  0  0  0  0  0  0
    3.2280   -3.3050    0.1360 C   0  0  0  0  0  0  0  0  0  0  0  0
    4.5600   -3.5080    0.1950 C   0  0  0  0  0  0  0  0  0  0  0  0
    5.1450   -2.3290    0.2060 N   0  0  0  0  0  0  0  0  0  0  0  0
    4.1770   -1.3650    0.1540 C   0  0  0  0  0  0  0  0  0  0  0  0
    4.5500    0.0460    0.1530 C   0  0  0  0  0  0  0  0  0  0  0  0
    5.8750    0.4350    0.2040 C   0  0  0  0  0  0  0  0  0  0  0  0
    6.2670    1.7700    0.2050 C   0  0  0  0  0  0  0  0  0  0  0  0
    5.3420    2.7700    0.1550 C   0  0  0  0  0  0  0  0  0  0  0  0
    4.0230    2.4250    0.1030 C   0  0  0  0  0  0  0  0  0  0  0  0
    3.6370    1.0710    0.1020 C   0  0  0  0  0  0  0  0  0  0  0  0
    1.1380   -1.1400   -1.1790 C   0  0  0  0  0  0  0  0  0  0  0  0
   -0.1590   -0.6000   -1.2670 C   0  0  0  0  0  0  0  0  0  0  0  0
  1  2  2  0
  2  3  1  0
  3  4  1  0
  3  7  1  0
  4  5  1  0
  5  6  1  0
  6  7  1  0
  7  8  1  1
  8  9  2  0
  8 10  1  0
 10 11  1  0
 11 12  2  0
 11 27  1  0
 12 13  1  0
 13 14  2  0
 14 15  1  0
 14 26  1  0
 15 16  1  0
 15 19  1  0
 16 17  2  0
 17 18  1  0
 18 19  2  0
 19 20  1  0
 20 21  2  0
 20 25  1  0
 21 22  1  0
 22 23  2  0
 23 24  1  0
 24 25  2  0
 26 27  2  0
M  CHG  1  18   1
M  END
