
     RDKit          3D

 27 29  0  0  0  0  0  0  0  0999 V2000
    2.2280   -3.1920    2.5060 C   0  0  0  0  0  0  0  0  0  0  0  0
    2.5550   -1.8440    1.8250 C   0  0  0  0  0  0  0  0  0  0  0  0
    1.3970   -1.5120    0.9640 C   0  0  1  0  0  0  0  0  0  0  0  0
    1.2200   -2.6260   -0.0660 C   0  0  0  0  0  0  0  0  0  0  0  0
    0.0800   -1.5380    1.7620 C   0  0  0  0  0  0  0  0  0  0  0  0
   -0.9430   -1.5150    0.7180 N   0  0  0  0  0  0  0  0  0  0  0  0
   -2.1520   -2.1560    1.0510 C   0  0  0  0  0  0  0  0  0  0  0  0
   -3.4020   -1.5430    0.5140 C   0  0  0  0  0  0  0  0  0  0  0  0
   -3.4460   -0.0430    0.6080 C   0  0  1  0  0  0  0  0  0  0  0  0
   -4.4100    0.3810    1.5960 N   0  0  0  0  0  0  0  0  0  0  0  0
   -5.1920    1.5170    1.2620 C   0  0  0  0  0  0  0  0  0  0  0  0
   -5.1390    1.9840   -0.1510 C   0  0  0  0  0  0  0  0  0  0  0  0
   -6.0340    3.1530   -0.2350 N   0  0  0  0  0  0  0  0  0  0  0  0
   -2.1080    0.5500    0.9650 C   0  0  0  0  0  0  0  0  0  0  0  0
   -1.0640   -0.1960    0.1660 C   0  0  1  0  0  0  0  0  0  0  0  0
    0.2300    0.5500    0.1800 C   0  0  0  0  0  0  0  0  0  0  0  0
    1.4160   -0.2830    0.2530 N   0  0  0  0  0  0  0  0  0  0  0  0
    2.5420    0.2200   -0.4720 C   0  0  0  0  0  0  0  0  0  0  0  0
    3.7890    0.4010    0.0520 C   0  0  0  0  0  0  0  0  0  0  0  0
    4.8700    0.8720   -0.7010 C   0  0  0  0  0  0  0  0  0  0  0  0
    4.6880    1.1740   -2.0320 C   0  0  0  0  0  0  0  0  0  0  0  0
    5.7380    1.6490   -2.8290 O   0  0  0  0  0  0  0  0  0  0  0  0
    7.0010    1.8130   -2.2200 C   0  0  0  0  0  0  0  0  0  0  0  0
    3.4340    1.0050   -2.6040 C   0  0  0  0  0  0  0  0  0  0  0  0
    3.2620    1.3130   -3.9480 O   0  0  0  0  0  0  0  0  0  0  0  0
    1.9970    1.1450   -4.5340 C   0  0  0  0  0  0  0  0  0  0  0  0
    2.3950    0.5390   -1.8340 C   0  0  0  0  0  0  0  0  0  0  0  0
  1  2  1  0
  2  3  1  0
  3  4  1  6
  3  5  1  0
  3 17  1  0
  5  6  1  0
  6  7  1  0
  6 15  1  0
  7  8  1  0
  8  9  1  0
  9 10  1  1
  9 14  1  0
 10 11  1  0
 11 12  1  0
 12 13  1  0
 15 14  1  1
 15 16  1  0
 16 17  1  0
 17 18  1  0
 18 19  2  0
 18 27  1  0
 19 20  1  0
 20 21  2  0
 21 22  1  0
 21 24  1  0
 22 23  1  0
 24 25  1  0
 24 27  2  0
 25 26  1  0
M  CHG  2  10   1  13   1
M  END
