
     RDKit          3D

 25 27  0  0  0  0  0  0  0  0999 V2000
    4.3150   -2.6930    0.2910 O   0  0  0  0  0  0  0  0  0  0  0  0
    3.4370   -1.7890    0.0640 C   0  0  0  0  0  0  0  0  0  0  0  0
    3.8550   -0.4180    0.0110 C   0  0  0  0  0  0  0  0  0  0  0  0
    5.1870   -0.0900    0.1990 C   0  0  0  0  0  0  0  0  0  0  0  0
    6.0810   -1.1440    0.4520 O   0  0  0  0  0  0  0  0  0  0  0  0
    5.6290    1.1890    0.1460 C   0  0  0  0  0  0  0  0  0  0  0  0
    4.7450    2.1890   -0.1000 C   0  0  0  0  0  0  0  0  0  0  0  0
    3.4130    1.8960   -0.2910 C   0  0  0  0  0  0  0  0  0  0  0  0
    2.9230    0.6100   -0.2450 C   0  0  0  0  0  0  0  0  0  0  0  0
    1.5580    0.2820   -0.3970 N   0  0  0  0  0  0  0  0  0  0  0  0
    0.4690    1.0270   -0.8210 C   0  0  0  0  0  0  0  0  0  0  0  0
    0.6810    2.6170   -1.2700 S   0  0  0  0  0  0  0  0  0  0  0  0
   -0.8550    0.5600   -0.9430 N   0  0  0  0  0  0  0  0  0  0  0  0
   -1.4110   -0.7080   -0.7460 C   0  0  0  0  0  0  0  0  0  0  0  0
   -0.7210   -1.8290   -1.1480 C   0  0  0  0  0  0  0  0  0  0  0  0
   -1.2970   -3.1040   -1.1420 C   0  0  0  0  0  0  0  0  0  0  0  0
   -2.5920   -3.2620   -0.7270 C   0  0  0  0  0  0  0  0  0  0  0  0
   -3.3030   -2.1830   -0.3240 C   0  0  0  0  0  0  0  0  0  0  0  0
   -2.7100   -0.9130   -0.3330 C   0  0  0  0  0  0  0  0  0  0  0  0
   -3.5710    0.1660    0.1280 C   0  0  0  0  0  0  0  0  0  0  0  0
   -3.1070    1.3270    0.6890 C   0  0  0  0  0  0  0  0  0  0  0  0
   -3.9940    2.2970    1.1710 C   0  0  0  0  0  0  0  0  0  0  0  0
   -5.3490    2.0880    1.0840 C   0  0  0  0  0  0  0  0  0  0  0  0
   -5.7950    0.9200    0.5210 C   0  0  0  0  0  0  0  0  0  0  0  0
   -4.9300    0.0340    0.0800 N   0  0  0  0  0  0  0  0  0  0  0  0
  1  2  2  0
  2  3  1  0
  3  4  2  0
  3  9  1  0
  4  5  1  0
  4  6  1  0
  6  7  2  0
  7  8  1  0
  8  9  2  0
  9 10  1  0
 10 11  1  0
 11 12  2  0
 11 13  1  0
 13 14  1  0
 14 15  2  0
 14 19  1  0
 15 16  1  0
 16 17  2  0
 17 18  1  0
 18 19  2  0
 19 20  1  0
 20 21  2  0
 20 25  1  0
 21 22  1  0
 22 23  2  0
 23 24  1  0
 24 25  2  0
M  END
