
     RDKit          3D

 25 27  0  0  0  0  0  0  0  0999 V2000
   -5.0960   -0.5680   -2.0680 C   0  0  0  0  0  0  0  0  0  0  0  0
   -3.9790   -0.4620   -1.3550 C   0  0  0  0  0  0  0  0  0  0  0  0
   -2.7520   -0.1520   -2.0230 N   0  0  0  0  0  0  0  0  0  0  0  0
   -1.5630   -0.0400   -1.2610 C   0  0  0  0  0  0  0  0  0  0  0  0
   -0.3680    0.2570   -1.8790 C   0  0  0  0  0  0  0  0  0  0  0  0
   -0.3480    0.4570   -3.3570 C   0  0  0  0  0  0  0  0  0  0  0  0
    0.7780    0.3630   -1.1200 C   0  0  0  0  0  0  0  0  0  0  0  0
    0.8190    0.1910    0.2270 C   0  0  0  0  0  0  0  0  0  0  0  0
    1.9560    0.2950    1.0640 N   0  0  0  0  0  0  0  0  0  0  0  0
    3.2370    0.7260    0.6790 C   0  0  0  0  0  0  0  0  0  0  0  0
    3.4520    1.0660   -0.5050 O   0  0  0  0  0  0  0  0  0  0  0  0
    4.3790    0.7910    1.6710 C   0  0  0  0  0  0  0  0  0  0  0  0
    5.6450    1.2100    1.0160 C   0  0  0  0  0  0  0  0  0  0  0  0
    6.0290    0.2340   -0.0190 C   0  0  0  0  0  0  0  0  0  0  0  0
    7.1480    0.4860   -0.8510 N   0  0  0  0  0  0  0  0  0  0  0  0
    5.1640   -1.1350   -0.1850 S   0  0  0  0  0  0  0  0  0  0  0  0
   -0.4120   -0.1120    0.8390 C   0  0  0  0  0  0  0  0  0  0  0  0
   -1.5820   -0.2270    0.1230 C   0  0  0  0  0  0  0  0  0  0  0  0
   -2.8460   -0.5460    0.8130 C   0  0  0  0  0  0  0  0  0  0  0  0
   -2.8540   -0.7290    2.1740 C   0  0  0  0  0  0  0  0  0  0  0  0
   -4.0370   -1.0320    2.8550 C   0  0  0  0  0  0  0  0  0  0  0  0
   -4.0700   -1.2200    4.2250 O   0  0  0  0  0  0  0  0  0  0  0  0
   -5.1900   -1.1450    2.1440 C   0  0  0  0  0  0  0  0  0  0  0  0
   -5.1780   -0.9590    0.7600 C   0  0  0  0  0  0  0  0  0  0  0  0
   -4.0380   -0.6630    0.0740 C   0  0  0  0  0  0  0  0  0  0  0  0
  1  2  2  0
  2  3  1  0
  2 25  1  0
  3  4  1  0
  4  5  2  0
  4 18  1  0
  5  6  1  0
  5  7  1  0
  7  8  2  0
  8  9  1  0
  8 17  1  0
  9 10  1  0
 10 11  2  0
 10 12  1  0
 12 13  1  0
 13 14  1  0
 14 15  1  0
 14 16  2  0
 17 18  2  0
 18 19  1  0
 19 20  2  0
 19 25  1  0
 20 21  1  0
 21 22  1  0
 21 23  2  0
 23 24  1  0
 24 25  2  0
M  END
