
     RDKit          3D

 25 27  0  0  0  0  0  0  0  0999 V2000
   -3.0110   -3.9250   -0.0210 C   0  0  0  0  0  0  0  0  0  0  0  0
   -2.8320   -2.4590    0.0530 C   0  0  0  0  0  0  0  0  0  0  0  0
   -3.9190   -1.6370    0.0970 C   0  0  0  0  0  0  0  0  0  0  0  0
   -3.7270   -0.2920    0.1660 C   0  0  0  0  0  0  0  0  0  0  0  0
   -2.4440    0.2290    0.1900 C   0  0  0  0  0  0  0  0  0  0  0  0
   -2.3040    1.6910    0.2750 C   0  0  2  0  0  0  0  0  0  0  0  0
   -3.6090    2.3400    0.7290 C   0  0  0  0  0  0  0  0  0  0  0  0
   -2.0010    2.2600   -1.1160 C   0  0  0  0  0  0  0  0  0  0  0  0
   -1.3230   -0.5710    0.1480 C   0  0  0  0  0  0  0  0  0  0  0  0
   -0.0230   -0.0000    0.1200 N   0  0  0  0  0  0  0  0  0  0  0  0
    1.1480   -0.6370    0.4980 C   0  0  0  0  0  0  0  0  0  0  0  0
    0.9070   -1.8300    0.9790 O   0  0  0  0  0  0  0  0  0  0  0  0
    2.4980   -0.1970    0.4780 C   0  0  0  0  0  0  0  0  0  0  0  0
    3.2950   -0.7410    1.5430 C   0  0  0  0  0  0  0  0  0  0  0  0
    2.6610   -1.6330    2.4360 N   0  0  0  0  0  0  0  0  0  0  0  0
    4.5460   -0.3860    1.6450 N   0  0  0  0  0  0  0  0  0  0  0  0
    5.1250    0.4650    0.7980 C   0  0  0  0  0  0  0  0  0  0  0  0
    6.3250    0.7390    0.9970 O   0  0  0  0  0  0  0  0  0  0  0  0
    4.3820    1.0220   -0.2770 C   0  0  0  0  0  0  0  0  0  0  0  0
    5.0360    1.8220   -1.1900 C   0  0  0  0  0  0  0  0  0  0  0  0
    3.7400    2.1300   -2.3990 S   0  0  0  0  0  0  0  0  0  0  0  0
    2.5010    1.1930   -1.5910 C   0  0  0  0  0  0  0  0  0  0  0  0
    1.1870    0.9290   -2.2620 C   0  0  0  0  0  0  0  0  0  0  0  0
    3.0950    0.6920   -0.4360 C   0  0  0  0  0  0  0  0  0  0  0  0
   -1.5320   -1.9130    0.0780 C   0  0  0  0  0  0  0  0  0  0  0  0
  1  2  1  0
  2  3  2  0
  2 25  1  0
  3  4  1  0
  4  5  2  0
  5  6  1  0
  5  9  1  0
  6  7  1  6
  6  8  1  0
  9 10  1  0
  9 25  2  0
 10 11  1  0
 11 12  2  0
 11 13  1  0
 13 14  2  0
 13 24  1  0
 14 15  1  0
 14 16  1  0
 16 17  1  0
 17 18  2  0
 17 19  1  0
 19 20  2  0
 19 24  1  0
 20 21  1  0
 21 22  1  0
 22 23  1  0
 22 24  2  0
M  END
