
     RDKit          3D

 25 27  0  0  0  0  0  0  0  0999 V2000
    2.6650   -0.2680    1.1330 O   0  0  0  0  0  0  0  0  0  0  0  0
    2.6670    0.0360   -0.0740 C   0  0  0  0  0  0  0  0  0  0  0  0
    1.3870    0.2060   -0.6830 N   0  0  0  0  0  0  0  0  0  0  0  0
    0.1280    0.0720   -0.1050 C   0  0  0  0  0  0  0  0  0  0  0  0
   -0.1370   -0.4170    1.1430 C   0  0  0  0  0  0  0  0  0  0  0  0
   -1.4460   -0.4910    1.6190 C   0  0  0  0  0  0  0  0  0  0  0  0
   -2.5300   -0.0860    0.8810 C   0  0  0  0  0  0  0  0  0  0  0  0
   -3.8480   -0.1350    1.3910 N   0  0  0  0  0  0  0  0  0  0  0  0
   -4.9620   -0.2900    0.5270 C   0  0  0  0  0  0  0  0  0  0  0  0
   -4.9160   -0.9010   -0.7060 C   0  0  0  0  0  0  0  0  0  0  0  0
   -6.0230   -1.0030   -1.5230 C   0  0  0  0  0  0  0  0  0  0  0  0
   -7.2240   -0.4870   -1.1140 C   0  0  0  0  0  0  0  0  0  0  0  0
   -7.3150    0.1330    0.1170 C   0  0  0  0  0  0  0  0  0  0  0  0
   -8.8850    0.8010    0.6390 S   0  0  0  0  0  0  0  0  0  0  0  0
   -6.2090    0.2190    0.8970 C   0  0  0  0  0  0  0  0  0  0  0  0
   -2.2760    0.4120   -0.3820 C   0  0  0  0  0  0  0  0  0  0  0  0
   -0.9800    0.4850   -0.8550 C   0  0  0  0  0  0  0  0  0  0  0  0
    3.8630    0.2070   -0.8120 N   0  0  0  0  0  0  0  0  0  0  0  0
    5.1490    0.0440   -0.2480 C   0  0  0  0  0  0  0  0  0  0  0  0
    5.4260   -0.5000    0.9620 C   0  0  0  0  0  0  0  0  0  0  0  0
    6.7350   -0.6060    1.4430 C   0  0  0  0  0  0  0  0  0  0  0  0
    7.7980   -0.1570    0.6940 C   0  0  0  0  0  0  0  0  0  0  0  0
    7.5190    0.3930   -0.5310 C   0  0  0  0  0  0  0  0  0  0  0  0
    8.5470    0.8780   -1.3640 O   0  0  0  0  0  0  0  0  0  0  0  0
    6.2430    0.4980   -1.0030 C   0  0  0  0  0  0  0  0  0  0  0  0
  1  2  2  0
  2  3  1  0
  2 18  1  0
  3  4  1  0
  4  5  2  0
  4 17  1  0
  5  6  1  0
  6  7  2  0
  7  8  1  0
  7 16  1  0
  8  9  1  0
  9 10  2  0
  9 15  1  0
 10 11  1  0
 11 12  2  0
 12 13  1  0
 13 14  1  0
 13 15  2  0
 16 17  2  0
 18 19  1  0
 19 20  2  0
 19 25  1  0
 20 21  1  0
 21 22  2  0
 22 23  1  0
 23 24  1  0
 23 25  2  0
M  END
