
     RDKit          3D

 25 27  0  0  0  0  0  0  0  0999 V2000
    6.6750    1.6440    0.1960 N   0  0  0  0  0  0  0  0  0  0  0  0
    5.9000    0.4610    0.0670 C   0  0  0  0  0  0  0  0  0  0  0  0
    6.5330   -0.7550   -0.0760 C   0  0  0  0  0  0  0  0  0  0  0  0
    5.8210   -1.9290   -0.2050 C   0  0  0  0  0  0  0  0  0  0  0  0
    4.4450   -1.8900   -0.1900 C   0  0  0  0  0  0  0  0  0  0  0  0
    3.4770   -3.3940   -0.3540 S   0  0  0  0  0  0  0  0  0  0  0  0
    3.7770   -0.6720   -0.0460 C   0  0  0  0  0  0  0  0  0  0  0  0
    2.3660   -0.7170   -0.0400 N   0  0  0  0  0  0  0  0  0  0  0  0
    1.4600    0.3580    0.0890 C   0  0  0  0  0  0  0  0  0  0  0  0
    1.9080    1.5090    0.2170 O   0  0  0  0  0  0  0  0  0  0  0  0
    0.0470    0.1840    0.0800 N   0  0  0  0  0  0  0  0  0  0  0  0
   -0.9200    1.2020    0.2040 C   0  0  0  0  0  0  0  0  0  0  0  0
   -0.7080    2.5390    0.3550 C   0  0  0  0  0  0  0  0  0  0  0  0
   -1.7300    3.4670    0.4680 C   0  0  0  0  0  0  0  0  0  0  0  0
   -3.0480    3.0580    0.4320 C   0  0  0  0  0  0  0  0  0  0  0  0
   -3.2870    1.7090    0.2790 C   0  0  0  0  0  0  0  0  0  0  0  0
   -2.2650    0.8010    0.1680 C   0  0  0  0  0  0  0  0  0  0  0  0
   -2.5570   -0.5330    0.0180 O   0  0  0  0  0  0  0  0  0  0  0  0
   -3.8770   -0.9520   -0.0200 C   0  0  0  0  0  0  0  0  0  0  0  0
   -4.6200   -1.0570   -1.1680 C   0  0  0  0  0  0  0  0  0  0  0  0
   -5.9420   -1.4820   -1.1590 C   0  0  0  0  0  0  0  0  0  0  0  0
   -6.5480   -1.8160    0.0380 C   0  0  0  0  0  0  0  0  0  0  0  0
   -5.8000   -1.7110    1.1910 C   0  0  0  0  0  0  0  0  0  0  0  0
   -4.4850   -1.2870    1.1720 C   0  0  0  0  0  0  0  0  0  0  0  0
    4.4980    0.4980    0.0820 C   0  0  0  0  0  0  0  0  0  0  0  0
  1  2  1  0
  2  3  2  0
  2 25  1  0
  3  4  1  0
  4  5  2  0
  5  6  1  0
  5  7  1  0
  7  8  1  0
  7 25  2  0
  8  9  1  0
  9 10  2  0
  9 11  1  0
 11 12  1  0
 12 13  2  0
 12 17  1  0
 13 14  1  0
 14 15  2  0
 15 16  1  0
 16 17  2  0
 17 18  1  0
 18 19  1  0
 19 20  2  0
 19 24  1  0
 20 21  1  0
 21 22  2  0
 22 23  1  0
 23 24  2  0
M  END
