
     RDKit          3D

 25 27  0  0  0  0  0  0  0  0999 V2000
   -3.9360    0.6160    2.3030 C   0  0  0  0  0  0  0  0  0  0  0  0
   -4.6910   -0.2560    1.3190 C   0  0  1  0  0  0  0  0  0  0  0  0
   -5.8680    0.5230    0.8080 C   0  0  0  0  0  0  0  0  0  0  0  0
   -3.8260   -0.7740    0.2570 C   0  0  0  0  0  0  0  0  0  0  0  0
   -2.4880   -0.4390    0.2530 C   0  0  0  0  0  0  0  0  0  0  0  0
   -1.6350   -0.8990   -0.7200 C   0  0  0  0  0  0  0  0  0  0  0  0
   -0.2060   -0.5840   -0.7850 C   0  0  1  0  0  0  0  0  0  0  0  0
    0.0840    0.8990   -0.8140 C   0  0  0  0  0  0  0  0  0  0  0  0
    1.3550    1.2200   -0.0280 C   0  0  0  0  0  0  0  0  0  0  0  0
    2.3690    0.1230   -0.2850 C   0  0  1  0  0  0  0  0  0  0  0  0
    3.6870    0.5200    0.1250 N   0  0  0  0  0  0  0  0  0  0  0  0
    3.9670    0.6340    1.4350 C   0  0  0  0  0  0  0  0  0  0  0  0
    2.8180    0.3240    2.5650 S   0  0  0  0  0  0  0  0  0  0  0  0
    5.2130    1.0080    1.7840 N   0  0  0  0  0  0  0  0  0  0  0  0
    6.1810    1.2710    0.8870 C   0  0  0  0  0  0  0  0  0  0  0  0
    5.9190    1.1610   -0.4710 C   0  0  0  0  0  0  0  0  0  0  0  0
    6.9280    1.4340   -1.4360 N   0  0  0  0  0  0  0  0  0  0  0  0
    4.6440    0.7780   -0.8180 C   0  0  0  0  0  0  0  0  0  0  0  0
    4.3700    0.6680   -2.0460 O   0  0  0  0  0  0  0  0  0  0  0  0
    1.9320   -1.2240    0.1920 C   0  0  0  0  0  0  0  0  0  0  0  0
    0.4330   -1.1200    0.5030 C   0  0  0  0  0  0  0  0  0  0  0  0
   -2.1750   -1.7110   -1.6950 C   0  0  0  0  0  0  0  0  0  0  0  0
   -3.5090   -2.0600   -1.7140 C   0  0  0  0  0  0  0  0  0  0  0  0
   -4.3380   -1.5800   -0.7200 C   0  0  0  0  0  0  0  0  0  0  0  0
   -5.6960   -1.8850   -0.6670 O   0  0  0  0  0  0  0  0  0  0  0  0
  2  1  1  1
  2  3  1  0
  2  4  1  0
  4  5  2  0
  4 24  1  0
  5  6  1  0
  7  6  1  1
  6 22  2  0
  7  8  1  0
  7 21  1  0
  8  9  1  0
  9 10  1  0
 10 11  1  1
 10 20  1  0
 11 12  1  0
 11 18  1  0
 12 13  2  0
 12 14  1  0
 14 15  1  0
 15 16  2  0
 16 17  1  0
 16 18  1  0
 18 19  2  0
 20 21  1  0
 22 23  1  0
 23 24  2  0
 24 25  1  0
M  END
