
     RDKit          3D

 25 27  0  0  0  0  0  0  0  0999 V2000
    8.0840    1.1990   -0.1210 C   0  0  0  0  0  0  0  0  0  0  0  0
    6.6720    0.7260   -0.0210 C   0  0  0  0  0  0  0  0  0  0  0  0
    6.4850   -0.4500    0.3220 O   0  0  0  0  0  0  0  0  0  0  0  0
    5.5870    1.5680   -0.3020 N   0  0  0  0  0  0  0  0  0  0  0  0
    4.2060    1.2240   -0.2390 C   0  0  0  0  0  0  0  0  0  0  0  0
    3.2520    2.2050   -0.5580 C   0  0  0  0  0  0  0  0  0  0  0  0
    1.9060    1.9600   -0.5240 C   0  0  0  0  0  0  0  0  0  0  0  0
    1.4180    0.7130   -0.1680 C   0  0  0  0  0  0  0  0  0  0  0  0
   -0.0090    0.4420   -0.1170 C   0  0  0  0  0  0  0  0  0  0  0  0
   -0.7870    1.4100    0.0400 O   0  0  0  0  0  0  0  0  0  0  0  0
   -0.4960   -0.8660   -0.2420 N   0  0  0  0  0  0  0  0  0  0  0  0
   -1.8570   -1.2760   -0.2080 C   0  0  0  0  0  0  0  0  0  0  0  0
   -2.9400   -0.4780   -0.0480 C   0  0  0  0  0  0  0  0  0  0  0  0
   -4.2320   -0.9720   -0.0290 C   0  0  0  0  0  0  0  0  0  0  0  0
   -5.3460   -0.0750    0.1440 C   0  0  0  0  0  0  0  0  0  0  0  0
   -5.3830    1.2870    0.3070 C   0  0  0  0  0  0  0  0  0  0  0  0
   -6.5570    1.8880    0.4490 C   0  0  0  0  0  0  0  0  0  0  0  0
   -7.6990    1.1240    0.4270 C   0  0  0  0  0  0  0  0  0  0  0  0
   -7.0590   -0.5130    0.1960 S   0  0  0  0  0  0  0  0  0  0  0  0
   -4.4690   -2.3150   -0.1730 C   0  0  0  0  0  0  0  0  0  0  0  0
   -3.3750   -3.1520   -0.3380 C   0  0  0  0  0  0  0  0  0  0  0  0
   -2.1030   -2.6450   -0.3540 C   0  0  0  0  0  0  0  0  0  0  0  0
   -1.0260   -3.5700   -0.5280 N   0  0  0  0  0  0  0  0  0  0  0  0
    2.3250   -0.2540    0.1460 C   0  0  0  0  0  0  0  0  0  0  0  0
    3.6970    0.0100    0.1060 C   0  0  0  0  0  0  0  0  0  0  0  0
  1  2  1  0
  2  3  2  0
  2  4  1  0
  4  5  1  0
  5  6  2  0
  5 25  1  0
  6  7  1  0
  7  8  2  0
  8  9  1  0
  8 24  1  0
  9 10  2  0
  9 11  1  0
 11 12  1  0
 12 13  2  0
 12 22  1  0
 13 14  1  0
 14 15  1  0
 14 20  2  0
 15 16  2  0
 15 19  1  0
 16 17  1  0
 17 18  2  0
 18 19  1  0
 20 21  1  0
 21 22  2  0
 22 23  1  0
 24 25  2  0
M  END
