
     RDKit          3D

 35 37  0  0  0  0  0  0  0  0999 V2000
    6.7480   -0.1510   -3.3270 C   0  0  0  0  0  0  0  0  0  0  0  0
    5.8740   -0.3540   -2.1230 C   0  0  0  0  0  0  0  0  0  0  0  0
    4.6270    0.2180   -2.0760 C   0  0  0  0  0  0  0  0  0  0  0  0
    3.8140    0.0230   -0.9430 C   0  0  0  0  0  0  0  0  0  0  0  0
    4.2710   -0.7300    0.0990 C   0  0  0  0  0  0  0  0  0  0  0  0
    3.4610   -1.0020    1.2910 C   0  0  0  0  0  0  0  0  0  0  0  0
    2.2460   -0.3100    1.2560 O   0  0  0  0  0  0  0  0  0  0  0  0
    2.2380    1.0630    1.2810 C   0  0  0  0  0  0  0  0  0  0  0  0
    3.3230    1.6830    1.3400 O   0  0  0  0  0  0  0  0  0  0  0  0
    0.9770    1.8180    1.2410 C   0  0  0  0  0  0  0  0  0  0  0  0
   -0.1220    0.7970    1.2230 N   0  0  0  0  0  0  0  0  0  0  0  0
   -0.6020    0.3350    2.4940 C   0  0  0  0  0  0  0  0  0  0  0  0
   -1.8220    1.0380    3.0130 C   0  0  1  0  0  0  0  0  0  0  0  0
   -2.1270    0.4550    4.2570 O   0  0  0  0  0  0  0  0  0  0  0  0
   -1.6190    2.5140    3.2530 C   0  0  0  0  0  0  0  0  0  0  0  0
   -2.9190    3.1130    3.7920 C   0  0  0  0  0  0  0  0  0  0  0  0
   -2.7760    4.4730    4.0280 O   0  0  0  0  0  0  0  0  0  0  0  0
   -0.5230    0.3770   -0.0330 C   0  0  0  0  0  0  0  0  0  0  0  0
    0.1300    0.9030   -1.0270 O   0  0  0  0  0  0  0  0  0  0  0  0
   -1.5910   -0.5840   -0.3890 C   0  0  0  0  0  0  0  0  0  0  0  0
   -2.4200   -1.2610    0.3470 C   0  0  0  0  0  0  0  0  0  0  0  0
   -3.3050   -2.0980   -0.4980 C   0  0  0  0  0  0  0  0  0  0  0  0
   -4.3250   -2.9830   -0.1560 C   0  0  0  0  0  0  0  0  0  0  0  0
   -4.9830   -3.6440   -1.1710 C   0  0  0  0  0  0  0  0  0  0  0  0
   -4.6310   -3.4260   -2.4820 C   0  0  0  0  0  0  0  0  0  0  0  0
   -3.6290   -2.5570   -2.8320 C   0  0  0  0  0  0  0  0  0  0  0  0
   -2.9620   -1.8860   -1.7970 C   0  0  0  0  0  0  0  0  0  0  0  0
   -1.8760   -0.9240   -1.8310 C   0  0  1  0  0  0  0  0  0  0  0  0
   -2.0400    0.2560   -2.5710 N   0  0  0  0  0  0  0  0  0  0  0  0
   -3.0450    1.1800   -2.2820 C   0  0  0  0  0  0  0  0  0  0  0  0
   -4.4670    0.7860   -2.5310 C   0  0  0  0  0  0  0  0  0  0  0  0
   -5.5690    2.1980   -2.0950 S   0  0  0  0  0  0  0  0  0  0  0  0
    5.5360   -1.3160    0.0600 C   0  0  0  0  0  0  0  0  0  0  0  0
    5.9800   -2.1200    1.2110 C   0  0  0  0  0  0  0  0  0  0  0  0
    6.3140   -1.1160   -1.0520 C   0  0  0  0  0  0  0  0  0  0  0  0
  1  2  1  0
  2  3  2  0
  2 35  1  0
  3  4  1  0
  4  5  2  0
  5  6  1  0
  5 33  1  0
  6  7  1  0
  7  8  1  0
  8  9  2  0
  8 10  1  0
 10 11  1  0
 11 12  1  0
 11 18  1  0
 12 13  1  0
 13 14  1  1
 13 15  1  0
 15 16  1  0
 16 17  1  0
 18 19  2  0
 18 20  1  0
 20 21  2  0
 20 28  1  0
 21 22  1  0
 22 23  2  0
 22 27  1  0
 23 24  1  0
 24 25  2  0
 25 26  1  0
 26 27  2  0
 27 28  1  0
 28 29  1  6
 29 30  1  0
 30 31  1  0
 31 32  1  0
 33 34  1  0
 33 35  2  0
M  END
