
     RDKit          3D

 35 41  0  0  0  0  0  0  0  0999 V2000
    1.0300   -0.1190   -4.8940 C   0  0  0  0  0  0  0  0  0  0  0  0
    0.7590   -0.0070   -3.3720 C   0  0  0  0  0  0  0  0  0  0  0  0
    1.7930    0.5690   -2.7330 C   0  0  0  0  0  0  0  0  0  0  0  0
    1.8800    0.8670   -1.2460 C   0  0  0  0  0  0  0  0  0  0  0  0
    2.6910   -0.0870   -0.7210 C   0  0  0  0  0  0  0  0  0  0  0  0
    3.8200   -0.8990   -1.3240 C   0  0  0  0  0  0  0  0  0  0  0  0
    4.5950   -1.3660   -0.1710 C   0  0  0  0  0  0  0  0  0  0  0  0
    3.6130   -1.4760    0.9220 C   0  0  2  0  0  0  0  0  0  0  0  0
    2.9890   -2.8140    1.1440 C   0  0  2  0  0  0  0  0  0  0  0  0
    2.1750   -3.5510    0.1920 C   0  0  0  0  0  0  0  0  0  0  0  0
    1.5470   -2.8770    1.3850 C   0  0  0  0  0  0  0  0  0  0  0  0
    2.6670   -0.4140    0.6400 N   0  0  0  0  0  0  0  0  0  0  0  0
    1.7920    0.3020    1.4010 N   0  0  0  0  0  0  0  0  0  0  0  0
    0.8950    1.3690    0.9580 C   0  0  0  0  0  0  0  0  0  0  0  0
    0.9640    1.6690   -0.4400 C   0  0  0  0  0  0  0  0  0  0  0  0
    0.1190    2.8070   -0.6380 C   0  0  0  0  0  0  0  0  0  0  0  0
   -0.1540    3.6150   -1.7500 C   0  0  0  0  0  0  0  0  0  0  0  0
   -0.9500    4.7070   -1.6830 C   0  0  0  0  0  0  0  0  0  0  0  0
   -1.5100    5.0340   -0.4810 C   0  0  0  0  0  0  0  0  0  0  0  0
   -1.2370    4.2420    0.5850 C   0  0  0  0  0  0  0  0  0  0  0  0
   -0.4160    3.1040    0.5480 C   0  0  0  0  0  0  0  0  0  0  0  0
    0.0330    2.2220    1.5100 N   0  0  0  0  0  0  0  0  0  0  0  0
   -0.7780    2.1750    2.7320 C   0  0  0  0  0  0  0  0  0  0  0  0
   -0.8670    3.0960    3.5270 O   0  0  0  0  0  0  0  0  0  0  0  0
   -1.5690    0.9950    3.0990 N   0  0  0  0  0  0  0  0  0  0  0  0
   -1.6040   -0.1970    2.2610 C   0  0  0  0  0  0  0  0  0  0  0  0
   -2.7070   -0.3370    1.2720 C   0  0  1  0  0  0  0  0  0  0  0  0
   -2.9650   -1.8030    0.9320 C   0  0  0  0  0  0  0  0  0  0  0  0
   -4.0010   -2.1790    1.9660 C   0  0  0  0  0  0  0  0  0  0  0  0
   -4.2600   -0.8920    2.6770 C   0  0  0  0  0  0  0  0  0  0  0  0
   -3.9320    0.1140    1.8010 O   0  0  0  0  0  0  0  0  0  0  0  0
   -2.4690    0.4230   -0.0080 C   0  0  0  0  0  0  0  0  0  0  0  0
   -1.5110   -0.1510   -0.7880 O   0  0  0  0  0  0  0  0  0  0  0  0
   -1.3070   -0.7440   -1.9700 C   0  0  0  0  0  0  0  0  0  0  0  0
   -0.4340   -0.6620   -2.9270 C   0  0  0  0  0  0  0  0  0  0  0  0
  1  2  1  0
  2  3  2  0
  2 35  1  0
  3  4  1  0
  4  5  2  0
  4 15  1  0
  5  6  1  0
  5 12  1  0
  6  7  1  0
  8  7  1  6
  8  9  1  0
  8 12  1  0
  9 10  1  6
  9 11  1  0
 10 11  1  0
 12 13  1  0
 13 14  1  0
 14 15  2  0
 14 22  1  0
 15 16  1  0
 16 17  2  0
 16 21  1  0
 17 18  1  0
 18 19  2  0
 19 20  1  0
 20 21  2  0
 21 22  1  0
 22 23  1  0
 23 24  2  0
 23 25  1  0
 25 26  1  0
 27 26  1  1
 27 28  1  0
 27 31  1  0
 27 32  1  0
 28 29  1  0
 29 30  1  0
 30 31  1  0
 32 33  1  0
 33 34  1  0
 34 35  2  0
M  END
