
     RDKit          3D

 35 37  0  0  0  0  0  0  0  0999 V2000
    7.5630    2.4140   -3.4750 C   0  0  0  0  0  0  0  0  0  0  0  0
    7.9910    1.4660   -2.5250 O   0  0  0  0  0  0  0  0  0  0  0  0
    7.1480    0.3770   -2.2610 C   0  0  0  0  0  0  0  0  0  0  0  0
    5.9360    0.2280   -2.9050 C   0  0  0  0  0  0  0  0  0  0  0  0
    5.1480   -0.8840   -2.5890 C   0  0  0  0  0  0  0  0  0  0  0  0
    5.5690   -1.8020   -1.6610 C   0  0  0  0  0  0  0  0  0  0  0  0
    4.5630   -3.2090   -1.2650 S   0  0  0  0  0  0  0  0  0  0  0  0
    3.4860   -2.7430    0.0860 C   0  0  0  0  0  0  0  0  0  0  0  0
    3.5200   -1.4890    0.6500 C   0  0  0  0  0  0  0  0  0  0  0  0
    2.6720   -1.1300    1.7040 C   0  0  0  0  0  0  0  0  0  0  0  0
    1.7590   -2.0080    2.2350 C   0  0  0  0  0  0  0  0  0  0  0  0
    0.8850   -1.7730    3.2500 O   0  0  0  0  0  0  0  0  0  0  0  0
    0.7070   -0.6100    3.9460 C   0  0  0  0  0  0  0  0  0  0  0  0
    0.2130    0.5870    3.2000 C   0  0  0  0  0  0  0  0  0  0  0  0
   -1.1340    0.2950    2.5860 C   0  0  0  0  0  0  0  0  0  0  0  0
   -1.6340   -0.8190    2.8020 O   0  0  0  0  0  0  0  0  0  0  0  0
   -1.7490    1.3050    1.8020 N   0  0  0  0  0  0  0  0  0  0  0  0
   -3.0450    1.0410    1.2060 C   0  0  1  0  0  0  0  0  0  0  0  0
   -3.9480    2.1520    1.6300 C   0  0  0  0  0  0  0  0  0  0  0  0
   -5.1270    2.2380    0.7040 C   0  0  0  0  0  0  0  0  0  0  0  0
   -5.6700    0.8830    0.4580 C   0  0  0  0  0  0  0  0  0  0  0  0
   -5.2780    0.2270   -0.7980 C   0  0  1  0  0  0  0  0  0  0  0  0
   -5.9280   -1.1580   -0.8130 C   0  0  0  0  0  0  0  0  0  0  0  0
   -5.6340   -1.8730   -1.9460 O   0  0  0  0  0  0  0  0  0  0  0  0
   -5.7720    0.9670   -2.0000 C   0  0  0  0  0  0  0  0  0  0  0  0
   -7.2280    1.1530   -2.1530 C   0  0  0  0  0  0  0  0  0  0  0  0
   -7.8900    1.9090   -1.1240 N   0  0  0  0  0  0  0  0  0  0  0  0
   -3.7960    0.0030   -0.9540 C   0  0  0  0  0  0  0  0  0  0  0  0
   -2.9530    1.0580   -0.3040 C   0  0  0  0  0  0  0  0  0  0  0  0
    1.7520   -3.2810    1.6340 C   0  0  0  0  0  0  0  0  0  0  0  0
    2.5800   -3.6340    0.6040 C   0  0  0  0  0  0  0  0  0  0  0  0
    6.7760   -1.6350   -1.0330 C   0  0  0  0  0  0  0  0  0  0  0  0
    7.5750   -0.5440   -1.3270 C   0  0  0  0  0  0  0  0  0  0  0  0
    8.7930   -0.3820   -0.6870 O   0  0  0  0  0  0  0  0  0  0  0  0
    9.2190   -1.3270    0.2610 C   0  0  0  0  0  0  0  0  0  0  0  0
  1  2  1  0
  2  3  1  0
  3  4  2  0
  3 33  1  0
  4  5  1  0
  5  6  2  0
  6  7  1  0
  6 32  1  0
  7  8  1  0
  8  9  2  0
  8 31  1  0
  9 10  1  0
 10 11  2  0
 11 12  1  0
 11 30  1  0
 12 13  1  0
 13 14  1  0
 14 15  1  0
 15 16  2  0
 15 17  1  0
 18 17  1  1
 18 19  1  0
 18 29  1  0
 19 20  1  0
 20 21  1  0
 21 22  1  0
 22 23  1  1
 22 25  1  0
 22 28  1  0
 23 24  1  0
 25 26  1  0
 26 27  1  0
 28 29  1  0
 30 31  2  0
 32 33  2  0
 33 34  1  0
 34 35  1  0
M  END
