
     RDKit          3D

 35 40  0  0  0  0  0  0  0  0999 V2000
   -2.0930    1.4600   -3.1100 C   0  0  0  0  0  0  0  0  0  0  0  0
   -2.2940    1.8510   -1.6380 C   0  0  0  0  0  0  0  0  0  0  0  0
   -0.9970    1.8970   -0.9900 C   0  0  0  0  0  0  0  0  0  0  0  0
   -0.7550    2.3170    0.2920 C   0  0  0  0  0  0  0  0  0  0  0  0
   -1.8030    2.7830    1.0430 C   0  0  0  0  0  0  0  0  0  0  0  0
   -3.1020    2.7500    0.4400 C   0  0  0  0  0  0  0  0  0  0  0  0
   -3.3130    2.2770   -0.8380 C   0  0  0  0  0  0  0  0  0  0  0  0
   -4.7720    1.6590   -1.0060 C   0  0  0  0  0  0  0  0  0  0  0  0
   -4.8760    0.7030    0.0950 N   0  0  0  0  0  0  0  0  0  0  0  0
   -4.0250   -0.2260    0.6680 C   0  0  0  0  0  0  0  0  0  0  0  0
   -4.1520   -0.1310    2.0140 O   0  0  0  0  0  0  0  0  0  0  0  0
   -3.0490   -1.2690    0.2980 C   0  0  0  0  0  0  0  0  0  0  0  0
   -3.6520   -2.5380   -0.0250 C   0  0  0  0  0  0  0  0  0  0  0  0
   -3.0470   -3.6590   -0.4360 C   0  0  0  0  0  0  0  0  0  0  0  0
   -1.6910   -3.6310   -0.5750 C   0  0  0  0  0  0  0  0  0  0  0  0
   -1.0560   -2.4680   -0.2830 C   0  0  0  0  0  0  0  0  0  0  0  0
   -1.6810   -1.2520    0.1630 C   0  0  0  0  0  0  0  0  0  0  0  0
   -0.6460   -0.3160    0.4460 N   0  0  0  0  0  0  0  0  0  0  0  0
   -0.1360    0.3780    1.5820 C   0  0  1  0  0  0  0  0  0  0  0  0
    0.8970   -0.1910    2.4160 C   0  0  1  0  0  0  0  0  0  0  0  0
    1.5910   -1.4340    2.1030 C   0  0  2  0  0  0  0  0  0  0  0  0
    2.4160   -1.9200    3.2780 C   0  0  0  0  0  0  0  0  0  0  0  0
    2.4170   -0.6670    1.1230 N   0  0  0  0  0  0  0  0  0  0  0  0
    2.9840   -1.2140   -0.0510 C   0  0  0  0  0  0  0  0  0  0  0  0
    2.7540   -2.4400   -0.3620 O   0  0  0  0  0  0  0  0  0  0  0  0
    3.8240   -0.4740   -0.9480 C   0  0  0  0  0  0  0  0  0  0  0  0
    4.1950   -1.0070   -2.1960 C   0  0  0  0  0  0  0  0  0  0  0  0
    5.0360   -0.3350   -3.0520 C   0  0  0  0  0  0  0  0  0  0  0  0
    5.5610    0.8960   -2.7340 C   0  0  0  0  0  0  0  0  0  0  0  0
    5.2140    1.4370   -1.5190 C   0  0  0  0  0  0  0  0  0  0  0  0
    4.3540    0.7460   -0.6460 C   0  0  0  0  0  0  0  0  0  0  0  0
    2.1950    0.4470    1.9570 C   0  0  1  0  0  0  0  0  0  0  0  0
    1.7240    1.7280    1.5100 C   0  0  0  0  0  0  0  0  0  0  0  0
    2.4120    2.7960    1.5250 O   0  0  0  0  0  0  0  0  0  0  0  0
    0.4040    1.7240    1.0390 N   0  0  0  0  0  0  0  0  0  0  0  0
  1  2  1  0
  2  3  1  0
  2  7  2  0
  3  4  2  0
  4  5  1  0
  4 35  1  0
  5  6  2  0
  6  7  1  0
  7  8  1  0
  8  9  1  0
  9 10  1  0
 10 11  2  0
 10 12  1  0
 12 13  2  0
 12 17  1  0
 13 14  1  0
 14 15  2  0
 15 16  1  0
 16 17  2  0
 17 18  1  0
 19 18  1  6
 19 20  1  0
 19 35  1  0
 20 21  1  6
 20 32  1  0
 21 22  1  1
 21 23  1  0
 23 24  1  0
 32 23  1  6
 24 25  2  0
 24 26  1  0
 26 27  2  0
 26 31  1  0
 27 28  1  0
 28 29  2  0
 29 30  1  0
 30 31  2  0
 32 33  1  0
 33 34  2  0
 33 35  1  0
M  END
