
     RDKit          3D

 35 40  0  0  0  0  0  0  0  0999 V2000
    5.9290   -0.9620    0.2550 C   0  0  0  0  0  0  0  0  0  0  0  0
    4.6340   -0.4120    0.8130 C   0  0  1  0  0  0  0  0  0  0  0  0
    4.3560    0.9830    0.3290 C   0  0  0  0  0  0  0  0  0  0  0  0
    3.4220    1.1070   -0.7960 C   0  0  1  0  0  0  0  0  0  0  0  0
    3.1600   -0.2220   -1.5590 C   0  0  0  0  0  0  0  0  0  0  0  0
    2.8330   -1.2430   -0.5820 C   0  0  0  0  0  0  0  0  0  0  0  0
    1.8650   -2.1920   -0.6070 C   0  0  0  0  0  0  0  0  0  0  0  0
    2.0010   -2.8980    0.5540 N   0  0  0  0  0  0  0  0  0  0  0  0
    3.0270   -2.3780    1.2550 N   0  0  0  0  0  0  0  0  0  0  0  0
    3.5390   -1.3680    0.5690 C   0  0  0  0  0  0  0  0  0  0  0  0
    0.9210   -2.2930   -1.7430 C   0  0  0  0  0  0  0  0  0  0  0  0
    0.0250   -3.4910   -1.6990 C   0  0  0  0  0  0  0  0  0  0  0  0
   -0.7740   -3.4590   -0.4680 C   0  0  0  0  0  0  0  0  0  0  0  0
   -0.4660   -4.3260    0.4290 O   0  0  0  0  0  0  0  0  0  0  0  0
   -1.8320   -2.5880   -0.1670 N   0  0  0  0  0  0  0  0  0  0  0  0
   -2.7910   -2.0380   -1.1150 C   0  0  0  0  0  0  0  0  0  0  0  0
   -3.7600   -1.1810   -0.3480 C   0  0  0  0  0  0  0  0  0  0  0  0
   -4.9700   -1.8780   -0.1370 C   0  0  0  0  0  0  0  0  0  0  0  0
   -6.0370   -1.3540    0.5580 C   0  0  0  0  0  0  0  0  0  0  0  0
   -5.8480   -0.1350    1.0220 N   0  0  0  0  0  0  0  0  0  0  0  0
   -4.6900    0.6100    0.8550 C   0  0  0  0  0  0  0  0  0  0  0  0
   -3.6180    0.0830    0.1540 C   0  0  0  0  0  0  0  0  0  0  0  0
   -4.8270    1.8260    1.4680 O   0  0  0  0  0  0  0  0  0  0  0  0
   -4.9180    3.1530    1.2440 C   0  0  0  0  0  0  0  0  0  0  0  0
   -3.7050    3.8660    1.5960 O   0  0  0  0  0  0  0  0  0  0  0  0
   -2.4190    3.2550    1.3940 C   0  0  0  0  0  0  0  0  0  0  0  0
   -1.9210    2.3270    2.2200 C   0  0  0  0  0  0  0  0  0  0  0  0
   -0.6770    1.7160    2.0160 C   0  0  0  0  0  0  0  0  0  0  0  0
    0.0970    2.0620    0.9290 C   0  0  0  0  0  0  0  0  0  0  0  0
    1.3420    1.4600    0.6550 C   0  0  0  0  0  0  0  0  0  0  0  0
    2.1050    1.7950   -0.4530 C   0  0  0  0  0  0  0  0  0  0  0  0
    1.5610    2.7590   -1.2680 C   0  0  0  0  0  0  0  0  0  0  0  0
    0.3330    3.3960   -1.0570 C   0  0  0  0  0  0  0  0  0  0  0  0
   -0.4450    3.0810    0.0330 C   0  0  0  0  0  0  0  0  0  0  0  0
   -1.7040    3.6550    0.2980 C   0  0  0  0  0  0  0  0  0  0  0  0
  2  1  1  6
  2  3  1  0
  2 10  1  0
  4  3  1  1
  4  5  1  0
  4 31  1  0
  5  6  1  0
  6  7  1  0
  6 10  2  0
  7  8  2  0
  7 11  1  0
  8  9  1  0
  9 10  1  0
 11 12  1  0
 12 13  1  0
 13 14  2  0
 13 15  1  0
 15 16  1  0
 16 17  1  0
 17 18  1  0
 17 22  2  0
 18 19  2  0
 19 20  1  0
 20 21  2  0
 21 22  1  0
 21 23  1  0
 23 24  1  0
 24 25  1  0
 25 26  1  0
 26 27  2  0
 26 35  1  0
 27 28  1  0
 28 29  2  0
 29 30  1  0
 29 34  1  0
 30 31  2  0
 31 32  1  0
 32 33  2  0
 33 34  1  0
 34 35  2  0
M  END
