
     RDKit          3D

 35 40  0  0  0  0  0  0  0  0999 V2000
    5.7420   -0.0270    0.3960 C   0  0  0  0  0  0  0  0  0  0  0  0
    4.5370   -0.9160    0.1440 C   0  0  0  0  0  0  0  0  0  0  0  0
    3.2640   -0.3460    0.0600 C   0  0  0  0  0  0  0  0  0  0  0  0
    2.1860   -1.2870   -0.1980 C   0  0  0  0  0  0  0  0  0  0  0  0
    0.8380   -0.9880   -0.3450 C   0  0  0  0  0  0  0  0  0  0  0  0
   -0.0770   -2.0150   -0.6090 C   0  0  0  0  0  0  0  0  0  0  0  0
    0.3910   -3.3410   -0.7170 C   0  0  0  0  0  0  0  0  0  0  0  0
    1.7080   -3.6490   -0.5760 C   0  0  0  0  0  0  0  0  0  0  0  0
    2.6030   -2.5970   -0.3140 C   0  0  0  0  0  0  0  0  0  0  0  0
    3.8770   -3.0450   -0.2130 N   0  0  0  0  0  0  0  0  0  0  0  0
    4.8590   -2.2110    0.0170 C   0  0  0  0  0  0  0  0  0  0  0  0
    6.0570   -2.6250    0.1120 O   0  0  0  0  0  0  0  0  0  0  0  0
   -1.5060   -1.9700   -0.8330 N   0  0  0  0  0  0  0  0  0  0  0  0
   -2.3100   -3.0720   -0.1940 C   0  0  0  0  0  0  0  0  0  0  0  0
   -3.5320   -2.4420    0.3590 C   0  0  1  0  0  0  0  0  0  0  0  0
   -3.8630   -3.1100    1.7070 C   0  0  0  0  0  0  0  0  0  0  0  0
   -3.6480   -1.1170    0.4630 O   0  0  0  0  0  0  0  0  0  0  0  0
   -3.2940   -0.3250   -0.5860 C   0  0  2  0  0  0  0  0  0  0  0  0
   -4.6810   -0.2320   -1.2280 C   0  0  0  0  0  0  0  0  0  0  0  0
   -2.3600   -1.1020   -1.5160 C   0  0  0  0  0  0  0  0  0  0  0  0
   -2.5870   -0.7670   -2.7080 O   0  0  0  0  0  0  0  0  0  0  0  0
   -2.5940    0.9810   -0.3310 C   0  0  0  0  0  0  0  0  0  0  0  0
   -2.4860    2.0130   -1.2570 C   0  0  0  0  0  0  0  0  0  0  0  0
   -1.8390    3.2490   -0.9860 C   0  0  0  0  0  0  0  0  0  0  0  0
   -1.2400    3.5900    0.2130 C   0  0  0  0  0  0  0  0  0  0  0  0
   -1.3450    2.5620    1.1320 C   0  0  0  0  0  0  0  0  0  0  0  0
   -1.9860    1.3180    0.8820 C   0  0  0  0  0  0  0  0  0  0  0  0
   -0.5960    4.8410    0.4730 N   0  0  0  0  0  0  0  0  0  0  0  0
    0.8780    4.9880    0.2350 C   0  0  0  0  0  0  0  0  0  0  0  0
    1.5830    3.7120    0.4540 C   0  0  0  0  0  0  0  0  0  0  0  0
    1.8050    2.9330    1.5290 C   0  0  0  0  0  0  0  0  0  0  0  0
    2.4370    1.6570    1.4340 C   0  0  0  0  0  0  0  0  0  0  0  0
    2.8800    1.1020    0.2250 C   0  0  0  0  0  0  0  0  0  0  0  0
    2.6280    1.9640   -0.8470 C   0  0  0  0  0  0  0  0  0  0  0  0
    2.0240    3.1680   -0.7030 N   0  0  0  0  0  0  0  0  0  0  0  0
  1  2  1  0
  2  3  2  0
  2 11  1  0
  3  4  1  0
  3 33  1  0
  4  5  2  0
  4  9  1  0
  5  6  1  0
  6  7  2  0
  6 13  1  0
  7  8  1  0
  8  9  2  0
  9 10  1  0
 10 11  1  0
 11 12  2  0
 13 14  1  0
 13 20  1  0
 14 15  1  0
 15 16  1  1
 15 17  1  0
 17 18  1  0
 18 19  1  6
 18 20  1  0
 18 22  1  0
 20 21  2  0
 22 23  2  0
 22 27  1  0
 23 24  1  0
 24 25  2  0
 25 26  1  0
 25 28  1  0
 26 27  2  0
 28 29  1  0
 29 30  1  0
 30 31  2  0
 30 35  1  0
 31 32  1  0
 32 33  2  0
 33 34  1  0
 34 35  2  0
M  END
