
     RDKit          3D

 35 37  0  0  0  0  0  0  0  0999 V2000
   -4.0510    0.4540   -2.5610 C   0  0  0  0  0  0  0  0  0  0  0  0
   -3.3370    0.5490   -1.3710 O   0  0  0  0  0  0  0  0  0  0  0  0
   -3.5600   -0.1910   -0.2190 C   0  0  0  0  0  0  0  0  0  0  0  0
   -4.4820   -1.0280   -0.2190 O   0  0  0  0  0  0  0  0  0  0  0  0
   -2.6770    0.0430    1.0120 C   0  0  1  0  0  0  0  0  0  0  0  0
   -2.7290    1.4920    1.2610 C   0  0  0  0  0  0  0  0  0  0  0  0
   -1.6760    2.3020    1.5260 C   0  0  0  0  0  0  0  0  0  0  0  0
   -1.8690    3.6600    1.7630 C   0  0  0  0  0  0  0  0  0  0  0  0
   -3.1060    4.2450    1.7440 C   0  0  0  0  0  0  0  0  0  0  0  0
   -4.1850    3.4310    1.4740 C   0  0  0  0  0  0  0  0  0  0  0  0
   -3.9940    2.0860    1.2380 C   0  0  0  0  0  0  0  0  0  0  0  0
   -3.5020   -0.5440    2.1450 C   0  0  0  0  0  0  0  0  0  0  0  0
   -3.4440   -2.0020    2.3220 C   0  0  0  0  0  0  0  0  0  0  0  0
   -2.0450   -2.5700    2.1500 C   0  0  0  0  0  0  0  0  0  0  0  0
   -1.6360   -2.1570    0.7750 C   0  0  0  0  0  0  0  0  0  0  0  0
   -1.4170   -0.6170    0.7080 C   0  0  2  0  0  0  0  0  0  0  0  0
   -0.1860   -0.3740    1.4670 C   0  0  0  0  0  0  0  0  0  0  0  0
   -1.0660   -0.4640   -0.7960 C   0  0  0  0  0  0  0  0  0  0  0  0
    0.2120   -1.0830   -1.0800 N   0  0  0  0  0  0  0  0  0  0  0  0
    0.6680   -1.0980   -2.4120 C   0  0  0  0  0  0  0  0  0  0  0  0
   -0.0720   -0.5930   -3.3350 O   0  0  0  0  0  0  0  0  0  0  0  0
    1.9250   -1.6430   -2.8800 C   0  0  0  0  0  0  0  0  0  0  0  0
    1.9530   -2.6520   -3.8440 C   0  0  0  0  0  0  0  0  0  0  0  0
    3.1550   -3.1720   -4.2560 C   0  0  0  0  0  0  0  0  0  0  0  0
    4.3200   -2.6940   -3.7140 C   0  0  0  0  0  0  0  0  0  0  0  0
    4.2920   -1.6840   -2.7490 C   0  0  0  0  0  0  0  0  0  0  0  0
    3.1090   -1.1600   -2.3320 C   0  0  0  0  0  0  0  0  0  0  0  0
    3.0420   -0.0730   -1.3120 C   0  0  2  0  0  0  0  0  0  0  0  0
    2.0430    0.8300   -1.6140 O   0  0  0  0  0  0  0  0  0  0  0  0
    4.3940    0.5780   -1.1980 C   0  0  0  0  0  0  0  0  0  0  0  0
    4.3240    1.6930   -0.1860 C   0  0  0  0  0  0  0  0  0  0  0  0
    3.9530    1.1230    1.1520 C   0  0  0  0  0  0  0  0  0  0  0  0
    3.9110    2.1750    2.1790 N   0  0  0  0  0  0  0  0  0  0  0  0
    3.4720    1.4060    3.7040 S   0  0  0  0  0  0  0  0  0  0  0  0
    2.2980    2.1380    4.3540 O   0  0  0  0  0  0  0  0  0  0  0  0
  1  2  1  0
  2  3  1  0
  3  4  2  0
  5  3  1  6
  5  6  1  0
  5 12  1  0
  5 16  1  0
  6  7  2  0
  6 11  1  0
  7  8  1  0
  8  9  2  0
  9 10  1  0
 10 11  2  0
 12 13  1  0
 13 14  1  0
 14 15  1  0
 15 16  1  0
 16 17  1  1
 16 18  1  0
 18 19  1  0
 19 20  1  0
 20 21  2  0
 20 22  1  0
 22 23  2  0
 22 27  1  0
 23 24  1  0
 24 25  2  0
 25 26  1  0
 26 27  2  0
 27 28  1  0
 28 29  1  6
 28 30  1  0
 30 31  1  0
 31 32  1  0
 32 33  1  0
 33 34  1  0
 34 35  2  0
M  END
