
     RDKit          3D

 35 38  0  0  0  0  0  0  0  0999 V2000
   -1.0990   -3.3380   -1.8550 C   0  0  0  0  0  0  0  0  0  0  0  0
   -2.2180   -2.5590   -1.1880 C   0  0  1  0  0  0  0  0  0  0  0  0
   -3.4140   -3.5210   -1.1900 C   0  0  0  0  0  0  0  0  0  0  0  0
   -2.8820   -4.7550   -0.7590 O   0  0  0  0  0  0  0  0  0  0  0  0
   -2.4820   -4.6390    0.5560 C   0  0  0  0  0  0  0  0  0  0  0  0
   -1.5720   -3.5000    0.8360 C   0  0  0  0  0  0  0  0  0  0  0  0
   -1.9550   -2.2440    0.1770 N   0  0  1  0  0  0  0  0  0  0  0  0
   -0.8180   -1.3530    0.3840 C   0  0  0  0  0  0  0  0  0  0  0  0
   -0.9120   -0.0940   -0.3590 C   0  0  1  0  0  0  0  0  0  0  0  0
   -2.1400    0.7390    0.0100 C   0  0  0  0  0  0  0  0  0  0  0  0
   -2.2930    1.6700   -1.0520 N   0  0  0  0  0  0  0  0  0  0  0  0
   -3.6510    2.6270   -1.1380 S   0  0  2  0  0  0  0  0  0  0  0  0
   -4.8620    1.7010   -1.2300 O   0  0  0  0  0  0  0  0  0  0  0  0
   -3.6430    3.3230   -2.5010 O   0  0  0  0  0  0  0  0  0  0  0  0
   -3.9480    3.7250    0.1320 C   0  0  0  0  0  0  0  0  0  0  0  0
   -3.4200    4.1240    1.2910 C   0  0  0  0  0  0  0  0  0  0  0  0
   -3.9890    5.0880    2.0300 C   0  0  0  0  0  0  0  0  0  0  0  0
   -5.1270    5.6890    1.6150 C   0  0  0  0  0  0  0  0  0  0  0  0
   -5.3950    4.7620    0.0010 S   0  0  0  0  0  0  0  0  0  0  0  0
   -1.0510    2.3280   -1.4140 C   0  0  0  0  0  0  0  0  0  0  0  0
   -0.1300    2.2120   -0.2230 C   0  0  0  0  0  0  0  0  0  0  0  0
    0.2210    0.7530   -0.1590 N   0  0  0  0  0  0  0  0  0  0  0  0
    1.5720    0.4710    0.0490 C   0  0  0  0  0  0  0  0  0  0  0  0
    2.4810    1.2320   -0.7130 C   0  0  0  0  0  0  0  0  0  0  0  0
    3.8250    1.0720   -0.5520 C   0  0  0  0  0  0  0  0  0  0  0  0
    4.3880    0.1700    0.3500 C   0  0  0  0  0  0  0  0  0  0  0  0
    5.8530    0.0990    0.4270 C   0  0  1  0  0  0  0  0  0  0  0  0
    6.4150   -0.7560   -0.6980 C   0  0  0  0  0  0  0  0  0  0  0  0
    6.3120    1.4220    0.1790 O   0  0  0  0  0  0  0  0  0  0  0  0
    6.4150   -0.2970    1.7660 C   0  0  1  0  0  0  0  0  0  0  0  0
    7.8180   -0.2830    1.6030 F   0  0  0  0  0  0  0  0  0  0  0  0
    6.1450    0.6940    2.6860 F   0  0  0  0  0  0  0  0  0  0  0  0
    6.0490   -1.5550    2.1710 F   0  0  0  0  0  0  0  0  0  0  0  0
    3.5120   -0.5690    1.0870 C   0  0  0  0  0  0  0  0  0  0  0  0
    2.1310   -0.4120    0.9300 C   0  0  0  0  0  0  0  0  0  0  0  0
  2  1  1  1
  2  3  1  0
  2  7  1  0
  3  4  1  0
  4  5  1  0
  5  6  1  0
  6  7  1  0
  7  8  1  6
  9  8  1  1
  9 10  1  0
  9 22  1  0
 10 11  1  0
 12 11  1  1
 11 20  1  0
 12 13  2  0
 12 14  2  0
 12 15  1  0
 15 16  2  0
 15 19  1  0
 16 17  1  0
 17 18  2  0
 18 19  1  0
 20 21  1  0
 21 22  1  0
 22 23  1  0
 23 24  2  0
 23 35  1  0
 24 25  1  0
 25 26  2  0
 26 27  1  0
 26 34  1  0
 27 28  1  6
 27 29  1  0
 27 30  1  0
 30 31  1  6
 30 32  1  0
 30 33  1  0
 34 35  2  0
M  CHG  1   7   1
M  END
