
     RDKit          3D

 30 32  0  0  0  0  0  0  0  0999 V2000
   -5.5520    3.9480    0.6280 C   0  0  0  0  0  0  0  0  0  0  0  0
   -4.4060    3.1410    0.6850 O   0  0  0  0  0  0  0  0  0  0  0  0
   -4.7530    1.8500    0.3250 C   0  0  0  0  0  0  0  0  0  0  0  0
   -3.4850    0.9970    0.3970 C   0  0  2  0  0  0  0  0  0  0  0  0
   -2.4450    1.4770   -0.5710 C   0  0  0  0  0  0  0  0  0  0  0  0
   -1.2090    0.7760   -0.2680 N   0  0  0  0  0  0  0  0  0  0  0  0
   -0.5000    1.5230    0.7090 C   0  0  0  0  0  0  0  0  0  0  0  0
    0.8070    0.9410    1.1400 C   0  0  1  0  0  0  0  0  0  0  0  0
    0.7280   -0.3060    1.6980 O   0  0  0  0  0  0  0  0  0  0  0  0
    1.8250    0.9310    0.0680 C   0  0  0  0  0  0  0  0  0  0  0  0
    1.6630    1.4870   -1.1600 C   0  0  0  0  0  0  0  0  0  0  0  0
    2.6820    1.4170   -2.0830 C   0  0  0  0  0  0  0  0  0  0  0  0
    2.4900    2.1250   -3.6600 Cl  0  0  0  0  0  0  0  0  0  0  0  0
    3.8690    0.7880   -1.7750 C   0  0  0  0  0  0  0  0  0  0  0  0
    4.0700    0.2070   -0.5280 C   0  0  0  0  0  0  0  0  0  0  0  0
    5.3280   -0.4420   -0.2470 C   0  0  0  0  0  0  0  0  0  0  0  0
    6.5060    0.1680   -0.5980 C   0  0  0  0  0  0  0  0  0  0  0  0
    7.7380   -0.4270   -0.3440 C   0  0  0  0  0  0  0  0  0  0  0  0
    7.7840   -1.6560    0.2730 C   0  0  0  0  0  0  0  0  0  0  0  0
    6.6210   -2.2780    0.6290 C   0  0  0  0  0  0  0  0  0  0  0  0
    5.3890   -1.6670    0.3680 C   0  0  0  0  0  0  0  0  0  0  0  0
    3.9550   -2.5380    0.8600 Cl  0  0  0  0  0  0  0  0  0  0  0  0
    3.0280    0.2950    0.3720 C   0  0  0  0  0  0  0  0  0  0  0  0
   -1.5330   -0.5620    0.0940 C   0  0  0  0  0  0  0  0  0  0  0  0
   -2.8230   -0.9590   -0.6210 C   0  0  1  0  0  0  0  0  0  0  0  0
   -3.0560   -2.4440   -0.3700 C   0  0  1  0  0  0  0  0  0  0  0  0
   -1.9800   -3.2830   -1.0590 C   0  0  0  0  0  0  0  0  0  0  0  0
   -2.9730   -2.7680    1.1020 C   0  0  0  0  0  0  0  0  0  0  0  0
   -4.2720   -2.8630   -0.8550 O   0  0  0  0  0  0  0  0  0  0  0  0
   -3.8520   -0.2850    0.0350 O   0  0  0  0  0  0  0  0  0  0  0  0
  1  2  1  0
  2  3  1  0
  4  3  1  6
  4  5  1  0
  4 30  1  0
  5  6  1  0
  6  7  1  0
  6 24  1  0
  7  8  1  0
  8  9  1  6
  8 10  1  0
 10 11  2  0
 10 23  1  0
 11 12  1  0
 12 13  1  0
 12 14  2  0
 14 15  1  0
 15 16  1  0
 15 23  2  0
 16 17  2  0
 16 21  1  0
 17 18  1  0
 18 19  2  0
 19 20  1  0
 20 21  2  0
 21 22  1  0
 25 24  1  1
 25 26  1  0
 25 30  1  0
 26 27  1  6
 26 28  1  0
 26 29  1  0
M  END
