
     RDKit          3D

 30 32  0  0  0  0  0  0  0  0999 V2000
    6.8080   -0.9710    1.9780 C   0  0  0  0  0  0  0  0  0  0  0  0
    5.3210   -0.6970    1.8730 C   0  0  0  0  0  0  0  0  0  0  0  0
    5.0280    0.1710    0.6940 C   0  0  2  0  0  0  0  0  0  0  0  0
    5.4800   -0.4740   -0.6020 C   0  0  0  0  0  0  0  0  0  0  0  0
    5.5020    1.6040    0.8120 C   0  0  1  0  0  0  0  0  0  0  0  0
    6.9590    1.9700   -0.1460 Cl  0  0  0  0  0  0  0  0  0  0  0  0
    4.2160    2.0080    0.1230 C   0  0  0  0  0  0  0  0  0  0  0  0
    3.6130    0.7070    0.6480 C   0  0  2  0  0  0  0  0  0  0  0  0
    3.1070    0.8680    1.9250 O   0  0  0  0  0  0  0  0  0  0  0  0
    2.7760   -0.0260   -0.3480 C   0  0  0  0  0  0  0  0  0  0  0  0
    1.5190    0.5090   -0.6770 N   0  0  0  0  0  0  0  0  0  0  0  0
    0.4790    0.7030    0.2320 C   0  0  0  0  0  0  0  0  0  0  0  0
    0.5940    0.4050    1.4290 O   0  0  0  0  0  0  0  0  0  0  0  0
   -0.8670    1.3060   -0.2480 C   0  0  1  0  0  0  0  0  0  0  0  0
   -0.3490    2.9110   -0.8870 Cl  0  0  0  0  0  0  0  0  0  0  0  0
   -1.4110    0.4390   -1.2800 C   0  0  0  0  0  0  0  0  0  0  0  0
   -2.5320   -0.1380   -1.5450 C   0  0  0  0  0  0  0  0  0  0  0  0
   -2.6580   -0.9600   -2.7080 O   0  0  0  0  0  0  0  0  0  0  0  0
   -3.5400   -2.0270   -2.9330 C   0  0  0  0  0  0  0  0  0  0  0  0
   -4.1030   -2.7470   -1.7960 C   0  0  0  0  0  0  0  0  0  0  0  0
   -4.2330   -4.2630   -1.9790 C   0  0  0  0  0  0  0  0  0  0  0  0
   -4.5290   -2.3250   -0.6200 C   0  0  0  0  0  0  0  0  0  0  0  0
   -4.5090   -0.9070   -0.1910 C   0  0  0  0  0  0  0  0  0  0  0  0
   -5.4820   -0.5550    0.6960 C   0  0  0  0  0  0  0  0  0  0  0  0
   -5.5690    0.7590    1.1120 C   0  0  0  0  0  0  0  0  0  0  0  0
   -4.6960    1.7580    0.6600 C   0  0  0  0  0  0  0  0  0  0  0  0
   -4.8140    3.0680    1.1000 O   0  0  0  0  0  0  0  0  0  0  0  0
   -5.8380    3.3770    2.0190 C   0  0  0  0  0  0  0  0  0  0  0  0
   -3.7190    1.3950   -0.2340 C   0  0  0  0  0  0  0  0  0  0  0  0
   -3.6470    0.0810   -0.6330 C   0  0  0  0  0  0  0  0  0  0  0  0
  1  2  1  0
  2  3  1  0
  3  4  1  6
  3  5  1  0
  3  8  1  0
  5  6  1  6
  5  7  1  0
  7  8  1  0
  8  9  1  1
  8 10  1  0
 10 11  1  0
 11 12  1  0
 12 13  2  0
 12 14  1  0
 14 15  1  6
 14 16  1  0
 16 17  2  3
 17 18  1  0
 17 30  1  0
 18 19  1  0
 19 20  1  0
 20 21  1  0
 20 22  2  0
 22 23  1  0
 23 24  2  0
 23 30  1  0
 24 25  1  0
 25 26  2  0
 26 27  1  0
 26 29  1  0
 27 28  1  0
 29 30  2  0
M  END
