
     RDKit          3D

 29 31  0  0  0  0  0  0  0  0999 V2000
   -5.9850   -0.4970   -1.6130 C   0  0  0  0  0  0  0  0  0  0  0  0
   -5.1480    0.1110   -0.5110 C   0  0  0  0  0  0  0  0  0  0  0  0
   -3.7220   -0.4810   -0.5240 C   0  0  2  0  0  0  0  0  0  0  0  0
   -3.8580   -1.9650   -0.3150 C   0  0  0  0  0  0  0  0  0  0  0  0
   -4.4990   -2.2940    0.9440 N   0  0  0  0  0  0  0  0  0  0  0  0
   -2.8580    0.2040    0.4190 C   0  0  0  0  0  0  0  0  0  0  0  0
   -3.3840    1.0180    1.4390 C   0  0  0  0  0  0  0  0  0  0  0  0
   -2.3380    1.5020    2.1960 C   0  0  0  0  0  0  0  0  0  0  0  0
   -2.3840    2.4050    3.3870 C   0  0  0  0  0  0  0  0  0  0  0  0
   -1.2630    1.0150    1.6690 O   0  0  0  0  0  0  0  0  0  0  0  0
   -1.5120    0.2460    0.6210 C   0  0  0  0  0  0  0  0  0  0  0  0
   -0.5190   -0.4220   -0.1630 C   0  0  0  0  0  0  0  0  0  0  0  0
   -0.8130   -1.0360   -1.1980 O   0  0  0  0  0  0  0  0  0  0  0  0
    0.8410   -0.4000    0.2250 N   0  0  0  0  0  0  0  0  0  0  0  0
    1.8880   -1.0610   -0.5390 C   0  0  2  0  0  0  0  0  0  0  0  0
    2.2950   -2.2890    0.2980 C   0  0  0  0  0  0  0  0  0  0  0  0
    3.0660   -0.1950   -0.7750 C   0  0  0  0  0  0  0  0  0  0  0  0
    4.3240   -0.6450   -0.6380 N   0  0  0  0  0  0  0  0  0  0  0  0
    5.4050    0.1230   -0.8420 C   0  0  0  0  0  0  0  0  0  0  0  0
    6.7000   -0.3450   -0.7000 C   0  0  0  0  0  0  0  0  0  0  0  0
    6.9000   -1.5270   -0.3670 O   0  0  0  0  0  0  0  0  0  0  0  0
    7.7240    0.5050   -0.9290 N   0  0  0  0  0  0  0  0  0  0  0  0
    7.5490    1.7870   -1.2890 C   0  0  0  0  0  0  0  0  0  0  0  0
    8.5240    2.5720   -1.5000 O   0  0  0  0  0  0  0  0  0  0  0  0
    6.3080    2.2580   -1.4320 N   0  0  0  0  0  0  0  0  0  0  0  0
    5.2500    1.4400   -1.2130 C   0  0  0  0  0  0  0  0  0  0  0  0
    3.9640    1.9100   -1.3560 C   0  0  0  0  0  0  0  0  0  0  0  0
    3.8180    3.1120   -1.6940 O   0  0  0  0  0  0  0  0  0  0  0  0
    2.9120    1.0860   -1.1360 N   0  0  0  0  0  0  0  0  0  0  0  0
  1  2  1  0
  3  2  1  1
  3  4  1  0
  3  6  1  0
  4  5  1  0
  6  7  1  0
  6 11  2  0
  7  8  2  0
  8  9  1  0
  8 10  1  0
 10 11  1  0
 11 12  1  0
 12 13  2  0
 12 14  1  0
 14 15  1  0
 15 16  1  1
 15 17  1  0
 17 18  2  0
 17 29  1  0
 18 19  1  0
 19 20  1  0
 19 26  2  0
 20 21  2  0
 20 22  1  0
 22 23  1  0
 23 24  2  0
 23 25  1  0
 25 26  1  0
 26 27  1  0
 27 28  2  0
 27 29  1  0
M  CHG  1   5   1
M  END
