
     RDKit          3D

 29 30  0  0  0  0  0  0  0  0999 V2000
    2.6820    4.2850    0.7930 C   0  0  0  0  0  0  0  0  0  0  0  0
    2.3390    2.9730    1.1570 O   0  0  0  0  0  0  0  0  0  0  0  0
    1.7140    2.0840    0.2840 C   0  0  0  0  0  0  0  0  0  0  0  0
    0.4120    2.0440    0.2030 C   0  0  0  0  0  0  0  0  0  0  0  0
   -0.3910    1.1700   -0.6630 C   0  0  0  0  0  0  0  0  0  0  0  0
   -0.8960   -0.0870    0.0620 C   0  0  1  0  0  0  0  0  0  0  0  0
   -0.5560    0.1110    1.5130 C   0  0  0  0  0  0  0  0  0  0  0  0
   -2.2600   -0.1630   -0.1640 O   0  0  0  0  0  0  0  0  0  0  0  0
   -3.0310    0.8350    0.3420 C   0  0  0  0  0  0  0  0  0  0  0  0
   -4.5020    0.7340   -0.0020 C   0  0  1  0  0  0  0  0  0  0  0  0
   -5.2290    2.0060    0.4890 C   0  0  0  0  0  0  0  0  0  0  0  0
   -4.6290    0.7570   -1.3870 O   0  0  0  0  0  0  0  0  0  0  0  0
   -5.2200   -0.4040    0.6340 C   0  0  0  0  0  0  0  0  0  0  0  0
   -4.7600   -1.6150    0.1520 O   0  0  0  0  0  0  0  0  0  0  0  0
   -0.2080   -1.2700   -0.5500 C   0  0  2  0  0  0  0  0  0  0  0  0
   -1.1850   -2.3810   -0.9240 C   0  0  0  0  0  0  0  0  0  0  0  0
   -1.9030   -2.9060    0.2080 N   0  0  0  0  0  0  0  0  0  0  0  0
    0.8550   -1.8040    0.3030 N   0  0  0  0  0  0  0  0  0  0  0  0
    1.9310   -2.6190   -0.1550 C   0  0  0  0  0  0  0  0  0  0  0  0
    1.9840   -3.7760    0.4420 O   0  0  0  0  0  0  0  0  0  0  0  0
    2.9430   -2.3750   -1.1460 C   0  0  0  0  0  0  0  0  0  0  0  0
    3.0760   -3.0870   -2.3250 N   0  0  0  0  0  0  0  0  0  0  0  0
    4.0960   -2.6030   -2.9780 N   0  0  0  0  0  0  0  0  0  0  0  0
    4.6590   -1.6190   -2.3230 N   0  0  0  0  0  0  0  0  0  0  0  0
    3.9530   -1.4440   -1.1470 C   0  0  0  0  0  0  0  0  0  0  0  0
    4.3160   -0.4930   -0.1780 N   0  0  0  0  0  0  0  0  0  0  0  0
    5.7370   -0.3550    0.2440 C   0  0  0  0  0  0  0  0  0  0  0  0
    3.4200    0.4130    0.4930 C   0  0  0  0  0  0  0  0  0  0  0  0
    2.5880    1.2140   -0.5210 C   0  0  0  0  0  0  0  0  0  0  0  0
  1  2  1  0
  2  3  1  0
  3  4  2  0
  3 29  1  0
  4  5  1  0
  5  6  1  0
  6  7  1  1
  6  8  1  0
  6 15  1  0
  8  9  1  0
  9 10  1  0
 10 11  1  1
 10 12  1  0
 10 13  1  0
 13 14  1  0
 15 16  1  1
 15 18  1  0
 16 17  1  0
 18 19  1  0
 19 20  2  0
 19 21  1  0
 21 22  1  0
 21 25  2  0
 22 23  1  0
 23 24  2  0
 24 25  1  0
 25 26  1  0
 26 27  1  0
 26 28  1  0
 28 29  1  0
M  CHG  1  17   1
M  END
