
     RDKit          3D

 29 30  0  0  0  0  0  0  0  0999 V2000
   -1.7270    2.2630   -2.6910 C   0  0  0  0  0  0  0  0  0  0  0  0
   -0.7930    1.8340   -1.5720 C   0  0  0  0  0  0  0  0  0  0  0  0
    0.4590    1.5480   -1.8930 C   0  0  0  0  0  0  0  0  0  0  0  0
    1.5890    1.1250   -1.1110 C   0  0  0  0  0  0  0  0  0  0  0  0
    1.9930    0.0180   -0.5220 C   0  0  0  0  0  0  0  0  0  0  0  0
    3.3120    0.1540    0.1880 C   0  0  0  0  0  0  0  0  0  0  0  0
    3.8220   -0.8790    0.8140 C   0  0  0  0  0  0  0  0  0  0  0  0
    5.1210   -0.8210    1.5360 C   0  0  2  0  0  0  0  0  0  0  0  0
    5.7270   -2.2030    1.6650 C   0  0  0  0  0  0  0  0  0  0  0  0
    4.9370   -0.3190    2.9010 N   0  0  0  0  0  0  0  0  0  0  0  0
    1.4330   -1.2780   -0.4700 N   0  0  0  0  0  0  0  0  0  0  0  0
    0.1520   -1.7990   -0.1890 C   0  0  0  0  0  0  0  0  0  0  0  0
    0.0350   -2.7570    0.7210 O   0  0  0  0  0  0  0  0  0  0  0  0
   -1.1210   -1.4980   -0.7070 N   0  0  0  0  0  0  0  0  0  0  0  0
   -1.6060   -1.4740   -2.0590 C   0  0  0  0  0  0  0  0  0  0  0  0
   -3.1260   -1.2340   -2.0620 C   0  0  1  0  0  0  0  0  0  0  0  0
   -3.7950   -2.0630   -1.0540 C   0  0  0  0  0  0  0  0  0  0  0  0
   -3.5690   -3.4580   -0.9780 N   0  0  0  0  0  0  0  0  0  0  0  0
   -4.5900   -1.5460   -0.2320 O   0  0  0  0  0  0  0  0  0  0  0  0
   -3.4480    0.1010   -2.0090 O   0  0  0  0  0  0  0  0  0  0  0  0
   -3.6580    0.9760   -0.9990 C   0  0  0  0  0  0  0  0  0  0  0  0
   -4.8060    1.5620   -0.8400 O   0  0  0  0  0  0  0  0  0  0  0  0
   -2.6730    1.3290   -0.0410 N   0  0  0  0  0  0  0  0  0  0  0  0
   -3.0770    1.1900    1.3300 N   0  0  0  0  0  0  0  0  0  0  0  0
   -2.4530    1.8730    2.2100 C   0  0  0  0  0  0  0  0  0  0  0  0
   -2.8080    1.7890    3.6690 C   0  0  0  0  0  0  0  0  0  0  0  0
   -1.3690    2.7760    1.8570 C   0  0  0  0  0  0  0  0  0  0  0  0
   -1.1930    2.9680    0.5010 O   0  0  0  0  0  0  0  0  0  0  0  0
   -1.3560    1.7900   -0.2260 C   0  0  2  0  0  0  0  0  0  0  0  0
  1  2  1  0
  2  3  2  0
  2 29  1  0
  3  4  1  0
  4  5  2  0
  5  6  1  0
  5 11  1  0
  6  7  2  3
  7  8  1  0
  8  9  1  1
  8 10  1  0
 11 12  1  0
 12 13  2  0
 12 14  1  0
 14 15  1  0
 15 16  1  0
 16 17  1  1
 16 20  1  0
 17 18  1  0
 17 19  2  0
 20 21  1  0
 21 22  2  0
 21 23  1  0
 23 24  1  0
 23 29  1  0
 24 25  2  0
 25 26  1  0
 25 27  1  0
 27 28  1  0
 29 28  1  6
M  CHG  1  10   1
M  END
