
     RDKit          3D

 29 31  0  0  0  0  0  0  0  0999 V2000
    8.2170    0.8840    1.1040 C   0  0  0  0  0  0  0  0  0  0  0  0
    7.1820    0.1660    0.7030 C   0  0  0  0  0  0  0  0  0  0  0  0
    5.8850    0.7920    0.4600 C   0  0  0  0  0  0  0  0  0  0  0  0
    5.4280    0.6260   -0.9150 N   0  0  0  0  0  0  0  0  0  0  0  0
    4.1980    1.1530   -1.3630 C   0  0  0  0  0  0  0  0  0  0  0  0
    3.5050    1.7760   -0.5230 O   0  0  0  0  0  0  0  0  0  0  0  0
    3.7130    0.9940   -2.7650 C   0  0  0  0  0  0  0  0  0  0  0  0
    2.3740    1.6100   -2.9810 C   0  0  0  0  0  0  0  0  0  0  0  0
    1.3960    0.9250   -2.0620 C   0  0  0  0  0  0  0  0  0  0  0  0
    1.7500   -0.0030   -1.2960 O   0  0  0  0  0  0  0  0  0  0  0  0
    0.0620    1.2970   -2.0290 O   0  0  0  0  0  0  0  0  0  0  0  0
   -0.7900    0.6140   -1.1480 C   0  0  0  0  0  0  0  0  0  0  0  0
   -1.0140    0.9720    0.0650 C   0  0  0  0  0  0  0  0  0  0  0  0
   -1.9330    0.2560    0.9690 C   0  0  1  0  0  0  0  0  0  0  0  0
   -3.1120    1.2060    1.2130 C   0  0  0  0  0  0  0  0  0  0  0  0
   -3.1050    2.2640    0.6420 O   0  0  0  0  0  0  0  0  0  0  0  0
   -4.1740    0.7720    2.1230 C   0  0  1  0  0  0  0  0  0  0  0  0
   -5.2120    1.7240    2.0350 O   0  0  0  0  0  0  0  0  0  0  0  0
   -4.6660   -0.5670    1.6740 C   0  0  0  0  0  0  0  0  0  0  0  0
   -5.8110   -1.1590    1.8770 C   0  0  0  0  0  0  0  0  0  0  0  0
   -6.9190   -0.6880    2.5900 O   0  0  0  0  0  0  0  0  0  0  0  0
   -5.7940   -2.4820    1.2190 C   0  0  0  0  0  0  0  0  0  0  0  0
   -4.4540   -2.5540    0.6140 C   0  0  0  0  0  0  0  0  0  0  0  0
   -3.8810   -3.9620   -0.2690 Cl  0  0  0  0  0  0  0  0  0  0  0  0
   -3.8110   -1.4320    0.8840 C   0  0  0  0  0  0  0  0  0  0  0  0
   -2.4310   -1.0290    0.5100 C   0  0  1  0  0  0  0  0  0  0  0  0
   -2.1960   -1.3520   -0.9050 C   0  0  0  0  0  0  0  0  0  0  0  0
   -1.4240   -0.5870   -1.6520 C   0  0  0  0  0  0  0  0  0  0  0  0
   -1.1640   -1.0610   -3.3320 Cl  0  0  0  0  0  0  0  0  0  0  0  0
  1  2  2  0
  2  3  1  0
  3  4  1  0
  4  5  1  0
  5  6  2  0
  5  7  1  0
  7  8  1  0
  8  9  1  0
  9 10  2  0
  9 11  1  0
 11 12  1  0
 12 13  2  0
 12 28  1  0
 14 13  1  6
 14 15  1  0
 14 26  1  0
 15 16  2  0
 15 17  1  0
 17 18  1  6
 17 19  1  0
 19 20  2  0
 19 25  1  0
 20 21  1  0
 20 22  1  0
 22 23  1  0
 23 24  1  0
 23 25  2  0
 25 26  1  0
 26 27  1  6
 27 28  2  0
 28 29  1  0
M  END
