
     RDKit          3D

 31 33  0  0  0  0  0  0  0  0999 V2000
    4.4960   -1.6260    4.0090 C   0  0  0  0  0  0  0  0  0  0  0  0
    4.7530   -0.4530    3.5680 C   0  0  0  0  0  0  0  0  0  0  0  0
    4.4080    0.2220    2.3600 C   0  0  0  0  0  0  0  0  0  0  0  0
    4.8810    1.4860    2.2670 C   0  0  0  0  0  0  0  0  0  0  0  0
    4.6770    2.3890    1.1490 C   0  0  0  0  0  0  0  0  0  0  0  0
    3.6400   -0.3120    1.2980 C   0  0  0  0  0  0  0  0  0  0  0  0
    3.0130   -1.4450    0.9620 C   0  0  0  0  0  0  0  0  0  0  0  0
    2.3450   -1.6280   -0.1690 C   0  0  0  0  0  0  0  0  0  0  0  0
    2.2700   -0.5910   -1.0920 C   0  0  0  0  0  0  0  0  0  0  0  0
    1.6420   -0.4190   -2.3740 C   0  0  0  0  0  0  0  0  0  0  0  0
    2.3660   -0.0540   -3.3850 O   0  0  0  0  0  0  0  0  0  0  0  0
    0.2620   -0.6090   -2.6730 N   0  0  0  0  0  0  0  0  0  0  0  0
   -0.2530   -0.5100   -3.8980 C   0  0  0  0  0  0  0  0  0  0  0  0
    0.6660   -0.2240   -5.0470 C   0  0  0  0  0  0  0  0  0  0  0  0
   -1.6020   -0.6580   -4.2070 C   0  0  0  0  0  0  0  0  0  0  0  0
   -2.4820   -0.9260   -3.1910 C   0  0  0  0  0  0  0  0  0  0  0  0
   -3.9480   -1.1000   -3.4350 C   0  0  0  0  0  0  0  0  0  0  0  0
   -1.9570   -1.0290   -1.9280 C   0  0  0  0  0  0  0  0  0  0  0  0
   -2.8940   -1.3060   -0.9090 O   0  0  0  0  0  0  0  0  0  0  0  0
   -3.4450   -0.2610   -0.2220 C   0  0  0  0  0  0  0  0  0  0  0  0
   -3.0810    0.9090   -0.5430 O   0  0  0  0  0  0  0  0  0  0  0  0
   -4.3990   -0.4120    0.8260 N   0  0  0  0  0  0  0  0  0  0  0  0
   -4.9340    0.7280    1.5090 C   0  0  0  0  0  0  0  0  0  0  0  0
   -3.8560    1.2050    2.4390 C   0  0  0  0  0  0  0  0  0  0  0  0
   -2.6230    0.6170    2.6820 C   0  0  0  0  0  0  0  0  0  0  0  0
   -1.9930    1.4180    3.5990 C   0  0  0  0  0  0  0  0  0  0  0  0
   -2.7820    2.4210    3.8940 O   0  0  0  0  0  0  0  0  0  0  0  0
   -3.8980    2.3320    3.2270 C   0  0  0  0  0  0  0  0  0  0  0  0
   -0.6310   -0.8760   -1.6740 C   0  0  0  0  0  0  0  0  0  0  0  0
   -0.2550   -0.9850   -0.4860 O   0  0  0  0  0  0  0  0  0  0  0  0
    3.2380    0.6810   -0.2150 S   0  0  0  0  0  0  0  0  0  0  0  0
  1  2  2  0
  2  3  1  0
  3  4  2  3
  3  6  1  0
  4  5  1  0
  6  7  2  0
  6 31  1  0
  7  8  1  0
  8  9  2  0
  9 10  1  0
  9 31  1  0
 10 11  2  0
 10 12  1  0
 12 13  1  0
 12 29  1  0
 13 14  1  0
 13 15  2  0
 15 16  1  0
 16 17  1  0
 16 18  2  0
 18 19  1  0
 18 29  1  0
 19 20  1  0
 20 21  2  0
 20 22  1  0
 22 23  1  0
 23 24  1  0
 24 25  1  0
 24 28  2  0
 25 26  2  0
 26 27  1  0
 27 28  1  0
 29 30  2  0
M  END
