
     RDKit          3D

 30 32  0  0  0  0  0  0  0  0999 V2000
   -3.7620   -0.8390    3.8500 C   0  0  0  0  0  0  0  0  0  0  0  0
   -3.7130   -0.3040    2.4640 C   0  0  0  0  0  0  0  0  0  0  0  0
   -3.5670   -1.0730    1.3020 C   0  0  0  0  0  0  0  0  0  0  0  0
   -3.5660   -0.2240    0.2160 C   0  0  0  0  0  0  0  0  0  0  0  0
   -3.4450   -0.5230   -1.1680 N   0  0  0  0  0  0  0  0  0  0  0  0
   -4.5690   -0.1230   -1.9960 C   0  0  0  0  0  0  0  0  0  0  0  0
   -2.3080   -1.1660   -1.7100 C   0  0  0  0  0  0  0  0  0  0  0  0
   -2.2920   -1.3560   -2.9650 O   0  0  0  0  0  0  0  0  0  0  0  0
   -1.1570   -1.6320   -0.9810 C   0  0  0  0  0  0  0  0  0  0  0  0
   -1.0920   -2.9120   -0.4770 C   0  0  0  0  0  0  0  0  0  0  0  0
   -2.2450   -3.8200   -0.7100 C   0  0  0  0  0  0  0  0  0  0  0  0
   -0.0190   -3.3170    0.1990 O   0  0  0  0  0  0  0  0  0  0  0  0
    1.0110   -2.5390    0.4170 C   0  0  0  0  0  0  0  0  0  0  0  0
    2.0290   -2.9040    1.0520 O   0  0  0  0  0  0  0  0  0  0  0  0
    0.9920   -1.2480   -0.0690 C   0  0  0  0  0  0  0  0  0  0  0  0
    2.1140   -0.3740    0.1580 N   0  0  0  0  0  0  0  0  0  0  0  0
    3.1440   -0.3370   -0.7640 C   0  0  0  0  0  0  0  0  0  0  0  0
    3.0230   -1.1050   -1.7850 O   0  0  0  0  0  0  0  0  0  0  0  0
    4.3230    0.4820   -0.6690 C   0  0  0  0  0  0  0  0  0  0  0  0
    5.5990    0.4700   -1.9260 S   0  0  0  0  0  0  0  0  0  0  0  0
    6.6640    1.6430   -1.1830 C   0  0  0  0  0  0  0  0  0  0  0  0
    5.9970    1.9790   -0.0280 C   0  0  0  0  0  0  0  0  0  0  0  0
    6.6690    3.0200    0.8800 C   0  0  0  0  0  0  0  0  0  0  0  0
    4.8200    1.3880    0.2210 C   0  0  0  0  0  0  0  0  0  0  0  0
    4.0400    1.7160    1.4960 C   0  0  0  0  0  0  0  0  0  0  0  0
   -0.0980   -0.7760   -0.7780 C   0  0  0  0  0  0  0  0  0  0  0  0
   -0.1830    0.5990   -1.3270 C   0  0  0  0  0  0  0  0  0  0  0  0
   -3.7150    1.0450    0.7910 C   0  0  0  0  0  0  0  0  0  0  0  0
   -3.7760    2.3260    0.0590 C   0  0  0  0  0  0  0  0  0  0  0  0
   -3.7950    0.9330    2.0930 O   0  0  0  0  0  0  0  0  0  0  0  0
  1  2  1  0
  2  3  2  0
  2 30  1  0
  3  4  1  0
  4  5  1  0
  4 28  2  0
  5  6  1  0
  5  7  1  0
  7  8  2  0
  7  9  1  0
  9 10  2  0
  9 26  1  0
 10 11  1  0
 10 12  1  0
 12 13  1  0
 13 14  2  0
 13 15  1  0
 15 16  1  0
 15 26  2  0
 16 17  1  0
 17 18  2  0
 17 19  1  0
 19 20  1  0
 19 24  2  0
 20 21  1  0
 21 22  2  0
 22 23  1  0
 22 24  1  0
 24 25  1  0
 26 27  1  0
 28 29  1  0
 28 30  1  0
M  END
