
     RDKit          3D

 29 30  0  0  0  0  0  0  0  0999 V2000
   -4.6300    2.1380    1.9290 C   0  0  0  0  0  0  0  0  0  0  0  0
   -3.3530    2.9140    1.8120 C   0  0  0  0  0  0  0  0  0  0  0  0
   -2.1840    2.1850    1.9470 O   0  0  0  0  0  0  0  0  0  0  0  0
   -1.8310    1.1670    1.0970 C   0  0  0  0  0  0  0  0  0  0  0  0
   -0.6440    0.4520    1.2810 C   0  0  0  0  0  0  0  0  0  0  0  0
   -0.2480   -0.5720    0.4560 C   0  0  0  0  0  0  0  0  0  0  0  0
    0.9460   -1.2080    0.7360 O   0  0  0  0  0  0  0  0  0  0  0  0
    1.4750   -2.2680   -0.0210 C   0  0  0  0  0  0  0  0  0  0  0  0
    2.7740   -2.7310    0.5480 C   0  0  0  0  0  0  0  0  0  0  0  0
    3.7770   -1.8070    0.6100 O   0  0  0  0  0  0  0  0  0  0  0  0
    4.1890   -1.2520   -0.5680 C   0  0  2  0  0  0  0  0  0  0  0  0
    5.5200   -1.5040   -0.8730 O   0  0  0  0  0  0  0  0  0  0  0  0
    6.4080   -0.9660    0.0250 C   0  0  0  0  0  0  0  0  0  0  0  0
    6.0980    0.3920    0.4740 C   0  0  0  0  0  0  0  0  0  0  0  0
    7.0140    1.3170    0.6980 C   0  0  0  0  0  0  0  0  0  0  0  0
    8.3720    1.0770    0.5240 O   0  0  0  0  0  0  0  0  0  0  0  0
    4.6780    0.7640    0.6960 C   0  0  0  0  0  0  0  0  0  0  0  0
    3.9100    0.2390   -0.5100 C   0  0  1  0  0  0  0  0  0  0  0  0
    4.4550    0.8290   -1.6530 O   0  0  0  0  0  0  0  0  0  0  0  0
   -1.0550   -0.9020   -0.5880 C   0  0  0  0  0  0  0  0  0  0  0  0
   -2.2610   -0.2390   -0.8450 C   0  0  0  0  0  0  0  0  0  0  0  0
   -3.0920   -0.5910   -1.9740 C   0  0  0  0  0  0  0  0  0  0  0  0
   -2.2660   -0.7850   -3.5300 Cl  0  0  0  0  0  0  0  0  0  0  0  0
   -4.3930   -0.7790   -1.9540 C   0  0  0  0  0  0  0  0  0  0  0  0
   -5.2370   -1.2040   -3.4560 Cl  0  0  0  0  0  0  0  0  0  0  0  0
   -5.2570   -0.6980   -0.7550 C   0  0  0  0  0  0  0  0  0  0  0  0
   -6.3040    0.3640   -0.8550 C   0  0  0  0  0  0  0  0  0  0  0  0
   -7.1490    0.4500    0.2950 N   0  0  0  0  0  0  0  0  0  0  0  0
   -2.6050    0.7820    0.0180 C   0  0  0  0  0  0  0  0  0  0  0  0
  1  2  1  0
  2  3  1  0
  3  4  1  0
  4  5  2  0
  4 29  1  0
  5  6  1  0
  6  7  1  0
  6 20  2  0
  7  8  1  0
  8  9  1  0
  9 10  1  0
 11 10  1  1
 11 12  1  0
 11 18  1  0
 12 13  1  0
 13 14  1  0
 14 15  2  3
 14 17  1  0
 15 16  1  0
 17 18  1  0
 18 19  1  6
 20 21  1  0
 21 22  1  0
 21 29  2  0
 22 23  1  0
 22 24  2  3
 24 25  1  0
 24 26  1  0
 26 27  1  0
 27 28  1  0
M  END
