
     RDKit          3D

 31 33  0  0  0  0  0  0  0  0999 V2000
    0.6430    3.2550    4.0900 C   0  0  0  0  0  0  0  0  0  0  0  0
   -0.2740    3.7720    3.1440 O   0  0  0  0  0  0  0  0  0  0  0  0
   -0.4140    3.2280    1.8830 C   0  0  0  0  0  0  0  0  0  0  0  0
    0.3430    2.1360    1.4730 C   0  0  0  0  0  0  0  0  0  0  0  0
    0.2470    1.5550    0.2330 C   0  0  0  0  0  0  0  0  0  0  0  0
    0.9430    0.4710   -0.2810 N   0  0  0  0  0  0  0  0  0  0  0  0
    1.9660   -0.2450    0.4620 C   0  0  0  0  0  0  0  0  0  0  0  0
    2.1420    0.2190    1.5860 O   0  0  0  0  0  0  0  0  0  0  0  0
    2.6320   -1.3570   -0.1530 C   0  0  0  0  0  0  0  0  0  0  0  0
    3.5320   -2.2060    0.1210 C   0  0  0  0  0  0  0  0  0  0  0  0
    3.8930   -3.2300   -0.9220 C   0  0  0  0  0  0  0  0  0  0  0  0
    3.2780   -3.1820   -2.0090 O   0  0  0  0  0  0  0  0  0  0  0  0
    4.8480   -4.1500   -0.6610 O   0  0  0  0  0  0  0  0  0  0  0  0
    5.5620   -4.2660    0.5070 C   0  0  0  0  0  0  0  0  0  0  0  0
    5.2180   -3.2820    1.5100 C   0  0  0  0  0  0  0  0  0  0  0  0
    4.2890   -2.3380    1.3350 C   0  0  0  0  0  0  0  0  0  0  0  0
    4.0950   -1.4210    2.4940 C   0  0  0  0  0  0  0  0  0  0  0  0
   -0.6960    2.1470   -0.6320 C   0  0  0  0  0  0  0  0  0  0  0  0
   -0.8690    1.4430   -2.2590 S   0  0  0  0  0  0  0  0  0  0  0  0
   -2.0830    0.1680   -2.3460 C   0  0  0  0  0  0  0  0  0  0  0  0
   -3.4140    0.4030   -2.6410 C   0  0  0  0  0  0  0  0  0  0  0  0
   -4.3200   -0.6180   -2.6980 C   0  0  0  0  0  0  0  0  0  0  0  0
   -5.7600   -0.4410   -3.0080 C   0  0  0  0  0  0  0  0  0  0  0  0
   -3.8760   -1.8980   -2.4520 C   0  0  0  0  0  0  0  0  0  0  0  0
   -2.5470   -2.1430   -2.1550 C   0  0  0  0  0  0  0  0  0  0  0  0
   -2.0450   -3.5130   -1.8870 C   0  0  0  0  0  0  0  0  0  0  0  0
   -1.6930   -1.0980   -2.1120 N   0  0  0  0  0  0  0  0  0  0  0  0
   -1.4680    3.2290   -0.2690 C   0  0  0  0  0  0  0  0  0  0  0  0
   -1.3190    3.7670    0.9990 C   0  0  0  0  0  0  0  0  0  0  0  0
   -2.0780    4.8520    1.3940 O   0  0  0  0  0  0  0  0  0  0  0  0
   -3.0240    5.4390    0.5130 C   0  0  0  0  0  0  0  0  0  0  0  0
  1  2  1  0
  2  3  1  0
  3  4  2  0
  3 29  1  0
  4  5  1  0
  5  6  1  0
  5 18  2  0
  6  7  1  0
  7  8  2  0
  7  9  1  0
  9 10  2  3
 10 11  1  0
 10 16  1  0
 11 12  2  0
 11 13  1  0
 13 14  1  0
 14 15  1  0
 15 16  2  0
 16 17  1  0
 18 19  1  0
 18 28  1  0
 19 20  1  0
 20 21  2  0
 20 27  1  0
 21 22  1  0
 22 23  1  0
 22 24  2  0
 24 25  1  0
 25 26  1  0
 25 27  2  0
 28 29  2  0
 29 30  1  0
 30 31  1  0
M  END
