
     RDKit          3D

 31 33  0  0  0  0  0  0  0  0999 V2000
   -1.5610   -1.5700    1.8520 C   0  0  0  0  0  0  0  0  0  0  0  0
   -2.3660   -1.1710    0.9650 C   0  0  0  0  0  0  0  0  0  0  0  0
   -2.2730   -0.4500   -0.2410 C   0  0  0  0  0  0  0  0  0  0  0  0
   -3.5320   -0.3250   -0.7960 C   0  0  0  0  0  0  0  0  0  0  0  0
   -4.0560    0.2900   -1.9890 C   0  0  0  0  0  0  0  0  0  0  0  0
   -3.5960    0.6340   -3.1860 C   0  0  0  0  0  0  0  0  0  0  0  0
   -2.2640    0.5110   -3.8100 C   0  0  0  0  0  0  0  0  0  0  0  0
   -1.0670    0.4170   -3.2460 C   0  0  0  0  0  0  0  0  0  0  0  0
   -0.5130    0.3910   -1.8740 C   0  0  0  0  0  0  0  0  0  0  0  0
    0.8420    0.9280   -1.8700 C   0  0  0  0  0  0  0  0  0  0  0  0
   -1.0140    0.0370   -0.6830 C   0  0  0  0  0  0  0  0  0  0  0  0
    0.0520    0.1490    0.2910 C   0  0  0  0  0  0  0  0  0  0  0  0
    0.0470    1.1230    1.2040 C   0  0  0  0  0  0  0  0  0  0  0  0
   -0.8150    2.2490    1.5610 C   0  0  0  0  0  0  0  0  0  0  0  0
   -0.5150    2.9310    2.6190 O   0  0  0  0  0  0  0  0  0  0  0  0
   -1.9490    2.6620    0.8450 N   0  0  0  0  0  0  0  0  0  0  0  0
   -2.7890    3.7990    1.2530 C   0  0  0  0  0  0  0  0  0  0  0  0
   -1.9880    5.0740    1.2580 C   0  0  0  0  0  0  0  0  0  0  0  0
    1.5870    0.8310    2.1760 S   0  0  0  0  0  0  0  0  0  0  0  0
    2.0560   -0.5660    1.2340 C   0  0  0  0  0  0  0  0  0  0  0  0
    3.2640   -1.3230    1.4970 N   0  0  0  0  0  0  0  0  0  0  0  0
    4.5630   -1.1480    0.8970 C   0  0  0  0  0  0  0  0  0  0  0  0
    5.2140   -2.4980    1.0180 C   0  0  0  0  0  0  0  0  0  0  0  0
    4.5810   -3.0590    2.1320 O   0  0  0  0  0  0  0  0  0  0  0  0
    3.3930   -2.4000    2.4150 C   0  0  0  0  0  0  0  0  0  0  0  0
    2.5540   -2.6720    3.3110 O   0  0  0  0  0  0  0  0  0  0  0  0
    1.1150   -0.7360    0.3150 C   0  0  0  0  0  0  0  0  0  0  0  0
    1.1900   -1.9010   -0.6010 C   0  0  0  0  0  0  0  0  0  0  0  0
    0.2980   -2.1600   -1.4290 O   0  0  0  0  0  0  0  0  0  0  0  0
    2.2750   -2.7720   -0.5800 O   0  0  0  0  0  0  0  0  0  0  0  0
    2.3570   -3.8910   -1.4520 C   0  0  0  0  0  0  0  0  0  0  0  0
  1  2  2  0
  2  3  1  0
  3  4  2  0
  3 11  1  0
  4  5  1  0
  5  6  2  0
  6  7  1  0
  7  8  2  0
  8  9  1  0
  9 10  1  0
  9 11  2  0
 11 12  1  0
 12 13  2  0
 12 27  1  0
 13 14  1  0
 13 19  1  0
 14 15  2  0
 14 16  1  0
 16 17  1  0
 17 18  1  0
 19 20  1  0
 20 21  1  0
 20 27  2  0
 21 22  1  0
 21 25  1  0
 22 23  1  0
 23 24  1  0
 24 25  1  0
 25 26  2  0
 27 28  1  0
 28 29  2  0
 28 30  1  0
 30 31  1  0
M  END
