
     RDKit          3D

 23 24  0  0  0  0  0  0  0  0999 V2000
   -6.3230    1.1600   -1.5720 C   0  0  0  0  0  0  0  0  0  0  0  0
   -4.8600    1.0550   -1.4970 C   0  0  0  0  0  0  0  0  0  0  0  0
   -4.1700    1.8000   -2.2780 O   0  0  0  0  0  0  0  0  0  0  0  0
   -4.1830    0.1930   -0.6250 C   0  0  0  0  0  0  0  0  0  0  0  0
   -2.3220    0.0880   -0.5540 S   0  0  0  0  0  0  0  0  0  0  0  0
   -2.3780   -1.2070    0.7740 C   0  0  0  0  0  0  0  0  0  0  0  0
   -1.0990   -1.7350    1.2900 N   0  0  0  0  0  0  0  0  0  0  0  0
    0.1430   -1.2730    0.7920 C   0  0  0  0  0  0  0  0  0  0  0  0
    0.1100   -0.3960   -0.1060 O   0  0  0  0  0  0  0  0  0  0  0  0
    1.4370   -1.7870    1.2950 C   0  0  0  0  0  0  0  0  0  0  0  0
    2.5550   -1.2500    0.7730 O   0  0  0  0  0  0  0  0  0  0  0  0
    2.8100    0.0750    0.9290 C   0  0  0  0  0  0  0  0  0  0  0  0
    4.0960    0.4130    0.2790 C   0  0  0  0  0  0  0  0  0  0  0  0
    4.8140   -0.5700   -0.3500 C   0  0  0  0  0  0  0  0  0  0  0  0
    6.0310   -0.2650   -0.9680 C   0  0  0  0  0  0  0  0  0  0  0  0
    6.9300   -1.5220   -1.7610 Cl  0  0  0  0  0  0  0  0  0  0  0  0
    6.4990    1.0370   -0.9370 C   0  0  0  0  0  0  0  0  0  0  0  0
    5.7850    2.0320   -0.3090 C   0  0  0  0  0  0  0  0  0  0  0  0
    4.5740    1.6980    0.3000 C   0  0  0  0  0  0  0  0  0  0  0  0
    3.8820    2.7260    0.9250 O   0  0  0  0  0  0  0  0  0  0  0  0
   -3.5130   -1.3300    0.9220 N   0  0  0  0  0  0  0  0  0  0  0  0
   -4.5330   -0.7460    0.3430 C   0  0  0  0  0  0  0  0  0  0  0  0
   -6.0030   -1.0040    0.6360 C   0  0  0  0  0  0  0  0  0  0  0  0
  1  2  1  0
  2  3  2  0
  2  4  1  0
  4  5  1  0
  4 22  2  0
  5  6  1  0
  6  7  1  0
  6 21  2  0
  7  8  1  0
  8  9  2  0
  8 10  1  0
 10 11  1  0
 11 12  1  0
 12 13  1  0
 13 14  2  0
 13 19  1  0
 14 15  1  0
 15 16  1  0
 15 17  2  0
 17 18  1  0
 18 19  2  0
 19 20  1  0
 21 22  1  0
 22 23  1  0
M  END
