
     RDKit          3D

 23 24  0  0  0  0  0  0  0  0999 V2000
   -3.0430    2.1520    0.9610 C   0  0  0  0  0  0  0  0  0  0  0  0
   -1.8450    1.4310    1.4590 C   0  0  0  0  0  0  0  0  0  0  0  0
   -1.7870   -0.0320    1.2970 C   0  0  0  0  0  0  0  0  0  0  0  0
   -1.9080   -0.4790   -0.1630 C   0  0  0  0  0  0  0  0  0  0  0  0
   -3.1130   -0.7810   -0.7110 C   0  0  0  0  0  0  0  0  0  0  0  0
   -4.4280   -0.7960   -0.0050 C   0  0  0  0  0  0  0  0  0  0  0  0
   -5.6800   -1.0810   -0.7610 C   0  0  0  0  0  0  0  0  0  0  0  0
   -4.5490   -0.5840    1.1960 O   0  0  0  0  0  0  0  0  0  0  0  0
   -3.0940   -1.1440   -2.0740 C   0  0  0  0  0  0  0  0  0  0  0  0
   -1.3930   -1.0390   -2.4900 S   0  0  0  0  0  0  0  0  0  0  0  0
   -0.7910   -0.5340   -0.9080 C   0  0  0  0  0  0  0  0  0  0  0  0
    0.6240   -0.2660   -0.7470 C   0  0  0  0  0  0  0  0  0  0  0  0
    1.3700   -0.4820   -1.7990 O   0  0  0  0  0  0  0  0  0  0  0  0
    1.3480    0.1960    0.3480 N   0  0  0  0  0  0  0  0  0  0  0  0
    2.6400    0.3990    0.3060 O   0  0  0  0  0  0  0  0  0  0  0  0
    3.8690    0.0110    0.2040 C   0  0  0  0  0  0  0  0  0  0  0  0
    4.8840    0.9990    0.2410 C   0  0  0  0  0  0  0  0  0  0  0  0
    6.2170    0.6820    0.1350 C   0  0  0  0  0  0  0  0  0  0  0  0
    6.6030   -0.6220   -0.0100 C   0  0  0  0  0  0  0  0  0  0  0  0
    7.9560   -0.9650   -0.1170 O   0  0  0  0  0  0  0  0  0  0  0  0
    5.6490   -1.5900   -0.0470 N   0  0  0  0  0  0  0  0  0  0  0  0
    4.3290   -1.2710    0.0580 C   0  0  0  0  0  0  0  0  0  0  0  0
    3.1460   -2.5770    0.0280 Cl  0  0  0  0  0  0  0  0  0  0  0  0
  1  2  1  0
  2  3  1  0
  3  4  1  0
  4  5  1  0
  4 11  2  0
  5  6  1  0
  5  9  2  0
  6  7  1  0
  6  8  2  0
  9 10  1  0
 10 11  1  0
 11 12  1  0
 12 13  2  0
 12 14  1  0
 14 15  1  0
 15 16  1  0
 16 17  2  0
 16 22  1  0
 17 18  1  0
 18 19  2  0
 19 20  1  0
 19 21  1  0
 21 22  2  0
 22 23  1  0
M  END
