
     RDKit          3D

 23 24  0  0  0  0  0  0  0  0999 V2000
    7.8080    0.2980   -0.6860 C   0  0  0  0  0  0  0  0  0  0  0  0
    6.4110   -0.0330   -0.2000 C   0  0  0  0  0  0  0  0  0  0  0  0
    6.2580   -0.8130    0.9480 C   0  0  0  0  0  0  0  0  0  0  0  0
    4.4990   -0.9270    1.1150 S   0  0  0  0  0  0  0  0  0  0  0  0
    4.0820    0.0290   -0.2920 C   0  0  0  0  0  0  0  0  0  0  0  0
    2.7100    0.3320   -0.7400 C   0  0  0  0  0  0  0  0  0  0  0  0
    1.7790   -0.2890    0.1750 N   0  0  0  0  0  0  0  0  0  0  0  0
    0.3730   -0.1870    0.0240 C   0  0  0  0  0  0  0  0  0  0  0  0
   -0.1080    0.4570   -0.9240 O   0  0  0  0  0  0  0  0  0  0  0  0
   -0.5150   -0.8490    0.9990 C   0  0  0  0  0  0  0  0  0  0  0  0
   -1.8600   -0.6360    0.6840 O   0  0  0  0  0  0  0  0  0  0  0  0
   -2.4050    0.6350    0.6230 C   0  0  0  0  0  0  0  0  0  0  0  0
   -1.6710    1.6110    0.8570 O   0  0  0  0  0  0  0  0  0  0  0  0
   -3.8290    0.7930    0.2870 C   0  0  0  0  0  0  0  0  0  0  0  0
   -4.5100    1.9460    0.1860 N   0  0  0  0  0  0  0  0  0  0  0  0
   -5.7930    1.7190   -0.1380 C   0  0  0  0  0  0  0  0  0  0  0  0
   -7.0840    2.8910   -0.3860 Cl  0  0  0  0  0  0  0  0  0  0  0  0
   -5.9820    0.3570   -0.2610 C   0  0  0  0  0  0  0  0  0  0  0  0
   -7.2240   -0.3610   -0.6030 C   0  0  0  0  0  0  0  0  0  0  0  0
   -7.5260   -0.6240   -1.7960 O   0  0  0  0  0  0  0  0  0  0  0  0
   -4.7420   -0.1990    0.0090 C   0  0  0  0  0  0  0  0  0  0  0  0
   -4.4170   -1.6350    0.0070 C   0  0  0  0  0  0  0  0  0  0  0  0
    5.2910    0.3750   -0.8010 C   0  0  0  0  0  0  0  0  0  0  0  0
  1  2  1  0
  2  3  2  0
  2 23  1  0
  3  4  1  0
  4  5  1  0
  5  6  1  0
  5 23  2  0
  6  7  1  0
  7  8  1  0
  8  9  2  0
  8 10  1  0
 10 11  1  0
 11 12  1  0
 12 13  2  0
 12 14  1  0
 14 15  1  0
 14 21  2  0
 15 16  1  0
 16 17  1  0
 16 18  2  0
 18 19  1  0
 18 21  1  0
 19 20  2  0
 21 22  1  0
M  END
