
     RDKit          3D

 23 24  0  0  0  0  0  0  0  0999 V2000
   -4.9430    1.2570   -0.3520 C   0  0  0  0  0  0  0  0  0  0  0  0
   -4.5730   -0.0680   -0.9790 C   0  0  0  0  0  0  0  0  0  0  0  0
   -5.4110   -0.5770   -1.9700 C   0  0  0  0  0  0  0  0  0  0  0  0
   -4.6830   -2.1060   -2.3860 S   0  0  0  0  0  0  0  0  0  0  0  0
   -3.3370   -2.0260   -1.2740 C   0  0  0  0  0  0  0  0  0  0  0  0
   -3.5160   -0.7800   -0.6090 C   0  0  0  0  0  0  0  0  0  0  0  0
   -2.4800   -0.3830    0.3760 C   0  0  0  0  0  0  0  0  0  0  0  0
   -1.8460   -1.3040    1.0030 O   0  0  0  0  0  0  0  0  0  0  0  0
   -2.1310    0.9430    0.6770 N   0  0  0  0  0  0  0  0  0  0  0  0
   -1.0990    1.2650    1.6840 C   0  0  0  0  0  0  0  0  0  0  0  0
    0.2590    1.0310    1.1660 C   0  0  0  0  0  0  0  0  0  0  0  0
    0.7800    1.9230    0.2260 C   0  0  0  0  0  0  0  0  0  0  0  0
    2.0710    1.7250   -0.2680 C   0  0  0  0  0  0  0  0  0  0  0  0
    2.5460    2.5400   -1.1270 O   0  0  0  0  0  0  0  0  0  0  0  0
    2.7500    0.7070    0.1700 O   0  0  0  0  0  0  0  0  0  0  0  0
    2.3110   -0.1530    1.0460 C   0  0  0  0  0  0  0  0  0  0  0  0
    3.1020   -1.2740    1.5060 C   0  0  0  0  0  0  0  0  0  0  0  0
    4.3000   -1.6450    1.1710 C   0  0  0  0  0  0  0  0  0  0  0  0
    5.2360   -1.0790    0.2420 C   0  0  0  0  0  0  0  0  0  0  0  0
    4.9950    0.0370   -0.4970 O   0  0  0  0  0  0  0  0  0  0  0  0
    6.4340   -1.6690    0.0740 C   0  0  0  0  0  0  0  0  0  0  0  0
    7.6270   -1.0560   -1.0270 Cl  0  0  0  0  0  0  0  0  0  0  0  0
    1.0410    0.0230    1.5450 N   0  0  0  0  0  0  0  0  0  0  0  0
  1  2  1  0
  2  3  2  0
  2  6  1  0
  3  4  1  0
  4  5  1  0
  5  6  2  0
  6  7  1  0
  7  8  2  0
  7  9  1  0
  9 10  1  0
 10 11  1  0
 11 12  2  0
 11 23  1  0
 12 13  1  0
 13 14  2  0
 13 15  1  0
 15 16  1  0
 16 17  1  0
 16 23  2  0
 17 18  2  3
 18 19  1  0
 19 20  1  0
 19 21  2  3
 21 22  1  0
M  END
