
     RDKit          3D

 23 24  0  0  0  0  0  0  0  0999 V2000
   -1.2180   -4.7570    2.9460 C   0  0  0  0  0  0  0  0  0  0  0  0
   -0.7400   -3.3910    2.6570 C   0  0  0  0  0  0  0  0  0  0  0  0
   -1.4040   -2.4480    3.1190 O   0  0  0  0  0  0  0  0  0  0  0  0
    0.4810   -3.1190    1.8480 C   0  0  0  0  0  0  0  0  0  0  0  0
    1.2160   -4.1300    1.3420 C   0  0  0  0  0  0  0  0  0  0  0  0
    2.3160   -3.8920    0.6150 C   0  0  0  0  0  0  0  0  0  0  0  0
    2.4070   -2.0440    0.5890 S   0  0  0  0  0  0  0  0  0  0  0  0
    0.8870   -1.8720    1.6020 C   0  0  0  0  0  0  0  0  0  0  0  0
    0.3810   -0.6020    1.9610 N   0  0  0  0  0  0  0  0  0  0  0  0
    1.0410    0.6120    1.5420 C   0  0  0  0  0  0  0  0  0  0  0  0
    2.0810    0.4350    0.8490 O   0  0  0  0  0  0  0  0  0  0  0  0
    0.4900    1.9170    1.9270 C   0  0  0  0  0  0  0  0  0  0  0  0
    0.6750    3.1020    1.1030 C   0  0  0  0  0  0  0  0  0  0  0  0
   -0.0170    3.2120   -0.1230 N   0  0  0  0  0  0  0  0  0  0  0  0
    0.0840    2.4030   -1.2500 C   0  0  0  0  0  0  0  0  0  0  0  0
    0.8350    1.4320   -1.3440 O   0  0  0  0  0  0  0  0  0  0  0  0
   -0.7500    2.6860   -2.4520 C   0  0  0  0  0  0  0  0  0  0  0  0
   -1.6160    3.6460   -2.6070 O   0  0  0  0  0  0  0  0  0  0  0  0
   -2.1730    3.6040   -3.7900 C   0  0  0  0  0  0  0  0  0  0  0  0
   -3.4000    4.7390   -4.3790 Cl  0  0  0  0  0  0  0  0  0  0  0  0
   -1.6290    2.5380   -4.4540 C   0  0  0  0  0  0  0  0  0  0  0  0
   -0.7080    1.9390   -3.5940 C   0  0  0  0  0  0  0  0  0  0  0  0
    0.1070    0.7560   -3.9080 C   0  0  0  0  0  0  0  0  0  0  0  0
  1  2  1  0
  2  3  2  0
  2  4  1  0
  4  5  1  0
  4  8  2  0
  5  6  2  0
  6  7  1  0
  7  8  1  0
  8  9  1  0
  9 10  1  0
 10 11  2  0
 10 12  1  0
 12 13  1  0
 13 14  1  0
 14 15  1  0
 15 16  2  0
 15 17  1  0
 17 18  1  0
 17 22  2  0
 18 19  1  0
 19 20  1  0
 19 21  2  0
 21 22  1  0
 22 23  1  0
M  END
