
     RDKit          3D

 15 15  0  0  0  0  0  0  0  0999 V2000
    0.8930   -2.4920    0.5140 C   0  0  0  0  0  0  0  0  0  0  0  0
    0.4550   -1.2660    1.2340 C   0  0  0  0  0  0  0  0  0  0  0  0
   -0.0060   -0.1520    0.3870 C   0  0  0  0  0  0  0  0  0  0  0  0
    0.7050    0.8260   -0.2610 C   0  0  0  0  0  0  0  0  0  0  0  0
    2.1190    1.0760   -0.3460 C   0  0  0  0  0  0  0  0  0  0  0  0
    2.4700    2.2450   -0.7580 O   0  0  0  0  0  0  0  0  0  0  0  0
    3.1820    0.2100   -0.0390 N   0  0  0  0  0  0  0  0  0  0  0  0
    4.5530    0.7300   -0.2090 C   0  0  0  0  0  0  0  0  0  0  0  0
   -0.2290    1.6040   -0.9110 N   0  0  0  0  0  0  0  0  0  0  0  0
   -1.4600    1.1280   -0.6740 C   0  0  0  0  0  0  0  0  0  0  0  0
   -2.6880    1.7390   -1.2380 C   0  0  0  0  0  0  0  0  0  0  0  0
   -1.3780    0.0240    0.1350 C   0  0  0  0  0  0  0  0  0  0  0  0
   -2.4710   -0.7810    0.5890 C   0  0  0  0  0  0  0  0  0  0  0  0
   -3.9140   -0.5570    0.3160 C   0  0  0  0  0  0  0  0  0  0  0  0
   -2.2380   -1.8140    1.3100 O   0  0  0  0  0  0  0  0  0  0  0  0
  1  2  1  0
  2  3  1  0
  3  4  2  0
  3 12  1  0
  4  5  1  0
  4  9  1  0
  5  6  2  0
  5  7  1  0
  7  8  1  0
  9 10  1  0
 10 11  1  0
 10 12  2  0
 12 13  1  0
 13 14  1  0
 13 15  2  0
M  END
