
     RDKit          3D

 23 24  0  0  0  0  0  0  0  0999 V2000
   -0.2720    0.5390    1.1890 O   0  0  0  0  0  0  0  0  0  0  0  0
   -0.4090    1.2220    0.1460 C   0  0  0  0  0  0  0  0  0  0  0  0
    0.7180    1.2760   -0.8160 C   0  0  0  0  0  0  0  0  0  0  0  0
    1.8620    0.4500   -0.3140 C   0  0  0  0  0  0  0  0  0  0  0  0
    2.9680    0.4560   -1.1790 O   0  0  0  0  0  0  0  0  0  0  0  0
    4.1290   -0.2200   -0.9410 C   0  0  0  0  0  0  0  0  0  0  0  0
    5.1640   -0.1610   -1.8410 C   0  0  0  0  0  0  0  0  0  0  0  0
    6.3490   -0.8370   -1.6210 C   0  0  0  0  0  0  0  0  0  0  0  0
    6.5020   -1.5770   -0.4960 N   0  0  0  0  0  0  0  0  0  0  0  0
    5.5190   -1.6630    0.4080 C   0  0  0  0  0  0  0  0  0  0  0  0
    5.6670   -2.6110    1.8870 Cl  0  0  0  0  0  0  0  0  0  0  0  0
    4.3380   -0.9960    0.2010 C   0  0  0  0  0  0  0  0  0  0  0  0
   -1.6280    1.9500   -0.1340 N   0  0  0  0  0  0  0  0  0  0  0  0
   -2.6960    1.8630    0.8380 C   0  0  0  0  0  0  0  0  0  0  0  0
   -3.1280    0.4230    1.0430 C   0  0  0  0  0  0  0  0  0  0  0  0
   -2.9480   -0.0350    2.2620 C   0  0  0  0  0  0  0  0  0  0  0  0
   -3.2560   -1.3780    2.7970 C   0  0  0  0  0  0  0  0  0  0  0  0
   -3.5560   -2.5940    1.4750 S   0  0  0  0  0  0  0  0  0  0  0  0
   -4.1170   -1.6730    0.0550 C   0  0  0  0  0  0  0  0  0  0  0  0
   -4.8640   -2.1770   -0.8120 O   0  0  0  0  0  0  0  0  0  0  0  0
   -3.6830   -0.2830   -0.0890 C   0  0  0  0  0  0  0  0  0  0  0  0
   -3.8620    0.2770   -1.2930 C   0  0  0  0  0  0  0  0  0  0  0  0
   -4.3920   -0.4220   -2.3540 O   0  0  0  0  0  0  0  0  0  0  0  0
  1  2  2  0
  2  3  1  0
  2 13  1  0
  3  4  1  0
  4  5  1  0
  5  6  1  0
  6  7  2  0
  6 12  1  0
  7  8  1  0
  8  9  2  0
  9 10  1  0
 10 11  1  0
 10 12  2  0
 13 14  1  0
 14 15  1  0
 15 16  2  0
 15 21  1  0
 16 17  1  0
 17 18  1  0
 18 19  1  0
 19 20  2  0
 19 21  1  0
 21 22  2  3
 22 23  1  0
M  END
