
     RDKit          3D

 23 24  0  0  0  0  0  0  0  0999 V2000
    4.9390    2.6500   -0.0750 C   0  0  0  0  0  0  0  0  0  0  0  0
    5.0160    1.2970   -0.6770 C   0  0  0  0  0  0  0  0  0  0  0  0
    4.4060    0.2720    0.0520 O   0  0  0  0  0  0  0  0  0  0  0  0
    3.0430    0.2260    0.3650 C   0  0  0  0  0  0  0  0  0  0  0  0
    2.2790    1.1330    0.0180 O   0  0  0  0  0  0  0  0  0  0  0  0
    2.5490   -0.8780    1.0740 N   0  0  0  0  0  0  0  0  0  0  0  0
    1.2330   -1.1650    1.4850 C   0  0  0  0  0  0  0  0  0  0  0  0
    0.2660   -1.0850    0.3550 C   0  0  0  0  0  0  0  0  0  0  0  0
   -0.8240   -0.3460    0.3960 N   0  0  0  0  0  0  0  0  0  0  0  0
   -1.7790   -0.3380   -0.5700 C   0  0  0  0  0  0  0  0  0  0  0  0
   -2.8450    0.3690   -0.5340 O   0  0  0  0  0  0  0  0  0  0  0  0
   -3.6930    1.2280   -0.0210 C   0  0  0  0  0  0  0  0  0  0  0  0
   -3.5170    2.4780    0.4500 C   0  0  0  0  0  0  0  0  0  0  0  0
   -1.9250    3.2680    0.4620 Cl  0  0  0  0  0  0  0  0  0  0  0  0
   -4.7810    3.0560    0.9210 C   0  0  0  0  0  0  0  0  0  0  0  0
   -5.7710    1.9690    0.6860 C   0  0  0  0  0  0  0  0  0  0  0  0
   -5.1540    0.9590    0.1580 C   0  0  0  0  0  0  0  0  0  0  0  0
   -5.7100   -0.2760   -0.2260 O   0  0  0  0  0  0  0  0  0  0  0  0
   -1.5100   -1.2050   -1.6650 C   0  0  0  0  0  0  0  0  0  0  0  0
   -0.4090   -1.9670   -1.7320 C   0  0  0  0  0  0  0  0  0  0  0  0
    0.5190   -1.9390   -0.7290 C   0  0  0  0  0  0  0  0  0  0  0  0
    2.0300   -2.9170   -0.7460 S   0  0  0  0  0  0  0  0  0  0  0  0
    1.6380   -4.4900    0.0810 C   0  0  0  0  0  0  0  0  0  0  0  0
  1  2  1  0
  2  3  1  0
  3  4  1  0
  4  5  2  0
  4  6  1  0
  6  7  1  0
  7  8  1  0
  8  9  2  0
  8 21  1  0
  9 10  1  0
 10 11  1  0
 10 19  2  0
 11 12  1  0
 12 13  2  0
 12 17  1  0
 13 14  1  0
 13 15  1  0
 15 16  1  0
 16 17  2  0
 17 18  1  0
 19 20  1  0
 20 21  2  0
 21 22  1  0
 22 23  1  0
M  END
