
     RDKit          3D

 23 24  0  0  0  0  0  0  0  0999 V2000
    5.8340    0.6270    2.3200 C   0  0  0  0  0  0  0  0  0  0  0  0
    5.0430   -0.6400    2.0750 C   0  0  0  0  0  0  0  0  0  0  0  0
    4.3190   -0.4500    0.7330 C   0  0  0  0  0  0  0  0  0  0  0  0
    3.0140   -0.1660    0.6310 C   0  0  0  0  0  0  0  0  0  0  0  0
    2.4600   -0.0130   -0.5780 C   0  0  0  0  0  0  0  0  0  0  0  0
    1.0780    0.2940   -0.9690 C   0  0  0  0  0  0  0  0  0  0  0  0
    0.8380    0.3860   -2.1940 O   0  0  0  0  0  0  0  0  0  0  0  0
    0.0780    0.4760   -0.0630 O   0  0  0  0  0  0  0  0  0  0  0  0
   -1.2620    0.7720   -0.3880 C   0  0  0  0  0  0  0  0  0  0  0  0
   -1.7830   -0.3610   -1.2380 C   0  0  0  0  0  0  0  0  0  0  0  0
   -1.0510   -1.3270   -1.5430 O   0  0  0  0  0  0  0  0  0  0  0  0
   -3.1250   -0.3490   -1.7080 N   0  0  0  0  0  0  0  0  0  0  0  0
   -3.5890   -1.4450   -2.5270 C   0  0  0  0  0  0  0  0  0  0  0  0
   -4.0340    0.7440   -1.3710 C   0  0  0  0  0  0  0  0  0  0  0  0
   -4.7690    0.4550   -0.1170 C   0  0  0  0  0  0  0  0  0  0  0  0
   -5.5580    1.3430    0.5830 C   0  0  0  0  0  0  0  0  0  0  0  0
   -6.0400    0.6630    1.6690 C   0  0  0  0  0  0  0  0  0  0  0  0
   -5.5400   -0.6160    1.6120 C   0  0  0  0  0  0  0  0  0  0  0  0
   -5.8100   -1.9460    2.7330 Cl  0  0  0  0  0  0  0  0  0  0  0  0
   -4.8020   -0.6670    0.5370 O   0  0  0  0  0  0  0  0  0  0  0  0
    3.8030   -0.2710   -1.7160 S   0  0  0  0  0  0  0  0  0  0  0  0
    5.0450   -0.5740   -0.4610 C   0  0  0  0  0  0  0  0  0  0  0  0
    6.4160   -0.8650   -0.6530 N   0  0  0  0  0  0  0  0  0  0  0  0
  1  2  1  0
  2  3  1  0
  3  4  1  0
  3 22  2  0
  4  5  2  0
  5  6  1  0
  5 21  1  0
  6  7  2  0
  6  8  1  0
  8  9  1  0
  9 10  1  0
 10 11  2  0
 10 12  1  0
 12 13  1  0
 12 14  1  0
 14 15  1  0
 15 16  2  0
 15 20  1  0
 16 17  1  0
 17 18  2  0
 18 19  1  0
 18 20  1  0
 21 22  1  0
 22 23  1  0
M  END
