
     RDKit          3D

 23 24  0  0  0  0  0  0  0  0999 V2000
   -4.3640   -1.3970   -1.6730 C   0  0  0  0  0  0  0  0  0  0  0  0
   -4.1930   -0.9740   -0.2300 C   0  0  2  0  0  0  0  0  0  0  0  0
   -5.5090   -1.1490    0.5200 C   0  0  0  0  0  0  0  0  0  0  0  0
   -3.7520    0.3560   -0.1280 O   0  0  0  0  0  0  0  0  0  0  0  0
   -2.5550    0.3790    0.5410 C   0  0  0  0  0  0  0  0  0  0  0  0
   -2.0310    1.7690    0.6820 C   0  0  0  0  0  0  0  0  0  0  0  0
   -0.7440    1.7400    1.4070 N   0  0  0  0  0  0  0  0  0  0  0  0
   -0.7420    1.8420    2.8080 C   0  0  0  0  0  0  0  0  0  0  0  0
   -1.6680    1.9630    3.6330 O   0  0  0  0  0  0  0  0  0  0  0  0
    0.9830    1.7630    3.2970 S   0  0  0  0  0  0  0  0  0  0  0  0
    1.6320    1.6050    1.6410 C   0  0  0  0  0  0  0  0  0  0  0  0
    2.9030    1.5050    1.3410 C   0  0  0  0  0  0  0  0  0  0  0  0
    4.1780    1.5100    2.5400 Cl  0  0  0  0  0  0  0  0  0  0  0  0
    3.2930    1.3840   -0.0170 N   0  0  0  0  0  0  0  0  0  0  0  0
    3.7680    0.1410   -0.4870 C   0  0  0  0  0  0  0  0  0  0  0  0
    3.8450   -0.9230    0.3760 C   0  0  0  0  0  0  0  0  0  0  0  0
    4.3200   -2.1240   -0.1380 C   0  0  0  0  0  0  0  0  0  0  0  0
    4.6990   -2.2450   -1.4570 C   0  0  0  0  0  0  0  0  0  0  0  0
    4.6050   -1.1570   -2.2760 C   0  0  0  0  0  0  0  0  0  0  0  0
    4.1440    0.0450   -1.8210 C   0  0  0  0  0  0  0  0  0  0  0  0
    4.0400    1.1760   -2.6490 O   0  0  0  0  0  0  0  0  0  0  0  0
    0.4810    1.6150    0.7780 C   0  0  0  0  0  0  0  0  0  0  0  0
    0.6380    1.5130   -0.4920 O   0  0  0  0  0  0  0  0  0  0  0  0
  2  1  1  6
  2  3  1  0
  2  4  1  0
  4  5  1  0
  5  6  1  0
  6  7  1  0
  7  8  1  0
  7 22  1  0
  8  9  2  0
  8 10  1  0
 10 11  1  0
 11 12  2  3
 11 22  1  0
 12 13  1  0
 12 14  1  0
 14 15  1  0
 15 16  2  0
 15 20  1  0
 16 17  1  0
 17 18  2  0
 18 19  1  0
 19 20  2  0
 20 21  1  0
 22 23  2  0
M  END
