
     RDKit          3D

 23 24  0  0  0  0  0  0  0  0999 V2000
   -3.8520    3.6130   -1.4540 C   0  0  0  0  0  0  0  0  0  0  0  0
   -3.2800    2.3670   -1.6770 O   0  0  0  0  0  0  0  0  0  0  0  0
   -2.4030    1.9950   -0.6570 C   0  0  0  0  0  0  0  0  0  0  0  0
   -1.8350    0.6250   -0.9970 C   0  0  0  0  0  0  0  0  0  0  0  0
   -0.9100    0.1860    0.0380 N   0  0  0  0  0  0  0  0  0  0  0  0
   -1.4480   -0.1230    1.3130 C   0  0  0  0  0  0  0  0  0  0  0  0
   -2.4720   -1.2220    1.1800 C   0  0  0  0  0  0  0  0  0  0  0  0
   -3.8070   -0.9840    0.9820 C   0  0  0  0  0  0  0  0  0  0  0  0
   -4.3980   -2.2410    0.9130 C   0  0  0  0  0  0  0  0  0  0  0  0
   -3.3970   -3.1640    1.0710 C   0  0  0  0  0  0  0  0  0  0  0  0
   -2.2800   -2.5100    1.2250 O   0  0  0  0  0  0  0  0  0  0  0  0
    0.4800    0.0970   -0.2910 C   0  0  0  0  0  0  0  0  0  0  0  0
    0.9050    0.5330   -1.8360 S   0  0  0  0  0  0  0  0  0  0  0  0
    1.4380   -0.3060    0.6210 N   0  0  0  0  0  0  0  0  0  0  0  0
    2.8190   -0.4540    0.4500 C   0  0  0  0  0  0  0  0  0  0  0  0
    3.4990   -0.3610   -0.7490 C   0  0  0  0  0  0  0  0  0  0  0  0
    4.8850   -0.5410   -0.8400 C   0  0  0  0  0  0  0  0  0  0  0  0
    5.5040   -0.4290   -2.0940 O   0  0  0  0  0  0  0  0  0  0  0  0
    5.5670   -0.8190    0.3120 C   0  0  0  0  0  0  0  0  0  0  0  0
    6.9310   -1.0090    0.3040 O   0  0  0  0  0  0  0  0  0  0  0  0
    4.9080   -0.9170    1.5190 C   0  0  0  0  0  0  0  0  0  0  0  0
    3.5570   -0.7440    1.6260 C   0  0  0  0  0  0  0  0  0  0  0  0
    2.7400   -0.8680    3.1830 Cl  0  0  0  0  0  0  0  0  0  0  0  0
  1  2  1  0
  2  3  1  0
  3  4  1  0
  4  5  1  0
  5  6  1  0
  5 12  1  0
  6  7  1  0
  7  8  2  0
  7 11  1  0
  8  9  1  0
  9 10  2  0
 10 11  1  0
 12 13  2  0
 12 14  1  0
 14 15  1  0
 15 16  2  0
 15 22  1  0
 16 17  1  0
 17 18  1  0
 17 19  2  0
 19 20  1  0
 19 21  1  0
 21 22  2  0
 22 23  1  0
M  END
