
     RDKit          3D

 21 24  0  0  0  0  0  0  0  0999 V2000
    4.9560   -0.7540    1.1360 C   0  0  0  0  0  0  0  0  0  0  0  0
    3.6130   -1.0740    1.4370 O   0  0  0  0  0  0  0  0  0  0  0  0
    2.6730   -0.8730    0.4330 C   0  0  0  0  0  0  0  0  0  0  0  0
    1.6160   -0.1050    0.5700 C   0  0  0  0  0  0  0  0  0  0  0  0
    1.1180    0.7030    1.6810 C   0  0  0  0  0  0  0  0  0  0  0  0
    1.8440    0.9580    2.6590 O   0  0  0  0  0  0  0  0  0  0  0  0
   -0.2850    1.1890    1.5650 C   0  0  0  0  0  0  0  0  0  0  0  0
   -0.4100    1.8070    0.1930 C   0  0  2  0  0  0  0  0  0  0  0  0
   -1.6030    2.6990    0.0660 C   0  0  0  0  0  0  0  0  0  0  0  0
   -2.8600    1.9180   -0.0810 C   0  0  0  0  0  0  0  0  0  0  0  0
   -3.9390    2.5680   -0.1600 O   0  0  0  0  0  0  0  0  0  0  0  0
   -2.8100    0.4730   -0.1300 C   0  0  0  0  0  0  0  0  0  0  0  0
   -3.9530   -0.2460    0.1840 C   0  0  0  0  0  0  0  0  0  0  0  0
   -3.9210   -1.6100    0.1430 C   0  0  0  0  0  0  0  0  0  0  0  0
   -2.7590   -2.2510   -0.2070 C   0  0  0  0  0  0  0  0  0  0  0  0
   -1.6170   -1.5310   -0.5200 C   0  0  0  0  0  0  0  0  0  0  0  0
   -1.6300   -0.1600   -0.4850 C   0  0  0  0  0  0  0  0  0  0  0  0
   -0.4290    0.6750   -0.8120 C   0  0  2  0  0  0  0  0  0  0  0  0
    0.8280   -0.1060   -0.6680 C   0  0  0  0  0  0  0  0  0  0  0  0
    1.4620   -0.9010   -1.5320 C   0  0  0  0  0  0  0  0  0  0  0  0
    2.6850   -1.4580   -0.9180 C   0  0  0  0  0  0  0  0  0  0  0  0
  1  2  1  0
  2  3  1  0
  3  4  2  0
  3 21  1  0
  4  5  1  0
  4 19  1  0
  5  6  2  0
  5  7  1  0
  8  7  1  1
  8  9  1  0
  8 18  1  0
  9 10  1  0
 10 11  2  0
 10 12  1  0
 12 13  2  0
 12 17  1  0
 13 14  1  0
 14 15  2  0
 15 16  1  0
 16 17  2  0
 18 17  1  1
 18 19  1  0
 19 20  2  0
 20 21  1  0
M  END
