
     RDKit          3D

 21 23  0  0  0  0  0  0  0  0999 V2000
    6.6230   -0.7940   -1.4320 C   0  0  0  0  0  0  0  0  0  0  0  0
    6.0550   -0.5890   -0.0520 C   0  0  0  0  0  0  0  0  0  0  0  0
    4.5770   -0.2480   -0.1560 C   0  0  0  0  0  0  0  0  0  0  0  0
    4.0010   -0.0430    1.2090 C   0  0  0  0  0  0  0  0  0  0  0  0
    2.6440    0.2790    1.1140 O   0  0  0  0  0  0  0  0  0  0  0  0
    1.7300   -0.5800    0.5830 C   0  0  0  0  0  0  0  0  0  0  0  0
    2.0560   -1.7040    0.1570 O   0  0  0  0  0  0  0  0  0  0  0  0
    0.3270   -0.1810    0.5060 C   0  0  0  0  0  0  0  0  0  0  0  0
   -0.6890   -0.8810    0.0250 C   0  0  0  0  0  0  0  0  0  0  0  0
   -1.9480   -0.1210    0.1290 C   0  0  0  0  0  0  0  0  0  0  0  0
   -1.6860    1.0350    0.6730 C   0  0  0  0  0  0  0  0  0  0  0  0
   -0.2350    1.0830    0.9500 C   0  0  0  0  0  0  0  0  0  0  0  0
    0.3940    2.0220    1.4650 O   0  0  0  0  0  0  0  0  0  0  0  0
   -2.9170    1.8170    0.7920 C   0  0  1  0  0  0  0  0  0  0  0  0
   -2.7900    3.1240    0.0330 C   0  0  0  0  0  0  0  0  0  0  0  0
   -3.9750    0.9690    0.2400 C   0  0  0  0  0  0  0  0  0  0  0  0
   -5.2700    0.9070   -0.0160 C   0  0  0  0  0  0  0  0  0  0  0  0
   -5.5630   -0.3960   -0.6280 C   0  0  0  0  0  0  0  0  0  0  0  0
   -4.2700   -1.0900   -0.6980 C   0  0  0  0  0  0  0  0  0  0  0  0
   -3.9850   -2.4570   -1.2350 C   0  0  0  0  0  0  0  0  0  0  0  0
   -3.3620   -0.2670   -0.1830 C   0  0  0  0  0  0  0  0  0  0  0  0
  1  2  1  0
  2  3  1  0
  3  4  1  0
  4  5  1  0
  5  6  1  0
  6  7  2  0
  6  8  1  0
  8  9  2  0
  8 12  1  0
  9 10  1  0
 10 11  2  0
 10 21  1  0
 11 12  1  0
 11 14  1  0
 12 13  2  0
 14 15  1  6
 14 16  1  0
 16 17  2  0
 16 21  1  0
 17 18  1  0
 18 19  1  0
 19 20  1  0
 19 21  2  0
M  END
