
     RDKit          3D

 21 24  0  0  0  0  0  0  0  0999 V2000
   -4.6540   -1.3190    0.2530 C   0  0  0  0  0  0  0  0  0  0  0  0
   -3.8010   -0.1330   -0.0690 C   0  0  0  0  0  0  0  0  0  0  0  0
   -4.3360    1.0990   -0.3430 C   0  0  0  0  0  0  0  0  0  0  0  0
   -3.5780    2.1840   -0.6350 C   0  0  0  0  0  0  0  0  0  0  0  0
   -2.1800    2.0050   -0.6510 C   0  0  0  0  0  0  0  0  0  0  0  0
   -1.6080    0.7860   -0.3820 C   0  0  0  0  0  0  0  0  0  0  0  0
   -0.2360    0.6300   -0.4020 C   0  0  0  0  0  0  0  0  0  0  0  0
    0.2680   -0.6440   -0.1160 C   0  0  0  0  0  0  0  0  0  0  0  0
   -0.5600   -1.7040    0.1730 C   0  0  0  0  0  0  0  0  0  0  0  0
   -1.9090   -1.5300    0.1880 C   0  0  0  0  0  0  0  0  0  0  0  0
   -2.4350   -0.3060   -0.0840 C   0  0  0  0  0  0  0  0  0  0  0  0
    1.7230   -0.8480   -0.1290 C   0  0  0  0  0  0  0  0  0  0  0  0
    2.5820    0.1160   -0.3980 C   0  0  0  0  0  0  0  0  0  0  0  0
    2.0870    1.4680   -0.7030 C   0  0  0  0  0  0  0  0  0  0  0  0
    2.9390    2.3520   -0.9520 O   0  0  0  0  0  0  0  0  0  0  0  0
    0.6520    1.7350   -0.7060 C   0  0  0  0  0  0  0  0  0  0  0  0
    0.3060    2.8970   -0.9710 O   0  0  0  0  0  0  0  0  0  0  0  0
    3.9550   -0.4600   -0.3220 C   0  0  1  0  0  0  0  0  0  0  0  0
    4.9380    0.5200    0.2720 C   0  0  0  0  0  0  0  0  0  0  0  0
    3.7290   -1.6570    0.5720 C   0  0  0  0  0  0  0  0  0  0  0  0
    2.4150   -2.0350    0.1280 O   0  0  0  0  0  0  0  0  0  0  0  0
  1  2  1  0
  2  3  2  0
  2 11  1  0
  3  4  1  0
  4  5  2  0
  5  6  1  0
  6  7  2  0
  6 11  1  0
  7  8  1  0
  7 16  1  0
  8  9  2  0
  8 12  1  0
  9 10  1  0
 10 11  2  0
 12 13  2  0
 12 21  1  0
 13 14  1  0
 13 18  1  0
 14 15  2  0
 14 16  1  0
 16 17  2  0
 18 19  1  1
 18 20  1  0
 20 21  1  0
M  END
