
     RDKit          3D

 16 15  0  0  0  0  0  0  0  0999 V2000
    5.2730    0.4910    0.1260 C   0  0  0  0  0  0  0  0  0  0  0  0
    3.9980    0.0790   -0.2820 O   0  0  0  0  0  0  0  0  0  0  0  0
    2.8320    0.3570    0.4200 C   0  0  0  0  0  0  0  0  0  0  0  0
    2.8890    1.0070    1.4750 O   0  0  0  0  0  0  0  0  0  0  0  0
    1.5640   -0.1660   -0.1730 C   0  0  2  0  0  0  0  0  0  0  0  0
    1.7150   -1.6720   -0.2420 C   0  0  0  0  0  0  0  0  0  0  0  0
    1.4670    0.4150   -1.5670 C   0  0  0  0  0  0  0  0  0  0  0  0
    0.3660    0.2210    0.6760 C   0  0  0  0  0  0  0  0  0  0  0  0
   -0.7630   -0.2820    0.0890 O   0  0  0  0  0  0  0  0  0  0  0  0
   -1.9350   -0.0120    0.7440 C   0  0  2  0  0  0  0  0  0  0  0  0
   -2.6950   -1.2500    1.1740 C   0  0  0  0  0  0  0  0  0  0  0  0
   -1.9420   -2.0390    2.0410 O   0  0  0  0  0  0  0  0  0  0  0  0
   -2.8020    0.8450   -0.1510 C   0  0  1  0  0  0  0  0  0  0  0  0
   -3.1140    0.1930   -1.4000 N   0  0  0  0  0  0  0  0  0  0  0  0
   -4.0330    1.1340    0.4650 O   0  0  0  0  0  0  0  0  0  0  0  0
   -4.2410    2.4230    0.5740 O   0  0  0  0  0  0  0  0  0  0  0  0
  1  2  1  0
  2  3  1  0
  3  4  2  0
  3  5  1  0
  5  6  1  6
  5  7  1  0
  5  8  1  0
  8  9  1  0
  9 10  1  0
 10 11  1  6
 10 13  1  0
 11 12  1  0
 13 14  1  6
 13 15  1  0
 15 16  1  0
M  CHG  1  14   1
M  END
