
     RDKit          3D

 21 23  0  0  0  0  0  0  0  0999 V2000
   -0.8100    3.1830   -1.8160 O   0  0  0  0  0  0  0  0  0  0  0  0
   -0.6830    3.1080   -0.4800 C   0  0  0  0  0  0  0  0  0  0  0  0
    0.6660    3.1870    0.0550 C   0  0  0  0  0  0  0  0  0  0  0  0
    1.6520    2.3340    0.2340 C   0  0  0  0  0  0  0  0  0  0  0  0
    1.8530    0.8950   -0.0190 C   0  0  0  0  0  0  0  0  0  0  0  0
    2.8920    0.6900   -0.9660 C   0  0  0  0  0  0  0  0  0  0  0  0
    3.2880   -0.5390   -1.4070 C   0  0  0  0  0  0  0  0  0  0  0  0
    2.6260   -1.6050   -0.8880 C   0  0  0  0  0  0  0  0  0  0  0  0
    1.5720   -1.4760    0.0660 C   0  0  0  0  0  0  0  0  0  0  0  0
    1.1960   -0.2260    0.4960 C   0  0  0  0  0  0  0  0  0  0  0  0
    1.0730   -2.8360    0.3580 C   0  0  0  0  0  0  0  0  0  0  0  0
    1.8500   -3.8150    0.6550 O   0  0  0  0  0  0  0  0  0  0  0  0
   -0.4060   -3.2660    0.3440 C   0  0  0  0  0  0  0  0  0  0  0  0
   -1.2330   -1.9760    0.3060 C   0  0  0  0  0  0  0  0  0  0  0  0
   -1.8440   -1.4960    1.4250 C   0  0  0  0  0  0  0  0  0  0  0  0
   -2.4470   -0.1880    1.4580 C   0  0  0  0  0  0  0  0  0  0  0  0
   -2.4130    0.5950    0.3550 C   0  0  0  0  0  0  0  0  0  0  0  0
   -1.8240    0.1410   -0.7900 C   0  0  0  0  0  0  0  0  0  0  0  0
   -1.2360   -1.1570   -0.7930 C   0  0  0  0  0  0  0  0  0  0  0  0
   -2.8640    2.0480    0.4040 C   0  0  0  0  0  0  0  0  0  0  0  0
   -1.8490    2.9760    0.1760 O   0  0  0  0  0  0  0  0  0  0  0  0
  1  2  2  0
  2  3  1  0
  2 21  1  0
  3  4  2  0
  4  5  1  0
  5  6  2  0
  5 10  1  0
  6  7  1  0
  7  8  2  0
  8  9  1  0
  9 10  2  0
  9 11  1  0
 11 12  2  0
 11 13  1  0
 13 14  1  0
 14 15  2  0
 14 19  1  0
 15 16  1  0
 16 17  2  0
 17 18  1  0
 17 20  1  0
 18 19  2  0
 20 21  1  0
M  END
