
     RDKit          3D

 21 22  0  0  0  0  0  0  0  0999 V2000
   -0.9210    2.9530   -1.0490 C   0  0  0  0  0  0  0  0  0  0  0  0
   -0.4360    2.1250   -0.1040 C   0  0  0  0  0  0  0  0  0  0  0  0
   -1.2360    1.8460    0.9520 O   0  0  0  0  0  0  0  0  0  0  0  0
   -1.4130    1.0050    1.9420 C   0  0  0  0  0  0  0  0  0  0  0  0
   -0.8230    1.1080    3.0790 O   0  0  0  0  0  0  0  0  0  0  0  0
   -2.3200   -0.1780    1.8890 C   0  0  0  0  0  0  0  0  0  0  0  0
   -3.4150   -0.0560    0.8670 C   0  0  0  0  0  0  0  0  0  0  0  0
   -3.6770   -1.4010    0.2070 C   0  0  0  0  0  0  0  0  0  0  0  0
   -3.0450   -1.5420   -1.1340 C   0  0  0  0  0  0  0  0  0  0  0  0
   -1.5870   -1.9720   -1.0880 C   0  0  0  0  0  0  0  0  0  0  0  0
   -0.6880   -0.7420   -1.2560 C   0  0  0  0  0  0  0  0  0  0  0  0
    0.5380   -0.9320   -0.3500 C   0  0  0  0  0  0  0  0  0  0  0  0
    1.3870    0.2540   -0.2350 C   0  0  0  0  0  0  0  0  0  0  0  0
    2.6330   -0.0960    0.0440 C   0  0  0  0  0  0  0  0  0  0  0  0
    2.9540   -1.5320    0.2050 C   0  0  0  0  0  0  0  0  0  0  0  0
    3.7340   -1.5930    1.5690 C   0  0  0  0  0  0  0  0  0  0  0  0
    3.7640    0.7840    0.2100 O   0  0  0  0  0  0  0  0  0  0  0  0
    4.0130    1.8920   -0.6440 C   0  0  0  0  0  0  0  0  0  0  0  0
    3.0980    2.7690   -1.0910 C   0  0  0  0  0  0  0  0  0  0  0  0
    1.6720    2.6730   -0.7250 C   0  0  0  0  0  0  0  0  0  0  0  0
    0.9240    1.6370   -0.3630 C   0  0  0  0  0  0  0  0  0  0  0  0
  1  2  2  0
  2  3  1  0
  2 21  1  0
  3  4  1  0
  4  5  2  0
  4  6  1  0
  6  7  1  0
  7  8  1  0
  8  9  1  0
  9 10  1  0
 10 11  1  0
 11 12  1  0
 12 13  1  0
 13 14  2  0
 13 21  1  0
 14 15  1  0
 14 17  1  0
 15 16  1  0
 17 18  1  0
 18 19  2  0
 19 20  1  0
 20 21  2  0
M  END
