
     RDKit          3D

 21 24  0  0  0  0  0  0  0  0999 V2000
   -2.1010    2.7010    1.9710 O   0  0  0  0  0  0  0  0  0  0  0  0
   -2.7150    1.8960    1.2150 C   0  0  0  0  0  0  0  0  0  0  0  0
   -4.0770    1.8080    0.9730 O   0  0  0  0  0  0  0  0  0  0  0  0
   -4.2740    0.9450   -0.0600 C   0  0  2  0  0  0  0  0  0  0  0  0
   -5.1690   -0.2360    0.1190 C   0  0  0  0  0  0  0  0  0  0  0  0
   -4.8430   -1.0010   -1.1810 C   0  0  0  0  0  0  0  0  0  0  0  0
   -3.3190   -0.9040   -1.2250 C   0  0  0  0  0  0  0  0  0  0  0  0
   -2.9660    0.1790   -0.2740 C   0  0  0  0  0  0  0  0  0  0  0  0
   -2.0620    0.8370    0.4030 C   0  0  0  0  0  0  0  0  0  0  0  0
   -0.6320    0.5670    0.3600 C   0  0  0  0  0  0  0  0  0  0  0  0
    0.2740    1.6020    0.3180 C   0  0  0  0  0  0  0  0  0  0  0  0
    1.6480    1.3210    0.2840 C   0  0  0  0  0  0  0  0  0  0  0  0
    2.1520    0.0440    0.2920 C   0  0  0  0  0  0  0  0  0  0  0  0
    3.5920   -0.2570    0.2270 C   0  0  0  0  0  0  0  0  0  0  0  0
    4.4970    0.6770    0.0680 C   0  0  0  0  0  0  0  0  0  0  0  0
    5.9670    0.4850   -0.0120 C   0  0  0  0  0  0  0  0  0  0  0  0
    6.3060   -0.8450    0.1340 O   0  0  0  0  0  0  0  0  0  0  0  0
    5.3790   -1.8350    0.3040 C   0  0  0  0  0  0  0  0  0  0  0  0
    4.0580   -1.6310    0.3580 C   0  0  0  0  0  0  0  0  0  0  0  0
    1.2100   -0.9730    0.3360 C   0  0  0  0  0  0  0  0  0  0  0  0
   -0.1680   -0.7130    0.3700 C   0  0  0  0  0  0  0  0  0  0  0  0
  1  2  2  0
  2  3  1  0
  2  9  1  0
  3  4  1  0
  4  5  1  1
  4  8  1  0
  5  6  1  0
  6  7  1  0
  7  8  1  0
  8  9  2  0
  9 10  1  0
 10 11  2  0
 10 21  1  0
 11 12  1  0
 12 13  2  0
 13 14  1  0
 13 20  1  0
 14 15  2  0
 14 19  1  0
 15 16  1  0
 16 17  1  0
 17 18  1  0
 18 19  2  0
 20 21  2  0
M  END
