
     RDKit          3D

 38 41  0  0  0  0  0  0  0  0999 V2000
   -0.3340   -2.9960   -3.1680 C   0  0  0  0  0  0  0  0  0  0  0  0
    0.4070   -2.0150   -2.5550 O   0  0  0  0  0  0  0  0  0  0  0  0
   -0.3880   -1.1830   -1.7680 C   0  0  0  0  0  0  0  0  0  0  0  0
    0.4980   -0.1050   -1.1080 C   0  0  0  0  0  0  0  0  0  0  0  0
   -0.3650    0.7870   -0.2620 C   0  0  2  0  0  0  0  0  0  0  0  0
   -1.3290    1.3640   -1.0970 O   0  0  0  0  0  0  0  0  0  0  0  0
   -2.6710    1.1930   -1.0990 C   0  0  0  0  0  0  0  0  0  0  0  0
   -3.4100    1.8960   -2.0390 C   0  0  0  0  0  0  0  0  0  0  0  0
   -4.7630    1.7930   -2.1220 C   0  0  0  0  0  0  0  0  0  0  0  0
   -5.4680    0.9460   -1.2300 C   0  0  0  0  0  0  0  0  0  0  0  0
   -6.9290    0.9430   -1.3620 C   0  0  0  0  0  0  0  0  0  0  0  0
   -7.6170    1.8420   -0.3620 C   0  0  0  0  0  0  0  0  0  0  0  0
   -7.0000    3.5510   -0.6950 S   0  0  0  0  0  0  0  0  0  0  0  0
   -4.7560    0.2570   -0.3130 C   0  0  0  0  0  0  0  0  0  0  0  0
   -5.3820   -0.6840    0.6010 C   0  0  0  0  0  0  0  0  0  0  0  0
   -4.8500   -1.3740    1.6490 C   0  0  0  0  0  0  0  0  0  0  0  0
   -5.6130   -2.1990    2.3750 C   0  0  0  0  0  0  0  0  0  0  0  0
   -6.9250   -2.3170    2.0260 C   0  0  0  0  0  0  0  0  0  0  0  0
   -7.1080   -1.2380    0.6320 S   0  0  0  0  0  0  0  0  0  0  0  0
   -3.3470    0.3750   -0.2380 C   0  0  0  0  0  0  0  0  0  0  0  0
    0.3950    1.8370    0.5230 C   0  0  1  0  0  0  0  0  0  0  0  0
    1.0780    2.8610   -0.3100 C   0  0  0  0  0  0  0  0  0  0  0  0
   -0.5730    2.5100    1.3220 O   0  0  0  0  0  0  0  0  0  0  0  0
    1.3400    1.1900    1.4850 C   0  0  0  0  0  0  0  0  0  0  0  0
    0.9610    1.0540    2.6660 O   0  0  0  0  0  0  0  0  0  0  0  0
    2.6160    0.7500    1.0880 N   0  0  0  0  0  0  0  0  0  0  0  0
    3.5670    0.1300    1.9020 N   0  0  0  0  0  0  0  0  0  0  0  0
    3.5680   -0.2120    3.1840 C   0  0  0  0  0  0  0  0  0  0  0  0
    2.6270   -0.0390    4.0160 O   0  0  0  0  0  0  0  0  0  0  0  0
    4.7610   -0.8010    3.5110 N   0  0  0  0  0  0  0  0  0  0  0  0
    5.5110   -0.8220    2.4100 C   0  0  0  0  0  0  0  0  0  0  0  0
    6.8000   -1.2960    2.1580 C   0  0  0  0  0  0  0  0  0  0  0  0
    7.3250   -1.1800    0.8980 C   0  0  0  0  0  0  0  0  0  0  0  0
    8.7090   -1.7030    0.6830 C   0  0  0  0  0  0  0  0  0  0  0  0
    6.6240   -0.6100   -0.1340 C   0  0  0  0  0  0  0  0  0  0  0  0
    7.2330   -0.5090   -1.4700 C   0  0  0  0  0  0  0  0  0  0  0  0
    5.3540   -0.1490    0.1360 C   0  0  0  0  0  0  0  0  0  0  0  0
    4.7900   -0.2520    1.4080 C   0  0  0  0  0  0  0  0  0  0  0  0
  1  2  1  0
  2  3  1  0
  3  4  1  0
  5  4  1  6
  5  6  1  0
  5 21  1  0
  6  7  1  0
  7  8  2  0
  7 20  1  0
  8  9  1  0
  9 10  2  0
 10 11  1  0
 10 14  1  0
 11 12  1  0
 12 13  1  0
 14 15  1  0
 14 20  2  0
 15 16  2  0
 15 19  1  0
 16 17  1  0
 17 18  2  0
 18 19  1  0
 21 22  1  6
 21 23  1  0
 21 24  1  0
 24 25  2  0
 24 26  1  0
 26 27  1  0
 27 28  1  0
 27 38  1  0
 28 29  2  0
 28 30  1  0
 30 31  1  0
 31 32  2  0
 31 38  1  0
 32 33  1  0
 33 34  1  0
 33 35  2  0
 35 36  1  0
 35 37  1  0
 37 38  2  0
M  END
