
     RDKit          3D

 38 41  0  0  0  0  0  0  0  0999 V2000
   -8.7460    0.0800   -1.0810 C   0  0  0  0  0  0  0  0  0  0  0  0
   -8.5890    0.2190    0.3020 O   0  0  0  0  0  0  0  0  0  0  0  0
   -7.3950    0.4140    0.9690 C   0  0  0  0  0  0  0  0  0  0  0  0
   -6.1600    0.5030    0.3740 C   0  0  0  0  0  0  0  0  0  0  0  0
   -4.9700    0.7020    1.0890 C   0  0  0  0  0  0  0  0  0  0  0  0
   -3.7200    0.8000    0.4130 C   0  0  0  0  0  0  0  0  0  0  0  0
   -2.8960   -0.3050    0.1520 C   0  0  0  0  0  0  0  0  0  0  0  0
   -1.6960    0.0250   -0.5350 C   0  0  0  0  0  0  0  0  0  0  0  0
   -0.6370   -0.5160   -1.0380 C   0  0  0  0  0  0  0  0  0  0  0  0
    0.3530    0.3960   -1.6730 C   0  0  0  0  0  0  0  0  0  0  0  0
    1.4130    0.0200   -2.3510 C   0  0  0  0  0  0  0  0  0  0  0  0
    2.5350    1.2350   -3.0690 S   0  0  0  0  0  0  0  0  0  0  0  0
    2.2160    2.8870   -2.5550 C   0  0  0  0  0  0  0  0  0  0  0  0
    2.7120    3.4040   -1.2720 C   0  0  0  0  0  0  0  0  0  0  0  0
    2.3940    2.6850    0.2500 S   0  0  0  0  0  0  0  0  0  0  0  0
    2.2500    3.6130    1.4270 O   0  0  0  0  0  0  0  0  0  0  0  0
    2.9090    1.0890    0.6690 C   0  0  0  0  0  0  0  0  0  0  0  0
    4.3940    0.8760    0.6310 C   0  0  0  0  0  0  0  0  0  0  0  0
    5.4010    1.7380    0.3630 C   0  0  0  0  0  0  0  0  0  0  0  0
    6.5800    1.0780    0.4680 N   0  0  0  0  0  0  0  0  0  0  0  0
    6.3430   -0.1950    0.8000 C   0  0  0  0  0  0  0  0  0  0  0  0
    7.1910   -1.2630    1.0250 C   0  0  0  0  0  0  0  0  0  0  0  0
    8.6670   -1.1400    0.9200 C   0  0  0  0  0  0  0  0  0  0  0  0
    6.6210   -2.4790    1.3600 C   0  0  0  0  0  0  0  0  0  0  0  0
    5.2510   -2.5660    1.4520 C   0  0  0  0  0  0  0  0  0  0  0  0
    4.4210   -1.5330    1.2350 N   0  0  0  0  0  0  0  0  0  0  0  0
    4.9800   -0.3470    0.9080 C   0  0  0  0  0  0  0  0  0  0  0  0
    1.6530   -1.3930   -2.5630 C   0  0  0  0  0  0  0  0  0  0  0  0
    2.6820   -1.7480   -3.2200 O   0  0  0  0  0  0  0  0  0  0  0  0
    0.7360   -2.3080   -2.0330 N   0  0  0  0  0  0  0  0  0  0  0  0
   -0.2990   -1.9430   -1.1000 C   0  0  0  0  0  0  0  0  0  0  0  0
   -3.3880   -1.5440    0.6380 C   0  0  0  0  0  0  0  0  0  0  0  0
   -2.8240   -2.8710    0.6040 C   0  0  0  0  0  0  0  0  0  0  0  0
   -4.5730   -1.5170    1.2420 O   0  0  0  0  0  0  0  0  0  0  0  0
   -5.0120    0.8210    2.4710 C   0  0  0  0  0  0  0  0  0  0  0  0
   -6.2450    0.7330    3.0730 C   0  0  0  0  0  0  0  0  0  0  0  0
   -7.4100    0.5360    2.3690 C   0  0  0  0  0  0  0  0  0  0  0  0
   -8.6620    0.4470    2.9880 O   0  0  0  0  0  0  0  0  0  0  0  0
  1  2  1  0
  2  3  1  0
  3  4  2  0
  3 37  1  0
  4  5  1  0
  5  6  1  0
  5 35  2  0
  6  7  2  3
  7  8  1  0
  7 32  1  0
  8  9  2  3
  9 10  1  0
  9 31  1  0
 10 11  2  0
 11 12  1  0
 11 28  1  0
 12 13  1  0
 13 14  1  0
 15 14  1  6
 15 16  2  0
 15 17  1  0
 17 18  1  0
 18 19  2  0
 18 27  1  0
 19 20  1  0
 20 21  1  0
 21 22  2  0
 21 27  1  0
 22 23  1  0
 22 24  1  0
 24 25  2  0
 25 26  1  0
 26 27  2  0
 28 29  2  0
 28 30  1  0
 30 31  1  0
 32 33  1  0
 32 34  2  0
 35 36  1  0
 36 37  2  0
 37 38  1  0
M  END
