
     RDKit          3D

 38 41  0  0  0  0  0  0  0  0999 V2000
   -2.3680    0.7440   -3.0030 C   0  0  0  0  0  0  0  0  0  0  0  0
   -1.2530   -0.1540   -2.5960 C   0  0  0  0  0  0  0  0  0  0  0  0
    0.0420    0.2720   -2.7680 C   0  0  0  0  0  0  0  0  0  0  0  0
    1.1350   -0.4980   -2.4220 C   0  0  0  0  0  0  0  0  0  0  0  0
    0.9680   -1.7480   -1.8800 C   0  0  0  0  0  0  0  0  0  0  0  0
    1.9410   -2.6050   -1.4930 O   0  0  0  0  0  0  0  0  0  0  0  0
    3.3100   -2.4170   -1.5080 C   0  0  0  0  0  0  0  0  0  0  0  0
    3.7720   -1.3370   -0.5760 C   0  0  0  0  0  0  0  0  0  0  0  0
    5.2910   -1.2580   -0.7260 C   0  0  0  0  0  0  0  0  0  0  0  0
    5.8180   -0.1770    0.1990 C   0  0  0  0  0  0  0  0  0  0  0  0
    5.0160    0.4650    0.9120 O   0  0  0  0  0  0  0  0  0  0  0  0
    7.2060    0.0750    0.2280 N   0  0  0  0  0  0  0  0  0  0  0  0
    7.8390    1.0480    1.0320 C   0  0  0  0  0  0  0  0  0  0  0  0
    7.2060    2.0020    1.7640 C   0  0  0  0  0  0  0  0  0  0  0  0
    7.9660    2.8870    2.5210 C   0  0  0  0  0  0  0  0  0  0  0  0
    9.2930    2.8580    2.5750 N   0  0  0  0  0  0  0  0  0  0  0  0
    9.9490    1.9320    1.8670 C   0  0  0  0  0  0  0  0  0  0  0  0
   11.2100    1.9140    1.9250 O   0  0  0  0  0  0  0  0  0  0  0  0
    9.2430    1.0440    1.1100 C   0  0  0  0  0  0  0  0  0  0  0  0
   -0.3640   -2.1890   -1.7030 C   0  0  0  0  0  0  0  0  0  0  0  0
   -0.5180   -3.4540   -1.1560 O   0  0  0  0  0  0  0  0  0  0  0  0
   -1.7850   -3.9720   -0.9250 C   0  0  0  0  0  0  0  0  0  0  0  0
   -2.5110   -3.1750    0.0830 C   0  0  0  0  0  0  0  0  0  0  0  0
   -3.7550   -3.3900    0.3150 O   0  0  0  0  0  0  0  0  0  0  0  0
   -1.8570   -2.1610    0.8210 N   0  0  0  0  0  0  0  0  0  0  0  0
   -2.5870   -1.3950    1.8030 C   0  0  0  0  0  0  0  0  0  0  0  0
   -3.4290   -0.3870    1.1180 C   0  0  0  0  0  0  0  0  0  0  0  0
   -2.8460    0.7680    0.6230 C   0  0  0  0  0  0  0  0  0  0  0  0
   -3.5980    1.7260   -0.0080 C   0  0  0  0  0  0  0  0  0  0  0  0
   -4.9760    1.5530   -0.1640 C   0  0  0  0  0  0  0  0  0  0  0  0
   -5.5720    0.4110    0.3220 C   0  0  0  0  0  0  0  0  0  0  0  0
   -4.7890   -0.5270    0.9480 C   0  0  0  0  0  0  0  0  0  0  0  0
   -7.3360    0.2520    0.0950 S   0  0  0  0  0  0  0  0  0  0  0  0
   -8.0350    1.8680    0.5780 C   0  0  2  0  0  0  0  0  0  0  0  0
   -9.5360    1.7740    0.7410 C   0  0  0  0  0  0  0  0  0  0  0  0
   -7.6510    2.8850   -0.4380 C   0  0  0  0  0  0  0  0  0  0  0  0
   -5.9610    2.7690   -0.9810 S   0  0  0  0  0  0  0  0  0  0  0  0
   -1.4320   -1.4000   -2.0570 C   0  0  0  0  0  0  0  0  0  0  0  0
  1  2  1  0
  2  3  2  0
  2 38  1  0
  3  4  1  0
  4  5  2  0
  5  6  1  0
  5 20  1  0
  6  7  1  0
  7  8  1  0
  8  9  1  0
  9 10  1  0
 10 11  2  0
 10 12  1  0
 12 13  1  0
 13 14  1  0
 13 19  2  0
 14 15  2  0
 15 16  1  0
 16 17  1  0
 17 18  2  0
 17 19  1  0
 20 21  1  0
 20 38  2  0
 21 22  1  0
 22 23  1  0
 23 24  2  0
 23 25  1  0
 25 26  1  0
 26 27  1  0
 27 28  2  0
 27 32  1  0
 28 29  1  0
 29 30  2  0
 30 31  1  0
 30 37  1  0
 31 32  2  0
 31 33  1  0
 33 34  1  0
 34 35  1  6
 34 36  1  0
 36 37  1  0
M  END
