
     RDKit          3D

 38 41  0  0  0  0  0  0  0  0999 V2000
   -6.9710   -0.9890    3.5660 C   0  0  0  0  0  0  0  0  0  0  0  0
   -7.7310   -1.6700    2.4500 C   0  0  0  0  0  0  0  0  0  0  0  0
   -7.4490   -0.8110    0.9010 S   0  0  2  0  0  0  0  0  0  0  0  0
   -7.9260    0.6080    1.0200 O   0  0  0  0  0  0  0  0  0  0  0  0
   -8.2600   -1.4750   -0.1720 O   0  0  0  0  0  0  0  0  0  0  0  0
   -5.7240   -0.8480    0.5610 C   0  0  0  0  0  0  0  0  0  0  0  0
   -5.4290   -0.1250   -0.7470 C   0  0  1  0  0  0  0  0  0  0  0  0
   -4.0060   -0.2020   -0.9470 N   0  0  0  0  0  0  0  0  0  0  0  0
   -3.2120    0.9590   -1.0040 C   0  0  0  0  0  0  0  0  0  0  0  0
   -3.7640    2.0780   -0.8760 O   0  0  0  0  0  0  0  0  0  0  0  0
   -1.7720    0.9300   -1.2040 C   0  0  0  0  0  0  0  0  0  0  0  0
   -0.9000   -0.0840   -1.3700 C   0  0  0  0  0  0  0  0  0  0  0  0
    0.4090    0.1770   -1.5390 C   0  0  0  0  0  0  0  0  0  0  0  0
    1.4270   -0.8960   -1.7520 C   0  0  0  0  0  0  0  0  0  0  0  0
    1.1190   -2.1090   -1.7050 O   0  0  0  0  0  0  0  0  0  0  0  0
    0.7930    1.4790   -1.5320 C   0  0  0  0  0  0  0  0  0  0  0  0
    2.1420    2.1210   -1.6690 C   0  0  0  0  0  0  0  0  0  0  0  0
    2.9020    2.0550   -0.4050 C   0  0  0  0  0  0  0  0  0  0  0  0
    2.5520    2.9770    0.5770 C   0  0  0  0  0  0  0  0  0  0  0  0
    3.1950    3.0290    1.7950 C   0  0  0  0  0  0  0  0  0  0  0  0
    4.2270    2.1160    2.0270 C   0  0  0  0  0  0  0  0  0  0  0  0
    4.9590    2.1230    3.3240 C   0  0  0  0  0  0  0  0  0  0  0  0
    4.6060    1.1870    1.0850 C   0  0  0  0  0  0  0  0  0  0  0  0
    5.6410    0.2720    1.3560 N   0  0  0  0  0  0  0  0  0  0  0  0
    6.1760   -0.6710    0.4250 C   0  0  1  0  0  0  0  0  0  0  0  0
    6.9160    0.0010   -0.7060 C   0  0  0  0  0  0  0  0  0  0  0  0
    8.3940    0.1420   -0.4040 C   0  0  0  0  0  0  0  0  0  0  0  0
    9.0280   -1.0520    0.2050 C   0  0  0  0  0  0  0  0  0  0  0  0
    8.1000   -2.0880    0.2710 O   0  0  0  0  0  0  0  0  0  0  0  0
    7.0930   -1.6260    1.1550 C   0  0  0  0  0  0  0  0  0  0  0  0
    3.9260    1.1730   -0.1350 C   0  0  0  0  0  0  0  0  0  0  0  0
   -0.7180    2.3850   -1.2840 S   0  0  0  0  0  0  0  0  0  0  0  0
   -6.1720   -0.8130   -1.8310 C   0  0  0  0  0  0  0  0  0  0  0  0
   -7.2700   -0.1940   -2.4070 C   0  0  0  0  0  0  0  0  0  0  0  0
   -7.9500   -0.8250   -3.4040 C   0  0  0  0  0  0  0  0  0  0  0  0
   -7.5850   -2.0440   -3.8530 N   0  0  0  0  0  0  0  0  0  0  0  0
   -6.5180   -2.6400   -3.2900 C   0  0  0  0  0  0  0  0  0  0  0  0
   -5.8030   -2.0430   -2.2830 C   0  0  0  0  0  0  0  0  0  0  0  0
  1  2  1  0
  3  2  1  1
  3  4  2  0
  3  5  2  0
  3  6  1  0
  7  6  1  1
  7  8  1  0
  7 33  1  0
  8  9  1  0
  9 10  2  0
  9 11  1  0
 11 12  2  0
 11 32  1  0
 12 13  1  0
 13 14  1  0
 13 16  2  0
 14 15  2  0
 16 17  1  0
 16 32  1  0
 17 18  1  0
 18 19  2  0
 18 31  1  0
 19 20  1  0
 20 21  2  0
 21 22  1  0
 21 23  1  0
 23 24  1  0
 23 31  2  0
 25 24  1  1
 25 26  1  0
 25 30  1  0
 26 27  1  0
 27 28  1  0
 28 29  1  0
 29 30  1  0
 33 34  2  0
 33 38  1  0
 34 35  1  0
 35 36  2  0
 36 37  1  0
 37 38  2  0
M  END
