
     RDKit          3D

 38 41  0  0  0  0  0  0  0  0999 V2000
   12.2270   -1.2820   -3.0560 C   0  0  0  0  0  0  0  0  0  0  0  0
   12.2150   -0.1810   -2.1710 O   0  0  0  0  0  0  0  0  0  0  0  0
   11.0530    0.1580   -1.4950 C   0  0  0  0  0  0  0  0  0  0  0  0
   10.9880    1.2210   -0.6220 C   0  0  0  0  0  0  0  0  0  0  0  0
    9.8180    1.5290    0.0310 C   0  0  0  0  0  0  0  0  0  0  0  0
    8.6400    0.7890   -0.1500 C   0  0  0  0  0  0  0  0  0  0  0  0
    7.5090    1.2110    0.5880 N   0  0  0  0  0  0  0  0  0  0  0  0
    6.1890    0.7020    0.4640 C   0  0  0  0  0  0  0  0  0  0  0  0
    5.9590   -0.2060   -0.3650 O   0  0  0  0  0  0  0  0  0  0  0  0
    5.1240    1.2750    1.3330 C   0  0  0  0  0  0  0  0  0  0  0  0
    3.7430    0.8260    1.0280 C   0  0  0  0  0  0  0  0  0  0  0  0
    3.1360    1.2690   -0.5680 S   0  0  2  0  0  0  0  0  0  0  0  0
    4.0590    0.7780   -1.6880 O   0  0  0  0  0  0  0  0  0  0  0  0
    3.3090    2.8090   -0.6790 O   0  0  0  0  0  0  0  0  0  0  0  0
    1.6110    0.7800   -0.8910 N   0  0  0  0  0  0  0  0  0  0  0  0
    0.5610    0.2640   -0.6550 C   0  0  0  0  0  0  0  0  0  0  0  0
    0.0540   -0.4160    0.5550 C   0  0  0  0  0  0  0  0  0  0  0  0
   -1.1810   -0.9850    0.7900 C   0  0  0  0  0  0  0  0  0  0  0  0
   -1.3930   -1.5450    1.9690 C   0  0  0  0  0  0  0  0  0  0  0  0
   -2.7130   -2.1610    2.3380 C   0  0  0  0  0  0  0  0  0  0  0  0
   -2.7640   -3.0940    3.1610 O   0  0  0  0  0  0  0  0  0  0  0  0
   -3.8910   -1.6390    1.7140 C   0  0  0  0  0  0  0  0  0  0  0  0
   -4.0140   -0.3610    1.2400 C   0  0  0  0  0  0  0  0  0  0  0  0
   -5.1800    0.0300    0.6310 C   0  0  0  0  0  0  0  0  0  0  0  0
   -6.2680   -0.7930    0.4570 C   0  0  0  0  0  0  0  0  0  0  0  0
   -7.5220   -0.3620   -0.2030 C   0  0  2  0  0  0  0  0  0  0  0  0
   -7.2840    0.0320   -1.6510 C   0  0  0  0  0  0  0  0  0  0  0  0
   -8.5620    0.6730   -2.1480 C   0  0  0  0  0  0  0  0  0  0  0  0
   -9.7120    0.4930   -1.1790 C   0  0  0  0  0  0  0  0  0  0  0  0
   -9.4440    1.0950    0.1700 C   0  0  1  0  0  0  0  0  0  0  0  0
  -10.1990    0.4080    1.2230 N   0  0  0  0  0  0  0  0  0  0  0  0
   -7.9840    0.9200    0.4900 C   0  0  0  0  0  0  0  0  0  0  0  0
   -6.1300   -2.0780    0.9410 C   0  0  0  0  0  0  0  0  0  0  0  0
   -4.9640   -2.4980    1.5590 C   0  0  0  0  0  0  0  0  0  0  0  0
   -0.4100   -1.5560    2.9210 C   0  0  0  0  0  0  0  0  0  0  0  0
    0.9450   -0.6810    2.0460 S   0  0  0  0  0  0  0  0  0  0  0  0
    8.6980   -0.2560   -1.0060 C   0  0  0  0  0  0  0  0  0  0  0  0
    9.8930   -0.5590   -1.6640 C   0  0  0  0  0  0  0  0  0  0  0  0
  1  2  1  0
  2  3  1  0
  3  4  2  0
  3 38  1  0
  4  5  1  0
  5  6  2  0
  6  7  1  0
  6 37  1  0
  7  8  1  0
  8  9  2  0
  8 10  1  0
 10 11  1  0
 12 11  1  1
 12 13  2  0
 12 14  2  0
 12 15  1  0
 15 16  2  3
 16 17  1  0
 17 18  2  0
 17 36  1  0
 18 19  1  0
 19 20  1  0
 19 35  2  0
 20 21  2  0
 20 22  1  0
 22 23  2  0
 22 34  1  0
 23 24  1  0
 24 25  2  0
 26 25  1  1
 25 33  1  0
 26 27  1  0
 26 32  1  0
 27 28  1  0
 28 29  1  0
 29 30  1  0
 30 31  1  1
 30 32  1  0
 33 34  2  0
 35 36  1  0
 37 38  2  0
M  END
