
     RDKit          3D

 38 42  0  0  0  0  0  0  0  0999 V2000
    7.1190    3.1640    0.3830 C   0  0  0  0  0  0  0  0  0  0  0  0
    7.5410    1.8380    0.1210 O   0  0  0  0  0  0  0  0  0  0  0  0
    6.5770    0.8640   -0.0930 C   0  0  0  0  0  0  0  0  0  0  0  0
    5.2310    1.1150   -0.0650 C   0  0  0  0  0  0  0  0  0  0  0  0
    4.2760    0.1370   -0.2800 C   0  0  0  0  0  0  0  0  0  0  0  0
    2.8400    0.4730   -0.2370 C   0  0  0  0  0  0  0  0  0  0  0  0
    1.8440   -0.4460   -0.4410 C   0  0  0  0  0  0  0  0  0  0  0  0
    0.5090   -0.0940   -0.3930 C   0  0  0  0  0  0  0  0  0  0  0  0
    0.1600    1.1850   -0.1400 C   0  0  0  0  0  0  0  0  0  0  0  0
    1.2090    2.0990    0.0630 C   0  0  0  0  0  0  0  0  0  0  0  0
    0.9310    3.3100    0.3040 O   0  0  0  0  0  0  0  0  0  0  0  0
    2.4480    1.7020    0.0050 O   0  0  0  0  0  0  0  0  0  0  0  0
   -1.2430    1.7120   -0.0720 C   0  0  0  0  0  0  0  0  0  0  0  0
   -2.2160    0.6120   -0.3010 C   0  0  2  0  0  0  0  0  0  0  0  0
   -2.3310    0.5060   -1.7150 O   0  0  0  0  0  0  0  0  0  0  0  0
   -3.6110    0.8930    0.1910 C   0  0  1  0  0  0  0  0  0  0  0  0
   -3.6840    1.0720    1.6930 C   0  0  0  0  0  0  0  0  0  0  0  0
   -4.1510    2.1410   -0.3740 C   0  0  0  0  0  0  0  0  0  0  0  0
   -3.4090    3.0310   -0.8050 O   0  0  0  0  0  0  0  0  0  0  0  0
   -5.5910    2.3280   -0.4240 C   0  0  0  0  0  0  0  0  0  0  0  0
   -6.4580    1.3320   -0.2890 C   0  0  0  0  0  0  0  0  0  0  0  0
   -5.9590   -0.0410   -0.0780 C   0  0  1  0  0  0  0  0  0  0  0  0
   -6.5020   -0.6320    1.2170 C   0  0  0  0  0  0  0  0  0  0  0  0
   -6.6670   -0.8650   -1.1750 C   0  0  0  0  0  0  0  0  0  0  0  0
   -4.5050   -0.2340   -0.2750 C   0  0  1  0  0  0  0  0  0  0  0  0
   -4.3080   -0.3230   -1.6770 O   0  0  0  0  0  0  0  0  0  0  0  0
   -4.0600   -1.5490    0.2790 C   0  0  0  0  0  0  0  0  0  0  0  0
   -2.6880   -1.8060   -0.3570 C   0  0  0  0  0  0  0  0  0  0  0  0
   -1.7240   -0.7470    0.1280 C   0  0  2  0  0  0  0  0  0  0  0  0
   -1.4390   -0.9120    1.5760 C   0  0  0  0  0  0  0  0  0  0  0  0
   -0.5120   -1.0090   -0.5950 O   0  0  0  0  0  0  0  0  0  0  0  0
    4.7420   -1.1300   -0.5290 C   0  0  0  0  0  0  0  0  0  0  0  0
    6.0980   -1.4150   -0.5630 C   0  0  0  0  0  0  0  0  0  0  0  0
    6.5590   -2.6930   -0.8130 O   0  0  0  0  0  0  0  0  0  0  0  0
    5.6180   -3.7180   -1.0370 C   0  0  0  0  0  0  0  0  0  0  0  0
    7.0230   -0.4200   -0.3450 C   0  0  0  0  0  0  0  0  0  0  0  0
    8.4020   -0.6810   -0.3730 O   0  0  0  0  0  0  0  0  0  0  0  0
    9.1180   -1.0550    0.7750 C   0  0  0  0  0  0  0  0  0  0  0  0
  1  2  1  0
  2  3  1  0
  3  4  2  0
  3 36  1  0
  4  5  1  0
  5  6  1  0
  5 32  2  0
  6  7  2  0
  6 12  1  0
  7  8  1  0
  8  9  2  0
  8 31  1  0
  9 10  1  0
  9 13  1  0
 10 11  2  0
 10 12  1  0
 13 14  1  0
 14 15  1  6
 14 16  1  0
 14 29  1  0
 16 17  1  1
 16 18  1  0
 16 25  1  0
 18 19  2  0
 18 20  1  0
 20 21  2  0
 21 22  1  0
 22 23  1  1
 22 24  1  0
 22 25  1  0
 25 26  1  6
 25 27  1  0
 27 28  1  0
 28 29  1  0
 29 30  1  1
 29 31  1  0
 32 33  1  0
 33 34  1  0
 33 36  2  0
 34 35  1  0
 36 37  1  0
 37 38  1  0
M  END
