
     RDKit          3D

 38 41  0  0  0  0  0  0  0  0999 V2000
    8.2850   -0.7960    3.8330 C   0  0  0  0  0  0  0  0  0  0  0  0
    8.2390   -0.8970    2.3370 C   0  0  0  0  0  0  0  0  0  0  0  0
    6.8470   -0.8620    1.8060 C   0  0  0  0  0  0  0  0  0  0  0  0
    6.3540    0.2880    1.2160 C   0  0  0  0  0  0  0  0  0  0  0  0
    5.0740    0.3590    0.7160 C   0  0  0  0  0  0  0  0  0  0  0  0
    4.2220   -0.7310    0.7860 C   0  0  0  0  0  0  0  0  0  0  0  0
    2.8540   -0.6630    0.2580 C   0  0  0  0  0  0  0  0  0  0  0  0
    2.1610   -1.6820    0.3540 O   0  0  0  0  0  0  0  0  0  0  0  0
    2.3470    0.4740   -0.3220 O   0  0  0  0  0  0  0  0  0  0  0  0
    1.0330    0.4980   -0.8230 C   0  0  0  0  0  0  0  0  0  0  0  0
    0.7910   -0.4400   -1.9450 C   0  0  0  0  0  0  0  0  0  0  0  0
   -0.4790   -0.4760   -2.5070 O   0  0  0  0  0  0  0  0  0  0  0  0
   -1.1190    0.5690   -3.1050 C   0  0  0  0  0  0  0  0  0  0  0  0
   -2.0130    1.3420   -2.4440 C   0  0  0  0  0  0  0  0  0  0  0  0
   -2.3680    1.1950   -1.0580 C   0  0  0  0  0  0  0  0  0  0  0  0
   -3.5980    0.9190   -0.6480 C   0  0  0  0  0  0  0  0  0  0  0  0
   -4.8210    0.6990   -1.3800 C   0  0  0  0  0  0  0  0  0  0  0  0
   -5.0000    0.6670   -2.8510 C   0  0  0  0  0  0  0  0  0  0  0  0
   -5.7950    0.4910   -0.4700 C   0  0  0  0  0  0  0  0  0  0  0  0
   -5.2280    0.5700    0.8180 N   0  0  0  0  0  0  0  0  0  0  0  0
   -3.9820    0.8110    0.7900 C   0  0  0  0  0  0  0  0  0  0  0  0
   -2.8290    1.0220    2.1360 S   0  0  0  0  0  0  0  0  0  0  0  0
   -3.6510    0.7140    3.7060 C   0  0  0  0  0  0  0  0  0  0  0  0
   -4.0070   -0.7070    3.9530 C   0  0  1  0  0  0  0  0  0  0  0  0
   -4.8290   -0.7210    5.6170 S   0  0  0  0  0  0  0  0  0  0  0  0
   -6.5580   -0.5950    5.0080 C   0  0  0  0  0  0  0  0  0  0  0  0
   -6.3540   -0.5900    3.5760 N   0  0  0  0  0  0  0  0  0  0  0  0
   -5.1590   -1.2260    3.1780 C   0  0  0  0  0  0  0  0  0  0  0  0
   -5.0280   -2.1310    2.2820 O   0  0  0  0  0  0  0  0  0  0  0  0
   -2.6160    2.3970   -3.1460 C   0  0  0  0  0  0  0  0  0  0  0  0
   -2.3090    2.6380   -4.4680 C   0  0  0  0  0  0  0  0  0  0  0  0
   -1.3860    1.8220   -5.1190 C   0  0  0  0  0  0  0  0  0  0  0  0
   -0.7900    0.7930   -4.4520 C   0  0  0  0  0  0  0  0  0  0  0  0
    0.1370   -0.0320   -5.0910 O   0  0  0  0  0  0  0  0  0  0  0  0
    0.4470    0.2160   -6.4340 C   0  0  0  0  0  0  0  0  0  0  0  0
    4.7100   -1.8760    1.3730 C   0  0  0  0  0  0  0  0  0  0  0  0
    6.0040   -1.9490    1.8790 C   0  0  0  0  0  0  0  0  0  0  0  0
    6.4990   -3.1400    2.4850 N   0  0  0  0  0  0  0  0  0  0  0  0
  1  2  1  0
  2  3  1  0
  3  4  2  0
  3 37  1  0
  4  5  1  0
  5  6  2  0
  6  7  1  0
  6 36  1  0
  7  8  2  0
  7  9  1  0
  9 10  1  0
 10 11  1  0
 11 12  1  0
 12 13  1  0
 13 14  1  0
 13 33  2  0
 14 15  1  0
 14 30  2  0
 15 16  2  3
 16 17  1  0
 16 21  1  0
 17 18  1  0
 17 19  2  0
 19 20  1  0
 20 21  2  0
 21 22  1  0
 22 23  1  0
 24 23  1  6
 24 25  1  0
 24 28  1  0
 25 26  1  0
 26 27  1  0
 27 28  1  0
 28 29  2  0
 30 31  1  0
 31 32  2  0
 32 33  1  0
 33 34  1  0
 34 35  1  0
 36 37  2  0
 37 38  1  0
M  END
