
     RDKit          3D

 30 33  0  0  0  0  0  0  0  0999 V2000
    7.5450    2.9650   -0.7520 C   0  0  0  0  0  0  0  0  0  0  0  0
    6.3560    2.2980   -0.1860 C   0  0  0  0  0  0  0  0  0  0  0  0
    5.3840    1.7490    0.2720 C   0  0  0  0  0  0  0  0  0  0  0  0
    4.2130    1.1160    0.8200 C   0  0  0  0  0  0  0  0  0  0  0  0
    4.2570    0.4450    2.0230 C   0  0  0  0  0  0  0  0  0  0  0  0
    3.1140   -0.1640    2.5420 C   0  0  0  0  0  0  0  0  0  0  0  0
    1.9280   -0.0920    1.8390 C   0  0  0  0  0  0  0  0  0  0  0  0
    1.8480    0.5650    0.6420 C   0  0  0  0  0  0  0  0  0  0  0  0
    0.6220    0.6410   -0.1050 C   0  0  0  0  0  0  0  0  0  0  0  0
   -0.1490   -0.3010   -0.5840 C   0  0  0  0  0  0  0  0  0  0  0  0
   -0.0780   -1.7400   -0.5650 C   0  0  0  0  0  0  0  0  0  0  0  0
   -1.1670   -2.2780   -1.1610 C   0  0  0  0  0  0  0  0  0  0  0  0
   -1.5350   -3.6670   -1.3790 C   0  0  0  0  0  0  0  0  0  0  0  0
   -0.5290   -4.5390   -1.7000 O   0  0  0  0  0  0  0  0  0  0  0  0
    0.2360   -4.6840   -0.5160 C   0  0  0  0  0  0  0  0  0  0  0  0
    1.3020   -3.7490   -0.6570 N   0  0  0  0  0  0  0  0  0  0  0  0
    1.0730   -2.4680   -0.0060 C   0  0  0  0  0  0  0  0  0  0  0  0
   -2.0070   -1.1770   -1.6040 C   0  0  0  0  0  0  0  0  0  0  0  0
   -3.1290   -1.2940   -2.2160 O   0  0  0  0  0  0  0  0  0  0  0  0
   -1.3900    0.0290   -1.2530 N   0  0  0  0  0  0  0  0  0  0  0  0
   -1.9550    1.3300   -1.5510 C   0  0  0  0  0  0  0  0  0  0  0  0
   -2.9130    1.7560   -0.4880 C   0  0  0  0  0  0  0  0  0  0  0  0
   -4.2390    1.3880   -0.5170 C   0  0  0  0  0  0  0  0  0  0  0  0
   -5.0880    1.8010    0.4710 C   0  0  0  0  0  0  0  0  0  0  0  0
   -6.5360    1.4330    0.4920 C   0  0  0  0  0  0  0  0  0  0  0  0
   -4.6450    2.5880    1.5130 C   0  0  0  0  0  0  0  0  0  0  0  0
   -3.3270    2.9550    1.5440 C   0  0  0  0  0  0  0  0  0  0  0  0
   -2.9040    3.7240    2.5660 F   0  0  0  0  0  0  0  0  0  0  0  0
   -2.4680    2.5320    0.5360 C   0  0  0  0  0  0  0  0  0  0  0  0
    3.0010    1.1710    0.1340 C   0  0  0  0  0  0  0  0  0  0  0  0
  1  2  1  0
  2  3  3  0
  3  4  1  0
  4  5  2  0
  4 30  1  0
  5  6  1  0
  6  7  2  0
  7  8  1  0
  8  9  1  0
  8 30  2  0
  9 10  2  3
 10 11  1  0
 10 20  1  0
 11 12  2  0
 11 17  1  0
 12 13  1  0
 12 18  1  0
 13 14  1  0
 14 15  1  0
 15 16  1  0
 16 17  1  0
 18 19  2  0
 18 20  1  0
 20 21  1  0
 21 22  1  0
 22 23  2  0
 22 29  1  0
 23 24  1  0
 24 25  1  0
 24 26  2  0
 26 27  1  0
 27 28  1  0
 27 29  2  0
M  CHG  1  16   1
M  END
