
     RDKit          3D

 29 31  0  0  0  0  0  0  0  0999 V2000
    6.5260    1.5960   -0.0200 O   0  0  0  0  0  0  0  0  0  0  0  0
    5.2780    1.2620   -0.0240 C   0  0  0  0  0  0  0  0  0  0  0  0
    4.4070    2.3050   -0.0150 O   0  0  0  0  0  0  0  0  0  0  0  0
    4.9320   -0.1520   -0.0340 C   0  0  0  0  0  0  0  0  0  0  0  0
    5.9840   -1.0880    0.0100 C   0  0  0  0  0  0  0  0  0  0  0  0
    5.7780   -2.4400    0.0400 C   0  0  0  0  0  0  0  0  0  0  0  0
    4.4880   -2.9060    0.0250 C   0  0  0  0  0  0  0  0  0  0  0  0
    3.4340   -2.0230   -0.0200 C   0  0  0  0  0  0  0  0  0  0  0  0
    3.6580   -0.6470   -0.0490 C   0  0  0  0  0  0  0  0  0  0  0  0
    2.5380    0.2450   -0.2010 N   0  0  0  0  0  0  0  0  0  0  0  0
    1.2180   -0.0870    0.1960 C   0  0  0  0  0  0  0  0  0  0  0  0
    1.1020   -0.8970    1.3140 C   0  0  0  0  0  0  0  0  0  0  0  0
   -0.1310   -1.1650    1.8640 C   0  0  0  0  0  0  0  0  0  0  0  0
   -1.2510   -0.6160    1.2910 C   0  0  0  0  0  0  0  0  0  0  0  0
   -1.1800    0.2090    0.1600 C   0  0  0  0  0  0  0  0  0  0  0  0
   -2.3490    0.8530   -0.3170 N   0  0  0  0  0  0  0  0  0  0  0  0
   -3.6560    0.3390   -0.1780 C   0  0  0  0  0  0  0  0  0  0  0  0
   -3.8450   -1.0430   -0.0970 C   0  0  0  0  0  0  0  0  0  0  0  0
   -5.0620   -1.6600   -0.0660 C   0  0  0  0  0  0  0  0  0  0  0  0
   -6.1700   -0.8480   -0.1210 C   0  0  0  0  0  0  0  0  0  0  0  0
   -6.0600    0.5140   -0.2030 C   0  0  0  0  0  0  0  0  0  0  0  0
   -4.7650    1.1100   -0.2300 C   0  0  0  0  0  0  0  0  0  0  0  0
   -4.7120    2.5580   -0.2590 C   0  0  0  0  0  0  0  0  0  0  0  0
   -5.7970    3.2320   -0.3230 O   0  0  0  0  0  0  0  0  0  0  0  0
   -3.5360    3.2620   -0.2180 O   0  0  0  0  0  0  0  0  0  0  0  0
    0.0780    0.4500   -0.3630 C   0  0  0  0  0  0  0  0  0  0  0  0
    0.1970    1.1940   -1.6000 C   0  0  0  0  0  0  0  0  0  0  0  0
    1.3580    1.3140   -2.1240 O   0  0  0  0  0  0  0  0  0  0  0  0
   -0.8450    1.7990   -2.2890 O   0  0  0  0  0  0  0  0  0  0  0  0
  1  2  2  0
  2  3  1  0
  2  4  1  0
  4  5  2  0
  4  9  1  0
  5  6  1  0
  6  7  2  0
  7  8  1  0
  8  9  2  0
  9 10  1  0
 10 11  1  0
 11 12  2  0
 11 26  1  0
 12 13  1  0
 13 14  2  0
 14 15  1  0
 15 16  1  0
 15 26  2  0
 16 17  1  0
 17 18  2  0
 17 22  1  0
 18 19  1  0
 19 20  2  0
 20 21  1  0
 21 22  2  0
 22 23  1  0
 23 24  2  0
 23 25  1  0
 26 27  1  0
 27 28  2  0
 27 29  1  0
M  END
