
     RDKit          3D

 31 33  0  0  0  0  0  0  0  0999 V2000
   -8.2160   -0.7540    0.5390 C   0  0  0  0  0  0  0  0  0  0  0  0
   -7.4680    0.2800    0.2640 C   0  0  0  0  0  0  0  0  0  0  0  0
   -7.9080    1.6260    0.6890 C   0  0  0  0  0  0  0  0  0  0  0  0
   -9.4760    1.5440    1.5520 Cl  0  0  0  0  0  0  0  0  0  0  0  0
   -6.2930    0.1330   -0.4070 O   0  0  0  0  0  0  0  0  0  0  0  0
   -5.0610   -0.0900    0.2030 C   0  0  0  0  0  0  0  0  0  0  0  0
   -5.0660   -0.1540    1.4570 O   0  0  0  0  0  0  0  0  0  0  0  0
   -3.7970   -0.2440   -0.5960 C   0  0  2  0  0  0  0  0  0  0  0  0
   -4.0410   -1.3430   -1.5800 C   0  0  0  0  0  0  0  0  0  0  0  0
   -2.7360   -0.4620    0.3320 N   0  0  1  0  0  0  0  0  0  0  0  0
   -2.9400   -1.6930    1.0280 C   0  0  0  0  0  0  0  0  0  0  0  0
   -1.4090   -0.3800   -0.2480 C   0  0  1  0  0  0  0  0  0  0  0  0
   -1.0280    1.0050   -0.6320 C   0  0  0  0  0  0  0  0  0  0  0  0
   -0.0230    1.5600    0.3090 C   0  0  0  0  0  0  0  0  0  0  0  0
    1.1410    0.8120    0.5870 N   0  0  2  0  0  0  0  0  0  0  0  0
    2.2560    1.2250   -0.2270 C   0  0  0  0  0  0  0  0  0  0  0  0
    3.1420    0.1940   -0.8110 C   0  0  0  0  0  0  0  0  0  0  0  0
    4.3220    0.0640   -0.2130 C   0  0  0  0  0  0  0  0  0  0  0  0
    5.4320   -0.8860   -0.5630 C   0  0  2  0  0  0  0  0  0  0  0  0
    6.7260   -0.2220   -0.1890 C   0  0  0  0  0  0  0  0  0  0  0  0
    6.8680   -0.0930    1.3170 C   0  0  0  0  0  0  0  0  0  0  0  0
    5.5400    0.2170    1.9630 C   0  0  0  0  0  0  0  0  0  0  0  0
    4.6480    0.8510    0.9240 N   0  0  0  0  0  0  0  0  0  0  0  0
    4.2010    2.1850    1.0670 C   0  0  0  0  0  0  0  0  0  0  0  0
    5.4660   -1.2240   -2.3330 S   0  0  0  0  0  0  0  0  0  0  0  0
    3.6870   -1.5140   -2.6380 C   0  0  0  0  0  0  0  0  0  0  0  0
    3.2940   -2.4480   -3.3460 O   0  0  0  0  0  0  0  0  0  0  0  0
    2.8390   -0.5700   -1.9870 N   0  0  0  0  0  0  0  0  0  0  0  0
    1.5490   -0.3460   -2.6730 C   0  0  0  0  0  0  0  0  0  0  0  0
    0.9270   -0.5800    0.7510 C   0  0  0  0  0  0  0  0  0  0  0  0
   -0.4220   -1.1310    0.5560 C   0  0  0  0  0  0  0  0  0  0  0  0
  1  2  2  0
  2  3  1  0
  2  5  1  0
  3  4  1  0
  5  6  1  0
  6  7  2  0
  6  8  1  0
  8  9  1  6
  8 10  1  0
 10 11  1  6
 10 12  1  0
 12 13  1  1
 12 31  1  0
 13 14  1  0
 14 15  1  0
 15 16  1  6
 15 30  1  0
 16 17  1  0
 17 18  2  0
 17 28  1  0
 18 19  1  0
 18 23  1  0
 19 20  1  6
 19 25  1  0
 20 21  1  0
 21 22  1  0
 22 23  1  0
 23 24  1  0
 25 26  1  0
 26 27  2  0
 26 28  1  0
 28 29  1  0
 30 31  1  0
M  CHG  2  10   1  15   1
M  END
