
     RDKit          3D

 30 34  0  0  0  0  0  0  0  0999 V2000
    5.7890   -1.0770   -1.0380 C   0  0  0  0  0  0  0  0  0  0  0  0
    4.4620   -1.5280   -1.3490 N   0  0  0  0  0  0  0  0  0  0  0  0
    3.7110   -1.9830   -0.2210 C   0  0  0  0  0  0  0  0  0  0  0  0
    2.3230   -1.3670   -0.1690 C   0  0  0  0  0  0  0  0  0  0  0  0
    2.5150    0.1280   -0.1710 C   0  0  2  0  0  0  0  0  0  0  0  0
    1.2290    0.8720    0.1220 C   0  0  1  0  0  0  0  0  0  0  0  0
    0.2410    0.5890   -0.8260 N   0  0  0  0  0  0  0  0  0  0  0  0
   -0.9360   -0.1240   -0.3660 C   0  0  0  0  0  0  0  0  0  0  0  0
   -2.1460    0.6750   -0.4110 C   0  0  0  0  0  0  0  0  0  0  0  0
   -2.2050    2.0770   -0.5860 C   0  0  0  0  0  0  0  0  0  0  0  0
   -3.4310    2.5050   -0.3990 O   0  0  0  0  0  0  0  0  0  0  0  0
   -4.2240    1.5260   -0.1110 C   0  0  0  0  0  0  0  0  0  0  0  0
   -5.5850    1.5450    0.1780 C   0  0  0  0  0  0  0  0  0  0  0  0
   -6.1850    0.7150    1.1280 C   0  0  0  0  0  0  0  0  0  0  0  0
   -5.7840   -0.5340    1.6230 C   0  0  0  0  0  0  0  0  0  0  0  0
   -6.2160   -0.9800    2.6740 O   0  0  0  0  0  0  0  0  0  0  0  0
   -4.8650   -1.3330    0.9280 C   0  0  0  0  0  0  0  0  0  0  0  0
   -5.1390   -2.6700    1.0820 C   0  0  0  0  0  0  0  0  0  0  0  0
   -4.4030   -3.5940    0.3610 C   0  0  0  0  0  0  0  0  0  0  0  0
   -4.6520   -4.9200    0.4980 F   0  0  0  0  0  0  0  0  0  0  0  0
   -3.3960   -3.1560   -0.5130 C   0  0  0  0  0  0  0  0  0  0  0  0
   -3.1070   -1.8070   -0.6810 C   0  0  0  0  0  0  0  0  0  0  0  0
   -3.8570   -0.9450    0.0580 C   0  0  0  0  0  0  0  0  0  0  0  0
   -3.4330    0.3540   -0.1220 C   0  0  0  0  0  0  0  0  0  0  0  0
    0.9340    0.7600    1.5670 C   0  0  0  0  0  0  0  0  0  0  0  0
    2.1620    1.4480    2.1930 C   0  0  0  0  0  0  0  0  0  0  0  0
    2.6270    2.4490    1.1920 C   0  0  0  0  0  0  0  0  0  0  0  0
    1.6200    2.3660    0.0560 C   0  0  0  0  0  0  0  0  0  0  0  0
    3.1080    0.5230   -1.5140 C   0  0  0  0  0  0  0  0  0  0  0  0
    3.7760   -0.6190   -2.2100 C   0  0  0  0  0  0  0  0  0  0  0  0
  1  2  1  0
  2  3  1  0
  2 30  1  0
  3  4  1  0
  5  4  1  6
  5  6  1  0
  5 29  1  0
  6  7  1  6
  6 25  1  0
  6 28  1  0
  7  8  1  0
  8  9  1  0
  9 10  2  0
  9 24  1  0
 10 11  1  0
 11 12  1  0
 12 13  1  0
 12 24  2  0
 13 14  2  0
 14 15  1  0
 15 16  2  0
 15 17  1  0
 17 18  2  0
 17 23  1  0
 18 19  1  0
 19 20  1  0
 19 21  2  0
 21 22  1  0
 22 23  2  0
 23 24  1  0
 25 26  1  0
 26 27  1  0
 27 28  1  0
 29 30  1  0
M  CHG  1   7   1
M  END
