
     RDKit          3D

 30 33  0  0  0  0  0  0  0  0999 V2000
    9.8430   -0.7490   -0.1300 C   0  0  0  0  0  0  0  0  0  0  0  0
    9.2670    0.4940    0.5470 C   0  0  0  0  0  0  0  0  0  0  0  0
    7.7900    0.3860    0.4780 C   0  0  0  0  0  0  0  0  0  0  0  0
    7.1310    0.9070   -0.5960 C   0  0  0  0  0  0  0  0  0  0  0  0
    5.7410    0.8420   -0.7290 C   0  0  0  0  0  0  0  0  0  0  0  0
    4.9690    0.2320    0.2460 C   0  0  0  0  0  0  0  0  0  0  0  0
    3.5130    0.1920    0.1190 C   0  0  0  0  0  0  0  0  0  0  0  0
    2.8680    0.9290   -0.8660 C   0  0  0  0  0  0  0  0  0  0  0  0
    1.4730    0.9360   -0.9960 C   0  0  0  0  0  0  0  0  0  0  0  0
    0.7150    0.2000   -0.1360 C   0  0  0  0  0  0  0  0  0  0  0  0
   -0.7580    0.1660   -0.2100 C   0  0  0  0  0  0  0  0  0  0  0  0
   -1.2720    1.0540   -0.9280 O   0  0  0  0  0  0  0  0  0  0  0  0
   -1.5390   -0.7650    0.4520 N   0  0  0  0  0  0  0  0  0  0  0  0
   -2.9330   -0.8330    0.4180 C   0  0  0  0  0  0  0  0  0  0  0  0
   -3.5770   -1.9690    0.9630 C   0  0  0  0  0  0  0  0  0  0  0  0
   -4.9360   -2.0970    0.9740 C   0  0  0  0  0  0  0  0  0  0  0  0
   -5.7520   -1.1220    0.4540 C   0  0  0  0  0  0  0  0  0  0  0  0
   -5.1440   -0.0200   -0.0750 C   0  0  0  0  0  0  0  0  0  0  0  0
   -3.7550    0.1360   -0.1000 C   0  0  0  0  0  0  0  0  0  0  0  0
   -5.9880    1.0410   -0.6350 C   0  0  1  0  0  0  0  0  0  0  0  0
   -6.4160    2.0370    0.4400 C   0  0  0  0  0  0  0  0  0  0  0  0
   -5.2630    1.8060   -1.5760 O   0  0  0  0  0  0  0  0  0  0  0  0
   -7.2250    0.5600   -1.3440 C   0  0  0  0  0  0  0  0  0  0  0  0
   -7.6660   -0.8210   -0.9570 C   0  0  0  0  0  0  0  0  0  0  0  0
   -7.2280   -1.2140    0.4390 C   0  0  0  0  0  0  0  0  0  0  0  0
    1.3520   -0.5240    0.8320 C   0  0  0  0  0  0  0  0  0  0  0  0
    2.7180   -0.5120    0.9350 N   0  0  0  0  0  0  0  0  0  0  0  0
    5.6320   -0.2860    1.3140 C   0  0  0  0  0  0  0  0  0  0  0  0
    4.9920   -0.8980    2.3520 F   0  0  0  0  0  0  0  0  0  0  0  0
    7.0350   -0.2200    1.4470 C   0  0  0  0  0  0  0  0  0  0  0  0
  1  2  1  0
  2  3  1  0
  3  4  2  0
  3 30  1  0
  4  5  1  0
  5  6  2  0
  6  7  1  0
  6 28  1  0
  7  8  2  0
  7 27  1  0
  8  9  1  0
  9 10  2  0
 10 11  1  0
 10 26  1  0
 11 12  2  0
 11 13  1  0
 13 14  1  0
 14 15  2  0
 14 19  1  0
 15 16  1  0
 16 17  2  0
 17 18  1  0
 17 25  1  0
 18 19  2  0
 18 20  1  0
 20 21  1  1
 20 22  1  0
 20 23  1  0
 23 24  1  0
 24 25  1  0
 26 27  2  0
 28 29  1  0
 28 30  2  0
M  CHG  1  27   1
M  END
