
     RDKit          3D

 30 33  0  0  0  0  0  0  0  0999 V2000
   -3.4850   -0.8810   -4.7840 C   0  0  0  0  0  0  0  0  0  0  0  0
   -3.4690   -0.7400   -3.4690 C   0  0  0  0  0  0  0  0  0  0  0  0
   -4.6310   -0.9760   -2.6210 C   0  0  0  0  0  0  0  0  0  0  0  0
   -5.7480   -1.3430   -3.1510 N   0  0  0  0  0  0  0  0  0  0  0  0
   -4.4940   -0.7880   -1.1890 C   0  0  0  0  0  0  0  0  0  0  0  0
   -5.6790   -1.0280   -0.3270 C   0  0  0  0  0  0  0  0  0  0  0  0
   -3.3100   -0.4030   -0.6720 C   0  0  0  0  0  0  0  0  0  0  0  0
   -3.3120   -0.2520    0.7830 C   0  0  2  0  0  0  0  0  0  0  0  0
   -3.2080    1.1970    1.1690 C   0  0  0  0  0  0  0  0  0  0  0  0
   -2.1690   -0.9270    1.4260 N   0  0  0  0  0  0  0  0  0  0  0  0
   -2.5650   -1.3880    2.7720 C   0  0  0  0  0  0  0  0  0  0  0  0
   -2.1530   -0.1640   -1.4750 C   0  0  0  0  0  0  0  0  0  0  0  0
   -0.8560    0.1870   -0.9120 C   0  0  0  0  0  0  0  0  0  0  0  0
    0.1400   -0.7960   -0.8120 C   0  0  0  0  0  0  0  0  0  0  0  0
    1.3990   -0.5520   -0.3500 C   0  0  0  0  0  0  0  0  0  0  0  0
    1.7540    0.7180    0.0510 C   0  0  0  0  0  0  0  0  0  0  0  0
    3.1010    0.9950    0.5520 C   0  0  0  0  0  0  0  0  0  0  0  0
    3.7080    2.2180    0.3740 C   0  0  0  0  0  0  0  0  0  0  0  0
    4.9730    2.5120    0.8360 C   0  0  0  0  0  0  0  0  0  0  0  0
    5.6750    1.5420    1.5090 C   0  0  0  0  0  0  0  0  0  0  0  0
    5.0790    0.2840    1.7050 C   0  0  0  0  0  0  0  0  0  0  0  0
    3.8150    0.0230    1.2320 C   0  0  0  0  0  0  0  0  0  0  0  0
    5.8780   -0.6110    2.3950 O   0  0  0  0  0  0  0  0  0  0  0  0
    7.2620   -0.7060    2.2100 C   0  0  0  0  0  0  0  0  0  0  0  0
    7.8590    0.6470    1.9750 C   0  0  0  0  0  0  0  0  0  0  0  0
    6.9520    1.7050    2.0250 O   0  0  0  0  0  0  0  0  0  0  0  0
    0.7970    1.7030   -0.0370 C   0  0  0  0  0  0  0  0  0  0  0  0
   -0.4980    1.4450   -0.5140 C   0  0  0  0  0  0  0  0  0  0  0  0
   -2.2410   -0.3290   -2.8170 C   0  0  0  0  0  0  0  0  0  0  0  0
   -1.1190   -0.0930   -3.5550 F   0  0  0  0  0  0  0  0  0  0  0  0
  1  2  2  0
  2  3  1  0
  2 29  1  0
  3  4  2  0
  3  5  1  0
  5  6  1  0
  5  7  2  0
  7  8  1  0
  7 12  1  0
  8  9  1  6
  8 10  1  0
 10 11  1  0
 12 13  1  0
 12 29  2  0
 13 14  2  0
 13 28  1  0
 14 15  1  0
 15 16  2  0
 16 17  1  0
 16 27  1  0
 17 18  2  0
 17 22  1  0
 18 19  1  0
 19 20  2  0
 20 21  1  0
 20 26  1  0
 21 22  2  0
 21 23  1  0
 23 24  1  0
 24 25  1  0
 25 26  1  0
 27 28  2  0
 29 30  1  0
M  CHG  1  10   1
M  END
