
     RDKit          3D

 23 26  0  0  0  0  0  0  0  0999 V2000
   -2.3680   -2.1080    3.0350 C   0  0  0  0  0  0  0  0  0  0  0  0
   -1.9400   -1.3640    1.8170 C   0  0  0  0  0  0  0  0  0  0  0  0
   -2.8880   -0.8550    0.9640 C   0  0  0  0  0  0  0  0  0  0  0  0
   -2.5200   -0.1740   -0.1530 C   0  0  0  0  0  0  0  0  0  0  0  0
   -1.1570   -0.0060   -0.4100 C   0  0  0  0  0  0  0  0  0  0  0  0
   -0.1530   -0.4850    0.3970 C   0  0  0  0  0  0  0  0  0  0  0  0
    1.2710   -0.3260    0.2110 C   0  0  2  0  0  0  0  0  0  0  0  0
    1.9200    0.9740    0.5540 C   0  0  0  0  0  0  0  0  0  0  0  0
    3.3440    0.7080    0.6900 N   0  0  0  0  0  0  0  0  0  0  0  0
    4.0090    0.9580    1.8730 N   0  0  0  0  0  0  0  0  0  0  0  0
    4.5050    2.1020    2.0900 N   0  0  0  0  0  0  0  0  0  0  0  0
    4.0180    0.1730   -0.4660 C   0  0  0  0  0  0  0  0  0  0  0  0
    3.0940   -0.6280   -1.3170 C   0  0  0  0  0  0  0  0  0  0  0  0
    3.3390   -1.2300   -2.4700 N   0  0  0  0  0  0  0  0  0  0  0  0
    2.2510   -1.8410   -2.9000 N   0  0  0  0  0  0  0  0  0  0  0  0
    1.2930   -1.6080   -1.9780 C   0  0  0  0  0  0  0  0  0  0  0  0
    1.8250   -0.8620   -1.0100 N   0  0  0  0  0  0  0  0  0  0  0  0
   -0.6190   -1.1790    1.5320 C   0  0  0  0  0  0  0  0  0  0  0  0
    0.3080   -1.7080    2.4180 O   0  0  0  0  0  0  0  0  0  0  0  0
   -0.7700    0.7150   -1.6400 C   0  0  0  0  0  0  0  0  0  0  0  0
   -1.6120    1.9730   -1.8380 C   0  0  0  0  0  0  0  0  0  0  0  0
   -3.0230    1.8190   -1.4110 C   0  0  0  0  0  0  0  0  0  0  0  0
   -3.4580    0.4100   -1.1280 C   0  0  0  0  0  0  0  0  0  0  0  0
  1  2  1  0
  2  3  2  0
  2 18  1  0
  3  4  1  0
  4  5  2  0
  4 23  1  0
  5  6  1  0
  5 20  1  0
  7  6  1  6
  6 18  2  0
  7  8  1  0
  7 17  1  0
  8  9  1  0
  9 10  1  0
  9 12  1  0
 10 11  2  0
 12 13  1  0
 13 14  2  0
 13 17  1  0
 14 15  1  0
 15 16  2  0
 16 17  1  0
 18 19  1  0
 20 21  1  0
 21 22  1  0
 22 23  1  0
M  END
