
     RDKit          3D

 18 19  0  0  0  0  0  0  0  0999 V2000
    5.0620    0.2400    0.3320 C   0  0  0  0  0  0  0  0  0  0  0  0
    3.6470    0.4690    0.0150 N   0  0  0  0  0  0  0  0  0  0  0  0
    3.2420    1.7220   -0.2820 C   0  0  0  0  0  0  0  0  0  0  0  0
    4.0830    2.6430   -0.2750 O   0  0  0  0  0  0  0  0  0  0  0  0
    1.9620    1.9870   -0.5800 N   0  0  0  0  0  0  0  0  0  0  0  0
    1.0620    0.9600   -0.5800 C   0  0  0  0  0  0  0  0  0  0  0  0
    1.4090   -0.3330   -0.2860 C   0  0  0  0  0  0  0  0  0  0  0  0
    0.3210   -1.7210   -0.2000 S   0  0  0  0  0  0  0  0  0  0  0  0
   -1.3840   -1.3950    0.0000 C   0  0  0  0  0  0  0  0  0  0  0  0
   -1.8800   -0.2130    0.4840 C   0  0  0  0  0  0  0  0  0  0  0  0
   -3.2550   -0.0240    0.5660 C   0  0  0  0  0  0  0  0  0  0  0  0
   -3.7500    1.2280    1.0780 N   0  0  0  0  0  0  0  0  0  0  0  0
   -4.1570   -0.9840    0.1790 C   0  0  0  0  0  0  0  0  0  0  0  0
   -3.6310   -2.1600   -0.3020 C   0  0  0  0  0  0  0  0  0  0  0  0
   -2.2880   -2.3920   -0.4010 C   0  0  0  0  0  0  0  0  0  0  0  0
   -1.7060   -3.9190   -1.0250 Cl  0  0  0  0  0  0  0  0  0  0  0  0
    2.7700   -0.5350    0.0160 C   0  0  0  0  0  0  0  0  0  0  0  0
    3.1550   -1.7120    0.2950 O   0  0  0  0  0  0  0  0  0  0  0  0
  1  2  1  0
  2  3  1  0
  2 17  1  0
  3  4  2  0
  3  5  1  0
  5  6  1  0
  6  7  2  0
  7  8  1  0
  7 17  1  0
  8  9  1  0
  9 10  2  0
  9 15  1  0
 10 11  1  0
 11 12  1  0
 11 13  2  0
 13 14  1  0
 14 15  2  0
 15 16  1  0
 17 18  2  0
M  CHG  1  12   1
M  END
