
     RDKit          3D

 23 26  0  0  0  0  0  0  0  0999 V2000
   -2.3590    2.3370   -0.3850 C   0  0  0  0  0  0  0  0  0  0  0  0
   -2.5160    0.8530   -0.3590 C   0  0  0  0  0  0  0  0  0  0  0  0
   -3.4060    0.2940   -1.2530 C   0  0  0  0  0  0  0  0  0  0  0  0
   -3.5610   -1.0760   -1.2390 C   0  0  0  0  0  0  0  0  0  0  0  0
   -2.8300   -1.8280   -0.3440 C   0  0  0  0  0  0  0  0  0  0  0  0
   -1.9310   -1.2550    0.5560 C   0  0  0  0  0  0  0  0  0  0  0  0
   -1.7760    0.1200    0.5420 C   0  0  0  0  0  0  0  0  0  0  0  0
   -1.3340   -2.3260    1.3450 C   0  0  0  0  0  0  0  0  0  0  0  0
   -0.2130   -2.2810    1.9710 N   0  0  0  0  0  0  0  0  0  0  0  0
    0.6340   -1.1450    1.9850 C   0  0  0  0  0  0  0  0  0  0  0  0
    0.9040   -0.2860    3.0000 N   0  0  0  0  0  0  0  0  0  0  0  0
    1.7550    0.6220    2.5410 N   0  0  0  0  0  0  0  0  0  0  0  0
    2.0240    0.3550    1.2690 C   0  0  0  0  0  0  0  0  0  0  0  0
    2.8820    1.0300    0.3160 C   0  0  0  0  0  0  0  0  0  0  0  0
    3.4820    2.0630    0.7880 N   0  0  0  0  0  0  0  0  0  0  0  0
    4.3710    2.9120    0.1060 N   0  0  0  0  0  0  0  0  0  0  0  0
    5.0320    2.7100   -1.1320 C   0  0  0  0  0  0  0  0  0  0  0  0
    4.7790    1.8130   -2.0510 C   0  0  0  0  0  0  0  0  0  0  0  0
    3.7560    0.8070   -2.0180 N   0  0  0  0  0  0  0  0  0  0  0  0
    2.9740    0.4920   -1.0280 C   0  0  0  0  0  0  0  0  0  0  0  0
    1.3230   -0.7240    0.9750 O   0  0  0  0  0  0  0  0  0  0  0  0
   -2.2980   -3.4690    1.2640 C   0  0  0  0  0  0  0  0  0  0  0  0
   -2.8320   -3.3210   -0.1450 C   0  0  0  0  0  0  0  0  0  0  0  0
  1  2  1  0
  2  3  2  0
  2  7  1  0
  3  4  1  0
  4  5  2  0
  5  6  1  0
  5 23  1  0
  6  7  2  0
  6  8  1  0
  8  9  2  3
  8 22  1  0
  9 10  1  0
 10 11  2  0
 10 21  1  0
 11 12  1  0
 12 13  2  0
 13 14  1  0
 13 21  1  0
 14 15  2  0
 14 20  1  0
 15 16  1  0
 16 17  1  0
 17 18  2  0
 18 19  1  0
 19 20  2  0
 22 23  1  0
M  END
