
     RDKit          3D

 22 24  0  0  0  0  0  0  0  0999 V2000
   -4.7810    2.5800    1.1300 N   0  0  0  0  0  0  0  0  0  0  0  0
   -3.5180    1.8910    1.0210 C   0  0  0  0  0  0  0  0  0  0  0  0
   -2.5440    2.2730    1.7020 O   0  0  0  0  0  0  0  0  0  0  0  0
   -3.4220    0.7870    0.1340 N   0  0  0  0  0  0  0  0  0  0  0  0
   -2.2460    0.0540   -0.0440 C   0  0  0  0  0  0  0  0  0  0  0  0
   -1.0310    0.2460    0.5660 C   0  0  0  0  0  0  0  0  0  0  0  0
   -0.1410   -0.6920    0.1120 N   0  0  0  0  0  0  0  0  0  0  0  0
    1.2220   -0.8520    0.4840 C   0  0  0  0  0  0  0  0  0  0  0  0
    1.6260   -1.9480    1.2280 C   0  0  0  0  0  0  0  0  0  0  0  0
    2.9380   -2.1420    1.6090 C   0  0  0  0  0  0  0  0  0  0  0  0
    3.8870   -1.2290    1.2500 C   0  0  0  0  0  0  0  0  0  0  0  0
    3.5050   -0.1280    0.5070 C   0  0  0  0  0  0  0  0  0  0  0  0
    4.4830    0.7900    0.1490 C   0  0  0  0  0  0  0  0  0  0  0  0
    4.0930    1.8790   -0.5880 C   0  0  0  0  0  0  0  0  0  0  0  0
    2.7860    2.0980   -0.9840 C   0  0  0  0  0  0  0  0  0  0  0  0
    1.8380    1.1630   -0.6100 C   0  0  0  0  0  0  0  0  0  0  0  0
    2.1970    0.0590    0.1300 C   0  0  0  0  0  0  0  0  0  0  0  0
   -0.7740   -1.4520   -0.7590 N   0  0  0  0  0  0  0  0  0  0  0  0
   -2.0690   -1.0210   -0.8780 C   0  0  0  0  0  0  0  0  0  0  0  0
   -3.0380   -1.6350   -1.7510 C   0  0  0  0  0  0  0  0  0  0  0  0
   -2.7080   -2.7570   -2.5680 N   0  0  0  0  0  0  0  0  0  0  0  0
   -4.2070   -1.2130   -1.8320 O   0  0  0  0  0  0  0  0  0  0  0  0
  1  2  1  0
  2  3  2  0
  2  4  1  0
  4  5  1  0
  5  6  2  0
  5 19  1  0
  6  7  1  0
  7  8  1  0
  7 18  1  0
  8  9  2  0
  8 17  1  0
  9 10  1  0
 10 11  2  0
 11 12  1  0
 12 13  2  0
 12 17  1  0
 13 14  1  0
 14 15  2  0
 15 16  1  0
 16 17  2  0
 18 19  2  0
 19 20  1  0
 20 21  1  0
 20 22  2  0
M  END
