
     RDKit          3D

 23 25  0  0  0  0  0  0  0  0999 V2000
    5.3990    2.3890    0.6160 C   0  0  0  0  0  0  0  0  0  0  0  0
    5.7170    1.7790   -0.4980 C   0  0  0  0  0  0  0  0  0  0  0  0
    5.0180    0.5670   -0.8360 N   0  0  0  0  0  0  0  0  0  0  0  0
    5.3050   -0.1820   -1.8770 N   0  0  0  0  0  0  0  0  0  0  0  0
    4.4500   -1.2060   -1.8800 C   0  0  0  0  0  0  0  0  0  0  0  0
    3.6220   -1.0710   -0.8090 C   0  0  0  0  0  0  0  0  0  0  0  0
    2.5620   -1.9910   -0.4360 C   0  0  0  0  0  0  0  0  0  0  0  0
    1.3350   -1.6810   -0.1310 C   0  0  0  0  0  0  0  0  0  0  0  0
    0.3550   -2.7030    0.2360 C   0  0  0  0  0  0  0  0  0  0  0  0
   -0.8950   -2.3940    0.5140 C   0  0  0  0  0  0  0  0  0  0  0  0
   -1.8450   -3.4150    0.8740 C   0  0  0  0  0  0  0  0  0  0  0  0
   -2.6270   -4.2320    1.1710 N   0  0  0  0  0  0  0  0  0  0  0  0
   -1.3950   -0.9960    0.4760 C   0  0  0  0  0  0  0  0  0  0  0  0
   -0.5730   -0.0220    0.1550 C   0  0  0  0  0  0  0  0  0  0  0  0
   -1.0640    1.2970    0.1240 N   0  0  0  0  0  0  0  0  0  0  0  0
   -2.4530    1.6150    0.2180 C   0  0  0  0  0  0  0  0  0  0  0  0
   -3.2890    0.5730    0.6680 N   0  0  0  0  0  0  0  0  0  0  0  0
   -4.6180    0.5960    0.0810 C   0  0  0  0  0  0  0  0  0  0  0  0
   -5.2850    1.8440    0.6450 C   0  0  0  0  0  0  0  0  0  0  0  0
   -2.7900   -0.7260    0.7940 C   0  0  0  0  0  0  0  0  0  0  0  0
    0.8400   -0.3170   -0.1650 C   0  0  0  0  0  0  0  0  0  0  0  0
    1.5400    0.6680   -0.4570 O   0  0  0  0  0  0  0  0  0  0  0  0
    3.9940    0.0560   -0.1560 N   0  0  0  0  0  0  0  0  0  0  0  0
  1  2  2  0
  2  3  1  0
  3  4  1  0
  3 23  1  0
  4  5  2  0
  5  6  1  0
  6  7  1  0
  6 23  2  0
  7  8  2  3
  8  9  1  0
  8 21  1  0
  9 10  2  0
 10 11  1  0
 10 13  1  0
 11 12  3  0
 13 14  2  0
 13 20  1  0
 14 15  1  0
 14 21  1  0
 15 16  1  0
 16 17  1  0
 17 18  1  0
 17 20  1  0
 18 19  1  0
 21 22  2  0
M  END
