
     RDKit          3D

 18 19  0  0  0  0  0  0  0  0999 V2000
    4.8610    1.5550    1.2230 C   0  0  0  0  0  0  0  0  0  0  0  0
    4.0300    0.5090    0.5220 C   0  0  0  0  0  0  0  0  0  0  0  0
    4.4240   -0.5920    0.0380 N   0  0  0  0  0  0  0  0  0  0  0  0
    3.3950   -1.3320   -0.5460 N   0  0  0  0  0  0  0  0  0  0  0  0
    2.1690   -0.5780   -0.4050 C   0  0  0  0  0  0  0  0  0  0  0  0
    0.9890   -0.9760   -0.8450 C   0  0  0  0  0  0  0  0  0  0  0  0
    0.8830   -2.2100   -1.4970 O   0  0  0  0  0  0  0  0  0  0  0  0
   -0.2400   -0.1970   -0.6910 C   0  0  0  0  0  0  0  0  0  0  0  0
   -1.2220   -0.9310    0.0680 N   0  0  0  0  0  0  0  0  0  0  0  0
   -2.4900   -0.3120    0.3130 C   0  0  0  0  0  0  0  0  0  0  0  0
   -2.7200    0.2240    1.4800 C   0  0  0  0  0  0  0  0  0  0  0  0
   -3.9440    0.9080    1.9460 C   0  0  0  0  0  0  0  0  0  0  0  0
   -5.2460    0.9830    0.7110 S   0  0  0  0  0  0  0  0  0  0  0  0
   -4.6430    0.1770   -0.7600 C   0  0  0  0  0  0  0  0  0  0  0  0
   -3.4290   -0.3350   -0.7840 C   0  0  0  0  0  0  0  0  0  0  0  0
   -2.9730   -1.1040   -2.3180 Cl  0  0  0  0  0  0  0  0  0  0  0  0
    2.5960    0.6180    0.2920 C   0  0  0  0  0  0  0  0  0  0  0  0
    1.8750    1.5700    0.6350 O   0  0  0  0  0  0  0  0  0  0  0  0
  1  2  1  0
  2  3  2  0
  2 17  1  0
  3  4  1  0
  4  5  1  0
  5  6  2  3
  5 17  1  0
  6  7  1  0
  6  8  1  0
  8  9  1  0
  9 10  1  0
 10 11  2  0
 10 15  1  0
 11 12  1  0
 12 13  1  0
 13 14  1  0
 14 15  2  0
 15 16  1  0
 17 18  2  0
M  END
