
     RDKit          3D

 23 26  0  0  0  0  0  0  0  0999 V2000
   -6.1880    1.3800   -0.9500 C   0  0  0  0  0  0  0  0  0  0  0  0
   -4.8310    1.1290   -0.3950 C   0  0  0  0  0  0  0  0  0  0  0  0
   -4.1350   -0.0810   -0.3430 C   0  0  0  0  0  0  0  0  0  0  0  0
   -2.9120    0.1290    0.2520 C   0  0  0  0  0  0  0  0  0  0  0  0
   -1.8750   -0.8770    0.5010 C   0  0  0  0  0  0  0  0  0  0  0  0
   -2.1030   -2.1800    0.1170 C   0  0  0  0  0  0  0  0  0  0  0  0
   -1.1490   -3.1470    0.3370 C   0  0  0  0  0  0  0  0  0  0  0  0
    0.0410   -2.7550    0.9560 C   0  0  0  0  0  0  0  0  0  0  0  0
    0.9300   -3.6230    1.1680 O   0  0  0  0  0  0  0  0  0  0  0  0
    0.2320   -1.4740    1.3180 N   0  0  0  0  0  0  0  0  0  0  0  0
    1.4850   -1.1160    1.9580 C   0  0  0  0  0  0  0  0  0  0  0  0
    2.5110   -0.7160    0.9600 C   0  0  0  0  0  0  0  0  0  0  0  0
    2.7100    0.5430    0.5130 N   0  0  0  0  0  0  0  0  0  0  0  0
    3.7150    0.5550   -0.3840 C   0  0  0  0  0  0  0  0  0  0  0  0
    4.1420   -0.6990   -0.4940 N   0  0  0  0  0  0  0  0  0  0  0  0
    3.4210   -1.4610    0.3100 N   0  0  0  0  0  0  0  0  0  0  0  0
    5.2310   -0.7690   -1.4480 C   0  0  0  0  0  0  0  0  0  0  0  0
    5.6940    0.6350   -1.6510 C   0  0  0  0  0  0  0  0  0  0  0  0
    4.4900    1.4640   -1.2680 C   0  0  0  0  0  0  0  0  0  0  0  0
   -0.7230   -0.5800    1.0820 N   0  0  0  0  0  0  0  0  0  0  0  0
   -2.8640    1.4710    0.5620 C   0  0  0  0  0  0  0  0  0  0  0  0
   -1.7680    2.1990    1.2110 C   0  0  0  0  0  0  0  0  0  0  0  0
   -4.0160    2.0420    0.1670 N   0  0  0  0  0  0  0  0  0  0  0  0
  1  2  1  0
  2  3  2  0
  2 23  1  0
  3  4  1  0
  4  5  1  0
  4 21  2  0
  5  6  1  0
  5 20  2  0
  6  7  2  0
  7  8  1  0
  8  9  2  0
  8 10  1  0
 10 11  1  0
 10 20  1  0
 11 12  1  0
 12 13  1  0
 12 16  2  0
 13 14  2  0
 14 15  1  0
 14 19  1  0
 15 16  1  0
 15 17  1  0
 17 18  1  0
 18 19  1  0
 21 22  1  0
 21 23  1  0
M  END
