
     RDKit          3D

 20 22  0  0  0  0  0  0  0  0999 V2000
    4.3030    0.1170    1.0880 C   0  0  0  0  0  0  0  0  0  0  0  0
    3.3200    0.2410   -0.0550 C   0  0  2  0  0  0  0  0  0  0  0  0
    4.0700    0.7520   -1.1440 O   0  0  0  0  0  0  0  0  0  0  0  0
    2.2430    1.2510    0.3220 C   0  0  0  0  0  0  0  0  0  0  0  0
    1.0380    1.4060   -1.0490 S   0  0  0  0  0  0  0  0  0  0  0  0
    0.1240   -0.1200   -1.2010 C   0  0  0  0  0  0  0  0  0  0  0  0
    0.6060   -1.1520   -1.9350 N   0  0  0  0  0  0  0  0  0  0  0  0
   -0.0400   -2.3150   -2.1130 C   0  0  0  0  0  0  0  0  0  0  0  0
    0.5150   -3.3780   -2.8950 N   0  0  0  0  0  0  0  0  0  0  0  0
   -1.2340   -2.4470   -1.5200 N   0  0  0  0  0  0  0  0  0  0  0  0
   -1.7740   -1.4410   -0.7660 C   0  0  0  0  0  0  0  0  0  0  0  0
   -1.1060   -0.2350   -0.5800 C   0  0  0  0  0  0  0  0  0  0  0  0
   -1.6960    0.8380    0.2280 C   0  0  2  0  0  0  0  0  0  0  0  0
   -1.4550    0.7400    1.7040 C   0  0  0  0  0  0  0  0  0  0  0  0
   -2.4240    1.5560    2.2780 O   0  0  0  0  0  0  0  0  0  0  0  0
   -3.4890    1.6720    1.4380 C   0  0  0  0  0  0  0  0  0  0  0  0
   -3.2310    0.7710    0.2440 C   0  0  2  0  0  0  0  0  0  0  0  0
   -3.5920   -0.6340    0.5830 C   0  0  0  0  0  0  0  0  0  0  0  0
   -4.4010   -0.8890    1.5300 O   0  0  0  0  0  0  0  0  0  0  0  0
   -3.0060   -1.6180   -0.1790 O   0  0  0  0  0  0  0  0  0  0  0  0
  2  1  1  1
  2  3  1  0
  2  4  1  0
  4  5  1  0
  5  6  1  0
  6  7  2  0
  6 12  1  0
  7  8  1  0
  8  9  1  0
  8 10  2  0
 10 11  1  0
 11 12  2  0
 11 20  1  0
 12 13  1  0
 13 14  1  1
 13 17  1  0
 14 15  1  0
 15 16  1  0
 17 16  1  1
 17 18  1  0
 18 19  2  0
 18 20  1  0
M  END
