
     RDKit          3D

 21 22  0  0  0  0  0  0  0  0999 V2000
    2.6960    1.9210    0.3770 C   0  0  0  0  0  0  0  0  0  0  0  0
    2.8230    0.4170    0.4930 C   0  0  1  0  0  0  0  0  0  0  0  0
    1.7090   -0.1700    1.2750 C   0  0  0  0  0  0  0  0  0  0  0  0
    1.9820   -0.8360    2.3210 O   0  0  0  0  0  0  0  0  0  0  0  0
    0.3410   -0.0460    0.9440 N   0  0  0  0  0  0  0  0  0  0  0  0
   -0.1910    0.6550   -0.1810 C   0  0  0  0  0  0  0  0  0  0  0  0
   -1.6690    0.9160    0.1610 C   0  0  1  0  0  0  0  0  0  0  0  0
   -2.4550    1.3100   -1.0160 C   0  0  0  0  0  0  0  0  0  0  0  0
   -3.8730    1.5950   -0.6620 C   0  0  0  0  0  0  0  0  0  0  0  0
   -4.2650    2.9770   -0.4980 N   0  0  0  0  0  0  0  0  0  0  0  0
   -4.7680    0.7600   -0.4890 O   0  0  0  0  0  0  0  0  0  0  0  0
   -1.9990   -0.3850    0.8280 C   0  0  1  0  0  0  0  0  0  0  0  0
   -2.1260   -1.7860   -0.2000 S   0  0  1  0  0  0  0  0  0  0  0  0
   -2.3170   -3.2030    0.9060 C   0  0  0  0  0  0  0  0  0  0  0  0
   -3.3360   -1.8300   -1.0780 O   0  0  0  0  0  0  0  0  0  0  0  0
   -0.8700   -2.0830   -0.9740 O   0  0  0  0  0  0  0  0  0  0  0  0
   -0.7500   -0.6180    1.7110 C   0  0  0  0  0  0  0  0  0  0  0  0
    2.9930   -0.1510   -0.8740 C   0  0  0  0  0  0  0  0  0  0  0  0
    4.0570   -1.2110   -0.7080 C   0  0  0  0  0  0  0  0  0  0  0  0
    4.2800   -1.2410    0.7210 N   0  0  0  0  0  0  0  0  0  0  0  0
    4.0730    0.0690    1.1520 N   0  0  0  0  0  0  0  0  0  0  0  0
  2  1  1  6
  2  3  1  0
  2 18  1  0
  2 21  1  0
  3  4  2  0
  3  5  1  0
  5  6  1  0
  5 17  1  0
  6  7  1  0
  7  8  1  6
  7 12  1  0
  8  9  1  0
  9 10  1  0
  9 11  2  0
 12 13  1  0
 12 17  1  1
 13 14  1  1
 13 15  2  0
 13 16  2  0
 18 19  1  0
 19 20  1  0
 20 21  1  0
M  END
