
     RDKit          3D

 21 23  0  0  0  0  0  0  0  0999 V2000
   -4.6390    0.4160   -0.2120 N   0  0  0  0  0  0  0  0  0  0  0  0
   -3.5190   -0.4900   -0.3870 C   0  0  1  0  0  0  0  0  0  0  0  0
   -3.1730   -0.6000   -1.8470 C   0  0  0  0  0  0  0  0  0  0  0  0
   -1.7290   -0.4950   -1.4740 C   0  0  1  0  0  0  0  0  0  0  0  0
   -0.9150    0.3050   -2.1910 O   0  0  0  0  0  0  0  0  0  0  0  0
    0.3490   -0.1100   -2.4460 C   0  0  0  0  0  0  0  0  0  0  0  0
    1.1760   -0.3590   -1.2180 C   0  0  0  0  0  0  0  0  0  0  0  0
    1.3800   -1.4400   -0.4900 C   0  0  0  0  0  0  0  0  0  0  0  0
    2.1860   -1.4040    0.5920 C   0  0  0  0  0  0  0  0  0  0  0  0
    2.4600   -2.5260    1.4330 O   0  0  0  0  0  0  0  0  0  0  0  0
    2.7720   -0.2020    0.8890 C   0  0  0  0  0  0  0  0  0  0  0  0
    3.6840    0.2020    1.9630 C   0  0  0  0  0  0  0  0  0  0  0  0
    4.2090    1.4370    2.1630 N   0  0  0  0  0  0  0  0  0  0  0  0
    4.9950    1.3920    3.2520 C   0  0  0  0  0  0  0  0  0  0  0  0
    4.9570    0.1300    3.7270 N   0  0  0  0  0  0  0  0  0  0  0  0
    4.1670   -0.5490    2.9330 N   0  0  0  0  0  0  0  0  0  0  0  0
    2.1620    0.8610   -0.3840 S   0  0  0  0  0  0  0  0  0  0  0  0
   -2.2050    0.2720   -0.2270 C   0  0  1  0  0  0  0  0  0  0  0  0
   -2.3380    1.7280   -0.4450 C   0  0  0  0  0  0  0  0  0  0  0  0
   -1.6670    2.2560   -1.3640 O   0  0  0  0  0  0  0  0  0  0  0  0
   -3.1760    2.4870    0.3420 O   0  0  0  0  0  0  0  0  0  0  0  0
  2  1  1  6
  2  3  1  0
  2 18  1  0
  3  4  1  0
  4  5  1  6
  4 18  1  0
  5  6  1  0
  6  7  1  0
  7  8  2  0
  7 17  1  0
  8  9  1  0
  9 10  1  0
  9 11  2  0
 11 12  1  0
 11 17  1  0
 12 13  1  0
 12 16  2  0
 13 14  2  0
 14 15  1  0
 15 16  1  0
 18 19  1  6
 19 20  2  0
 19 21  1  0
M  END
