
     RDKit          3D

 26 29  0  0  0  0  0  0  0  0999 V2000
    8.3840    2.3860    1.7640 O   0  0  0  0  0  0  0  0  0  0  0  0
    8.7520    1.2830    1.3200 C   0  0  0  0  0  0  0  0  0  0  0  0
    7.7740    0.3400    0.8320 C   0  0  0  0  0  0  0  0  0  0  0  0
    7.8710   -0.8860    0.3120 C   0  0  0  0  0  0  0  0  0  0  0  0
    6.7790   -1.5600   -0.0690 C   0  0  0  0  0  0  0  0  0  0  0  0
    5.5610   -0.9410    0.0960 C   0  0  0  0  0  0  0  0  0  0  0  0
    4.2050   -1.4040   -0.2170 C   0  0  0  0  0  0  0  0  0  0  0  0
    3.1500   -0.6090    0.0370 C   0  0  0  0  0  0  0  0  0  0  0  0
    1.8350   -1.0410   -0.2580 C   0  0  0  0  0  0  0  0  0  0  0  0
    0.7330   -0.3640   -0.0590 C   0  0  0  0  0  0  0  0  0  0  0  0
   -0.5060   -0.9510   -0.4150 O   0  0  0  0  0  0  0  0  0  0  0  0
   -1.7110   -0.3150   -0.2420 C   0  0  0  0  0  0  0  0  0  0  0  0
   -2.9210   -0.9060   -0.5970 C   0  0  0  0  0  0  0  0  0  0  0  0
   -4.1270   -0.2590   -0.4200 C   0  0  0  0  0  0  0  0  0  0  0  0
   -4.1500    0.9600    0.1030 N   0  0  0  0  0  0  0  0  0  0  0  0
   -3.0050    1.5690    0.4610 C   0  0  0  0  0  0  0  0  0  0  0  0
   -3.0640    2.7170    0.9500 O   0  0  0  0  0  0  0  0  0  0  0  0
   -1.7870    0.9450    0.2940 C   0  0  0  0  0  0  0  0  0  0  0  0
   -0.6260    1.5660    0.6580 O   0  0  0  0  0  0  0  0  0  0  0  0
    0.6230    0.9660    0.5050 C   0  0  0  0  0  0  0  0  0  0  0  0
    1.6410    1.5880    0.8570 O   0  0  0  0  0  0  0  0  0  0  0  0
   -5.3950    1.6430    0.2930 C   0  0  0  0  0  0  0  0  0  0  0  0
   -6.4870    0.6410    0.5370 C   0  0  0  0  0  0  0  0  0  0  0  0
   -6.5870   -0.2100   -0.7300 C   0  0  0  0  0  0  0  0  0  0  0  0
   -5.3390   -1.0220   -0.8490 C   0  0  0  0  0  0  0  0  0  0  0  0
    6.0000    0.6140    0.8020 S   0  0  0  0  0  0  0  0  0  0  0  0
  1  2  2  0
  2  3  1  0
  3  4  2  0
  3 26  1  0
  4  5  1  0
  5  6  2  0
  6  7  1  0
  6 26  1  0
  7  8  2  3
  8  9  1  0
  9 10  2  3
 10 11  1  0
 10 20  1  0
 11 12  1  0
 12 13  1  0
 12 18  2  0
 13 14  2  0
 14 15  1  0
 14 25  1  0
 15 16  1  0
 15 22  1  0
 16 17  2  0
 16 18  1  0
 18 19  1  0
 19 20  1  0
 20 21  2  0
 22 23  1  0
 23 24  1  0
 24 25  1  0
M  END
