
     RDKit          3D

 26 28  0  0  0  0  0  0  0  0999 V2000
   -5.9380    1.9710    1.1880 C   0  0  0  0  0  0  0  0  0  0  0  0
   -4.6360    1.5190    0.5050 C   0  0  0  0  0  0  0  0  0  0  0  0
   -3.8250    0.7300    1.4780 C   0  0  0  0  0  0  0  0  0  0  0  0
   -2.6340    0.2710    0.9980 O   0  0  0  0  0  0  0  0  0  0  0  0
   -2.2620   -0.5770    0.0090 C   0  0  0  0  0  0  0  0  0  0  0  0
   -3.0780   -1.2780   -0.8430 C   0  0  0  0  0  0  0  0  0  0  0  0
   -2.6050   -2.1180   -1.8230 C   0  0  0  0  0  0  0  0  0  0  0  0
   -1.2500   -2.2830   -1.9800 C   0  0  0  0  0  0  0  0  0  0  0  0
   -0.7590   -3.1220   -2.9580 C   0  0  0  0  0  0  0  0  0  0  0  0
    0.6120   -3.2430   -3.0620 C   0  0  0  0  0  0  0  0  0  0  0  0
    1.4650   -2.5550   -2.2240 C   0  0  0  0  0  0  0  0  0  0  0  0
    0.9930   -1.7120   -1.2400 C   0  0  0  0  0  0  0  0  0  0  0  0
    1.8620   -0.9960   -0.3680 N   0  0  0  0  0  0  0  0  0  0  0  0
    2.5930    0.0780   -0.7210 C   0  0  0  0  0  0  0  0  0  0  0  0
    3.3240    0.5310    0.3560 C   0  0  0  0  0  0  0  0  0  0  0  0
    4.2130    1.6240    0.4180 N   0  0  0  0  0  0  0  0  0  0  0  0
    4.4710    2.4380   -0.7030 C   0  0  0  0  0  0  0  0  0  0  0  0
    5.4000    3.5260   -0.5170 N   0  0  0  0  0  0  0  0  0  0  0  0
    3.9510    2.2620   -1.8070 O   0  0  0  0  0  0  0  0  0  0  0  0
    3.0130   -0.3130    1.3920 C   0  0  0  0  0  0  0  0  0  0  0  0
    3.5230   -0.2730    2.7770 C   0  0  0  0  0  0  0  0  0  0  0  0
    3.0630   -1.2610    3.7130 N   0  0  0  0  0  0  0  0  0  0  0  0
    4.3330    0.5610    3.2030 O   0  0  0  0  0  0  0  0  0  0  0  0
    2.1340   -1.2060    0.8990 N   0  0  0  0  0  0  0  0  0  0  0  0
   -0.3770   -1.5880   -1.1330 C   0  0  0  0  0  0  0  0  0  0  0  0
   -0.8830   -0.7650   -0.1750 C   0  0  0  0  0  0  0  0  0  0  0  0
  1  2  1  0
  2  3  1  0
  3  4  1  0
  4  5  1  0
  5  6  2  0
  5 26  1  0
  6  7  1  0
  7  8  2  0
  8  9  1  0
  8 25  1  0
  9 10  2  0
 10 11  1  0
 11 12  2  0
 12 13  1  0
 12 25  1  0
 13 14  1  0
 13 24  1  0
 14 15  2  0
 15 16  1  0
 15 20  1  0
 16 17  1  0
 17 18  1  0
 17 19  2  0
 20 21  1  0
 20 24  2  0
 21 22  1  0
 21 23  2  0
 25 26  2  0
M  END
