
     RDKit          3D

 26 30  0  0  0  0  0  0  0  0999 V2000
   -0.6770    0.9090    1.1410 O   0  0  0  0  0  0  0  0  0  0  0  0
   -1.1850   -0.1670    1.4840 C   0  0  0  0  0  0  0  0  0  0  0  0
   -0.5240   -0.8740    2.4810 O   0  0  0  0  0  0  0  0  0  0  0  0
    0.6430   -0.3720    3.0410 C   0  0  0  0  0  0  0  0  0  0  0  0
    1.7580   -0.1800    2.0280 C   0  0  0  0  0  0  0  0  0  0  0  0
    2.8280    0.2310    1.8890 N   0  0  0  0  0  0  0  0  0  0  0  0
    3.5840    0.2460    0.8040 C   0  0  0  0  0  0  0  0  0  0  0  0
    4.8850    0.7480    0.6380 C   0  0  0  0  0  0  0  0  0  0  0  0
    5.5150    0.6710   -0.5780 C   0  0  0  0  0  0  0  0  0  0  0  0
    4.9360    0.1120   -1.6980 C   0  0  0  0  0  0  0  0  0  0  0  0
    3.6450   -0.3880   -1.5440 C   0  0  0  0  0  0  0  0  0  0  0  0
    3.0260   -0.3020   -0.3070 C   0  0  0  0  0  0  0  0  0  0  0  0
    1.4160   -0.8110    0.2980 S   0  0  0  0  0  0  0  0  0  0  0  0
    5.8050    0.1790   -2.7620 O   0  0  0  0  0  0  0  0  0  0  0  0
    7.0850    0.6010   -2.2550 C   0  0  0  0  0  0  0  0  0  0  0  0
    6.8060    1.1100   -0.9540 O   0  0  0  0  0  0  0  0  0  0  0  0
   -2.4030   -0.6800    0.8900 C   0  0  0  0  0  0  0  0  0  0  0  0
   -2.8190   -1.9760    1.2340 C   0  0  0  0  0  0  0  0  0  0  0  0
   -3.9260   -2.5450    0.7070 C   0  0  0  0  0  0  0  0  0  0  0  0
   -4.6810   -1.8390   -0.2020 C   0  0  0  0  0  0  0  0  0  0  0  0
   -4.3010   -0.5470   -0.5700 C   0  0  0  0  0  0  0  0  0  0  0  0
   -3.1510    0.0230   -0.0090 C   0  0  0  0  0  0  0  0  0  0  0  0
   -2.8750    1.4020   -0.4600 C   0  0  0  0  0  0  0  0  0  0  0  0
   -4.2500    2.1090   -0.4350 C   0  0  0  0  0  0  0  0  0  0  0  0
   -5.1330    1.5820   -1.3310 O   0  0  0  0  0  0  0  0  0  0  0  0
   -5.0540    0.2390   -1.5450 C   0  0  0  0  0  0  0  0  0  0  0  0
  1  2  2  0
  2  3  1  0
  2 17  1  0
  3  4  1  0
  4  5  1  0
  5  6  2  0
  5 13  1  0
  6  7  1  0
  7  8  2  0
  7 12  1  0
  8  9  1  0
  9 10  2  0
  9 16  1  0
 10 11  1  0
 10 14  1  0
 11 12  2  0
 12 13  1  0
 14 15  1  0
 15 16  1  0
 17 18  2  0
 17 22  1  0
 18 19  1  0
 19 20  2  0
 20 21  1  0
 21 22  2  0
 21 26  1  0
 22 23  1  0
 23 24  1  0
 24 25  1  0
 25 26  1  0
M  END
