
     RDKit          3D

 26 29  0  0  0  0  0  0  0  0999 V2000
   -1.1300    1.9940   -0.5740 C   0  0  0  0  0  0  0  0  0  0  0  0
   -1.8360    0.6950   -0.3780 C   0  0  0  0  0  0  0  0  0  0  0  0
   -1.2790   -0.5440   -0.3890 C   0  0  0  0  0  0  0  0  0  0  0  0
    0.0430   -1.1130   -0.4980 C   0  0  0  0  0  0  0  0  0  0  0  0
    0.0360   -2.4480   -0.6570 O   0  0  0  0  0  0  0  0  0  0  0  0
    1.3310   -0.6280   -0.4770 N   0  0  0  0  0  0  0  0  0  0  0  0
    1.7120    0.7410   -0.2350 C   0  0  0  0  0  0  0  0  0  0  0  0
    3.1570    0.8400    0.2170 C   0  0  0  0  0  0  0  0  0  0  0  0
    3.6390    2.0070   -0.1060 C   0  0  0  0  0  0  0  0  0  0  0  0
    4.9810    2.5460    0.1280 C   0  0  0  0  0  0  0  0  0  0  0  0
    5.3280    3.5030   -0.5880 O   0  0  0  0  0  0  0  0  0  0  0  0
    5.9050    2.1190    1.0470 O   0  0  0  0  0  0  0  0  0  0  0  0
    5.7150    1.0040    2.3680 S   0  0  0  0  0  0  0  0  0  0  0  0
    4.7320   -0.3760    1.7580 C   0  0  0  0  0  0  0  0  0  0  0  0
    3.7330   -0.2950    0.8940 C   0  0  0  0  0  0  0  0  0  0  0  0
    3.1590   -1.6610    0.6090 C   0  0  0  0  0  0  0  0  0  0  0  0
    2.4820   -1.5110   -0.7330 C   0  0  1  0  0  0  0  0  0  0  0  0
    2.2120   -2.7470   -1.4700 C   0  0  0  0  0  0  0  0  0  0  0  0
   -2.3160   -1.3960   -0.2430 O   0  0  0  0  0  0  0  0  0  0  0  0
   -3.4400   -0.8040   -0.1410 C   0  0  0  0  0  0  0  0  0  0  0  0
   -3.1950    0.5380   -0.2200 C   0  0  0  0  0  0  0  0  0  0  0  0
   -4.2990    1.4480   -0.1290 C   0  0  0  0  0  0  0  0  0  0  0  0
   -4.1850    2.6290   -0.5010 O   0  0  0  0  0  0  0  0  0  0  0  0
   -5.6300    1.0210    0.4140 C   0  0  0  0  0  0  0  0  0  0  0  0
   -5.6460   -0.3940    0.8910 C   0  0  0  0  0  0  0  0  0  0  0  0
   -4.8250   -1.3410    0.0340 C   0  0  0  0  0  0  0  0  0  0  0  0
  1  2  1  0
  2  3  2  0
  2 21  1  0
  3  4  1  0
  3 19  1  0
  4  5  2  0
  4  6  1  0
  6  7  1  0
  6 17  1  0
  7  8  1  0
  8  9  2  0
  8 15  1  0
  9 10  1  0
 10 11  2  0
 10 12  1  0
 12 13  1  0
 13 14  1  0
 14 15  2  0
 15 16  1  0
 16 17  1  0
 17 18  1  1
 19 20  1  0
 20 21  2  0
 20 26  1  0
 21 22  1  0
 22 23  2  0
 22 24  1  0
 24 25  1  0
 25 26  1  0
M  END
