
     RDKit          3D

 26 29  0  0  0  0  0  0  0  0999 V2000
   -4.7320   -0.5850   -2.3080 C   0  0  0  0  0  0  0  0  0  0  0  0
   -3.6430   -0.2020   -2.9650 O   0  0  0  0  0  0  0  0  0  0  0  0
   -3.0860    0.9940   -3.0140 C   0  0  0  0  0  0  0  0  0  0  0  0
   -2.4850    1.5530   -1.7720 C   0  0  0  0  0  0  0  0  0  0  0  0
   -1.3980    0.9990   -1.0940 N   0  0  0  0  0  0  0  0  0  0  0  0
   -0.0840    1.3060   -1.4740 C   0  0  0  0  0  0  0  0  0  0  0  0
    0.0260    1.9570   -2.5940 O   0  0  0  0  0  0  0  0  0  0  0  0
    1.1070    0.9800   -0.7790 C   0  0  0  0  0  0  0  0  0  0  0  0
    2.3330    1.2830   -0.9140 C   0  0  0  0  0  0  0  0  0  0  0  0
    2.8540    2.1850   -2.0110 C   0  0  0  0  0  0  0  0  0  0  0  0
    3.7440    1.4140   -2.8050 O   0  0  0  0  0  0  0  0  0  0  0  0
    4.3290    0.3720   -2.1060 C   0  0  0  0  0  0  0  0  0  0  0  0
    5.3230    0.9180   -1.0920 C   0  0  0  0  0  0  0  0  0  0  0  0
    4.5880    1.3090    0.1880 C   0  0  0  0  0  0  0  0  0  0  0  0
    3.2520    0.7380    0.0240 O   0  0  0  0  0  0  0  0  0  0  0  0
    0.8290    0.1820    0.5360 C   0  0  0  0  0  0  0  0  0  0  0  0
    1.8290   -0.1210    1.1750 O   0  0  0  0  0  0  0  0  0  0  0  0
   -0.5380   -0.1350    0.9140 C   0  0  0  0  0  0  0  0  0  0  0  0
   -1.5220    0.2680    0.1270 C   0  0  0  0  0  0  0  0  0  0  0  0
   -3.0020   -0.2370    0.9490 S   0  0  0  0  0  0  0  0  0  0  0  0
   -2.2390   -0.9740    2.3270 C   0  0  0  0  0  0  0  0  0  0  0  0
   -0.8710   -0.7910    2.0700 C   0  0  0  0  0  0  0  0  0  0  0  0
   -0.0550   -1.4490    3.1850 C   0  0  0  0  0  0  0  0  0  0  0  0
   -0.5060   -2.9050    3.3160 C   0  0  0  0  0  0  0  0  0  0  0  0
   -1.9640   -2.9920    3.6070 C   0  0  0  0  0  0  0  0  0  0  0  0
   -2.6520   -1.6610    3.5690 C   0  0  0  0  0  0  0  0  0  0  0  0
  1  2  1  0
  2  3  1  0
  3  4  1  0
  4  5  1  0
  5  6  1  0
  5 19  1  0
  6  7  2  0
  6  8  1  0
  8  9  2  3
  8 16  1  0
  9 10  1  0
  9 15  1  0
 10 11  1  0
 11 12  1  0
 12 13  1  0
 13 14  1  0
 14 15  1  0
 16 17  2  0
 16 18  1  0
 18 19  2  0
 18 22  1  0
 19 20  1  0
 20 21  1  0
 21 22  2  0
 21 26  1  0
 22 23  1  0
 23 24  1  0
 24 25  1  0
 25 26  1  0
M  END
