
     RDKit          3D

 26 30  0  0  0  0  0  0  0  0999 V2000
    2.9970    1.0860    3.3140 O   0  0  0  0  0  0  0  0  0  0  0  0
    3.1620    0.5750    2.1700 C   0  0  0  0  0  0  0  0  0  0  0  0
    4.1450   -0.2550    1.9050 O   0  0  0  0  0  0  0  0  0  0  0  0
    4.3050   -0.7820    0.7040 C   0  0  0  0  0  0  0  0  0  0  0  0
    5.3570   -1.6610    0.4460 C   0  0  0  0  0  0  0  0  0  0  0  0
    5.5100   -2.2060   -0.8240 C   0  0  0  0  0  0  0  0  0  0  0  0
    4.6280   -1.8830   -1.8310 C   0  0  0  0  0  0  0  0  0  0  0  0
    3.6030   -1.0130   -1.5420 C   0  0  0  0  0  0  0  0  0  0  0  0
    3.4210   -0.4550   -0.2950 C   0  0  0  0  0  0  0  0  0  0  0  0
    2.4030    0.4050   -0.0150 N   0  0  0  0  0  0  0  0  0  0  0  0
    1.4180    0.8860   -0.7880 C   0  0  0  0  0  0  0  0  0  0  0  0
    0.5900    1.7440   -0.0920 C   0  0  0  0  0  0  0  0  0  0  0  0
   -0.8110    2.6100   -0.6560 S   0  0  1  0  0  0  0  0  0  0  0  0
   -0.6970    4.0160   -0.0840 O   0  0  0  0  0  0  0  0  0  0  0  0
   -0.6500    2.7510   -2.1530 O   0  0  0  0  0  0  0  0  0  0  0  0
   -2.3210    1.8700   -0.2360 C   0  0  0  0  0  0  0  0  0  0  0  0
   -2.5070    0.5010   -0.7950 C   0  0  1  0  0  0  0  0  0  0  0  0
   -1.5140   -0.5250   -0.3760 C   0  0  0  0  0  0  0  0  0  0  0  0
   -2.2310   -1.6720   -0.0020 O   0  0  0  0  0  0  0  0  0  0  0  0
   -3.5900   -1.3990    0.1390 C   0  0  0  0  0  0  0  0  0  0  0  0
   -4.7490   -1.9160    0.5500 C   0  0  0  0  0  0  0  0  0  0  0  0
   -5.8020   -0.9100    0.3500 C   0  0  0  0  0  0  0  0  0  0  0  0
   -5.1040    0.2390   -0.2230 C   0  0  0  0  0  0  0  0  0  0  0  0
   -3.8250   -0.0690   -0.3350 C   0  0  0  0  0  0  0  0  0  0  0  0
    1.1430    1.7620    1.1900 C   0  0  0  0  0  0  0  0  0  0  0  0
    2.2450    0.9370    1.2030 C   0  0  0  0  0  0  0  0  0  0  0  0
  1  2  2  0
  2  3  1  0
  2 26  1  0
  3  4  1  0
  4  5  2  0
  4  9  1  0
  5  6  1  0
  6  7  2  0
  7  8  1  0
  8  9  2  0
  9 10  1  0
 10 11  1  0
 10 26  1  0
 11 12  2  0
 12 13  1  0
 12 25  1  0
 13 14  2  0
 13 15  2  0
 13 16  1  6
 17 16  1  1
 17 18  1  0
 17 24  1  0
 18 19  1  0
 19 20  1  0
 20 21  2  0
 20 24  1  0
 21 22  1  0
 22 23  1  0
 23 24  2  0
 25 26  2  0
M  END
