
     RDKit          3D

  9  8  0  0  0  0  0  0  0  0999 V2000
    2.6340   -0.1910   -0.7370 O   0  0  0  0  0  0  0  0  0  0  0  0
    2.3790    0.4540    0.4580 C   0  0  0  0  0  0  0  0  0  0  0  0
    0.9300    0.6270    0.6660 C   0  0  0  0  0  0  0  0  0  0  0  0
    0.1000    0.1790   -0.2470 C   0  0  0  0  0  0  0  0  0  0  0  0
    0.5510   -0.4500   -1.3960 O   0  0  0  0  0  0  0  0  0  0  0  0
   -1.3810    0.3350   -0.0730 C   0  0  2  0  0  0  0  0  0  0  0  0
   -1.6250    0.9850    1.1330 O   0  0  0  0  0  0  0  0  0  0  0  0
   -2.0420   -1.0250   -0.0880 C   0  0  0  0  0  0  0  0  0  0  0  0
   -1.5390   -1.8080    0.9520 O   0  0  0  0  0  0  0  0  0  0  0  0
  1  2  1  0
  2  3  1  0
  3  4  2  3
  4  5  1  0
  4  6  1  0
  6  7  1  1
  6  8  1  0
  8  9  1  0
M  END
