
     RDKit          3D

 26 30  0  0  0  0  0  0  0  0999 V2000
   -4.2200    2.4680    1.6970 O   0  0  0  0  0  0  0  0  0  0  0  0
   -3.5950    1.6570    0.9910 C   0  0  0  0  0  0  0  0  0  0  0  0
   -2.2840    1.7730    0.8930 O   0  0  0  0  0  0  0  0  0  0  0  0
   -1.3950    0.8430    0.6010 C   0  0  0  0  0  0  0  0  0  0  0  0
   -0.0200    1.0340    0.7450 C   0  0  0  0  0  0  0  0  0  0  0  0
    0.5450    2.0680    1.1530 O   0  0  0  0  0  0  0  0  0  0  0  0
    0.6210   -0.0850    0.3710 N   0  0  0  0  0  0  0  0  0  0  0  0
    2.0480   -0.3220    0.3620 C   0  0  0  0  0  0  0  0  0  0  0  0
    2.5920   -1.2270    1.2470 C   0  0  0  0  0  0  0  0  0  0  0  0
    3.9750   -1.4490    1.2300 C   0  0  0  0  0  0  0  0  0  0  0  0
    4.7740   -0.7710    0.3410 C   0  0  0  0  0  0  0  0  0  0  0  0
    4.2670    0.1360   -0.5550 C   0  0  0  0  0  0  0  0  0  0  0  0
    2.8700    0.3320   -0.5060 C   0  0  0  0  0  0  0  0  0  0  0  0
    5.2500    0.7590   -1.4480 C   0  0  0  0  0  0  0  0  0  0  0  0
    6.5780    0.8910   -0.7410 C   0  0  0  0  0  0  0  0  0  0  0  0
    6.5540   -0.7800    0.0650 S   0  0  0  0  0  0  0  0  0  0  0  0
   -0.3290   -0.9560    0.0020 C   0  0  0  0  0  0  0  0  0  0  0  0
   -0.1430   -2.1350   -0.4190 O   0  0  0  0  0  0  0  0  0  0  0  0
   -1.5910   -0.3830    0.1430 C   0  0  0  0  0  0  0  0  0  0  0  0
   -2.7260   -1.0140   -0.1490 O   0  0  0  0  0  0  0  0  0  0  0  0
   -3.9470   -0.5030   -0.1290 C   0  0  0  0  0  0  0  0  0  0  0  0
   -4.8780   -1.3390   -0.7110 C   0  0  0  0  0  0  0  0  0  0  0  0
   -6.2160   -0.9760   -0.7850 C   0  0  0  0  0  0  0  0  0  0  0  0
   -6.6570    0.2280   -0.2800 C   0  0  0  0  0  0  0  0  0  0  0  0
   -5.7150    1.0530    0.2990 C   0  0  0  0  0  0  0  0  0  0  0  0
   -4.3840    0.7040    0.3780 C   0  0  0  0  0  0  0  0  0  0  0  0
  1  2  2  0
  2  3  1  0
  2 26  1  0
  3  4  1  0
  4  5  1  0
  4 19  2  0
  5  6  2  0
  5  7  1  0
  7  8  1  0
  7 17  1  0
  8  9  2  0
  8 13  1  0
  9 10  1  0
 10 11  2  0
 11 12  1  0
 11 16  1  0
 12 13  2  0
 12 14  1  0
 14 15  1  0
 15 16  1  0
 17 18  2  0
 17 19  1  0
 19 20  1  0
 20 21  1  0
 21 22  2  0
 21 26  1  0
 22 23  1  0
 23 24  2  0
 24 25  1  0
 25 26  2  0
M  END
