
     RDKit          3D

 28 30  0  0  0  0  0  0  0  0999 V2000
    4.2040   -2.9120    1.7460 C   0  0  0  0  0  0  0  0  0  0  0  0
    4.9970   -1.6180    1.5700 C   0  0  0  0  0  0  0  0  0  0  0  0
    4.1400   -0.5780    1.1560 O   0  0  0  0  0  0  0  0  0  0  0  0
    4.6270    0.6710    0.9340 C   0  0  0  0  0  0  0  0  0  0  0  0
    5.8870    0.8480    1.1200 O   0  0  0  0  0  0  0  0  0  0  0  0
    3.9200    1.8580    0.5110 C   0  0  0  0  0  0  0  0  0  0  0  0
    2.6310    1.9510    0.2540 C   0  0  0  0  0  0  0  0  0  0  0  0
    1.7960    0.8540    0.3740 N   0  0  0  0  0  0  0  0  0  0  0  0
    0.4160    1.0150    0.0820 C   0  0  0  0  0  0  0  0  0  0  0  0
    0.0210    2.1520   -0.2720 O   0  0  0  0  0  0  0  0  0  0  0  0
   -0.5300   -0.0990    0.1860 C   0  0  0  0  0  0  0  0  0  0  0  0
   -0.0750   -1.2000    0.5420 O   0  0  0  0  0  0  0  0  0  0  0  0
   -1.9000    0.0500   -0.1000 N   0  0  0  0  0  0  0  0  0  0  0  0
   -2.8060   -1.0250    0.0020 C   0  0  0  0  0  0  0  0  0  0  0  0
   -2.6360   -2.3290    0.3560 C   0  0  0  0  0  0  0  0  0  0  0  0
   -3.8120   -3.0090    0.3110 N   0  0  0  0  0  0  0  0  0  0  0  0
   -4.7610   -2.1450   -0.0760 C   0  0  0  0  0  0  0  0  0  0  0  0
   -6.1390   -2.2990   -0.2890 C   0  0  0  0  0  0  0  0  0  0  0  0
   -6.9080   -1.2350   -0.6930 C   0  0  0  0  0  0  0  0  0  0  0  0
   -8.2940   -1.3790   -0.9090 O   0  0  0  0  0  0  0  0  0  0  0  0
   -6.2770   -0.0230   -0.8780 C   0  0  0  0  0  0  0  0  0  0  0  0
   -7.2550    1.3590   -1.3990 Cl  0  0  0  0  0  0  0  0  0  0  0  0
   -4.9260    0.1600   -0.6780 C   0  0  0  0  0  0  0  0  0  0  0  0
   -4.1740   -0.9190   -0.2730 C   0  0  0  0  0  0  0  0  0  0  0  0
    2.0240    3.5830   -0.2620 S   0  0  0  0  0  0  0  0  0  0  0  0
    3.0240    4.0150   -1.7370 C   0  0  0  0  0  0  0  0  0  0  0  0
    4.4980    3.9370   -1.4290 C   0  0  0  0  0  0  0  0  0  0  0  0
    4.8060    3.4270    0.2830 S   0  0  0  0  0  0  0  0  0  0  0  0
  1  2  1  0
  2  3  1  0
  3  4  1  0
  4  5  2  0
  4  6  1  0
  6  7  2  0
  6 28  1  0
  7  8  1  0
  7 25  1  0
  8  9  1  0
  9 10  2  0
  9 11  1  0
 11 12  2  0
 11 13  1  0
 13 14  1  0
 14 15  2  0
 14 24  1  0
 15 16  1  0
 16 17  1  0
 17 18  2  0
 17 24  1  0
 18 19  1  0
 19 20  1  0
 19 21  2  0
 21 22  1  0
 21 23  1  0
 23 24  2  0
 25 26  1  0
 26 27  1  0
 27 28  1  0
M  END
