
     RDKit          3D

 28 31  0  0  0  0  0  0  0  0999 V2000
    7.4140    0.4930    0.1250 N   0  0  0  0  0  0  0  0  0  0  0  0
    5.9380    0.1000    0.9240 S   0  0  2  0  0  0  0  0  0  0  0  0
    5.1870    1.3500    1.2980 O   0  0  0  0  0  0  0  0  0  0  0  0
    6.2950   -0.5850    2.2340 O   0  0  0  0  0  0  0  0  0  0  0  0
    5.0130   -0.9320   -0.0850 N   0  0  0  0  0  0  0  0  0  0  0  0
    4.0800   -0.4300   -1.0280 C   0  0  0  0  0  0  0  0  0  0  0  0
    4.4260   -0.0120   -2.7190 S   0  0  0  0  0  0  0  0  0  0  0  0
    2.7880    0.5050   -3.1440 C   0  0  0  0  0  0  0  0  0  0  0  0
    2.0900    0.3240   -1.9710 C   0  0  0  0  0  0  0  0  0  0  0  0
    2.7710   -0.1510   -0.9160 C   0  0  0  0  0  0  0  0  0  0  0  0
    2.1200   -0.3660    0.3350 O   0  0  0  0  0  0  0  0  0  0  0  0
    0.7570   -0.0930    0.5120 C   0  0  0  0  0  0  0  0  0  0  0  0
   -0.0970   -0.8650   -0.0950 C   0  0  0  0  0  0  0  0  0  0  0  0
   -1.5790   -0.8750   -0.1350 C   0  0  0  0  0  0  0  0  0  0  0  0
   -2.4100   -0.0580    0.4690 C   0  0  0  0  0  0  0  0  0  0  0  0
   -3.8030   -0.3820    0.1920 C   0  0  0  0  0  0  0  0  0  0  0  0
   -4.1690   -1.4310   -0.6150 C   0  0  0  0  0  0  0  0  0  0  0  0
   -5.5070   -1.6790   -0.8340 C   0  0  0  0  0  0  0  0  0  0  0  0
   -6.0440   -2.9990   -1.8520 Cl  0  0  0  0  0  0  0  0  0  0  0  0
   -6.4860   -0.8790   -0.2460 C   0  0  0  0  0  0  0  0  0  0  0  0
   -6.0910    0.1660    0.5590 C   0  0  0  0  0  0  0  0  0  0  0  0
   -4.7590    0.4360    0.7940 C   0  0  0  0  0  0  0  0  0  0  0  0
   -4.4260    1.5120    1.6210 O   0  0  0  0  0  0  0  0  0  0  0  0
   -3.1020    1.8110    1.8780 C   0  0  0  0  0  0  0  0  0  0  0  0
   -2.8120    2.7910    2.6310 O   0  0  0  0  0  0  0  0  0  0  0  0
   -2.0430    1.0460    1.3190 N   0  0  0  0  0  0  0  0  0  0  0  0
   -0.7560    1.5110    1.7010 C   0  0  0  0  0  0  0  0  0  0  0  0
    0.4340    1.0500    1.3760 C   0  0  0  0  0  0  0  0  0  0  0  0
  2  1  1  6
  2  3  2  0
  2  4  2  0
  2  5  1  0
  5  6  1  0
  6  7  1  0
  6 10  2  0
  7  8  1  0
  8  9  2  0
  9 10  1  0
 10 11  1  0
 11 12  1  0
 12 13  2  0
 12 28  1  0
 13 14  1  0
 14 15  2  0
 15 16  1  0
 15 26  1  0
 16 17  2  0
 16 22  1  0
 17 18  1  0
 18 19  1  0
 18 20  2  0
 20 21  1  0
 21 22  2  0
 22 23  1  0
 23 24  1  0
 24 25  2  0
 24 26  1  0
 26 27  1  0
 27 28  2  0
M  END
