
     RDKit          3D

 28 30  0  0  0  0  0  0  0  0999 V2000
    5.3010    1.0450    0.3450 O   0  0  0  0  0  0  0  0  0  0  0  0
    4.6690    0.2060   -0.1650 C   0  0  0  0  0  0  0  0  0  0  0  0
    3.3090   -0.0390   -0.3540 N   0  0  0  0  0  0  0  0  0  0  0  0
    2.7100    1.3050    0.5630 C   0  0  0  0  0  0  0  0  0  0  0  0
    3.5200    1.9420    1.0600 O   0  0  0  0  0  0  0  0  0  0  0  0
    1.3080    1.3620    0.5290 C   0  0  0  0  0  0  0  0  0  0  0  0
    0.2920    0.7270   -0.0500 C   0  0  0  0  0  0  0  0  0  0  0  0
   -0.9870    1.0940    0.1420 C   0  0  0  0  0  0  0  0  0  0  0  0
   -2.1340    0.4730   -0.5250 N   0  0  0  0  0  0  0  0  0  0  0  0
   -3.3960    0.3770    0.1500 C   0  0  0  0  0  0  0  0  0  0  0  0
   -3.4640    0.7970    1.3040 O   0  0  0  0  0  0  0  0  0  0  0  0
   -4.5090   -0.2100   -0.5830 C   0  0  0  0  0  0  0  0  0  0  0  0
   -4.3230   -0.5530   -1.7970 O   0  0  0  0  0  0  0  0  0  0  0  0
   -5.8110   -0.4180   -0.0100 C   0  0  0  0  0  0  0  0  0  0  0  0
   -6.1420   -0.1520    1.2180 C   0  0  0  0  0  0  0  0  0  0  0  0
   -7.4910   -0.3840    1.7560 C   0  0  0  0  0  0  0  0  0  0  0  0
   -8.4210   -0.8290    0.8110 O   0  0  0  0  0  0  0  0  0  0  0  0
   -8.0790   -1.1130   -0.4710 C   0  0  0  0  0  0  0  0  0  0  0  0
   -6.8620   -0.9340   -0.8990 C   0  0  0  0  0  0  0  0  0  0  0  0
   -6.5000   -1.3140   -2.5520 Cl  0  0  0  0  0  0  0  0  0  0  0  0
   -1.2360    2.1600    0.9620 C   0  0  0  0  0  0  0  0  0  0  0  0
    0.4350    2.6390    1.4650 S   0  0  0  0  0  0  0  0  0  0  0  0
    5.4280   -0.9130   -0.7910 N   0  0  0  0  0  0  0  0  0  0  0  0
    6.8190   -0.8980   -0.7770 C   0  0  0  0  0  0  0  0  0  0  0  0
    7.7420   -0.0220   -0.3580 C   0  0  0  0  0  0  0  0  0  0  0  0
    9.0390   -0.3200   -0.4500 C   0  0  0  0  0  0  0  0  0  0  0  0
    9.3720   -1.5610   -0.9940 C   0  0  0  0  0  0  0  0  0  0  0  0
    7.7530   -2.2560   -1.3550 S   0  0  0  0  0  0  0  0  0  0  0  0
  1  2  2  0
  2  3  1  0
  2 23  1  0
  3  4  1  0
  4  5  2  0
  4  6  1  0
  6  7  2  0
  6 22  1  0
  7  8  1  0
  8  9  1  0
  8 21  2  0
  9 10  1  0
 10 11  2  0
 10 12  1  0
 12 13  2  0
 12 14  1  0
 14 15  2  0
 14 19  1  0
 15 16  1  0
 16 17  1  0
 17 18  1  0
 18 19  2  0
 19 20  1  0
 21 22  1  0
 23 24  1  0
 24 25  2  0
 24 28  1  0
 25 26  1  0
 26 27  2  0
 27 28  1  0
M  END
