
     RDKit          3D

 28 31  0  0  0  0  0  0  0  0999 V2000
   -8.2180   -1.4360   -0.0930 N   0  0  0  0  0  0  0  0  0  0  0  0
   -7.5140   -0.2770    0.2930 C   0  0  0  0  0  0  0  0  0  0  0  0
   -8.0660    0.6580    0.9180 O   0  0  0  0  0  0  0  0  0  0  0  0
   -6.0780   -0.1590   -0.0510 C   0  0  0  0  0  0  0  0  0  0  0  0
   -5.3340   -1.0970   -0.7310 C   0  0  0  0  0  0  0  0  0  0  0  0
   -4.0630   -0.5800   -0.8280 C   0  0  0  0  0  0  0  0  0  0  0  0
   -4.0650    0.6630   -0.2010 C   0  0  0  0  0  0  0  0  0  0  0  0
   -2.9200    1.5770   -0.0630 C   0  0  0  0  0  0  0  0  0  0  0  0
   -3.0740    2.8110    0.6030 C   0  0  0  0  0  0  0  0  0  0  0  0
   -1.4540    3.5210    0.5050 S   0  0  0  0  0  0  0  0  0  0  0  0
   -0.7360    2.0520   -0.4360 C   0  0  0  0  0  0  0  0  0  0  0  0
    0.5930    2.0370   -0.8170 O   0  0  0  0  0  0  0  0  0  0  0  0
    1.5370    1.3890   -0.0760 C   0  0  0  0  0  0  0  0  0  0  0  0
    2.2500    0.3080   -0.6370 C   0  0  0  0  0  0  0  0  0  0  0  0
    3.2130   -0.3990    0.0290 C   0  0  0  0  0  0  0  0  0  0  0  0
    3.4840   -0.0150    1.3240 C   0  0  0  0  0  0  0  0  0  0  0  0
    2.8120    1.0310    1.9040 C   0  0  0  0  0  0  0  0  0  0  0  0
    1.8280    1.7490    1.2110 C   0  0  0  0  0  0  0  0  0  0  0  0
    1.0260    3.0920    2.0230 Cl  0  0  0  0  0  0  0  0  0  0  0  0
    4.7300   -0.9010    2.2510 S   0  0  0  0  0  0  0  0  0  0  0  0
    5.3410   -2.2360    1.2040 C   0  0  0  0  0  0  0  0  0  0  0  0
    5.3010   -1.7780   -0.2390 C   0  0  2  0  0  0  0  0  0  0  0  0
    6.1120   -0.5350   -0.3140 C   0  0  0  0  0  0  0  0  0  0  0  0
    5.5690    0.5530   -0.6310 O   0  0  0  0  0  0  0  0  0  0  0  0
    7.4710   -0.5250   -0.0440 O   0  0  0  0  0  0  0  0  0  0  0  0
    3.9190   -1.4890   -0.5710 N   0  0  0  0  0  0  0  0  0  0  0  0
   -1.7260    1.3580   -0.5080 N   0  0  0  0  0  0  0  0  0  0  0  0
   -5.2860    0.8320    0.2260 O   0  0  0  0  0  0  0  0  0  0  0  0
  1  2  1  0
  2  3  2  0
  2  4  1  0
  4  5  2  0
  4 28  1  0
  5  6  1  0
  6  7  2  0
  7  8  1  0
  7 28  1  0
  8  9  2  0
  8 27  1  0
  9 10  1  0
 10 11  1  0
 11 12  1  0
 11 27  2  0
 12 13  1  0
 13 14  2  0
 13 18  1  0
 14 15  1  0
 15 16  2  0
 15 26  1  0
 16 17  1  0
 16 20  1  0
 17 18  2  0
 18 19  1  0
 20 21  1  0
 21 22  1  0
 22 23  1  1
 22 26  1  0
 23 24  2  0
 23 25  1  0
M  END
