
     RDKit          3D

 23 23  0  0  0  0  0  0  0  0999 V2000
   -5.0950   -3.1040   -2.5430 C   0  0  0  0  0  0  0  0  0  0  0  0
   -3.8480   -3.0990   -1.8910 O   0  0  0  0  0  0  0  0  0  0  0  0
   -3.2550   -1.9130   -1.4370 C   0  0  0  0  0  0  0  0  0  0  0  0
   -3.9170   -0.8740   -1.6570 O   0  0  0  0  0  0  0  0  0  0  0  0
   -1.9450   -1.9120   -0.7510 C   0  0  0  0  0  0  0  0  0  0  0  0
   -1.4870   -0.7580   -0.3670 C   0  0  0  0  0  0  0  0  0  0  0  0
   -2.5090    0.7040   -0.7180 S   0  0  0  0  0  0  0  0  0  0  0  0
   -1.8510    2.1650    0.0930 C   0  0  0  0  0  0  0  0  0  0  0  0
   -1.9840    2.1230    1.5530 C   0  0  0  0  0  0  0  0  0  0  0  0
   -3.1560    2.7790    2.2640 C   0  0  0  0  0  0  0  0  0  0  0  0
   -1.2000    1.5830    2.2900 O   0  0  0  0  0  0  0  0  0  0  0  0
   -0.2710   -0.5310    0.2990 N   0  0  0  0  0  0  0  0  0  0  0  0
    0.5510   -1.4330    0.6180 C   0  0  0  0  0  0  0  0  0  0  0  0
    1.7540   -1.1030    1.2890 N   0  0  0  0  0  0  0  0  0  0  0  0
    2.5530    0.3970    1.1210 S   0  0  2  0  0  0  0  0  0  0  0  0
    3.8310    0.3410    1.9490 O   0  0  0  0  0  0  0  0  0  0  0  0
    1.7510    1.5810    1.5010 O   0  0  0  0  0  0  0  0  0  0  0  0
    3.0390    0.6180   -0.5900 C   0  0  2  0  0  0  0  0  0  0  0  0
    3.9450   -0.4950   -0.9860 C   0  0  0  0  0  0  0  0  0  0  0  0
    3.6710    1.9880   -0.7140 C   0  0  0  0  0  0  0  0  0  0  0  0
    4.8420    2.1320    0.1310 N   0  0  0  0  0  0  0  0  0  0  0  0
    0.2430   -3.1190    0.2410 S   0  0  0  0  0  0  0  0  0  0  0  0
   -1.3350   -3.2350   -0.5850 C   0  0  0  0  0  0  0  0  0  0  0  0
  1  2  1  0
  2  3  1  0
  3  4  2  0
  3  5  1  0
  5  6  2  0
  5 23  1  0
  6  7  1  0
  6 12  1  0
  7  8  1  0
  8  9  1  0
  9 10  1  0
  9 11  2  0
 12 13  2  0
 13 14  1  0
 13 22  1  0
 15 14  1  6
 15 16  2  0
 15 17  2  0
 15 18  1  0
 18 19  1  1
 18 20  1  0
 20 21  1  0
 22 23  1  0
M  CHG  1  21   1
M  END
