
     RDKit          3D

 23 23  0  0  0  0  0  0  0  0999 V2000
   -3.3280    1.4980   -1.2430 C   0  0  0  0  0  0  0  0  0  0  0  0
   -1.9750    1.2790   -0.5740 C   0  0  0  0  0  0  0  0  0  0  0  0
   -1.7980   -0.2110   -0.4080 C   0  0  1  0  0  0  0  0  0  0  0  0
   -0.5570   -0.5600    0.2140 N   0  0  0  0  0  0  0  0  0  0  0  0
    0.5680   -0.2510   -0.6020 C   0  0  0  0  0  0  0  0  0  0  0  0
    0.4210    0.0490   -1.9810 N   0  0  0  0  0  0  0  0  0  0  0  0
    1.7900   -0.2360   -0.0890 C   0  0  0  0  0  0  0  0  0  0  0  0
    2.9360    0.0760   -0.9140 C   0  0  0  0  0  0  0  0  0  0  0  0
    4.1790    0.1100   -0.4750 C   0  0  0  0  0  0  0  0  0  0  0  0
    5.5970    0.5080   -1.5430 S   0  0  0  0  0  0  0  0  0  0  0  0
    6.7290    0.7430   -0.1880 C   0  0  0  0  0  0  0  0  0  0  0  0
    8.1730    1.4400   -0.3100 S   0  0  0  0  0  0  0  0  0  0  0  0
    6.1230    0.2170    0.9520 N   0  0  0  0  0  0  0  0  0  0  0  0
    6.8880    0.0460    2.2010 C   0  0  0  0  0  0  0  0  0  0  0  0
    4.7790   -0.1210    0.8120 C   0  0  0  0  0  0  0  0  0  0  0  0
    4.0900   -0.6160    1.7750 O   0  0  0  0  0  0  0  0  0  0  0  0
   -2.9130   -0.6940    0.4430 C   0  0  0  0  0  0  0  0  0  0  0  0
   -2.6850   -1.2920    1.5030 O   0  0  0  0  0  0  0  0  0  0  0  0
   -4.2500   -0.4970    0.0870 O   0  0  0  0  0  0  0  0  0  0  0  0
   -5.3050   -0.9770    0.9330 C   0  0  0  0  0  0  0  0  0  0  0  0
   -6.8490   -0.5500    0.1690 S   0  0  2  0  0  0  0  0  0  0  0  0
   -6.6180   -0.6140   -1.3310 O   0  0  0  0  0  0  0  0  0  0  0  0
   -7.2510    0.8520    0.4970 O   0  0  0  0  0  0  0  0  0  0  0  0
  1  2  1  0
  3  2  1  1
  3  4  1  0
  3 17  1  0
  4  5  1  0
  5  6  1  0
  5  7  2  3
  7  8  1  0
  8  9  2  3
  9 10  1  0
  9 15  1  0
 10 11  1  0
 11 12  2  0
 11 13  1  0
 13 14  1  0
 13 15  1  0
 15 16  2  0
 17 18  2  0
 17 19  1  0
 19 20  1  0
 21 20  1  1
 21 22  2  0
 21 23  2  0
M  CHG  1   4   1
M  END
