
     RDKit          3D

 23 24  0  0  0  0  0  0  0  0999 V2000
    2.7060    1.4280   -0.6300 N   0  0  0  0  0  0  0  0  0  0  0  0
    1.6590    0.7020   -0.0230 C   0  0  0  0  0  0  0  0  0  0  0  0
    1.9720   -0.2460    0.8370 C   0  0  0  0  0  0  0  0  0  0  0  0
    3.3800   -0.5550    1.1690 C   0  0  0  0  0  0  0  0  0  0  0  0
    3.7710   -1.4690    2.0010 C   0  0  0  0  0  0  0  0  0  0  0  0
    2.6510   -2.5160    2.8940 S   0  0  1  0  0  0  0  0  0  0  0  0
    2.5700   -3.8690    2.2620 O   0  0  0  0  0  0  0  0  0  0  0  0
    3.1470   -2.6970    4.2980 O   0  0  0  0  0  0  0  0  0  0  0  0
    5.4930   -1.5980    2.1670 S   0  0  2  0  0  0  0  0  0  0  0  0
    6.0700   -2.6450    1.2570 O   0  0  0  0  0  0  0  0  0  0  0  0
    5.8590   -1.8490    3.6010 O   0  0  0  0  0  0  0  0  0  0  0  0
    6.0670   -0.0070    1.6300 C   0  0  0  0  0  0  0  0  0  0  0  0
    4.7270    0.3600    0.4220 S   0  0  0  0  0  0  0  0  0  0  0  0
    0.3220    1.0250   -0.3630 N   0  0  0  0  0  0  0  0  0  0  0  0
   -0.0570    1.0020   -1.7570 C   0  0  0  0  0  0  0  0  0  0  0  0
   -1.5580    0.8920   -1.9160 C   0  0  0  0  0  0  0  0  0  0  0  0
   -2.0670    0.1280   -0.8180 N   0  0  2  0  0  0  0  0  0  0  0  0
   -3.3730   -0.4160   -1.0110 C   0  0  0  0  0  0  0  0  0  0  0  0
   -4.4770    0.6030   -0.8820 C   0  0  0  0  0  0  0  0  0  0  0  0
   -5.7910   -0.1540   -1.1170 C   0  0  0  0  0  0  0  0  0  0  0  0
   -6.8850    0.6950   -1.0210 O   0  0  0  0  0  0  0  0  0  0  0  0
   -1.9960    0.8640    0.4300 C   0  0  0  0  0  0  0  0  0  0  0  0
   -0.5970    1.3620    0.7000 C   0  0  0  0  0  0  0  0  0  0  0  0
  1  2  1  0
  2  3  2  3
  2 14  1  0
  3  4  1  0
  4  5  2  0
  4 13  1  0
  6  5  1  6
  5  9  1  0
  6  7  2  0
  6  8  2  0
  9 10  2  0
  9 11  2  0
  9 12  1  6
 12 13  1  0
 14 15  1  0
 14 23  1  0
 15 16  1  0
 16 17  1  0
 17 18  1  6
 17 22  1  0
 18 19  1  0
 19 20  1  0
 20 21  1  0
 22 23  1  0
M  CHG  1  17   1
M  END
