
     RDKit          3D

 23 24  0  0  0  0  0  0  0  0999 V2000
    2.3880   -1.9840   -0.2280 N   0  0  0  0  0  0  0  0  0  0  0  0
    3.4390   -0.9880   -0.1680 C   0  0  0  0  0  0  0  0  0  0  0  0
    4.4590   -1.2710    0.5900 C   0  0  0  0  0  0  0  0  0  0  0  0
    5.7960   -0.1160    0.7300 S   0  0  0  0  0  0  0  0  0  0  0  0
    5.4350    1.3050   -0.2900 C   0  0  0  0  0  0  0  0  0  0  0  0
    4.1500    1.1770   -0.9720 C   0  0  0  0  0  0  0  0  0  0  0  0
    3.2770    0.2140   -0.9410 C   0  0  0  0  0  0  0  0  0  0  0  0
    2.1350    0.3690   -1.7000 O   0  0  0  0  0  0  0  0  0  0  0  0
    0.8120    0.2430   -1.3690 C   0  0  0  0  0  0  0  0  0  0  0  0
    0.2770    1.1530   -0.2980 C   0  0  2  0  0  0  0  0  0  0  0  0
    0.9440    1.0010    1.0190 C   0  0  0  0  0  0  0  0  0  0  0  0
    0.3650    1.9160    2.0230 N   0  0  0  0  0  0  0  0  0  0  0  0
   -1.4820    1.1390   -0.2230 S   0  0  2  0  0  0  0  0  0  0  0  0
   -1.9870    1.4870   -1.6170 O   0  0  0  0  0  0  0  0  0  0  0  0
   -1.9380    2.2770    0.6610 O   0  0  0  0  0  0  0  0  0  0  0  0
   -2.2130   -0.2740    0.2810 N   0  0  0  0  0  0  0  0  0  0  0  0
   -2.0250   -1.4450   -0.4790 C   0  0  0  0  0  0  0  0  0  0  0  0
   -3.2740   -2.2920   -0.5500 C   0  0  0  0  0  0  0  0  0  0  0  0
   -4.6160   -1.1960   -1.0330 S   0  0  2  0  0  0  0  0  0  0  0  0
   -5.9090   -1.9160   -1.1230 O   0  0  0  0  0  0  0  0  0  0  0  0
   -4.2070   -0.5620   -2.3440 O   0  0  0  0  0  0  0  0  0  0  0  0
   -4.6430    0.0710    0.2440 C   0  0  0  0  0  0  0  0  0  0  0  0
   -3.3790   -0.1700    1.0680 C   0  0  0  0  0  0  0  0  0  0  0  0
  1  2  1  0
  2  3  2  0
  2  7  1  0
  3  4  1  0
  4  5  1  0
  5  6  1  0
  6  7  2  0
  7  8  1  0
  8  9  1  0
 10  9  1  6
 10 11  1  0
 10 13  1  0
 11 12  1  0
 13 14  2  0
 13 15  2  0
 13 16  1  1
 16 17  1  0
 16 23  1  0
 17 18  1  0
 19 18  1  1
 19 20  2  0
 19 21  2  0
 19 22  1  0
 22 23  1  0
M  CHG  1  12   1
M  END
