
     RDKit          3D

 23 24  0  0  0  0  0  0  0  0999 V2000
   -7.2080    0.3350   -0.3420 C   0  0  0  0  0  0  0  0  0  0  0  0
   -5.9580    0.4670   -1.1820 C   0  0  0  0  0  0  0  0  0  0  0  0
   -5.0780    1.4760   -0.6360 N   0  0  0  0  0  0  0  0  0  0  0  0
   -3.7340    1.2960   -1.1070 C   0  0  0  0  0  0  0  0  0  0  0  0
   -2.9250    0.5030   -0.1480 C   0  0  0  0  0  0  0  0  0  0  0  0
   -3.4610   -0.2560    0.8600 C   0  0  0  0  0  0  0  0  0  0  0  0
   -2.3790   -0.8170    1.5050 C   0  0  0  0  0  0  0  0  0  0  0  0
   -1.2310   -0.3870    0.8770 C   0  0  0  0  0  0  0  0  0  0  0  0
    0.1430   -0.7340    1.2270 C   0  0  0  0  0  0  0  0  0  0  0  0
    1.2880   -0.5230    0.9070 N   0  0  0  0  0  0  0  0  0  0  0  0
    2.3720   -0.9760    1.4130 N   0  0  0  0  0  0  0  0  0  0  0  0
    3.7530   -0.6580    0.9610 C   0  0  0  0  0  0  0  0  0  0  0  0
    4.2190   -1.5680   -0.0010 N   0  0  0  0  0  0  0  0  0  0  0  0
    5.5140   -1.2760   -0.4870 C   0  0  0  0  0  0  0  0  0  0  0  0
    5.7520   -0.1980   -1.4540 C   0  0  0  0  0  0  0  0  0  0  0  0
    5.2720    1.4380   -1.0980 S   0  0  1  0  0  0  0  0  0  0  0  0
    6.0030    2.2900   -2.2110 O   0  0  0  0  0  0  0  0  0  0  0  0
    3.8530    1.7800   -1.3400 O   0  0  0  0  0  0  0  0  0  0  0  0
    5.8980    2.0680    0.3080 O   0  0  0  0  0  0  0  0  0  0  0  0
    2.2210   -1.8250    2.4740 C   0  0  0  0  0  0  0  0  0  0  0  0
    3.0530   -2.4250    3.1750 O   0  0  0  0  0  0  0  0  0  0  0  0
    0.4440   -1.9120    2.6710 S   0  0  0  0  0  0  0  0  0  0  0  0
   -1.6180    0.3910   -0.0940 O   0  0  0  0  0  0  0  0  0  0  0  0
  1  2  1  0
  2  3  1  0
  3  4  1  0
  4  5  1  0
  5  6  2  0
  5 23  1  0
  6  7  1  0
  7  8  2  0
  8  9  1  0
  8 23  1  0
  9 10  2  0
  9 22  1  0
 10 11  1  0
 11 12  1  0
 11 20  1  0
 12 13  1  0
 13 14  1  0
 14 15  1  0
 15 16  1  0
 16 17  2  0
 16 18  2  0
 16 19  1  1
 20 21  2  0
 20 22  1  0
M  CHG  1   3   1
M  END
