
     RDKit          3D

 23 24  0  0  0  0  0  0  0  0999 V2000
   -2.4250   -1.3160   -2.1500 C   0  0  0  0  0  0  0  0  0  0  0  0
   -2.6900   -0.6280   -0.8280 C   0  0  0  0  0  0  0  0  0  0  0  0
   -2.6150   -1.2770    0.2990 C   0  0  0  0  0  0  0  0  0  0  0  0
   -2.9880   -0.1170    1.5420 S   0  0  1  0  0  0  0  0  0  0  0  0
   -4.2620   -0.4650    2.2660 O   0  0  0  0  0  0  0  0  0  0  0  0
   -1.8560    0.1170    2.4850 O   0  0  0  0  0  0  0  0  0  0  0  0
   -3.2380    1.2420    0.4660 C   0  0  0  0  0  0  0  0  0  0  0  0
   -3.0340    0.7660   -0.7490 C   0  0  0  0  0  0  0  0  0  0  0  0
   -3.1950    1.6630   -1.8730 N   0  0  0  0  0  0  0  0  0  0  0  0
   -2.5640    2.7700   -1.9390 C   0  0  0  0  0  0  0  0  0  0  0  0
   -1.6820    3.1250   -0.8850 N   0  0  0  0  0  0  0  0  0  0  0  0
   -0.7650    2.2060   -0.3890 N   0  0  0  0  0  0  0  0  0  0  0  0
   -0.0900    2.5020    0.8220 C   0  0  0  0  0  0  0  0  0  0  0  0
   -0.3550    3.5790    1.4020 O   0  0  0  0  0  0  0  0  0  0  0  0
    0.9170    1.6050    1.4430 C   0  0  0  0  0  0  0  0  0  0  0  0
    1.0890    0.1820    0.3010 S   0  0  0  0  0  0  0  0  0  0  0  0
    2.3220   -1.0110    0.9520 C   0  0  1  0  0  0  0  0  0  0  0  0
    2.3990   -2.1120   -0.0420 C   0  0  0  0  0  0  0  0  0  0  0  0
    3.7040   -2.8280    0.0760 C   0  0  0  0  0  0  0  0  0  0  0  0
    4.8150   -1.4930    0.4970 S   0  0  2  0  0  0  0  0  0  0  0  0
    5.5090   -1.0570   -0.7580 O   0  0  0  0  0  0  0  0  0  0  0  0
    5.7690   -1.8990    1.5760 O   0  0  0  0  0  0  0  0  0  0  0  0
    3.6240   -0.2990    1.0550 C   0  0  0  0  0  0  0  0  0  0  0  0
  1  2  1  0
  2  3  2  0
  2  8  1  0
  4  3  1  6
  4  5  2  0
  4  6  2  0
  4  7  1  0
  7  8  2  0
  8  9  1  0
  9 10  2  3
 10 11  1  0
 11 12  1  0
 12 13  1  0
 13 14  2  0
 13 15  1  0
 15 16  1  0
 17 16  1  6
 17 18  1  0
 17 23  1  0
 18 19  1  0
 20 19  1  6
 20 21  2  0
 20 22  2  0
 20 23  1  0
M  CHG  1   9   1
M  END
