
     RDKit          3D

 23 23  0  0  0  0  0  0  0  0999 V2000
    6.9650   -1.1450   -0.3900 C   0  0  0  0  0  0  0  0  0  0  0  0
    5.7720   -0.7190   -0.0620 C   0  0  0  0  0  0  0  0  0  0  0  0
    4.9190   -1.5340    0.8350 C   0  0  0  0  0  0  0  0  0  0  0  0
    4.5080   -0.6000    2.3280 S   0  0  0  0  0  0  0  0  0  0  0  0
    3.4100    0.8050    1.9620 C   0  0  0  0  0  0  0  0  0  0  0  0
    1.8170    0.1340    1.4190 S   0  0  0  0  0  0  0  0  0  0  0  0
    0.7310    1.4800    1.0310 C   0  0  0  0  0  0  0  0  0  0  0  0
    1.2520    3.0090    1.1740 S   0  0  0  0  0  0  0  0  0  0  0  0
   -0.5820    1.2010    0.5970 N   0  0  0  0  0  0  0  0  0  0  0  0
   -1.0340   -0.1410    0.4740 C   0  0  0  0  0  0  0  0  0  0  0  0
   -0.2770   -1.1290    0.7490 O   0  0  0  0  0  0  0  0  0  0  0  0
   -2.3140   -0.4700    0.0530 O   0  0  0  0  0  0  0  0  0  0  0  0
   -2.7530   -1.8100   -0.0660 C   0  0  0  0  0  0  0  0  0  0  0  0
   -4.1460   -1.7950   -0.5310 C   0  0  0  0  0  0  0  0  0  0  0  0
   -4.7440   -2.8320   -0.6790 O   0  0  0  0  0  0  0  0  0  0  0  0
   -4.8050   -0.5140   -0.8130 C   0  0  2  0  0  0  0  0  0  0  0  0
   -5.0270    0.3500    0.4200 C   0  0  0  0  0  0  0  0  0  0  0  0
   -5.9660    1.3250   -0.1430 N   0  0  0  0  0  0  0  0  0  0  0  0
   -6.9060    0.4720   -0.7860 C   0  0  0  0  0  0  0  0  0  0  0  0
   -8.1450    0.6670   -0.9490 O   0  0  0  0  0  0  0  0  0  0  0  0
   -6.1980   -0.6870   -1.2380 N   0  0  0  0  0  0  0  0  0  0  0  0
    5.3090    0.4810   -0.5470 O   0  0  0  0  0  0  0  0  0  0  0  0
    6.1870    1.5980   -0.4470 C   0  0  0  0  0  0  0  0  0  0  0  0
  1  2  2  0
  2  3  1  0
  2 22  1  0
  3  4  1  0
  4  5  1  0
  5  6  1  0
  6  7  1  0
  7  8  2  0
  7  9  1  0
  9 10  1  0
 10 11  2  0
 10 12  1  0
 12 13  1  0
 13 14  1  0
 14 15  2  0
 16 14  1  1
 16 17  1  0
 16 21  1  0
 17 18  1  0
 18 19  1  0
 19 20  2  0
 19 21  1  0
 22 23  1  0
M  CHG  1  18   1
M  END
