
     RDKit          3D

 22 23  0  0  0  0  0  0  0  0999 V2000
    2.9260    0.9470    1.7980 O   0  0  0  0  0  0  0  0  0  0  0  0
    2.9710    0.3110    0.6970 C   0  0  0  0  0  0  0  0  0  0  0  0
    1.7560    0.0660    0.0870 O   0  0  0  0  0  0  0  0  0  0  0  0
    0.5090    0.4740    0.6120 C   0  0  2  0  0  0  0  0  0  0  0  0
   -0.2830   -0.8080    0.8700 C   0  0  0  0  0  0  0  0  0  0  0  0
   -0.9530   -1.1180   -0.4650 C   0  0  1  0  0  0  0  0  0  0  0  0
   -0.0610   -1.6550   -1.3710 O   0  0  0  0  0  0  0  0  0  0  0  0
   -2.1800   -1.9630   -0.3050 C   0  0  1  0  0  0  0  0  0  0  0  0
   -2.6050   -2.0690    1.0200 O   0  0  0  0  0  0  0  0  0  0  0  0
   -3.2210   -1.5560   -1.1360 O   0  0  0  0  0  0  0  0  0  0  0  0
   -3.5730   -0.2410   -0.9550 C   0  0  1  0  0  0  0  0  0  0  0  0
   -4.9460   -0.0970   -0.3260 C   0  0  0  0  0  0  0  0  0  0  0  0
   -4.9560   -0.7180    0.9070 O   0  0  0  0  0  0  0  0  0  0  0  0
   -2.6190    0.5080   -0.2710 O   0  0  0  0  0  0  0  0  0  0  0  0
   -1.3890    0.2820   -0.8880 C   0  0  1  0  0  0  0  0  0  0  0  0
   -0.3310    1.2170   -0.3650 C   0  0  2  0  0  0  0  0  0  0  0  0
    0.4550    1.8180   -1.5070 C   0  0  0  0  0  0  0  0  0  0  0  0
    1.3970    2.7130   -1.0110 O   0  0  0  0  0  0  0  0  0  0  0  0
    4.2720   -0.1170    0.1450 C   0  0  2  0  0  0  0  0  0  0  0  0
    5.2920    0.2800    0.9890 O   0  0  0  0  0  0  0  0  0  0  0  0
    4.5390    0.4290   -1.2240 C   0  0  0  0  0  0  0  0  0  0  0  0
    4.6080    1.8030   -1.2690 O   0  0  0  0  0  0  0  0  0  0  0  0
  1  2  2  0
  2  3  1  0
  2 19  1  0
  4  3  1  6
  4  5  1  0
  4 16  1  0
  5  6  1  0
  6  7  1  6
  6  8  1  0
  6 15  1  0
  8  9  1  1
  8 10  1  0
 10 11  1  0
 11 12  1  1
 11 14  1  0
 12 13  1  0
 15 14  1  1
 15 16  1  0
 16 17  1  6
 17 18  1  0
 19 20  1  1
 19 21  1  0
 21 22  1  0
M  END
