
     RDKit          3D

 22 22  0  0  0  0  0  0  0  0999 V2000
    5.5570    0.5380   -1.1860 O   0  0  0  0  0  0  0  0  0  0  0  0
    5.3650   -0.3000   -0.0840 C   0  0  0  0  0  0  0  0  0  0  0  0
    4.4960   -1.4750   -0.4570 C   0  0  0  0  0  0  0  0  0  0  0  0
    3.2510   -1.1230   -0.9020 O   0  0  0  0  0  0  0  0  0  0  0  0
    2.4950   -0.4190   -0.0010 C   0  0  0  0  0  0  0  0  0  0  0  0
    1.2370   -0.0810   -0.4910 O   0  0  0  0  0  0  0  0  0  0  0  0
    0.4610    0.6320    0.4090 C   0  0  1  0  0  0  0  0  0  0  0  0
    0.2090    2.0370   -0.0000 C   0  0  0  0  0  0  0  0  0  0  0  0
    1.4170    2.7660   -0.1350 O   0  0  0  0  0  0  0  0  0  0  0  0
   -0.6560   -0.2060    0.8400 C   0  0  1  0  0  0  0  0  0  0  0  0
    0.0210   -1.3360    1.4580 O   0  0  0  0  0  0  0  0  0  0  0  0
   -1.5150    0.2760    1.9640 C   0  0  0  0  0  0  0  0  0  0  0  0
   -2.6770   -0.7270    1.9450 C   0  0  0  0  0  0  0  0  0  0  0  0
   -2.3790   -1.6720    0.8140 C   0  0  1  0  0  0  0  0  0  0  0  0
   -3.4510   -2.2790    0.2590 O   0  0  0  0  0  0  0  0  0  0  0  0
   -1.5330   -0.8640   -0.1560 C   0  0  2  0  0  0  0  0  0  0  0  0
   -0.7180   -1.8400   -0.8060 O   0  0  0  0  0  0  0  0  0  0  0  0
   -2.2240   -0.1650   -1.1950 C   0  0  0  0  0  0  0  0  0  0  0  0
   -3.2290    0.8760   -1.0490 C   0  0  2  0  0  0  0  0  0  0  0  0
   -2.9440    2.0390   -0.4110 O   0  0  0  0  0  0  0  0  0  0  0  0
   -4.4780    0.4440   -0.5890 O   0  0  0  0  0  0  0  0  0  0  0  0
   -3.5380    1.2700   -2.3910 O   0  0  0  0  0  0  0  0  0  0  0  0
  1  2  1  0
  2  3  1  0
  3  4  1  0
  4  5  1  0
  5  6  1  0
  6  7  1  0
  7  8  1  6
  7 10  1  0
  8  9  1  0
 10 11  1  1
 10 12  1  0
 10 16  1  0
 12 13  1  0
 13 14  1  0
 14 15  1  6
 14 16  1  0
 16 17  1  6
 16 18  1  0
 18 19  1  0
 19 20  1  1
 19 21  1  0
 19 22  1  0
M  END
