
     RDKit          3D

 22 22  0  0  0  0  0  0  0  0999 V2000
   -2.7690   -3.9510    1.3480 O   0  0  0  0  0  0  0  0  0  0  0  0
   -3.2230   -2.8310    1.6850 C   0  0  0  0  0  0  0  0  0  0  0  0
   -3.7590   -2.7120    2.9560 O   0  0  0  0  0  0  0  0  0  0  0  0
   -3.1670   -1.7750    0.7820 O   0  0  0  0  0  0  0  0  0  0  0  0
   -2.5980   -1.9590   -0.5280 C   0  0  0  0  0  0  0  0  0  0  0  0
   -2.6910   -0.6530   -1.2350 C   0  0  1  0  0  0  0  0  0  0  0  0
   -4.0890   -0.3720   -1.2840 O   0  0  0  0  0  0  0  0  0  0  0  0
   -2.0650    0.5200   -0.5560 C   0  0  2  0  0  0  0  0  0  0  0  0
   -2.3800    1.7290   -1.5120 C   0  0  0  0  0  0  0  0  0  0  0  0
   -3.7760    1.8250   -1.6240 O   0  0  0  0  0  0  0  0  0  0  0  0
   -0.6050    0.5480   -0.3880 C   0  0  2  0  0  0  0  0  0  0  0  0
    0.0020    0.5230   -1.6770 O   0  0  0  0  0  0  0  0  0  0  0  0
    0.0330   -0.5730    0.3970 C   0  0  0  0  0  0  0  0  0  0  0  0
    1.1320   -0.1090    1.1570 O   0  0  0  0  0  0  0  0  0  0  0  0
    2.0090    0.6300    0.3670 C   0  0  2  0  0  0  0  0  0  0  0  0
    3.1840    0.7600    1.0440 O   0  0  0  0  0  0  0  0  0  0  0  0
    4.2750    0.1470    0.4890 C   0  0  0  0  0  0  0  0  0  0  0  0
    5.4680    0.4090    1.3890 C   0  0  0  0  0  0  0  0  0  0  0  0
    6.6260   -0.2030    0.8620 O   0  0  0  0  0  0  0  0  0  0  0  0
    1.3840    1.9140   -0.0810 C   0  0  1  0  0  0  0  0  0  0  0  0
    1.4460    2.1160   -1.4540 O   0  0  0  0  0  0  0  0  0  0  0  0
   -0.1150    1.8110    0.2750 C   0  0  0  0  0  0  0  0  0  0  0  0
  1  2  2  0
  2  3  1  0
  2  4  1  0
  4  5  1  0
  5  6  1  0
  6  7  1  1
  6  8  1  0
  8  9  1  6
  8 11  1  0
  9 10  1  0
 11 12  1  6
 11 13  1  0
 11 22  1  0
 13 14  1  0
 14 15  1  0
 15 16  1  1
 15 20  1  0
 16 17  1  0
 17 18  1  0
 18 19  1  0
 20 21  1  6
 20 22  1  0
M  END
