
     RDKit          3D

 22 22  0  0  0  0  0  0  0  0999 V2000
    8.5030   -0.4450    0.0720 O   0  0  0  0  0  0  0  0  0  0  0  0
    7.3700   -0.6920   -0.7290 C   0  0  0  0  0  0  0  0  0  0  0  0
    6.1700   -0.3300    0.1140 C   0  0  0  0  0  0  0  0  0  0  0  0
    4.9730   -0.5330   -0.5720 O   0  0  0  0  0  0  0  0  0  0  0  0
    3.9470   -0.1670    0.3010 C   0  0  0  0  0  0  0  0  0  0  0  0
    2.5850   -0.3430   -0.3330 C   0  0  1  0  0  0  0  0  0  0  0  0
    2.3580   -1.6670   -0.7040 O   0  0  0  0  0  0  0  0  0  0  0  0
    1.5600    0.0720    0.7020 C   0  0  0  0  0  0  0  0  0  0  0  0
    0.2630   -0.0140    0.2600 O   0  0  0  0  0  0  0  0  0  0  0  0
   -0.0270    0.7670   -0.8370 C   0  0  0  0  0  0  0  0  0  0  0  0
   -1.5030    0.5320   -1.1670 C   0  0  1  0  0  0  0  0  0  0  0  0
   -1.7400   -0.8070   -1.4560 O   0  0  0  0  0  0  0  0  0  0  0  0
   -2.3500    0.9220    0.0460 C   0  0  2  0  0  0  0  0  0  0  0  0
   -2.0180    0.1500    1.1460 O   0  0  0  0  0  0  0  0  0  0  0  0
   -3.8010    0.6950   -0.3110 C   0  0  1  0  0  0  0  0  0  0  0  0
   -4.1530    1.4660   -1.4190 O   0  0  0  0  0  0  0  0  0  0  0  0
   -3.9960   -0.6280   -0.6330 O   0  0  0  0  0  0  0  0  0  0  0  0
   -4.8720   -1.2850    0.2120 C   0  0  0  0  0  0  0  0  0  0  0  0
   -6.1420   -0.5450    0.4720 C   0  0  0  0  0  0  0  0  0  0  0  0
   -5.9850    0.8390    0.5050 O   0  0  0  0  0  0  0  0  0  0  0  0
   -4.6540    1.1000    0.8810 C   0  0  2  0  0  0  0  0  0  0  0  0
   -4.5410    2.4720    1.0590 O   0  0  0  0  0  0  0  0  0  0  0  0
  1  2  1  0
  2  3  1  0
  3  4  1  0
  4  5  1  0
  5  6  1  0
  6  7  1  1
  6  8  1  0
  8  9  1  0
  9 10  1  0
 10 11  1  0
 11 12  1  1
 11 13  1  0
 13 14  1  1
 13 15  1  0
 15 16  1  6
 15 17  1  0
 15 21  1  0
 17 18  1  0
 18 19  1  0
 19 20  1  0
 20 21  1  0
 21 22  1  6
M  END
