
     RDKit          3D

 22 22  0  0  0  0  0  0  0  0999 V2000
    5.4630    0.5820    0.2530 C   0  0  0  0  0  0  0  0  0  0  0  0
    4.2950   -0.3430    0.4120 C   0  0  2  0  0  0  0  0  0  0  0  0
    4.6780   -1.6530    0.1220 O   0  0  0  0  0  0  0  0  0  0  0  0
    3.2860    0.0840   -0.4700 O   0  0  0  0  0  0  0  0  0  0  0  0
    2.5050    0.9170    0.3280 C   0  0  1  0  0  0  0  0  0  0  0  0
    3.3350    2.1090    0.5300 O   0  0  0  0  0  0  0  0  0  0  0  0
    1.2360    1.3650   -0.2980 C   0  0  1  0  0  0  0  0  0  0  0  0
    1.6190    2.1940   -1.4300 O   0  0  0  0  0  0  0  0  0  0  0  0
    0.3630    0.3260   -0.8620 C   0  0  0  0  0  0  0  0  0  0  0  0
   -0.1350   -0.7030    0.1020 C   0  0  2  0  0  0  0  0  0  0  0  0
    0.9340   -1.4080    0.6190 O   0  0  0  0  0  0  0  0  0  0  0  0
   -1.0640   -1.6960   -0.5420 C   0  0  0  0  0  0  0  0  0  0  0  0
   -2.2310   -1.2080   -1.0470 O   0  0  0  0  0  0  0  0  0  0  0  0
   -3.1020   -0.6550   -0.1170 C   0  0  2  0  0  0  0  0  0  0  0  0
   -4.2860   -1.6270   -0.0720 C   0  0  0  0  0  0  0  0  0  0  0  0
   -3.8240   -2.8730    0.3210 O   0  0  0  0  0  0  0  0  0  0  0  0
   -3.5240    0.6990   -0.5540 C   0  0  0  0  0  0  0  0  0  0  0  0
   -4.4850    1.3700    0.4020 C   0  0  0  0  0  0  0  0  0  0  0  0
   -4.8080    2.6270   -0.1090 O   0  0  0  0  0  0  0  0  0  0  0  0
    2.4150    0.2790    1.5620 O   0  0  0  0  0  0  0  0  0  0  0  0
    3.6900   -0.2740    1.7610 C   0  0  0  0  0  0  0  0  0  0  0  0
    4.1880   -0.6230    2.8360 O   0  0  0  0  0  0  0  0  0  0  0  0
  2  1  1  1
  2  3  1  0
  2  4  1  0
  2 21  1  0
  4  5  1  0
  5  6  1  1
  5  7  1  0
  5 20  1  0
  7  8  1  6
  7  9  1  0
  9 10  1  0
 10 11  1  6
 10 12  1  0
 12 13  1  0
 13 14  1  0
 14 15  1  6
 14 17  1  0
 15 16  1  0
 17 18  1  0
 18 19  1  0
 20 21  1  0
 21 22  2  0
M  END
