
     RDKit          3D

 22 22  0  0  0  0  0  0  0  0999 V2000
    3.5370    2.0530    1.1220 O   0  0  0  0  0  0  0  0  0  0  0  0
    3.8910    1.1160    0.3570 C   0  0  0  0  0  0  0  0  0  0  0  0
    2.9760    0.5210   -0.6500 C   0  0  0  0  0  0  0  0  0  0  0  0
    2.1450   -0.5120    0.0650 C   0  0  2  0  0  0  0  0  0  0  0  0
    3.0160   -1.4640    0.5890 O   0  0  0  0  0  0  0  0  0  0  0  0
    1.1210   -1.1690   -0.8140 C   0  0  2  0  0  0  0  0  0  0  0  0
    1.7690   -1.8240   -1.8630 O   0  0  0  0  0  0  0  0  0  0  0  0
    0.1020   -0.3530   -1.2110 O   0  0  0  0  0  0  0  0  0  0  0  0
   -1.1640   -0.7410   -0.7580 C   0  0  2  0  0  0  0  0  0  0  0  0
   -1.9980   -1.0890   -1.9230 C   0  0  0  0  0  0  0  0  0  0  0  0
   -3.3450   -0.8870   -1.8030 O   0  0  0  0  0  0  0  0  0  0  0  0
   -3.6760    0.3810   -1.3600 C   0  0  0  0  0  0  0  0  0  0  0  0
   -3.2200    0.4320    0.1000 C   0  0  2  0  0  0  0  0  0  0  0  0
   -4.0170   -0.6280    0.8270 C   0  0  0  0  0  0  0  0  0  0  0  0
   -3.7170   -0.7070    2.1660 O   0  0  0  0  0  0  0  0  0  0  0  0
   -3.6560    1.7770    0.6440 C   0  0  0  0  0  0  0  0  0  0  0  0
   -3.0970    2.8410   -0.0510 O   0  0  0  0  0  0  0  0  0  0  0  0
   -1.7540    0.2500    0.2000 C   0  0  1  0  0  0  0  0  0  0  0  0
   -1.3600   -0.0200    1.5120 O   0  0  0  0  0  0  0  0  0  0  0  0
    5.1790    0.6060    0.4420 O   0  0  0  0  0  0  0  0  0  0  0  0
    6.1180    1.1040    1.3650 C   0  0  0  0  0  0  0  0  0  0  0  0
    7.3170    0.3980    1.2150 O   0  0  0  0  0  0  0  0  0  0  0  0
  1  2  2  0
  2  3  1  0
  2 20  1  0
  3  4  1  0
  4  5  1  6
  4  6  1  0
  6  7  1  6
  6  8  1  0
  9  8  1  6
  9 10  1  0
  9 18  1  0
 10 11  1  0
 11 12  1  0
 12 13  1  0
 13 14  1  1
 13 16  1  0
 13 18  1  0
 14 15  1  0
 16 17  1  0
 18 19  1  1
 20 21  1  0
 21 22  1  0
M  END
