
     RDKit          3D

 22 22  0  0  0  0  0  0  0  0999 V2000
    3.7220    2.1290    0.6940 C   0  0  0  0  0  0  0  0  0  0  0  0
    2.9940    0.9730    0.6360 O   0  0  0  0  0  0  0  0  0  0  0  0
    2.2880    0.9310   -0.5480 C   0  0  0  0  0  0  0  0  0  0  0  0
    1.4390   -0.3070   -0.7300 C   0  0  1  0  0  0  0  0  0  0  0  0
    2.4750   -1.3250   -0.6170 O   0  0  0  0  0  0  0  0  0  0  0  0
    2.0730   -2.4530   -1.3250 C   0  0  0  0  0  0  0  0  0  0  0  0
    0.6960   -2.5260   -1.1160 O   0  0  0  0  0  0  0  0  0  0  0  0
    0.5560   -2.2170    0.2770 C   0  0  0  0  0  0  0  0  0  0  0  0
    0.4880   -0.6310    0.3450 C   0  0  1  0  0  0  0  0  0  0  0  0
    1.0670   -0.3380    1.5670 O   0  0  0  0  0  0  0  0  0  0  0  0
   -0.9680   -0.4040    0.2550 C   0  0  1  0  0  0  0  0  0  0  0  0
   -1.5670   -1.2280   -0.8000 C   0  0  0  0  0  0  0  0  0  0  0  0
   -2.4400   -2.1320   -0.5690 O   0  0  0  0  0  0  0  0  0  0  0  0
   -1.2300   -1.0890   -2.1390 O   0  0  0  0  0  0  0  0  0  0  0  0
   -1.5320   -0.7230    1.6210 C   0  0  1  0  0  0  0  0  0  0  0  0
   -1.3610   -1.9730    2.1170 O   0  0  0  0  0  0  0  0  0  0  0  0
   -0.9300    0.1290    2.6090 O   0  0  0  0  0  0  0  0  0  0  0  0
   -1.4750    0.9960   -0.0040 C   0  0  2  0  0  0  0  0  0  0  0  0
   -1.0270    1.7030   -1.2230 C   0  0  0  0  0  0  0  0  0  0  0  0
   -1.3900    1.7390    1.1520 O   0  0  0  0  0  0  0  0  0  0  0  0
   -2.9890    0.8020   -0.2880 C   0  0  0  0  0  0  0  0  0  0  0  0
   -3.5930    2.0530   -0.4340 O   0  0  0  0  0  0  0  0  0  0  0  0
  1  2  1  0
  2  3  1  0
  4  3  1  1
  4  5  1  0
  4  9  1  0
  5  6  1  0
  6  7  1  0
  7  8  1  0
  8  9  1  0
  9 10  1  1
  9 11  1  0
 11 12  1  6
 11 15  1  0
 11 18  1  0
 12 13  2  0
 12 14  1  0
 15 16  1  1
 15 17  1  0
 18 19  1  6
 18 20  1  0
 18 21  1  0
 21 22  1  0
M  END
