
     RDKit          3D

 22 22  0  0  0  0  0  0  0  0999 V2000
    0.1020   -1.5470   -2.2150 O   0  0  0  0  0  0  0  0  0  0  0  0
   -0.4710   -1.7290   -1.0840 C   0  0  0  0  0  0  0  0  0  0  0  0
   -1.9150   -1.8830   -1.0590 C   0  0  0  0  0  0  0  0  0  0  0  0
   -2.7610   -0.8160   -0.5270 C   0  0  2  0  0  0  0  0  0  0  0  0
   -4.1130   -1.2580   -0.6640 O   0  0  0  0  0  0  0  0  0  0  0  0
   -2.6800    0.5400   -1.1510 C   0  0  0  0  0  0  0  0  0  0  0  0
   -3.3290    1.3590   -0.0210 C   0  0  2  0  0  0  0  0  0  0  0  0
   -3.2250    2.8270   -0.2150 C   0  0  0  0  0  0  0  0  0  0  0  0
   -3.9660    3.2460   -1.3150 O   0  0  0  0  0  0  0  0  0  0  0  0
   -2.6020    0.8890    1.0600 O   0  0  0  0  0  0  0  0  0  0  0  0
   -2.6060   -0.4990    0.9480 C   0  0  2  0  0  0  0  0  0  0  0  0
   -1.5460   -1.1250    1.5580 O   0  0  0  0  0  0  0  0  0  0  0  0
    0.3920   -1.7590   -0.0010 O   0  0  0  0  0  0  0  0  0  0  0  0
    1.7750   -1.6340   -0.0300 C   0  0  2  0  0  0  0  0  0  0  0  0
    2.4740   -2.6990    0.7640 C   0  0  0  0  0  0  0  0  0  0  0  0
    3.8490   -2.5050    0.6880 O   0  0  0  0  0  0  0  0  0  0  0  0
    2.2490   -0.3230    0.5690 C   0  0  0  0  0  0  0  0  0  0  0  0
    1.5110    0.5460    1.0260 O   0  0  0  0  0  0  0  0  0  0  0  0
    3.6240   -0.1640    0.5650 O   0  0  0  0  0  0  0  0  0  0  0  0
    4.3250    0.9400    1.0390 C   0  0  0  0  0  0  0  0  0  0  0  0
    3.9350    2.1600    0.2430 C   0  0  0  0  0  0  0  0  0  0  0  0
    4.6260    3.2980    0.6940 O   0  0  0  0  0  0  0  0  0  0  0  0
  1  2  2  0
  2  3  1  0
  2 13  1  0
  3  4  1  0
  4  5  1  1
  4  6  1  0
  4 11  1  0
  6  7  1  0
  7  8  1  6
  7 10  1  0
  8  9  1  0
 10 11  1  0
 11 12  1  6
 13 14  1  0
 14 15  1  1
 14 17  1  0
 15 16  1  0
 17 18  2  0
 17 19  1  0
 19 20  1  0
 20 21  1  0
 21 22  1  0
M  END
