
     RDKit          3D

 22 22  0  0  0  0  0  0  0  0999 V2000
    3.8690    1.1800   -1.6640 O   0  0  0  0  0  0  0  0  0  0  0  0
    3.8100    2.1000   -0.6610 C   0  0  0  0  0  0  0  0  0  0  0  0
    3.2290    1.5880    0.6260 C   0  0  0  0  0  0  0  0  0  0  0  0
    3.8620    0.5540    1.2180 O   0  0  0  0  0  0  0  0  0  0  0  0
    3.9450   -0.6520    0.6210 C   0  0  0  0  0  0  0  0  0  0  0  0
    2.6350   -1.3810    0.3950 C   0  0  2  0  0  0  0  0  0  0  0  0
    2.0990   -1.5430    1.6990 O   0  0  0  0  0  0  0  0  0  0  0  0
    3.0260   -2.7580   -0.0950 C   0  0  0  0  0  0  0  0  0  0  0  0
    3.5650   -2.6780   -1.3780 O   0  0  0  0  0  0  0  0  0  0  0  0
    1.8470   -0.6810   -0.4220 O   0  0  0  0  0  0  0  0  0  0  0  0
    0.6000   -1.0640   -0.7440 C   0  0  0  0  0  0  0  0  0  0  0  0
   -0.3930   -1.2110    0.3760 C   0  0  0  0  0  0  0  0  0  0  0  0
   -1.6390   -1.6040   -0.0640 O   0  0  0  0  0  0  0  0  0  0  0  0
   -2.2600   -0.7730   -0.9510 C   0  0  0  0  0  0  0  0  0  0  0  0
   -2.5350    0.6190   -0.4230 C   0  0  1  0  0  0  0  0  0  0  0  0
   -3.1540    1.3620   -1.4160 O   0  0  0  0  0  0  0  0  0  0  0  0
   -4.4840    1.5190   -1.0510 C   0  0  1  0  0  0  0  0  0  0  0  0
   -5.1390    0.3210   -1.3360 O   0  0  0  0  0  0  0  0  0  0  0  0
   -4.4330    1.6690    0.4560 C   0  0  1  0  0  0  0  0  0  0  0  0
   -5.6620    1.4590    1.0490 O   0  0  0  0  0  0  0  0  0  0  0  0
   -3.4230    0.5950    0.7910 C   0  0  2  0  0  0  0  0  0  0  0  0
   -2.7560    0.8760    1.9790 O   0  0  0  0  0  0  0  0  0  0  0  0
  1  2  1  0
  2  3  1  0
  3  4  1  0
  4  5  1  0
  5  6  1  0
  6  7  1  1
  6  8  1  0
  6 10  1  0
  8  9  1  0
 10 11  1  0
 11 12  1  0
 12 13  1  0
 13 14  1  0
 15 14  1  6
 15 16  1  0
 15 21  1  0
 16 17  1  0
 17 18  1  1
 17 19  1  0
 19 20  1  1
 19 21  1  0
 21 22  1  1
M  END
