
     RDKit          3D

 22 22  0  0  0  0  0  0  0  0999 V2000
    2.6850   -1.4380   -2.7580 O   0  0  0  0  0  0  0  0  0  0  0  0
    1.7080   -0.4310   -2.6380 C   0  0  0  0  0  0  0  0  0  0  0  0
    1.6990   -0.0150   -1.1840 C   0  0  1  0  0  0  0  0  0  0  0  0
    3.0830    0.5000   -0.8580 C   0  0  0  0  0  0  0  0  0  0  0  0
    3.2430    0.8320    0.4730 O   0  0  0  0  0  0  0  0  0  0  0  0
    3.0730   -0.1890    1.3680 C   0  0  0  0  0  0  0  0  0  0  0  0
    4.0770   -1.3160    1.1080 C   0  0  2  0  0  0  0  0  0  0  0  0
    3.8940   -2.3490    2.0300 O   0  0  0  0  0  0  0  0  0  0  0  0
    5.3710   -0.8650    1.2030 O   0  0  0  0  0  0  0  0  0  0  0  0
    0.8030    0.9590   -0.8910 O   0  0  0  0  0  0  0  0  0  0  0  0
   -0.1350    0.7400    0.0660 C   0  0  1  0  0  0  0  0  0  0  0  0
   -0.2150    1.8270    1.1130 C   0  0  0  0  0  0  0  0  0  0  0  0
   -1.2840    1.5910    1.9370 O   0  0  0  0  0  0  0  0  0  0  0  0
   -1.9970    0.4570    1.6570 C   0  0  0  0  0  0  0  0  0  0  0  0
   -2.4440    0.4630    0.2110 C   0  0  2  0  0  0  0  0  0  0  0  0
   -3.4700    1.5690    0.0590 C   0  0  0  0  0  0  0  0  0  0  0  0
   -4.5980    1.3790    0.8220 O   0  0  0  0  0  0  0  0  0  0  0  0
   -2.9650   -0.8880   -0.2100 C   0  0  1  0  0  0  0  0  0  0  0  0
   -4.0470   -1.3330    0.5250 O   0  0  0  0  0  0  0  0  0  0  0  0
   -3.2900   -0.9440   -1.6870 C   0  0  0  0  0  0  0  0  0  0  0  0
   -4.3730   -0.1790   -2.0530 O   0  0  0  0  0  0  0  0  0  0  0  0
   -1.3810    0.7730   -0.6050 O   0  0  0  0  0  0  0  0  0  0  0  0
  1  2  1  0
  3  2  1  6
  3  4  1  0
  3 10  1  0
  4  5  1  0
  5  6  1  0
  6  7  1  0
  7  8  1  1
  7  9  1  0
 11 10  1  6
 11 12  1  0
 11 22  1  0
 12 13  1  0
 13 14  1  0
 14 15  1  0
 15 16  1  1
 15 18  1  0
 15 22  1  0
 16 17  1  0
 18 19  1  1
 18 20  1  0
 20 21  1  0
M  END
