
     RDKit          3D

 19 20  0  0  0  0  0  0  0  0999 V2000
   -3.5370   -2.0750    0.6610 C   0  0  0  0  0  0  0  0  0  0  0  0
   -2.0410   -2.0310    0.8200 C   0  0  0  0  0  0  0  0  0  0  0  0
   -1.5400   -0.6580    0.8870 N   0  0  0  0  0  0  0  0  0  0  0  0
   -0.7840   -0.3340   -0.2800 C   0  0  1  0  0  0  0  0  0  0  0  0
   -1.2460    0.9000   -1.0040 C   0  0  0  0  0  0  0  0  0  0  0  0
   -1.4860    2.0770   -0.1010 C   0  0  2  0  0  0  0  0  0  0  0  0
   -1.4460    3.3270   -0.9570 C   0  0  0  0  0  0  0  0  0  0  0  0
   -0.2190    2.2390    1.1340 S   0  0  2  0  0  0  0  0  0  0  0  0
   -0.7550    2.0450    2.5190 O   0  0  0  0  0  0  0  0  0  0  0  0
    0.4340    3.5920    1.0890 O   0  0  0  0  0  0  0  0  0  0  0  0
    0.9320    0.9850    0.8100 C   0  0  0  0  0  0  0  0  0  0  0  0
    2.7090    0.8750    1.2100 S   0  0  0  0  0  0  0  0  0  0  0  0
    2.8900   -0.7700    0.4430 C   0  0  0  0  0  0  0  0  0  0  0  0
    4.3870   -1.6510    0.3910 S   0  0  1  0  0  0  0  0  0  0  0  0
    5.5340   -0.6850   -0.4690 N   0  0  0  0  0  0  0  0  0  0  0  0
    4.8870   -2.0320    1.7530 O   0  0  0  0  0  0  0  0  0  0  0  0
    4.1420   -2.8860   -0.4150 O   0  0  0  0  0  0  0  0  0  0  0  0
    1.6500   -1.0770   -0.0250 C   0  0  0  0  0  0  0  0  0  0  0  0
    0.6700   -0.1760    0.1690 C   0  0  0  0  0  0  0  0  0  0  0  0
  1  2  1  0
  2  3  1  0
  4  3  1  1
  4  5  1  0
  4 19  1  0
  5  6  1  0
  6  7  1  6
  6  8  1  0
  8  9  2  0
  8 10  2  0
  8 11  1  6
 11 12  1  0
 11 19  2  0
 12 13  1  0
 13 14  1  0
 13 18  2  0
 14 15  1  6
 14 16  2  0
 14 17  2  0
 18 19  1  0
M  CHG  1   3   1
M  END
