
     RDKit          3D

 23 24  0  0  0  0  0  0  0  0999 V2000
    7.6470    1.0890    0.0020 C   0  0  0  0  0  0  0  0  0  0  0  0
    6.5460    0.2790   -0.3040 O   0  0  0  0  0  0  0  0  0  0  0  0
    5.4180    0.9880    0.0450 C   0  0  0  0  0  0  0  0  0  0  0  0
    4.1880    0.2050   -0.2450 C   0  0  0  0  0  0  0  0  0  0  0  0
    4.3280   -0.9220   -0.7820 O   0  0  0  0  0  0  0  0  0  0  0  0
    2.8960    0.6950    0.0650 N   0  0  0  0  0  0  0  0  0  0  0  0
    1.7060   -0.0300   -0.2000 N   0  0  0  0  0  0  0  0  0  0  0  0
    1.5940   -1.3280    0.2620 C   0  0  0  0  0  0  0  0  0  0  0  0
    2.5590   -1.8450    0.8880 O   0  0  0  0  0  0  0  0  0  0  0  0
    0.4060   -2.2180    0.0860 C   0  0  0  0  0  0  0  0  0  0  0  0
    0.6770   -3.4700   -0.4630 C   0  0  0  0  0  0  0  0  0  0  0  0
   -1.0120   -4.1570   -0.5780 S   0  0  0  0  0  0  0  0  0  0  0  0
   -1.8700   -2.7800    0.0830 C   0  0  0  0  0  0  0  0  0  0  0  0
   -0.8350   -1.8600    0.3630 C   0  0  0  0  0  0  0  0  0  0  0  0
   -1.2300   -0.5570    1.0440 C   0  0  0  0  0  0  0  0  0  0  0  0
   -2.9920   -0.3860    1.2340 S   0  0  0  0  0  0  0  0  0  0  0  0
   -3.8550   -0.0940   -0.3450 C   0  0  2  0  0  0  0  0  0  0  0  0
   -3.4710    1.2200   -0.9470 C   0  0  0  0  0  0  0  0  0  0  0  0
   -4.3510    2.2530   -0.5130 N   0  0  0  0  0  0  0  0  0  0  0  0
   -5.8930    1.4480   -0.6560 S   0  0  2  0  0  0  0  0  0  0  0  0
   -6.3470    1.3860   -2.0690 O   0  0  0  0  0  0  0  0  0  0  0  0
   -6.8940    1.9890    0.2870 O   0  0  0  0  0  0  0  0  0  0  0  0
   -5.3330   -0.1880   -0.1930 C   0  0  0  0  0  0  0  0  0  0  0  0
  1  2  1  0
  2  3  1  0
  3  4  1  0
  4  5  2  0
  4  6  1  0
  6  7  1  0
  7  8  1  0
  8  9  2  0
  8 10  1  0
 10 11  2  0
 10 14  1  0
 11 12  1  0
 12 13  1  0
 13 14  2  0
 14 15  1  0
 15 16  1  0
 17 16  1  1
 17 18  1  0
 17 23  1  0
 18 19  1  0
 19 20  1  0
 20 21  2  0
 20 22  2  0
 20 23  1  1
M  CHG  1  19   1
M  END
