
     RDKit          3D

 23 23  0  0  0  0  0  0  0  0999 V2000
   -2.8570    5.6160   -1.0760 C   0  0  0  0  0  0  0  0  0  0  0  0
   -2.0590    4.7150   -0.3320 O   0  0  0  0  0  0  0  0  0  0  0  0
   -2.1840    3.3420   -0.4340 C   0  0  0  0  0  0  0  0  0  0  0  0
   -3.0380    2.9140   -1.2180 O   0  0  0  0  0  0  0  0  0  0  0  0
   -1.3060    2.4540    0.3850 C   0  0  0  0  0  0  0  0  0  0  0  0
   -1.4520    1.1560    0.2640 C   0  0  0  0  0  0  0  0  0  0  0  0
   -2.7320    0.6460   -0.9190 S   0  0  0  0  0  0  0  0  0  0  0  0
   -2.9900   -1.1240   -0.9390 C   0  0  0  0  0  0  0  0  0  0  0  0
   -1.8840   -1.8770   -1.5330 C   0  0  0  0  0  0  0  0  0  0  0  0
   -1.8620   -3.3570   -1.5980 C   0  0  0  0  0  0  0  0  0  0  0  0
   -0.9450   -1.2590   -1.9920 O   0  0  0  0  0  0  0  0  0  0  0  0
   -0.7850    0.1730    1.0040 N   0  0  0  0  0  0  0  0  0  0  0  0
    0.0680    0.3970    1.9230 C   0  0  0  0  0  0  0  0  0  0  0  0
    0.6450   -0.7170    2.5620 N   0  0  0  0  0  0  0  0  0  0  0  0
    1.2420   -2.0520    1.6900 S   0  0  1  0  0  0  0  0  0  0  0  0
    1.6690   -3.1210    2.6660 O   0  0  0  0  0  0  0  0  0  0  0  0
    0.1640   -2.6950    0.8430 O   0  0  0  0  0  0  0  0  0  0  0  0
    2.5790   -1.5720    0.6510 C   0  0  2  0  0  0  0  0  0  0  0  0
    2.2250   -0.3800   -0.2010 C   0  0  0  0  0  0  0  0  0  0  0  0
    3.1430   -2.6980   -0.1500 C   0  0  0  0  0  0  0  0  0  0  0  0
    4.2300   -2.1780   -0.9600 N   0  0  0  0  0  0  0  0  0  0  0  0
    0.4210    2.0710    2.4180 S   0  0  0  0  0  0  0  0  0  0  0  0
   -0.3320    3.1640    1.2360 C   0  0  0  0  0  0  0  0  0  0  0  0
  1  2  1  0
  2  3  1  0
  3  4  2  0
  3  5  1  0
  5  6  2  0
  5 23  1  0
  6  7  1  0
  6 12  1  0
  7  8  1  0
  8  9  1  0
  9 10  1  0
  9 11  2  0
 12 13  2  0
 13 14  1  0
 13 22  1  0
 15 14  1  1
 15 16  2  0
 15 17  2  0
 15 18  1  0
 18 19  1  6
 18 20  1  0
 20 21  1  0
 22 23  1  0
M  CHG  1  21   1
M  END
