
     RDKit          3D

 23 23  0  0  0  0  0  0  0  0999 V2000
    5.4360    2.8790    1.2540 C   0  0  0  0  0  0  0  0  0  0  0  0
    5.4480    2.2900    0.0870 C   0  0  0  0  0  0  0  0  0  0  0  0
    4.5730    1.1390   -0.2150 C   0  0  0  0  0  0  0  0  0  0  0  0
    3.4610    0.6680    1.1060 S   0  0  0  0  0  0  0  0  0  0  0  0
    2.1550    1.8790    1.3580 C   0  0  0  0  0  0  0  0  0  0  0  0
    1.0330    1.9400   -0.0880 S   0  0  0  0  0  0  0  0  0  0  0  0
    0.1490    0.4200   -0.2470 C   0  0  0  0  0  0  0  0  0  0  0  0
    0.4100   -0.7730    0.8300 S   0  0  0  0  0  0  0  0  0  0  0  0
   -0.7750    0.2610   -1.3110 N   0  0  0  0  0  0  0  0  0  0  0  0
   -1.5220   -0.9640   -1.4810 C   0  0  0  0  0  0  0  0  0  0  0  0
   -1.3440   -1.8940   -0.6740 O   0  0  0  0  0  0  0  0  0  0  0  0
   -2.4150   -1.1180   -2.5090 O   0  0  0  0  0  0  0  0  0  0  0  0
   -3.2170   -2.2180   -2.8040 C   0  0  0  0  0  0  0  0  0  0  0  0
   -4.2410   -2.5160   -1.8030 C   0  0  0  0  0  0  0  0  0  0  0  0
   -5.0210   -3.4340   -2.0520 O   0  0  0  0  0  0  0  0  0  0  0  0
   -4.4000   -1.8050   -0.5530 C   0  0  2  0  0  0  0  0  0  0  0  0
   -4.1700   -2.6910    0.6720 C   0  0  0  0  0  0  0  0  0  0  0  0
   -4.6370   -1.7790    1.7120 N   0  0  0  0  0  0  0  0  0  0  0  0
   -5.8700   -1.3060    1.1270 C   0  0  0  0  0  0  0  0  0  0  0  0
   -6.7840   -0.7920    1.8160 O   0  0  0  0  0  0  0  0  0  0  0  0
   -5.8420   -1.5220   -0.2800 N   0  0  0  0  0  0  0  0  0  0  0  0
    6.3160    2.7730   -0.8920 O   0  0  0  0  0  0  0  0  0  0  0  0
    7.6780    3.0700   -0.6270 C   0  0  0  0  0  0  0  0  0  0  0  0
  1  2  2  0
  2  3  1  0
  2 22  1  0
  3  4  1  0
  4  5  1  0
  5  6  1  0
  6  7  1  0
  7  8  2  0
  7  9  1  0
  9 10  1  0
 10 11  2  0
 10 12  1  0
 12 13  1  0
 13 14  1  0
 14 15  2  0
 16 14  1  6
 16 17  1  0
 16 21  1  0
 17 18  1  0
 18 19  1  0
 19 20  2  0
 19 21  1  0
 22 23  1  0
M  CHG  1  18   1
M  END
