
     RDKit          3D

 23 24  0  0  0  0  0  0  0  0999 V2000
    3.9650   -0.4430   -0.0860 N   0  0  0  0  0  0  0  0  0  0  0  0
    3.6940    0.9100    0.2950 C   0  0  0  0  0  0  0  0  0  0  0  0
    4.7200    1.7730    0.2690 C   0  0  0  0  0  0  0  0  0  0  0  0
    4.5090    3.4640    0.7160 S   0  0  0  0  0  0  0  0  0  0  0  0
    2.7930    3.7260    1.1630 C   0  0  0  0  0  0  0  0  0  0  0  0
    2.0250    2.5020    1.0460 C   0  0  0  0  0  0  0  0  0  0  0  0
    2.3420    1.2800    0.6860 C   0  0  0  0  0  0  0  0  0  0  0  0
    1.3280    0.3350    0.6900 O   0  0  0  0  0  0  0  0  0  0  0  0
    1.3470   -1.0140    0.7370 C   0  0  0  0  0  0  0  0  0  0  0  0
    0.0020   -1.6640    0.7530 C   0  0  2  0  0  0  0  0  0  0  0  0
    0.2420   -3.2330    0.8090 C   0  0  0  0  0  0  0  0  0  0  0  0
    0.9810   -3.6740   -0.3230 N   0  0  0  0  0  0  0  0  0  0  0  0
   -0.9180   -1.4460   -0.7070 S   0  0  2  0  0  0  0  0  0  0  0  0
   -1.6980   -2.7000   -1.0640 O   0  0  0  0  0  0  0  0  0  0  0  0
    0.0990   -1.3210   -1.8550 O   0  0  0  0  0  0  0  0  0  0  0  0
   -1.9380   -0.1070   -0.8200 N   0  0  0  0  0  0  0  0  0  0  0  0
   -3.3270   -0.6420   -0.9660 C   0  0  0  0  0  0  0  0  0  0  0  0
   -4.1710    0.3470   -1.7630 C   0  0  0  0  0  0  0  0  0  0  0  0
   -4.2080    1.8570   -0.8290 S   0  0  2  0  0  0  0  0  0  0  0  0
   -5.1730    1.7710    0.3010 O   0  0  0  0  0  0  0  0  0  0  0  0
   -4.6060    2.9570   -1.7710 O   0  0  0  0  0  0  0  0  0  0  0  0
   -2.5320    2.1190   -0.2360 C   0  0  0  0  0  0  0  0  0  0  0  0
   -2.0290    0.7650    0.3020 C   0  0  0  0  0  0  0  0  0  0  0  0
  1  2  1  0
  2  3  2  0
  2  7  1  0
  3  4  1  0
  4  5  1  0
  5  6  1  0
  6  7  2  0
  7  8  1  0
  8  9  1  0
 10  9  1  6
 10 11  1  0
 10 13  1  0
 11 12  1  0
 13 14  2  0
 13 15  2  0
 13 16  1  1
 16 17  1  0
 16 23  1  0
 17 18  1  0
 19 18  1  6
 19 20  2  0
 19 21  2  0
 19 22  1  0
 22 23  1  0
M  CHG  1  12   1
M  END
