
     RDKit          3D

 22 23  0  0  0  0  0  0  0  0999 V2000
   -2.8670    0.0030   -1.7820 O   0  0  0  0  0  0  0  0  0  0  0  0
   -3.0570   -0.1510   -0.5320 C   0  0  0  0  0  0  0  0  0  0  0  0
   -1.9010   -0.4470    0.2070 O   0  0  0  0  0  0  0  0  0  0  0  0
   -0.6470   -0.5590   -0.4140 C   0  0  2  0  0  0  0  0  0  0  0  0
    0.0110   -1.9000   -0.1910 C   0  0  0  0  0  0  0  0  0  0  0  0
    1.4510   -1.5810    0.1360 C   0  0  1  0  0  0  0  0  0  0  0  0
    2.0510   -2.5540    0.9070 O   0  0  0  0  0  0  0  0  0  0  0  0
    2.2620   -1.3200   -1.0860 C   0  0  1  0  0  0  0  0  0  0  0  0
    1.5480   -0.6760   -2.0930 O   0  0  0  0  0  0  0  0  0  0  0  0
    3.4120   -0.6340   -0.8560 O   0  0  0  0  0  0  0  0  0  0  0  0
    3.5670   -0.0650    0.3640 C   0  0  1  0  0  0  0  0  0  0  0  0
    4.5750    1.0830    0.2180 C   0  0  0  0  0  0  0  0  0  0  0  0
    5.8060    0.6140   -0.2380 O   0  0  0  0  0  0  0  0  0  0  0  0
    2.4490    0.4660    0.9440 O   0  0  0  0  0  0  0  0  0  0  0  0
    1.3260   -0.2980    0.9080 C   0  0  1  0  0  0  0  0  0  0  0  0
    0.2600    0.4860    0.1600 C   0  0  2  0  0  0  0  0  0  0  0  0
   -0.4350    1.3670    1.1760 C   0  0  0  0  0  0  0  0  0  0  0  0
   -0.9220    0.6240    2.2510 O   0  0  0  0  0  0  0  0  0  0  0  0
   -4.3920   -0.0260    0.0940 C   0  0  2  0  0  0  0  0  0  0  0  0
   -5.2960    0.2710   -0.9240 O   0  0  0  0  0  0  0  0  0  0  0  0
   -4.3480    1.2180    0.9880 C   0  0  0  0  0  0  0  0  0  0  0  0
   -5.6170    1.4910    1.5140 O   0  0  0  0  0  0  0  0  0  0  0  0
  1  2  2  0
  2  3  1  0
  2 19  1  0
  4  3  1  1
  4  5  1  0
  4 16  1  0
  5  6  1  0
  6  7  1  1
  6  8  1  0
  6 15  1  0
  8  9  1  6
  8 10  1  0
 10 11  1  0
 11 12  1  6
 11 14  1  0
 12 13  1  0
 15 14  1  6
 15 16  1  0
 16 17  1  1
 17 18  1  0
 19 20  1  6
 19 21  1  0
 21 22  1  0
M  END
