
     RDKit          3D

 23 23  0  0  0  0  0  0  0  0999 V2000
    4.4530   -1.4380    0.3960 C   0  0  0  0  0  0  0  0  0  0  0  0
    5.0800   -0.0880    0.1260 C   0  0  2  0  0  0  0  0  0  0  0  0
    5.7480    0.3960    1.3630 C   0  0  0  0  0  0  0  0  0  0  0  0
    4.0610    0.7740   -0.3460 O   0  0  0  0  0  0  0  0  0  0  0  0
    4.0890    1.3410   -1.6020 C   0  0  0  0  0  0  0  0  0  0  0  0
    5.0880    1.0420   -2.3130 O   0  0  0  0  0  0  0  0  0  0  0  0
    3.0410    2.2430   -2.1200 C   0  0  0  0  0  0  0  0  0  0  0  0
    1.8040    1.3310   -3.0340 S   0  0  0  0  0  0  0  0  0  0  0  0
    0.7690    0.2880   -2.0500 C   0  0  0  0  0  0  0  0  0  0  0  0
   -0.2510   -0.7260   -2.8640 S   0  0  0  0  0  0  0  0  0  0  0  0
    0.7670    0.2560   -0.6370 N   0  0  0  0  0  0  0  0  0  0  0  0
   -0.0800   -0.6200    0.0610 C   0  0  0  0  0  0  0  0  0  0  0  0
   -0.8400   -1.3830   -0.6190 O   0  0  0  0  0  0  0  0  0  0  0  0
   -0.1470   -0.7140    1.5520 C   0  0  0  0  0  0  0  0  0  0  0  0
   -1.0880   -1.7000    1.9460 O   0  0  0  0  0  0  0  0  0  0  0  0
   -2.4280   -1.6310    1.5940 C   0  0  0  0  0  0  0  0  0  0  0  0
   -2.9810   -0.7450    0.8790 N   0  0  0  0  0  0  0  0  0  0  0  0
   -4.3330   -0.8300    0.6270 C   0  0  0  0  0  0  0  0  0  0  0  0
   -4.9910    0.0840   -0.1300 C   0  0  0  0  0  0  0  0  0  0  0  0
   -6.4460   -0.0370   -0.3820 C   0  0  0  0  0  0  0  0  0  0  0  0
   -7.1790    1.1140    0.1110 N   0  0  0  0  0  0  0  0  0  0  0  0
   -4.9970   -1.9110    1.1930 O   0  0  0  0  0  0  0  0  0  0  0  0
   -3.7410   -2.7610    2.0460 S   0  0  0  0  0  0  0  0  0  0  0  0
  2  1  1  1
  2  3  1  0
  2  4  1  0
  4  5  1  0
  5  6  2  0
  5  7  1  0
  7  8  1  0
  8  9  1  0
  9 10  2  0
  9 11  1  0
 11 12  1  0
 12 13  2  0
 12 14  1  0
 14 15  1  0
 15 16  1  0
 16 17  2  0
 16 23  1  0
 17 18  1  0
 18 19  2  3
 18 22  1  0
 19 20  1  0
 20 21  1  0
 22 23  1  0
M  CHG  1  21   1
M  END
