
     RDKit          3D

 19 20  0  0  0  0  0  0  0  0999 V2000
   -2.5010   -3.1540   -0.3210 C   0  0  0  0  0  0  0  0  0  0  0  0
   -2.1640   -1.6920    0.0080 C   0  0  0  0  0  0  0  0  0  0  0  0
   -0.8380   -1.3680   -0.4020 N   0  0  0  0  0  0  0  0  0  0  0  0
   -0.6130    0.0310   -0.5570 C   0  0  1  0  0  0  0  0  0  0  0  0
   -1.4250    0.8420    0.4190 C   0  0  0  0  0  0  0  0  0  0  0  0
   -1.7040    2.1690   -0.2480 C   0  0  1  0  0  0  0  0  0  0  0  0
   -2.6980    2.9980    0.5340 C   0  0  0  0  0  0  0  0  0  0  0  0
   -0.1450    2.9890   -0.4090 S   0  0  2  0  0  0  0  0  0  0  0  0
    0.0810    3.9910    0.6880 O   0  0  0  0  0  0  0  0  0  0  0  0
   -0.0460    3.7200   -1.7290 O   0  0  0  0  0  0  0  0  0  0  0  0
    1.0920    1.7290   -0.3110 C   0  0  0  0  0  0  0  0  0  0  0  0
    2.8330    1.8060   -0.1140 S   0  0  0  0  0  0  0  0  0  0  0  0
    3.1390    0.0820   -0.1380 C   0  0  0  0  0  0  0  0  0  0  0  0
    4.7190   -0.6440    0.0140 S   0  0  1  0  0  0  0  0  0  0  0  0
    4.6800   -2.3320   -0.0480 N   0  0  0  0  0  0  0  0  0  0  0  0
    5.6770   -0.1230   -1.0170 O   0  0  0  0  0  0  0  0  0  0  0  0
    5.2810   -0.2250    1.3620 O   0  0  0  0  0  0  0  0  0  0  0  0
    1.8870   -0.4510   -0.2960 C   0  0  0  0  0  0  0  0  0  0  0  0
    0.8490    0.4120   -0.3820 C   0  0  0  0  0  0  0  0  0  0  0  0
  1  2  1  0
  2  3  1  0
  4  3  1  1
  4  5  1  0
  4 19  1  0
  5  6  1  0
  6  7  1  1
  6  8  1  0
  8  9  2  0
  8 10  2  0
  8 11  1  6
 11 12  1  0
 11 19  2  0
 12 13  1  0
 13 14  1  0
 13 18  2  0
 14 15  1  1
 14 16  2  0
 14 17  2  0
 18 19  1  0
M  CHG  1   3   1
M  END
