
     RDKit          3D

 18 19  0  0  0  0  0  0  0  0999 V2000
   -2.8980   -2.0070   -1.7130 C   0  0  0  0  0  0  0  0  0  0  0  0
   -3.2380   -0.7980   -1.0810 O   0  0  0  0  0  0  0  0  0  0  0  0
   -2.3100   -0.0270   -0.4170 C   0  0  0  0  0  0  0  0  0  0  0  0
   -0.9930   -0.4190   -0.3450 C   0  0  0  0  0  0  0  0  0  0  0  0
    0.0000    0.3150    0.3120 C   0  0  0  0  0  0  0  0  0  0  0  0
    1.3760   -0.1610    0.3480 C   0  0  0  0  0  0  0  0  0  0  0  0
    1.7210   -1.2920   -0.2360 C   0  0  0  0  0  0  0  0  0  0  0  0
    3.1790   -1.6510   -0.1130 C   0  0  2  0  0  0  0  0  0  0  0  0
    3.5360   -1.9270    1.1880 O   0  0  0  0  0  0  0  0  0  0  0  0
    3.9440   -0.3800   -0.5070 C   0  0  0  0  0  0  0  0  0  0  0  0
    3.7250    0.5900    0.6340 C   0  0  0  0  0  0  0  0  0  0  0  0
    2.3850    0.5690    1.0070 O   0  0  0  0  0  0  0  0  0  0  0  0
   -0.3840    1.4860    0.9110 C   0  0  0  0  0  0  0  0  0  0  0  0
    0.4440    2.3170    1.5870 O   0  0  0  0  0  0  0  0  0  0  0  0
   -1.7280    1.8830    0.8360 C   0  0  0  0  0  0  0  0  0  0  0  0
   -2.6540    1.1420    0.1900 C   0  0  0  0  0  0  0  0  0  0  0  0
   -4.0930    1.5900    0.1230 C   0  0  0  0  0  0  0  0  0  0  0  0
   -4.1930    2.7890    0.8030 O   0  0  0  0  0  0  0  0  0  0  0  0
  1  2  1  0
  2  3  1  0
  3  4  2  0
  3 16  1  0
  4  5  1  0
  5  6  1  0
  5 13  2  0
  6  7  2  0
  6 12  1  0
  7  8  1  0
  8  9  1  1
  8 10  1  0
 10 11  1  0
 11 12  1  0
 13 14  1  0
 13 15  1  0
 15 16  2  0
 16 17  1  0
 17 18  1  0
M  END
