
     RDKit          3D

 18 19  0  0  0  0  0  0  0  0999 V2000
   -3.1530    1.8890    0.8470 C   0  0  0  0  0  0  0  0  0  0  0  0
   -2.7670    0.5470    1.4310 C   0  0  1  0  0  0  0  0  0  0  0  0
   -3.8070   -0.5090    1.1300 C   0  0  0  0  0  0  0  0  0  0  0  0
   -3.4150   -1.1110   -0.1960 C   0  0  1  0  0  0  0  0  0  0  0  0
   -3.9960   -0.3360   -1.2200 O   0  0  0  0  0  0  0  0  0  0  0  0
   -1.9430   -0.9490   -0.1820 C   0  0  0  0  0  0  0  0  0  0  0  0
   -0.9360   -1.5560   -0.9040 C   0  0  0  0  0  0  0  0  0  0  0  0
    0.3970   -1.2710   -0.7530 C   0  0  0  0  0  0  0  0  0  0  0  0
    1.3860   -1.9170   -1.5140 O   0  0  0  0  0  0  0  0  0  0  0  0
    0.7520   -0.3110    0.1890 C   0  0  0  0  0  0  0  0  0  0  0  0
    2.1030   -0.0090    0.3560 O   0  0  0  0  0  0  0  0  0  0  0  0
    2.7780    0.6920   -0.6090 C   0  0  0  0  0  0  0  0  0  0  0  0
    2.2070    1.0770   -1.6660 O   0  0  0  0  0  0  0  0  0  0  0  0
    4.2210    0.9950   -0.3820 C   0  0  0  0  0  0  0  0  0  0  0  0
    5.0220   -0.2890   -0.5010 C   0  0  0  0  0  0  0  0  0  0  0  0
    6.3790   -0.0660   -0.3070 O   0  0  0  0  0  0  0  0  0  0  0  0
   -0.2410    0.3050    0.9190 C   0  0  0  0  0  0  0  0  0  0  0  0
   -1.5780    0.0160    0.7630 C   0  0  0  0  0  0  0  0  0  0  0  0
  2  1  1  6
  2  3  1  0
  2 18  1  0
  3  4  1  0
  4  5  1  6
  4  6  1  0
  6  7  2  0
  6 18  1  0
  7  8  1  0
  8  9  1  0
  8 10  2  0
 10 11  1  0
 10 17  1  0
 11 12  1  0
 12 13  2  0
 12 14  1  0
 14 15  1  0
 15 16  1  0
 17 18  2  0
M  END
