
     RDKit          3D

 18 19  0  0  0  0  0  0  0  0999 V2000
   -3.4460    0.3980   -1.4990 C   0  0  0  0  0  0  0  0  0  0  0  0
   -2.9900   -0.0040   -0.0910 C   0  0  2  0  0  0  0  0  0  0  0  0
   -3.5960   -1.1900    0.2960 O   0  0  0  0  0  0  0  0  0  0  0  0
   -3.3870    1.1190    0.8340 C   0  0  0  0  0  0  0  0  0  0  0  0
   -2.7010    1.0630    2.0490 O   0  0  0  0  0  0  0  0  0  0  0  0
   -1.4200    1.5190    1.8110 C   0  0  0  0  0  0  0  0  0  0  0  0
   -0.7900    0.5880    0.8330 C   0  0  0  0  0  0  0  0  0  0  0  0
    0.6000    0.4870    0.8800 C   0  0  0  0  0  0  0  0  0  0  0  0
    1.2510   -0.3550    0.0050 C   0  0  0  0  0  0  0  0  0  0  0  0
    2.6380   -0.5040   -0.0030 O   0  0  0  0  0  0  0  0  0  0  0  0
    3.3710    0.2550    0.9390 C   0  0  0  0  0  0  0  0  0  0  0  0
    4.8520    0.0220    0.8480 C   0  0  0  0  0  0  0  0  0  0  0  0
    5.4640    0.8170    1.8170 O   0  0  0  0  0  0  0  0  0  0  0  0
    0.5240   -1.0890   -0.9080 C   0  0  0  0  0  0  0  0  0  0  0  0
    1.2280   -1.9870   -1.8400 C   0  0  0  0  0  0  0  0  0  0  0  0
    0.2980   -2.6290   -2.6730 O   0  0  0  0  0  0  0  0  0  0  0  0
   -0.8520   -0.9790   -0.9430 C   0  0  0  0  0  0  0  0  0  0  0  0
   -1.5230   -0.1390   -0.0730 C   0  0  0  0  0  0  0  0  0  0  0  0
  2  1  1  6
  2  3  1  0
  2  4  1  0
  2 18  1  0
  4  5  1  0
  5  6  1  0
  6  7  1  0
  7  8  2  0
  7 18  1  0
  8  9  1  0
  9 10  1  0
  9 14  2  0
 10 11  1  0
 11 12  1  0
 12 13  1  0
 14 15  1  0
 14 17  1  0
 15 16  1  0
 17 18  2  0
M  END
