
     RDKit          3D

 18 19  0  0  0  0  0  0  0  0999 V2000
   -4.1280   -0.7620   -1.9630 C   0  0  0  0  0  0  0  0  0  0  0  0
   -3.2500    0.0910   -1.0800 C   0  0  0  0  0  0  0  0  0  0  0  0
   -2.3990   -0.7070   -0.2870 O   0  0  0  0  0  0  0  0  0  0  0  0
   -1.5150   -0.1130    0.5890 C   0  0  0  0  0  0  0  0  0  0  0  0
   -1.9270    0.1540    1.8940 C   0  0  0  0  0  0  0  0  0  0  0  0
   -3.1900   -0.1550    2.3450 O   0  0  0  0  0  0  0  0  0  0  0  0
   -1.0190    0.7550    2.7670 C   0  0  0  0  0  0  0  0  0  0  0  0
    0.2530    1.0760    2.3460 C   0  0  0  0  0  0  0  0  0  0  0  0
    1.1520    1.6710    3.2110 O   0  0  0  0  0  0  0  0  0  0  0  0
    0.6430    0.8070    1.0590 C   0  0  0  0  0  0  0  0  0  0  0  0
   -0.2530    0.2060    0.1740 C   0  0  0  0  0  0  0  0  0  0  0  0
    0.0330   -0.1540   -1.2600 C   0  0  0  0  0  0  0  0  0  0  0  0
    1.2870   -1.0370   -1.1770 C   0  0  0  0  0  0  0  0  0  0  0  0
    2.5110   -0.1880   -1.0540 C   0  0  2  0  0  0  0  0  0  0  0  0
    3.5850   -0.9640   -0.3100 C   0  0  0  0  0  0  0  0  0  0  0  0
    4.8220   -0.3550   -0.3600 O   0  0  0  0  0  0  0  0  0  0  0  0
    2.3060    1.0780   -0.5840 O   0  0  0  0  0  0  0  0  0  0  0  0
    2.0490    1.2170    0.7520 C   0  0  0  0  0  0  0  0  0  0  0  0
  1  2  1  0
  2  3  1  0
  3  4  1  0
  4  5  2  0
  4 11  1  0
  5  6  1  0
  5  7  1  0
  7  8  2  0
  8  9  1  0
  8 10  1  0
 10 11  2  0
 10 18  1  0
 11 12  1  0
 12 13  1  0
 13 14  1  0
 14 15  1  1
 14 17  1  0
 15 16  1  0
 17 18  1  0
M  END
