
     RDKit          3D

 18 19  0  0  0  0  0  0  0  0999 V2000
    0.5590    3.4290    0.6730 C   0  0  0  0  0  0  0  0  0  0  0  0
    0.4560    2.2230    1.4010 O   0  0  0  0  0  0  0  0  0  0  0  0
   -0.0250    1.0770    0.7820 C   0  0  0  0  0  0  0  0  0  0  0  0
    0.8200    0.2100    0.1500 C   0  0  0  0  0  0  0  0  0  0  0  0
    2.1950    0.4210    0.0900 O   0  0  0  0  0  0  0  0  0  0  0  0
    3.0360   -0.5020   -0.5750 C   0  0  0  0  0  0  0  0  0  0  0  0
    4.4640   -0.0590   -0.5050 C   0  0  0  0  0  0  0  0  0  0  0  0
    4.8120    0.0150    0.8590 O   0  0  0  0  0  0  0  0  0  0  0  0
    0.2940   -0.9100   -0.4470 C   0  0  0  0  0  0  0  0  0  0  0  0
   -1.0570   -1.1820   -0.4260 C   0  0  0  0  0  0  0  0  0  0  0  0
   -1.5780   -2.3090   -1.0280 C   0  0  0  0  0  0  0  0  0  0  0  0
   -2.9140   -2.6340   -1.0410 C   0  0  0  0  0  0  0  0  0  0  0  0
   -3.7650   -1.7690   -0.4090 C   0  0  0  0  0  0  0  0  0  0  0  0
   -3.2760   -0.6180    0.2110 C   0  0  0  0  0  0  0  0  0  0  0  0
   -4.1790    0.2220    0.8350 O   0  0  0  0  0  0  0  0  0  0  0  0
   -1.9330   -0.2960    0.2210 C   0  0  0  0  0  0  0  0  0  0  0  0
   -1.4190    0.8320    0.8250 C   0  0  0  0  0  0  0  0  0  0  0  0
   -2.2170    1.7200    1.4630 O   0  0  0  0  0  0  0  0  0  0  0  0
  1  2  1  0
  2  3  1  0
  3  4  2  0
  3 17  1  0
  4  5  1  0
  4  9  1  0
  5  6  1  0
  6  7  1  0
  7  8  1  0
  9 10  2  0
 10 11  1  0
 10 16  1  0
 11 12  2  0
 12 13  1  0
 13 14  2  0
 14 15  1  0
 14 16  1  0
 16 17  2  0
 17 18  1  0
M  END
