
     RDKit          3D

 19 19  0  0  0  0  0  0  0  0999 V2000
    1.2480   -1.1680    0.9090 O   0  0  0  0  0  0  0  0  0  0  0  0
    1.3060   -0.6850   -0.2530 C   0  0  0  0  0  0  0  0  0  0  0  0
    2.3940   -0.9740   -1.1110 N   0  0  0  0  0  0  0  0  0  0  0  0
    3.4790   -1.8040   -0.7330 C   0  0  0  0  0  0  0  0  0  0  0  0
    4.2600   -1.2900    0.4570 C   0  0  0  0  0  0  0  0  0  0  0  0
    5.5410   -1.0210    0.3030 C   0  0  0  0  0  0  0  0  0  0  0  0
    6.0740   -0.4460    1.9260 S   0  0  0  0  0  0  0  0  0  0  0  0
    4.3420   -0.1320    2.4950 C   0  0  0  0  0  0  0  0  0  0  0  0
    3.7210   -1.0910    1.6710 O   0  0  0  0  0  0  0  0  0  0  0  0
    0.2260    0.1700   -0.6760 N   0  0  0  0  0  0  0  0  0  0  0  0
   -0.8580    0.4230    0.2570 C   0  0  1  0  0  0  0  0  0  0  0  0
   -0.9470    1.9050    0.5900 C   0  0  0  0  0  0  0  0  0  0  0  0
   -1.1780    2.6560   -0.5580 O   0  0  0  0  0  0  0  0  0  0  0  0
   -2.1650   -0.0160   -0.3050 C   0  0  0  0  0  0  0  0  0  0  0  0
   -2.2190   -0.5310   -1.4540 O   0  0  0  0  0  0  0  0  0  0  0  0
   -3.3340    0.1220    0.3950 O   0  0  0  0  0  0  0  0  0  0  0  0
   -4.6070   -0.2560   -0.0410 C   0  0  0  0  0  0  0  0  0  0  0  0
   -5.0230    0.4600   -1.3110 C   0  0  0  0  0  0  0  0  0  0  0  0
   -6.2800    0.0560   -1.7010 O   0  0  0  0  0  0  0  0  0  0  0  0
  1  2  2  0
  2  3  1  0
  2 10  1  0
  3  4  1  0
  4  5  1  0
  5  6  2  0
  5  9  1  0
  6  7  1  0
  7  8  1  0
  8  9  1  0
 10 11  1  0
 11 12  1  6
 11 14  1  0
 12 13  1  0
 14 15  2  0
 14 16  1  0
 16 17  1  0
 17 18  1  0
 18 19  1  0
M  END
