
     RDKit          3D

  6  6  0  0  0  0  0  0  0  0999 V2000
    2.0620   -0.6640    0.5330 C   0  0  0  0  0  0  0  0  0  0  0  0
    1.2030    0.3130    0.7620 C   0  0  0  0  0  0  0  0  0  0  0  0
   -0.1300    0.3350    0.1500 C   0  0  0  0  0  0  0  0  0  0  0  0
   -1.1510    1.1630    0.2070 C   0  0  0  0  0  0  0  0  0  0  0  0
   -1.8990    0.3440   -0.6740 N   0  0  0  0  0  0  0  0  0  0  0  0
   -0.8290   -0.6050   -0.7870 C   0  0  0  0  0  0  0  0  0  0  0  0
  1  2  2  0
  2  3  1  0
  3  4  2  0
  3  6  1  0
  4  5  1  0
  5  6  1  0
M  END
