
     RDKit          3D

 18 18  0  0  0  0  0  0  0  0999 V2000
   -5.2190    0.9660    0.1510 N   0  0  0  0  0  0  0  0  0  0  0  0
   -5.1980   -0.3500   -0.3800 C   0  0  0  0  0  0  0  0  0  0  0  0
   -6.2680   -0.9410   -0.6880 O   0  0  0  0  0  0  0  0  0  0  0  0
   -3.9280   -1.0540   -0.5850 C   0  0  0  0  0  0  0  0  0  0  0  0
   -2.8290   -0.2030   -0.1710 N   0  0  0  0  0  0  0  0  0  0  0  0
   -1.4770   -0.7300   -0.2990 C   0  0  0  0  0  0  0  0  0  0  0  0
   -1.3010   -1.8730   -0.7510 O   0  0  0  0  0  0  0  0  0  0  0  0
   -0.3800    0.0630    0.0920 N   0  0  0  0  0  0  0  0  0  0  0  0
    0.9790   -0.1890    0.0820 C   0  0  0  0  0  0  0  0  0  0  0  0
    1.4280   -1.3550   -0.3050 C   0  0  0  0  0  0  0  0  0  0  0  0
    2.7500   -2.0050   -0.4590 C   0  0  0  0  0  0  0  0  0  0  0  0
    3.9830   -1.5440   -0.5780 C   0  0  0  0  0  0  0  0  0  0  0  0
    4.6040   -0.2030   -0.6120 C   0  0  0  0  0  0  0  0  0  0  0  0
    4.1580    0.9850   -0.2050 C   0  0  0  0  0  0  0  0  0  0  0  0
    5.3450    2.3050   -0.4910 S   0  0  0  0  0  0  0  0  0  0  0  0
    2.9460    1.4120    0.4030 N   0  0  0  0  0  0  0  0  0  0  0  0
    1.7260    1.0240    0.5490 C   0  0  0  0  0  0  0  0  0  0  0  0
    0.9280    1.9190    1.3000 N   0  0  0  0  0  0  0  0  0  0  0  0
  1  2  1  0
  2  3  2  0
  2  4  1  0
  4  5  1  0
  5  6  1  0
  6  7  2  0
  6  8  1  0
  8  9  1  0
  9 10  2  0
  9 17  1  0
 10 11  1  0
 11 12  2  0
 12 13  1  0
 13 14  2  0
 14 15  1  0
 14 16  1  0
 16 17  2  0
 17 18  1  0
M  END
