
     RDKit          3D

 17 18  0  0  0  0  0  0  0  0999 V2000
    6.4710    0.0680   -0.0660 N   0  0  0  0  0  0  0  0  0  0  0  0
    5.2630   -0.1090    0.6430 C   0  0  0  0  0  0  0  0  0  0  0  0
    3.9530   -0.0360    0.1640 C   0  0  0  0  0  0  0  0  0  0  0  0
    3.0670   -0.2720    1.1870 C   0  0  0  0  0  0  0  0  0  0  0  0
    1.6410   -0.2970    1.1590 N   0  0  0  0  0  0  0  0  0  0  0  0
    0.8670   -0.0670   -0.0040 C   0  0  0  0  0  0  0  0  0  0  0  0
    1.4330    0.1760   -1.0950 O   0  0  0  0  0  0  0  0  0  0  0  0
   -0.5620   -0.1080    0.0410 N   0  0  0  0  0  0  0  0  0  0  0  0
   -1.2850    0.1340   -1.1750 C   0  0  0  0  0  0  0  0  0  0  0  0
   -2.7420    0.0380   -0.8710 C   0  0  0  0  0  0  0  0  0  0  0  0
   -3.5140    1.0540   -1.0730 C   0  0  0  0  0  0  0  0  0  0  0  0
   -4.9270    1.0530   -0.8100 C   0  0  0  0  0  0  0  0  0  0  0  0
   -5.5590    0.0270   -0.3430 C   0  0  0  0  0  0  0  0  0  0  0  0
   -5.1120   -1.3070    0.0280 C   0  0  0  0  0  0  0  0  0  0  0  0
   -3.3460   -1.4930   -0.2370 S   0  0  0  0  0  0  0  0  0  0  0  0
    3.8420   -0.4850    2.2700 N   0  0  0  0  0  0  0  0  0  0  0  0
    5.1170   -0.3890    1.9480 N   0  0  0  0  0  0  0  0  0  0  0  0
  1  2  1  0
  2  3  2  0
  2 17  1  0
  3  4  1  0
  4  5  1  0
  4 16  2  0
  5  6  1  0
  6  7  2  0
  6  8  1  0
  8  9  1  0
  9 10  1  0
 10 11  2  0
 10 15  1  0
 11 12  1  0
 12 13  2  0
 13 14  1  0
 14 15  1  0
 16 17  1  0
M  END
