
     RDKit          3D

  8  7  0  0  0  0  0  0  0  0999 V2000
   -1.3740   -1.4390   -0.0300 N   0  0  0  0  0  0  0  0  0  0  0  0
   -0.4330   -0.3690    0.3860 C   0  0  1  0  0  0  0  0  0  0  0  0
    0.7930   -0.4590   -0.4580 C   0  0  0  0  0  0  0  0  0  0  0  0
    1.8030    0.5870   -0.0970 C   0  0  0  0  0  0  0  0  0  0  0  0
    3.2820    0.3860   -1.1540 S   0  0  0  0  0  0  0  0  0  0  0  0
   -1.1380    0.9260    0.2950 C   0  0  0  0  0  0  0  0  0  0  0  0
   -0.6120    1.9810    0.7140 O   0  0  0  0  0  0  0  0  0  0  0  0
   -2.4150    1.0380   -0.2580 O   0  0  0  0  0  0  0  0  0  0  0  0
  2  1  1  6
  2  3  1  0
  2  6  1  0
  3  4  1  0
  4  5  1  0
  6  7  2  0
  6  8  1  0
M  CHG  1   1   1
M  END
