
     RDKit          3D

  6  6  0  0  0  0  0  0  0  0999 V2000
    2.3320    0.6860    0.1090 C   0  0  0  0  0  0  0  0  0  0  0  0
    1.1010    0.2480   -0.1190 C   0  0  0  0  0  0  0  0  0  0  0  0
   -0.1390    0.7770   -0.7420 C   0  0  0  0  0  0  0  0  0  0  0  0
   -0.8010   -0.4780   -0.4520 N   0  0  0  0  0  0  0  0  0  0  0  0
   -1.9790   -0.3930    0.3440 C   0  0  0  0  0  0  0  0  0  0  0  0
    0.3770   -1.0220    0.1600 C   0  0  0  0  0  0  0  0  0  0  0  0
  1  2  2  0
  2  3  1  0
  2  6  1  0
  3  4  1  0
  4  5  1  0
  4  6  1  0
M  END
