
     RDKit          3D

 18 19  0  0  0  0  0  0  0  0999 V2000
    5.3490   -0.6790   -1.8300 N   0  0  0  0  0  0  0  0  0  0  0  0
    4.4380   -0.1330   -0.9000 C   0  0  0  0  0  0  0  0  0  0  0  0
    4.0930    1.0620   -1.0400 O   0  0  0  0  0  0  0  0  0  0  0  0
    3.8980   -0.9400    0.2150 C   0  0  0  0  0  0  0  0  0  0  0  0
    2.9440   -0.0570    1.0340 C   0  0  0  0  0  0  0  0  0  0  0  0
    3.4680    0.7060    2.0990 C   0  0  0  0  0  0  0  0  0  0  0  0
    1.9120    1.5160    2.6750 S   0  0  0  0  0  0  0  0  0  0  0  0
    0.8420    0.6730    1.3690 C   0  0  0  0  0  0  0  0  0  0  0  0
   -0.5440    1.0290    1.4380 N   0  0  0  0  0  0  0  0  0  0  0  0
   -1.4460    0.4460    0.4920 C   0  0  0  0  0  0  0  0  0  0  0  0
   -0.9780   -0.3510   -0.3540 O   0  0  0  0  0  0  0  0  0  0  0  0
   -2.8250    0.7380    0.4850 N   0  0  0  0  0  0  0  0  0  0  0  0
   -3.7270    0.1680   -0.4450 C   0  0  0  0  0  0  0  0  0  0  0  0
   -5.0980    0.4590   -0.4510 C   0  0  0  0  0  0  0  0  0  0  0  0
   -5.7080   -0.2440   -1.4660 C   0  0  0  0  0  0  0  0  0  0  0  0
   -4.7450   -0.9490   -2.0710 N   0  0  0  0  0  0  0  0  0  0  0  0
   -3.5430   -0.7190   -1.4760 C   0  0  0  0  0  0  0  0  0  0  0  0
    1.6610    0.0550    0.8330 N   0  0  0  0  0  0  0  0  0  0  0  0
  1  2  1  0
  2  3  2  0
  2  4  1  0
  4  5  1  0
  5  6  2  0
  5 18  1  0
  6  7  1  0
  7  8  1  0
  8  9  1  0
  8 18  2  0
  9 10  1  0
 10 11  2  0
 10 12  1  0
 12 13  1  0
 13 14  1  0
 13 17  2  0
 14 15  2  0
 15 16  1  0
 16 17  1  0
M  END
