
     RDKit          3D

  7  6  0  0  0  0  0  0  0  0999 V2000
    2.3180    0.1960    0.8090 O   0  0  0  0  0  0  0  0  0  0  0  0
    1.6650   -0.9030    0.2140 C   0  0  0  0  0  0  0  0  0  0  0  0
    0.6630   -0.3740   -0.5860 O   0  0  0  0  0  0  0  0  0  0  0  0
   -0.1910    0.3540    0.2380 C   0  0  1  0  0  0  0  0  0  0  0  0
   -0.1020    1.6910   -0.1850 O   0  0  0  0  0  0  0  0  0  0  0  0
   -1.6110   -0.1560    0.1350 C   0  0  0  0  0  0  0  0  0  0  0  0
   -2.1100   -0.0650   -1.1550 O   0  0  0  0  0  0  0  0  0  0  0  0
  1  2  1  0
  2  3  1  0
  3  4  1  0
  4  5  1  6
  4  6  1  0
  6  7  1  0
M  END
