
     RDKit          3D

  8  7  0  0  0  0  0  0  0  0999 V2000
   -2.0760   -1.1010    0.0620 O   0  0  0  0  0  0  0  0  0  0  0  0
   -1.6400    0.2040   -0.2490 C   0  0  2  0  0  0  0  0  0  0  0  0
   -2.3760    0.6370   -1.3280 O   0  0  0  0  0  0  0  0  0  0  0  0
   -0.1780    0.2340   -0.5840 C   0  0  0  0  0  0  0  0  0  0  0  0
    0.6100   -0.2150    0.4680 O   0  0  0  0  0  0  0  0  0  0  0  0
    1.9580   -0.1930    0.1740 C   0  0  1  0  0  0  0  0  0  0  0  0
    2.6920    0.6570    0.9860 O   0  0  0  0  0  0  0  0  0  0  0  0
    2.5170   -1.4800    0.1700 O   0  0  0  0  0  0  0  0  0  0  0  0
  2  1  1  6
  2  3  1  0
  2  4  1  0
  4  5  1  0
  5  6  1  0
  6  7  1  1
  6  8  1  0
M  END
