
     RDKit          3D

  7  6  0  0  0  0  0  0  0  0999 V2000
   -1.0640    0.7410    0.3390 C   0  0  0  0  0  0  0  0  0  0  0  0
   -0.5680   -0.4300   -0.4530 C   0  0  2  0  0  0  0  0  0  0  0  0
   -1.6210   -0.8070   -1.3230 O   0  0  0  0  0  0  0  0  0  0  0  0
   -0.2830   -1.4580    0.4390 O   0  0  0  0  0  0  0  0  0  0  0  0
    0.5400   -0.1820   -1.2380 O   0  0  0  0  0  0  0  0  0  0  0  0
    1.6360    0.1950   -0.4750 C   0  0  0  0  0  0  0  0  0  0  0  0
    1.2920    1.3550    0.2080 O   0  0  0  0  0  0  0  0  0  0  0  0
  2  1  1  1
  2  3  1  0
  2  4  1  0
  2  5  1  0
  5  6  1  0
  6  7  1  0
M  END
