
     RDKit          3D

  7  6  0  0  0  0  0  0  0  0999 V2000
   -2.4950    0.3780    0.8350 O   0  0  0  0  0  0  0  0  0  0  0  0
   -1.3330    0.5130    0.0450 C   0  0  0  0  0  0  0  0  0  0  0  0
   -0.6440   -0.8200    0.1040 C   0  0  0  0  0  0  0  0  0  0  0  0
    0.5070   -0.7800   -0.6440 O   0  0  0  0  0  0  0  0  0  0  0  0
    1.3940    0.1270   -0.1230 C   0  0  1  0  0  0  0  0  0  0  0  0
    2.5450   -0.6230    0.2290 O   0  0  0  0  0  0  0  0  0  0  0  0
    1.7490    1.1070   -1.0540 O   0  0  0  0  0  0  0  0  0  0  0  0
  1  2  1  0
  2  3  1  0
  3  4  1  0
  4  5  1  0
  5  6  1  6
  5  7  1  0
M  END
