
     RDKit          3D

  7  6  0  0  0  0  0  0  0  0999 V2000
    2.7210   -0.0520    0.2580 C   0  0  0  0  0  0  0  0  0  0  0  0
    1.4620   -0.5350    0.5990 O   0  0  0  0  0  0  0  0  0  0  0  0
    0.4460    0.1430   -0.0740 C   0  0  0  0  0  0  0  0  0  0  0  0
   -0.7550   -0.4290    0.3500 O   0  0  0  0  0  0  0  0  0  0  0  0
   -1.8640    0.1460   -0.2380 C   0  0  2  0  0  0  0  0  0  0  0  0
   -2.6220    0.7280    0.7850 O   0  0  0  0  0  0  0  0  0  0  0  0
   -2.6470   -0.8350   -0.8850 O   0  0  0  0  0  0  0  0  0  0  0  0
  1  2  1  0
  2  3  1  0
  3  4  1  0
  4  5  1  0
  5  6  1  1
  5  7  1  0
M  END
