
     RDKit          3D

  8  7  0  0  0  0  0  0  0  0999 V2000
    1.7820    0.4470    0.9110 O   0  0  0  0  0  0  0  0  0  0  0  0
    1.7510   -0.1330   -0.3470 C   0  0  0  0  0  0  0  0  0  0  0  0
    0.3190   -0.5540   -0.6610 C   0  0  2  0  0  0  0  0  0  0  0  0
    0.3390   -1.1210   -1.9110 O   0  0  0  0  0  0  0  0  0  0  0  0
   -0.4570    0.5750   -0.5480 O   0  0  0  0  0  0  0  0  0  0  0  0
   -1.3620    0.5440    0.4960 C   0  0  2  0  0  0  0  0  0  0  0  0
   -2.6490    0.5100   -0.0440 O   0  0  0  0  0  0  0  0  0  0  0  0
   -1.2770    1.6100    1.3550 O   0  0  0  0  0  0  0  0  0  0  0  0
  1  2  1  0
  2  3  1  0
  3  4  1  6
  3  5  1  0
  5  6  1  0
  6  7  1  6
  6  8  1  0
M  END
