
     RDKit          3D

  6  6  0  0  0  0  0  0  0  0999 V2000
    2.4050    1.3670    0.0560 Br  0  0  0  0  0  0  0  0  0  0  0  0
    0.7950    0.3370    0.0200 C   0  0  0  0  0  0  0  0  0  0  0  0
   -0.4660    0.8690   -0.0270 C   0  0  0  0  0  0  0  0  0  0  0  0
   -1.3180   -0.2060   -0.0380 C   0  0  0  0  0  0  0  0  0  0  0  0
   -0.5440   -1.3350    0.0010 N   0  0  0  0  0  0  0  0  0  0  0  0
    0.7180   -1.0050    0.0360 N   0  0  0  0  0  0  0  0  0  0  0  0
  1  2  1  0
  2  3  2  0
  2  6  1  0
  3  4  1  0
  4  5  2  0
  5  6  1  0
M  END
