
     RDKit          3D

  6  5  0  0  0  0  0  0  0  0999 V2000
   -0.5740    1.3200    0.0190 C   0  0  0  0  0  0  0  0  0  0  0  0
    0.0290    0.0340   -0.1970 N   0  0  0  0  0  0  0  0  0  0  0  0
    1.4340   -0.0880   -0.1980 C   0  0  0  0  0  0  0  0  0  0  0  0
    2.1690   -0.2360    0.8330 N   0  0  0  0  0  0  0  0  0  0  0  0
   -0.7940   -1.1240   -0.4110 C   0  0  0  0  0  0  0  0  0  0  0  0
   -1.9690   -1.4630    1.0980 Br  0  0  0  0  0  0  0  0  0  0  0  0
  1  2  1  0
  2  3  1  0
  2  5  1  0
  3  4  2  0
  5  6  1  0
M  END
