
     RDKit          3D

  6  6  0  0  0  0  0  0  0  0999 V2000
    2.9130   -0.7900    0.4520 Br  0  0  0  0  0  0  0  0  0  0  0  0
    1.0720   -0.4080    0.1350 C   0  0  0  0  0  0  0  0  0  0  0  0
    0.4330    0.8290    0.1520 C   0  0  0  0  0  0  0  0  0  0  0  0
   -0.8850    0.5990   -0.1330 C   0  0  0  0  0  0  0  0  0  0  0  0
   -1.0410   -0.7210   -0.3150 N   0  0  0  0  0  0  0  0  0  0  0  0
    0.1460   -1.3240   -0.1520 N   0  0  0  0  0  0  0  0  0  0  0  0
  1  2  1  0
  2  3  1  0
  2  6  2  0
  3  4  2  0
  4  5  1  0
  5  6  1  0
M  END
