
     RDKit          3D

  8  8  0  0  0  0  0  0  0  0999 V2000
    2.3530   -1.9620   -0.1970 O   0  0  0  0  0  0  0  0  0  0  0  0
    1.8300   -0.6840   -0.2210 C   0  0  0  0  0  0  0  0  0  0  0  0
    0.5300   -0.5160   -0.0910 C   0  0  0  0  0  0  0  0  0  0  0  0
   -0.4920   -1.4910    0.0830 N   0  0  0  0  0  0  0  0  0  0  0  0
   -1.6480   -0.9270    0.1730 C   0  0  0  0  0  0  0  0  0  0  0  0
   -1.4710    0.5160    0.0610 C   0  0  0  0  0  0  0  0  0  0  0  0
   -0.1860    0.7790   -0.0950 C   0  0  0  0  0  0  0  0  0  0  0  0
    0.3970    2.0230   -0.2380 O   0  0  0  0  0  0  0  0  0  0  0  0
  1  2  1  0
  2  3  2  3
  3  4  1  0
  3  7  1  0
  4  5  2  0
  5  6  1  0
  6  7  2  0
  7  8  1  0
M  CHG  1   1  -1
M  END
