
     RDKit          3D

  6  6  0  0  0  0  0  0  0  0999 V2000
    3.0050    0.1310    0.0350 Br  0  0  0  0  0  0  0  0  0  0  0  0
    1.1260   -0.1950   -0.0290 C   0  0  0  0  0  0  0  0  0  0  0  0
    0.1780    0.7160    0.0950 C   0  0  0  0  0  0  0  0  0  0  0  0
   -1.1010   -0.0170   -0.0230 C   0  0  0  0  0  0  0  0  0  0  0  0
   -0.7160   -1.3730   -0.2170 N   0  0  0  0  0  0  0  0  0  0  0  0
    0.5420   -1.4750   -0.2210 N   0  0  0  0  0  0  0  0  0  0  0  0
  1  2  1  0
  2  3  2  0
  2  6  1  0
  3  4  1  0
  4  5  1  0
  5  6  2  0
M  END
