
     RDKit          3D

 24 26  0  0  0  0  0  0  0  0999 V2000
   -3.7240   -4.2930    0.1090 C   0  0  0  0  0  0  0  0  0  0  0  0
   -3.4920   -3.4090   -1.0900 C   0  0  0  0  0  0  0  0  0  0  0  0
   -2.2710   -2.5770   -0.8840 C   0  0  0  0  0  0  0  0  0  0  0  0
   -1.0420   -3.0250   -1.2790 C   0  0  0  0  0  0  0  0  0  0  0  0
    0.0910   -2.2400   -1.0790 C   0  0  0  0  0  0  0  0  0  0  0  0
   -0.0250   -0.9810   -0.4680 C   0  0  0  0  0  0  0  0  0  0  0  0
    1.1200   -0.2590   -0.0740 N   0  0  0  0  0  0  0  0  0  0  0  0
    2.4040   -0.4160   -0.6270 C   0  0  0  0  0  0  0  0  0  0  0  0
    2.6010   -1.2610   -1.5700 O   0  0  0  0  0  0  0  0  0  0  0  0
    3.5830    0.3230   -0.2100 C   0  0  0  0  0  0  0  0  0  0  0  0
    4.7940    0.0870   -0.8100 C   0  0  0  0  0  0  0  0  0  0  0  0
    5.9490    0.7640   -0.4510 C   0  0  0  0  0  0  0  0  0  0  0  0
    5.8160    1.7020    0.5550 C   0  0  0  0  0  0  0  0  0  0  0  0
    4.6080    1.9440    1.1610 C   0  0  0  0  0  0  0  0  0  0  0  0
    3.5330    1.2400    0.7510 N   0  0  0  0  0  0  0  0  0  0  0  0
   -1.2440   -0.5150   -0.0730 C   0  0  0  0  0  0  0  0  0  0  0  0
   -1.4650    0.8470    0.3810 C   0  0  0  0  0  0  0  0  0  0  0  0
   -2.4450    1.0340    1.2540 C   0  0  0  0  0  0  0  0  0  0  0  0
   -2.7950    2.3310    1.8120 C   0  0  0  0  0  0  0  0  0  0  0  0
   -2.2340    3.4530    1.1890 N   0  0  0  0  0  0  0  0  0  0  0  0
   -1.2110    3.2040    0.2750 C   0  0  0  0  0  0  0  0  0  0  0  0
   -0.8130    2.0250   -0.1370 C   0  0  0  0  0  0  0  0  0  0  0  0
    0.1900    1.9230   -1.1590 N   0  0  0  0  0  0  0  0  0  0  0  0
   -2.3520   -1.3370   -0.2910 C   0  0  0  0  0  0  0  0  0  0  0  0
  1  2  1  0
  2  3  1  0
  3  4  2  0
  3 24  1  0
  4  5  1  0
  5  6  2  0
  6  7  1  0
  6 16  1  0
  7  8  1  0
  8  9  2  0
  8 10  1  0
 10 11  2  0
 10 15  1  0
 11 12  1  0
 12 13  2  0
 13 14  1  0
 14 15  2  0
 16 17  1  0
 16 24  2  0
 17 18  2  0
 17 22  1  0
 18 19  1  0
 19 20  1  0
 20 21  1  0
 21 22  2  0
 22 23  1  0
M  CHG  2  15   1  20   1
M  END
