
     RDKit          3D

 24 25  0  0  0  0  0  0  0  0999 V2000
   -0.5610    3.9260   -1.2050 C   0  0  0  0  0  0  0  0  0  0  0  0
   -0.8660    2.4470   -1.0240 C   0  0  0  0  0  0  0  0  0  0  0  0
   -1.9970    2.0730   -0.5170 C   0  0  0  0  0  0  0  0  0  0  0  0
   -2.9140    3.1380   -0.1560 N   0  0  0  0  0  0  0  0  0  0  0  0
   -2.4000    0.7250   -0.2020 C   0  0  0  0  0  0  0  0  0  0  0  0
   -3.7940    0.5060   -0.0710 C   0  0  0  0  0  0  0  0  0  0  0  0
   -4.3330   -0.7190    0.2140 C   0  0  0  0  0  0  0  0  0  0  0  0
   -5.7970   -0.9250    0.3470 C   0  0  0  0  0  0  0  0  0  0  0  0
   -3.4830   -1.7660    0.3750 C   0  0  0  0  0  0  0  0  0  0  0  0
   -3.9580   -3.1560    0.6860 C   0  0  0  0  0  0  0  0  0  0  0  0
   -2.8550   -4.0540    0.8020 N   0  0  0  0  0  0  0  0  0  0  0  0
   -2.1340   -1.5810    0.2570 C   0  0  0  0  0  0  0  0  0  0  0  0
   -1.5490   -0.3510   -0.0290 C   0  0  0  0  0  0  0  0  0  0  0  0
   -0.1440   -0.1800    0.0390 N   0  0  0  0  0  0  0  0  0  0  0  0
    0.8400   -1.1520   -0.1760 C   0  0  0  0  0  0  0  0  0  0  0  0
    0.5050   -2.3270   -0.4740 O   0  0  0  0  0  0  0  0  0  0  0  0
    2.2720   -0.8920   -0.0760 C   0  0  0  0  0  0  0  0  0  0  0  0
    2.7740    0.3610    0.1700 C   0  0  0  0  0  0  0  0  0  0  0  0
    4.1550    0.5840    0.2640 C   0  0  0  0  0  0  0  0  0  0  0  0
    5.0140   -0.4890    0.1030 C   0  0  0  0  0  0  0  0  0  0  0  0
    6.4610   -0.2810    0.1960 C   0  0  0  0  0  0  0  0  0  0  0  0
    6.8080    1.1040    0.4660 N   0  0  0  0  0  0  0  0  0  0  0  0
    4.5340   -1.7580   -0.1450 C   0  0  0  0  0  0  0  0  0  0  0  0
    3.1610   -1.9270   -0.2280 C   0  0  0  0  0  0  0  0  0  0  0  0
  1  2  1  0
  2  3  2  3
  3  4  1  0
  3  5  1  0
  5  6  2  0
  5 13  1  0
  6  7  1  0
  7  8  1  0
  7  9  2  0
  9 10  1  0
  9 12  1  0
 10 11  1  0
 12 13  2  0
 13 14  1  0
 14 15  1  0
 15 16  2  0
 15 17  1  0
 17 18  2  0
 17 24  1  0
 18 19  1  0
 19 20  2  0
 20 21  1  0
 20 23  1  0
 21 22  1  0
 23 24  2  0
M  CHG  2   4   1  22   1
M  END
