
     RDKit          3D

 24 26  0  0  0  0  0  0  0  0999 V2000
   -5.4750   -0.9760   -0.9260 C   0  0  0  0  0  0  0  0  0  0  0  0
   -4.1190   -0.3170   -0.6970 C   0  0  0  0  0  0  0  0  0  0  0  0
   -4.0900    0.7180    0.0780 C   0  0  0  0  0  0  0  0  0  0  0  0
   -5.3510    1.2380    0.7250 C   0  0  0  0  0  0  0  0  0  0  0  0
   -5.0130    2.1550    1.5590 C   0  0  0  0  0  0  0  0  0  0  0  0
   -3.6140    2.2930    1.5170 C   0  0  0  0  0  0  0  0  0  0  0  0
   -2.9880    1.4540    0.6330 C   0  0  0  0  0  0  0  0  0  0  0  0
   -1.5390    1.3710    0.6260 C   0  0  0  0  0  0  0  0  0  0  0  0
   -0.7010    0.8280   -0.1860 C   0  0  0  0  0  0  0  0  0  0  0  0
   -1.1070    0.1500   -1.4010 C   0  0  0  0  0  0  0  0  0  0  0  0
   -0.8640   -1.2080   -1.5210 N   0  0  0  0  0  0  0  0  0  0  0  0
    0.4540   -1.6960   -1.6940 C   0  0  0  0  0  0  0  0  0  0  0  0
    0.7470    0.8790    0.0470 N   0  0  0  0  0  0  0  0  0  0  0  0
    1.2920    1.4480    1.0480 C   0  0  0  0  0  0  0  0  0  0  0  0
    2.6920    1.4390    1.1660 N   0  0  0  0  0  0  0  0  0  0  0  0
    3.4420    0.2780    0.8900 C   0  0  0  0  0  0  0  0  0  0  0  0
    4.7770    0.4530    0.5460 C   0  0  0  0  0  0  0  0  0  0  0  0
    5.6430   -0.5830    0.2820 C   0  0  0  0  0  0  0  0  0  0  0  0
    5.1270   -1.8660    0.3710 C   0  0  0  0  0  0  0  0  0  0  0  0
    5.9630   -2.9900    0.1120 N   0  0  0  0  0  0  0  0  0  0  0  0
    3.8070   -2.0540    0.7100 C   0  0  0  0  0  0  0  0  0  0  0  0
    2.9650   -1.0010    0.9690 C   0  0  0  0  0  0  0  0  0  0  0  0
    0.4080    2.1080    2.0380 C   0  0  0  0  0  0  0  0  0  0  0  0
   -0.9000    2.0080    1.7370 O   0  0  0  0  0  0  0  0  0  0  0  0
  1  2  1  0
  2  3  2  3
  3  4  1  0
  3  7  1  0
  4  5  2  0
  5  6  1  0
  6  7  2  0
  7  8  1  0
  8  9  2  0
  8 24  1  0
  9 10  1  0
  9 13  1  0
 10 11  1  0
 11 12  1  0
 13 14  2  0
 14 15  1  0
 14 23  1  0
 15 16  1  0
 16 17  2  0
 16 22  1  0
 17 18  1  0
 18 19  2  0
 19 20  1  0
 19 21  1  0
 21 22  2  0
 23 24  1  0
M  CHG  1  13   1
M  END
