
     RDKit          3D

 24 26  0  0  0  0  0  0  0  0999 V2000
   -4.1360   -2.4530    1.9110 C   0  0  0  0  0  0  0  0  0  0  0  0
   -3.7250   -1.2750    1.1120 C   0  0  0  0  0  0  0  0  0  0  0  0
   -2.3730   -0.9880    0.9380 C   0  0  0  0  0  0  0  0  0  0  0  0
   -1.9630    0.0820    0.2130 C   0  0  0  0  0  0  0  0  0  0  0  0
   -0.5870    0.3480    0.0450 N   0  0  0  0  0  0  0  0  0  0  0  0
    0.4890   -0.3730    0.6080 C   0  0  0  0  0  0  0  0  0  0  0  0
    0.2700   -1.3400    1.3320 O   0  0  0  0  0  0  0  0  0  0  0  0
    1.8620    0.0200    0.3400 N   0  0  0  0  0  0  0  0  0  0  0  0
    2.9280   -0.7400    0.9330 C   0  0  0  0  0  0  0  0  0  0  0  0
    4.2460   -0.1200    0.4920 C   0  0  1  0  0  0  0  0  0  0  0  0
    5.3730   -0.8980    1.1010 C   0  0  0  0  0  0  0  0  0  0  0  0
    6.3270   -1.4460    0.0620 C   0  0  0  0  0  0  0  0  0  0  0  0
    6.8010   -0.4440   -0.8530 N   0  0  0  0  0  0  0  0  0  0  0  0
    5.7500    0.4230   -1.3440 C   0  0  0  0  0  0  0  0  0  0  0  0
    4.3800   -0.1200   -1.0090 C   0  0  0  0  0  0  0  0  0  0  0  0
   -2.9590    0.9250   -0.3820 C   0  0  0  0  0  0  0  0  0  0  0  0
   -2.3900    2.0140   -1.1160 C   0  0  0  0  0  0  0  0  0  0  0  0
   -3.0250    3.0320   -1.8290 N   0  0  0  0  0  0  0  0  0  0  0  0
   -4.2840    0.6640   -0.2270 C   0  0  0  0  0  0  0  0  0  0  0  0
   -5.3000    1.4220   -0.7640 C   0  0  0  0  0  0  0  0  0  0  0  0
   -6.6490    1.1300   -0.5870 C   0  0  0  0  0  0  0  0  0  0  0  0
   -6.9680    0.0320    0.1600 C   0  0  0  0  0  0  0  0  0  0  0  0
   -5.9970   -0.7660    0.7230 C   0  0  0  0  0  0  0  0  0  0  0  0
   -4.6590   -0.4510    0.5310 C   0  0  0  0  0  0  0  0  0  0  0  0
  1  2  1  0
  2  3  2  0
  2 24  1  0
  3  4  1  0
  4  5  1  0
  4 16  2  0
  5  6  1  0
  6  7  2  0
  6  8  1  0
  8  9  1  0
 10  9  1  6
 10 11  1  0
 10 15  1  0
 11 12  1  0
 12 13  1  0
 13 14  1  0
 14 15  1  0
 16 17  1  0
 16 19  1  0
 17 18  1  0
 19 20  2  0
 19 24  1  0
 20 21  1  0
 21 22  2  0
 22 23  1  0
 23 24  2  0
M  CHG  2  13   1  18   1
M  END
