
     RDKit          3D

 24 26  0  0  0  0  0  0  0  0999 V2000
   -3.5430   -3.0820   -0.2850 C   0  0  0  0  0  0  0  0  0  0  0  0
   -3.2780   -1.6640    0.1280 C   0  0  1  0  0  0  0  0  0  0  0  0
   -3.4000   -1.7450    1.7140 C   0  0  0  0  0  0  0  0  0  0  0  0
   -1.8580   -1.2770   -0.0310 C   0  0  0  0  0  0  0  0  0  0  0  0
   -0.9310   -2.2990    0.0700 C   0  0  0  0  0  0  0  0  0  0  0  0
    0.4000   -2.0310    0.0800 C   0  0  0  0  0  0  0  0  0  0  0  0
    0.8700   -0.7040   -0.0220 C   0  0  0  0  0  0  0  0  0  0  0  0
    2.2700   -0.5790   -0.1710 N   0  0  0  0  0  0  0  0  0  0  0  0
    2.8520   -1.4800   -1.1470 C   0  0  0  0  0  0  0  0  0  0  0  0
    2.1550   -2.4420   -1.6320 O   0  0  0  0  0  0  0  0  0  0  0  0
    4.2320   -1.3700   -1.6570 C   0  0  0  0  0  0  0  0  0  0  0  0
    5.1010   -0.6270   -0.8070 N   0  0  0  0  0  0  0  0  0  0  0  0
    4.5300    0.2900    0.1570 C   0  0  0  0  0  0  0  0  0  0  0  0
    5.4440    1.1630    0.7260 C   0  0  0  0  0  0  0  0  0  0  0  0
    4.9080    2.0720    1.6310 C   0  0  0  0  0  0  0  0  0  0  0  0
    3.5620    2.0770    1.9200 C   0  0  0  0  0  0  0  0  0  0  0  0
    2.6560    1.2010    1.3530 C   0  0  0  0  0  0  0  0  0  0  0  0
    3.1900    0.2890    0.4390 C   0  0  0  0  0  0  0  0  0  0  0  0
   -0.0800    0.2750   -0.1200 C   0  0  0  0  0  0  0  0  0  0  0  0
   -1.4300    0.0380   -0.1310 C   0  0  0  0  0  0  0  0  0  0  0  0
   -2.4000    1.0890   -0.4800 C   0  0  2  0  0  0  0  0  0  0  0  0
   -2.0790    1.4440   -1.9310 N   0  0  0  0  0  0  0  0  0  0  0  0
   -2.3050    2.4110    0.2500 C   0  0  0  0  0  0  0  0  0  0  0  0
   -3.3050    3.3470   -0.2450 N   0  0  0  0  0  0  0  0  0  0  0  0
  2  1  1  6
  2  3  1  0
  2  4  1  0
  4  5  2  0
  4 20  1  0
  5  6  1  0
  6  7  2  0
  7  8  1  0
  7 19  1  0
  8  9  1  0
  8 18  1  0
  9 10  2  0
  9 11  1  0
 11 12  1  0
 12 13  1  0
 13 14  2  0
 13 18  1  0
 14 15  1  0
 15 16  2  0
 16 17  1  0
 17 18  2  0
 19 20  2  0
 20 21  1  0
 21 22  1  6
 21 23  1  0
 23 24  1  0
M  CHG  2  22   1  24   1
M  END
