
     RDKit          3D

 24 26  0  0  0  0  0  0  0  0999 V2000
    5.1890   -0.9320   -1.4810 C   0  0  0  0  0  0  0  0  0  0  0  0
    4.4120    0.3220   -1.1730 C   0  0  0  0  0  0  0  0  0  0  0  0
    3.4970    0.1490   -0.0080 C   0  0  0  0  0  0  0  0  0  0  0  0
    2.1420   -0.0080   -0.2150 C   0  0  0  0  0  0  0  0  0  0  0  0
    1.2300   -0.1750    0.8140 C   0  0  0  0  0  0  0  0  0  0  0  0
   -0.2230   -0.3420    0.5450 C   0  0  0  0  0  0  0  0  0  0  0  0
   -0.8660    0.9300    0.5010 N   0  0  0  0  0  0  0  0  0  0  0  0
   -2.2150    0.9110   -0.0070 C   0  0  1  0  0  0  0  0  0  0  0  0
   -3.0440    1.7470    0.9290 C   0  0  0  0  0  0  0  0  0  0  0  0
   -3.0350    1.3230    2.2850 N   0  0  0  0  0  0  0  0  0  0  0  0
   -2.2160    1.7800   -1.3100 C   0  0  0  0  0  0  0  0  0  0  0  0
   -1.3180    1.1170   -2.3010 C   0  0  0  0  0  0  0  0  0  0  0  0
   -0.3040    1.6270   -2.8010 O   0  0  0  0  0  0  0  0  0  0  0  0
   -1.7160   -0.1990   -2.6520 N   0  0  0  0  0  0  0  0  0  0  0  0
   -2.4490   -0.9170   -1.6310 C   0  0  0  0  0  0  0  0  0  0  0  0
   -2.9330   -2.1870   -1.9390 C   0  0  0  0  0  0  0  0  0  0  0  0
   -3.6900   -2.9330   -1.0780 C   0  0  0  0  0  0  0  0  0  0  0  0
   -3.9980   -2.4220    0.1550 C   0  0  0  0  0  0  0  0  0  0  0  0
   -3.5120   -1.1610    0.4510 C   0  0  0  0  0  0  0  0  0  0  0  0
   -2.7470   -0.3880   -0.3940 C   0  0  0  0  0  0  0  0  0  0  0  0
    1.7400   -0.1780    2.0960 C   0  0  0  0  0  0  0  0  0  0  0  0
    3.0950   -0.0220    2.3200 C   0  0  0  0  0  0  0  0  0  0  0  0
    3.9960    0.1440    1.2770 C   0  0  0  0  0  0  0  0  0  0  0  0
    5.3840    0.3030    1.5170 N   0  0  0  0  0  0  0  0  0  0  0  0
  1  2  1  0
  2  3  1  0
  3  4  2  0
  3 23  1  0
  4  5  1  0
  5  6  1  0
  5 21  2  0
  6  7  1  0
  7  8  1  0
  8  9  1  1
  8 11  1  0
  8 20  1  0
  9 10  1  0
 11 12  1  0
 12 13  2  0
 12 14  1  0
 14 15  1  0
 15 16  2  0
 15 20  1  0
 16 17  1  0
 17 18  2  0
 18 19  1  0
 19 20  2  0
 21 22  1  0
 22 23  2  0
 23 24  1  0
M  CHG  2   7   1  10   1
M  END
