
     RDKit          3D

 24 26  0  0  0  0  0  0  0  0999 V2000
   -1.4780   -0.8430   -0.7980 N   0  0  0  0  0  0  0  0  0  0  0  0
   -1.8200    0.5470   -0.5270 C   0  0  1  0  0  0  0  0  0  0  0  0
   -3.3160    0.6360   -0.7800 C   0  0  0  0  0  0  0  0  0  0  0  0
   -3.9690    1.3930   -1.6190 C   0  0  0  0  0  0  0  0  0  0  0  0
   -5.4310    1.1400   -1.5230 C   0  0  0  0  0  0  0  0  0  0  0  0
   -5.5140    0.1070   -0.4870 N   0  0  0  0  0  0  0  0  0  0  0  0
   -4.3150   -0.1670   -0.0780 C   0  0  0  0  0  0  0  0  0  0  0  0
   -1.6870    0.8820    0.9270 C   0  0  0  0  0  0  0  0  0  0  0  0
   -2.4360    1.9450    1.4530 C   0  0  0  0  0  0  0  0  0  0  0  0
   -2.3600    2.2000    2.8170 C   0  0  0  0  0  0  0  0  0  0  0  0
   -1.5710    1.4280    3.6280 C   0  0  0  0  0  0  0  0  0  0  0  0
   -0.8300    0.3730    3.0900 C   0  0  0  0  0  0  0  0  0  0  0  0
   -0.9000    0.1150    1.7190 C   0  0  0  0  0  0  0  0  0  0  0  0
   -0.0020   -0.9040    1.1450 C   0  0  0  0  0  0  0  0  0  0  0  0
   -0.0620   -2.1130    1.2890 O   0  0  0  0  0  0  0  0  0  0  0  0
    1.0610   -0.3440    0.3320 N   0  0  0  0  0  0  0  0  0  0  0  0
    2.0530   -1.0910   -0.3180 C   0  0  0  0  0  0  0  0  0  0  0  0
    1.9630   -2.3470   -0.8140 C   0  0  0  0  0  0  0  0  0  0  0  0
    3.0560   -3.0020   -1.4120 C   0  0  0  0  0  0  0  0  0  0  0  0
    4.2550   -2.3540   -1.4940 C   0  0  0  0  0  0  0  0  0  0  0  0
    4.3870   -1.0830   -1.0020 C   0  0  0  0  0  0  0  0  0  0  0  0
    5.7120   -0.4150   -1.0910 C   0  0  0  0  0  0  0  0  0  0  0  0
    5.6110    0.9660   -0.6490 N   0  0  0  0  0  0  0  0  0  0  0  0
    3.3060   -0.4610   -0.4250 C   0  0  0  0  0  0  0  0  0  0  0  0
  2  1  1  1
  2  3  1  0
  2  8  1  0
  3  4  2  0
  3  7  1  0
  4  5  1  0
  5  6  1  0
  6  7  2  0
  8  9  2  0
  8 13  1  0
  9 10  1  0
 10 11  2  0
 11 12  1  0
 12 13  2  0
 13 14  1  0
 14 15  2  0
 14 16  1  0
 16 17  1  0
 17 18  2  0
 17 24  1  0
 18 19  1  0
 19 20  2  0
 20 21  1  0
 21 22  1  0
 21 24  2  0
 22 23  1  0
M  CHG  2   6   1  23   1
M  END
