
     RDKit          3D

 24 26  0  0  0  0  0  0  0  0999 V2000
   -0.1980    4.5770    0.8330 C   0  0  0  0  0  0  0  0  0  0  0  0
   -0.3860    3.0550    0.6900 C   0  0  0  0  0  0  0  0  0  0  0  0
   -1.3610    2.6090   -0.0070 C   0  0  0  0  0  0  0  0  0  0  0  0
   -1.9600    1.4120   -0.4420 C   0  0  0  0  0  0  0  0  0  0  0  0
   -1.4530    0.1000   -0.1460 C   0  0  0  0  0  0  0  0  0  0  0  0
   -0.1110    0.1210    0.3690 C   0  0  0  0  0  0  0  0  0  0  0  0
    0.8540   -0.8540    0.5690 N   0  0  0  0  0  0  0  0  0  0  0  0
    2.0690   -0.3760    1.1800 C   0  0  0  0  0  0  0  0  0  0  0  0
    3.0630    0.3260    0.3780 C   0  0  1  0  0  0  0  0  0  0  0  0
    4.2080    0.7270    1.3410 C   0  0  0  0  0  0  0  0  0  0  0  0
    3.8080   -0.7020   -0.5530 C   0  0  0  0  0  0  0  0  0  0  0  0
    2.7730    1.4550   -0.4060 N   0  0  0  0  0  0  0  0  0  0  0  0
   -2.1560   -0.9960   -0.5590 C   0  0  0  0  0  0  0  0  0  0  0  0
   -3.3520   -0.8740   -1.2910 C   0  0  0  0  0  0  0  0  0  0  0  0
   -4.0730   -1.9710   -1.6570 C   0  0  0  0  0  0  0  0  0  0  0  0
   -3.7110   -3.2410   -1.3360 C   0  0  0  0  0  0  0  0  0  0  0  0
   -2.5580   -3.3770   -0.6010 C   0  0  0  0  0  0  0  0  0  0  0  0
   -2.0130   -4.4870   -0.0250 N   0  0  0  0  0  0  0  0  0  0  0  0
   -0.9570   -4.1380    0.7070 C   0  0  0  0  0  0  0  0  0  0  0  0
   -0.7870   -2.7700    0.6200 C   0  0  0  0  0  0  0  0  0  0  0  0
   -1.7690   -2.2940   -0.1980 C   0  0  0  0  0  0  0  0  0  0  0  0
   -3.7980    0.3520   -1.5660 N   0  0  0  0  0  0  0  0  0  0  0  0
   -3.1560    1.4320   -1.1700 C   0  0  0  0  0  0  0  0  0  0  0  0
   -3.6580    2.5720   -1.4700 O   0  0  0  0  0  0  0  0  0  0  0  0
  1  2  1  0
  2  3  2  3
  3  4  1  0
  4  5  2  0
  4 23  1  0
  5  6  1  0
  5 13  1  0
  6  7  1  0
  7  8  1  0
  8  9  1  0
  9 10  1  1
  9 11  1  0
  9 12  1  0
 13 14  2  0
 13 21  1  0
 14 15  1  0
 14 22  1  0
 15 16  2  0
 16 17  1  0
 17 18  1  0
 17 21  2  0
 18 19  1  0
 19 20  2  0
 20 21  1  0
 22 23  1  0
 23 24  2  0
M  CHG  1  12   1
M  END
