
     RDKit          3D

 23 24  0  0  0  0  0  0  0  0999 V2000
   -0.4100   -0.2760    3.4390 C   0  0  0  0  0  0  0  0  0  0  0  0
    0.1840   -0.2770    2.1050 C   0  0  0  0  0  0  0  0  0  0  0  0
    1.5220   -0.2790    2.0830 C   0  0  0  0  0  0  0  0  0  0  0  0
    2.2780   -0.2800    0.8650 C   0  0  0  0  0  0  0  0  0  0  0  0
    3.6190   -0.2820    0.9510 C   0  0  0  0  0  0  0  0  0  0  0  0
    4.5270   -0.2840   -0.1730 C   0  0  0  0  0  0  0  0  0  0  0  0
    4.0600   -0.2880   -1.5570 C   0  0  0  0  0  0  0  0  0  0  0  0
    5.8180   -0.2840    0.0860 C   0  0  0  0  0  0  0  0  0  0  0  0
    6.8140   -0.2850   -0.9530 C   0  0  0  0  0  0  0  0  0  0  0  0
    6.5120   -0.2850   -2.1500 O   0  0  0  0  0  0  0  0  0  0  0  0
    8.1910   -0.2870   -0.6330 O   0  0  0  0  0  0  0  0  0  0  0  0
   -0.5100   -0.2790    0.8680 C   0  0  0  0  0  0  0  0  0  0  0  0
   -1.8060   -0.2720    0.6300 C   0  0  0  0  0  0  0  0  0  0  0  0
   -2.7600   -0.2570    1.7330 C   0  0  0  0  0  0  0  0  0  0  0  0
   -4.2030   -0.0150    1.3110 C   0  0  0  0  0  0  0  0  0  0  0  0
   -4.3320    0.8320    0.0690 C   0  0  1  0  0  0  0  0  0  0  0  0
   -3.9920    2.2800    0.2870 C   0  0  0  0  0  0  0  0  0  0  0  0
   -3.5050    0.2760   -1.0290 C   0  0  0  0  0  0  0  0  0  0  0  0
   -3.9830    0.3020   -2.3100 C   0  0  0  0  0  0  0  0  0  0  0  0
   -3.2360   -0.2320   -3.3550 C   0  0  0  0  0  0  0  0  0  0  0  0
   -1.9980   -0.7940   -3.0750 C   0  0  0  0  0  0  0  0  0  0  0  0
   -1.5140   -0.8240   -1.7920 C   0  0  0  0  0  0  0  0  0  0  0  0
   -2.2690   -0.2910   -0.7880 C   0  0  0  0  0  0  0  0  0  0  0  0
  1  2  1  0
  2  3  2  3
  2 12  1  0
  3  4  1  0
  4  5  2  3
  5  6  1  0
  6  7  1  0
  6  8  2  3
  8  9  1  0
  9 10  2  0
  9 11  1  0
 12 13  2  3
 13 14  1  0
 13 23  1  0
 14 15  1  0
 15 16  1  0
 16 17  1  1
 16 18  1  0
 18 19  2  0
 18 23  1  0
 19 20  1  0
 20 21  2  0
 21 22  1  0
 22 23  2  0
M  END
