
     RDKit          3D

 38 42  0  0  0  0  0  0  0  0999 V2000
    8.8350    2.6280   -1.2870 C   0  0  0  0  0  0  0  0  0  0  0  0
    8.7250    1.8490    0.0090 C   0  0  0  0  0  0  0  0  0  0  0  0
    7.6190    0.8520   -0.1600 C   0  0  0  0  0  0  0  0  0  0  0  0
    7.4870    0.1180    1.0050 O   0  0  0  0  0  0  0  0  0  0  0  0
    6.2360   -1.0250    0.8480 S   0  0  2  0  0  0  0  0  0  0  0  0
    6.1490   -1.8770    2.0610 O   0  0  0  0  0  0  0  0  0  0  0  0
    6.5210   -1.8100   -0.3930 O   0  0  0  0  0  0  0  0  0  0  0  0
    4.7850   -0.1480    0.6820 N   0  0  0  0  0  0  0  0  0  0  0  0
    4.4590    0.6720    1.7850 C   0  0  0  0  0  0  0  0  0  0  0  0
    3.1040    1.3120    1.5910 C   0  0  0  0  0  0  0  0  0  0  0  0
    2.1900    0.2370    1.5460 O   0  0  0  0  0  0  0  0  0  0  0  0
    2.3560   -0.3380    0.2920 C   0  0  2  0  0  0  0  0  0  0  0  0
    1.3960   -1.4690    0.0970 C   0  0  0  0  0  0  0  0  0  0  0  0
    0.0040   -1.0230    0.2010 N   0  0  0  0  0  0  0  0  0  0  0  0
   -1.0840   -1.9000    0.0550 C   0  0  0  0  0  0  0  0  0  0  0  0
   -0.7590   -3.1220   -0.1650 O   0  0  0  0  0  0  0  0  0  0  0  0
   -2.4900   -1.5960    0.1270 C   0  0  2  0  0  0  0  0  0  0  0  0
   -3.4310   -2.6160   -0.4670 C   0  0  0  0  0  0  0  0  0  0  0  0
   -4.7810   -2.2310    0.0840 C   0  0  0  0  0  0  0  0  0  0  0  0
   -5.8720   -2.9840    0.3580 N   0  0  0  0  0  0  0  0  0  0  0  0
   -6.8630   -2.2170    0.8490 C   0  0  0  0  0  0  0  0  0  0  0  0
   -8.1390   -2.4980    1.2700 C   0  0  0  0  0  0  0  0  0  0  0  0
   -8.9460   -1.4890    1.7340 C   0  0  0  0  0  0  0  0  0  0  0  0
   -8.5010   -0.1690    1.7900 C   0  0  0  0  0  0  0  0  0  0  0  0
   -7.2290    0.1100    1.3700 C   0  0  0  0  0  0  0  0  0  0  0  0
   -6.4150   -0.8880    0.9060 C   0  0  0  0  0  0  0  0  0  0  0  0
   -5.1170   -0.9560    0.4190 C   0  0  0  0  0  0  0  0  0  0  0  0
   -4.1420    0.1950    0.2420 C   0  0  0  0  0  0  0  0  0  0  0  0
   -2.9360   -0.3200   -0.3980 N   0  0  0  0  0  0  0  0  0  0  0  0
   -2.3040    0.3680   -1.4270 C   0  0  0  0  0  0  0  0  0  0  0  0
   -1.2800   -0.1950   -1.9530 O   0  0  0  0  0  0  0  0  0  0  0  0
   -2.6770    1.6560   -1.9700 C   0  0  0  0  0  0  0  0  0  0  0  0
   -3.6740    2.4750   -1.6120 N   0  0  0  0  0  0  0  0  0  0  0  0
   -3.6350    3.5450   -2.3700 N   0  0  0  0  0  0  0  0  0  0  0  0
   -2.6220    3.4670   -3.2430 C   0  0  0  0  0  0  0  0  0  0  0  0
   -2.3420    4.3430   -4.0900 O   0  0  0  0  0  0  0  0  0  0  0  0
   -2.0290    2.2980   -2.9960 N   0  0  0  0  0  0  0  0  0  0  0  0
    3.7390   -0.8350    0.0390 C   0  0  0  0  0  0  0  0  0  0  0  0
  1  2  1  0
  2  3  1  0
  3  4  1  0
  5  4  1  1
  5  6  2  0
  5  7  2  0
  5  8  1  0
  8  9  1  0
  8 38  1  0
  9 10  1  0
 10 11  1  0
 11 12  1  0
 12 13  1  1
 12 38  1  0
 13 14  1  0
 14 15  1  0
 15 16  2  0
 17 15  1  6
 17 18  1  0
 17 29  1  0
 18 19  1  0
 19 20  1  0
 19 27  2  0
 20 21  1  0
 21 22  2  0
 21 26  1  0
 22 23  1  0
 23 24  2  0
 24 25  1  0
 25 26  2  0
 26 27  1  0
 27 28  1  0
 28 29  1  0
 29 30  1  0
 30 31  2  0
 30 32  1  0
 32 33  2  0
 32 37  1  0
 33 34  1  0
 34 35  1  0
 35 36  2  0
 35 37  1  0
M  END
