
     RDKit          3D

 38 42  0  0  0  0  0  0  0  0999 V2000
   -3.0990   -0.3800    2.9530 C   0  0  0  0  0  0  0  0  0  0  0  0
   -4.3760   -0.0370    2.4990 O   0  0  0  0  0  0  0  0  0  0  0  0
   -4.6520   -0.0250    1.1510 C   0  0  0  0  0  0  0  0  0  0  0  0
   -3.6980   -0.3450    0.2030 C   0  0  0  0  0  0  0  0  0  0  0  0
   -4.0080   -0.3220   -1.1370 C   0  0  0  0  0  0  0  0  0  0  0  0
   -3.0740   -0.6160   -2.1570 N   0  0  0  0  0  0  0  0  0  0  0  0
   -1.6900   -0.6350   -1.9580 C   0  0  0  0  0  0  0  0  0  0  0  0
   -1.1600   -0.3930   -0.8830 O   0  0  0  0  0  0  0  0  0  0  0  0
   -0.8200   -0.9730   -3.1460 C   0  0  0  0  0  0  0  0  0  0  0  0
    0.5680   -0.9270   -2.7240 N   0  0  0  0  0  0  0  0  0  0  0  0
    1.3990    0.1380   -2.7430 C   0  0  0  0  0  0  0  0  0  0  0  0
    2.6600   -0.2190   -2.2530 C   0  0  0  0  0  0  0  0  0  0  0  0
    3.8130    0.6490   -2.1200 C   0  0  0  0  0  0  0  0  0  0  0  0
    4.9540    0.1540   -1.6340 N   0  0  0  0  0  0  0  0  0  0  0  0
    6.0900    0.8450   -1.4570 C   0  0  0  0  0  0  0  0  0  0  0  0
    7.5240    0.0420   -0.8450 S   0  0  0  0  0  0  0  0  0  0  0  0
    7.8680    0.1570    0.8770 C   0  0  0  0  0  0  0  0  0  0  0  0
    7.0090   -0.5140    1.8560 C   0  0  1  0  0  0  0  0  0  0  0  0
    5.5580   -0.1090    1.9090 C   0  0  0  0  0  0  0  0  0  0  0  0
    5.1100   -1.0790    3.0350 C   0  0  0  0  0  0  0  0  0  0  0  0
    5.9850   -2.2660    2.7020 C   0  0  0  0  0  0  0  0  0  0  0  0
    6.8710   -1.8960    1.7040 O   0  0  0  0  0  0  0  0  0  0  0  0
    6.0710    2.1570   -1.8060 N   0  0  0  0  0  0  0  0  0  0  0  0
    4.9460    2.6850   -2.2960 C   0  0  0  0  0  0  0  0  0  0  0  0
    4.9270    3.9150   -2.6220 O   0  0  0  0  0  0  0  0  0  0  0  0
    3.8040    1.9450   -2.4610 N   0  0  0  0  0  0  0  0  0  0  0  0
    2.5460   -1.5230   -1.9470 N   0  0  0  0  0  0  0  0  0  0  0  0
    1.3000   -1.9430   -2.2270 C   0  0  0  0  0  0  0  0  0  0  0  0
    0.9180   -3.1180   -2.0380 O   0  0  0  0  0  0  0  0  0  0  0  0
   -5.2930    0.0240   -1.5530 C   0  0  0  0  0  0  0  0  0  0  0  0
   -6.2350    0.3400   -0.6260 C   0  0  0  0  0  0  0  0  0  0  0  0
   -5.9150    0.3150    0.7260 C   0  0  0  0  0  0  0  0  0  0  0  0
   -6.7830    0.6150    1.7660 O   0  0  0  0  0  0  0  0  0  0  0  0
   -8.1570    0.8910    1.8260 C   0  0  0  0  0  0  0  0  0  0  0  0
   -8.6050    1.9160    0.8000 C   0  0  0  0  0  0  0  0  0  0  0  0
   -8.5620    1.3710   -0.5840 C   0  0  0  0  0  0  0  0  0  0  0  0
   -9.6090    1.5500   -1.2960 O   0  0  0  0  0  0  0  0  0  0  0  0
   -7.5020    0.6730   -1.2220 N   0  0  0  0  0  0  0  0  0  0  0  0
  1  2  1  0
  2  3  1  0
  3  4  2  0
  3 32  1  0
  4  5  1  0
  5  6  1  0
  5 30  2  0
  6  7  1  0
  7  8  2  0
  7  9  1  0
  9 10  1  0
 10 11  1  0
 10 28  1  0
 11 12  2  0
 12 13  1  0
 12 27  1  0
 13 14  1  0
 13 26  2  0
 14 15  2  0
 15 16  1  0
 15 23  1  0
 16 17  1  0
 18 17  1  6
 18 19  1  0
 18 22  1  0
 19 20  1  0
 20 21  1  0
 21 22  1  0
 23 24  1  0
 24 25  2  0
 24 26  1  0
 27 28  1  0
 28 29  2  0
 30 31  1  0
 31 32  2  0
 31 38  1  0
 32 33  1  0
 33 34  1  0
 34 35  1  0
 35 36  1  0
 36 37  2  0
 36 38  1  0
M  END
