
     RDKit          3D

 37 41  0  0  0  0  0  0  0  0999 V2000
    7.4320   -3.9390    0.6890 C   0  0  0  0  0  0  0  0  0  0  0  0
    7.1280   -2.4700    0.6700 C   0  0  0  0  0  0  0  0  0  0  0  0
    7.2800   -1.7640    1.8240 C   0  0  0  0  0  0  0  0  0  0  0  0
    6.9990   -0.4100    1.8080 C   0  0  0  0  0  0  0  0  0  0  0  0
    6.5680    0.2280    0.6400 C   0  0  0  0  0  0  0  0  0  0  0  0
    6.4330   -0.5310   -0.4880 C   0  0  0  0  0  0  0  0  0  0  0  0
    6.7080   -1.8960   -0.5050 C   0  0  0  0  0  0  0  0  0  0  0  0
    5.9940    0.3230   -1.5780 C   0  0  0  0  0  0  0  0  0  0  0  0
    5.7660   -0.0560   -2.7790 O   0  0  0  0  0  0  0  0  0  0  0  0
    5.8680    1.6380   -1.0590 N   0  0  0  0  0  0  0  0  0  0  0  0
    5.5110    2.7120   -1.8430 N   0  0  0  0  0  0  0  0  0  0  0  0
    4.3890    3.1510   -2.1010 C   0  0  0  0  0  0  0  0  0  0  0  0
    3.1240    2.5980   -1.6030 C   0  0  0  0  0  0  0  0  0  0  0  0
    3.1700    1.4760   -0.7720 N   0  0  0  0  0  0  0  0  0  0  0  0
    2.0300    3.1840   -1.9560 C   0  0  0  0  0  0  0  0  0  0  0  0
    0.6820    2.8150   -1.5870 C   0  0  0  0  0  0  0  0  0  0  0  0
   -0.3510    3.5520   -2.0560 C   0  0  0  0  0  0  0  0  0  0  0  0
   -1.7310    3.2760   -1.7560 C   0  0  0  0  0  0  0  0  0  0  0  0
   -2.0100    2.2470   -0.9880 C   0  0  0  0  0  0  0  0  0  0  0  0
   -0.9790    1.3970   -0.4510 C   0  0  0  0  0  0  0  0  0  0  0  0
   -1.2780    0.2940    0.2680 C   0  0  0  0  0  0  0  0  0  0  0  0
   -2.6180   -0.1490    0.5670 C   0  0  0  0  0  0  0  0  0  0  0  0
   -3.6000   -0.3100   -0.3700 C   0  0  0  0  0  0  0  0  0  0  0  0
   -4.8670   -0.7250    0.0580 C   0  0  0  0  0  0  0  0  0  0  0  0
   -5.1750   -0.9830    1.3630 C   0  0  0  0  0  0  0  0  0  0  0  0
   -6.4030   -1.4550    1.8180 N   0  0  0  0  0  0  0  0  0  0  0  0
   -7.5320   -1.9660    1.1960 C   0  0  0  0  0  0  0  0  0  0  0  0
   -7.5540   -2.4990   -0.0560 C   0  0  0  0  0  0  0  0  0  0  0  0
   -8.7360   -3.0460   -0.5670 C   0  0  0  0  0  0  0  0  0  0  0  0
   -9.8770   -3.0510    0.1910 C   0  0  0  0  0  0  0  0  0  0  0  0
   -9.8740   -2.5310    1.4320 N   0  0  0  0  0  0  0  0  0  0  0  0
   -8.7420   -2.0100    1.9100 C   0  0  0  0  0  0  0  0  0  0  0  0
   -8.8240   -1.4760    3.2430 N   0  0  0  0  0  0  0  0  0  0  0  0
   -4.1300   -0.7980    2.2530 N   0  0  0  0  0  0  0  0  0  0  0  0
   -2.9510   -0.4090    1.8550 N   0  0  0  0  0  0  0  0  0  0  0  0
    0.4540    1.6840   -0.7000 C   0  0  0  0  0  0  0  0  0  0  0  0
    6.1980    1.6100    0.3440 C   0  0  0  0  0  0  0  0  0  0  0  0
  1  2  1  0
  2  3  2  0
  2  7  1  0
  3  4  1  0
  4  5  2  0
  5  6  1  0
  5 37  1  0
  6  7  2  0
  6  8  1  0
  8  9  2  0
  8 10  1  0
 10 11  1  0
 10 37  1  0
 11 12  2  3
 12 13  1  0
 13 14  1  0
 13 15  2  3
 15 16  1  0
 16 17  2  0
 16 36  1  0
 17 18  1  0
 18 19  2  0
 19 20  1  0
 20 21  2  3
 20 36  1  0
 21 22  1  0
 22 23  2  0
 22 35  1  0
 23 24  1  0
 24 25  2  0
 25 26  1  0
 25 34  1  0
 26 27  1  0
 27 28  2  0
 27 32  1  0
 28 29  1  0
 29 30  2  0
 30 31  1  0
 31 32  2  0
 32 33  1  0
 34 35  2  0
M  END
