
     RDKit          3D

 38 42  0  0  0  0  0  0  0  0999 V2000
   10.2820   -1.7650    3.8270 N   0  0  0  0  0  0  0  0  0  0  0  0
   10.0290   -0.4860    3.0040 S   0  0  1  0  0  0  0  0  0  0  0  0
   10.3050    0.7660    3.7840 O   0  0  0  0  0  0  0  0  0  0  0  0
   10.9060   -0.4920    1.4860 C   0  0  0  0  0  0  0  0  0  0  0  0
   10.0120   -0.4730    0.5910 N   0  0  0  0  0  0  0  0  0  0  0  0
    8.6790   -0.4530    0.9730 C   0  0  0  0  0  0  0  0  0  0  0  0
    7.6000   -0.4300   -0.0730 C   0  0  0  0  0  0  0  0  0  0  0  0
    7.9080   -0.4290   -1.2770 O   0  0  0  0  0  0  0  0  0  0  0  0
    6.2500   -0.4090    0.2910 N   0  0  0  0  0  0  0  0  0  0  0  0
    5.1150   -0.3860   -0.5450 C   0  0  0  0  0  0  0  0  0  0  0  0
    5.1840   -0.3810   -1.9060 C   0  0  0  0  0  0  0  0  0  0  0  0
    4.0420   -0.3580   -2.7290 C   0  0  0  0  0  0  0  0  0  0  0  0
    2.8190   -0.3400   -2.1040 C   0  0  0  0  0  0  0  0  0  0  0  0
    1.6300   -0.3170   -2.8020 C   0  0  0  0  0  0  0  0  0  0  0  0
    1.7090   -0.3120   -4.0590 O   0  0  0  0  0  0  0  0  0  0  0  0
    0.4870   -0.3010   -2.1620 O   0  0  0  0  0  0  0  0  0  0  0  0
    0.3740   -0.3060   -0.8570 C   0  0  0  0  0  0  0  0  0  0  0  0
   -0.9230   -0.2880   -0.1970 C   0  0  0  0  0  0  0  0  0  0  0  0
   -0.9930   -0.2930    1.0530 O   0  0  0  0  0  0  0  0  0  0  0  0
   -2.0970   -0.2640   -0.9610 N   0  0  0  0  0  0  0  0  0  0  0  0
   -2.0550   -0.2580   -2.4030 C   0  0  0  0  0  0  0  0  0  0  0  0
   -3.4520   -0.2220   -3.0000 C   0  0  0  0  0  0  0  0  0  0  0  0
   -4.2850    0.8730   -2.3670 C   0  0  0  0  0  0  0  0  0  0  0  0
   -4.2410    0.8490   -0.8680 C   0  0  1  0  0  0  0  0  0  0  0  0
   -5.6080    0.7100   -0.2770 C   0  0  0  0  0  0  0  0  0  0  0  0
   -6.6300    0.6280   -1.0110 O   0  0  0  0  0  0  0  0  0  0  0  0
   -5.7010    0.6750    1.1390 N   0  0  0  0  0  0  0  0  0  0  0  0
   -6.9830    0.5430    1.7810 C   0  0  0  0  0  0  0  0  0  0  0  0
   -7.4840    1.4270    2.6130 C   0  0  0  0  0  0  0  0  0  0  0  0
   -8.8050    0.9570    3.0680 C   0  0  0  0  0  0  0  0  0  0  0  0
   -8.9940   -0.3260    2.3770 C   0  0  0  0  0  0  0  0  0  0  0  0
   -7.9280   -0.5440    1.6380 C   0  0  0  0  0  0  0  0  0  0  0  0
   -7.7440   -1.6820    0.8280 O   0  0  0  0  0  0  0  0  0  0  0  0
   -3.3850   -0.2460   -0.3050 C   0  0  0  0  0  0  0  0  0  0  0  0
    1.5300   -0.3290   -0.1410 N   0  0  0  0  0  0  0  0  0  0  0  0
    2.7390   -0.3460   -0.7280 C   0  0  0  0  0  0  0  0  0  0  0  0
    3.8680   -0.3680   -0.0100 N   0  0  0  0  0  0  0  0  0  0  0  0
    8.4460   -0.4560    2.2720 C   0  0  0  0  0  0  0  0  0  0  0  0
  1  2  2  0
  2  3  2  0
  2  4  1  6
  2 38  1  0
  4  5  2  0
  5  6  1  0
  6  7  1  0
  6 38  2  0
  7  8  2  0
  7  9  1  0
  9 10  1  0
 10 11  2  0
 10 37  1  0
 11 12  1  0
 12 13  2  0
 13 14  1  0
 13 36  1  0
 14 15  2  0
 14 16  1  0
 16 17  1  0
 17 18  1  0
 17 35  2  0
 18 19  2  0
 18 20  1  0
 20 21  1  0
 20 34  1  0
 21 22  1  0
 22 23  1  0
 23 24  1  0
 24 25  1  1
 24 34  1  0
 25 26  2  0
 25 27  1  0
 27 28  1  0
 28 29  2  0
 28 32  1  0
 29 30  1  0
 30 31  1  0
 31 32  2  0
 32 33  1  0
 35 36  1  0
 36 37  2  0
M  END
