
     RDKit          3D

 38 43  0  0  0  0  0  0  0  0999 V2000
    2.8230    0.1170    0.0480 O   0  0  0  0  0  0  0  0  0  0  0  0
    3.3190   -1.0380    0.0480 C   0  0  0  0  0  0  0  0  0  0  0  0
    4.7910   -1.1840    0.0510 C   0  0  0  0  0  0  0  0  0  0  0  0
    5.4550    0.0510    0.0550 O   0  0  0  0  0  0  0  0  0  0  0  0
    6.8390    0.0450    0.0580 C   0  0  0  0  0  0  0  0  0  0  0  0
    7.5830   -1.1340    0.0580 C   0  0  0  0  0  0  0  0  0  0  0  0
    8.9530   -1.1260    0.0610 C   0  0  0  0  0  0  0  0  0  0  0  0
    9.6420    0.0660    0.0650 C   0  0  0  0  0  0  0  0  0  0  0  0
    8.9290    1.2550    0.0650 C   0  0  0  0  0  0  0  0  0  0  0  0
    7.5390    1.2300    0.0610 C   0  0  0  0  0  0  0  0  0  0  0  0
    9.8960    2.2510    0.0680 O   0  0  0  0  0  0  0  0  0  0  0  0
   11.1580    1.7000    0.4110 C   0  0  0  0  0  0  0  0  0  0  0  0
   11.0000    0.3510    0.0680 O   0  0  0  0  0  0  0  0  0  0  0  0
    2.4340   -2.1430    0.0440 N   0  0  0  0  0  0  0  0  0  0  0  0
    1.0210   -2.0070    0.0410 C   0  0  0  0  0  0  0  0  0  0  0  0
    0.2550   -3.1480    0.0370 C   0  0  0  0  0  0  0  0  0  0  0  0
   -1.1260   -3.0730    0.0340 C   0  0  0  0  0  0  0  0  0  0  0  0
   -1.6710   -1.8570    0.0340 N   0  0  0  0  0  0  0  0  0  0  0  0
   -0.9490   -0.7080    0.0370 C   0  0  0  0  0  0  0  0  0  0  0  0
   -1.6340    0.5140    0.0370 N   0  0  0  0  0  0  0  0  0  0  0  0
   -3.0520    0.5870    0.0340 C   0  0  0  0  0  0  0  0  0  0  0  0
   -3.7740   -0.5710    0.0300 N   0  0  0  0  0  0  0  0  0  0  0  0
   -5.1320   -0.5290    0.0270 C   0  0  0  0  0  0  0  0  0  0  0  0
   -5.7590    0.6920    0.0340 C   0  0  0  0  0  0  0  0  0  0  0  0
   -5.0320    1.8510    0.0340 N   0  0  0  0  0  0  0  0  0  0  0  0
   -5.7190    3.1270    0.0340 C   0  0  0  0  0  0  0  0  0  0  0  0
   -5.9840    3.6190   -1.3730 C   0  0  0  0  0  0  0  0  0  0  0  0
   -6.6390    4.8370   -1.3050 O   0  0  0  0  0  0  0  0  0  0  0  0
   -3.6880    1.8110    0.0340 C   0  0  0  0  0  0  0  0  0  0  0  0
   -2.9840    2.8480    0.0340 O   0  0  0  0  0  0  0  0  0  0  0  0
   -7.0500    0.7460    0.2270 N   0  0  0  0  0  0  0  0  0  0  0  0
   -7.8640   -0.3930    0.4470 C   0  0  1  0  0  0  0  0  0  0  0  0
   -9.4010   -0.4160   -0.5680 S   0  0  0  0  0  0  0  0  0  0  0  0
   -9.4880   -2.2020   -0.4570 O   0  0  0  0  0  0  0  0  0  0  0  0
   -8.1480   -2.5370   -0.5050 C   0  0  0  0  0  0  0  0  0  0  0  0
   -7.2930   -1.6580   -0.0640 C   0  0  0  0  0  0  0  0  0  0  0  0
   -5.7980   -1.6820   -0.0420 C   0  0  0  0  0  0  0  0  0  0  0  0
    0.3900   -0.8230    0.0410 N   0  0  0  0  0  0  0  0  0  0  0  0
  1  2  2  0
  2  3  1  0
  2 14  1  0
  3  4  1  0
  4  5  1  0
  5  6  2  0
  5 10  1  0
  6  7  1  0
  7  8  2  0
  8  9  1  0
  8 13  1  0
  9 10  2  0
  9 11  1  0
 11 12  1  0
 12 13  1  0
 14 15  1  0
 15 16  2  0
 15 38  1  0
 16 17  1  0
 17 18  2  0
 18 19  1  0
 19 20  1  0
 19 38  2  0
 20 21  1  0
 21 22  2  0
 21 29  1  0
 22 23  1  0
 23 24  1  0
 23 37  2  0
 24 25  1  0
 24 31  2  0
 25 26  1  0
 25 29  1  0
 26 27  1  0
 27 28  1  0
 29 30  2  0
 31 32  1  0
 32 33  1  6
 32 36  1  0
 33 34  1  0
 34 35  1  0
 35 36  2  0
 36 37  1  0
M  END
