
     RDKit          3D

 38 42  0  0  0  0  0  0  0  0999 V2000
   -0.9050    0.7240    1.2170 O   0  0  0  0  0  0  0  0  0  0  0  0
   -1.0110    0.1860    2.3600 C   0  0  0  0  0  0  0  0  0  0  0  0
   -1.9410    0.7180    3.2620 N   0  0  0  0  0  0  0  0  0  0  0  0
   -2.7400    1.8560    2.8560 C   0  0  0  0  0  0  0  0  0  0  0  0
   -3.5640    1.5450    1.6600 C   0  0  0  0  0  0  0  0  0  0  0  0
   -4.8070    1.0320    1.6360 N   0  0  0  0  0  0  0  0  0  0  0  0
   -5.2020    0.9010    0.3350 C   0  0  0  0  0  0  0  0  0  0  0  0
   -6.4790    0.3860   -0.2000 C   0  0  2  0  0  0  0  0  0  0  0  0
   -6.1420   -0.7500   -1.1460 C   0  0  0  0  0  0  0  0  0  0  0  0
   -7.3600   -1.4650   -1.6640 C   0  0  0  0  0  0  0  0  0  0  0  0
   -8.5580   -0.5730   -1.6590 C   0  0  0  0  0  0  0  0  0  0  0  0
   -8.2410    0.8580   -1.9540 C   0  0  0  0  0  0  0  0  0  0  0  0
   -7.2060    1.4040   -1.0190 C   0  0  0  0  0  0  0  0  0  0  0  0
   -6.9940    2.6020   -0.9540 O   0  0  0  0  0  0  0  0  0  0  0  0
   -4.1600    1.3490   -0.3860 N   0  0  0  0  0  0  0  0  0  0  0  0
   -3.2060    1.7240    0.4160 O   0  0  0  0  0  0  0  0  0  0  0  0
   -0.1530   -0.9670    2.6770 C   0  0  0  0  0  0  0  0  0  0  0  0
    0.7360   -1.5170    1.8860 C   0  0  0  0  0  0  0  0  0  0  0  0
    1.0350   -1.1210    0.6080 O   0  0  0  0  0  0  0  0  0  0  0  0
    2.3300   -0.9250    0.1440 C   0  0  0  0  0  0  0  0  0  0  0  0
    2.9390    0.2450    0.2290 N   0  0  0  0  0  0  0  0  0  0  0  0
    4.1640    0.5660   -0.1710 C   0  0  0  0  0  0  0  0  0  0  0  0
    4.4610    1.8020    0.0570 O   0  0  0  0  0  0  0  0  0  0  0  0
    5.1060   -0.2340   -0.7730 C   0  0  0  0  0  0  0  0  0  0  0  0
    6.3580    0.3850   -1.1020 N   0  0  0  0  0  0  0  0  0  0  0  0
    7.4480   -0.2300   -1.7040 C   0  0  0  0  0  0  0  0  0  0  0  0
    7.4280   -1.4390   -2.0260 O   0  0  0  0  0  0  0  0  0  0  0  0
    8.6630    0.5840   -1.9660 C   0  0  0  0  0  0  0  0  0  0  0  0
    9.8070    0.1020   -2.5470 C   0  0  0  0  0  0  0  0  0  0  0  0
   10.7260    1.1520   -2.6290 C   0  0  0  0  0  0  0  0  0  0  0  0
   10.0950    2.2480   -2.0860 C   0  0  0  0  0  0  0  0  0  0  0  0
    8.8730    1.8760   -1.7030 N   0  0  0  0  0  0  0  0  0  0  0  0
    4.8560   -1.5450   -1.0400 C   0  0  0  0  0  0  0  0  0  0  0  0
    3.3090   -2.1160   -0.5810 S   0  0  0  0  0  0  0  0  0  0  0  0
    1.3500   -2.6210    2.5950 C   0  0  0  0  0  0  0  0  0  0  0  0
    2.2460   -3.4130    2.2080 O   0  0  0  0  0  0  0  0  0  0  0  0
    0.7740   -2.7240    3.9060 N   0  0  0  0  0  0  0  0  0  0  0  0
   -0.2070   -1.6630    3.9920 C   0  0  0  0  0  0  0  0  0  0  0  0
  1  2  2  0
  2  3  1  0
  2 17  1  0
  3  4  1  0
  4  5  1  0
  5  6  2  0
  5 16  1  0
  6  7  1  0
  8  7  1  6
  7 15  2  0
  8  9  1  0
  8 13  1  0
  9 10  1  0
 10 11  1  0
 11 12  1  0
 12 13  1  0
 13 14  2  0
 15 16  1  0
 17 18  2  0
 17 38  1  0
 18 19  1  0
 18 35  1  0
 19 20  1  0
 20 21  2  0
 20 34  1  0
 21 22  1  0
 22 23  2  0
 22 24  1  0
 24 25  1  0
 24 33  2  0
 25 26  1  0
 26 27  2  0
 26 28  1  0
 28 29  2  0
 28 32  1  0
 29 30  1  0
 30 31  2  0
 31 32  1  0
 33 34  1  0
 35 36  2  0
 35 37  1  0
 37 38  1  0
M  END
