
     RDKit          3D

 38 42  0  0  0  0  0  0  0  0999 V2000
   -7.3080   -2.0120    2.9220 C   0  0  0  0  0  0  0  0  0  0  0  0
   -6.2000   -1.9650    2.0550 O   0  0  0  0  0  0  0  0  0  0  0  0
   -6.2990   -2.1630    0.6910 C   0  0  0  0  0  0  0  0  0  0  0  0
   -7.4770   -2.4150    0.1130 N   0  0  0  0  0  0  0  0  0  0  0  0
   -7.5800   -2.6110   -1.2310 C   0  0  0  0  0  0  0  0  0  0  0  0
   -6.4820   -2.5610   -2.0630 C   0  0  0  0  0  0  0  0  0  0  0  0
   -5.2470   -2.3000   -1.4720 C   0  0  0  0  0  0  0  0  0  0  0  0
   -4.1060   -2.2320   -2.2280 C   0  0  0  0  0  0  0  0  0  0  0  0
   -4.1510   -2.4060   -3.4750 O   0  0  0  0  0  0  0  0  0  0  0  0
   -2.8920   -1.9730   -1.6350 N   0  0  0  0  0  0  0  0  0  0  0  0
   -2.8230   -1.7890   -0.3210 C   0  0  0  0  0  0  0  0  0  0  0  0
   -1.6240   -1.4510    0.3340 N   0  0  0  0  0  0  0  0  0  0  0  0
   -0.3130   -1.3630   -0.1750 C   0  0  0  0  0  0  0  0  0  0  0  0
    0.2270   -2.0850   -1.1980 C   0  0  0  0  0  0  0  0  0  0  0  0
    1.5720   -1.9820   -1.5580 C   0  0  0  0  0  0  0  0  0  0  0  0
    2.4300   -1.1430   -0.8920 C   0  0  0  0  0  0  0  0  0  0  0  0
    1.9060   -0.4060    0.1480 C   0  0  0  0  0  0  0  0  0  0  0  0
    0.5870   -0.4940    0.5110 C   0  0  0  0  0  0  0  0  0  0  0  0
    0.0330    0.2170    1.5330 O   0  0  0  0  0  0  0  0  0  0  0  0
   -0.7010    1.3440    1.5100 C   0  0  0  0  0  0  0  0  0  0  0  0
   -0.0850    2.5290    0.8990 C   0  0  0  0  0  0  0  0  0  0  0  0
    1.0310    2.6110    0.3580 O   0  0  0  0  0  0  0  0  0  0  0  0
   -0.8380    3.7710    0.9100 N   0  0  0  0  0  0  0  0  0  0  0  0
   -0.2930    4.9640    0.3370 C   0  0  0  0  0  0  0  0  0  0  0  0
    0.9680    5.4070    1.0120 C   0  0  0  0  0  0  0  0  0  0  0  0
    0.6410    5.6430    2.3670 O   0  0  0  0  0  0  0  0  0  0  0  0
    2.8210    0.4250    0.8040 O   0  0  0  0  0  0  0  0  0  0  0  0
    4.0700    0.7740    0.2450 C   0  0  0  0  0  0  0  0  0  0  0  0
    4.6830   -0.5330   -0.2790 C   0  0  2  0  0  0  0  0  0  0  0  0
    6.0130   -0.3200   -0.8400 C   0  0  0  0  0  0  0  0  0  0  0  0
    6.6360    0.1300   -1.7860 N   0  0  0  0  0  0  0  0  0  0  0  0
    7.9050    0.1330   -1.9280 N   0  0  0  0  0  0  0  0  0  0  0  0
    8.7150   -0.3360   -1.0980 C   0  0  0  0  0  0  0  0  0  0  0  0
   10.1520   -0.5170   -0.8960 C   0  0  0  0  0  0  0  0  0  0  0  0
    7.4690   -0.9270    0.1930 S   0  0  0  0  0  0  0  0  0  0  0  0
    3.7760   -1.0320   -1.2430 O   0  0  0  0  0  0  0  0  0  0  0  0
   -3.9790   -1.8580    0.4270 N   0  0  0  0  0  0  0  0  0  0  0  0
   -5.1690   -2.1040   -0.1040 C   0  0  0  0  0  0  0  0  0  0  0  0
  1  2  1  0
  2  3  1  0
  3  4  2  0
  3 38  1  0
  4  5  1  0
  5  6  2  0
  6  7  1  0
  7  8  1  0
  7 38  2  0
  8  9  2  0
  8 10  1  0
 10 11  1  0
 11 12  1  0
 11 37  2  0
 12 13  1  0
 13 14  2  0
 13 18  1  0
 14 15  1  0
 15 16  2  0
 16 17  1  0
 16 36  1  0
 17 18  2  0
 17 27  1  0
 18 19  1  0
 19 20  1  0
 20 21  1  0
 21 22  2  0
 21 23  1  0
 23 24  1  0
 24 25  1  0
 25 26  1  0
 27 28  1  0
 28 29  1  0
 29 30  1  6
 29 36  1  0
 30 31  2  0
 30 35  1  0
 31 32  1  0
 32 33  2  0
 33 34  1  0
 33 35  1  0
 37 38  1  0
M  END
