
     RDKit          3D

 38 42  0  0  0  0  0  0  0  0999 V2000
   -0.0410    2.9780    4.2130 C   0  0  0  0  0  0  0  0  0  0  0  0
   -1.4020    2.4770    3.9030 C   0  0  0  0  0  0  0  0  0  0  0  0
   -2.4690    3.1020    4.5110 C   0  0  0  0  0  0  0  0  0  0  0  0
   -3.7230    2.6530    4.2340 N   0  0  0  0  0  0  0  0  0  0  0  0
   -3.9340    1.6160    3.3810 C   0  0  0  0  0  0  0  0  0  0  0  0
   -5.1420    1.2860    3.2000 O   0  0  0  0  0  0  0  0  0  0  0  0
   -2.8970    0.9690    2.7560 C   0  0  0  0  0  0  0  0  0  0  0  0
   -3.0900   -0.1050    1.8740 N   0  0  0  0  0  0  0  0  0  0  0  0
   -2.0540   -0.8110    1.1990 C   0  0  2  0  0  0  0  0  0  0  0  0
   -2.6640   -1.9030    0.3080 C   0  0  0  0  0  0  0  0  0  0  0  0
   -2.4070   -3.2030    0.4620 C   0  0  0  0  0  0  0  0  0  0  0  0
   -3.0050   -4.1130   -0.3800 C   0  0  0  0  0  0  0  0  0  0  0  0
   -2.8940   -5.6030   -0.4260 C   0  0  0  0  0  0  0  0  0  0  0  0
   -3.9750   -3.1030   -1.4400 S   0  0  0  0  0  0  0  0  0  0  0  0
   -3.5100   -1.5140   -0.6780 C   0  0  0  0  0  0  0  0  0  0  0  0
   -4.0330   -0.2600   -1.1750 C   0  0  0  0  0  0  0  0  0  0  0  0
   -1.0500   -1.3580    2.0700 N   0  0  0  0  0  0  0  0  0  0  0  0
    0.0750   -1.5890    1.2470 C   0  0  0  0  0  0  0  0  0  0  0  0
    1.0300   -2.4120    1.4220 O   0  0  0  0  0  0  0  0  0  0  0  0
   -0.0160   -0.7030    0.1030 N   0  0  0  0  0  0  0  0  0  0  0  0
    0.9330   -0.6140   -0.9920 C   0  0  0  0  0  0  0  0  0  0  0  0
    2.0040    0.3610   -0.7890 C   0  0  0  0  0  0  0  0  0  0  0  0
    2.0540    1.1020    0.2210 O   0  0  0  0  0  0  0  0  0  0  0  0
    2.9890    0.4610   -1.7480 O   0  0  0  0  0  0  0  0  0  0  0  0
    4.0500    1.3580   -1.6520 C   0  0  1  0  0  0  0  0  0  0  0  0
    5.3470    0.6210   -1.5710 C   0  0  0  0  0  0  0  0  0  0  0  0
    6.0150    0.5200   -0.5200 O   0  0  0  0  0  0  0  0  0  0  0  0
    5.8320    0.0070   -2.7660 N   0  0  0  0  0  0  0  0  0  0  0  0
    5.4490    0.5660   -4.0260 C   0  0  0  0  0  0  0  0  0  0  0  0
    5.7390    0.2210   -5.3280 C   0  0  0  0  0  0  0  0  0  0  0  0
    5.0890    1.1260   -6.1310 C   0  0  0  0  0  0  0  0  0  0  0  0
    4.4390    1.9750   -5.3100 N   0  0  0  0  0  0  0  0  0  0  0  0
    4.6500    1.6440   -4.0290 N   0  0  0  0  0  0  0  0  0  0  0  0
    4.1700    2.2510   -2.8300 C   0  0  0  0  0  0  0  0  0  0  0  0
    3.8830    3.4730   -2.8370 O   0  0  0  0  0  0  0  0  0  0  0  0
   -1.2180    0.0300    0.3080 C   0  0  0  0  0  0  0  0  0  0  0  0
   -1.4570    1.1570   -0.1930 O   0  0  0  0  0  0  0  0  0  0  0  0
   -1.6200    1.4080    3.0230 C   0  0  0  0  0  0  0  0  0  0  0  0
  1  2  1  0
  2  3  2  0
  2 38  1  0
  3  4  1  0
  4  5  1  0
  5  6  2  0
  5  7  1  0
  7  8  1  0
  7 38  2  0
  9  8  1  1
  9 10  1  0
  9 17  1  0
  9 36  1  0
 10 11  1  0
 10 15  2  0
 11 12  2  0
 12 13  1  0
 12 14  1  0
 14 15  1  0
 15 16  1  0
 17 18  1  0
 18 19  2  0
 18 20  1  0
 20 21  1  0
 20 36  1  0
 21 22  1  0
 22 23  2  0
 22 24  1  0
 25 24  1  6
 25 26  1  0
 25 34  1  0
 26 27  2  0
 26 28  1  0
 28 29  1  0
 29 30  2  0
 29 33  1  0
 30 31  1  0
 31 32  2  0
 32 33  1  0
 33 34  1  0
 34 35  2  0
 36 37  2  0
M  END
