
     RDKit          3D

 38 41  0  0  0  0  0  0  0  0999 V2000
   -3.5510   -1.7880   -2.9100 C   0  0  0  0  0  0  0  0  0  0  0  0
   -4.3580   -1.4520   -1.6970 C   0  0  2  0  0  0  0  0  0  0  0  0
   -5.1820   -2.6690   -1.3310 C   0  0  0  0  0  0  0  0  0  0  0  0
   -5.3580   -0.3740   -2.1280 C   0  0  0  0  0  0  0  0  0  0  0  0
   -3.5240   -0.9930   -0.5300 C   0  0  2  0  0  0  0  0  0  0  0  0
   -4.3930   -0.6630    0.6780 C   0  0  0  0  0  0  0  0  0  0  0  0
   -3.6870   -1.0660    1.9210 C   0  0  0  0  0  0  0  0  0  0  0  0
   -4.5080   -1.6700    2.8650 C   0  0  0  0  0  0  0  0  0  0  0  0
   -4.0240   -2.1090    4.0810 C   0  0  0  0  0  0  0  0  0  0  0  0
   -4.8440   -2.6960    4.9890 F   0  0  0  0  0  0  0  0  0  0  0  0
   -2.6820   -1.9260    4.3310 C   0  0  0  0  0  0  0  0  0  0  0  0
   -1.8650   -1.3270    3.3970 C   0  0  0  0  0  0  0  0  0  0  0  0
   -2.3500   -0.8840    2.1720 C   0  0  0  0  0  0  0  0  0  0  0  0
   -1.0290   -0.1810    1.2620 S   0  0  1  0  0  0  0  0  0  0  0  0
   -0.5890    1.0120    2.0690 O   0  0  0  0  0  0  0  0  0  0  0  0
    0.1540   -1.1460    1.2790 O   0  0  0  0  0  0  0  0  0  0  0  0
   -1.3890    0.2590   -0.2930 N   0  0  0  0  0  0  0  0  0  0  0  0
   -0.3530    0.0250   -1.2240 C   0  0  0  0  0  0  0  0  0  0  0  0
    0.4590    1.1760   -1.6780 C   0  0  1  0  0  0  0  0  0  0  0  0
   -0.3050    2.1730   -2.3070 O   0  0  0  0  0  0  0  0  0  0  0  0
    1.2630    1.8900   -0.6250 C   0  0  2  0  0  0  0  0  0  0  0  0
    1.9930    3.0070   -1.3190 C   0  0  0  0  0  0  0  0  0  0  0  0
    2.8320    3.8020   -0.4190 C   0  0  0  0  0  0  0  0  0  0  0  0
    4.1340    3.4530   -0.2040 C   0  0  0  0  0  0  0  0  0  0  0  0
    4.9380    4.1830    0.6390 C   0  0  0  0  0  0  0  0  0  0  0  0
    4.4460    5.2910    1.2910 C   0  0  0  0  0  0  0  0  0  0  0  0
    3.1400    5.6560    1.0860 C   0  0  0  0  0  0  0  0  0  0  0  0
    2.3520    4.9070    0.2360 C   0  0  0  0  0  0  0  0  0  0  0  0
    2.0710    0.9890    0.0910 N   0  0  0  0  0  0  0  0  0  0  0  0
    2.9560    0.0390   -0.4530 C   0  0  0  0  0  0  0  0  0  0  0  0
    3.0680   -0.0390   -1.6810 O   0  0  0  0  0  0  0  0  0  0  0  0
    3.6930   -0.7980    0.3720 O   0  0  0  0  0  0  0  0  0  0  0  0
    4.5760   -1.7410   -0.2070 C   0  0  1  0  0  0  0  0  0  0  0  0
    5.9510   -1.6670    0.4370 C   0  0  0  0  0  0  0  0  0  0  0  0
    6.3420   -3.1120    0.5030 C   0  0  0  0  0  0  0  0  0  0  0  0
    5.2280   -3.8960    0.3990 O   0  0  0  0  0  0  0  0  0  0  0  0
    4.1190   -3.1120    0.2360 C   0  0  0  0  0  0  0  0  0  0  0  0
   -2.6840    0.1900   -0.8110 C   0  0  0  0  0  0  0  0  0  0  0  0
  2  1  1  6
  2  3  1  0
  2  4  1  0
  2  5  1  0
  5  6  1  1
  5 38  1  0
  6  7  1  0
  7  8  2  0
  7 13  1  0
  8  9  1  0
  9 10  1  0
  9 11  2  0
 11 12  1  0
 12 13  2  0
 13 14  1  0
 14 15  2  0
 14 16  2  0
 14 17  1  6
 17 18  1  0
 17 38  1  0
 18 19  1  0
 19 20  1  1
 19 21  1  0
 21 22  1  6
 21 29  1  0
 22 23  1  0
 23 24  2  0
 23 28  1  0
 24 25  1  0
 25 26  2  0
 26 27  1  0
 27 28  2  0
 29 30  1  0
 30 31  2  0
 30 32  1  0
 33 32  1  1
 33 34  1  0
 33 37  1  0
 34 35  1  0
 35 36  1  0
 36 37  1  0
M  END
