
     RDKit          3D

 38 41  0  0  0  0  0  0  0  0999 V2000
   -7.1230   -0.4020    1.5940 C   0  0  0  0  0  0  0  0  0  0  0  0
   -6.3580    0.5500    0.6730 C   0  0  0  0  0  0  0  0  0  0  0  0
   -5.0070    0.0170    0.5060 C   0  0  1  0  0  0  0  0  0  0  0  0
   -4.3040   -0.0240    1.8670 C   0  0  0  0  0  0  0  0  0  0  0  0
   -5.0660   -1.3870   -0.0740 C   0  0  0  0  0  0  0  0  0  0  0  0
   -5.6520   -1.3420   -1.3450 O   0  0  0  0  0  0  0  0  0  0  0  0
   -5.7300   -0.1420   -2.0860 C   0  0  0  0  0  0  0  0  0  0  0  0
   -6.5540   -0.1750   -3.1830 C   0  0  0  0  0  0  0  0  0  0  0  0
   -6.6530    0.9440   -3.9400 N   0  0  0  0  0  0  0  0  0  0  0  0
   -5.9600    2.0290   -3.6000 C   0  0  0  0  0  0  0  0  0  0  0  0
   -6.1120    3.1540   -4.4140 O   0  0  0  0  0  0  0  0  0  0  0  0
   -5.1370    2.0640   -2.4950 C   0  0  0  0  0  0  0  0  0  0  0  0
   -4.9980    0.9530   -1.6940 C   0  0  0  0  0  0  0  0  0  0  0  0
   -4.1420    0.8940   -0.4590 C   0  0  2  0  0  0  0  0  0  0  0  0
   -2.9670    0.1410   -0.6040 N   0  0  0  0  0  0  0  0  0  0  0  0
   -1.7080    0.2990   -1.1230 C   0  0  0  0  0  0  0  0  0  0  0  0
   -0.5530    0.5490   -0.1980 C   0  0  0  0  0  0  0  0  0  0  0  0
   -0.1310    2.0670    0.5980 S   0  0  0  0  0  0  0  0  0  0  0  0
    1.5800    1.5860    1.0460 C   0  0  0  0  0  0  0  0  0  0  0  0
    2.5400    2.4520    1.7930 C   0  0  0  0  0  0  0  0  0  0  0  0
    3.9000    1.9910    1.5250 N   0  0  0  0  0  0  0  0  0  0  0  0
    4.2740    0.6170    1.9550 C   0  0  0  0  0  0  0  0  0  0  0  0
    3.5080   -0.0250    2.5980 O   0  0  0  0  0  0  0  0  0  0  0  0
    5.5670    0.1550    1.4970 C   0  0  0  0  0  0  0  0  0  0  0  0
    6.4670    1.2060    1.4490 O   0  0  0  0  0  0  0  0  0  0  0  0
    6.0760   -0.9430    1.0900 O   0  0  0  0  0  0  0  0  0  0  0  0
    7.3010   -1.3590    0.6170 C   0  0  0  0  0  0  0  0  0  0  0  0
    7.9240   -0.3700   -0.3340 C   0  0  2  0  0  0  0  0  0  0  0  0
    8.2240   -0.7330   -1.7090 C   0  0  0  0  0  0  0  0  0  0  0  0
    9.2960    0.3540   -2.0270 C   0  0  0  0  0  0  0  0  0  0  0  0
    9.9980    0.3840   -0.6840 C   0  0  0  0  0  0  0  0  0  0  0  0
    8.9700    0.3460    0.2650 O   0  0  0  0  0  0  0  0  0  0  0  0
    1.6320    0.3590    0.5620 C   0  0  0  0  0  0  0  0  0  0  0  0
    0.5710   -0.1760   -0.0520 C   0  0  0  0  0  0  0  0  0  0  0  0
    0.5100   -1.7050   -0.3680 C   0  0  0  0  0  0  0  0  0  0  0  0
   -0.4530   -2.1860    0.7820 C   0  0  0  0  0  0  0  0  0  0  0  0
    0.0550   -1.7550    2.0170 O   0  0  0  0  0  0  0  0  0  0  0  0
   -0.9760   -1.7470    2.9650 C   0  0  0  0  0  0  0  0  0  0  0  0
  1  2  1  0
  2  3  1  0
  3  4  1  1
  3  5  1  0
  3 14  1  0
  5  6  1  0
  6  7  1  0
  7  8  2  0
  7 13  1  0
  8  9  1  0
  9 10  2  0
 10 11  1  0
 10 12  1  0
 12 13  2  0
 13 14  1  0
 14 15  1  6
 15 16  1  0
 16 17  1  0
 17 18  1  0
 17 34  2  0
 18 19  1  0
 19 20  1  0
 19 33  2  0
 20 21  1  0
 21 22  1  0
 22 23  2  0
 22 24  1  0
 24 25  2  0
 24 26  1  0
 26 27  1  0
 28 27  1  1
 28 29  1  0
 28 32  1  0
 29 30  1  0
 30 31  1  0
 31 32  1  0
 33 34  1  0
 34 35  1  0
 35 36  1  0
 36 37  1  0
 37 38  1  0
M  CHG  1  15   1
M  END
