
     RDKit          3D

 38 40  0  0  0  0  0  0  0  0999 V2000
   -0.0280    1.0270   -3.8700 C   0  0  0  0  0  0  0  0  0  0  0  0
   -0.8860   -0.5840   -3.9380 S   0  0  0  0  0  0  0  0  0  0  0  0
   -1.6340   -0.8600   -2.3470 C   0  0  0  0  0  0  0  0  0  0  0  0
   -2.8980   -0.4360   -2.0400 C   0  0  0  0  0  0  0  0  0  0  0  0
   -3.5080   -0.6480   -0.7970 C   0  0  0  0  0  0  0  0  0  0  0  0
   -4.8120   -0.1660   -0.5550 N   0  0  0  0  0  0  0  0  0  0  0  0
   -5.6510   -0.4500    0.5190 C   0  0  0  0  0  0  0  0  0  0  0  0
   -5.2610   -1.2350    1.4140 O   0  0  0  0  0  0  0  0  0  0  0  0
   -6.9550    0.1570    0.5940 N   0  0  0  0  0  0  0  0  0  0  0  0
   -7.8140   -0.1500    1.7150 C   0  0  1  0  0  0  0  0  0  0  0  0
   -8.0970    1.1140    2.5010 C   0  0  0  0  0  0  0  0  0  0  0  0
   -8.5920    2.1650    1.5560 C   0  0  0  0  0  0  0  0  0  0  0  0
   -9.7710    1.6890    0.7780 C   0  0  0  0  0  0  0  0  0  0  0  0
  -10.2040    0.2880    1.0720 C   0  0  1  0  0  0  0  0  0  0  0  0
  -11.0580   -0.1050    0.0160 O   0  0  0  0  0  0  0  0  0  0  0  0
   -9.0950   -0.7080    1.1310 C   0  0  0  0  0  0  0  0  0  0  0  0
   -2.7480   -1.3200    0.1140 C   0  0  0  0  0  0  0  0  0  0  0  0
   -1.4410   -1.7790   -0.1490 C   0  0  0  0  0  0  0  0  0  0  0  0
   -0.8810   -1.5480   -1.3830 C   0  0  0  0  0  0  0  0  0  0  0  0
    0.3560   -1.9450   -1.7330 O   0  0  0  0  0  0  0  0  0  0  0  0
    1.3820   -2.6050   -1.1120 C   0  0  0  0  0  0  0  0  0  0  0  0
    2.0000   -1.9370    0.0870 C   0  0  0  0  0  0  0  0  0  0  0  0
    2.5470   -0.6140   -0.3790 C   0  0  0  0  0  0  0  0  0  0  0  0
    3.0060    0.1850    0.4750 O   0  0  0  0  0  0  0  0  0  0  0  0
    2.5660   -0.2460   -1.6950 O   0  0  0  0  0  0  0  0  0  0  0  0
    3.0460    0.9330   -2.2420 C   0  0  0  0  0  0  0  0  0  0  0  0
    4.4930    1.0640   -2.0180 C   0  0  0  0  0  0  0  0  0  0  0  0
    5.1010    2.1340   -2.3670 O   0  0  0  0  0  0  0  0  0  0  0  0
    5.2780    0.0480   -1.4240 N   0  0  0  0  0  0  0  0  0  0  0  0
    6.7080    0.2740   -1.2440 C   0  0  2  0  0  0  0  0  0  0  0  0
    7.5290   -0.8160   -1.8540 C   0  0  0  0  0  0  0  0  0  0  0  0
    7.0180    0.3720    0.2270 C   0  0  2  0  0  0  0  0  0  0  0  0
    6.6600   -0.8520    1.0030 C   0  0  0  0  0  0  0  0  0  0  0  0
    7.0730   -0.6590    2.4460 C   0  0  0  0  0  0  0  0  0  0  0  0
    8.3800    0.0440    2.5940 C   0  0  0  0  0  0  0  0  0  0  0  0
    8.4260    1.3070    2.0460 O   0  0  0  0  0  0  0  0  0  0  0  0
    7.2310    1.9760    2.0680 C   0  0  0  0  0  0  0  0  0  0  0  0
    6.3600    1.5670    0.8830 C   0  0  0  0  0  0  0  0  0  0  0  0
  1  2  1  0
  2  3  1  0
  3  4  2  0
  3 19  1  0
  4  5  1  0
  5  6  1  0
  5 17  2  0
  6  7  1  0
  7  8  2  0
  7  9  1  0
 10  9  1  6
 10 11  1  0
 10 16  1  0
 11 12  1  0
 12 13  1  0
 13 14  1  0
 14 15  1  6
 14 16  1  0
 17 18  1  0
 18 19  2  0
 19 20  1  0
 20 21  1  0
 21 22  1  0
 22 23  1  0
 23 24  2  0
 23 25  1  0
 25 26  1  0
 26 27  1  0
 27 28  2  0
 27 29  1  0
 29 30  1  0
 30 31  1  1
 30 32  1  0
 32 33  1  1
 32 38  1  0
 33 34  1  0
 34 35  1  0
 35 36  1  0
 36 37  1  0
 37 38  1  0
M  END
