
     RDKit          3D

 38 41  0  0  0  0  0  0  0  0999 V2000
    5.0250    1.9650    1.0820 N   0  0  0  0  0  0  0  0  0  0  0  0
    3.7070    1.8080    1.5410 C   0  0  0  0  0  0  0  0  0  0  0  0
    3.3180    2.7030    2.3690 O   0  0  0  0  0  0  0  0  0  0  0  0
    2.8350    0.7630    1.1590 C   0  0  0  0  0  0  0  0  0  0  0  0
    3.1220   -0.1880    0.3200 C   0  0  0  0  0  0  0  0  0  0  0  0
    4.3750   -0.3630   -0.3920 C   0  0  0  0  0  0  0  0  0  0  0  0
    4.8530    0.5790   -1.2860 C   0  0  0  0  0  0  0  0  0  0  0  0
    6.0590    0.3690   -1.9110 C   0  0  0  0  0  0  0  0  0  0  0  0
    6.8130   -0.7590   -1.6730 C   0  0  0  0  0  0  0  0  0  0  0  0
    6.3680   -1.7250   -0.7850 C   0  0  0  0  0  0  0  0  0  0  0  0
    7.1620   -2.9550   -0.5000 C   0  0  0  0  0  0  0  0  0  0  0  0
    6.7080   -4.1110   -1.2210 N   0  0  0  0  0  0  0  0  0  0  0  0
    5.1600   -1.5040   -0.1660 C   0  0  0  0  0  0  0  0  0  0  0  0
    1.4480    0.7240    1.7760 C   0  0  0  0  0  0  0  0  0  0  0  0
    0.6640    1.7150    1.5750 O   0  0  0  0  0  0  0  0  0  0  0  0
   -0.1100    2.7050    1.3790 C   0  0  0  0  0  0  0  0  0  0  0  0
    0.1550    4.0300    1.7930 C   0  0  0  0  0  0  0  0  0  0  0  0
   -0.6820    5.0810    1.5790 C   0  0  0  0  0  0  0  0  0  0  0  0
   -1.8640    4.8820    0.9260 C   0  0  0  0  0  0  0  0  0  0  0  0
   -2.7910    5.9160    0.6630 N   0  0  0  0  0  0  0  0  0  0  0  0
   -2.1650    3.5960    0.5010 C   0  0  0  0  0  0  0  0  0  0  0  0
   -1.3480    2.5140    0.6980 C   0  0  0  0  0  0  0  0  0  0  0  0
   -1.6140    1.1900    0.2770 N   0  0  0  0  0  0  0  0  0  0  0  0
   -2.7630    0.7300   -0.4130 C   0  0  0  0  0  0  0  0  0  0  0  0
   -3.6640    1.5430   -0.6990 O   0  0  0  0  0  0  0  0  0  0  0  0
   -2.8840   -0.7340   -0.7930 C   0  0  2  0  0  0  0  0  0  0  0  0
   -4.1660   -0.8940   -1.4190 N   0  0  0  0  0  0  0  0  0  0  0  0
   -5.4280   -0.6410   -0.7710 C   0  0  0  0  0  0  0  0  0  0  0  0
   -5.5400   -0.2490    0.5300 C   0  0  0  0  0  0  0  0  0  0  0  0
   -6.7990   -0.0290    1.0630 C   0  0  0  0  0  0  0  0  0  0  0  0
   -7.9390   -0.1940    0.3210 C   0  0  0  0  0  0  0  0  0  0  0  0
   -7.8310   -0.5900   -1.0000 C   0  0  0  0  0  0  0  0  0  0  0  0
   -6.5980   -0.8050   -1.5230 C   0  0  0  0  0  0  0  0  0  0  0  0
   -2.8060   -1.6470    0.3770 C   0  0  0  0  0  0  0  0  0  0  0  0
   -1.7420   -2.7170    0.2110 C   0  0  0  0  0  0  0  0  0  0  0  0
   -2.0000   -3.3250   -1.0800 N   0  0  0  0  0  0  0  0  0  0  0  0
   -1.5010   -2.4330   -2.0810 C   0  0  0  0  0  0  0  0  0  0  0  0
   -1.8280   -1.0190   -1.8400 C   0  0  0  0  0  0  0  0  0  0  0  0
  1  2  1  0
  2  3  2  0
  2  4  1  0
  4  5  2  3
  4 14  1  0
  5  6  1  0
  6  7  2  0
  6 13  1  0
  7  8  1  0
  8  9  2  0
  9 10  1  0
 10 11  1  0
 10 13  2  0
 11 12  1  0
 14 15  1  0
 15 16  1  0
 16 17  2  0
 16 22  1  0
 17 18  1  0
 18 19  2  0
 19 20  1  0
 19 21  1  0
 21 22  2  0
 22 23  1  0
 23 24  1  0
 24 25  2  0
 24 26  1  0
 26 27  1  6
 26 34  1  0
 26 38  1  0
 27 28  1  0
 28 29  2  0
 28 33  1  0
 29 30  1  0
 30 31  2  0
 31 32  1  0
 32 33  2  0
 34 35  1  0
 35 36  1  0
 36 37  1  0
 37 38  1  0
M  CHG  2  12   1  36   1
M  END
