
     RDKit          3D

 38 41  0  0  0  0  0  0  0  0999 V2000
   -8.3100   -1.2680    0.4510 C   0  0  0  0  0  0  0  0  0  0  0  0
   -7.2070   -0.5170   -0.2860 C   0  0  1  0  0  0  0  0  0  0  0  0
   -5.9110   -1.0220    0.2610 C   0  0  0  0  0  0  0  0  0  0  0  0
   -4.7400   -0.3390   -0.1830 N   0  0  0  0  0  0  0  0  0  0  0  0
   -4.3200   -0.3260   -1.5220 C   0  0  0  0  0  0  0  0  0  0  0  0
   -5.0020   -0.9670   -2.4070 O   0  0  0  0  0  0  0  0  0  0  0  0
   -3.1580    0.3590   -2.0080 C   0  0  0  0  0  0  0  0  0  0  0  0
   -2.2680    1.0820   -1.4140 C   0  0  0  0  0  0  0  0  0  0  0  0
   -2.2730    1.4320    0.3210 S   0  0  0  0  0  0  0  0  0  0  0  0
   -0.7030    2.1630    0.8600 C   0  0  0  0  0  0  0  0  0  0  0  0
    0.3870    1.1670    0.7170 C   0  0  0  0  0  0  0  0  0  0  0  0
    1.4180    1.4590   -0.0880 C   0  0  0  0  0  0  0  0  0  0  0  0
    2.5220    0.5270   -0.2710 C   0  0  0  0  0  0  0  0  0  0  0  0
    3.4860    0.8860   -0.9860 O   0  0  0  0  0  0  0  0  0  0  0  0
    2.5160   -0.7880    0.3550 C   0  0  2  0  0  0  0  0  0  0  0  0
    1.3030   -0.9650    1.2330 C   0  0  0  0  0  0  0  0  0  0  0  0
    0.3910   -0.0820    1.3610 N   0  0  0  0  0  0  0  0  0  0  0  0
    1.2300   -2.2290    1.9770 C   0  0  0  0  0  0  0  0  0  0  0  0
    0.1320   -2.7890    2.1890 O   0  0  0  0  0  0  0  0  0  0  0  0
    2.4690   -2.8600    2.4890 C   0  0  0  0  0  0  0  0  0  0  0  0
    3.5710   -2.6430    1.4860 C   0  0  0  0  0  0  0  0  0  0  0  0
    3.6860   -1.1340    1.2110 C   0  0  1  0  0  0  0  0  0  0  0  0
    4.9640   -0.9680    0.5120 N   0  0  0  0  0  0  0  0  0  0  0  0
    5.9980   -0.1550    1.0230 C   0  0  0  0  0  0  0  0  0  0  0  0
    5.7310    0.4190    2.1340 O   0  0  0  0  0  0  0  0  0  0  0  0
    7.2920    0.0770    0.4150 C   0  0  0  0  0  0  0  0  0  0  0  0
    7.6310   -0.4780   -0.7210 C   0  0  0  0  0  0  0  0  0  0  0  0
    8.8550   -0.4210   -1.5510 C   0  0  0  0  0  0  0  0  0  0  0  0
    9.3710    0.9620   -1.7700 C   0  0  0  0  0  0  0  0  0  0  0  0
    8.9090    1.8800   -0.8430 O   0  0  0  0  0  0  0  0  0  0  0  0
    9.3760    1.4420    0.4170 C   0  0  0  0  0  0  0  0  0  0  0  0
    8.1830    0.9870    1.1860 C   0  0  0  0  0  0  0  0  0  0  0  0
   -7.2970   -0.6010   -1.6220 O   0  0  0  0  0  0  0  0  0  0  0  0
   -8.0560    0.2670   -2.3280 C   0  0  0  0  0  0  0  0  0  0  0  0
   -9.1600    0.9690   -1.6080 C   0  0  0  0  0  0  0  0  0  0  0  0
   -8.8750    1.2500   -0.1740 C   0  0  0  0  0  0  0  0  0  0  0  0
   -7.4150    0.9570    0.1200 C   0  0  2  0  0  0  0  0  0  0  0  0
   -6.6030    1.8010   -0.6270 O   0  0  0  0  0  0  0  0  0  0  0  0
  2  1  1  1
  2  3  1  0
  2 33  1  0
  2 37  1  0
  3  4  1  0
  4  5  1  0
  5  6  2  0
  5  7  1  0
  7  8  2  3
  8  9  1  0
  9 10  1  0
 10 11  1  0
 11 12  2  0
 11 17  1  0
 12 13  1  0
 13 14  2  0
 15 13  1  1
 15 16  1  0
 15 22  1  0
 16 17  2  0
 16 18  1  0
 18 19  2  0
 18 20  1  0
 20 21  1  0
 21 22  1  0
 22 23  1  6
 23 24  1  0
 24 25  2  0
 24 26  1  0
 26 27  2  0
 26 32  1  0
 27 28  1  0
 28 29  1  0
 29 30  1  0
 30 31  1  0
 31 32  1  0
 33 34  1  0
 34 35  1  0
 35 36  1  0
 36 37  1  0
 37 38  1  6
M  END
