
     RDKit          3D

 38 41  0  0  0  0  0  0  0  0999 V2000
   -8.6600    1.2830   -0.1490 C   0  0  0  0  0  0  0  0  0  0  0  0
   -7.2560    0.8260   -0.3190 C   0  0  0  0  0  0  0  0  0  0  0  0
   -7.0260   -0.4840    0.1380 O   0  0  0  0  0  0  0  0  0  0  0  0
   -5.7420   -1.0440    0.0400 C   0  0  0  0  0  0  0  0  0  0  0  0
   -4.6850   -0.3360   -0.4980 C   0  0  0  0  0  0  0  0  0  0  0  0
   -3.4060   -0.8310   -0.6190 C   0  0  0  0  0  0  0  0  0  0  0  0
   -2.3320   -0.1520   -1.1480 O   0  0  0  0  0  0  0  0  0  0  0  0
   -1.4090    0.6460   -0.4400 C   0  0  1  0  0  0  0  0  0  0  0  0
   -0.7770   -0.2560    0.5810 C   0  0  0  0  0  0  0  0  0  0  0  0
    0.2240    0.3380    1.4580 C   0  0  0  0  0  0  0  0  0  0  0  0
   -0.0600    1.3670    2.1280 O   0  0  0  0  0  0  0  0  0  0  0  0
    1.5280   -0.2040    1.5870 N   0  0  0  0  0  0  0  0  0  0  0  0
    2.4720    0.4380    2.4760 C   0  0  0  0  0  0  0  0  0  0  0  0
    3.8160    0.6390    1.8110 C   0  0  0  0  0  0  0  0  0  0  0  0
    4.0800   -0.3470    0.7250 C   0  0  1  0  0  0  0  0  0  0  0  0
    5.5030   -0.4540    0.4800 N   0  0  0  0  0  0  0  0  0  0  0  0
    6.0980   -0.2030   -0.7820 C   0  0  0  0  0  0  0  0  0  0  0  0
    5.3750    0.1230   -1.7340 O   0  0  0  0  0  0  0  0  0  0  0  0
    7.5600   -0.3360   -0.9210 C   0  0  2  0  0  0  0  0  0  0  0  0
    8.0690   -1.7230   -0.5490 C   0  0  0  0  0  0  0  0  0  0  0  0
    9.4710   -1.3900   -0.0850 C   0  0  0  0  0  0  0  0  0  0  0  0
    9.5000   -0.0920    0.3380 O   0  0  0  0  0  0  0  0  0  0  0  0
    8.3020    0.5130    0.0920 C   0  0  0  0  0  0  0  0  0  0  0  0
    3.4120   -1.6470    1.0370 C   0  0  0  0  0  0  0  0  0  0  0  0
    1.9060   -1.3970    0.8230 C   0  0  0  0  0  0  0  0  0  0  0  0
   -0.3230    0.9960   -1.4570 C   0  0  0  0  0  0  0  0  0  0  0  0
   -1.0480    1.2750   -2.7710 C   0  0  0  0  0  0  0  0  0  0  0  0
   -2.3000    2.5180   -2.4630 S   0  0  0  0  0  0  0  0  0  0  0  0
   -2.7070    2.7700   -0.7430 C   0  0  2  0  0  0  0  0  0  0  0  0
   -2.3650    4.1980   -0.4130 C   0  0  0  0  0  0  0  0  0  0  0  0
   -2.9910    5.2820   -1.0590 N   0  0  0  0  0  0  0  0  0  0  0  0
   -1.4950    4.4250    0.4640 O   0  0  0  0  0  0  0  0  0  0  0  0
   -1.9330    1.8710    0.1910 C   0  0  0  0  0  0  0  0  0  0  0  0
   -3.2190   -2.1420   -0.1530 C   0  0  0  0  0  0  0  0  0  0  0  0
   -4.2400   -2.8860    0.3900 C   0  0  0  0  0  0  0  0  0  0  0  0
   -5.4960   -2.3250    0.4810 C   0  0  0  0  0  0  0  0  0  0  0  0
   -6.5770   -3.0300    1.0240 O   0  0  0  0  0  0  0  0  0  0  0  0
   -6.3150   -4.3630    1.4860 C   0  0  0  0  0  0  0  0  0  0  0  0
  1  2  1  0
  2  3  1  0
  3  4  1  0
  4  5  2  0
  4 36  1  0
  5  6  1  0
  6  7  1  0
  6 34  2  0
  7  8  1  0
  8  9  1  1
  8 26  1  0
  8 33  1  0
  9 10  1  0
 10 11  2  0
 10 12  1  0
 12 13  1  0
 12 25  1  0
 13 14  1  0
 14 15  1  0
 15 16  1  1
 15 24  1  0
 16 17  1  0
 17 18  2  0
 19 17  1  1
 19 20  1  0
 19 23  1  0
 20 21  1  0
 21 22  1  0
 22 23  1  0
 24 25  1  0
 26 27  1  0
 27 28  1  0
 28 29  1  0
 29 30  1  1
 29 33  1  0
 30 31  1  0
 30 32  2  0
 34 35  1  0
 35 36  2  0
 36 37  1  0
 37 38  1  0
M  END
