
     RDKit          3D

 37 40  0  0  0  0  0  0  0  0999 V2000
   -5.4530   -4.1770    1.5140 C   0  0  0  0  0  0  0  0  0  0  0  0
   -4.3330   -3.5900    2.2620 C   0  0  0  0  0  0  0  0  0  0  0  0
   -3.7370   -2.4620    1.8890 C   0  0  0  0  0  0  0  0  0  0  0  0
   -2.6130   -1.9260    2.6800 C   0  0  0  0  0  0  0  0  0  0  0  0
   -4.2340   -1.7580    0.7510 N   0  0  0  0  0  0  0  0  0  0  0  0
   -3.5430   -1.6470   -0.4540 N   0  0  0  0  0  0  0  0  0  0  0  0
   -2.1600   -1.4420   -0.6070 C   0  0  0  0  0  0  0  0  0  0  0  0
   -1.2700   -2.5280   -0.6100 C   0  0  0  0  0  0  0  0  0  0  0  0
   -1.9000   -3.8340   -0.4220 C   0  0  0  0  0  0  0  0  0  0  0  0
   -2.3680   -4.8500   -0.2740 N   0  0  0  0  0  0  0  0  0  0  0  0
    0.0760   -2.3410   -0.7550 C   0  0  0  0  0  0  0  0  0  0  0  0
    0.6360   -1.0830   -0.9040 C   0  0  0  0  0  0  0  0  0  0  0  0
    2.0670   -0.8690   -1.0830 C   0  0  0  0  0  0  0  0  0  0  0  0
    2.9870   -1.7940   -1.2230 C   0  0  0  0  0  0  0  0  0  0  0  0
    4.4270   -1.3990   -1.4010 C   0  0  0  0  0  0  0  0  0  0  0  0
    4.7570   -0.3070   -0.3670 C   0  0  1  0  0  0  0  0  0  0  0  0
    6.2090   -0.0780   -0.4530 C   0  0  0  0  0  0  0  0  0  0  0  0
    6.7140    0.8840    0.4810 N   0  0  0  0  0  0  0  0  0  0  0  0
    8.1910    0.7630    0.4140 C   0  0  0  0  0  0  0  0  0  0  0  0
    8.6310    2.0970    0.9890 C   0  0  0  0  0  0  0  0  0  0  0  0
    7.6400    3.0560    0.4040 C   0  0  0  0  0  0  0  0  0  0  0  0
    6.4320    2.2170    0.0990 C   0  0  0  0  0  0  0  0  0  0  0  0
    3.7960    0.7980   -0.4360 C   0  0  0  0  0  0  0  0  0  0  0  0
    2.5790    0.4510   -1.1130 O   0  0  0  0  0  0  0  0  0  0  0  0
   -0.2360   -0.0150   -0.9000 C   0  0  0  0  0  0  0  0  0  0  0  0
   -1.6210   -0.1850   -0.7550 C   0  0  0  0  0  0  0  0  0  0  0  0
   -2.4840    0.9760   -0.7930 C   0  0  0  0  0  0  0  0  0  0  0  0
   -3.5530    1.1430   -1.6220 C   0  0  0  0  0  0  0  0  0  0  0  0
   -4.3480    2.2720   -1.6110 C   0  0  0  0  0  0  0  0  0  0  0  0
   -5.4980    2.4260   -2.5160 C   0  0  0  0  0  0  0  0  0  0  0  0
   -4.0560    3.2910   -0.7230 C   0  0  0  0  0  0  0  0  0  0  0  0
   -2.9820    3.1340    0.1150 C   0  0  0  0  0  0  0  0  0  0  0  0
   -2.6320    4.2100    1.0900 C   0  0  0  0  0  0  0  0  0  0  0  0
   -2.2140    2.0160    0.0890 C   0  0  0  0  0  0  0  0  0  0  0  0
   -5.5210   -1.1520    0.8150 C   0  0  0  0  0  0  0  0  0  0  0  0
   -6.3150   -1.2370    2.0520 C   0  0  0  0  0  0  0  0  0  0  0  0
   -6.0180   -0.5330   -0.1560 O   0  0  0  0  0  0  0  0  0  0  0  0
  1  2  1  0
  2  3  2  3
  3  4  1  0
  3  5  1  0
  5  6  1  0
  5 35  1  0
  6  7  1  0
  7  8  2  0
  7 26  1  0
  8  9  1  0
  8 11  1  0
  9 10  3  0
 11 12  2  0
 12 13  1  0
 12 25  1  0
 13 14  2  0
 13 24  1  0
 14 15  1  0
 15 16  1  0
 16 17  1  6
 16 23  1  0
 17 18  1  0
 18 19  1  0
 18 22  1  0
 19 20  1  0
 20 21  1  0
 21 22  1  0
 23 24  1  0
 25 26  2  0
 26 27  1  0
 27 28  2  0
 27 34  1  0
 28 29  1  0
 29 30  1  0
 29 31  2  0
 31 32  1  0
 32 33  1  0
 32 34  2  0
 35 36  1  0
 35 37  2  0
M  END
