
     RDKit          3D

 36 38  0  0  0  0  0  0  0  0999 V2000
    4.4750    1.4600    2.7700 C   0  0  0  0  0  0  0  0  0  0  0  0
    4.2340    1.5920    1.3000 C   0  0  2  0  0  0  0  0  0  0  0  0
    3.4960    2.8730    1.0350 C   0  0  0  0  0  0  0  0  0  0  0  0
    3.4140    0.4480    0.7390 C   0  0  1  0  0  0  0  0  0  0  0  0
    4.1410   -0.8850    0.9690 C   0  0  0  0  0  0  0  0  0  0  0  0
    3.7910   -1.8310   -0.1130 C   0  0  0  0  0  0  0  0  0  0  0  0
    4.7270   -2.8360   -0.2870 C   0  0  0  0  0  0  0  0  0  0  0  0
    4.5840   -3.8250   -1.2570 C   0  0  0  0  0  0  0  0  0  0  0  0
    5.4870   -4.8130   -1.4420 F   0  0  0  0  0  0  0  0  0  0  0  0
    3.4620   -3.8100   -2.0870 C   0  0  0  0  0  0  0  0  0  0  0  0
    2.5370   -2.8110   -1.9100 C   0  0  0  0  0  0  0  0  0  0  0  0
    2.6960   -1.8340   -0.9380 C   0  0  0  0  0  0  0  0  0  0  0  0
    1.3180   -0.7160   -1.0040 S   0  0  1  0  0  0  0  0  0  0  0  0
    1.5320    0.1940   -2.1960 O   0  0  0  0  0  0  0  0  0  0  0  0
    0.1440   -1.6090   -1.3790 O   0  0  0  0  0  0  0  0  0  0  0  0
    0.9860    0.0530    0.4380 N   0  0  0  0  0  0  0  0  0  0  0  0
   -0.2410   -0.2750    1.0880 C   0  0  0  0  0  0  0  0  0  0  0  0
   -1.3440    0.7650    0.9410 C   0  0  1  0  0  0  0  0  0  0  0  0
   -0.7620    1.9720    1.4530 O   0  0  0  0  0  0  0  0  0  0  0  0
   -1.7350    1.0790   -0.4630 C   0  0  2  0  0  0  0  0  0  0  0  0
   -2.4700    2.3360   -0.6040 C   0  0  0  0  0  0  0  0  0  0  0  0
   -1.9090    3.6010   -0.2090 C   0  0  0  0  0  0  0  0  0  0  0  0
   -1.0620    4.3680   -0.9930 C   0  0  0  0  0  0  0  0  0  0  0  0
   -0.5860    5.5870   -0.5850 C   0  0  0  0  0  0  0  0  0  0  0  0
   -0.9370    6.1100    0.6480 C   0  0  0  0  0  0  0  0  0  0  0  0
   -1.7730    5.3720    1.4460 C   0  0  0  0  0  0  0  0  0  0  0  0
   -2.2390    4.1510    1.0170 C   0  0  0  0  0  0  0  0  0  0  0  0
   -2.4620   -0.0030   -1.1190 N   0  0  0  0  0  0  0  0  0  0  0  0
   -3.0640   -1.1150   -0.5280 C   0  0  0  0  0  0  0  0  0  0  0  0
   -3.0770   -1.3000    0.6870 O   0  0  0  0  0  0  0  0  0  0  0  0
   -3.7150   -2.1260   -1.3280 N   0  0  0  0  0  0  0  0  0  0  0  0
   -4.3240   -3.2730   -0.6780 C   0  0  2  0  0  0  0  0  0  0  0  0
   -4.9440   -4.1510   -1.7380 C   0  0  0  0  0  0  0  0  0  0  0  0
   -5.3960   -2.8940    0.3090 C   0  0  0  0  0  0  0  0  0  0  0  0
   -3.2410   -4.1080   -0.0050 C   0  0  0  0  0  0  0  0  0  0  0  0
    2.0560    0.3610    1.3210 C   0  0  0  0  0  0  0  0  0  0  0  0
  2  1  1  1
  2  3  1  0
  2  4  1  0
  4  5  1  1
  4 36  1  0
  5  6  1  0
  6  7  2  0
  6 12  1  0
  7  8  1  0
  8  9  1  0
  8 10  2  0
 10 11  1  0
 11 12  2  0
 12 13  1  0
 13 14  2  0
 13 15  2  0
 13 16  1  1
 16 17  1  0
 16 36  1  0
 17 18  1  0
 18 19  1  6
 18 20  1  0
 20 21  1  1
 20 28  1  0
 21 22  1  0
 22 23  2  0
 22 27  1  0
 23 24  1  0
 24 25  2  0
 25 26  1  0
 26 27  2  0
 28 29  1  0
 29 30  2  0
 29 31  1  0
 31 32  1  0
 32 33  1  6
 32 34  1  0
 32 35  1  0
M  END
