
     RDKit          3D

 37 40  0  0  0  0  0  0  0  0999 V2000
   -2.9620   -1.9480    1.7470 C   0  0  0  0  0  0  0  0  0  0  0  0
   -3.1140   -0.7220    2.3350 C   0  0  0  0  0  0  0  0  0  0  0  0
   -2.6890   -0.6760    3.7390 C   0  0  0  0  0  0  0  0  0  0  0  0
   -3.6520    0.3510    1.5500 C   0  0  0  0  0  0  0  0  0  0  0  0
   -3.8300    1.5560    2.0180 C   0  0  0  0  0  0  0  0  0  0  0  0
   -3.5700    2.0950    3.3270 C   0  0  0  0  0  0  0  0  0  0  0  0
   -4.0020    0.1030    0.1550 N   0  0  0  0  0  0  0  0  0  0  0  0
   -5.0530   -0.8410   -0.0990 C   0  0  0  0  0  0  0  0  0  0  0  0
   -3.3510    0.8410   -0.8750 C   0  0  0  0  0  0  0  0  0  0  0  0
   -2.4970    1.7180   -0.5060 O   0  0  0  0  0  0  0  0  0  0  0  0
   -3.6470    0.6320   -2.2500 C   0  0  1  0  0  0  0  0  0  0  0  0
   -3.0910    1.5660   -3.2800 C   0  0  0  0  0  0  0  0  0  0  0  0
   -3.6470    0.9370   -4.5660 C   0  0  0  0  0  0  0  0  0  0  0  0
   -4.4460   -0.2200   -4.1040 C   0  0  0  0  0  0  0  0  0  0  0  0
   -3.6610   -0.6490   -2.8610 N   0  0  0  0  0  0  0  0  0  0  0  0
   -2.3980   -1.1200   -3.3270 C   0  0  0  0  0  0  0  0  0  0  0  0
   -1.6360   -1.9760   -2.4780 N   0  0  0  0  0  0  0  0  0  0  0  0
   -0.6610   -1.5690   -1.5660 C   0  0  0  0  0  0  0  0  0  0  0  0
   -0.0580   -2.4270   -0.8100 O   0  0  0  0  0  0  0  0  0  0  0  0
   -0.2020   -0.2320   -1.3510 N   0  0  0  0  0  0  0  0  0  0  0  0
    0.7890    0.1160   -0.3900 C   0  0  0  0  0  0  0  0  0  0  0  0
    1.0250   -0.6610    0.7510 C   0  0  0  0  0  0  0  0  0  0  0  0
    2.0290   -0.3160    1.6270 C   0  0  0  0  0  0  0  0  0  0  0  0
    2.8500    0.8170    1.4270 C   0  0  0  0  0  0  0  0  0  0  0  0
    3.8670    1.1120    2.4200 C   0  0  0  0  0  0  0  0  0  0  0  0
    5.1580    1.1140    2.0720 C   0  0  0  0  0  0  0  0  0  0  0  0
    6.1330    1.4230    3.1240 C   0  0  0  0  0  0  0  0  0  0  0  0
    7.3370    1.8280    2.8110 C   0  0  0  0  0  0  0  0  0  0  0  0
    8.2420    2.1110    3.9650 C   0  0  0  0  0  0  0  0  0  0  0  0
    7.7470    1.9900    1.4160 C   0  0  0  0  0  0  0  0  0  0  0  0
    7.0970    1.0250    0.4840 C   0  0  0  0  0  0  0  0  0  0  0  0
    5.6360    0.7940    0.7280 C   0  0  0  0  0  0  0  0  0  0  0  0
    2.5660    1.5300    0.3040 C   0  0  0  0  0  0  0  0  0  0  0  0
    1.5740    1.2310   -0.6130 C   0  0  0  0  0  0  0  0  0  0  0  0
   -1.9060   -3.4200   -2.6030 C   0  0  2  0  0  0  0  0  0  0  0  0
   -1.6010   -4.3900   -1.5000 C   0  0  0  0  0  0  0  0  0  0  0  0
   -0.6920   -4.3360   -2.6400 C   0  0  0  0  0  0  0  0  0  0  0  0
  1  2  2  0
  2  3  1  0
  2  4  1  0
  4  5  2  3
  4  7  1  0
  5  6  1  0
  7  8  1  0
  7  9  1  0
  9 10  2  0
 11  9  1  1
 11 12  1  0
 11 15  1  0
 12 13  1  0
 13 14  1  0
 14 15  1  0
 15 16  1  0
 16 17  1  0
 17 18  1  0
 35 17  1  1
 18 19  2  0
 18 20  1  0
 20 21  1  0
 21 22  2  0
 21 34  1  0
 22 23  1  0
 23 24  2  0
 24 25  1  0
 24 33  1  0
 25 26  2  3
 26 27  1  0
 26 32  1  0
 27 28  2  0
 28 29  1  0
 28 30  1  0
 30 31  1  0
 31 32  1  0
 33 34  2  0
 35 36  1  0
 35 37  1  0
 36 37  1  0
M  END
