
     RDKit          3D

 37 40  0  0  0  0  0  0  0  0999 V2000
   -7.3200    3.8880    1.6310 C   0  0  0  0  0  0  0  0  0  0  0  0
   -7.5780    2.6990    0.7270 C   0  0  0  0  0  0  0  0  0  0  0  0
   -6.3620    2.1140    0.3840 O   0  0  0  0  0  0  0  0  0  0  0  0
   -6.1540    1.0230   -0.4150 C   0  0  0  0  0  0  0  0  0  0  0  0
   -7.2500    0.3570   -0.9980 C   0  0  0  0  0  0  0  0  0  0  0  0
   -7.1170   -0.7400   -1.8080 C   0  0  0  0  0  0  0  0  0  0  0  0
   -8.3180   -1.3910   -2.3900 C   0  0  0  0  0  0  0  0  0  0  0  0
   -8.8180   -2.4520   -1.4470 C   0  0  0  0  0  0  0  0  0  0  0  0
   -5.8270   -1.1760   -2.0330 C   0  0  0  0  0  0  0  0  0  0  0  0
   -4.7440   -0.5520   -1.4820 C   0  0  0  0  0  0  0  0  0  0  0  0
   -4.8880    0.5680   -0.6560 C   0  0  0  0  0  0  0  0  0  0  0  0
   -3.6470    1.1620   -0.1050 C   0  0  0  0  0  0  0  0  0  0  0  0
   -2.5240    0.6460   -0.4140 N   0  0  0  0  0  0  0  0  0  0  0  0
   -1.2690    1.1010    0.0280 C   0  0  2  0  0  0  0  0  0  0  0  0
   -0.3230    0.0440    0.4710 C   0  0  0  0  0  0  0  0  0  0  0  0
    0.9950    0.0680    0.0990 C   0  0  0  0  0  0  0  0  0  0  0  0
    1.9260   -0.9150    0.5090 C   0  0  0  0  0  0  0  0  0  0  0  0
    3.2940   -0.7670    0.1060 C   0  0  0  0  0  0  0  0  0  0  0  0
    3.5590    0.3940   -0.4420 O   0  0  0  0  0  0  0  0  0  0  0  0
    4.3390   -1.6790    0.2220 N   0  0  0  0  0  0  0  0  0  0  0  0
    4.2110   -3.0630    0.5470 C   0  0  0  0  0  0  0  0  0  0  0  0
    5.6790   -1.1480   -0.0840 C   0  0  0  0  0  0  0  0  0  0  0  0
    6.2400   -0.1680    0.6980 C   0  0  0  0  0  0  0  0  0  0  0  0
    7.4930    0.3480    0.4210 C   0  0  0  0  0  0  0  0  0  0  0  0
    8.2210   -0.1100   -0.6570 C   0  0  0  0  0  0  0  0  0  0  0  0
    9.5700    0.4500   -0.9550 C   0  0  1  0  0  0  0  0  0  0  0  0
    9.4920    1.9440   -1.2670 C   0  0  0  0  0  0  0  0  0  0  0  0
   10.5290    0.2670    0.2070 C   0  0  0  0  0  0  0  0  0  0  0  0
    7.6530   -1.0930   -1.4370 C   0  0  0  0  0  0  0  0  0  0  0  0
    6.3920   -1.6130   -1.1590 C   0  0  0  0  0  0  0  0  0  0  0  0
    1.4910   -1.9340    1.3140 C   0  0  0  0  0  0  0  0  0  0  0  0
    0.1510   -1.9580    1.6910 C   0  0  0  0  0  0  0  0  0  0  0  0
   -0.7440   -0.9830    1.2770 C   0  0  0  0  0  0  0  0  0  0  0  0
   -2.1690   -1.0360    1.7000 C   0  0  0  0  0  0  0  0  0  0  0  0
   -1.3190    2.1930    0.9560 N   0  0  0  0  0  0  0  0  0  0  0  0
   -2.5300    2.7690    1.2980 N   0  0  0  0  0  0  0  0  0  0  0  0
   -3.6430    2.2910    0.8040 C   0  0  0  0  0  0  0  0  0  0  0  0
  1  2  1  0
  2  3  1  0
  3  4  1  0
  4  5  2  0
  4 11  1  0
  5  6  1  0
  6  7  1  0
  6  9  2  0
  7  8  1  0
  9 10  1  0
 10 11  2  0
 11 12  1  0
 12 13  2  0
 12 37  1  0
 13 14  1  0
 14 15  1  1
 14 35  1  0
 15 16  2  0
 15 33  1  0
 16 17  1  0
 17 18  1  0
 17 31  2  0
 18 19  2  0
 18 20  1  0
 20 21  1  0
 20 22  1  0
 22 23  2  0
 22 30  1  0
 23 24  1  0
 24 25  2  0
 25 26  1  0
 25 29  1  0
 26 27  1  1
 26 28  1  0
 29 30  2  0
 31 32  1  0
 32 33  2  0
 33 34  1  0
 35 36  1  0
 36 37  2  0
M  END
