
     RDKit          3D

 37 40  0  0  0  0  0  0  0  0999 V2000
    2.5260   -5.4970    0.0060 C   0  0  0  0  0  0  0  0  0  0  0  0
    1.3050   -4.6720   -0.0770 C   0  0  0  0  0  0  0  0  0  0  0  0
    1.3980   -3.2240    0.2180 C   0  0  0  0  0  0  0  0  0  0  0  0
    2.2610   -2.3690   -0.6130 C   0  0  2  0  0  0  0  0  0  0  0  0
    3.7300   -2.6870   -0.6310 C   0  0  0  0  0  0  0  0  0  0  0  0
    4.1880   -2.3110    0.7510 C   0  0  0  0  0  0  0  0  0  0  0  0
    3.2190   -1.2420    1.1630 C   0  0  0  0  0  0  0  0  0  0  0  0
    3.1990   -0.6730    2.2850 O   0  0  0  0  0  0  0  0  0  0  0  0
    2.3290   -1.0000    0.0400 C   0  0  0  0  0  0  0  0  0  0  0  0
    1.7240    0.1190   -0.3460 C   0  0  0  0  0  0  0  0  0  0  0  0
    1.8750    1.3970    0.3780 C   0  0  0  0  0  0  0  0  0  0  0  0
    2.5820    2.4760   -0.3900 C   0  0  1  0  0  0  0  0  0  0  0  0
    2.6500    3.7100    0.5240 C   0  0  0  0  0  0  0  0  0  0  0  0
    3.9840    2.1230   -0.7590 C   0  0  0  0  0  0  0  0  0  0  0  0
    1.7600    2.8430   -1.5970 C   0  0  0  0  0  0  0  0  0  0  0  0
    0.8720    0.1360   -1.4790 N   0  0  0  0  0  0  0  0  0  0  0  0
   -0.5520    0.1530   -1.2300 C   0  0  0  0  0  0  0  0  0  0  0  0
   -0.9130   -0.3810   -0.1340 N   0  0  0  0  0  0  0  0  0  0  0  0
   -2.3000   -0.4280    0.2190 C   0  0  0  0  0  0  0  0  0  0  0  0
   -3.2140   -0.0210   -0.5290 O   0  0  0  0  0  0  0  0  0  0  0  0
   -2.6950   -0.9830    1.5200 C   0  0  0  0  0  0  0  0  0  0  0  0
   -4.0290   -1.0380    1.8420 C   0  0  0  0  0  0  0  0  0  0  0  0
   -4.4680   -1.5490    3.0510 C   0  0  0  0  0  0  0  0  0  0  0  0
   -3.5540   -2.0110    3.9500 C   0  0  0  0  0  0  0  0  0  0  0  0
   -4.0500   -2.5550    5.2350 C   0  0  0  0  0  0  0  0  0  0  0  0
   -2.2180   -1.9650    3.6480 C   0  0  0  0  0  0  0  0  0  0  0  0
   -1.7850   -1.4540    2.4390 C   0  0  0  0  0  0  0  0  0  0  0  0
   -1.4550    0.7780   -2.1770 C   0  0  0  0  0  0  0  0  0  0  0  0
   -1.7870    0.2990   -3.4260 C   0  0  0  0  0  0  0  0  0  0  0  0
   -2.6200    1.1980   -3.9830 N   0  0  0  0  0  0  0  0  0  0  0  0
   -2.8130    2.2010   -3.1400 N   0  0  0  0  0  0  0  0  0  0  0  0
   -3.5370    3.3320   -3.2170 C   0  0  0  0  0  0  0  0  0  0  0  0
   -3.6130    4.2790   -2.2300 C   0  0  0  0  0  0  0  0  0  0  0  0
   -2.8970    4.0710   -1.0580 C   0  0  0  0  0  0  0  0  0  0  0  0
   -2.9690    5.0860    0.0120 C   0  0  0  0  0  0  0  0  0  0  0  0
   -2.1620    2.9250   -0.9750 C   0  0  0  0  0  0  0  0  0  0  0  0
   -2.1040    1.9740   -2.0040 C   0  0  0  0  0  0  0  0  0  0  0  0
  1  2  1  0
  2  3  1  0
  4  3  1  1
  4  5  1  0
  4  9  1  0
  5  6  1  0
  6  7  1  0
  7  8  2  0
  7  9  1  0
  9 10  2  3
 10 11  1  0
 10 16  1  0
 11 12  1  0
 12 13  1  1
 12 14  1  0
 12 15  1  0
 16 17  1  0
 17 18  2  3
 17 28  1  0
 18 19  1  0
 19 20  2  0
 19 21  1  0
 21 22  2  0
 21 27  1  0
 22 23  1  0
 23 24  2  0
 24 25  1  0
 24 26  1  0
 26 27  2  0
 28 29  1  0
 28 37  2  0
 29 30  2  0
 30 31  1  0
 31 32  1  0
 31 37  1  0
 32 33  2  0
 33 34  1  0
 34 35  1  0
 34 36  2  0
 36 37  1  0
M  END
