
     RDKit          3D

 37 40  0  0  0  0  0  0  0  0999 V2000
   -5.1880   -2.3940    0.9250 C   0  0  0  0  0  0  0  0  0  0  0  0
   -5.4090   -2.2420   -0.2840 C   0  0  0  0  0  0  0  0  0  0  0  0
   -5.7410   -1.2010   -1.2390 C   0  0  0  0  0  0  0  0  0  0  0  0
   -5.7900   -1.7160   -2.5170 C   0  0  0  0  0  0  0  0  0  0  0  0
   -6.0900   -1.0590   -3.7310 C   0  0  0  0  0  0  0  0  0  0  0  0
   -5.7820    0.1960   -1.0870 C   0  0  0  0  0  0  0  0  0  0  0  0
   -5.3990    0.9590   -2.3060 N   0  0  0  0  0  0  0  0  0  0  0  0
   -3.9940    1.3370   -2.4240 C   0  0  0  0  0  0  0  0  0  0  0  0
   -3.0290    0.2700   -2.5750 C   0  0  0  0  0  0  0  0  0  0  0  0
   -1.9910   -0.1090   -1.8930 C   0  0  0  0  0  0  0  0  0  0  0  0
   -1.3760    0.4020   -0.6840 C   0  0  0  0  0  0  0  0  0  0  0  0
   -0.2650   -0.2490   -0.2390 C   0  0  0  0  0  0  0  0  0  0  0  0
    0.3650    0.2220    0.9370 N   0  0  0  0  0  0  0  0  0  0  0  0
    1.7550    0.1650    1.1340 C   0  0  0  0  0  0  0  0  0  0  0  0
    2.5240   -0.7100    0.3810 C   0  0  0  0  0  0  0  0  0  0  0  0
    3.8950   -0.7270    0.5490 C   0  0  0  0  0  0  0  0  0  0  0  0
    4.6590   -1.5720   -0.1850 N   0  0  0  0  0  0  0  0  0  0  0  0
    6.0070   -1.5570    0.0010 C   0  0  0  0  0  0  0  0  0  0  0  0
    6.6220   -0.7350    0.8880 C   0  0  0  0  0  0  0  0  0  0  0  0
    8.0600   -0.7560    1.0350 C   0  0  0  0  0  0  0  0  0  0  0  0
    8.6220    0.0170    1.8460 O   0  0  0  0  0  0  0  0  0  0  0  0
    8.8780   -1.6190    0.3020 O   0  0  0  0  0  0  0  0  0  0  0  0
   10.2730   -1.6430    0.4420 C   0  0  0  0  0  0  0  0  0  0  0  0
   10.8350   -2.6970   -0.4940 C   0  0  0  0  0  0  0  0  0  0  0  0
    5.8800    0.1330    1.6510 C   0  0  0  0  0  0  0  0  0  0  0  0
    4.4970    0.1230    1.4640 C   0  0  0  0  0  0  0  0  0  0  0  0
    3.7180    0.9860    2.2060 C   0  0  0  0  0  0  0  0  0  0  0  0
    4.3540    1.9150    3.2000 C   0  0  0  0  0  0  0  0  0  0  0  0
    2.3920    0.9780    2.0200 N   0  0  0  0  0  0  0  0  0  0  0  0
   -0.5170    0.7880    1.9290 C   0  0  0  0  0  0  0  0  0  0  0  0
   -1.1540    1.9760    1.2590 C   0  0  0  0  0  0  0  0  0  0  0  0
   -1.9050    1.5660    0.0320 C   0  0  0  0  0  0  0  0  0  0  0  0
   -5.9380    0.9850   -0.0500 C   0  0  0  0  0  0  0  0  0  0  0  0
   -5.9200    2.4800   -0.1810 C   0  0  0  0  0  0  0  0  0  0  0  0
   -6.2290    2.9730    1.0060 C   0  0  0  0  0  0  0  0  0  0  0  0
   -6.4620    1.9270    1.9510 C   0  0  0  0  0  0  0  0  0  0  0  0
   -6.2950    0.7340    1.3370 C   0  0  0  0  0  0  0  0  0  0  0  0
  1  2  2  0
  2  3  1  0
  3  4  2  3
  3  6  1  0
  4  5  1  0
  6  7  1  0
  6 33  2  3
  7  8  1  0
  8  9  1  0
  9 10  2  3
 10 11  1  0
 11 12  2  0
 11 32  1  0
 12 13  1  0
 13 14  1  0
 13 30  1  0
 14 15  2  0
 14 29  1  0
 15 16  1  0
 16 17  2  0
 16 26  1  0
 17 18  1  0
 18 19  2  0
 19 20  1  0
 19 25  1  0
 20 21  2  0
 20 22  1  0
 22 23  1  0
 23 24  1  0
 25 26  2  0
 26 27  1  0
 27 28  1  0
 27 29  2  0
 30 31  1  0
 31 32  1  0
 33 34  1  0
 33 37  1  0
 34 35  2  0
 35 36  1  0
 36 37  2  0
M  END
