
     RDKit          3D

 36 39  0  0  0  0  0  0  0  0999 V2000
    5.8040   -2.3040    1.5500 C   0  0  0  0  0  0  0  0  0  0  0  0
    4.8530   -1.6870    2.4880 N   0  0  2  0  0  0  0  0  0  0  0  0
    4.4340   -2.8960    3.3330 C   0  0  0  0  0  0  0  0  0  0  0  0
    3.9410   -3.8870    2.4200 C   0  0  0  0  0  0  0  0  0  0  0  0
    3.5110   -4.7820    1.5990 N   0  0  0  0  0  0  0  0  0  0  0  0
    3.6190   -1.2780    1.9660 C   0  0  0  0  0  0  0  0  0  0  0  0
    3.5580   -0.4830    0.7130 C   0  0  0  0  0  0  0  0  0  0  0  0
    4.6690   -0.0110    0.1680 C   0  0  0  0  0  0  0  0  0  0  0  0
    4.5860    0.7130   -1.0340 C   0  0  0  0  0  0  0  0  0  0  0  0
    3.3720    0.9430   -1.6470 C   0  0  0  0  0  0  0  0  0  0  0  0
    3.3540    1.6490   -2.8570 O   0  0  0  0  0  0  0  0  0  0  0  0
    2.2790    0.4550   -1.0470 C   0  0  0  0  0  0  0  0  0  0  0  0
    2.2380   -0.2740    0.1290 C   0  0  0  0  0  0  0  0  0  0  0  0
    1.1070   -0.7360    0.6830 N   0  0  0  0  0  0  0  0  0  0  0  0
    0.1270   -1.3220    1.1270 C   0  0  0  0  0  0  0  0  0  0  0  0
   -1.0250   -0.8900    1.8670 N   0  0  0  0  0  0  0  0  0  0  0  0
   -2.4430   -0.7740    1.4560 C   0  0  0  0  0  0  0  0  0  0  0  0
   -3.3970   -1.5090    2.2740 C   0  0  0  0  0  0  0  0  0  0  0  0
   -4.6910   -1.6160    1.8380 C   0  0  0  0  0  0  0  0  0  0  0  0
   -5.6140   -2.2940    2.5780 F   0  0  0  0  0  0  0  0  0  0  0  0
   -5.1340   -1.0510    0.6530 C   0  0  0  0  0  0  0  0  0  0  0  0
   -6.4910   -1.3510    0.1350 C   0  0  0  0  0  0  0  0  0  0  0  0
   -6.4080   -2.6540   -0.6720 C   0  0  1  0  0  0  0  0  0  0  0  0
   -5.9670   -3.7270    0.0030 F   0  0  0  0  0  0  0  0  0  0  0  0
   -7.7120   -2.9230   -1.1260 F   0  0  0  0  0  0  0  0  0  0  0  0
   -4.1980   -0.3330   -0.1050 C   0  0  0  0  0  0  0  0  0  0  0  0
   -2.9050   -0.2490    0.3760 C   0  0  0  0  0  0  0  0  0  0  0  0
   -2.0240    0.5820   -0.4680 O   0  0  0  0  0  0  0  0  0  0  0  0
   -1.3910    1.6830    0.1740 C   0  0  0  0  0  0  0  0  0  0  0  0
   -0.1130    2.2120   -0.2220 C   0  0  0  0  0  0  0  0  0  0  0  0
    0.3970    2.0290   -1.5470 N   0  0  2  0  0  0  0  0  0  0  0  0
   -0.6910    2.2380   -2.4970 C   0  0  0  0  0  0  0  0  0  0  0  0
   -1.3190    3.6020   -2.3240 C   0  0  2  0  0  0  0  0  0  0  0  0
   -2.5730    3.9110   -3.1520 C   0  0  0  0  0  0  0  0  0  0  0  0
   -1.2980    4.4760   -3.6230 C   0  0  0  0  0  0  0  0  0  0  0  0
    0.9520    0.7090   -1.7320 C   0  0  0  0  0  0  0  0  0  0  0  0
  2  1  1  6
  2  3  1  0
  2  6  1  0
  3  4  1  0
  4  5  3  0
  6  7  1  0
  7  8  2  0
  7 13  1  0
  8  9  1  0
  9 10  2  0
 10 11  1  0
 10 12  1  0
 12 13  2  0
 12 36  1  0
 13 14  1  0
 14 15  2  0
 15 16  1  0
 16 17  1  0
 17 18  2  0
 17 27  1  0
 18 19  1  0
 19 20  1  0
 19 21  2  0
 21 22  1  0
 21 26  1  0
 22 23  1  0
 23 24  1  1
 23 25  1  0
 26 27  2  0
 27 28  1  0
 28 29  1  0
 29 30  1  0
 30 31  1  0
 31 32  1  6
 31 36  1  0
 33 32  1  6
 33 34  1  0
 33 35  1  0
 34 35  1  0
M  CHG  2   2   1  31   1
M  END
