
     RDKit          3D

 36 39  0  0  0  0  0  0  0  0999 V2000
   -5.8400   -1.9290   -2.0950 C   0  0  0  0  0  0  0  0  0  0  0  0
   -5.3800   -1.8880   -0.7130 C   0  0  0  0  0  0  0  0  0  0  0  0
   -4.6450   -0.6830   -0.2950 N   0  0  1  0  0  0  0  0  0  0  0  0
   -3.6550   -0.3250   -1.2350 C   0  0  0  0  0  0  0  0  0  0  0  0
   -2.3550    0.1560   -0.7660 C   0  0  0  0  0  0  0  0  0  0  0  0
   -1.5720    0.4040   -1.8250 O   0  0  0  0  0  0  0  0  0  0  0  0
   -1.8260    0.3840    0.4860 N   0  0  0  0  0  0  0  0  0  0  0  0
   -2.2330    0.3180    1.8320 C   0  0  0  0  0  0  0  0  0  0  0  0
   -1.2410   -0.7690    2.3110 C   0  0  0  0  0  0  0  0  0  0  0  0
    0.0540   -0.1080    1.8090 C   0  0  1  0  0  0  0  0  0  0  0  0
    0.9630   -1.0660    1.2860 N   0  0  0  0  0  0  0  0  0  0  0  0
    2.2560   -0.6760    0.8020 C   0  0  0  0  0  0  0  0  0  0  0  0
    2.6380    0.6360    0.8360 C   0  0  0  0  0  0  0  0  0  0  0  0
    3.8730    1.0600    0.3750 C   0  0  0  0  0  0  0  0  0  0  0  0
    4.7310    0.1160   -0.1320 C   0  0  0  0  0  0  0  0  0  0  0  0
    4.3250   -1.2160   -0.1530 C   0  0  0  0  0  0  0  0  0  0  0  0
    3.1020   -1.5970    0.3070 N   0  0  0  0  0  0  0  0  0  0  0  0
    5.1210   -2.2100   -0.4940 C   0  0  0  0  0  0  0  0  0  0  0  0
    4.5820   -3.6000   -0.4930 C   0  0  0  0  0  0  0  0  0  0  0  0
    6.5320   -1.9370   -0.7880 C   0  0  2  0  0  0  0  0  0  0  0  0
    7.2920   -2.1710    0.5240 C   0  0  0  0  0  0  0  0  0  0  0  0
    6.7490   -0.5870   -1.1540 N   0  0  0  0  0  0  0  0  0  0  0  0
    5.8990    0.4840   -0.6260 C   0  0  0  0  0  0  0  0  0  0  0  0
    6.4190    1.8090   -0.7020 C   0  0  0  0  0  0  0  0  0  0  0  0
    6.0820    2.9990   -0.4060 C   0  0  0  0  0  0  0  0  0  0  0  0
    7.0690    4.1570   -0.7130 C   0  0  1  0  0  0  0  0  0  0  0  0
    7.6020    4.6180    0.4470 F   0  0  0  0  0  0  0  0  0  0  0  0
    8.0410    3.6420   -1.5170 F   0  0  0  0  0  0  0  0  0  0  0  0
    6.3740    5.1150   -1.3850 F   0  0  0  0  0  0  0  0  0  0  0  0
   -0.4070    0.8170    0.6710 C   0  0  0  0  0  0  0  0  0  0  0  0
   -5.5310    0.3390    0.1610 C   0  0  1  0  0  0  0  0  0  0  0  0
   -4.9110    1.6960    0.2200 C   0  0  0  0  0  0  0  0  0  0  0  0
   -5.9560    2.7820   -0.0290 C   0  0  0  0  0  0  0  0  0  0  0  0
   -7.0720    2.4450    0.7300 O   0  0  0  0  0  0  0  0  0  0  0  0
   -7.7420    1.3410    0.2240 C   0  0  0  0  0  0  0  0  0  0  0  0
   -6.8220    0.4660   -0.6240 C   0  0  0  0  0  0  0  0  0  0  0  0
  1  2  1  0
  3  2  1  6
  3  4  1  0
  3 31  1  0
  4  5  1  0
  5  6  2  0
  5  7  1  0
  7  8  1  0
  7 30  1  0
  8  9  1  0
  9 10  1  0
 10 11  1  6
 10 30  1  0
 11 12  1  0
 12 13  1  0
 12 17  2  0
 13 14  2  0
 14 15  1  0
 15 16  1  0
 15 23  2  0
 16 17  1  0
 16 18  2  0
 18 19  1  0
 18 20  1  0
 20 21  1  1
 20 22  1  0
 22 23  1  0
 23 24  1  0
 24 25  2  3
 25 26  1  0
 26 27  1  1
 26 28  1  0
 26 29  1  0
 31 32  1  6
 31 36  1  0
 32 33  1  0
 33 34  1  0
 34 35  1  0
 35 36  1  0
M  CHG  2   3   1  17   1
M  END
