
     RDKit          3D

 36 39  0  0  0  0  0  0  0  0999 V2000
   -5.2670    4.0540    0.5490 C   0  0  0  0  0  0  0  0  0  0  0  0
   -4.1280    3.2570    0.3090 O   0  0  0  0  0  0  0  0  0  0  0  0
   -2.8580    3.7570    0.0960 C   0  0  0  0  0  0  0  0  0  0  0  0
   -2.6830    4.9890    0.1120 O   0  0  0  0  0  0  0  0  0  0  0  0
   -1.6950    2.8900   -0.1520 C   0  0  0  0  0  0  0  0  0  0  0  0
   -0.3880    3.5160   -0.3800 C   0  0  0  0  0  0  0  0  0  0  0  0
   -1.8530    1.5590   -0.1740 C   0  0  0  0  0  0  0  0  0  0  0  0
   -0.7490    0.6570   -0.4110 C   0  0  0  0  0  0  0  0  0  0  0  0
   -0.8290   -0.6510   -0.4540 C   0  0  0  0  0  0  0  0  0  0  0  0
   -2.0360   -1.4080   -0.2430 C   0  0  0  0  0  0  0  0  0  0  0  0
   -3.3070   -0.9360    0.0640 N   0  0  0  0  0  0  0  0  0  0  0  0
   -4.1790   -2.1680    0.2120 C   0  0  2  0  0  0  0  0  0  0  0  0
   -5.4350   -1.9090    1.0190 C   0  0  0  0  0  0  0  0  0  0  0  0
   -4.3250   -2.7620    1.5440 C   0  0  0  0  0  0  0  0  0  0  0  0
    0.3900   -1.3230   -0.9940 C   0  0  2  0  0  0  0  0  0  0  0  0
    0.4430   -2.7570   -1.2500 C   0  0  0  0  0  0  0  0  0  0  0  0
    0.2970   -3.7560   -0.2810 N   0  0  0  0  0  0  0  0  0  0  0  0
    1.2320   -3.9790    0.7030 C   0  0  0  0  0  0  0  0  0  0  0  0
    0.7890   -4.9580    1.5420 C   0  0  0  0  0  0  0  0  0  0  0  0
   -0.4080   -5.3410    1.0860 N   0  0  0  0  0  0  0  0  0  0  0  0
   -0.6910   -4.6010   -0.0240 C   0  0  0  0  0  0  0  0  0  0  0  0
   -1.9560   -4.8790   -0.8030 C   0  0  0  0  0  0  0  0  0  0  0  0
    1.6280   -0.8350   -0.3170 C   0  0  0  0  0  0  0  0  0  0  0  0
    1.6580    0.6260   -0.3200 C   0  0  0  0  0  0  0  0  0  0  0  0
    2.8980    1.3210   -0.2840 N   0  0  0  0  0  0  0  0  0  0  0  0
    3.5470    1.8080    0.9200 C   0  0  0  0  0  0  0  0  0  0  0  0
    4.7160    2.6160    0.3930 C   0  0  0  0  0  0  0  0  0  0  0  0
    5.2300    3.6290    1.0150 C   0  0  0  0  0  0  0  0  0  0  0  0
    6.3650    4.3990    0.4760 C   0  0  0  0  0  0  0  0  0  0  0  0
    4.7130    4.0090    2.2200 F   0  0  0  0  0  0  0  0  0  0  0  0
    5.0470    1.9940   -0.8680 C   0  0  0  0  0  0  0  0  0  0  0  0
    6.2210    1.7550   -1.3560 C   0  0  0  0  0  0  0  0  0  0  0  0
    6.2790    1.1530   -2.5830 F   0  0  0  0  0  0  0  0  0  0  0  0
    7.3880    2.0160   -0.7670 F   0  0  0  0  0  0  0  0  0  0  0  0
    3.6960    1.6420   -1.4720 C   0  0  0  0  0  0  0  0  0  0  0  0
    0.5840    1.2870   -0.3540 N   0  0  0  0  0  0  0  0  0  0  0  0
  1  2  1  0
  2  3  1  0
  3  4  2  0
  3  5  1  0
  5  6  1  0
  5  7  2  3
  7  8  1  0
  8  9  2  0
  8 36  1  0
  9 10  1  0
  9 15  1  0
 10 11  1  0
 12 11  1  1
 12 13  1  0
 12 14  1  0
 13 14  1  0
 15 16  1  1
 15 23  1  0
 16 17  1  0
 17 18  1  0
 17 21  1  0
 18 19  2  0
 19 20  1  0
 20 21  2  0
 21 22  1  0
 23 24  1  0
 24 25  1  0
 24 36  2  0
 25 26  1  0
 25 35  1  0
 26 27  1  0
 27 28  2  3
 27 31  1  0
 28 29  1  0
 28 30  1  0
 31 32  2  3
 31 35  1  0
 32 33  1  0
 32 34  1  0
M  CHG  2  11   1  20   1
M  END
