
     RDKit          3D

 35 38  0  0  0  0  0  0  0  0999 V2000
   -8.1150   -1.9430    0.6210 C   0  0  0  0  0  0  0  0  0  0  0  0
   -6.8440   -1.2090    0.9660 C   0  0  2  0  0  0  0  0  0  0  0  0
   -7.1410    0.2750    0.9280 C   0  0  0  0  0  0  0  0  0  0  0  0
   -5.8750    1.0930    0.8160 C   0  0  0  0  0  0  0  0  0  0  0  0
   -5.7340    1.5260   -0.6320 C   0  0  0  0  0  0  0  0  0  0  0  0
   -5.4120    0.3460   -1.4060 N   0  0  0  0  0  0  0  0  0  0  0  0
   -4.2840    0.3890   -2.2990 C   0  0  0  0  0  0  0  0  0  0  0  0
   -4.0510   -0.6390   -2.9430 O   0  0  0  0  0  0  0  0  0  0  0  0
   -3.5110    1.6160   -2.3820 C   0  0  0  0  0  0  0  0  0  0  0  0
   -2.3930    1.5710   -3.3810 C   0  0  0  0  0  0  0  0  0  0  0  0
   -1.4120    0.5510   -3.0540 C   0  0  0  0  0  0  0  0  0  0  0  0
   -1.2900   -0.6890   -3.5090 N   0  0  0  0  0  0  0  0  0  0  0  0
   -0.2370   -1.2470   -2.8860 C   0  0  0  0  0  0  0  0  0  0  0  0
    0.3170   -0.3400   -2.0200 C   0  0  0  0  0  0  0  0  0  0  0  0
    1.4760   -0.5280   -1.1500 C   0  0  0  0  0  0  0  0  0  0  0  0
    1.6330    0.4870   -0.1240 N   0  0  2  0  0  0  0  0  0  0  0  0
    2.5170    1.5160   -0.5700 C   0  0  0  0  0  0  0  0  0  0  0  0
    3.7250    1.7230    0.3050 C   0  0  0  0  0  0  0  0  0  0  0  0
    4.3290    0.3580    0.5350 C   0  0  1  0  0  0  0  0  0  0  0  0
    5.6450    0.5140    1.2150 C   0  0  0  0  0  0  0  0  0  0  0  0
    6.0550    1.6590    1.4810 O   0  0  0  0  0  0  0  0  0  0  0  0
    6.4500   -0.5930    1.5710 N   0  0  0  0  0  0  0  0  0  0  0  0
    7.6940   -0.5980    2.2060 C   0  0  0  0  0  0  0  0  0  0  0  0
    8.2870   -1.8460    2.4350 C   0  0  0  0  0  0  0  0  0  0  0  0
    9.5110   -1.9840    3.0510 C   0  0  0  0  0  0  0  0  0  0  0  0
   10.2040   -0.8770    3.4710 C   0  0  0  0  0  0  0  0  0  0  0  0
   11.4140   -1.0060    4.0830 F   0  0  0  0  0  0  0  0  0  0  0  0
    9.6300    0.3450    3.2500 C   0  0  0  0  0  0  0  0  0  0  0  0
   10.2980    1.4590    3.6570 F   0  0  0  0  0  0  0  0  0  0  0  0
    8.3850    0.5010    2.6230 C   0  0  0  0  0  0  0  0  0  0  0  0
    3.3420   -0.3510    1.4590 C   0  0  0  0  0  0  0  0  0  0  0  0
    1.9300   -0.0760    1.1590 C   0  0  0  0  0  0  0  0  0  0  0  0
   -0.4220    0.7640   -2.1380 N   0  0  0  0  0  0  0  0  0  0  0  0
   -6.1570   -0.9110   -1.3570 C   0  0  0  0  0  0  0  0  0  0  0  0
   -5.7930   -1.5890   -0.0540 C   0  0  0  0  0  0  0  0  0  0  0  0
  2  1  1  6
  2  3  1  0
  2 35  1  0
  3  4  1  0
  4  5  1  0
  5  6  1  0
  6  7  1  0
  6 34  1  0
  7  8  2  0
  7  9  1  0
  9 10  1  0
 10 11  1  0
 11 12  1  0
 11 33  2  0
 12 13  1  0
 13 14  2  0
 14 15  1  0
 14 33  1  0
 16 15  1  6
 16 17  1  0
 16 32  1  0
 17 18  1  0
 18 19  1  0
 19 20  1  1
 19 31  1  0
 20 21  2  0
 20 22  1  0
 22 23  1  0
 23 24  2  0
 23 30  1  0
 24 25  1  0
 25 26  2  0
 26 27  1  0
 26 28  1  0
 28 29  1  0
 28 30  2  0
 31 32  1  0
 34 35  1  0
M  CHG  2  16   1  33   1
M  END
