
     RDKit          3D

 36 39  0  0  0  0  0  0  0  0999 V2000
    3.4870   -4.6850    0.8430 C   0  0  0  0  0  0  0  0  0  0  0  0
    3.2240   -3.2420    0.5920 C   0  0  0  0  0  0  0  0  0  0  0  0
    4.1700   -2.4440    0.0580 C   0  0  0  0  0  0  0  0  0  0  0  0
    5.4330   -2.9710   -0.2780 N   0  0  0  0  0  0  0  0  0  0  0  0
    6.4120   -2.2510   -0.6700 C   0  0  0  0  0  0  0  0  0  0  0  0
    6.1600   -0.8220   -0.7670 C   0  0  0  0  0  0  0  0  0  0  0  0
    5.0060   -0.2420   -0.4920 C   0  0  0  0  0  0  0  0  0  0  0  0
    5.0260    1.2400   -0.6640 C   0  0  1  0  0  0  0  0  0  0  0  0
    4.4320    1.7060   -1.7770 F   0  0  0  0  0  0  0  0  0  0  0  0
    4.3430    1.8190    0.4240 F   0  0  0  0  0  0  0  0  0  0  0  0
    6.3000    1.7610   -0.5970 F   0  0  0  0  0  0  0  0  0  0  0  0
    3.8600   -1.0320   -0.1390 C   0  0  1  0  0  0  0  0  0  0  0  0
    2.6730   -0.8320   -0.9710 N   0  0  0  0  0  0  0  0  0  0  0  0
    1.5140   -0.5020   -0.2160 C   0  0  0  0  0  0  0  0  0  0  0  0
    0.8080    0.6910   -0.6600 C   0  0  0  0  0  0  0  0  0  0  0  0
    1.1070    1.4820   -1.7180 C   0  0  0  0  0  0  0  0  0  0  0  0
    0.3570    2.6070   -2.0600 C   0  0  0  0  0  0  0  0  0  0  0  0
   -0.7340    2.9660   -1.3280 C   0  0  0  0  0  0  0  0  0  0  0  0
   -1.5080    4.0980   -1.6260 N   0  0  0  0  0  0  0  0  0  0  0  0
   -2.6920    4.3990   -0.8500 C   0  0  0  0  0  0  0  0  0  0  0  0
   -3.5180    5.4940   -1.4430 C   0  0  0  0  0  0  0  0  0  0  0  0
   -2.8230    6.5800   -1.8880 O   0  0  0  0  0  0  0  0  0  0  0  0
   -1.4890    6.4050   -2.1320 C   0  0  0  0  0  0  0  0  0  0  0  0
   -1.1780    5.0100   -2.6880 C   0  0  0  0  0  0  0  0  0  0  0  0
   -1.0690    2.1880   -0.2470 C   0  0  0  0  0  0  0  0  0  0  0  0
   -0.3280    1.0830    0.0840 C   0  0  0  0  0  0  0  0  0  0  0  0
   -0.7190    0.2890    1.2370 C   0  0  0  0  0  0  0  0  0  0  0  0
   -0.2450    0.5700    2.3540 O   0  0  0  0  0  0  0  0  0  0  0  0
   -1.6200   -0.7810    1.0860 N   0  0  0  0  0  0  0  0  0  0  0  0
   -2.2130   -1.1550   -0.1820 C   0  0  0  0  0  0  0  0  0  0  0  0
   -2.5590   -2.6150   -0.1330 C   0  0  0  0  0  0  0  0  0  0  0  0
   -3.5920   -2.9430    0.9190 C   0  0  0  0  0  0  0  0  0  0  0  0
   -3.3990   -2.1050    2.1720 C   0  0  1  0  0  0  0  0  0  0  0  0
   -3.5800   -2.9260    3.3660 N   0  0  0  0  0  0  0  0  0  0  0  0
   -4.6280   -3.9310    3.1600 C   0  0  0  0  0  0  0  0  0  0  0  0
   -1.9860   -1.5660    2.2400 C   0  0  0  0  0  0  0  0  0  0  0  0
  1  2  1  0
  2  3  2  3
  3  4  1  0
  3 12  1  0
  4  5  2  0
  5  6  1  0
  6  7  2  0
  7  8  1  0
  7 12  1  0
  8  9  1  6
  8 10  1  0
  8 11  1  0
 12 13  1  6
 13 14  1  0
 14 15  1  0
 15 16  2  0
 15 26  1  0
 16 17  1  0
 17 18  2  0
 18 19  1  0
 18 25  1  0
 19 20  1  0
 19 24  1  0
 20 21  1  0
 21 22  1  0
 22 23  1  0
 23 24  1  0
 25 26  2  0
 26 27  1  0
 27 28  2  0
 27 29  1  0
 29 30  1  0
 29 36  1  0
 30 31  1  0
 31 32  1  0
 32 33  1  0
 33 34  1  1
 33 36  1  0
 34 35  1  0
M  CHG  2  13   1  34   1
M  END
