
     RDKit          3D

 36 39  0  0  0  0  0  0  0  0999 V2000
   -6.7210   -3.0330   -0.6850 C   0  0  0  0  0  0  0  0  0  0  0  0
   -7.0890   -1.6080   -0.9290 C   0  0  0  0  0  0  0  0  0  0  0  0
   -8.3440   -1.1450   -0.9180 N   0  0  0  0  0  0  0  0  0  0  0  0
   -8.3700    0.1420   -1.0930 N   0  0  0  0  0  0  0  0  0  0  0  0
   -7.1170    0.5610   -1.2260 C   0  0  0  0  0  0  0  0  0  0  0  0
   -6.2240   -0.5560   -1.1250 C   0  0  0  0  0  0  0  0  0  0  0  0
   -4.8390   -0.4950   -1.4920 C   0  0  0  0  0  0  0  0  0  0  0  0
   -3.8310   -0.0260   -0.6050 N   0  0  0  0  0  0  0  0  0  0  0  0
   -2.9910   -1.0580    0.0560 C   0  0  0  0  0  0  0  0  0  0  0  0
   -3.2320   -2.2840    0.0370 O   0  0  0  0  0  0  0  0  0  0  0  0
   -1.8850   -0.3930    0.7030 C   0  0  0  0  0  0  0  0  0  0  0  0
   -0.7310   -1.0540    1.3880 C   0  0  0  0  0  0  0  0  0  0  0  0
   -0.6660   -2.2840    1.3940 O   0  0  0  0  0  0  0  0  0  0  0  0
    0.3040   -0.2220    2.0300 C   0  0  0  0  0  0  0  0  0  0  0  0
    1.6000   -0.8870    1.9010 N   0  0  0  0  0  0  0  0  0  0  0  0
    1.8230   -0.9980    0.4690 C   0  0  0  0  0  0  0  0  0  0  0  0
    3.2200   -0.5500    0.0970 C   0  0  0  0  0  0  0  0  0  0  0  0
    3.4460    0.2200   -0.9930 C   0  0  0  0  0  0  0  0  0  0  0  0
    4.7480    0.6660   -1.3620 C   0  0  0  0  0  0  0  0  0  0  0  0
    4.8450    1.5010   -2.3470 C   0  0  0  0  0  0  0  0  0  0  0  0
    5.9210    2.1850   -3.0120 C   0  0  1  0  0  0  0  0  0  0  0  0
    6.5750    1.5590   -4.0300 F   0  0  0  0  0  0  0  0  0  0  0  0
    5.3440    3.3560   -3.7020 F   0  0  0  0  0  0  0  0  0  0  0  0
    6.8310    2.8580   -2.1860 F   0  0  0  0  0  0  0  0  0  0  0  0
    5.7780    0.2660   -0.5600 C   0  0  0  0  0  0  0  0  0  0  0  0
    5.5470   -0.5200    0.5730 C   0  0  0  0  0  0  0  0  0  0  0  0
    4.2630   -0.9030    0.8580 N   0  0  0  0  0  0  0  0  0  0  0  0
    6.6240   -0.8450    1.5010 C   0  0  0  0  0  0  0  0  0  0  0  0
    7.9140   -1.0920    0.8300 C   0  0  0  0  0  0  0  0  0  0  0  0
    8.2490   -0.0040   -0.1710 C   0  0  0  0  0  0  0  0  0  0  0  0
    7.0280    0.3770   -0.9390 C   0  0  0  0  0  0  0  0  0  0  0  0
   -2.0090    0.8860    0.5550 C   0  0  0  0  0  0  0  0  0  0  0  0
   -3.3300    1.1990   -0.1920 C   0  0  2  0  0  0  0  0  0  0  0  0
   -4.0490    1.8140    1.0400 C   0  0  1  0  0  0  0  0  0  0  0  0
   -5.4500    2.1150    1.0260 C   0  0  0  0  0  0  0  0  0  0  0  0
   -3.7190    0.9290    2.2510 C   0  0  0  0  0  0  0  0  0  0  0  0
  1  2  1  0
  2  3  2  0
  2  6  1  0
  3  4  1  0
  4  5  1  0
  5  6  2  0
  6  7  1  0
  7  8  1  0
  8  9  1  0
 33  8  1  1
  9 10  2  0
  9 11  1  0
 11 12  1  0
 11 32  2  0
 12 13  2  0
 12 14  1  0
 14 15  1  0
 15 16  1  0
 16 17  1  0
 17 18  2  0
 17 27  1  0
 18 19  1  0
 19 20  2  3
 19 25  1  0
 20 21  1  0
 21 22  1  6
 21 23  1  0
 21 24  1  0
 25 26  1  0
 25 31  2  0
 26 27  2  0
 26 28  1  0
 28 29  1  0
 29 30  1  0
 30 31  1  0
 32 33  1  0
 33 34  1  0
 34 35  1  6
 34 36  1  0
M  CHG  2  15   1  27   1
M  END
