
     RDKit          3D

 36 39  0  0  0  0  0  0  0  0999 V2000
   -3.0470   -4.4290    1.7980 C   0  0  0  0  0  0  0  0  0  0  0  0
   -3.5660   -3.2230    1.1310 C   0  0  0  0  0  0  0  0  0  0  0  0
   -2.6980   -2.1300    1.0110 C   0  0  0  0  0  0  0  0  0  0  0  0
   -3.1180   -0.9750    0.3920 C   0  0  0  0  0  0  0  0  0  0  0  0
   -2.2060    0.2380    0.2490 C   0  0  2  0  0  0  0  0  0  0  0  0
   -2.8130    1.1530   -0.7400 C   0  0  0  0  0  0  0  0  0  0  0  0
   -2.5010    1.1930   -1.9530 O   0  0  0  0  0  0  0  0  0  0  0  0
   -3.8260    2.0690   -0.3130 N   0  0  0  0  0  0  0  0  0  0  0  0
   -4.5430    2.9540   -1.2030 C   0  0  0  0  0  0  0  0  0  0  0  0
   -4.9600    4.1040   -0.3290 C   0  0  0  0  0  0  0  0  0  0  0  0
   -5.2450    3.4400    0.9930 C   0  0  0  0  0  0  0  0  0  0  0  0
   -4.2650    2.2970    1.0550 C   0  0  0  0  0  0  0  0  0  0  0  0
   -0.8870   -0.2680   -0.1200 N   0  0  1  0  0  0  0  0  0  0  0  0
   -0.2090    0.5170   -1.1150 C   0  0  0  0  0  0  0  0  0  0  0  0
    1.2750    0.1100   -1.1110 C   0  0  0  0  0  0  0  0  0  0  0  0
    1.8970    0.6680    0.0600 N   0  0  0  0  0  0  0  0  0  0  0  0
    3.0540   -0.0530    0.4820 C   0  0  0  0  0  0  0  0  0  0  0  0
    4.2230    0.1950   -0.3720 C   0  0  0  0  0  0  0  0  0  0  0  0
    4.1780    1.1160   -1.3150 C   0  0  0  0  0  0  0  0  0  0  0  0
    5.2500    1.5150   -2.2840 C   0  0  2  0  0  0  0  0  0  0  0  0
    4.8180    2.5710   -3.0540 F   0  0  0  0  0  0  0  0  0  0  0  0
    5.5190    0.4150   -3.0800 F   0  0  0  0  0  0  0  0  0  0  0  0
    6.4490    1.9090   -1.4390 C   0  0  0  0  0  0  0  0  0  0  0  0
    7.1640    0.7130   -1.0390 N   0  0  0  0  0  0  0  0  0  0  0  0
    6.6210   -0.4310   -0.3880 C   0  0  0  0  0  0  0  0  0  0  0  0
    7.5940   -1.4880    0.0050 C   0  0  0  0  0  0  0  0  0  0  0  0
    8.5590   -0.8980    1.0130 C   0  0  0  0  0  0  0  0  0  0  0  0
    9.4480   -1.8990    1.3580 F   0  0  0  0  0  0  0  0  0  0  0  0
    5.3840   -0.6450   -0.1090 N   0  0  0  0  0  0  0  0  0  0  0  0
    0.9320    0.8360    1.1370 C   0  0  0  0  0  0  0  0  0  0  0  0
   -0.0530   -0.3270    1.0850 C   0  0  0  0  0  0  0  0  0  0  0  0
   -4.3960   -0.9410   -0.0930 C   0  0  0  0  0  0  0  0  0  0  0  0
   -5.2760   -1.9950    0.0070 C   0  0  0  0  0  0  0  0  0  0  0  0
   -6.6530   -1.8870   -0.5360 C   0  0  0  0  0  0  0  0  0  0  0  0
   -4.8560   -3.1710    0.6360 C   0  0  0  0  0  0  0  0  0  0  0  0
   -5.7340   -4.2410    0.7430 O   0  0  0  0  0  0  0  0  0  0  0  0
  1  2  1  0
  2  3  2  0
  2 35  1  0
  3  4  1  0
  4  5  1  0
  4 32  2  0
  5  6  1  6
  5 13  1  0
  6  7  2  0
  6  8  1  0
  8  9  1  0
  8 12  1  0
  9 10  1  0
 10 11  1  0
 11 12  1  0
 13 14  1  6
 13 31  1  0
 14 15  1  0
 15 16  1  0
 16 17  1  0
 16 30  1  0
 17 18  1  0
 18 19  2  0
 18 29  1  0
 19 20  1  0
 20 21  1  6
 20 22  1  0
 20 23  1  0
 23 24  1  0
 24 25  1  0
 25 26  1  0
 25 29  2  0
 26 27  1  0
 27 28  1  0
 30 31  1  0
 32 33  1  0
 33 34  1  0
 33 35  2  0
 35 36  1  0
M  CHG  2  13   1  29   1
M  END
