
     RDKit          3D

 37 40  0  0  0  0  0  0  0  0999 V2000
   -5.5350    2.2320    0.5580 C   0  0  0  0  0  0  0  0  0  0  0  0
   -4.7320    1.4480   -0.4560 C   0  0  1  0  0  0  0  0  0  0  0  0
   -4.1510    2.4230   -1.4530 C   0  0  0  0  0  0  0  0  0  0  0  0
   -3.6110    0.6600    0.2400 C   0  0  1  0  0  0  0  0  0  0  0  0
   -4.2410   -0.2780    1.2170 C   0  0  0  0  0  0  0  0  0  0  0  0
   -4.4600   -1.6440    0.6670 C   0  0  0  0  0  0  0  0  0  0  0  0
   -5.7850   -2.0190    0.6630 C   0  0  0  0  0  0  0  0  0  0  0  0
   -6.1160   -3.2620    0.1810 C   0  0  0  0  0  0  0  0  0  0  0  0
   -7.4110   -3.6990    0.1470 F   0  0  0  0  0  0  0  0  0  0  0  0
   -5.1270   -4.1070   -0.2880 C   0  0  0  0  0  0  0  0  0  0  0  0
   -3.8050   -3.7360   -0.2850 C   0  0  0  0  0  0  0  0  0  0  0  0
   -3.4630   -2.4970    0.1950 C   0  0  0  0  0  0  0  0  0  0  0  0
   -1.7350   -2.1750    0.1270 S   0  0  2  0  0  0  0  0  0  0  0  0
   -1.0370   -3.1470   -0.7610 O   0  0  0  0  0  0  0  0  0  0  0  0
   -1.2110   -2.1980    1.5340 O   0  0  0  0  0  0  0  0  0  0  0  0
   -1.5700   -0.5600   -0.4530 N   0  0  0  0  0  0  0  0  0  0  0  0
   -0.6920    0.2510    0.3250 C   0  0  0  0  0  0  0  0  0  0  0  0
    0.7090    0.0800   -0.2660 C   0  0  1  0  0  0  0  0  0  0  0  0
    0.7880    0.4640   -1.5860 O   0  0  0  0  0  0  0  0  0  0  0  0
    1.7720    0.6610    0.6190 C   0  0  2  0  0  0  0  0  0  0  0  0
    1.7480    2.1620    0.7160 C   0  0  0  0  0  0  0  0  0  0  0  0
    1.9390    2.8570   -0.5740 C   0  0  0  0  0  0  0  0  0  0  0  0
    0.8470    3.1940   -1.3280 C   0  0  0  0  0  0  0  0  0  0  0  0
    1.0730    3.8490   -2.5440 C   0  0  0  0  0  0  0  0  0  0  0  0
    2.3530    4.1390   -2.9540 C   0  0  0  0  0  0  0  0  0  0  0  0
    3.4570    3.8020   -2.1990 C   0  0  0  0  0  0  0  0  0  0  0  0
    3.2130    3.1570   -1.0050 C   0  0  0  0  0  0  0  0  0  0  0  0
    3.0670    0.2010    0.0900 N   0  0  0  0  0  0  0  0  0  0  0  0
    3.9360   -0.6280    0.8470 C   0  0  0  0  0  0  0  0  0  0  0  0
    3.5380   -0.9560    2.0110 O   0  0  0  0  0  0  0  0  0  0  0  0
    5.1630   -1.0730    0.3650 O   0  0  0  0  0  0  0  0  0  0  0  0
    5.9400   -1.8840    1.1900 C   0  0  1  0  0  0  0  0  0  0  0  0
    6.2630   -3.2350    0.5360 C   0  0  0  0  0  0  0  0  0  0  0  0
    7.5210   -3.5890    1.3390 C   0  0  0  0  0  0  0  0  0  0  0  0
    8.1810   -2.4170    1.5700 O   0  0  0  0  0  0  0  0  0  0  0  0
    7.3340   -1.3580    1.4060 C   0  0  0  0  0  0  0  0  0  0  0  0
   -2.8060    0.0240   -0.8390 C   0  0  0  0  0  0  0  0  0  0  0  0
  2  1  1  1
  2  3  1  0
  2  4  1  0
  4  5  1  1
  4 37  1  0
  5  6  1  0
  6  7  2  0
  6 12  1  0
  7  8  1  0
  8  9  1  0
  8 10  2  0
 10 11  1  0
 11 12  2  0
 12 13  1  0
 13 14  2  0
 13 15  2  0
 13 16  1  6
 16 17  1  0
 16 37  1  0
 17 18  1  0
 18 19  1  6
 18 20  1  0
 20 21  1  6
 20 28  1  0
 21 22  1  0
 22 23  2  0
 22 27  1  0
 23 24  1  0
 24 25  2  0
 25 26  1  0
 26 27  2  0
 28 29  1  0
 29 30  2  0
 29 31  1  0
 32 31  1  6
 32 33  1  0
 32 36  1  0
 33 34  1  0
 34 35  1  0
 35 36  1  0
M  END
