
     RDKit          3D

 27 29  0  0  0  0  0  0  0  0999 V2000
    2.2050    1.9660   -0.6970 N   0  0  0  0  0  0  0  0  0  0  0  0
    2.0890    0.7010   -1.3250 C   0  0  0  0  0  0  0  0  0  0  0  0
    0.8820    0.1180   -1.6640 C   0  0  0  0  0  0  0  0  0  0  0  0
   -0.4220    0.6630   -1.4270 N   0  0  0  0  0  0  0  0  0  0  0  0
   -1.1230    0.2660   -0.2760 C   0  0  0  0  0  0  0  0  0  0  0  0
   -0.6470   -0.5810    0.5600 O   0  0  0  0  0  0  0  0  0  0  0  0
   -2.4560    0.8680   -0.0510 C   0  0  0  0  0  0  0  0  0  0  0  0
   -3.2160    0.2400    1.0830 C   0  0  2  0  0  0  0  0  0  0  0  0
   -3.4840   -1.2370    0.8410 C   0  0  2  0  0  0  0  0  0  0  0  0
   -4.2270   -1.4490   -0.4500 C   0  0  0  0  0  0  0  0  0  0  0  0
   -5.5670   -0.7890   -0.2030 C   0  0  0  0  0  0  0  0  0  0  0  0
   -5.5160   -0.3050    1.2320 C   0  0  1  0  0  0  0  0  0  0  0  0
   -4.6440   -1.4100    1.8280 C   0  0  0  0  0  0  0  0  0  0  0  0
   -4.5860    0.8630    1.2590 C   0  0  1  0  0  0  0  0  0  0  0  0
   -4.7360    1.5760    2.5040 N   0  0  0  0  0  0  0  0  0  0  0  0
    1.2140   -1.0900   -2.2450 C   0  0  0  0  0  0  0  0  0  0  0  0
    0.3820   -1.9270   -2.6930 O   0  0  0  0  0  0  0  0  0  0  0  0
    2.5650   -1.1750   -2.2290 N   0  0  0  0  0  0  0  0  0  0  0  0
    3.0980   -0.1020   -1.6790 N   0  0  0  0  0  0  0  0  0  0  0  0
    4.5400    0.1820   -1.5090 C   0  0  0  0  0  0  0  0  0  0  0  0
    4.9950   -0.2400   -0.2600 N   0  0  0  0  0  0  0  0  0  0  0  0
    6.4300   -0.0110    0.0820 C   0  0  0  0  0  0  0  0  0  0  0  0
    7.1180    0.5340   -0.7360 O   0  0  0  0  0  0  0  0  0  0  0  0
    6.6930   -0.5200    1.3890 N   0  0  0  0  0  0  0  0  0  0  0  0
    8.3910   -0.0840    1.4280 C   0  0  0  0  0  0  0  0  0  0  0  0
    8.7860    0.4250    0.4850 O   0  0  0  0  0  0  0  0  0  0  0  0
    8.9590   -0.4340    2.5990 O   0  0  0  0  0  0  0  0  0  0  0  0
  1  2  1  0
  2  3  2  0
  2 19  1  0
  3  4  1  0
  3 16  1  0
  4  5  1  0
  5  6  2  0
  5  7  1  0
  8  7  1  6
  8  9  1  0
  8 14  1  0
  9 10  1  6
  9 13  1  0
 10 11  1  0
 12 11  1  6
 12 13  1  0
 12 14  1  0
 14 15  1  1
 16 17  2  0
 16 18  1  0
 18 19  1  0
 19 20  1  0
 20 21  1  0
 21 22  1  0
 22 23  2  0
 22 24  1  0
 24 25  1  0
 25 26  2  0
 25 27  1  0
M  CHG  1  15   1
M  END
