
     RDKit          3D

 22 25  0  0  0  0  0  0  0  0999 V2000
   -1.8760    3.4910    0.7510 O   0  0  0  0  0  0  0  0  0  0  0  0
   -1.3660    2.3830    0.4840 C   0  0  0  0  0  0  0  0  0  0  0  0
    0.0360    2.2220    0.4260 N   0  0  0  0  0  0  0  0  0  0  0  0
    0.5540    0.9270    0.1150 C   0  0  0  0  0  0  0  0  0  0  0  0
    1.9310    0.7560    0.0550 C   0  0  0  0  0  0  0  0  0  0  0  0
    2.4890   -0.4590   -0.2370 C   0  0  0  0  0  0  0  0  0  0  0  0
    3.9550   -0.6360   -0.2920 C   0  0  0  0  0  0  0  0  0  0  0  0
    4.8540    0.2780   -0.0640 C   0  0  0  0  0  0  0  0  0  0  0  0
    6.1970   -0.3140   -0.2240 C   0  0  0  0  0  0  0  0  0  0  0  0
    5.9230   -1.6860   -0.5740 N   0  0  0  0  0  0  0  0  0  0  0  0
    4.6530   -1.8710   -0.6130 C   0  0  0  0  0  0  0  0  0  0  0  0
    1.6550   -1.5300   -0.4760 C   0  0  0  0  0  0  0  0  0  0  0  0
    0.2820   -1.4250   -0.4320 C   0  0  0  0  0  0  0  0  0  0  0  0
   -0.2570   -0.1690   -0.1290 C   0  0  0  0  0  0  0  0  0  0  0  0
   -1.6160   -0.0100   -0.0720 O   0  0  0  0  0  0  0  0  0  0  0  0
   -2.2100    1.1980    0.2200 C   0  0  0  0  0  0  0  0  0  0  0  0
   -3.5180    1.3590    0.2760 C   0  0  0  0  0  0  0  0  0  0  0  0
   -4.4760    0.2910    0.0410 C   0  0  0  0  0  0  0  0  0  0  0  0
   -5.6610    0.4260   -0.6810 C   0  0  0  0  0  0  0  0  0  0  0  0
   -6.2700   -0.7940   -0.6660 C   0  0  0  0  0  0  0  0  0  0  0  0
   -5.4500   -1.6300    0.0550 C   0  0  0  0  0  0  0  0  0  0  0  0
   -4.3850   -0.9460    0.4630 O   0  0  0  0  0  0  0  0  0  0  0  0
  1  2  2  0
  2  3  1  0
  2 16  1  0
  3  4  1  0
  4  5  2  0
  4 14  1  0
  5  6  1  0
  6  7  1  0
  6 12  2  0
  7  8  2  0
  7 11  1  0
  8  9  1  0
  9 10  1  0
 10 11  2  0
 12 13  1  0
 13 14  2  0
 14 15  1  0
 15 16  1  0
 16 17  2  3
 17 18  1  0
 18 19  2  0
 18 22  1  0
 19 20  1  0
 20 21  2  0
 21 22  1  0
M  END
