
     RDKit          3D

 27 28  0  0  0  0  0  0  0  0999 V2000
   -6.0090    0.2140   -1.7090 C   0  0  0  0  0  0  0  0  0  0  0  0
   -5.2270    0.2580   -0.4170 C   0  0  1  0  0  0  0  0  0  0  0  0
   -6.1320   -0.1320    0.7410 C   0  0  0  0  0  0  0  0  0  0  0  0
   -5.6420    0.5470    1.9310 N   0  0  0  0  0  0  0  0  0  0  0  0
   -4.2910    0.8770    2.2360 C   0  0  0  0  0  0  0  0  0  0  0  0
   -4.1330    1.6180    3.2170 O   0  0  0  0  0  0  0  0  0  0  0  0
   -3.0800    0.4130    1.4870 C   0  0  2  0  0  0  0  0  0  0  0  0
   -2.5660    1.5000    0.6540 N   0  0  0  0  0  0  0  0  0  0  0  0
   -1.4820    1.3400   -0.2590 C   0  0  0  0  0  0  0  0  0  0  0  0
   -1.1760    2.3450   -0.9540 O   0  0  0  0  0  0  0  0  0  0  0  0
   -0.6420    0.1500   -0.5230 C   0  0  0  0  0  0  0  0  0  0  0  0
    0.4530    0.3470   -1.2240 C   0  0  0  0  0  0  0  0  0  0  0  0
    1.3320   -0.6880   -1.5430 N   0  0  0  0  0  0  0  0  0  0  0  0
    2.6880   -0.5120   -1.2320 N   0  0  0  0  0  0  0  0  0  0  0  0
    3.0700   -0.2460    0.1040 C   0  0  0  0  0  0  0  0  0  0  0  0
    2.1600   -0.1780    0.9910 O   0  0  0  0  0  0  0  0  0  0  0  0
    4.4900   -0.0460    0.4830 C   0  0  2  0  0  0  0  0  0  0  0  0
    5.0700    1.2170   -0.0610 C   0  0  0  0  0  0  0  0  0  0  0  0
    5.0720    1.3340   -1.4870 N   0  0  0  0  0  0  0  0  0  0  0  0
    5.2970   -1.2690    0.1030 C   0  0  0  0  0  0  0  0  0  0  0  0
    6.7450   -1.1290    0.4600 C   0  0  0  0  0  0  0  0  0  0  0  0
    6.8910   -0.9390    1.8260 O   0  0  0  0  0  0  0  0  0  0  0  0
   -0.9790   -1.1780   -0.0440 C   0  0  0  0  0  0  0  0  0  0  0  0
   -0.0520   -2.0270   -0.0610 O   0  0  0  0  0  0  0  0  0  0  0  0
   -2.2430   -1.6700    0.4550 N   0  0  0  0  0  0  0  0  0  0  0  0
   -3.3930   -0.8290    0.7070 C   0  0  2  0  0  0  0  0  0  0  0  0
   -4.0790   -0.5860   -0.5220 N   0  0  0  0  0  0  0  0  0  0  0  0
  2  1  1  6
  2  3  1  0
  2 27  1  0
  3  4  1  0
  4  5  1  0
  5  6  2  0
  5  7  1  0
  7  8  1  6
  7 26  1  0
  8  9  1  0
  9 10  2  0
  9 11  1  0
 11 12  2  3
 11 23  1  0
 12 13  1  0
 13 14  1  0
 14 15  1  0
 15 16  2  0
 15 17  1  0
 17 18  1  6
 17 20  1  0
 18 19  1  0
 20 21  1  0
 21 22  1  0
 23 24  2  0
 23 25  1  0
 26 25  1  6
 26 27  1  0
M  CHG  1  19   1
M  END
