
     RDKit          3D

 27 28  0  0  0  0  0  0  0  0999 V2000
    4.9830    0.1890    0.9440 C   0  0  0  0  0  0  0  0  0  0  0  0
    5.6500   -0.0630   -0.3700 C   0  0  1  0  0  0  0  0  0  0  0  0
    5.3100    0.8440   -1.4240 N   0  0  0  0  0  0  0  0  0  0  0  0
    4.5770    2.0030   -1.0480 C   0  0  0  0  0  0  0  0  0  0  0  0
    3.1190    1.8640   -1.0290 C   0  0  0  0  0  0  0  0  0  0  0  0
    2.4250    2.8850   -0.6950 O   0  0  0  0  0  0  0  0  0  0  0  0
    2.4420    0.6630   -1.3610 N   0  0  0  0  0  0  0  0  0  0  0  0
    1.0370    0.6720   -1.3010 N   0  0  0  0  0  0  0  0  0  0  0  0
    0.3510   -0.2730   -0.4600 C   0  0  0  0  0  0  0  0  0  0  0  0
    1.0610   -1.0510    0.1680 O   0  0  0  0  0  0  0  0  0  0  0  0
   -1.0650   -0.2910   -0.3720 N   0  0  0  0  0  0  0  0  0  0  0  0
   -1.8530   -1.1550    0.4050 C   0  0  0  0  0  0  0  0  0  0  0  0
   -1.3470   -2.1040    1.1570 C   0  0  0  0  0  0  0  0  0  0  0  0
   -2.2650   -2.9630    1.9390 C   0  0  0  0  0  0  0  0  0  0  0  0
   -3.5750   -2.8170    1.9170 C   0  0  0  0  0  0  0  0  0  0  0  0
   -4.3770   -3.6940    2.7060 N   0  0  0  0  0  0  0  0  0  0  0  0
   -4.1220   -1.8210    1.1290 O   0  0  0  0  0  0  0  0  0  0  0  0
   -3.3130   -0.9630    0.3550 C   0  0  0  0  0  0  0  0  0  0  0  0
   -3.8710   -0.0290   -0.3790 C   0  0  0  0  0  0  0  0  0  0  0  0
   -5.3870    0.0370   -0.3200 C   0  0  1  0  0  0  0  0  0  0  0  0
   -5.8300    1.1380    0.6180 C   0  0  0  0  0  0  0  0  0  0  0  0
   -6.0440    2.2230   -0.3120 N   0  0  0  0  0  0  0  0  0  0  0  0
   -6.0750    1.7160   -1.6390 C   0  0  0  0  0  0  0  0  0  0  0  0
   -5.8820    0.3670   -1.5610 O   0  0  0  0  0  0  0  0  0  0  0  0
    7.1240   -0.1140   -0.1740 C   0  0  0  0  0  0  0  0  0  0  0  0
    7.6910   -0.9430    0.8330 N   0  0  0  0  0  0  0  0  0  0  0  0
    7.8480    0.5780   -0.9050 O   0  0  0  0  0  0  0  0  0  0  0  0
  2  1  1  1
  2  3  1  0
  2 25  1  0
  3  4  1  0
  4  5  1  0
  5  6  2  0
  5  7  1  0
  7  8  1  0
  8  9  1  0
  9 10  2  0
  9 11  1  0
 11 12  1  0
 12 13  2  0
 12 18  1  0
 13 14  1  0
 14 15  2  0
 15 16  1  0
 15 17  1  0
 17 18  1  0
 18 19  2  3
 20 19  1  6
 20 21  1  0
 20 24  1  0
 21 22  1  0
 22 23  1  0
 23 24  1  0
 25 26  1  0
 25 27  2  0
M  CHG  2   3   1  22   1
M  END
