
     RDKit          3D

 27 29  0  0  0  0  0  0  0  0999 V2000
   -5.0220   -2.8950    0.4930 N   0  0  0  0  0  0  0  0  0  0  0  0
   -4.4720   -2.4770   -0.7570 C   0  0  0  0  0  0  0  0  0  0  0  0
   -4.0980   -1.0220   -0.8280 C   0  0  1  0  0  0  0  0  0  0  0  0
   -5.3730   -0.2580   -0.4790 C   0  0  0  0  0  0  0  0  0  0  0  0
   -5.2500    1.2250   -0.6160 C   0  0  0  0  0  0  0  0  0  0  0  0
   -6.5380    1.8380   -0.1480 C   0  0  0  0  0  0  0  0  0  0  0  0
   -6.4280    3.2450   -0.2690 O   0  0  0  0  0  0  0  0  0  0  0  0
   -3.0420   -0.6870    0.1770 C   0  0  0  0  0  0  0  0  0  0  0  0
   -3.2870   -0.6230    1.4970 N   0  0  0  0  0  0  0  0  0  0  0  0
   -2.1550   -0.3280    2.0700 N   0  0  0  0  0  0  0  0  0  0  0  0
   -1.1490   -0.1970    1.0990 C   0  0  0  0  0  0  0  0  0  0  0  0
    0.1560    0.1150    1.5460 N   0  0  0  0  0  0  0  0  0  0  0  0
    1.3490    0.0930    0.7310 C   0  0  0  0  0  0  0  0  0  0  0  0
    1.2440   -0.2220   -0.4540 O   0  0  0  0  0  0  0  0  0  0  0  0
    2.5750    0.4690    1.4350 C   0  0  2  0  0  0  0  0  0  0  0  0
    2.6330    1.8990    1.7910 N   0  0  0  0  0  0  0  0  0  0  0  0
    4.0000    2.0670    2.1810 C   0  0  0  0  0  0  0  0  0  0  0  0
    4.4500    3.0010    2.8950 O   0  0  0  0  0  0  0  0  0  0  0  0
    4.7590    0.9920    1.6110 N   0  0  0  0  0  0  0  0  0  0  0  0
    3.8380    0.4460    0.5920 C   0  0  2  0  0  0  0  0  0  0  0  0
    3.6810    1.3760   -0.5610 C   0  0  0  0  0  0  0  0  0  0  0  0
    4.7670    1.4190   -1.4200 O   0  0  0  0  0  0  0  0  0  0  0  0
    5.8840    0.7910   -0.9400 C   0  0  0  0  0  0  0  0  0  0  0  0
    5.6930   -0.6230   -0.4930 C   0  0  2  0  0  0  0  0  0  0  0  0
    5.9730   -1.5350   -1.5770 N   0  0  0  0  0  0  0  0  0  0  0  0
    4.3140   -0.8730    0.1340 C   0  0  0  0  0  0  0  0  0  0  0  0
   -1.7500   -0.4220   -0.0020 O   0  0  0  0  0  0  0  0  0  0  0  0
  1  2  1  0
  3  2  1  1
  3  4  1  0
  3  8  1  0
  4  5  1  0
  5  6  1  0
  6  7  1  0
  8  9  2  0
  8 27  1  0
  9 10  1  0
 10 11  2  0
 11 12  1  0
 11 27  1  0
 12 13  1  0
 13 14  2  0
 15 13  1  6
 15 16  1  0
 15 20  1  0
 16 17  1  0
 17 18  2  0
 17 19  1  0
 19 20  1  0
 20 21  1  6
 20 26  1  0
 21 22  1  0
 22 23  1  0
 23 24  1  0
 24 25  1  6
 24 26  1  0
M  CHG  2   1   1  25   1
M  END
