
     RDKit          3D

 11 11  0  0  0  0  0  0  0  0999 V2000
    1.8710    0.0580    3.7250 O   0  0  0  0  0  0  0  0  0  0  0  0
    1.1990    0.1580    2.6270 C   0  0  0  0  0  0  0  0  0  0  0  0
    0.2150    1.0840    2.6500 O   0  0  0  0  0  0  0  0  0  0  0  0
    1.5490   -0.6860    1.5410 C   0  0  0  0  0  0  0  0  0  0  0  0
    1.1260   -0.8710    0.3350 C   0  0  0  0  0  0  0  0  0  0  0  0
    0.1100   -0.3280   -0.4960 C   0  0  0  0  0  0  0  0  0  0  0  0
   -0.0140   -0.8060   -1.7480 C   0  0  0  0  0  0  0  0  0  0  0  0
   -1.0300   -0.2930   -2.6480 C   0  0  0  0  0  0  0  0  0  0  0  0
   -1.8680    0.6570   -2.2830 C   0  0  0  0  0  0  0  0  0  0  0  0
   -1.7440    1.1450   -1.0190 O   0  0  0  0  0  0  0  0  0  0  0  0
   -0.8240    0.7200   -0.0570 C   0  0  0  0  0  0  0  0  0  0  0  0
  1  2  2  0
  2  3  1  0
  2  4  1  0
  4  5  2  3
  5  6  1  0
  6  7  2  0
  6 11  1  0
  7  8  1  0
  8  9  2  0
  9 10  1  0
 10 11  1  0
M  END
