
     RDKit          3D

 12 13  0  0  0  0  0  0  0  0999 V2000
   -3.1570    1.0690   -0.0740 C   0  0  0  0  0  0  0  0  0  0  0  0
   -1.9070    0.2760    0.0750 C   0  0  0  0  0  0  0  0  0  0  0  0
   -0.6900    0.7130   -0.1770 O   0  0  0  0  0  0  0  0  0  0  0  0
    0.1970   -0.2240    0.0520 C   0  0  0  0  0  0  0  0  0  0  0  0
    1.6410   -0.1070   -0.1160 C   0  0  0  0  0  0  0  0  0  0  0  0
    2.3050    1.0410   -0.5530 C   0  0  0  0  0  0  0  0  0  0  0  0
    3.6560    0.7660   -0.5830 C   0  0  0  0  0  0  0  0  0  0  0  0
    3.7660   -0.5420   -0.1630 C   0  0  0  0  0  0  0  0  0  0  0  0
    2.5680   -1.0080    0.0980 O   0  0  0  0  0  0  0  0  0  0  0  0
   -0.4880   -1.3410    0.4800 C   0  0  0  0  0  0  0  0  0  0  0  0
   -1.8390   -1.0480    0.5050 C   0  0  0  0  0  0  0  0  0  0  0  0
   -2.8690   -1.8990    0.8770 O   0  0  0  0  0  0  0  0  0  0  0  0
  1  2  1  0
  2  3  1  0
  2 11  2  0
  3  4  1  0
  4  5  1  0
  4 10  2  0
  5  6  2  0
  5  9  1  0
  6  7  1  0
  7  8  2  0
  8  9  1  0
 10 11  1  0
 11 12  1  0
M  END
