
     RDKit          3D

 12 13  0  0  0  0  0  0  0  0999 V2000
    2.0590    1.4150    0.4100 C   0  0  0  0  0  0  0  0  0  0  0  0
    1.2990    0.4330   -0.0490 C   0  0  0  0  0  0  0  0  0  0  0  0
    0.0530    0.6000   -0.5740 O   0  0  0  0  0  0  0  0  0  0  0  0
   -0.7620   -0.3160   -1.2170 C   0  0  1  0  0  0  0  0  0  0  0  0
   -1.0410   -1.4450   -0.2470 C   0  0  0  0  0  0  0  0  0  0  0  0
   -1.5660   -0.8100    1.0350 C   0  0  0  0  0  0  0  0  0  0  0  0
   -2.7440   -0.0980    0.7880 O   0  0  0  0  0  0  0  0  0  0  0  0
   -2.5030    0.9410   -0.0860 C   0  0  0  0  0  0  0  0  0  0  0  0
   -2.1240    0.3500   -1.4480 C   0  0  0  0  0  0  0  0  0  0  0  0
    2.1300   -0.7990    0.1580 C   0  0  0  0  0  0  0  0  0  0  0  0
    3.4460   -0.3200    0.2270 O   0  0  0  0  0  0  0  0  0  0  0  0
    3.3540    0.8870    0.9110 C   0  0  0  0  0  0  0  0  0  0  0  0
  1  2  2  0
  1 12  1  0
  2  3  1  0
  2 10  1  0
  4  3  1  1
  4  5  1  0
  4  9  1  0
  5  6  1  0
  6  7  1  0
  7  8  1  0
  8  9  1  0
 10 11  1  0
 11 12  1  0
M  END
