
     RDKit          3D

 12 12  0  0  0  0  0  0  0  0999 V2000
   -2.5960   -1.3950    0.3990 C   0  0  0  0  0  0  0  0  0  0  0  0
   -1.9070   -0.1190    0.1090 C   0  0  0  0  0  0  0  0  0  0  0  0
   -0.6150   -0.0650    0.0380 C   0  0  0  0  0  0  0  0  0  0  0  0
    0.2090   -1.2560    0.2410 C   0  0  0  0  0  0  0  0  0  0  0  0
   -0.2920   -2.3850    0.4930 O   0  0  0  0  0  0  0  0  0  0  0  0
    1.6590   -1.0650    0.1360 C   0  0  0  0  0  0  0  0  0  0  0  0
    2.4800   -2.1720    0.3220 O   0  0  0  0  0  0  0  0  0  0  0  0
    2.1910    0.1180   -0.1280 C   0  0  0  0  0  0  0  0  0  0  0  0
    3.5940    0.1800   -0.2050 O   0  0  0  0  0  0  0  0  0  0  0  0
    1.3780    1.3100   -0.3320 C   0  0  0  0  0  0  0  0  0  0  0  0
    0.0650    1.2170   -0.2530 C   0  0  0  0  0  0  0  0  0  0  0  0
   -0.7460    2.4140   -0.4580 C   0  0  0  0  0  0  0  0  0  0  0  0
  1  2  1  0
  2  3  2  3
  3  4  1  0
  3 11  1  0
  4  5  2  0
  4  6  1  0
  6  7  1  0
  6  8  2  0
  8  9  1  0
  8 10  1  0
 10 11  2  0
 11 12  1  0
M  END
