
     RDKit          3D

 12 13  0  0  0  0  0  0  0  0999 V2000
   -0.5050   -2.0090   -1.1470 O   0  0  0  0  0  0  0  0  0  0  0  0
   -1.1870   -1.0810   -0.6710 C   0  0  0  0  0  0  0  0  0  0  0  0
   -2.5740   -1.0570   -0.7740 O   0  0  0  0  0  0  0  0  0  0  0  0
   -3.3810   -0.3900    0.1810 C   0  0  0  0  0  0  0  0  0  0  0  0
   -2.8390    1.0050    0.3870 C   0  0  0  0  0  0  0  0  0  0  0  0
   -1.3570    0.9930    0.5070 C   0  0  0  0  0  0  0  0  0  0  0  0
   -0.5730    0.0440    0.0290 C   0  0  0  0  0  0  0  0  0  0  0  0
    0.8700    0.1210    0.1960 C   0  0  2  0  0  0  0  0  0  0  0  0
    1.6140    0.1480   -1.1460 C   0  0  0  0  0  0  0  0  0  0  0  0
    3.0460   -0.0010   -0.6110 C   0  0  0  0  0  0  0  0  0  0  0  0
    2.8210   -0.7020    0.6950 C   0  0  0  0  0  0  0  0  0  0  0  0
    1.4570   -0.9640    0.7970 O   0  0  0  0  0  0  0  0  0  0  0  0
  1  2  2  0
  2  3  1  0
  2  7  1  0
  3  4  1  0
  4  5  1  0
  5  6  1  0
  6  7  2  0
  8  7  1  6
  8  9  1  0
  8 12  1  0
  9 10  1  0
 10 11  1  0
 11 12  1  0
M  END
