
     RDKit          3D

 12 12  0  0  0  0  0  0  0  0999 V2000
   -3.4100    0.7250    0.1730 C   0  0  0  0  0  0  0  0  0  0  0  0
   -1.9500    0.6250    0.4240 C   0  0  0  0  0  0  0  0  0  0  0  0
   -1.1350   -0.0010   -0.4030 C   0  0  0  0  0  0  0  0  0  0  0  0
   -1.5220   -0.6780   -1.6620 C   0  0  0  0  0  0  0  0  0  0  0  0
   -0.4180   -1.1750   -2.1880 C   0  0  0  0  0  0  0  0  0  0  0  0
    0.7280   -0.8840   -1.3650 C   0  0  0  0  0  0  0  0  0  0  0  0
    2.0540   -1.2360   -1.5800 O   0  0  0  0  0  0  0  0  0  0  0  0
    0.3030   -0.1790   -0.2920 C   0  0  0  0  0  0  0  0  0  0  0  0
    1.1830    0.3030    0.7780 C   0  0  0  0  0  0  0  0  0  0  0  0
    0.6660    0.9420    1.7130 O   0  0  0  0  0  0  0  0  0  0  0  0
    2.5410    0.0760    0.7840 O   0  0  0  0  0  0  0  0  0  0  0  0
    3.3950    0.5480    1.8290 C   0  0  0  0  0  0  0  0  0  0  0  0
  1  2  1  0
  2  3  2  3
  3  4  1  0
  3  8  1  0
  4  5  2  0
  5  6  1  0
  6  7  1  0
  6  8  2  0
  8  9  1  0
  9 10  2  0
  9 11  1  0
 11 12  1  0
M  END
