
     RDKit          3D

 19 20  0  0  0  0  0  0  0  0999 V2000
   -4.8960    1.3300   -0.4460 O   0  0  0  0  0  0  0  0  0  0  0  0
   -3.6540    0.8290   -0.1160 C   0  0  0  0  0  0  0  0  0  0  0  0
   -3.0730   -0.1410   -0.8980 C   0  0  0  0  0  0  0  0  0  0  0  0
   -1.8210   -0.6370   -0.5540 C   0  0  0  0  0  0  0  0  0  0  0  0
   -1.1230   -0.2150    0.5290 C   0  0  0  0  0  0  0  0  0  0  0  0
    0.1980   -0.7640    0.8730 C   0  0  2  0  0  0  0  0  0  0  0  0
    1.2850   -0.2810   -0.0340 C   0  0  0  0  0  0  0  0  0  0  0  0
    2.0600    0.8310    0.2990 C   0  0  0  0  0  0  0  0  0  0  0  0
    3.0650    1.3120   -0.5020 C   0  0  0  0  0  0  0  0  0  0  0  0
    3.3200    0.6710   -1.6860 C   0  0  0  0  0  0  0  0  0  0  0  0
    4.3310    1.1230   -2.5350 O   0  0  0  0  0  0  0  0  0  0  0  0
    2.5920   -0.4290   -2.0730 C   0  0  0  0  0  0  0  0  0  0  0  0
    1.5910   -0.8810   -1.2380 C   0  0  0  0  0  0  0  0  0  0  0  0
    0.2470   -2.2170    1.1820 C   0  0  1  0  0  0  0  0  0  0  0  0
   -0.2720   -3.3080   -0.0790 Cl  0  0  0  0  0  0  0  0  0  0  0  0
    1.9690   -2.5760    1.5840 Cl  0  0  0  0  0  0  0  0  0  0  0  0
   -0.7300   -2.5330    2.6630 Cl  0  0  0  0  0  0  0  0  0  0  0  0
   -1.7200    0.7630    1.3080 C   0  0  0  0  0  0  0  0  0  0  0  0
   -2.9730    1.2910    1.0030 C   0  0  0  0  0  0  0  0  0  0  0  0
  1  2  1  0
  2  3  2  0
  2 19  1  0
  3  4  1  0
  4  5  2  0
  6  5  1  6
  5 18  1  0
  6  7  1  0
  6 14  1  0
  7  8  2  0
  7 13  1  0
  8  9  1  0
  9 10  2  0
 10 11  1  0
 10 12  1  0
 12 13  2  0
 14 15  1  6
 14 16  1  0
 14 17  1  0
 18 19  2  0
M  END
