
     RDKit          3D

 22 22  0  0  0  0  0  0  0  0999 V2000
    6.0630   -0.6640    1.8230 C   0  0  0  0  0  0  0  0  0  0  0  0
    5.6560    0.3780    1.1920 N   0  0  0  0  0  0  0  0  0  0  0  0
    5.0670    0.3930   -0.0850 C   0  0  0  0  0  0  0  0  0  0  0  0
    5.1580    1.4510   -0.8560 C   0  0  0  0  0  0  0  0  0  0  0  0
    5.8770    2.6960   -0.4510 C   0  0  0  0  0  0  0  0  0  0  0  0
    4.3330   -0.7960   -0.5610 C   0  0  0  0  0  0  0  0  0  0  0  0
    3.2470   -1.0490    0.3650 N   0  0  0  0  0  0  0  0  0  0  0  0
    2.1760   -0.1380    0.4450 C   0  0  0  0  0  0  0  0  0  0  0  0
    0.9370   -0.5880    0.3700 C   0  0  0  0  0  0  0  0  0  0  0  0
   -0.5680    0.4050    0.4500 S   0  0  0  0  0  0  0  0  0  0  0  0
   -1.7030   -0.9520    0.3150 C   0  0  0  0  0  0  0  0  0  0  0  0
   -2.9680   -0.8620    0.3420 N   0  0  0  0  0  0  0  0  0  0  0  0
   -3.5460    0.4700    0.4960 C   0  0  0  0  0  0  0  0  0  0  0  0
   -5.0090    0.4590    0.7740 C   0  0  0  0  0  0  0  0  0  0  0  0
   -5.5710    1.7000    0.9290 O   0  0  0  0  0  0  0  0  0  0  0  0
   -5.4650    2.5280   -0.1750 C   0  0  0  0  0  0  0  0  0  0  0  0
   -6.1440    3.8550    0.2010 C   0  0  0  0  0  0  0  0  0  0  0  0
   -0.9250   -2.1130    0.1830 N   0  0  0  0  0  0  0  0  0  0  0  0
   -1.5430   -3.4560    0.0230 C   0  0  0  0  0  0  0  0  0  0  0  0
   -1.7350   -3.7440   -1.4550 C   0  0  0  0  0  0  0  0  0  0  0  0
    0.4530   -1.9480    0.2090 C   0  0  0  0  0  0  0  0  0  0  0  0
    1.2980   -2.9230    0.0990 O   0  0  0  0  0  0  0  0  0  0  0  0
  1  2  2  0
  2  3  1  0
  3  4  2  3
  3  6  1  0
  4  5  1  0
  6  7  1  0
  7  8  1  0
  8  9  2  3
  9 10  1  0
  9 21  1  0
 10 11  1  0
 11 12  2  3
 11 18  1  0
 12 13  1  0
 13 14  1  0
 14 15  1  0
 15 16  1  0
 16 17  1  0
 18 19  1  0
 18 21  1  0
 19 20  1  0
 21 22  2  0
M  END
