
     RDKit          3D

 22 23  0  0  0  0  0  0  0  0999 V2000
   -3.2460    1.0100    2.8140 C   0  0  0  0  0  0  0  0  0  0  0  0
   -4.2650    1.1940    1.7150 C   0  0  2  0  0  0  0  0  0  0  0  0
   -5.3720    0.1830    1.7900 C   0  0  0  0  0  0  0  0  0  0  0  0
   -3.6160    1.0480    0.4280 N   0  0  0  0  0  0  0  0  0  0  0  0
   -2.8130    0.0660    0.2540 C   0  0  0  0  0  0  0  0  0  0  0  0
   -2.1260   -0.1320   -1.0320 N   0  0  0  0  0  0  0  0  0  0  0  0
   -3.0330   -0.1990   -2.1510 C   0  0  0  0  0  0  0  0  0  0  0  0
   -0.7270   -0.2280   -0.9920 C   0  0  0  0  0  0  0  0  0  0  0  0
    0.0550   -0.4020   -2.2000 C   0  0  0  0  0  0  0  0  0  0  0  0
   -0.2940   -0.5060   -3.5230 C   0  0  0  0  0  0  0  0  0  0  0  0
    0.9200   -0.6600   -4.2070 C   0  0  0  0  0  0  0  0  0  0  0  0
    1.8940   -0.6470   -3.3590 O   0  0  0  0  0  0  0  0  0  0  0  0
    1.4710   -0.4970   -2.1340 C   0  0  0  0  0  0  0  0  0  0  0  0
    2.2670   -0.4340   -0.9120 C   0  0  0  0  0  0  0  0  0  0  0  0
    1.7300   -0.2820    0.2060 O   0  0  0  0  0  0  0  0  0  0  0  0
    3.6790   -0.5460   -0.9670 N   0  0  0  0  0  0  0  0  0  0  0  0
    4.4890   -0.4890    0.2170 C   0  0  0  0  0  0  0  0  0  0  0  0
    5.2400   -1.5330    0.5010 C   0  0  0  0  0  0  0  0  0  0  0  0
    6.2890   -1.5520    1.9660 S   0  0  0  0  0  0  0  0  0  0  0  0
    6.0530    0.0320    2.8070 C   0  0  0  0  0  0  0  0  0  0  0  0
    5.1290    0.8680    2.1250 N   0  0  0  0  0  0  0  0  0  0  0  0
    4.4790    0.6730    1.0640 C   0  0  0  0  0  0  0  0  0  0  0  0
  2  1  1  1
  2  3  1  0
  2  4  1  0
  4  5  2  3
  5  6  1  0
  6  7  1  0
  6  8  1  0
  8  9  1  0
  9 10  1  0
  9 13  2  0
 10 11  2  0
 11 12  1  0
 12 13  1  0
 13 14  1  0
 14 15  2  0
 14 16  1  0
 16 17  1  0
 17 18  2  0
 17 22  1  0
 18 19  1  0
 19 20  1  0
 20 21  1  0
 21 22  2  0
M  END
