
     RDKit          3D

 22 23  0  0  0  0  0  0  0  0999 V2000
   -2.5470    1.5560    2.1980 C   0  0  0  0  0  0  0  0  0  0  0  0
   -3.2910    2.2520    1.1030 C   0  0  0  0  0  0  0  0  0  0  0  0
   -3.8250    1.3010    0.0910 C   0  0  0  0  0  0  0  0  0  0  0  0
   -2.8070    0.4940   -0.6200 C   0  0  0  0  0  0  0  0  0  0  0  0
   -2.5750   -0.7990   -0.3700 N   0  0  0  0  0  0  0  0  0  0  0  0
   -1.6600   -1.5140   -1.0560 N   0  0  0  0  0  0  0  0  0  0  0  0
   -1.4550   -2.9070   -0.7640 C   0  0  0  0  0  0  0  0  0  0  0  0
   -0.4530   -3.2330    0.2980 C   0  0  0  0  0  0  0  0  0  0  0  0
    0.8550   -2.7710   -0.0110 N   0  0  0  0  0  0  0  0  0  0  0  0
    1.3850   -1.4810    0.2310 C   0  0  0  0  0  0  0  0  0  0  0  0
    0.7070   -0.4640    0.8670 C   0  0  0  0  0  0  0  0  0  0  0  0
    1.2920    0.7790    1.0610 C   0  0  0  0  0  0  0  0  0  0  0  0
    2.5900    1.0300    0.6140 C   0  0  0  0  0  0  0  0  0  0  0  0
    3.2330    0.0030   -0.0120 C   0  0  0  0  0  0  0  0  0  0  0  0
    4.6210    0.2150   -0.5100 C   0  0  0  0  0  0  0  0  0  0  0  0
    5.0950    1.6160   -0.2130 C   0  0  0  0  0  0  0  0  0  0  0  0
    2.6470   -1.1760   -0.1830 N   0  0  0  0  0  0  0  0  0  0  0  0
   -0.9260   -0.9530   -2.0380 C   0  0  0  0  0  0  0  0  0  0  0  0
    0.1670   -1.8180   -2.9190 S   0  0  0  0  0  0  0  0  0  0  0  0
   -1.1350    0.3460   -2.3120 N   0  0  0  0  0  0  0  0  0  0  0  0
   -2.0430    1.0720   -1.6370 C   0  0  0  0  0  0  0  0  0  0  0  0
   -2.2510    2.2930   -1.8830 O   0  0  0  0  0  0  0  0  0  0  0  0
  1  2  1  0
  2  3  1  0
  3  4  1  0
  4  5  2  0
  4 21  1  0
  5  6  1  0
  6  7  1  0
  6 18  1  0
  7  8  1  0
  8  9  1  0
  9 10  1  0
 10 11  2  0
 10 17  1  0
 11 12  1  0
 12 13  2  0
 13 14  1  0
 14 15  1  0
 14 17  2  0
 15 16  1  0
 18 19  2  0
 18 20  1  0
 20 21  1  0
 21 22  2  0
M  END
