
     RDKit          3D

 22 24  0  0  0  0  0  0  0  0999 V2000
   -3.9940   -2.1560   -0.9080 C   0  0  0  0  0  0  0  0  0  0  0  0
   -3.3760   -0.8740   -0.4840 C   0  0  0  0  0  0  0  0  0  0  0  0
   -4.0790    0.0730    0.2200 C   0  0  0  0  0  0  0  0  0  0  0  0
   -3.4160    1.2280    0.5660 C   0  0  0  0  0  0  0  0  0  0  0  0
   -4.1900    2.2550    1.3320 C   0  0  0  0  0  0  0  0  0  0  0  0
   -2.1160    1.4570    0.2420 C   0  0  0  0  0  0  0  0  0  0  0  0
   -1.5370    2.6810    0.6500 N   0  0  0  0  0  0  0  0  0  0  0  0
   -1.3760    0.5050   -0.4770 C   0  0  0  0  0  0  0  0  0  0  0  0
    0.0130    0.8300   -0.7820 C   0  0  0  0  0  0  0  0  0  0  0  0
    0.7700   -0.1240   -1.5100 N   0  0  0  0  0  0  0  0  0  0  0  0
    1.6740   -0.8530   -0.6890 C   0  0  0  0  0  0  0  0  0  0  0  0
    1.3570   -2.1450   -0.3480 C   0  0  0  0  0  0  0  0  0  0  0  0
    2.1990   -2.8870    0.4420 C   0  0  0  0  0  0  0  0  0  0  0  0
    1.8920   -4.0640    0.7430 O   0  0  0  0  0  0  0  0  0  0  0  0
    3.3500   -2.3530    0.8920 N   0  0  0  0  0  0  0  0  0  0  0  0
    3.7040   -1.0970    0.5860 C   0  0  0  0  0  0  0  0  0  0  0  0
    4.8880   -0.5820    1.0630 C   0  0  0  0  0  0  0  0  0  0  0  0
    5.2310    0.7100    0.7360 C   0  0  0  0  0  0  0  0  0  0  0  0
    4.3980    1.4660   -0.0540 C   0  0  0  0  0  0  0  0  0  0  0  0
    3.2080    0.9730   -0.5430 C   0  0  0  0  0  0  0  0  0  0  0  0
    2.8720   -0.3220   -0.2110 C   0  0  0  0  0  0  0  0  0  0  0  0
   -2.0540   -0.6420   -0.8140 C   0  0  0  0  0  0  0  0  0  0  0  0
  1  2  1  0
  2  3  2  0
  2 22  1  0
  3  4  1  0
  4  5  1  0
  4  6  2  0
  6  7  1  0
  6  8  1  0
  8  9  1  0
  8 22  2  0
  9 10  1  0
 10 11  1  0
 11 12  2  0
 11 21  1  0
 12 13  1  0
 13 14  2  0
 13 15  1  0
 15 16  1  0
 16 17  2  0
 16 21  1  0
 17 18  1  0
 18 19  2  0
 19 20  1  0
 20 21  2  0
M  CHG  1  10   1
M  END
