
     RDKit          3D

 22 23  0  0  0  0  0  0  0  0999 V2000
   -3.5720    1.8470   -1.0680 C   0  0  0  0  0  0  0  0  0  0  0  0
   -4.8660    1.5820   -0.3590 C   0  0  0  0  0  0  0  0  0  0  0  0
   -4.7150    0.3850    0.5320 C   0  0  1  0  0  0  0  0  0  0  0  0
   -6.0940    0.2010    1.2080 C   0  0  0  0  0  0  0  0  0  0  0  0
   -4.3870   -0.7650   -0.2440 N   0  0  0  0  0  0  0  0  0  0  0  0
   -3.1320   -1.7410    0.3490 S   0  0  1  0  0  0  0  0  0  0  0  0
   -3.0930   -1.5950    1.8750 O   0  0  0  0  0  0  0  0  0  0  0  0
   -3.4350   -3.2080    0.1220 O   0  0  0  0  0  0  0  0  0  0  0  0
   -1.6100   -1.3670   -0.2230 N   0  0  0  0  0  0  0  0  0  0  0  0
   -1.0520   -0.0980    0.0440 C   0  0  0  0  0  0  0  0  0  0  0  0
    0.4490   -0.3630    0.3220 C   0  0  0  0  0  0  0  0  0  0  0  0
    1.0090   -0.9250   -0.9400 C   0  0  1  0  0  0  0  0  0  0  0  0
    2.4550   -1.2720   -0.7480 C   0  0  0  0  0  0  0  0  0  0  0  0
    3.1920   -0.0800   -0.3930 N   0  0  0  0  0  0  0  0  0  0  0  0
    4.5870   -0.4920   -0.2650 C   0  0  0  0  0  0  0  0  0  0  0  0
    5.4270    0.6960    0.1090 C   0  0  0  0  0  0  0  0  0  0  0  0
    6.1560    0.8020    1.2040 C   0  0  0  0  0  0  0  0  0  0  0  0
    6.8080    2.1280    1.1570 C   0  0  0  0  0  0  0  0  0  0  0  0
    6.3370    2.7220   -0.1040 C   0  0  0  0  0  0  0  0  0  0  0  0
    5.5560    1.8760   -0.6660 N   0  0  0  0  0  0  0  0  0  0  0  0
    0.2840   -2.1940   -1.3600 C   0  0  0  0  0  0  0  0  0  0  0  0
   -1.2040   -1.8880   -1.4800 C   0  0  0  0  0  0  0  0  0  0  0  0
  1  2  1  0
  2  3  1  0
  3  4  1  6
  3  5  1  0
  6  5  1  6
  6  7  2  0
  6  8  2  0
  6  9  1  0
  9 10  1  0
  9 22  1  0
 10 11  1  0
 11 12  1  0
 12 13  1  1
 12 21  1  0
 13 14  1  0
 14 15  1  0
 15 16  1  0
 16 17  2  0
 16 20  1  0
 17 18  1  0
 18 19  1  0
 19 20  2  0
 21 22  1  0
M  END
