
     RDKit          3D

 22 23  0  0  0  0  0  0  0  0999 V2000
   -6.3460    1.6240   -2.2520 C   0  0  0  0  0  0  0  0  0  0  0  0
   -5.4750    0.5790   -1.8990 O   0  0  0  0  0  0  0  0  0  0  0  0
   -4.3320    0.8300   -1.1320 C   0  0  0  0  0  0  0  0  0  0  0  0
   -4.0740    2.1360   -0.7250 C   0  0  0  0  0  0  0  0  0  0  0  0
   -2.9510    2.3950    0.0310 C   0  0  0  0  0  0  0  0  0  0  0  0
   -2.0520    1.3940    0.4090 C   0  0  0  0  0  0  0  0  0  0  0  0
   -0.9290    1.7660    1.1950 N   0  0  0  0  0  0  0  0  0  0  0  0
    0.1050    0.8760    1.5510 C   0  0  0  0  0  0  0  0  0  0  0  0
    0.8290    0.9290    3.1660 S   0  0  0  0  0  0  0  0  0  0  0  0
    0.4840    0.0310    0.6240 N   0  0  0  0  0  0  0  0  0  0  0  0
    1.5440   -0.8930    0.9660 C   0  0  0  0  0  0  0  0  0  0  0  0
    2.7920   -0.5810    0.1560 C   0  0  0  0  0  0  0  0  0  0  0  0
    3.8970   -1.5470    0.5160 C   0  0  0  0  0  0  0  0  0  0  0  0
    5.0520   -1.1970   -0.2860 N   0  0  0  0  0  0  0  0  0  0  0  0
    5.9900   -0.3200    0.1090 C   0  0  0  0  0  0  0  0  0  0  0  0
    6.9500   -0.2080   -0.8750 C   0  0  0  0  0  0  0  0  0  0  0  0
    6.5480   -1.0420   -1.8530 N   0  0  0  0  0  0  0  0  0  0  0  0
    5.3910   -1.6510   -1.5060 C   0  0  0  0  0  0  0  0  0  0  0  0
   -2.3480    0.1310   -0.0140 C   0  0  0  0  0  0  0  0  0  0  0  0
   -3.4640   -0.1750   -0.7740 C   0  0  0  0  0  0  0  0  0  0  0  0
   -3.7510   -1.4630   -1.1960 O   0  0  0  0  0  0  0  0  0  0  0  0
   -2.8650   -2.5050   -0.8340 C   0  0  0  0  0  0  0  0  0  0  0  0
  1  2  1  0
  2  3  1  0
  3  4  2  0
  3 20  1  0
  4  5  1  0
  5  6  2  0
  6  7  1  0
  6 19  1  0
  7  8  1  0
  8  9  1  0
  8 10  2  3
 10 11  1  0
 11 12  1  0
 12 13  1  0
 13 14  1  0
 14 15  1  0
 14 18  1  0
 15 16  2  0
 16 17  1  0
 17 18  2  0
 19 20  2  0
 20 21  1  0
 21 22  1  0
M  END
