
     RDKit          3D

 22 23  0  0  0  0  0  0  0  0999 V2000
    0.3930    1.3490   -0.9480 C   0  0  0  0  0  0  0  0  0  0  0  0
   -0.2500    0.0800   -0.5670 C   0  0  0  0  0  0  0  0  0  0  0  0
    0.4460   -0.9790   -0.2950 C   0  0  0  0  0  0  0  0  0  0  0  0
    1.8270   -1.2480   -0.2590 C   0  0  0  0  0  0  0  0  0  0  0  0
    2.2070   -2.4750   -0.0020 O   0  0  0  0  0  0  0  0  0  0  0  0
    2.8670   -0.3290   -0.4660 N   0  0  0  0  0  0  0  0  0  0  0  0
    4.2850   -0.7230   -0.4050 C   0  0  0  0  0  0  0  0  0  0  0  0
    4.5900   -1.1940    0.9730 C   0  0  0  0  0  0  0  0  0  0  0  0
    5.9260   -1.5850    1.1210 O   0  0  0  0  0  0  0  0  0  0  0  0
    6.8020   -0.5400    0.8530 C   0  0  0  0  0  0  0  0  0  0  0  0
    6.5620    0.5710    1.7610 C   0  0  0  0  0  0  0  0  0  0  0  0
    6.3910    1.4560    2.4740 N   0  0  0  0  0  0  0  0  0  0  0  0
   -1.7110   -0.0250   -0.5150 N   0  0  0  0  0  0  0  0  0  0  0  0
   -2.3250   -1.2220   -0.5130 N   0  0  0  0  0  0  0  0  0  0  0  0
   -3.6380   -0.9840   -0.3860 C   0  0  0  0  0  0  0  0  0  0  0  0
   -3.8640    0.3680   -0.3050 C   0  0  0  0  0  0  0  0  0  0  0  0
   -2.5770    0.9580   -0.3920 C   0  0  0  0  0  0  0  0  0  0  0  0
   -2.4240    2.4370   -0.2790 C   0  0  0  0  0  0  0  0  0  0  0  0
   -5.2190    0.9430   -0.1600 C   0  0  0  0  0  0  0  0  0  0  0  0
   -5.9130    0.3150    1.0440 C   0  0  0  0  0  0  0  0  0  0  0  0
   -6.1160   -1.4360    0.6810 S   0  0  0  0  0  0  0  0  0  0  0  0
   -4.7480   -1.9740   -0.3310 C   0  0  0  0  0  0  0  0  0  0  0  0
  1  2  1  0
  2  3  2  3
  2 13  1  0
  3  4  1  0
  4  5  2  0
  4  6  1  0
  6  7  1  0
  7  8  1  0
  8  9  1  0
  9 10  1  0
 10 11  1  0
 11 12  3  0
 13 14  1  0
 13 17  1  0
 14 15  2  0
 15 16  1  0
 15 22  1  0
 16 17  2  0
 16 19  1  0
 17 18  1  0
 19 20  1  0
 20 21  1  0
 21 22  1  0
M  END
