
     RDKit          3D

 22 23  0  0  0  0  0  0  0  0999 V2000
   -2.5030    3.4290    1.1450 C   0  0  0  0  0  0  0  0  0  0  0  0
   -1.9150    2.1930    0.5270 C   0  0  0  0  0  0  0  0  0  0  0  0
   -2.4130    0.9540    1.1680 C   0  0  0  0  0  0  0  0  0  0  0  0
   -3.2380    1.0620    2.1060 O   0  0  0  0  0  0  0  0  0  0  0  0
   -1.9360   -0.3290    0.6960 C   0  0  0  0  0  0  0  0  0  0  0  0
   -1.0640   -0.3850   -0.2990 C   0  0  0  0  0  0  0  0  0  0  0  0
   -0.5950   -1.6380   -0.7640 N   0  0  0  0  0  0  0  0  0  0  0  0
    0.7630   -1.7650   -1.1940 C   0  0  0  0  0  0  0  0  0  0  0  0
    1.1120   -2.9050   -1.5950 O   0  0  0  0  0  0  0  0  0  0  0  0
    1.7120   -0.6400   -1.1760 C   0  0  0  0  0  0  0  0  0  0  0  0
    3.0510   -1.1230   -1.7040 C   0  0  0  0  0  0  0  0  0  0  0  0
    4.2260    0.2600   -1.6850 S   0  0  0  0  0  0  0  0  0  0  0  0
    4.5890    0.7730   -0.0170 C   0  0  0  0  0  0  0  0  0  0  0  0
    5.5860    0.2900    0.7780 N   0  0  0  0  0  0  0  0  0  0  0  0
    5.5610    0.9030    1.9560 N   0  0  0  0  0  0  0  0  0  0  0  0
    4.5600    1.7790    1.9370 C   0  0  0  0  0  0  0  0  0  0  0  0
    3.9620    1.7040    0.7310 N   0  0  0  0  0  0  0  0  0  0  0  0
    2.8350    2.4890    0.3090 C   0  0  0  0  0  0  0  0  0  0  0  0
   -1.5210   -2.7470   -0.7860 C   0  0  0  0  0  0  0  0  0  0  0  0
   -2.5950   -2.6870    0.2440 C   0  0  2  0  0  0  0  0  0  0  0  0
   -3.9740   -2.4300   -0.3780 C   0  0  0  0  0  0  0  0  0  0  0  0
   -2.3760   -1.6200    1.2800 C   0  0  0  0  0  0  0  0  0  0  0  0
  1  2  1  0
  2  3  1  0
  3  4  2  0
  3  5  1  0
  5  6  2  0
  5 22  1  0
  6  7  1  0
  7  8  1  0
  7 19  1  0
  8  9  2  0
  8 10  1  0
 10 11  1  0
 11 12  1  0
 12 13  1  0
 13 14  2  0
 13 17  1  0
 14 15  1  0
 15 16  2  0
 16 17  1  0
 17 18  1  0
 19 20  1  0
 20 21  1  6
 20 22  1  0
M  END
