
     RDKit          3D

 22 23  0  0  0  0  0  0  0  0999 V2000
    3.8840   -0.0620    0.8050 C   0  0  0  0  0  0  0  0  0  0  0  0
    4.4480   -0.6200   -0.2920 O   0  0  0  0  0  0  0  0  0  0  0  0
    3.7920   -1.5970   -0.9240 C   0  0  0  0  0  0  0  0  0  0  0  0
    2.5630   -1.4040   -1.6790 C   0  0  0  0  0  0  0  0  0  0  0  0
    1.3770   -0.8850   -1.0980 N   0  0  0  0  0  0  0  0  0  0  0  0
    0.3990   -1.5290   -0.4310 C   0  0  0  0  0  0  0  0  0  0  0  0
   -0.5870   -0.6840   -0.0370 C   0  0  0  0  0  0  0  0  0  0  0  0
   -1.8390   -0.9770    0.7180 C   0  0  0  0  0  0  0  0  0  0  0  0
   -1.9650   -2.3630    1.0480 N   0  0  0  0  0  0  0  0  0  0  0  0
   -3.0910   -2.8270    1.7640 C   0  0  0  0  0  0  0  0  0  0  0  0
   -3.9760   -2.0200    2.1080 O   0  0  0  0  0  0  0  0  0  0  0  0
   -3.2660   -4.1900    2.1170 N   0  0  0  0  0  0  0  0  0  0  0  0
   -4.6760   -4.7500    3.0100 S   0  0  0  0  0  0  0  0  0  0  0  0
   -0.2160    0.6040   -0.4850 C   0  0  0  0  0  0  0  0  0  0  0  0
   -1.0290    1.7750   -0.2480 C   0  0  0  0  0  0  0  0  0  0  0  0
   -0.7940    3.0090   -0.6410 C   0  0  0  0  0  0  0  0  0  0  0  0
   -1.7410    4.0850   -0.3050 C   0  0  0  0  0  0  0  0  0  0  0  0
   -1.7890    5.3650   -0.5410 C   0  0  0  0  0  0  0  0  0  0  0  0
   -3.0450    5.4570    0.1800 C   0  0  0  0  0  0  0  0  0  0  0  0
   -2.9630    4.1860    0.3950 N   0  0  0  0  0  0  0  0  0  0  0  0
    0.9870    0.4260   -1.1240 C   0  0  0  0  0  0  0  0  0  0  0  0
    1.7760    1.5320   -1.7510 C   0  0  0  0  0  0  0  0  0  0  0  0
  1  2  1  0
  2  3  1  0
  3  4  1  0
  4  5  1  0
  5  6  1  0
  5 21  1  0
  6  7  2  0
  7  8  1  0
  7 14  1  0
  8  9  1  0
  9 10  1  0
 10 11  2  0
 10 12  1  0
 12 13  1  0
 14 15  1  0
 14 21  2  0
 15 16  2  3
 16 17  1  0
 17 18  2  0
 17 20  1  0
 18 19  1  0
 19 20  2  0
 21 22  1  0
M  END
