
     RDKit          3D

 22 24  0  0  0  0  0  0  0  0999 V2000
    2.6860    1.7710   -0.4100 C   0  0  0  0  0  0  0  0  0  0  0  0
    1.9560    0.5760   -0.7420 N   0  0  0  0  0  0  0  0  0  0  0  0
    2.3300   -0.1630   -1.8850 C   0  0  0  0  0  0  0  0  0  0  0  0
    3.5300   -0.6350   -2.0790 N   0  0  0  0  0  0  0  0  0  0  0  0
    4.5200   -0.3920   -1.0810 C   0  0  0  0  0  0  0  0  0  0  0  0
    4.6610   -0.9730    0.0980 C   0  0  0  0  0  0  0  0  0  0  0  0
    5.8300   -0.3970    0.7920 C   0  0  0  0  0  0  0  0  0  0  0  0
    6.3470    0.6080   -0.1660 C   0  0  0  0  0  0  0  0  0  0  0  0
    5.5770    0.5950   -1.2380 C   0  0  0  0  0  0  0  0  0  0  0  0
    0.8710    0.1510    0.0760 C   0  0  1  0  0  0  0  0  0  0  0  0
   -0.1800    1.2430    0.0900 C   0  0  0  0  0  0  0  0  0  0  0  0
   -1.4010    0.6920    0.7530 C   0  0  0  0  0  0  0  0  0  0  0  0
   -2.0630   -0.2180   -0.1550 N   0  0  0  0  0  0  0  0  0  0  0  0
   -3.1680   -1.2100    0.6740 S   0  0  2  0  0  0  0  0  0  0  0  0
   -2.5300   -2.0450    1.7360 O   0  0  0  0  0  0  0  0  0  0  0  0
   -3.8740   -2.1140   -0.3160 O   0  0  0  0  0  0  0  0  0  0  0  0
   -4.3720   -0.2050    1.3910 N   0  0  0  0  0  0  0  0  0  0  0  0
   -5.4490   -0.0410    0.4360 C   0  0  2  0  0  0  0  0  0  0  0  0
   -6.3410    1.1470    0.5200 C   0  0  0  0  0  0  0  0  0  0  0  0
   -6.8200   -0.1120    1.0920 C   0  0  0  0  0  0  0  0  0  0  0  0
   -1.1420   -0.9260   -1.0030 C   0  0  0  0  0  0  0  0  0  0  0  0
    0.2150   -1.1150   -0.3730 C   0  0  0  0  0  0  0  0  0  0  0  0
  1  2  1  0
  2  3  1  0
 10  2  1  6
  3  4  2  3
  4  5  1  0
  5  6  2  0
  5  9  1  0
  6  7  1  0
  7  8  1  0
  8  9  2  0
 10 11  1  0
 10 22  1  0
 11 12  1  0
 12 13  1  0
 13 14  1  0
 13 21  1  0
 14 15  2  0
 14 16  2  0
 14 17  1  1
 18 17  1  1
 18 19  1  0
 18 20  1  0
 19 20  1  0
 21 22  1  0
M  END
