
     RDKit          3D

 22 23  0  0  0  0  0  0  0  0999 V2000
   -5.3890   -0.0400   -1.7070 C   0  0  0  0  0  0  0  0  0  0  0  0
   -4.4670    0.6920   -0.9470 O   0  0  0  0  0  0  0  0  0  0  0  0
   -3.4360    0.0660   -0.2420 C   0  0  0  0  0  0  0  0  0  0  0  0
   -3.3040   -1.3040   -0.2820 C   0  0  0  0  0  0  0  0  0  0  0  0
   -2.2800   -1.9040    0.4200 C   0  0  0  0  0  0  0  0  0  0  0  0
   -1.3770   -1.1810    1.1650 C   0  0  0  0  0  0  0  0  0  0  0  0
   -0.4040   -1.8640    1.8980 N   0  0  0  0  0  0  0  0  0  0  0  0
    0.6270   -2.3640    1.3590 C   0  0  0  0  0  0  0  0  0  0  0  0
    1.8620   -3.2500    2.3760 S   0  0  0  0  0  0  0  0  0  0  0  0
    0.8360   -2.2330   -0.0400 N   0  0  0  0  0  0  0  0  0  0  0  0
    0.5660   -1.0050   -0.6870 C   0  0  0  0  0  0  0  0  0  0  0  0
    1.4680    0.1420   -0.3090 C   0  0  0  0  0  0  0  0  0  0  0  0
    2.8890   -0.2490   -0.6450 C   0  0  0  0  0  0  0  0  0  0  0  0
    3.8450    0.7750   -0.3250 N   0  0  0  0  0  0  0  0  0  0  0  0
    4.2450    1.7550   -1.1470 C   0  0  0  0  0  0  0  0  0  0  0  0
    5.1650    2.5220   -0.4570 C   0  0  0  0  0  0  0  0  0  0  0  0
    5.3130    1.9980    0.7760 N   0  0  0  0  0  0  0  0  0  0  0  0
    4.5010    0.9280    0.8490 C   0  0  0  0  0  0  0  0  0  0  0  0
   -1.5050    0.1800    1.2080 C   0  0  0  0  0  0  0  0  0  0  0  0
   -2.5260    0.7780    0.5080 C   0  0  0  0  0  0  0  0  0  0  0  0
   -2.7000    2.1760    0.5200 O   0  0  0  0  0  0  0  0  0  0  0  0
   -1.7920    2.9480    1.2740 C   0  0  0  0  0  0  0  0  0  0  0  0
  1  2  1  0
  2  3  1  0
  3  4  2  0
  3 20  1  0
  4  5  1  0
  5  6  2  0
  6  7  1  0
  6 19  1  0
  7  8  2  3
  8  9  1  0
  8 10  1  0
 10 11  1  0
 11 12  1  0
 12 13  1  0
 13 14  1  0
 14 15  1  0
 14 18  1  0
 15 16  2  0
 16 17  1  0
 17 18  2  0
 19 20  2  0
 20 21  1  0
 21 22  1  0
M  END
