
     RDKit          3D

  7  7  0  0  0  0  0  0  0  0999 V2000
    0.6970    1.5030   -0.1200 C   0  0  0  0  0  0  0  0  0  0  0  0
   -0.5680    1.4780    0.2290 C   0  0  0  0  0  0  0  0  0  0  0  0
   -1.3510    0.3530    0.8440 C   0  0  0  0  0  0  0  0  0  0  0  0
   -1.4170   -0.7440   -0.1760 C   0  0  0  0  0  0  0  0  0  0  0  0
   -0.1060   -1.1270   -0.7590 C   0  0  0  0  0  0  0  0  0  0  0  0
    1.0680   -0.9390    0.1380 C   0  0  0  0  0  0  0  0  0  0  0  0
    1.7100    0.4390   -0.0090 C   0  0  0  0  0  0  0  0  0  0  0  0
  1  2  2  0
  1  7  1  0
  2  3  1  0
  3  4  1  0
  4  5  1  0
  5  6  1  0
  6  7  1  0
M  END
