
     RDKit          3D

 22 22  0  0  0  0  0  0  0  0999 V2000
    3.7380    1.3990   -1.9090 C   0  0  0  0  0  0  0  0  0  0  0  0
    3.2020    1.3550   -0.6980 C   0  0  0  0  0  0  0  0  0  0  0  0
    2.3900    0.2260   -0.3260 N   0  0  0  0  0  0  0  0  0  0  0  0
    1.8160    0.0410    0.7850 C   0  0  0  0  0  0  0  0  0  0  0  0
    1.0240   -1.2040    0.9540 C   0  0  0  0  0  0  0  0  0  0  0  0
    0.0340   -1.4420   -0.0290 N   0  0  0  0  0  0  0  0  0  0  0  0
   -1.1130   -0.6330   -0.0620 C   0  0  0  0  0  0  0  0  0  0  0  0
   -0.9530    0.7930   -0.4500 C   0  0  0  0  0  0  0  0  0  0  0  0
   -2.1880    1.5260   -0.4570 N   0  0  0  0  0  0  0  0  0  0  0  0
   -3.1070    1.1340   -1.4870 C   0  0  0  0  0  0  0  0  0  0  0  0
   -2.7880    1.6720    0.8310 C   0  0  0  0  0  0  0  0  0  0  0  0
   -4.0740    2.4660    0.6930 C   0  0  0  0  0  0  0  0  0  0  0  0
   -0.2230   -2.8220   -0.2900 C   0  0  1  0  0  0  0  0  0  0  0  0
    1.0010   -3.5640   -0.8450 C   0  0  0  0  0  0  0  0  0  0  0  0
   -0.6920   -3.4930    0.9960 C   0  0  0  0  0  0  0  0  0  0  0  0
   -1.3110   -3.0310   -1.3230 C   0  0  0  0  0  0  0  0  0  0  0  0
    1.8870    0.9370    1.8870 N   0  0  0  0  0  0  0  0  0  0  0  0
    3.2240    2.0660    1.9330 S   0  0  1  0  0  0  0  0  0  0  0  0
    2.9150    3.2860    2.7050 O   0  0  0  0  0  0  0  0  0  0  0  0
    4.4640    1.4080    2.3960 O   0  0  0  0  0  0  0  0  0  0  0  0
    3.4640    2.4620    0.2130 C   0  0  0  0  0  0  0  0  0  0  0  0
    3.8400    3.6420   -0.1600 C   0  0  0  0  0  0  0  0  0  0  0  0
  1  2  2  0
  2  3  1  0
  2 21  1  0
  3  4  2  0
  4  5  1  0
  4 17  1  0
  5  6  1  0
  6  7  1  0
  6 13  1  0
  7  8  1  0
  8  9  1  0
  9 10  1  0
  9 11  1  0
 11 12  1  0
 13 14  1  6
 13 15  1  0
 13 16  1  0
 18 17  1  6
 18 19  2  0
 18 20  2  0
 18 21  1  0
 21 22  2  0
M  END
