
     RDKit          3D

 22 23  0  0  0  0  0  0  0  0999 V2000
   -5.3600    0.2480   -0.5180 C   0  0  0  0  0  0  0  0  0  0  0  0
   -4.4410    1.4050   -0.5810 C   0  0  0  0  0  0  0  0  0  0  0  0
   -4.9420    2.7890   -0.7790 C   0  0  0  0  0  0  0  0  0  0  0  0
   -3.1490    1.2100   -0.4600 C   0  0  0  0  0  0  0  0  0  0  0  0
   -2.6440   -0.1400   -0.2660 C   0  0  0  0  0  0  0  0  0  0  0  0
   -1.3570   -0.3930   -0.1390 C   0  0  0  0  0  0  0  0  0  0  0  0
   -0.9050   -1.7440    0.0520 C   0  0  0  0  0  0  0  0  0  0  0  0
   -1.8800   -2.8580    0.1060 C   0  0  0  0  0  0  0  0  0  0  0  0
    0.3780   -2.0000    0.1790 C   0  0  0  0  0  0  0  0  0  0  0  0
    1.3640   -0.9070    0.1280 C   0  0  2  0  0  0  0  0  0  0  0  0
    1.4550   -0.3600   -1.1540 O   0  0  0  0  0  0  0  0  0  0  0  0
    2.7350   -1.4400    0.4980 C   0  0  0  0  0  0  0  0  0  0  0  0
    3.6670   -0.3600    0.4400 N   0  0  0  0  0  0  0  0  0  0  0  0
    3.9830    0.4590    1.4590 C   0  0  0  0  0  0  0  0  0  0  0  0
    4.8470    1.4650    1.4190 N   0  0  0  0  0  0  0  0  0  0  0  0
    5.5310    1.7750    0.2670 C   0  0  0  0  0  0  0  0  0  0  0  0
    6.3960    2.7100    0.0580 N   0  0  0  0  0  0  0  0  0  0  0  0
    6.9900    2.9780   -0.9460 N   0  0  0  0  0  0  0  0  0  0  0  0
    6.2740    1.6450   -2.0570 S   0  0  0  0  0  0  0  0  0  0  0  0
    5.2210    0.9460   -0.7940 C   0  0  0  0  0  0  0  0  0  0  0  0
    4.3330   -0.0770   -0.7250 C   0  0  0  0  0  0  0  0  0  0  0  0
    4.1350   -0.7560   -1.7460 O   0  0  0  0  0  0  0  0  0  0  0  0
  1  2  1  0
  2  3  1  0
  2  4  2  3
  4  5  1  0
  5  6  2  3
  6  7  1  0
  7  8  1  0
  7  9  2  3
  9 10  1  0
 10 11  1  6
 10 12  1  0
 12 13  1  0
 13 14  1  0
 13 21  1  0
 14 15  2  0
 15 16  1  0
 16 17  1  0
 16 20  2  0
 17 18  2  0
 18 19  1  0
 19 20  1  0
 20 21  1  0
 21 22  2  0
M  END
