
     RDKit          3D

 22 23  0  0  0  0  0  0  0  0999 V2000
    5.2070   -0.7010    0.1250 C   0  0  0  0  0  0  0  0  0  0  0  0
    4.6200    0.5460    0.7890 C   0  0  0  0  0  0  0  0  0  0  0  0
    4.2590    1.5050   -0.3150 C   0  0  0  0  0  0  0  0  0  0  0  0
    3.2670    0.9150   -1.2400 C   0  0  0  0  0  0  0  0  0  0  0  0
    2.0000    0.6170   -0.5320 C   0  0  0  0  0  0  0  0  0  0  0  0
    1.8010    0.9320    0.6670 O   0  0  0  0  0  0  0  0  0  0  0  0
    0.9230   -0.0640   -1.2120 N   0  0  0  0  0  0  0  0  0  0  0  0
   -0.2600   -0.3090   -0.4490 C   0  0  0  0  0  0  0  0  0  0  0  0
   -1.2910    0.6230   -0.4180 C   0  0  0  0  0  0  0  0  0  0  0  0
   -1.1780    1.8480   -1.1580 C   0  0  0  0  0  0  0  0  0  0  0  0
   -0.1400    2.0680   -1.8320 O   0  0  0  0  0  0  0  0  0  0  0  0
   -2.4590    0.4330    0.3070 C   0  0  0  0  0  0  0  0  0  0  0  0
   -3.7310    1.6510    0.3110 S   0  0  0  0  0  0  0  0  0  0  0  0
   -4.9400    1.4520   -0.9960 C   0  0  0  0  0  0  0  0  0  0  0  0
   -5.7310    0.1880   -0.7950 C   0  0  0  0  0  0  0  0  0  0  0  0
   -2.5750   -0.7120    1.0030 N   0  0  0  0  0  0  0  0  0  0  0  0
   -3.5680   -1.1840    1.7930 C   0  0  0  0  0  0  0  0  0  0  0  0
   -3.1580   -2.3740    2.2360 N   0  0  0  0  0  0  0  0  0  0  0  0
   -1.9750   -2.6740    1.7740 N   0  0  0  0  0  0  0  0  0  0  0  0
   -1.5980   -1.6370    0.9980 C   0  0  0  0  0  0  0  0  0  0  0  0
   -0.4360   -1.4620    0.2830 C   0  0  0  0  0  0  0  0  0  0  0  0
    0.6500   -2.4960    0.2810 C   0  0  0  0  0  0  0  0  0  0  0  0
  1  2  1  0
  2  3  1  0
  3  4  1  0
  4  5  1  0
  5  6  2  0
  5  7  1  0
  7  8  1  0
  8  9  1  0
  8 21  2  0
  9 10  1  0
  9 12  2  0
 10 11  2  0
 12 13  1  0
 12 16  1  0
 13 14  1  0
 14 15  1  0
 16 17  1  0
 16 20  1  0
 17 18  2  0
 18 19  1  0
 19 20  2  0
 20 21  1  0
 21 22  1  0
M  END
