
     RDKit          3D

 20 22  0  0  0  0  0  0  0  0999 V2000
    4.6560    0.8380    0.2280 C   0  0  0  0  0  0  0  0  0  0  0  0
    3.6970   -0.3220    0.2520 C   0  0  0  0  0  0  0  0  0  0  0  0
    2.2980    0.1650    0.1230 C   0  0  0  0  0  0  0  0  0  0  0  0
    1.8660    1.4250   -0.0020 O   0  0  0  0  0  0  0  0  0  0  0  0
    0.5570    1.4570   -0.0910 C   0  0  0  0  0  0  0  0  0  0  0  0
   -0.4540    2.3810   -0.2280 C   0  0  0  0  0  0  0  0  0  0  0  0
   -0.1050    3.5960   -0.2970 O   0  0  0  0  0  0  0  0  0  0  0  0
   -1.7340    2.0020   -0.2840 N   0  0  0  0  0  0  0  0  0  0  0  0
   -2.1870    0.7040   -0.2150 C   0  0  0  0  0  0  0  0  0  0  0  0
   -3.4590    0.4580   -0.2800 C   0  0  0  0  0  0  0  0  0  0  0  0
   -4.3950   -0.6260   -0.2590 C   0  0  2  0  0  0  0  0  0  0  0  0
   -4.5100   -1.3330    0.9230 F   0  0  0  0  0  0  0  0  0  0  0  0
   -4.2960   -1.4010   -1.3960 F   0  0  0  0  0  0  0  0  0  0  0  0
   -5.7220   -0.0440   -0.4660 F   0  0  0  0  0  0  0  0  0  0  0  0
   -1.1960   -0.2260   -0.0790 C   0  0  0  0  0  0  0  0  0  0  0  0
   -1.4520   -1.5720    0.0070 C   0  0  0  0  0  0  0  0  0  0  0  0
   -0.3710   -2.4550    0.1460 C   0  0  0  0  0  0  0  0  0  0  0  0
    0.9410   -2.0330    0.2010 C   0  0  0  0  0  0  0  0  0  0  0  0
    1.2090   -0.6760    0.1150 C   0  0  0  0  0  0  0  0  0  0  0  0
    0.1470    0.1530   -0.0190 C   0  0  0  0  0  0  0  0  0  0  0  0
  1  2  1  0
  2  3  1  0
  3  4  1  0
  3 19  2  0
  4  5  1  0
  5  6  1  0
  5 20  2  0
  6  7  2  0
  6  8  1  0
  8  9  1  0
  9 10  2  3
  9 15  1  0
 10 11  1  0
 11 12  1  1
 11 13  1  0
 11 14  1  0
 15 16  2  0
 15 20  1  0
 16 17  1  0
 17 18  2  0
 18 19  1  0
 19 20  1  0
M  END
