
     RDKit          3D

 20 22  0  0  0  0  0  0  0  0999 V2000
    1.4110   -1.8440    0.4170 O   0  0  0  0  0  0  0  0  0  0  0  0
    0.4250   -1.0820    0.2550 C   0  0  0  0  0  0  0  0  0  0  0  0
    0.4160    0.3020   -0.1830 C   0  0  0  0  0  0  0  0  0  0  0  0
    1.4860    1.0190   -0.4870 C   0  0  0  0  0  0  0  0  0  0  0  0
    2.8580    0.5730   -0.4450 C   0  0  0  0  0  0  0  0  0  0  0  0
    3.9650    1.2580    0.0270 C   0  0  0  0  0  0  0  0  0  0  0  0
    5.0540    0.4370   -0.1390 C   0  0  0  0  0  0  0  0  0  0  0  0
    4.5790   -0.7090   -0.7010 C   0  0  0  0  0  0  0  0  0  0  0  0
    3.2980   -0.5790   -0.8580 O   0  0  0  0  0  0  0  0  0  0  0  0
   -0.9880    0.7800   -0.2220 C   0  0  0  0  0  0  0  0  0  0  0  0
   -1.3420    1.9910   -0.5860 C   0  0  0  0  0  0  0  0  0  0  0  0
   -2.7260    2.4770   -0.6290 C   0  0  1  0  0  0  0  0  0  0  0  0
   -3.5300    1.8200   -1.5250 F   0  0  0  0  0  0  0  0  0  0  0  0
   -3.2400    2.4670    0.6720 F   0  0  0  0  0  0  0  0  0  0  0  0
   -2.7580    3.8220   -1.0000 F   0  0  0  0  0  0  0  0  0  0  0  0
   -1.8050   -0.3630    0.2070 C   0  0  0  0  0  0  0  0  0  0  0  0
   -3.0590   -0.7360    0.4280 C   0  0  0  0  0  0  0  0  0  0  0  0
   -3.1380   -2.1380    0.8820 C   0  0  0  0  0  0  0  0  0  0  0  0
   -1.7190   -2.6050    0.9030 C   0  0  0  0  0  0  0  0  0  0  0  0
   -0.9510   -1.4630    0.4860 N   0  0  0  0  0  0  0  0  0  0  0  0
  1  2  2  0
  2  3  1  0
  2 20  1  0
  3  4  2  3
  3 10  1  0
  4  5  1  0
  5  6  2  0
  5  9  1  0
  6  7  1  0
  7  8  2  0
  8  9  1  0
 10 11  2  3
 10 16  1  0
 11 12  1  0
 12 13  1  6
 12 14  1  0
 12 15  1  0
 16 17  2  0
 16 20  1  0
 17 18  1  0
 18 19  1  0
 19 20  1  0
M  END
