
     RDKit          3D

 20 22  0  0  0  0  0  0  0  0999 V2000
   -3.2530    2.3280    0.3140 C   0  0  0  0  0  0  0  0  0  0  0  0
   -2.9460    0.9650    0.5000 O   0  0  0  0  0  0  0  0  0  0  0  0
   -1.6220    0.5450    0.3840 C   0  0  0  0  0  0  0  0  0  0  0  0
   -0.6430    1.4690    0.0910 C   0  0  0  0  0  0  0  0  0  0  0  0
    0.6870    1.1460   -0.0420 C   0  0  0  0  0  0  0  0  0  0  0  0
    1.0600   -0.1700    0.1280 C   0  0  0  0  0  0  0  0  0  0  0  0
    0.0730   -1.1090    0.4240 C   0  0  0  0  0  0  0  0  0  0  0  0
   -1.2600   -0.7790    0.5560 C   0  0  0  0  0  0  0  0  0  0  0  0
   -2.2380   -1.7000    0.8490 O   0  0  0  0  0  0  0  0  0  0  0  0
   -2.9590   -2.4200   -0.1290 C   0  0  2  0  0  0  0  0  0  0  0  0
   -3.8580   -3.2540    0.5100 F   0  0  0  0  0  0  0  0  0  0  0  0
   -2.1550   -3.1680   -0.9400 F   0  0  0  0  0  0  0  0  0  0  0  0
   -3.6820   -1.5140   -0.8760 F   0  0  0  0  0  0  0  0  0  0  0  0
    0.7580   -2.4080    0.5470 C   0  0  0  0  0  0  0  0  0  0  0  0
    2.0320   -2.1550    0.3250 C   0  0  0  0  0  0  0  0  0  0  0  0
    2.2520   -0.7500    0.0580 C   0  0  0  0  0  0  0  0  0  0  0  0
    3.5980   -0.2320   -0.2190 C   0  0  0  0  0  0  0  0  0  0  0  0
    3.6870    1.1940   -0.4710 C   0  0  0  0  0  0  0  0  0  0  0  0
    2.8910    2.1970   -0.5280 N   0  0  0  0  0  0  0  0  0  0  0  0
    1.4970    2.1500   -0.3240 C   0  0  0  0  0  0  0  0  0  0  0  0
  1  2  1  0
  2  3  1  0
  3  4  2  0
  3  8  1  0
  4  5  1  0
  5  6  1  0
  5 20  2  0
  6  7  1  0
  6 16  2  0
  7  8  2  0
  7 14  1  0
  8  9  1  0
  9 10  1  0
 10 11  1  1
 10 12  1  0
 10 13  1  0
 14 15  2  0
 15 16  1  0
 16 17  1  0
 17 18  1  0
 18 19  2  0
 19 20  1  0
M  END
