
     RDKit          3D

 10 10  0  0  0  0  0  0  0  0999 V2000
   -1.3640   -1.8690    0.8620 N   0  0  0  0  0  0  0  0  0  0  0  0
   -1.6520   -0.6720    0.1100 C   0  0  0  0  0  0  0  0  0  0  0  0
   -0.3860    0.1630   -0.1150 C   0  0  1  0  0  0  0  0  0  0  0  0
   -0.7630    1.3270   -1.0050 C   0  0  0  0  0  0  0  0  0  0  0  0
    0.3730    2.0510   -1.3440 O   0  0  0  0  0  0  0  0  0  0  0  0
    0.1400    0.6860    1.1770 C   0  0  0  0  0  0  0  0  0  0  0  0
    1.4800    0.9880    1.1670 O   0  0  0  0  0  0  0  0  0  0  0  0
    2.2740    0.0800    0.5150 C   0  0  0  0  0  0  0  0  0  0  0  0
    1.4590   -1.1130    0.0480 C   0  0  0  0  0  0  0  0  0  0  0  0
    0.4920   -0.6350   -0.8150 O   0  0  0  0  0  0  0  0  0  0  0  0
  1  2  1  0
  3  2  1  1
  3  4  1  0
  3  6  1  0
  3 10  1  0
  4  5  1  0
  6  7  1  0
  7  8  1  0
  8  9  1  0
  9 10  1  0
M  END
