
     RDKit          3D

 20 22  0  0  0  0  0  0  0  0999 V2000
   -4.1850    0.9830   -0.5420 N   0  0  0  0  0  0  0  0  0  0  0  0
   -2.8840    0.5350   -0.2570 C   0  0  0  0  0  0  0  0  0  0  0  0
   -1.8400    0.7020   -1.1340 C   0  0  0  0  0  0  0  0  0  0  0  0
   -0.5630    0.2620   -0.8540 C   0  0  0  0  0  0  0  0  0  0  0  0
   -0.3420   -0.3660    0.3550 C   0  0  0  0  0  0  0  0  0  0  0  0
   -1.3580   -0.5570    1.2670 C   0  0  0  0  0  0  0  0  0  0  0  0
   -1.1870   -1.1670    2.4620 F   0  0  0  0  0  0  0  0  0  0  0  0
   -2.6280   -0.0980    0.9420 C   0  0  0  0  0  0  0  0  0  0  0  0
   -3.7550   -0.2830    1.9000 C   0  0  2  0  0  0  0  0  0  0  0  0
   -4.7450   -1.0180    1.2930 F   0  0  0  0  0  0  0  0  0  0  0  0
   -4.2600    0.9270    2.3380 F   0  0  0  0  0  0  0  0  0  0  0  0
    0.8470   -0.8940    0.8630 O   0  0  0  0  0  0  0  0  0  0  0  0
    2.1700   -0.5690    0.5010 C   0  0  0  0  0  0  0  0  0  0  0  0
    3.1090   -1.1710    1.3200 C   0  0  0  0  0  0  0  0  0  0  0  0
    4.4540   -0.9590    1.1040 C   0  0  0  0  0  0  0  0  0  0  0  0
    4.8170   -0.1380    0.0590 C   0  0  0  0  0  0  0  0  0  0  0  0
    3.8700    0.4590   -0.7540 C   0  0  0  0  0  0  0  0  0  0  0  0
    2.5340    0.2530   -0.5460 C   0  0  0  0  0  0  0  0  0  0  0  0
    1.6880    0.9170   -1.4400 O   0  0  0  0  0  0  0  0  0  0  0  0
    0.4100    0.5420   -1.9320 C   0  0  0  0  0  0  0  0  0  0  0  0
  1  2  1  0
  2  3  2  0
  2  8  1  0
  3  4  1  0
  4  5  2  0
  4 20  1  0
  5  6  1  0
  5 12  1  0
  6  7  1  0
  6  8  2  0
  8  9  1  0
  9 10  1  6
  9 11  1  0
 12 13  1  0
 13 14  2  0
 13 18  1  0
 14 15  1  0
 15 16  2  0
 16 17  1  0
 17 18  2  0
 18 19  1  0
 19 20  1  0
M  END
