
     RDKit          3D

 20 20  0  0  0  0  0  0  0  0999 V2000
   -0.2280   -0.0750   -1.9060 N   0  0  0  0  0  0  0  0  0  0  0  0
    0.1120    0.0940   -0.5040 C   0  0  2  0  0  0  0  0  0  0  0  0
    1.2880   -0.6250   -0.2970 O   0  0  0  0  0  0  0  0  0  0  0  0
    2.3520    0.1540    0.0610 C   0  0  0  0  0  0  0  0  0  0  0  0
    3.5520   -0.7680    0.2560 C   0  0  2  0  0  0  0  0  0  0  0  0
    3.3390   -1.7160    1.2390 O   0  0  0  0  0  0  0  0  0  0  0  0
    4.7010    0.1200    0.7040 C   0  0  0  0  0  0  0  0  0  0  0  0
    4.8990    1.0660   -0.2980 O   0  0  0  0  0  0  0  0  0  0  0  0
   -0.9080   -0.4860    0.4170 C   0  0  1  0  0  0  0  0  0  0  0  0
   -0.2240   -0.4700    1.8080 C   0  0  0  0  0  0  0  0  0  0  0  0
   -1.0560   -1.1260    2.7290 O   0  0  0  0  0  0  0  0  0  0  0  0
   -2.1480    0.2810    0.6060 C   0  0  0  0  0  0  0  0  0  0  0  0
   -2.9150    0.7550   -0.5570 C   0  0  1  0  0  0  0  0  0  0  0  0
   -2.6230    2.1950   -0.9630 C   0  0  0  0  0  0  0  0  0  0  0  0
   -2.6560    3.0450    0.1400 O   0  0  0  0  0  0  0  0  0  0  0  0
   -2.8830   -0.1100   -1.6720 O   0  0  0  0  0  0  0  0  0  0  0  0
   -2.6280   -1.4850   -1.5890 C   0  0  0  0  0  0  0  0  0  0  0  0
   -2.8370   -2.0710   -2.6840 O   0  0  0  0  0  0  0  0  0  0  0  0
   -2.1710   -2.2680   -0.4290 C   0  0  0  0  0  0  0  0  0  0  0  0
   -1.0280   -1.8340    0.1560 O   0  0  0  0  0  0  0  0  0  0  0  0
  2  1  1  6
  2  3  1  0
  2  9  1  0
  3  4  1  0
  4  5  1  0
  5  6  1  1
  5  7  1  0
  7  8  1  0
  9 10  1  1
  9 12  1  0
  9 20  1  0
 10 11  1  0
 12 13  1  0
 13 14  1  6
 13 16  1  0
 14 15  1  0
 16 17  1  0
 17 18  2  0
 17 19  1  0
 19 20  1  0
M  END
