
     RDKit          3D

 21 21  0  0  0  0  0  0  0  0999 V2000
    4.4120   -0.4670    2.2750 N   0  0  0  0  0  0  0  0  0  0  0  0
    4.2410   -1.0830    1.0030 C   0  0  0  0  0  0  0  0  0  0  0  0
    4.4610   -2.3110    0.8240 O   0  0  0  0  0  0  0  0  0  0  0  0
    3.8220   -0.2700   -0.0370 O   0  0  0  0  0  0  0  0  0  0  0  0
    3.6330   -0.8110   -1.3210 C   0  0  0  0  0  0  0  0  0  0  0  0
    3.1760    0.2560   -2.2870 C   0  0  2  0  0  0  0  0  0  0  0  0
    4.1140    1.2880   -2.3440 O   0  0  0  0  0  0  0  0  0  0  0  0
    1.8480    0.7740   -1.8830 C   0  0  2  0  0  0  0  0  0  0  0  0
    1.3720    1.7570   -2.7720 O   0  0  0  0  0  0  0  0  0  0  0  0
    1.9240    1.3920   -0.6450 O   0  0  0  0  0  0  0  0  0  0  0  0
    0.9970    0.7700    0.1930 C   0  0  0  0  0  0  0  0  0  0  0  0
   -0.3010    0.9260   -0.3640 O   0  0  0  0  0  0  0  0  0  0  0  0
   -1.1680    0.2990    0.4950 C   0  0  2  0  0  0  0  0  0  0  0  0
   -2.0560   -0.7170   -0.1420 C   0  0  0  0  0  0  0  0  0  0  0  0
   -3.2520   -0.8070    0.7830 C   0  0  2  0  0  0  0  0  0  0  0  0
   -3.2780   -2.0830    1.3450 O   0  0  0  0  0  0  0  0  0  0  0  0
   -4.5060   -0.6510   -0.0520 C   0  0  0  0  0  0  0  0  0  0  0  0
   -5.6550   -0.7920    0.7110 O   0  0  0  0  0  0  0  0  0  0  0  0
   -3.0980    0.2810    1.8030 C   0  0  0  0  0  0  0  0  0  0  0  0
   -2.2040    1.2730    1.0680 C   0  0  2  0  0  0  0  0  0  0  0  0
   -2.8690    1.8240   -0.0010 O   0  0  0  0  0  0  0  0  0  0  0  0
  1  2  1  0
  2  3  2  0
  2  4  1  0
  4  5  1  0
  5  6  1  0
  6  7  1  1
  6  8  1  0
  8  9  1  6
  8 10  1  0
 10 11  1  0
 11 12  1  0
 13 12  1  6
 13 14  1  0
 13 20  1  0
 14 15  1  0
 15 16  1  1
 15 17  1  0
 15 19  1  0
 17 18  1  0
 19 20  1  0
 20 21  1  6
M  END
