
     RDKit          3D

 20 20  0  0  0  0  0  0  0  0999 V2000
    4.6360    0.2360    1.1120 C   0  0  0  0  0  0  0  0  0  0  0  0
    3.5680    0.7580    1.7760 O   0  0  0  0  0  0  0  0  0  0  0  0
    2.3930    0.9190    1.0290 C   0  0  0  0  0  0  0  0  0  0  0  0
    1.8960   -0.3840    0.5090 C   0  0  0  0  0  0  0  0  0  0  0  0
    0.6750   -0.4100   -0.3220 C   0  0  1  0  0  0  0  0  0  0  0  0
    1.0270    0.4390   -1.4670 O   0  0  0  0  0  0  0  0  0  0  0  0
    0.5970   -1.7750   -0.9710 C   0  0  0  0  0  0  0  0  0  0  0  0
    0.3100   -2.7750   -0.0930 O   0  0  0  0  0  0  0  0  0  0  0  0
   -0.5930    0.1550    0.1880 C   0  0  1  0  0  0  0  0  0  0  0  0
   -0.9880   -0.4820    1.4590 C   0  0  0  0  0  0  0  0  0  0  0  0
   -1.2930   -1.8100    1.7390 N   0  0  0  0  0  0  0  0  0  0  0  0
   -1.0580    0.3300    2.4640 O   0  0  0  0  0  0  0  0  0  0  0  0
   -0.5890    1.6440    0.2720 C   0  0  0  0  0  0  0  0  0  0  0  0
   -1.6040    2.3760   -0.2020 O   0  0  0  0  0  0  0  0  0  0  0  0
   -2.5280    1.8970   -1.0470 C   0  0  2  0  0  0  0  0  0  0  0  0
   -3.6840    2.6800   -0.9700 O   0  0  0  0  0  0  0  0  0  0  0  0
   -2.9020    0.5040   -0.5170 C   0  0  1  0  0  0  0  0  0  0  0  0
   -4.0380    0.0170   -1.1070 O   0  0  0  0  0  0  0  0  0  0  0  0
   -1.6650   -0.3150   -0.8380 C   0  0  2  0  0  0  0  0  0  0  0  0
   -1.8970   -1.6520   -0.7430 O   0  0  0  0  0  0  0  0  0  0  0  0
  1  2  1  0
  2  3  1  0
  3  4  1  0
  4  5  1  0
  5  6  1  6
  5  7  1  0
  5  9  1  0
  7  8  1  0
  9 10  1  1
  9 13  1  0
  9 19  1  0
 10 11  1  0
 10 12  2  0
 13 14  1  0
 14 15  1  0
 15 16  1  1
 15 17  1  0
 17 18  1  6
 17 19  1  0
 19 20  1  1
M  END
