
     RDKit          3D

 20 21  0  0  0  0  0  0  0  0999 V2000
   -0.9230   -2.7030   -0.4230 N   0  0  0  0  0  0  0  0  0  0  0  0
   -1.0490   -1.9190    0.7690 C   0  0  2  0  0  0  0  0  0  0  0  0
   -2.2190   -2.2220    1.4390 O   0  0  0  0  0  0  0  0  0  0  0  0
   -0.9460   -0.4090    0.4900 C   0  0  2  0  0  0  0  0  0  0  0  0
   -2.1360   -0.0440   -0.3080 C   0  0  1  0  0  0  0  0  0  0  0  0
   -3.3080   -0.5020    0.3000 O   0  0  0  0  0  0  0  0  0  0  0  0
   -2.3260    1.4730   -0.4420 C   0  0  0  0  0  0  0  0  0  0  0  0
   -3.3810    1.4600   -1.5340 C   0  0  0  0  0  0  0  0  0  0  0  0
   -3.3000    0.2730   -2.2020 O   0  0  0  0  0  0  0  0  0  0  0  0
   -2.1750   -0.4260   -1.7360 C   0  0  0  0  0  0  0  0  0  0  0  0
    0.3720   -0.1620   -0.1400 C   0  0  0  0  0  0  0  0  0  0  0  0
    0.9810    1.1710    0.1360 C   0  0  2  0  0  0  0  0  0  0  0  0
    2.4700    1.0370    0.4850 C   0  0  0  0  0  0  0  0  0  0  0  0
    3.1360    0.3480   -0.5400 O   0  0  0  0  0  0  0  0  0  0  0  0
    4.4640    0.2310   -0.2240 C   0  0  1  0  0  0  0  0  0  0  0  0
    4.8490   -1.1240   -0.1140 O   0  0  0  0  0  0  0  0  0  0  0  0
    5.2990    0.7710   -1.2140 O   0  0  0  0  0  0  0  0  0  0  0  0
    0.3960    1.8520    1.1810 O   0  0  0  0  0  0  0  0  0  0  0  0
   -0.0120    0.9270    2.1390 C   0  0  0  0  0  0  0  0  0  0  0  0
   -1.0870    0.1870    1.7440 O   0  0  0  0  0  0  0  0  0  0  0  0
  2  1  1  6
  2  3  1  0
  2  4  1  0
  4  5  1  0
  4 11  1  6
  4 20  1  0
  5  6  1  1
  5  7  1  0
  5 10  1  0
  7  8  1  0
  8  9  1  0
  9 10  1  0
 11 12  1  0
 12 13  1  1
 12 18  1  0
 13 14  1  0
 14 15  1  0
 15 16  1  6
 15 17  1  0
 18 19  1  0
 19 20  1  0
M  END
