
     RDKit          3D

 21 21  0  0  0  0  0  0  0  0999 V2000
   -2.5050   -1.3560    0.2820 C   0  0  0  0  0  0  0  0  0  0  0  0
   -1.8050   -0.3640   -0.6120 C   0  0  1  0  0  0  0  0  0  0  0  0
   -0.4440    0.0350   -0.0680 C   0  0  2  0  0  0  0  0  0  0  0  0
    0.0800    0.9510   -1.0050 O   0  0  0  0  0  0  0  0  0  0  0  0
    0.4790   -1.1220    0.0430 C   0  0  0  0  0  0  0  0  0  0  0  0
    1.8410   -0.8560    0.5740 C   0  0  2  0  0  0  0  0  0  0  0  0
    2.5530   -2.0920    0.5980 O   0  0  0  0  0  0  0  0  0  0  0  0
    1.9110   -0.2880    1.9180 C   0  0  0  0  0  0  0  0  0  0  0  0
    1.3370    0.9650    2.2820 N   0  0  0  0  0  0  0  0  0  0  0  0
    2.5050   -0.9100    2.8400 O   0  0  0  0  0  0  0  0  0  0  0  0
    2.6610   -0.0040   -0.4060 C   0  0  2  0  0  0  0  0  0  0  0  0
    2.6460   -0.6470   -1.6260 O   0  0  0  0  0  0  0  0  0  0  0  0
    4.0880   -0.0250    0.0860 C   0  0  0  0  0  0  0  0  0  0  0  0
    4.9770   -0.5610   -0.5990 O   0  0  0  0  0  0  0  0  0  0  0  0
    4.4180    0.5620    1.3170 O   0  0  0  0  0  0  0  0  0  0  0  0
   -1.6750   -0.9510   -1.8650 O   0  0  0  0  0  0  0  0  0  0  0  0
   -2.1620   -0.0980   -2.8190 C   0  0  0  0  0  0  0  0  0  0  0  0
   -2.4980    1.0980   -2.1920 O   0  0  0  0  0  0  0  0  0  0  0  0
   -2.7030    0.7890   -0.8530 C   0  0  2  0  0  0  0  0  0  0  0  0
   -2.4830    1.9750    0.0200 C   0  0  0  0  0  0  0  0  0  0  0  0
   -3.4080    2.9650   -0.3900 O   0  0  0  0  0  0  0  0  0  0  0  0
  2  1  1  1
  2  3  1  0
  2 16  1  0
  2 19  1  0
  3  4  1  6
  3  5  1  0
  5  6  1  0
  6  7  1  1
  6  8  1  0
  6 11  1  0
  8  9  1  0
  8 10  2  0
 11 12  1  6
 11 13  1  0
 13 14  2  0
 13 15  1  0
 16 17  1  0
 17 18  1  0
 18 19  1  0
 19 20  1  1
 20 21  1  0
M  END
