
     RDKit          3D

 21 21  0  0  0  0  0  0  0  0999 V2000
   -2.9100   -3.4490   -0.5380 C   0  0  0  0  0  0  0  0  0  0  0  0
   -2.4940   -2.1200   -0.0070 C   0  0  0  0  0  0  0  0  0  0  0  0
   -2.8980   -1.7370    1.1190 O   0  0  0  0  0  0  0  0  0  0  0  0
   -1.6420   -1.2340   -0.7190 N   0  0  0  0  0  0  0  0  0  0  0  0
   -1.2510    0.0260   -0.2100 C   0  0  2  0  0  0  0  0  0  0  0  0
   -1.7250    1.2010   -1.0660 C   0  0  1  0  0  0  0  0  0  0  0  0
   -3.0570    1.1410   -1.3470 O   0  0  0  0  0  0  0  0  0  0  0  0
   -1.4040    2.4410   -0.2190 C   0  0  0  0  0  0  0  0  0  0  0  0
    0.0440    2.4550    0.1880 C   0  0  1  0  0  0  0  0  0  0  0  0
    0.8170    2.6940   -0.9400 O   0  0  0  0  0  0  0  0  0  0  0  0
    0.2280    3.5590    1.1570 C   0  0  0  0  0  0  0  0  0  0  0  0
   -0.3600    3.5860    2.2610 O   0  0  0  0  0  0  0  0  0  0  0  0
    1.0800    4.5970    0.8280 O   0  0  0  0  0  0  0  0  0  0  0  0
    0.4560    1.2660    0.7780 O   0  0  0  0  0  0  0  0  0  0  0  0
    0.2410    0.2160   -0.0920 C   0  0  1  0  0  0  0  0  0  0  0  0
    0.9510   -1.0460    0.3110 C   0  0  2  0  0  0  0  0  0  0  0  0
    0.5560   -1.5030    1.5580 O   0  0  0  0  0  0  0  0  0  0  0  0
    2.4360   -0.9200    0.2830 C   0  0  2  0  0  0  0  0  0  0  0  0
    2.9300   -0.4680   -0.9270 O   0  0  0  0  0  0  0  0  0  0  0  0
    3.0210   -2.2820    0.6520 C   0  0  0  0  0  0  0  0  0  0  0  0
    4.4140   -2.2020    0.7570 O   0  0  0  0  0  0  0  0  0  0  0  0
  1  2  1  0
  2  3  2  0
  2  4  1  0
  5  4  1  6
  5  6  1  0
  5 15  1  0
  6  7  1  1
  6  8  1  0
  8  9  1  0
  9 10  1  6
  9 11  1  0
  9 14  1  0
 11 12  2  0
 11 13  1  0
 15 14  1  1
 15 16  1  0
 16 17  1  1
 16 18  1  0
 18 19  1  6
 18 20  1  0
 20 21  1  0
M  END
