
     RDKit          3D

 20 20  0  0  0  0  0  0  0  0999 V2000
    3.9710    0.1690   -1.7900 N   0  0  0  0  0  0  0  0  0  0  0  0
    3.6590   -0.2110   -0.4170 C   0  0  1  0  0  0  0  0  0  0  0  0
    4.0290    0.7400    0.4920 O   0  0  0  0  0  0  0  0  0  0  0  0
    5.0130    0.2130    1.3200 C   0  0  0  0  0  0  0  0  0  0  0  0
    4.6000   -0.9140    2.0270 O   0  0  0  0  0  0  0  0  0  0  0  0
    2.2080   -0.5810   -0.3960 C   0  0  1  0  0  0  0  0  0  0  0  0
    1.9900   -1.6380   -1.2590 O   0  0  0  0  0  0  0  0  0  0  0  0
    1.6480   -0.8500    0.9710 C   0  0  0  0  0  0  0  0  0  0  0  0
    0.2770   -0.6270    0.8940 O   0  0  0  0  0  0  0  0  0  0  0  0
    0.0090    0.1230   -0.2230 C   0  0  1  0  0  0  0  0  0  0  0  0
   -0.9740    1.2180   -0.0120 C   0  0  0  0  0  0  0  0  0  0  0  0
   -2.2960    0.5230    0.4600 C   0  0  1  0  0  0  0  0  0  0  0  0
   -1.9140   -0.1410    1.6550 O   0  0  0  0  0  0  0  0  0  0  0  0
   -3.2420    1.6390    0.7680 C   0  0  0  0  0  0  0  0  0  0  0  0
   -3.6460    2.2960   -0.4080 O   0  0  0  0  0  0  0  0  0  0  0  0
   -2.7210   -0.3260   -0.4700 O   0  0  0  0  0  0  0  0  0  0  0  0
   -3.7260   -1.1810   -0.3880 C   0  0  0  0  0  0  0  0  0  0  0  0
   -5.1280   -0.7490   -0.1770 C   0  0  0  0  0  0  0  0  0  0  0  0
   -5.6210    0.0950   -1.1690 O   0  0  0  0  0  0  0  0  0  0  0  0
    1.3230    0.6090   -0.8000 C   0  0  0  0  0  0  0  0  0  0  0  0
  2  1  1  6
  2  3  1  0
  2  6  1  0
  3  4  1  0
  4  5  1  0
  6  7  1  6
  6  8  1  0
  6 20  1  0
  8  9  1  0
  9 10  1  0
 10 11  1  1
 10 20  1  0
 11 12  1  0
 12 13  1  1
 12 14  1  0
 12 16  1  0
 14 15  1  0
 16 17  1  0
 17 18  1  0
 18 19  1  0
M  END
