
     RDKit          3D

 21 21  0  0  0  0  0  0  0  0999 V2000
   -5.1090    1.2870    0.5770 O   0  0  0  0  0  0  0  0  0  0  0  0
   -3.9960    1.8550    0.4170 C   0  0  0  0  0  0  0  0  0  0  0  0
   -3.9470    3.2470    0.3140 O   0  0  0  0  0  0  0  0  0  0  0  0
   -2.7740    1.1080    0.3370 N   0  0  0  0  0  0  0  0  0  0  0  0
   -2.8290   -0.3050    0.4430 C   0  0  0  0  0  0  0  0  0  0  0  0
   -3.9900   -0.8180    0.6000 O   0  0  0  0  0  0  0  0  0  0  0  0
   -1.5920   -1.1290    0.3730 C   0  0  2  0  0  0  0  0  0  0  0  0
   -0.6290   -0.9070    1.4870 C   0  0  1  0  0  0  0  0  0  0  0  0
    0.1360   -2.0950    1.6010 O   0  0  0  0  0  0  0  0  0  0  0  0
    0.3460    0.1930    1.2970 C   0  0  0  0  0  0  0  0  0  0  0  0
    1.0080    0.0870   -0.0240 C   0  0  2  0  0  0  0  0  0  0  0  0
    1.7420    1.2530   -0.2420 O   0  0  0  0  0  0  0  0  0  0  0  0
    3.0870    1.0020   -0.3460 C   0  0  1  0  0  0  0  0  0  0  0  0
    3.5570    1.4700   -1.5700 O   0  0  0  0  0  0  0  0  0  0  0  0
    3.8370    1.6900    0.7750 C   0  0  0  0  0  0  0  0  0  0  0  0
    5.1980    1.4570    0.7010 O   0  0  0  0  0  0  0  0  0  0  0  0
    0.1070   -0.1180   -1.1910 C   0  0  0  0  0  0  0  0  0  0  0  0
   -0.9790   -1.1220   -0.9960 C   0  0  2  0  0  0  0  0  0  0  0  0
   -2.0000   -0.8360   -1.9050 O   0  0  0  0  0  0  0  0  0  0  0  0
   -0.4650   -2.5040   -1.3520 C   0  0  0  0  0  0  0  0  0  0  0  0
   -1.5720   -3.3710   -1.2180 O   0  0  0  0  0  0  0  0  0  0  0  0
  1  2  2  0
  2  3  1  0
  2  4  1  0
  4  5  1  0
  5  6  2  0
  7  5  1  6
  7  8  1  0
  7 18  1  0
  8  9  1  6
  8 10  1  0
 10 11  1  0
 11 12  1  6
 11 17  1  0
 12 13  1  0
 13 14  1  6
 13 15  1  0
 15 16  1  0
 17 18  1  0
 18 19  1  6
 18 20  1  0
 20 21  1  0
M  END
