
     RDKit          3D

 21 21  0  0  0  0  0  0  0  0999 V2000
   -1.7780    1.2870   -1.9140 C   0  0  0  0  0  0  0  0  0  0  0  0
   -1.8250    0.7730   -0.4950 C   0  0  1  0  0  0  0  0  0  0  0  0
   -0.4920    0.7070    0.1550 C   0  0  2  0  0  0  0  0  0  0  0  0
    0.0740    1.9940    0.2460 O   0  0  0  0  0  0  0  0  0  0  0  0
    0.4570   -0.2330   -0.5440 C   0  0  0  0  0  0  0  0  0  0  0  0
    1.8070   -0.2920    0.1260 C   0  0  2  0  0  0  0  0  0  0  0  0
    1.5940   -0.7360    1.4280 O   0  0  0  0  0  0  0  0  0  0  0  0
    2.5030    0.9890    0.1640 C   0  0  0  0  0  0  0  0  0  0  0  0
    2.8520    1.5650    1.4130 N   0  0  0  0  0  0  0  0  0  0  0  0
    2.8310    1.6510   -0.8650 O   0  0  0  0  0  0  0  0  0  0  0  0
    2.5980   -1.3610   -0.6220 C   0  0  2  0  0  0  0  0  0  0  0  0
    1.8450   -2.5100   -0.6080 O   0  0  0  0  0  0  0  0  0  0  0  0
    3.9230   -1.5800   -0.0450 C   0  0  0  0  0  0  0  0  0  0  0  0
    4.2270   -2.7210    0.3800 O   0  0  0  0  0  0  0  0  0  0  0  0
    4.8800   -0.5850    0.0610 O   0  0  0  0  0  0  0  0  0  0  0  0
   -2.7410    1.5670    0.1860 O   0  0  0  0  0  0  0  0  0  0  0  0
   -3.9990    1.1280   -0.2240 C   0  0  0  0  0  0  0  0  0  0  0  0
   -3.8350   -0.0230   -0.9680 O   0  0  0  0  0  0  0  0  0  0  0  0
   -2.5850   -0.5340   -0.5280 C   0  0  2  0  0  0  0  0  0  0  0  0
   -2.8560   -1.0630    0.8590 C   0  0  0  0  0  0  0  0  0  0  0  0
   -1.7530   -1.6240    1.4760 O   0  0  0  0  0  0  0  0  0  0  0  0
  2  1  1  6
  2  3  1  0
  2 16  1  0
  2 19  1  0
  3  4  1  6
  3  5  1  0
  5  6  1  0
  6  7  1  1
  6  8  1  0
  6 11  1  0
  8  9  1  0
  8 10  2  0
 11 12  1  1
 11 13  1  0
 13 14  2  0
 13 15  1  0
 16 17  1  0
 17 18  1  0
 18 19  1  0
 19 20  1  1
 20 21  1  0
M  END
