
     RDKit          3D

 20 20  0  0  0  0  0  0  0  0999 V2000
    0.2350    0.0800    2.5440 N   0  0  0  0  0  0  0  0  0  0  0  0
    0.5600   -0.3180    1.1960 C   0  0  2  0  0  0  0  0  0  0  0  0
    1.4480    0.5230    0.5730 O   0  0  0  0  0  0  0  0  0  0  0  0
    2.5920   -0.1760    0.2400 C   0  0  0  0  0  0  0  0  0  0  0  0
    3.6190    0.6950   -0.4530 C   0  0  2  0  0  0  0  0  0  0  0  0
    3.1400    1.2420   -1.6320 O   0  0  0  0  0  0  0  0  0  0  0  0
    4.7770   -0.2260   -0.8350 C   0  0  0  0  0  0  0  0  0  0  0  0
    4.3510   -1.2310   -1.6890 O   0  0  0  0  0  0  0  0  0  0  0  0
   -0.7130   -0.5110    0.3500 C   0  0  1  0  0  0  0  0  0  0  0  0
   -1.5000   -1.5850    1.0630 C   0  0  0  0  0  0  0  0  0  0  0  0
   -0.6430   -2.6770    1.2200 O   0  0  0  0  0  0  0  0  0  0  0  0
   -1.4450    0.7900    0.2360 C   0  0  0  0  0  0  0  0  0  0  0  0
   -2.9430    0.6210    0.1930 C   0  0  1  0  0  0  0  0  0  0  0  0
   -3.5510    1.9830   -0.0960 C   0  0  0  0  0  0  0  0  0  0  0  0
   -3.1980    2.9170    0.8780 O   0  0  0  0  0  0  0  0  0  0  0  0
   -3.3590   -0.2440   -0.8430 O   0  0  0  0  0  0  0  0  0  0  0  0
   -2.5080   -0.9340   -1.6960 C   0  0  0  0  0  0  0  0  0  0  0  0
   -3.1260   -1.7860   -2.3870 O   0  0  0  0  0  0  0  0  0  0  0  0
   -1.0850   -0.8580   -1.9320 C   0  0  0  0  0  0  0  0  0  0  0  0
   -0.2530   -0.8800   -0.8760 O   0  0  0  0  0  0  0  0  0  0  0  0
  2  1  1  1
  2  3  1  0
  2  9  1  0
  3  4  1  0
  4  5  1  0
  5  6  1  6
  5  7  1  0
  7  8  1  0
  9 10  1  1
  9 12  1  0
  9 20  1  0
 10 11  1  0
 12 13  1  0
 13 14  1  6
 13 16  1  0
 14 15  1  0
 16 17  1  0
 17 18  2  0
 17 19  1  0
 19 20  1  0
M  END
