
     RDKit          3D

 20 20  0  0  0  0  0  0  0  0999 V2000
   -3.9020   -0.9970   -1.9230 N   0  0  0  0  0  0  0  0  0  0  0  0
   -3.6210   -0.1210   -0.7790 C   0  0  1  0  0  0  0  0  0  0  0  0
   -4.1290   -0.6720    0.3610 O   0  0  0  0  0  0  0  0  0  0  0  0
   -5.2020    0.0730    0.8310 C   0  0  0  0  0  0  0  0  0  0  0  0
   -4.8940    1.3840    1.1360 O   0  0  0  0  0  0  0  0  0  0  0  0
   -2.1830    0.2570   -0.7590 C   0  0  1  0  0  0  0  0  0  0  0  0
   -1.8390    0.9440   -1.9250 O   0  0  0  0  0  0  0  0  0  0  0  0
   -1.6910    0.9260    0.4780 C   0  0  0  0  0  0  0  0  0  0  0  0
   -0.3610    0.5590    0.6530 O   0  0  0  0  0  0  0  0  0  0  0  0
    0.0350   -0.2590   -0.3650 C   0  0  1  0  0  0  0  0  0  0  0  0
    1.0930   -1.2470   -0.0440 C   0  0  0  0  0  0  0  0  0  0  0  0
    2.4030   -0.6340    0.4180 C   0  0  1  0  0  0  0  0  0  0  0  0
    2.2770    0.1290    1.5670 O   0  0  0  0  0  0  0  0  0  0  0  0
    3.2890   -1.8500    0.7400 C   0  0  0  0  0  0  0  0  0  0  0  0
    4.5380   -1.4670    1.1830 O   0  0  0  0  0  0  0  0  0  0  0  0
    2.8830    0.1190   -0.6030 O   0  0  0  0  0  0  0  0  0  0  0  0
    4.0910    0.7130   -0.5080 C   0  0  0  0  0  0  0  0  0  0  0  0
    4.3020    1.7130    0.5820 C   0  0  0  0  0  0  0  0  0  0  0  0
    3.4340    2.8180    0.5090 O   0  0  0  0  0  0  0  0  0  0  0  0
   -1.2700   -0.9850   -0.7370 C   0  0  0  0  0  0  0  0  0  0  0  0
  2  1  1  6
  2  3  1  0
  2  6  1  0
  3  4  1  0
  4  5  1  0
  6  7  1  6
  6  8  1  0
  6 20  1  0
  8  9  1  0
  9 10  1  0
 10 11  1  1
 10 20  1  0
 11 12  1  0
 12 13  1  1
 12 14  1  0
 12 16  1  0
 14 15  1  0
 16 17  1  0
 17 18  1  0
 18 19  1  0
M  END
