
     RDKit          3D

 21 21  0  0  0  0  0  0  0  0999 V2000
    5.0760   -0.0530   -3.7040 N   0  0  0  0  0  0  0  0  0  0  0  0
    3.8080   -0.6050   -3.3360 C   0  0  0  0  0  0  0  0  0  0  0  0
    3.6980   -1.8430   -3.1940 O   0  0  0  0  0  0  0  0  0  0  0  0
    2.7560    0.2490   -3.1540 O   0  0  0  0  0  0  0  0  0  0  0  0
    1.4660   -0.1620   -2.7900 C   0  0  0  0  0  0  0  0  0  0  0  0
    1.4350   -0.8550   -1.4370 C   0  0  2  0  0  0  0  0  0  0  0  0
    0.1390   -1.2200   -1.1730 O   0  0  0  0  0  0  0  0  0  0  0  0
    1.9910    0.0340   -0.3840 C   0  0  2  0  0  0  0  0  0  0  0  0
    3.3460    0.2890   -0.7800 O   0  0  0  0  0  0  0  0  0  0  0  0
    1.9770   -0.5050    0.8620 O   0  0  0  0  0  0  0  0  0  0  0  0
    1.5760    0.2720    1.9090 C   0  0  0  0  0  0  0  0  0  0  0  0
    0.3440    0.7890    1.8880 O   0  0  0  0  0  0  0  0  0  0  0  0
   -0.7660    0.0310    1.8290 C   0  0  2  0  0  0  0  0  0  0  0  0
   -1.7430    0.6390    0.8610 C   0  0  0  0  0  0  0  0  0  0  0  0
   -2.9830   -0.1820    1.1430 C   0  0  2  0  0  0  0  0  0  0  0  0
   -2.8660   -1.4170    0.5500 O   0  0  0  0  0  0  0  0  0  0  0  0
   -4.1600    0.5750    0.5910 C   0  0  0  0  0  0  0  0  0  0  0  0
   -3.9730    0.7400   -0.7810 O   0  0  0  0  0  0  0  0  0  0  0  0
   -2.9840   -0.2370    2.6570 C   0  0  0  0  0  0  0  0  0  0  0  0
   -1.5980    0.1280    3.1280 C   0  0  2  0  0  0  0  0  0  0  0  0
   -1.6050    1.3970    3.6450 O   0  0  0  0  0  0  0  0  0  0  0  0
  1  2  1  0
  2  3  2  0
  2  4  1  0
  4  5  1  0
  5  6  1  0
  6  7  1  1
  6  8  1  0
  8  9  1  6
  8 10  1  0
 10 11  1  0
 11 12  1  0
 13 12  1  1
 13 14  1  0
 13 20  1  0
 14 15  1  0
 15 16  1  6
 15 17  1  0
 15 19  1  0
 17 18  1  0
 19 20  1  0
 20 21  1  6
M  END
