
     RDKit          3D

 21 21  0  0  0  0  0  0  0  0999 V2000
    3.9780   -1.4090    1.2700 C   0  0  0  0  0  0  0  0  0  0  0  0
    2.6700   -1.4980    0.5760 C   0  0  0  0  0  0  0  0  0  0  0  0
    2.2710   -2.6290    0.2320 O   0  0  0  0  0  0  0  0  0  0  0  0
    1.8620   -0.3700    0.2910 N   0  0  0  0  0  0  0  0  0  0  0  0
    0.5750   -0.4260   -0.3800 C   0  0  2  0  0  0  0  0  0  0  0  0
    0.8070   -0.1520   -1.8690 C   0  0  1  0  0  0  0  0  0  0  0  0
   -0.0940   -0.8990   -2.6330 O   0  0  0  0  0  0  0  0  0  0  0  0
    0.6440    1.2740   -2.2580 C   0  0  0  0  0  0  0  0  0  0  0  0
   -0.2870    2.0810   -1.4260 C   0  0  1  0  0  0  0  0  0  0  0  0
    0.3660    2.9760   -0.5800 O   0  0  0  0  0  0  0  0  0  0  0  0
   -1.1410    2.8950   -2.3280 C   0  0  0  0  0  0  0  0  0  0  0  0
   -1.8360    2.3120   -3.1920 O   0  0  0  0  0  0  0  0  0  0  0  0
   -1.1960    4.2690   -2.2480 O   0  0  0  0  0  0  0  0  0  0  0  0
   -1.1240    1.2250   -0.7440 O   0  0  0  0  0  0  0  0  0  0  0  0
   -0.4580    0.4470    0.2130 C   0  0  1  0  0  0  0  0  0  0  0  0
   -1.5850   -0.2970    0.8930 C   0  0  2  0  0  0  0  0  0  0  0  0
   -2.5160    0.6680    1.4040 O   0  0  0  0  0  0  0  0  0  0  0  0
   -1.1810   -1.0850    2.1070 C   0  0  2  0  0  0  0  0  0  0  0  0
   -0.2990   -2.0780    1.7480 O   0  0  0  0  0  0  0  0  0  0  0  0
   -2.4230   -1.7960    2.6590 C   0  0  0  0  0  0  0  0  0  0  0  0
   -2.9430   -2.6130    1.6420 O   0  0  0  0  0  0  0  0  0  0  0  0
  1  2  1  0
  2  3  2  0
  2  4  1  0
  5  4  1  1
  5  6  1  0
  5 15  1  0
  6  7  1  6
  6  8  1  0
  8  9  1  0
  9 10  1  1
  9 11  1  0
  9 14  1  0
 11 12  2  0
 11 13  1  0
 15 14  1  6
 15 16  1  0
 16 17  1  1
 16 18  1  0
 18 19  1  6
 18 20  1  0
 20 21  1  0
M  END
