
     RDKit          3D

 20 20  0  0  0  0  0  0  0  0999 V2000
    5.2850    0.6370    0.3840 C   0  0  0  0  0  0  0  0  0  0  0  0
    3.9600    0.8020    0.7810 O   0  0  0  0  0  0  0  0  0  0  0  0
    3.0850    0.1390   -0.0960 C   0  0  0  0  0  0  0  0  0  0  0  0
    1.6810    0.3800    0.4230 C   0  0  0  0  0  0  0  0  0  0  0  0
    0.6320   -0.2630   -0.4210 C   0  0  1  0  0  0  0  0  0  0  0  0
    0.7120    0.2550   -1.7180 O   0  0  0  0  0  0  0  0  0  0  0  0
    0.9450   -1.7570   -0.5440 C   0  0  0  0  0  0  0  0  0  0  0  0
    0.0540   -2.4340   -1.3600 O   0  0  0  0  0  0  0  0  0  0  0  0
   -0.7610   -0.0420    0.0910 C   0  0  1  0  0  0  0  0  0  0  0  0
   -0.9550   -0.6120    1.4480 C   0  0  0  0  0  0  0  0  0  0  0  0
   -0.3300   -0.1120    2.6110 N   0  0  0  0  0  0  0  0  0  0  0  0
   -1.7230   -1.6170    1.6380 O   0  0  0  0  0  0  0  0  0  0  0  0
   -1.0520    1.4510    0.2580 C   0  0  0  0  0  0  0  0  0  0  0  0
   -2.2860    1.6190    0.9160 O   0  0  0  0  0  0  0  0  0  0  0  0
   -3.3460    1.1220    0.1810 C   0  0  2  0  0  0  0  0  0  0  0  0
   -4.0830    0.2770    1.0410 O   0  0  0  0  0  0  0  0  0  0  0  0
   -2.9700    0.3830   -1.0540 C   0  0  1  0  0  0  0  0  0  0  0  0
   -2.7450    1.2370   -2.1480 O   0  0  0  0  0  0  0  0  0  0  0  0
   -1.8280   -0.5590   -0.8340 C   0  0  2  0  0  0  0  0  0  0  0  0
   -2.3260   -1.7900   -0.4500 O   0  0  0  0  0  0  0  0  0  0  0  0
  1  2  1  0
  2  3  1  0
  3  4  1  0
  4  5  1  0
  5  6  1  6
  5  7  1  0
  5  9  1  0
  7  8  1  0
  9 10  1  1
  9 13  1  0
  9 19  1  0
 10 11  1  0
 10 12  2  0
 13 14  1  0
 14 15  1  0
 15 16  1  1
 15 17  1  0
 17 18  1  6
 17 19  1  0
 19 20  1  1
M  END
