
     RDKit          3D

 21 21  0  0  0  0  0  0  0  0999 V2000
   -2.2930   -2.9570   -0.0770 C   0  0  0  0  0  0  0  0  0  0  0  0
   -0.9710   -2.1950   -0.2370 C   0  0  2  0  0  0  0  0  0  0  0  0
   -0.4630   -2.5490   -1.4620 O   0  0  0  0  0  0  0  0  0  0  0  0
   -0.1040   -2.5490    0.7980 O   0  0  0  0  0  0  0  0  0  0  0  0
   -0.3010   -1.7360    1.9160 C   0  0  0  0  0  0  0  0  0  0  0  0
    0.2590   -0.3320    1.6580 C   0  0  2  0  0  0  0  0  0  0  0  0
   -0.3100    0.5120    2.6300 O   0  0  0  0  0  0  0  0  0  0  0  0
   -0.0420    0.0980    0.2630 C   0  0  2  0  0  0  0  0  0  0  0  0
    1.1030   -0.1150   -0.6830 C   0  0  0  0  0  0  0  0  0  0  0  0
    2.3380    0.6300   -0.3120 C   0  0  0  0  0  0  0  0  0  0  0  0
    3.4520    0.3980   -1.2700 C   0  0  0  0  0  0  0  0  0  0  0  0
    3.3840   -0.3370   -2.2830 O   0  0  0  0  0  0  0  0  0  0  0  0
    4.6540    1.0420   -1.0240 O   0  0  0  0  0  0  0  0  0  0  0  0
    5.6880    0.8700   -1.8510 O   0  0  0  0  0  0  0  0  0  0  0  0
   -0.4670    1.5470    0.1730 C   0  0  0  0  0  0  0  0  0  0  0  0
   -1.6530    1.8470    0.9270 N   0  0  0  0  0  0  0  0  0  0  0  0
   -2.0990    3.2160    0.8730 C   0  0  0  0  0  0  0  0  0  0  0  0
   -1.4800    4.0860    0.2030 O   0  0  0  0  0  0  0  0  0  0  0  0
   -3.2360    3.6040    1.5700 O   0  0  0  0  0  0  0  0  0  0  0  0
   -1.2450   -0.7230   -0.2130 C   0  0  1  0  0  0  0  0  0  0  0  0
   -1.6580   -0.2420   -1.4610 O   0  0  0  0  0  0  0  0  0  0  0  0
  2  1  1  1
  2  3  1  0
  2  4  1  0
  2 20  1  0
  4  5  1  0
  5  6  1  0
  6  7  1  1
  6  8  1  0
  8  9  1  6
  8 15  1  0
  8 20  1  0
  9 10  1  0
 10 11  1  0
 11 12  2  0
 11 13  1  0
 13 14  1  0
 15 16  1  0
 16 17  1  0
 17 18  2  0
 17 19  1  0
 20 21  1  6
M  END
