
     RDKit          3D

 28 30  0  0  0  0  0  0  0  0999 V2000
   -3.2160    1.9610   -0.2720 C   0  0  0  0  0  0  0  0  0  0  0  0
   -3.4480    0.4650   -0.0490 C   0  0  2  0  0  0  0  0  0  0  0  0
   -4.8480    0.2790   -0.1780 O   0  0  0  0  0  0  0  0  0  0  0  0
   -3.0980    0.1600    1.3580 C   0  0  0  0  0  0  0  0  0  0  0  0
   -1.2550    0.0880    1.6370 P   0  0  0  0  0  0  0  0  0  0  0  0
   -0.9590   -1.1550    2.8180 O   0  0  0  0  0  0  0  0  0  0  0  0
   -0.9980   -0.7080    4.0460 O   0  0  0  0  0  0  0  0  0  0  0  0
   -0.5470   -0.4320    0.0150 C   0  0  0  0  0  0  0  0  0  0  0  0
   -1.4200   -0.5440   -1.0310 C   0  0  0  0  0  0  0  0  0  0  0  0
   -0.6700   -0.9590   -2.0950 C   0  0  0  0  0  0  0  0  0  0  0  0
    0.5790   -1.0760   -1.6800 N   0  0  0  0  0  0  0  0  0  0  0  0
    0.6990   -0.7590   -0.3780 N   0  0  0  0  0  0  0  0  0  0  0  0
    1.8710   -0.7630    0.3570 N   0  0  0  0  0  0  0  0  0  0  0  0
    2.2260   -1.6810    1.3530 C   0  0  0  0  0  0  0  0  0  0  0  0
    1.4530   -2.6260    1.6320 O   0  0  0  0  0  0  0  0  0  0  0  0
    2.8350    0.2940    0.0290 C   0  0  2  0  0  0  0  0  0  0  0  0
    3.2740    0.7860    1.2560 O   0  0  0  0  0  0  0  0  0  0  0  0
    2.3030    1.2810   -0.7740 O   0  0  0  0  0  0  0  0  0  0  0  0
    3.9560   -0.3260   -0.5890 O   0  0  0  0  0  0  0  0  0  0  0  0
    4.8580    0.5190   -0.9540 O   0  0  0  0  0  0  0  0  0  0  0  0
    6.0490    0.8050    0.2550 P   0  0  0  0  0  0  0  0  0  0  0  0
    5.7180   -0.0220    1.7330 O   0  0  0  0  0  0  0  0  0  0  0  0
    6.1490    2.5220    0.5020 O   0  0  0  0  0  0  0  0  0  0  0  0
   -1.4050   -1.1760   -3.3530 C   0  0  0  0  0  0  0  0  0  0  0  0
   -0.7090   -1.5570   -4.3360 O   0  0  0  0  0  0  0  0  0  0  0  0
   -2.7490   -0.9510   -3.3540 O   0  0  0  0  0  0  0  0  0  0  0  0
   -3.5850   -0.7240   -2.2440 C   0  0  0  0  0  0  0  0  0  0  0  0
   -2.7930   -0.2670   -1.0750 N   0  0  0  0  0  0  0  0  0  0  0  0
  2  1  1  6
  2  3  1  0
  2  4  1  0
  2 28  1  0
  4  5  1  0
  5  6  1  0
  5  8  1  0
  6  7  1  0
  8  9  2  0
  8 12  1  0
  9 10  1  0
  9 28  1  0
 10 11  2  0
 10 24  1  0
 11 12  1  0
 12 13  1  0
 13 14  1  0
 13 16  1  0
 14 15  2  0
 16 17  1  1
 16 18  1  0
 16 19  1  0
 19 20  1  0
 20 21  1  0
 21 22  1  0
 21 23  1  0
 24 25  2  0
 24 26  1  0
 26 27  1  0
 27 28  1  0
M  END
