
     RDKit          3D

 11 11  0  0  0  0  0  0  0  0999 V2000
    2.8840    2.0590    0.2160 O   0  0  0  0  0  0  0  0  0  0  0  0
    2.4310    0.8710   -0.0310 O   0  0  0  0  0  0  0  0  0  0  0  0
    1.0700    0.7430    0.2230 C   0  0  0  0  0  0  0  0  0  0  0  0
    0.6640   -0.6730   -0.1010 C   0  0  2  0  0  0  0  0  0  0  0  0
    0.8970   -1.0100   -1.4220 O   0  0  0  0  0  0  0  0  0  0  0  0
    0.0650   -2.0810   -1.5400 O   0  0  0  0  0  0  0  0  0  0  0  0
   -1.1320   -1.7690   -0.8940 C   0  0  0  0  0  0  0  0  0  0  0  0
   -0.7970   -0.8810    0.0240 C   0  0  0  0  0  0  0  0  0  0  0  0
   -1.6120   -0.2380    0.9500 O   0  0  0  0  0  0  0  0  0  0  0  0
   -2.1760    0.9390    0.7600 O   0  0  0  0  0  0  0  0  0  0  0  0
   -2.9750    0.9840   -0.2780 O   0  0  0  0  0  0  0  0  0  0  0  0
  1  2  1  0
  2  3  1  0
  4  3  1  6
  4  5  1  0
  4  8  1  0
  5  6  1  0
  6  7  1  0
  7  8  2  0
  8  9  1  0
  9 10  1  0
 10 11  1  0
M  END
