
     RDKit          3D

 11 10  0  0  0  0  0  0  0  0999 V2000
   -3.1180    1.2390    0.0530 C   0  0  0  0  0  0  0  0  0  0  0  0
   -1.8470    1.7640    0.2260 O   0  0  0  0  0  0  0  0  0  0  0  0
   -0.9010    0.7900    0.2280 O   0  0  0  0  0  0  0  0  0  0  0  0
    0.0460    0.7540   -0.7690 C   0  0  0  0  0  0  0  0  0  0  0  0
    0.0040    1.6360   -1.6580 O   0  0  0  0  0  0  0  0  0  0  0  0
    1.1140   -0.2770   -0.8390 C   0  0  1  0  0  0  0  0  0  0  0  0
    1.9230   -0.0550   -1.9580 O   0  0  0  0  0  0  0  0  0  0  0  0
    1.8870   -0.3100    0.3390 O   0  0  0  0  0  0  0  0  0  0  0  0
    1.9360   -1.4740    1.0890 C   0  0  0  0  0  0  0  0  0  0  0  0
    1.2810   -2.4610    0.6840 O   0  0  0  0  0  0  0  0  0  0  0  0
    2.6740   -1.5740    2.2540 O   0  0  0  0  0  0  0  0  0  0  0  0
  1  2  1  0
  2  3  1  0
  3  4  1  0
  4  5  2  0
  4  6  1  0
  6  7  1  6
  6  8  1  0
  8  9  1  0
  9 10  2  0
  9 11  1  0
M  END
