
     RDKit          3D

 28 29  0  0  0  0  0  0  0  0999 V2000
   -2.3060    5.0860    0.6570 N   0  0  0  0  0  0  0  0  0  0  0  0
   -1.7350    3.8040    0.9450 C   0  0  0  0  0  0  0  0  0  0  0  0
   -1.9880    2.5770   -0.4310 P   0  0  0  0  0  0  0  0  0  0  0  0
   -3.1250    1.4100    0.0510 O   0  0  0  0  0  0  0  0  0  0  0  0
   -3.5830    0.2390   -0.4470 C   0  0  0  0  0  0  0  0  0  0  0  0
   -3.0480   -0.8980   -0.0280 C   0  0  0  0  0  0  0  0  0  0  0  0
   -1.9460   -0.9310    0.9840 C   0  0  0  0  0  0  0  0  0  0  0  0
   -1.0110   -2.0420    0.6250 C   0  0  1  0  0  0  0  0  0  0  0  0
   -0.6010   -1.8390   -0.7070 O   0  0  0  0  0  0  0  0  0  0  0  0
    0.2320   -2.8230   -1.0360 O   0  0  0  0  0  0  0  0  0  0  0  0
    0.1550   -2.1000    1.4770 N   0  0  0  0  0  0  0  0  0  0  0  0
    1.2930   -2.0740    0.7070 O   0  0  0  0  0  0  0  0  0  0  0  0
    1.9620   -0.5020    0.8110 P   0  0  0  0  0  0  0  0  0  0  0  0
    3.6690   -0.6090    0.9530 O   0  0  0  0  0  0  0  0  0  0  0  0
    4.2730   -1.2820   -0.1050 C   0  0  0  0  0  0  0  0  0  0  0  0
    6.1160   -1.2870    0.2420 P   0  0  0  0  0  0  0  0  0  0  0  0
    6.5010   -0.0180    1.3630 O   0  0  0  0  0  0  0  0  0  0  0  0
    6.9410   -0.9180   -1.2590 O   0  0  0  0  0  0  0  0  0  0  0  0
    1.4240    0.6350   -0.5540 C   0  0  0  0  0  0  0  0  0  0  0  0
    0.4840    1.5600   -0.1140 O   0  0  0  0  0  0  0  0  0  0  0  0
   -0.3950    1.9890   -1.0990 C   0  0  1  0  0  0  0  0  0  0  0  0
   -0.5790    0.9510   -2.0070 O   0  0  0  0  0  0  0  0  0  0  0  0
    0.2060    3.0250   -1.8600 O   0  0  0  0  0  0  0  0  0  0  0  0
    0.4080    4.0690   -1.0850 O   0  0  0  0  0  0  0  0  0  0  0  0
   -1.8030   -3.3060    0.6420 C   0  0  0  0  0  0  0  0  0  0  0  0
   -1.4430   -4.3680    1.4560 O   0  0  0  0  0  0  0  0  0  0  0  0
   -2.8550   -3.3430   -0.1600 C   0  0  0  0  0  0  0  0  0  0  0  0
   -3.5290   -2.1320   -0.5340 N   0  0  0  0  0  0  0  0  0  0  0  0
  1  2  1  0
  2  3  1  0
  3  4  1  0
  3 21  1  0
  4  5  1  0
  5  6  2  0
  6  7  1  0
  6 28  1  0
  7  8  1  0
  8  9  1  6
  8 11  1  0
  8 25  1  0
  9 10  1  0
 11 12  1  0
 12 13  1  0
 13 14  1  0
 13 19  1  0
 14 15  1  0
 15 16  1  0
 16 17  1  0
 16 18  1  0
 19 20  1  0
 20 21  1  0
 21 22  1  6
 21 23  1  0
 23 24  1  0
 25 26  1  0
 25 27  2  0
 27 28  1  0
M  END
