
     RDKit          3D

 27 28  0  0  0  0  0  0  0  0999 V2000
   -0.2630    3.9310   -1.8930 C   0  0  0  0  0  0  0  0  0  0  0  0
    0.1480    2.8580   -1.0740 O   0  0  0  0  0  0  0  0  0  0  0  0
   -0.5560    2.8070    0.0940 C   0  0  2  0  0  0  0  0  0  0  0  0
    0.2090    3.0850    1.2350 O   0  0  0  0  0  0  0  0  0  0  0  0
   -1.4080    1.6150    0.3240 C   0  0  2  0  0  0  0  0  0  0  0  0
   -2.0800    1.8310    1.6900 C   0  0  0  0  0  0  0  0  0  0  0  0
   -2.2470    0.5220    2.2180 N   0  0  0  0  0  0  0  0  0  0  0  0
   -1.0090   -0.1360    1.8330 C   0  0  1  0  0  0  0  0  0  0  0  0
   -1.0880   -1.6200    2.0310 C   0  0  0  0  0  0  0  0  0  0  0  0
   -0.6900   -2.2740    0.8700 O   0  0  0  0  0  0  0  0  0  0  0  0
   -1.5790   -1.9360   -0.1300 C   0  0  2  0  0  0  0  0  0  0  0  0
   -2.8750   -2.2220    0.3210 O   0  0  0  0  0  0  0  0  0  0  0  0
   -1.3380   -2.8490   -1.2650 N   0  0  0  0  0  0  0  0  0  0  0  0
   -1.7850   -4.1840   -1.1090 C   0  0  0  0  0  0  0  0  0  0  0  0
   -2.3520   -4.5790   -0.0790 O   0  0  0  0  0  0  0  0  0  0  0  0
   -1.6020   -5.1180   -2.1180 O   0  0  0  0  0  0  0  0  0  0  0  0
   -1.4100   -0.5930   -0.5310 N   0  0  0  0  0  0  0  0  0  0  0  0
   -0.7410    0.2890    0.4060 C   0  0  1  0  0  0  0  0  0  0  0  0
    0.6950    0.2620    0.1010 C   0  0  0  0  0  0  0  0  0  0  0  0
    1.1040   -0.8710   -0.4290 O   0  0  0  0  0  0  0  0  0  0  0  0
    1.6670    1.1740    0.2560 O   0  0  0  0  0  0  0  0  0  0  0  0
    3.3260    0.8970   -0.2030 P   0  0  0  0  0  0  0  0  0  0  0  0
    4.1420   -0.9820    0.5650 P   0  0  0  0  0  0  0  0  0  0  0  0
    4.4950   -2.0200   -0.7890 O   0  0  0  0  0  0  0  0  0  0  0  0
    5.6750   -0.6330    1.3260 O   0  0  0  0  0  0  0  0  0  0  0  0
    6.6090    0.2710    0.1940 P   0  0  0  0  0  0  0  0  0  0  0  0
    7.4040   -0.4700   -0.9090 O   0  0  0  0  0  0  0  0  0  0  0  0
  1  2  1  0
  2  3  1  0
  3  4  1  1
  3  5  1  0
  5  6  1  1
  5 18  1  0
  6  7  1  0
  7  8  1  0
  8  9  1  6
  8 18  1  0
  9 10  1  0
 10 11  1  0
 11 12  1  1
 11 13  1  0
 11 17  1  0
 13 14  1  0
 14 15  2  0
 14 16  1  0
 17 18  1  0
 18 19  1  6
 19 20  2  0
 19 21  1  0
 21 22  1  0
 22 23  1  0
 23 24  1  0
 23 25  1  0
 25 26  1  0
 26 27  2  0
M  END
