
     RDKit          3D

 27 29  0  0  0  0  0  0  0  0999 V2000
    7.0110    0.0690    0.5850 C   0  0  0  0  0  0  0  0  0  0  0  0
    5.2730    0.1560    0.5820 P   0  0  0  0  0  0  0  0  0  0  0  0
    4.4620   -0.6830    1.7950 O   0  0  0  0  0  0  0  0  0  0  0  0
    5.1080    1.4020    1.5110 O   0  0  0  0  0  0  0  0  0  0  0  0
    4.9300   -1.0860   -0.2810 O   0  0  0  0  0  0  0  0  0  0  0  0
    3.4030   -1.5040   -0.6850 P   0  0  0  0  0  0  0  0  0  0  0  0
    3.7230   -1.6310   -2.1670 O   0  0  0  0  0  0  0  0  0  0  0  0
    2.9260   -3.1110   -0.6190 O   0  0  0  0  0  0  0  0  0  0  0  0
    2.2360   -0.3640   -0.9460 O   0  0  0  0  0  0  0  0  0  0  0  0
    1.0070   -0.9170   -0.7110 C   0  0  0  0  0  0  0  0  0  0  0  0
   -0.0600    0.0990   -0.9390 C   0  0  1  0  0  0  0  0  0  0  0  0
   -1.3370   -0.4540   -0.7030 O   0  0  0  0  0  0  0  0  0  0  0  0
   -2.2080    0.6240   -0.6550 C   0  0  1  0  0  0  0  0  0  0  0  0
   -3.3150    0.3790    0.2500 N   0  0  0  0  0  0  0  0  0  0  0  0
   -3.3330    0.4350    1.5800 C   0  0  0  0  0  0  0  0  0  0  0  0
   -4.5710    0.1370    2.0510 N   0  0  0  0  0  0  0  0  0  0  0  0
   -5.3640   -0.1150    1.0040 C   0  0  0  0  0  0  0  0  0  0  0  0
   -6.6950   -0.4610    0.9280 C   0  0  0  0  0  0  0  0  0  0  0  0
   -7.5230   -0.6230    2.0640 N   0  0  0  0  0  0  0  0  0  0  0  0
   -7.2240   -0.6520   -0.2930 N   0  0  0  0  0  0  0  0  0  0  0  0
   -6.4610   -0.5050   -1.3900 C   0  0  0  0  0  0  0  0  0  0  0  0
   -5.1620   -0.1670   -1.3200 N   0  0  0  0  0  0  0  0  0  0  0  0
   -4.5640    0.0410   -0.1190 C   0  0  0  0  0  0  0  0  0  0  0  0
   -1.4260    1.8030   -0.1140 C   0  0  2  0  0  0  0  0  0  0  0  0
   -1.4070    2.7890   -1.1130 O   0  0  0  0  0  0  0  0  0  0  0  0
   -0.0480    1.2080    0.0900 C   0  0  2  0  0  0  0  0  0  0  0  0
    0.9550    2.1280   -0.1090 O   0  0  0  0  0  0  0  0  0  0  0  0
  1  2  1  0
  2  3  1  0
  2  4  1  0
  2  5  1  0
  5  6  1  0
  6  7  1  0
  6  8  1  0
  6  9  1  0
  9 10  1  0
 11 10  1  1
 11 12  1  0
 11 26  1  0
 12 13  1  0
 13 14  1  1
 13 24  1  0
 14 15  1  0
 14 23  1  0
 15 16  2  0
 16 17  1  0
 17 18  2  0
 17 23  1  0
 18 19  1  0
 18 20  1  0
 20 21  2  0
 21 22  1  0
 22 23  2  0
 24 25  1  6
 24 26  1  0
 26 27  1  6
M  END
