
     RDKit          3D

 27 30  0  0  0  0  0  0  0  0999 V2000
    6.7190    2.6610   -0.0360 C   0  0  0  0  0  0  0  0  0  0  0  0
    5.6680    1.7460   -0.5940 C   0  0  2  0  0  0  0  0  0  0  0  0
    4.3940    1.8750    0.1180 N   0  0  0  0  0  0  0  0  0  0  0  0
    3.7300    0.6290   -0.1110 C   0  0  0  0  0  0  0  0  0  0  0  0
    2.3970    0.2110   -0.0610 C   0  0  0  0  0  0  0  0  0  0  0  0
    2.0250   -1.0760   -0.3330 C   0  0  0  0  0  0  0  0  0  0  0  0
    0.6330   -1.4720   -0.2710 C   0  0  0  0  0  0  0  0  0  0  0  0
    0.2790   -2.7750   -0.5490 F   0  0  0  0  0  0  0  0  0  0  0  0
   -0.3030   -0.6150    0.0440 C   0  0  0  0  0  0  0  0  0  0  0  0
   -1.6970   -1.1200    0.0790 C   0  0  0  0  0  0  0  0  0  0  0  0
   -2.6490   -0.2820    0.3920 C   0  0  0  0  0  0  0  0  0  0  0  0
   -4.0290   -0.7770    0.4280 C   0  0  0  0  0  0  0  0  0  0  0  0
   -4.2550   -2.0850    0.1340 N   0  0  0  0  0  0  0  0  0  0  0  0
   -5.4920   -2.5920    0.1510 C   0  0  0  0  0  0  0  0  0  0  0  0
   -6.5950   -1.8370    0.4610 C   0  0  0  0  0  0  0  0  0  0  0  0
   -6.4260   -0.4970    0.7680 C   0  0  0  0  0  0  0  0  0  0  0  0
   -7.5170    0.2830    1.0830 C   0  0  0  0  0  0  0  0  0  0  0  0
   -7.3170    1.6090    1.3830 C   0  0  0  0  0  0  0  0  0  0  0  0
   -6.0340    2.1030    1.3580 C   0  0  0  0  0  0  0  0  0  0  0  0
   -4.9310    1.3310    1.0450 C   0  0  0  0  0  0  0  0  0  0  0  0
   -5.1170    0.0070    0.7430 C   0  0  0  0  0  0  0  0  0  0  0  0
    2.9970   -2.0320   -0.6760 C   0  0  0  0  0  0  0  0  0  0  0  0
    4.3010   -1.6130   -0.7220 C   0  0  0  0  0  0  0  0  0  0  0  0
    4.6780   -0.3120   -0.4480 C   0  0  0  0  0  0  0  0  0  0  0  0
    5.9550    0.3570   -0.4290 N   0  0  0  0  0  0  0  0  0  0  0  0
    7.4930   -0.4440   -0.2390 S   0  0  0  0  0  0  0  0  0  0  0  0
    7.6360   -0.8380    1.2260 O   0  0  0  0  0  0  0  0  0  0  0  0
  2  1  1  1
  2  3  1  0
  2 25  1  0
  3  4  1  0
  4  5  2  0
  4 24  1  0
  5  6  1  0
  6  7  1  0
  6 22  2  0
  7  8  1  0
  7  9  2  3
  9 10  1  0
 10 11  2  3
 11 12  1  0
 12 13  2  0
 12 21  1  0
 13 14  1  0
 14 15  2  0
 15 16  1  0
 16 17  2  0
 16 21  1  0
 17 18  1  0
 18 19  2  0
 19 20  1  0
 20 21  2  0
 22 23  1  0
 23 24  2  0
 24 25  1  0
 25 26  1  0
 26 27  2  0
M  END
