
     RDKit          3D

 27 30  0  0  0  0  0  0  0  0999 V2000
   -4.4750    2.4670   -1.1660 C   0  0  0  0  0  0  0  0  0  0  0  0
   -5.3920    1.3420   -1.4550 C   0  0  0  0  0  0  0  0  0  0  0  0
   -5.1740    0.1040   -0.9880 C   0  0  0  0  0  0  0  0  0  0  0  0
   -6.1480   -0.9530   -1.3310 C   0  0  0  0  0  0  0  0  0  0  0  0
   -5.6080   -2.0040   -2.0320 F   0  0  0  0  0  0  0  0  0  0  0  0
   -4.0040   -0.1970   -0.1590 C   0  0  1  0  0  0  0  0  0  0  0  0
   -4.3620   -0.7190    1.2300 C   0  0  0  0  0  0  0  0  0  0  0  0
   -3.0670   -0.6600    2.0300 C   0  0  0  0  0  0  0  0  0  0  0  0
   -2.0380   -1.5570    1.4020 C   0  0  0  0  0  0  0  0  0  0  0  0
   -1.9480   -1.5040    0.0090 N   0  0  0  0  0  0  0  0  0  0  0  0
   -0.7430   -1.8630   -0.6220 C   0  0  0  0  0  0  0  0  0  0  0  0
    0.4050   -0.9750   -0.2060 C   0  0  0  0  0  0  0  0  0  0  0  0
    1.5610   -0.8580   -0.2530 N   0  0  0  0  0  0  0  0  0  0  0  0
    2.3540    0.0710    0.2140 C   0  0  0  0  0  0  0  0  0  0  0  0
    3.8430    0.0910    0.0790 C   0  0  0  0  0  0  0  0  0  0  0  0
    4.4960   -0.9170   -0.5740 C   0  0  0  0  0  0  0  0  0  0  0  0
    5.8730   -0.9040   -0.6980 C   0  0  0  0  0  0  0  0  0  0  0  0
    6.5880    0.1560   -0.1460 C   0  0  0  0  0  0  0  0  0  0  0  0
    5.9600    1.1840    0.5170 C   0  0  0  0  0  0  0  0  0  0  0  0
    4.5770    1.1130    0.6080 C   0  0  0  0  0  0  0  0  0  0  0  0
    6.9860    2.1390    0.9770 C   0  0  0  0  0  0  0  0  0  0  0  0
    8.2530    1.5780    0.5290 C   0  0  0  0  0  0  0  0  0  0  0  0
    9.4040    2.0910    0.7200 O   0  0  0  0  0  0  0  0  0  0  0  0
    7.9900    0.3650   -0.1570 N   0  0  0  0  0  0  0  0  0  0  0  0
    1.6960    1.0930    0.8800 C   0  0  0  0  0  0  0  0  0  0  0  0
   -0.0240    0.6150    0.7710 S   0  0  0  0  0  0  0  0  0  0  0  0
   -3.0900   -1.2520   -0.7630 C   0  0  0  0  0  0  0  0  0  0  0  0
  1  2  1  0
  2  3  2  3
  3  4  1  0
  6  3  1  6
  4  5  1  0
  6  7  1  0
  6 27  1  0
  7  8  1  0
  8  9  1  0
  9 10  1  0
 10 11  1  0
 10 27  1  0
 11 12  1  0
 12 13  2  0
 12 26  1  0
 13 14  1  0
 14 15  1  0
 14 25  2  0
 15 16  2  0
 15 20  1  0
 16 17  1  0
 17 18  2  0
 18 19  1  0
 18 24  1  0
 19 20  2  0
 19 21  1  0
 21 22  1  0
 22 23  2  0
 22 24  1  0
 25 26  1  0
M  END
