
     RDKit          3D

 27 30  0  0  0  0  0  0  0  0999 V2000
   -4.2550   -2.7370   -2.3570 C   0  0  0  0  0  0  0  0  0  0  0  0
   -3.4860   -1.4470   -2.1580 C   0  0  0  0  0  0  0  0  0  0  0  0
   -2.7520   -1.0530   -3.4320 C   0  0  2  0  0  0  0  0  0  0  0  0
   -1.8500   -2.0520   -3.8010 O   0  0  0  0  0  0  0  0  0  0  0  0
   -2.0970    0.2890   -3.3330 C   0  0  0  0  0  0  0  0  0  0  0  0
   -1.1010    0.3400   -2.2480 N   0  0  0  0  0  0  0  0  0  0  0  0
    0.1720    0.0090   -2.3590 N   0  0  0  0  0  0  0  0  0  0  0  0
    0.8230    0.1520   -1.1800 C   0  0  0  0  0  0  0  0  0  0  0  0
    2.2380   -0.1320   -0.9630 C   0  0  0  0  0  0  0  0  0  0  0  0
    2.8340    0.0180    0.1900 C   0  0  0  0  0  0  0  0  0  0  0  0
    4.2580   -0.2810    0.3530 C   0  0  0  0  0  0  0  0  0  0  0  0
    4.9030   -0.1470    1.4930 C   0  0  0  0  0  0  0  0  0  0  0  0
    6.3190   -0.5340    1.3030 C   0  0  0  0  0  0  0  0  0  0  0  0
    6.3790   -0.9090   -0.1210 C   0  0  0  0  0  0  0  0  0  0  0  0
    7.4890   -1.3450   -0.7920 F   0  0  0  0  0  0  0  0  0  0  0  0
    5.1850   -0.7600   -0.6570 C   0  0  0  0  0  0  0  0  0  0  0  0
   -0.1050    0.6040   -0.2660 C   0  0  0  0  0  0  0  0  0  0  0  0
   -0.0420    0.9200    1.0400 N   0  0  0  0  0  0  0  0  0  0  0  0
   -1.1100    1.3500    1.7300 C   0  0  0  0  0  0  0  0  0  0  0  0
   -0.9870    1.6800    3.1680 C   0  0  0  0  0  0  0  0  0  0  0  0
   -1.8800    2.1090    4.0470 C   0  0  0  0  0  0  0  0  0  0  0  0
   -1.5280    2.3420    5.3270 C   0  0  0  0  0  0  0  0  0  0  0  0
   -0.2470    2.1250    5.6720 C   0  0  0  0  0  0  0  0  0  0  0  0
    0.5010    1.5610    4.1080 S   0  0  0  0  0  0  0  0  0  0  0  0
   -2.3100    1.4710    1.0760 C   0  0  0  0  0  0  0  0  0  0  0  0
   -2.4090    1.1520   -0.2780 C   0  0  0  0  0  0  0  0  0  0  0  0
   -1.3020    0.7110   -0.9710 C   0  0  0  0  0  0  0  0  0  0  0  0
  1  2  1  0
  2  3  1  0
  3  4  1  1
  3  5  1  0
  5  6  1  0
  6  7  1  0
  6 27  1  0
  7  8  2  0
  8  9  1  0
  8 17  1  0
  9 10  2  3
 10 11  1  0
 11 12  2  0
 11 16  1  0
 12 13  1  0
 13 14  1  0
 14 15  1  0
 14 16  2  0
 17 18  2  0
 17 27  1  0
 18 19  1  0
 19 20  1  0
 19 25  2  0
 20 21  2  0
 20 24  1  0
 21 22  1  0
 22 23  2  0
 23 24  1  0
 25 26  1  0
 26 27  2  0
M  END
