
     RDKit          3D

 27 30  0  0  0  0  0  0  0  0999 V2000
    2.5080    2.1100   -2.7150 C   0  0  0  0  0  0  0  0  0  0  0  0
    1.2610    1.9680   -2.3130 C   0  0  0  0  0  0  0  0  0  0  0  0
    0.8740    1.1950   -1.1350 C   0  0  0  0  0  0  0  0  0  0  0  0
    1.7910    0.5500   -0.3410 C   0  0  0  0  0  0  0  0  0  0  0  0
    1.3840   -0.1730    0.7690 C   0  0  0  0  0  0  0  0  0  0  0  0
    2.5110   -1.0260    1.8310 S   0  0  0  0  0  0  0  0  0  0  0  0
    4.1950   -0.8640    1.3380 C   0  0  0  0  0  0  0  0  0  0  0  0
    4.9630    0.1810    1.8220 C   0  0  0  0  0  0  0  0  0  0  0  0
    6.3020    0.3240    1.4400 C   0  0  0  0  0  0  0  0  0  0  0  0
    6.8900   -0.5690    0.5760 C   0  0  0  0  0  0  0  0  0  0  0  0
    8.1850   -0.4460    0.1970 F   0  0  0  0  0  0  0  0  0  0  0  0
    6.1270   -1.6160    0.0900 C   0  0  0  0  0  0  0  0  0  0  0  0
    4.8080   -1.7460    0.4730 C   0  0  0  0  0  0  0  0  0  0  0  0
    4.0490   -2.7960   -0.0170 O   0  0  0  0  0  0  0  0  0  0  0  0
    0.0710   -0.2140    1.0300 N   0  0  0  0  0  0  0  0  0  0  0  0
   -0.8770    0.3840    0.3100 C   0  0  0  0  0  0  0  0  0  0  0  0
   -2.2570    0.3270    0.6050 N   0  0  0  0  0  0  0  0  0  0  0  0
   -2.9120    1.2520    1.2760 N   0  0  0  0  0  0  0  0  0  0  0  0
   -4.2100    0.9160    1.3960 C   0  0  0  0  0  0  0  0  0  0  0  0
   -5.3040    1.6640    2.0720 C   0  0  0  0  0  0  0  0  0  0  0  0
   -4.3920   -0.2890    0.7660 C   0  0  0  0  0  0  0  0  0  0  0  0
   -3.1260   -0.6350    0.2740 C   0  0  0  0  0  0  0  0  0  0  0  0
   -3.1970   -1.9320   -0.4330 C   0  0  0  0  0  0  0  0  0  0  0  0
   -4.6500   -2.2710   -0.5110 C   0  0  0  0  0  0  0  0  0  0  0  0
   -5.3730   -1.3460    0.4090 C   0  0  0  0  0  0  0  0  0  0  0  0
   -0.4800    1.1120   -0.8050 C   0  0  0  0  0  0  0  0  0  0  0  0
   -1.5070    1.7940   -1.6360 C   0  0  0  0  0  0  0  0  0  0  0  0
  1  2  2  0
  2  3  1  0
  3  4  2  0
  3 26  1  0
  4  5  1  0
  5  6  1  0
  5 15  2  0
  6  7  1  0
  7  8  2  0
  7 13  1  0
  8  9  1  0
  9 10  2  0
 10 11  1  0
 10 12  1  0
 12 13  2  0
 13 14  1  0
 15 16  1  0
 16 17  1  0
 16 26  2  0
 17 18  1  0
 17 22  1  0
 18 19  2  0
 19 20  1  0
 19 21  1  0
 21 22  2  0
 21 25  1  0
 22 23  1  0
 23 24  1  0
 24 25  1  0
 26 27  1  0
M  END
