
     RDKit          3D

 27 30  0  0  0  0  0  0  0  0999 V2000
    7.8100   -0.8320   -0.8550 C   0  0  0  0  0  0  0  0  0  0  0  0
    6.3740   -0.5900   -0.5310 C   0  0  0  0  0  0  0  0  0  0  0  0
    5.4540   -0.5130   -1.5770 C   0  0  0  0  0  0  0  0  0  0  0  0
    4.1160   -0.2900   -1.3020 C   0  0  0  0  0  0  0  0  0  0  0  0
    3.6890   -0.1450   -0.0150 C   0  0  0  0  0  0  0  0  0  0  0  0
    2.2720    0.0900    0.2550 C   0  0  1  0  0  0  0  0  0  0  0  0
    2.0800    1.2510    1.0150 O   0  0  0  0  0  0  0  0  0  0  0  0
    1.4280    0.1400   -0.9800 C   0  0  0  0  0  0  0  0  0  0  0  0
    0.0280    0.3750   -0.6820 N   0  0  0  0  0  0  0  0  0  0  0  0
   -0.9430   -0.5120   -0.4440 C   0  0  0  0  0  0  0  0  0  0  0  0
   -2.1130    0.1150   -0.2080 C   0  0  0  0  0  0  0  0  0  0  0  0
   -3.4670   -0.4300    0.1030 C   0  0  0  0  0  0  0  0  0  0  0  0
   -4.5600   -0.1360    0.3320 N   0  0  0  0  0  0  0  0  0  0  0  0
   -5.6120   -0.8740    0.5830 C   0  0  0  0  0  0  0  0  0  0  0  0
   -7.0110   -0.3570    0.8730 C   0  0  0  0  0  0  0  0  0  0  0  0
   -5.3350   -2.2500    0.5640 C   0  0  0  0  0  0  0  0  0  0  0  0
   -6.2780   -3.3990    0.8050 C   0  0  0  0  0  0  0  0  0  0  0  0
   -3.6030   -2.3200    0.1890 S   0  0  0  0  0  0  0  0  0  0  0  0
   -1.8650    1.4640   -0.3020 C   0  0  0  0  0  0  0  0  0  0  0  0
   -2.6990    2.5820   -0.1540 C   0  0  0  0  0  0  0  0  0  0  0  0
   -2.0900    3.8050   -0.3230 C   0  0  0  0  0  0  0  0  0  0  0  0
   -0.7490    3.9100   -0.6180 C   0  0  0  0  0  0  0  0  0  0  0  0
    0.0300    2.8270   -0.7560 N   0  0  0  0  0  0  0  0  0  0  0  0
   -0.5290    1.6090   -0.5980 C   0  0  0  0  0  0  0  0  0  0  0  0
    4.6100   -0.2230    1.0070 C   0  0  0  0  0  0  0  0  0  0  0  0
    4.2420   -0.0850    2.3170 F   0  0  0  0  0  0  0  0  0  0  0  0
    5.9520   -0.4440    0.7750 C   0  0  0  0  0  0  0  0  0  0  0  0
  1  2  1  0
  2  3  2  0
  2 27  1  0
  3  4  1  0
  4  5  2  0
  5  6  1  0
  5 25  1  0
  6  7  1  6
  6  8  1  0
  8  9  1  0
  9 10  1  0
  9 24  1  0
 10 11  2  0
 11 12  1  0
 11 19  1  0
 12 13  2  0
 12 18  1  0
 13 14  1  0
 14 15  1  0
 14 16  2  0
 16 17  1  0
 16 18  1  0
 19 20  2  0
 19 24  1  0
 20 21  1  0
 21 22  2  0
 22 23  1  0
 23 24  2  0
 25 26  1  0
 25 27  2  0
M  END
