
     RDKit          3D

 27 30  0  0  0  0  0  0  0  0999 V2000
    5.7330    1.3800   -1.0150 C   0  0  0  0  0  0  0  0  0  0  0  0
    4.5270    0.3880   -1.2760 S   0  0  0  0  0  0  0  0  0  0  0  0
    5.3210    0.0520   -2.7960 O   0  0  0  0  0  0  0  0  0  0  0  0
    3.3390    1.4890   -1.2600 C   0  0  0  0  0  0  0  0  0  0  0  0
    2.3700    1.1950   -0.3190 F   0  0  0  0  0  0  0  0  0  0  0  0
    3.5920   -0.8550   -1.6380 C   0  0  0  0  0  0  0  0  0  0  0  0
    2.5680   -1.2040   -0.5820 C   0  0  0  0  0  0  0  0  0  0  0  0
    1.2550   -1.1810   -0.8300 C   0  0  0  0  0  0  0  0  0  0  0  0
    0.2940   -1.5100    0.1600 N   0  0  0  0  0  0  0  0  0  0  0  0
   -0.9910   -0.9220    0.0910 C   0  0  0  0  0  0  0  0  0  0  0  0
   -1.9390   -1.4420   -0.8090 C   0  0  0  0  0  0  0  0  0  0  0  0
   -3.1840   -0.9310   -0.8690 C   0  0  0  0  0  0  0  0  0  0  0  0
   -3.6270    0.1350   -0.0600 C   0  0  0  0  0  0  0  0  0  0  0  0
   -5.0040    0.5710   -0.2220 C   0  0  0  0  0  0  0  0  0  0  0  0
   -5.6450    1.7690   -0.1520 C   0  0  0  0  0  0  0  0  0  0  0  0
   -6.9970    1.5770   -0.5080 C   0  0  0  0  0  0  0  0  0  0  0  0
   -7.1330    0.2880   -0.7820 N   0  0  0  0  0  0  0  0  0  0  0  0
   -5.9980   -0.3000   -0.6220 N   0  0  0  0  0  0  0  0  0  0  0  0
   -2.6980    0.6320    0.8150 C   0  0  0  0  0  0  0  0  0  0  0  0
   -3.0570    1.6480    1.6520 C   0  0  0  0  0  0  0  0  0  0  0  0
   -2.1440    2.1760    2.5700 C   0  0  0  0  0  0  0  0  0  0  0  0
   -0.8770    1.6660    2.6280 C   0  0  0  0  0  0  0  0  0  0  0  0
   -0.5150    0.6470    1.7950 C   0  0  0  0  0  0  0  0  0  0  0  0
   -1.3990    0.1190    0.8930 C   0  0  0  0  0  0  0  0  0  0  0  0
    0.6440   -2.4320    1.2050 C   0  0  0  0  0  0  0  0  0  0  0  0
    2.1080   -2.8100    1.1610 C   0  0  0  0  0  0  0  0  0  0  0  0
    2.9130   -1.5980    0.7820 C   0  0  0  0  0  0  0  0  0  0  0  0
  1  2  1  0
  2  3  2  0
  2  4  1  0
  2  6  1  0
  4  5  1  0
  6  7  1  0
  7  8  2  0
  7 27  1  0
  8  9  1  0
  9 10  1  0
  9 25  1  0
 10 11  2  0
 10 24  1  0
 11 12  1  0
 12 13  2  0
 13 14  1  0
 13 19  1  0
 14 15  1  0
 14 18  2  0
 15 16  2  0
 16 17  1  0
 17 18  1  0
 19 20  2  0
 19 24  1  0
 20 21  1  0
 21 22  2  0
 22 23  1  0
 23 24  2  0
 25 26  1  0
 26 27  1  0
M  END
