
     RDKit          3D

 22 24  0  0  0  0  0  0  0  0999 V2000
    4.7890    2.6590    0.2770 N   0  0  0  0  0  0  0  0  0  0  0  0
    3.3900    2.4380    0.2550 C   0  0  0  0  0  0  0  0  0  0  0  0
    2.6350    3.4430    0.2370 O   0  0  0  0  0  0  0  0  0  0  0  0
    2.8700    1.0740    0.2520 C   0  0  0  0  0  0  0  0  0  0  0  0
    1.5040    0.8200    0.2300 C   0  0  0  0  0  0  0  0  0  0  0  0
    1.0160   -0.4600    0.2280 C   0  0  0  0  0  0  0  0  0  0  0  0
   -0.4160   -0.8000    0.2050 C   0  0  0  0  0  0  0  0  0  0  0  0
   -1.2560    0.3130    0.1860 O   0  0  0  0  0  0  0  0  0  0  0  0
   -2.6260    0.0990    0.1630 C   0  0  0  0  0  0  0  0  0  0  0  0
   -3.1670   -1.1200    0.1940 C   0  0  0  0  0  0  0  0  0  0  0  0
   -4.6340   -1.3470    0.1700 C   0  0  0  0  0  0  0  0  0  0  0  0
   -5.3740   -0.1680    0.1130 O   0  0  0  0  0  0  0  0  0  0  0  0
   -4.8300    1.1070    0.0810 C   0  0  0  0  0  0  0  0  0  0  0  0
   -5.9050    2.5310    0.0080 S   0  0  0  0  0  0  0  0  0  0  0  0
   -3.5140    1.2330    0.1050 C   0  0  0  0  0  0  0  0  0  0  0  0
   -2.9820    2.5210    0.0720 O   0  0  0  0  0  0  0  0  0  0  0  0
    1.9220   -1.5230    0.2490 C   0  0  0  0  0  0  0  0  0  0  0  0
    3.2820   -1.2910    0.2710 C   0  0  0  0  0  0  0  0  0  0  0  0
    3.7420    0.0090    0.2720 C   0  0  0  0  0  0  0  0  0  0  0  0
    3.9330   -2.5390    0.2880 O   0  0  0  0  0  0  0  0  0  0  0  0
    2.9850   -3.4600   -0.2330 C   0  0  0  0  0  0  0  0  0  0  0  0
    1.7780   -2.9020    0.2530 O   0  0  0  0  0  0  0  0  0  0  0  0
  1  2  1  0
  2  3  2  0
  2  4  1  0
  4  5  2  0
  4 19  1  0
  5  6  1  0
  6  7  1  0
  6 17  2  0
  7  8  1  0
  8  9  1  0
  9 10  2  0
  9 15  1  0
 10 11  1  0
 11 12  1  0
 12 13  1  0
 13 14  1  0
 13 15  2  0
 15 16  1  0
 17 18  1  0
 17 22  1  0
 18 19  2  0
 18 20  1  0
 20 21  1  0
 21 22  1  0
M  END
