
     RDKit          3D

 22 23  0  0  0  0  0  0  0  0999 V2000
   -5.7270   -0.4330   -1.5690 O   0  0  0  0  0  0  0  0  0  0  0  0
   -6.0380    0.0920   -0.4630 C   0  0  0  0  0  0  0  0  0  0  0  0
   -7.3660    0.4520   -0.2390 O   0  0  0  0  0  0  0  0  0  0  0  0
   -5.0440    0.2890    0.4890 O   0  0  0  0  0  0  0  0  0  0  0  0
   -3.7170   -0.0640    0.2830 C   0  0  0  0  0  0  0  0  0  0  0  0
   -3.3560   -1.2860    0.6400 C   0  0  0  0  0  0  0  0  0  0  0  0
   -2.0970   -1.9670    0.5710 N   0  0  0  0  0  0  0  0  0  0  0  0
   -0.8250   -1.4130    0.1760 C   0  0  0  0  0  0  0  0  0  0  0  0
    0.1820   -2.1810    0.2950 O   0  0  0  0  0  0  0  0  0  0  0  0
   -0.6110   -0.0740   -0.3370 C   0  0  0  0  0  0  0  0  0  0  0  0
    0.6310    0.2290   -0.6290 C   0  0  0  0  0  0  0  0  0  0  0  0
    1.9050   -0.9910   -0.3780 S   0  0  0  0  0  0  0  0  0  0  0  0
    3.4890   -0.2150   -0.0720 C   0  0  0  0  0  0  0  0  0  0  0  0
    3.6470    1.1480   -0.0450 C   0  0  0  0  0  0  0  0  0  0  0  0
    4.9040    1.6850    0.1980 C   0  0  0  0  0  0  0  0  0  0  0  0
    6.0010    0.8710    0.4140 C   0  0  0  0  0  0  0  0  0  0  0  0
    5.8460   -0.5080    0.3880 C   0  0  0  0  0  0  0  0  0  0  0  0
    4.5870   -1.0160    0.1440 C   0  0  0  0  0  0  0  0  0  0  0  0
    4.4470   -2.3940    0.1210 O   0  0  0  0  0  0  0  0  0  0  0  0
   -1.5770    0.9880   -0.5770 C   0  0  0  0  0  0  0  0  0  0  0  0
   -2.8890    0.9790   -0.3100 C   0  0  0  0  0  0  0  0  0  0  0  0
   -3.5720    2.1550   -0.6530 O   0  0  0  0  0  0  0  0  0  0  0  0
  1  2  2  0
  2  3  1  0
  2  4  1  0
  4  5  1  0
  5  6  2  0
  5 21  1  0
  6  7  1  0
  7  8  1  0
  8  9  2  0
  8 10  1  0
 10 11  2  3
 10 20  1  0
 11 12  1  0
 12 13  1  0
 13 14  2  0
 13 18  1  0
 14 15  1  0
 15 16  2  0
 16 17  1  0
 17 18  2  0
 18 19  1  0
 20 21  2  0
 21 22  1  0
M  END
