
     RDKit          3D

 22 24  0  0  0  0  0  0  0  0999 V2000
    4.9360    0.6560    0.1870 C   0  0  0  0  0  0  0  0  0  0  0  0
    3.5200    0.6330    0.1700 O   0  0  0  0  0  0  0  0  0  0  0  0
    2.7720   -0.4980    0.0410 C   0  0  0  0  0  0  0  0  0  0  0  0
    3.3330   -1.6120   -0.0720 O   0  0  0  0  0  0  0  0  0  0  0  0
    1.3010   -0.4860    0.0270 C   0  0  0  0  0  0  0  0  0  0  0  0
    0.7010    0.6790    0.1460 C   0  0  0  0  0  0  0  0  0  0  0  0
    1.4580    1.8990    0.2960 N   0  0  0  0  0  0  0  0  0  0  0  0
   -0.7390    0.8550    0.0180 C   0  0  0  0  0  0  0  0  0  0  0  0
   -1.3570    2.0760    0.2840 C   0  0  0  0  0  0  0  0  0  0  0  0
   -2.7330    2.1730    0.2830 C   0  0  0  0  0  0  0  0  0  0  0  0
   -3.4020    3.3650    0.5410 O   0  0  0  0  0  0  0  0  0  0  0  0
   -3.4500    1.0270    0.0130 C   0  0  0  0  0  0  0  0  0  0  0  0
   -2.8320   -0.1880   -0.2540 C   0  0  0  0  0  0  0  0  0  0  0  0
   -1.4520   -0.2900   -0.2590 C   0  0  0  0  0  0  0  0  0  0  0  0
   -0.7790   -1.5300   -0.7080 C   0  0  2  0  0  0  0  0  0  0  0  0
   -1.6630   -2.7200   -0.6600 C   0  0  0  0  0  0  0  0  0  0  0  0
   -1.0590   -3.8440   -0.6140 O   0  0  0  0  0  0  0  0  0  0  0  0
   -3.0210   -2.6130   -0.6650 O   0  0  0  0  0  0  0  0  0  0  0  0
   -3.6280   -1.3890   -0.4670 C   0  0  0  0  0  0  0  0  0  0  0  0
   -5.2630   -1.2230   -0.4620 S   0  0  0  0  0  0  0  0  0  0  0  0
    0.5110   -1.7270   -0.0040 C   0  0  1  0  0  0  0  0  0  0  0  0
    1.2090   -2.7790   -0.6050 O   0  0  0  0  0  0  0  0  0  0  0  0
  1  2  1  0
  2  3  1  0
  3  4  2  0
  3  5  1  0
  5  6  2  0
  5 21  1  0
  6  7  1  0
  6  8  1  0
  8  9  2  0
  8 14  1  0
  9 10  1  0
 10 11  1  0
 10 12  2  0
 12 13  1  0
 13 14  2  0
 13 19  1  0
 14 15  1  0
 15 16  1  1
 15 21  1  0
 16 17  2  0
 16 18  1  0
 18 19  1  0
 19 20  2  0
 21 22  1  6
M  END
