
     RDKit          3D

 22 24  0  0  0  0  0  0  0  0999 V2000
   -4.5570    2.3050    0.4050 N   0  0  0  0  0  0  0  0  0  0  0  0
   -4.1420    0.6740    0.0240 S   0  0  1  0  0  0  0  0  0  0  0  0
   -4.9410   -0.2110    0.9510 O   0  0  0  0  0  0  0  0  0  0  0  0
   -4.4970    0.3400   -1.4030 O   0  0  0  0  0  0  0  0  0  0  0  0
   -2.4570    0.3560    0.3450 C   0  0  0  0  0  0  0  0  0  0  0  0
   -1.5920    1.3030    0.8380 C   0  0  0  0  0  0  0  0  0  0  0  0
   -0.2750    1.0600    1.0910 C   0  0  0  0  0  0  0  0  0  0  0  0
    0.6080    2.0240    1.5940 O   0  0  0  0  0  0  0  0  0  0  0  0
    0.2570   -0.2290    0.8390 C   0  0  0  0  0  0  0  0  0  0  0  0
    1.5600   -0.4870    1.0910 O   0  0  0  0  0  0  0  0  0  0  0  0
    2.7420   -0.1200    0.5320 C   0  0  0  0  0  0  0  0  0  0  0  0
    3.6550    0.5820    1.3560 C   0  0  0  0  0  0  0  0  0  0  0  0
    4.8740    1.0070    0.9170 C   0  0  0  0  0  0  0  0  0  0  0  0
    5.2070    0.7280   -0.3920 C   0  0  0  0  0  0  0  0  0  0  0  0
    4.3630    0.0640   -1.2020 C   0  0  0  0  0  0  0  0  0  0  0  0
    3.1060   -0.3720   -0.7420 C   0  0  0  0  0  0  0  0  0  0  0  0
    2.3270   -1.0540   -1.6950 O   0  0  0  0  0  0  0  0  0  0  0  0
   -0.5960   -1.1930    0.3440 C   0  0  0  0  0  0  0  0  0  0  0  0
   -1.9180   -0.8880    0.1090 C   0  0  0  0  0  0  0  0  0  0  0  0
   -2.6150   -2.1050   -0.4230 C   0  0  0  0  0  0  0  0  0  0  0  0
   -1.4240   -2.8750   -0.9830 C   0  0  0  0  0  0  0  0  0  0  0  0
   -0.4390   -2.5420   -0.0130 O   0  0  0  0  0  0  0  0  0  0  0  0
  2  1  1  1
  2  3  2  0
  2  4  2  0
  2  5  1  0
  5  6  2  0
  5 19  1  0
  6  7  1  0
  7  8  1  0
  7  9  2  0
  9 10  1  0
  9 18  1  0
 10 11  1  0
 11 12  2  0
 11 16  1  0
 12 13  1  0
 13 14  2  0
 14 15  1  0
 15 16  2  0
 16 17  1  0
 18 19  2  0
 18 22  1  0
 19 20  1  0
 20 21  1  0
 21 22  1  0
M  END
