
     RDKit          3D

 22 24  0  0  0  0  0  0  0  0999 V2000
   -5.5910   -1.5150    0.8000 O   0  0  0  0  0  0  0  0  0  0  0  0
   -5.6640   -0.5170    0.0430 C   0  0  0  0  0  0  0  0  0  0  0  0
   -4.5000    0.2420   -0.4230 C   0  0  0  0  0  0  0  0  0  0  0  0
   -4.6260    1.2820   -1.2170 C   0  0  0  0  0  0  0  0  0  0  0  0
   -5.9100    1.8770   -1.7800 O   0  0  0  0  0  0  0  0  0  0  0  0
   -3.0530    1.9030   -1.5420 S   0  0  0  0  0  0  0  0  0  0  0  0
   -2.2340    0.6880   -0.5540 C   0  0  0  0  0  0  0  0  0  0  0  0
   -0.7280    0.6490   -0.3880 C   0  0  0  0  0  0  0  0  0  0  0  0
   -0.0680    1.5390   -0.9990 O   0  0  0  0  0  0  0  0  0  0  0  0
   -0.0800   -0.3020    0.3870 N   0  0  0  0  0  0  0  0  0  0  0  0
    1.3100   -0.4210    0.5970 C   0  0  0  0  0  0  0  0  0  0  0  0
    1.7980   -1.2880    1.5900 C   0  0  0  0  0  0  0  0  0  0  0  0
    3.1370   -1.4420    1.8180 C   0  0  0  0  0  0  0  0  0  0  0  0
    4.0930   -0.7650    1.0980 C   0  0  0  0  0  0  0  0  0  0  0  0
    3.6500    0.0880    0.1230 C   0  0  0  0  0  0  0  0  0  0  0  0
    2.2740    0.2450   -0.1110 C   0  0  0  0  0  0  0  0  0  0  0  0
    4.8230    0.7150   -0.5330 C   0  0  0  0  0  0  0  0  0  0  0  0
    5.9670    0.1330    0.1680 C   0  0  0  0  0  0  0  0  0  0  0  0
    7.1750    0.4250   -0.1090 O   0  0  0  0  0  0  0  0  0  0  0  0
    5.4900   -0.7400    1.1280 O   0  0  0  0  0  0  0  0  0  0  0  0
   -3.2060   -0.0770   -0.0670 C   0  0  0  0  0  0  0  0  0  0  0  0
   -2.8870   -1.1430    0.7640 O   0  0  0  0  0  0  0  0  0  0  0  0
  1  2  2  0
  2  3  1  0
  3  4  2  0
  3 21  1  0
  4  5  1  0
  4  6  1  0
  6  7  1  0
  7  8  1  0
  7 21  2  0
  8  9  2  0
  8 10  1  0
 10 11  1  0
 11 12  2  0
 11 16  1  0
 12 13  1  0
 13 14  2  0
 14 15  1  0
 14 20  1  0
 15 16  2  0
 15 17  1  0
 17 18  1  0
 18 19  2  0
 18 20  1  0
 21 22  1  0
M  END
