
     RDKit          3D

 22 23  0  0  0  0  0  0  0  0999 V2000
   -3.5330    3.2230   -0.3340 C   0  0  0  0  0  0  0  0  0  0  0  0
   -3.5290    2.0580   -1.0790 C   0  0  0  0  0  0  0  0  0  0  0  0
   -4.6220    1.9810   -1.8670 O   0  0  0  0  0  0  0  0  0  0  0  0
   -2.4490    1.1620   -0.9260 C   0  0  0  0  0  0  0  0  0  0  0  0
   -1.9610    0.0380   -1.3190 C   0  0  0  0  0  0  0  0  0  0  0  0
   -2.5720   -0.8240   -2.2850 C   0  0  0  0  0  0  0  0  0  0  0  0
   -3.7230   -0.5900   -2.9130 C   0  0  0  0  0  0  0  0  0  0  0  0
   -4.1650   -1.5760   -3.8440 O   0  0  0  0  0  0  0  0  0  0  0  0
   -1.9510   -2.0390   -2.6470 O   0  0  0  0  0  0  0  0  0  0  0  0
   -0.7660   -2.5080   -2.1480 C   0  0  0  0  0  0  0  0  0  0  0  0
   -0.1670   -1.6180   -1.1720 C   0  0  0  0  0  0  0  0  0  0  0  0
    1.3770   -1.8290   -0.2650 S   0  0  0  0  0  0  0  0  0  0  0  0
    1.2840   -0.3300    0.6350 C   0  0  0  0  0  0  0  0  0  0  0  0
    2.2270    0.1510    1.5800 N   0  0  0  0  0  0  0  0  0  0  0  0
    3.3870   -0.6050    1.8770 C   0  0  0  0  0  0  0  0  0  0  0  0
    3.5740   -1.6990    1.3000 O   0  0  0  0  0  0  0  0  0  0  0  0
    4.3390   -0.0900    2.8510 C   0  0  0  0  0  0  0  0  0  0  0  0
    4.1410    1.0110    3.4250 O   0  0  0  0  0  0  0  0  0  0  0  0
    5.5010   -0.8050    3.1750 O   0  0  0  0  0  0  0  0  0  0  0  0
    6.3850   -0.2480    4.1300 C   0  0  0  0  0  0  0  0  0  0  0  0
    0.1090    0.2260    0.2000 C   0  0  0  0  0  0  0  0  0  0  0  0
   -0.6210   -0.4360   -0.7190 C   0  0  0  0  0  0  0  0  0  0  0  0
  1  2  2  0
  2  3  1  0
  2  4  1  0
  4  5  2  3
  5  6  1  0
  5 22  1  0
  6  7  2  3
  6  9  1  0
  7  8  1  0
  9 10  1  0
 10 11  1  0
 11 12  1  0
 11 22  2  0
 12 13  1  0
 13 14  1  0
 13 21  2  0
 14 15  1  0
 15 16  2  0
 15 17  1  0
 17 18  2  0
 17 19  1  0
 19 20  1  0
 21 22  1  0
M  END
