
     RDKit          3D

 22 23  0  0  0  0  0  0  0  0999 V2000
   -5.1060    0.8040    0.2630 C   0  0  0  0  0  0  0  0  0  0  0  0
   -4.1780    0.0100    0.9670 O   0  0  0  0  0  0  0  0  0  0  0  0
   -2.8090    0.2300    0.9430 C   0  0  0  0  0  0  0  0  0  0  0  0
   -2.2380    1.0590    1.8740 C   0  0  0  0  0  0  0  0  0  0  0  0
   -3.0150    1.6740    2.8320 O   0  0  0  0  0  0  0  0  0  0  0  0
   -0.8630    1.2910    1.8630 C   0  0  0  0  0  0  0  0  0  0  0  0
   -0.0580    0.6990    0.9270 C   0  0  0  0  0  0  0  0  0  0  0  0
    1.3030    0.9080    0.8900 C   0  0  0  0  0  0  0  0  0  0  0  0
    1.8400    1.7330    1.8350 O   0  0  0  0  0  0  0  0  0  0  0  0
    2.1320    0.3200   -0.0480 C   0  0  0  0  0  0  0  0  0  0  0  0
    3.5410    0.5800   -0.1700 C   0  0  0  0  0  0  0  0  0  0  0  0
    4.1010    1.6390    0.3690 C   0  0  0  0  0  0  0  0  0  0  0  0
    5.4860    1.8850    0.2480 O   0  0  0  0  0  0  0  0  0  0  0  0
    4.7160   -0.5300   -0.9570 S   0  0  0  0  0  0  0  0  0  0  0  0
    4.1470   -2.1660   -1.2970 C   0  0  0  0  0  0  0  0  0  0  0  0
    1.4940   -0.4900   -0.9410 N   0  0  0  0  0  0  0  0  0  0  0  0
    0.1800   -0.7190   -0.9380 C   0  0  0  0  0  0  0  0  0  0  0  0
   -0.3510   -1.4970   -1.8130 O   0  0  0  0  0  0  0  0  0  0  0  0
   -0.6290   -0.1260    0.0010 C   0  0  0  0  0  0  0  0  0  0  0  0
   -1.9870   -0.3600    0.0070 C   0  0  0  0  0  0  0  0  0  0  0  0
   -2.5780   -1.2010   -0.9350 O   0  0  0  0  0  0  0  0  0  0  0  0
   -2.6870   -2.5680   -0.6110 C   0  0  0  0  0  0  0  0  0  0  0  0
  1  2  1  0
  2  3  1  0
  3  4  2  0
  3 20  1  0
  4  5  1  0
  4  6  1  0
  6  7  2  0
  7  8  1  0
  7 19  1  0
  8  9  1  0
  8 10  2  0
 10 11  1  0
 10 16  1  0
 11 12  2  3
 11 14  1  0
 12 13  1  0
 14 15  1  0
 16 17  1  0
 17 18  2  0
 17 19  1  0
 19 20  2  0
 20 21  1  0
 21 22  1  0
M  END
