
     RDKit          3D

 13 14  0  0  0  0  0  0  0  0999 V2000
   -2.7760   -0.6590   -0.4040 C   0  0  0  0  0  0  0  0  0  0  0  0
   -2.0600   -0.4810    0.9460 C   0  0  0  0  0  0  0  0  0  0  0  0
   -1.1200    0.6380    0.8140 C   0  0  0  0  0  0  0  0  0  0  0  0
   -1.3830    1.9180    1.1690 N   0  0  0  0  0  0  0  0  0  0  0  0
   -0.3740    2.7030    0.8890 N   0  0  0  0  0  0  0  0  0  0  0  0
    0.5930    1.9450    0.3350 C   0  0  0  0  0  0  0  0  0  0  0  0
    1.8250    2.2460   -0.1250 N   0  0  0  0  0  0  0  0  0  0  0  0
    2.5920    1.2760   -0.6260 C   0  0  0  0  0  0  0  0  0  0  0  0
    2.1780   -0.0310   -0.6950 C   0  0  0  0  0  0  0  0  0  0  0  0
    3.2480   -1.2900   -1.3760 S   0  0  0  0  0  0  0  0  0  0  0  0
    0.9050   -0.3870   -0.2280 C   0  0  0  0  0  0  0  0  0  0  0  0
    0.4670   -1.8060   -0.2700 C   0  0  0  0  0  0  0  0  0  0  0  0
    0.1320    0.6350    0.2820 C   0  0  0  0  0  0  0  0  0  0  0  0
  1  2  1  0
  2  3  1  0
  3  4  2  0
  3 13  1  0
  4  5  1  0
  5  6  1  0
  6  7  2  0
  6 13  1  0
  7  8  1  0
  8  9  2  0
  9 10  1  0
  9 11  1  0
 11 12  1  0
 11 13  2  0
M  END
