
     RDKit          3D

 24 27  0  0  0  0  0  0  0  0999 V2000
    7.8700   -0.4460    0.7350 C   0  0  0  0  0  0  0  0  0  0  0  0
    6.4230   -0.0930    0.4960 C   0  0  0  0  0  0  0  0  0  0  0  0
    6.0700    1.1530    0.0250 C   0  0  0  0  0  0  0  0  0  0  0  0
    4.7400    1.4520   -0.1870 C   0  0  0  0  0  0  0  0  0  0  0  0
    3.7320    0.5440    0.0570 C   0  0  0  0  0  0  0  0  0  0  0  0
    4.0730   -0.6980    0.5270 C   0  0  0  0  0  0  0  0  0  0  0  0
    5.4230   -1.0020    0.7410 C   0  0  0  0  0  0  0  0  0  0  0  0
    2.8260   -1.4700    0.7030 C   0  0  0  0  0  0  0  0  0  0  0  0
    1.7540   -0.5470    0.2900 C   0  0  0  0  0  0  0  0  0  0  0  0
    0.3640   -0.6840    0.2300 C   0  0  0  0  0  0  0  0  0  0  0  0
   -0.4280    0.3460   -0.1990 C   0  0  0  0  0  0  0  0  0  0  0  0
   -1.8840    0.2500   -0.2790 C   0  0  0  0  0  0  0  0  0  0  0  0
   -2.7450    1.2300    0.1660 C   0  0  0  0  0  0  0  0  0  0  0  0
   -4.0800    1.1000    0.0730 N   0  0  0  0  0  0  0  0  0  0  0  0
   -4.6740    0.0160   -0.4550 C   0  0  0  0  0  0  0  0  0  0  0  0
   -6.1540   -0.1120   -0.5510 C   0  0  1  0  0  0  0  0  0  0  0  0
   -6.7730   -0.5020    0.7740 C   0  0  0  0  0  0  0  0  0  0  0  0
   -6.7680    1.1180   -1.0440 N   0  0  0  0  0  0  0  0  0  0  0  0
   -3.8540   -0.9930   -0.9140 C   0  0  0  0  0  0  0  0  0  0  0  0
   -2.4740   -0.8710   -0.8240 C   0  0  0  0  0  0  0  0  0  0  0  0
   -1.6120   -1.9080   -1.2960 N   0  0  0  0  0  0  0  0  0  0  0  0
    0.1310    1.5440   -0.5810 C   0  0  0  0  0  0  0  0  0  0  0  0
    1.4790    1.7170   -0.5370 C   0  0  0  0  0  0  0  0  0  0  0  0
    2.2730    0.6630   -0.0990 C   0  0  0  0  0  0  0  0  0  0  0  0
  1  2  1  0
  2  3  2  0
  2  7  1  0
  3  4  1  0
  4  5  2  0
  5  6  1  0
  5 24  1  0
  6  7  2  0
  6  8  1  0
  8  9  1  0
  9 10  2  0
  9 24  1  0
 10 11  1  0
 11 12  1  0
 11 22  2  0
 12 13  2  0
 12 20  1  0
 13 14  1  0
 14 15  2  0
 15 16  1  0
 15 19  1  0
 16 17  1  1
 16 18  1  0
 19 20  2  0
 20 21  1  0
 22 23  1  0
 23 24  2  0
M  CHG  1  14   1
M  END
