
     RDKit          3D

 25 28  0  0  0  0  0  0  0  0999 V2000
   -6.6890   -0.9930   -0.4500 C   0  0  0  0  0  0  0  0  0  0  0  0
   -5.2480   -0.6490   -0.1230 C   0  0  1  0  0  0  0  0  0  0  0  0
   -4.9600   -0.8580    1.3530 C   0  0  0  0  0  0  0  0  0  0  0  0
   -4.3100   -1.5760   -0.8830 C   0  0  0  0  0  0  0  0  0  0  0  0
   -2.9300   -1.2090   -0.4650 C   0  0  0  0  0  0  0  0  0  0  0  0
   -2.0450   -2.0510   -0.2030 O   0  0  0  0  0  0  0  0  0  0  0  0
   -2.5900    0.2050   -0.3540 C   0  0  0  0  0  0  0  0  0  0  0  0
   -3.5930    1.1520   -0.3690 C   0  0  0  0  0  0  0  0  0  0  0  0
   -3.0420    2.3770   -0.2540 N   0  0  0  0  0  0  0  0  0  0  0  0
   -1.7040    2.2780   -0.1640 C   0  0  0  0  0  0  0  0  0  0  0  0
   -0.6660    3.1780   -0.0340 C   0  0  0  0  0  0  0  0  0  0  0  0
    0.6490    2.7600    0.0350 C   0  0  0  0  0  0  0  0  0  0  0  0
    0.9530    1.4170   -0.0250 C   0  0  0  0  0  0  0  0  0  0  0  0
    2.2900    0.9360    0.0420 N   0  0  0  0  0  0  0  0  0  0  0  0
    2.6190   -0.4620   -0.0200 C   0  0  0  0  0  0  0  0  0  0  0  0
    4.0940   -0.6050    0.0700 C   0  0  0  0  0  0  0  0  0  0  0  0
    4.9150    0.2750   -0.6050 C   0  0  0  0  0  0  0  0  0  0  0  0
    6.2790    0.1300   -0.5110 C   0  0  0  0  0  0  0  0  0  0  0  0
    6.8360   -0.8780    0.2450 C   0  0  0  0  0  0  0  0  0  0  0  0
    8.2590   -0.9830    0.3090 N   0  0  0  0  0  0  0  0  0  0  0  0
    6.0430   -1.7730    0.9310 C   0  0  0  0  0  0  0  0  0  0  0  0
    4.6790   -1.6170    0.8280 C   0  0  0  0  0  0  0  0  0  0  0  0
   -0.1030    0.5290   -0.1550 C   0  0  0  0  0  0  0  0  0  0  0  0
   -1.4170    0.9290   -0.2260 C   0  0  0  0  0  0  0  0  0  0  0  0
   -5.0240    0.7820   -0.4940 C   0  0  0  0  0  0  0  0  0  0  0  0
  2  1  1  1
  2  3  1  0
  2  4  1  0
  2 25  1  0
  4  5  1  0
  5  6  2  0
  5  7  1  0
  7  8  2  0
  7 24  1  0
  8  9  1  0
  8 25  1  0
  9 10  1  0
 10 11  2  0
 10 24  1  0
 11 12  1  0
 12 13  2  0
 13 14  1  0
 13 23  1  0
 14 15  1  0
 15 16  1  0
 16 17  2  0
 16 22  1  0
 17 18  1  0
 18 19  2  0
 19 20  1  0
 19 21  1  0
 21 22  2  0
 23 24  2  0
M  CHG  1  20   1
M  END
