
     RDKit          3D

 13 14  0  0  0  0  0  0  0  0999 V2000
    3.3890    1.5210    0.5360 C   0  0  0  0  0  0  0  0  0  0  0  0
    2.7950    0.2180    0.1380 C   0  0  0  0  0  0  0  0  0  0  0  0
    1.4610    0.1610    0.0370 N   0  0  0  0  0  0  0  0  0  0  0  0
    0.8270   -0.9720   -0.3170 C   0  0  0  0  0  0  0  0  0  0  0  0
   -0.6390   -0.9980   -0.4180 C   0  0  0  0  0  0  0  0  0  0  0  0
   -1.3200    0.1020   -0.1570 C   0  0  0  0  0  0  0  0  0  0  0  0
   -2.8010    0.1540   -0.2380 C   0  0  2  0  0  0  0  0  0  0  0  0
   -3.4620    1.5220   -0.1410 C   0  0  0  0  0  0  0  0  0  0  0  0
   -3.6370    0.4940    0.9170 C   0  0  0  0  0  0  0  0  0  0  0  0
    1.5520   -2.0600   -0.5710 N   0  0  0  0  0  0  0  0  0  0  0  0
    2.8890   -1.9920   -0.4660 C   0  0  0  0  0  0  0  0  0  0  0  0
    3.7860   -3.3200   -0.7760 S   0  0  0  0  0  0  0  0  0  0  0  0
    3.5360   -0.8660   -0.1140 N   0  0  0  0  0  0  0  0  0  0  0  0
  1  2  1  0
  2  3  1  0
  2 13  2  0
  3  4  2  0
  4  5  1  0
  4 10  1  0
  5  6  2  3
  7  6  1  1
  7  8  1  0
  7  9  1  0
  8  9  1  0
 10 11  1  0
 11 12  2  0
 11 13  1  0
M  END
