
     RDKit          3D

 25 28  0  0  0  0  0  0  0  0999 V2000
   -5.4530    2.2000   -0.4350 N   0  0  0  0  0  0  0  0  0  0  0  0
   -5.1060    0.8740    0.0260 C   0  0  0  0  0  0  0  0  0  0  0  0
   -3.6670    0.6130   -0.0470 C   0  0  0  0  0  0  0  0  0  0  0  0
   -2.7700    1.5400   -0.5150 C   0  0  0  0  0  0  0  0  0  0  0  0
   -1.4190    1.2400   -0.5850 C   0  0  0  0  0  0  0  0  0  0  0  0
   -0.9410    0.0090   -0.1920 C   0  0  0  0  0  0  0  0  0  0  0  0
    0.3970   -0.3520   -0.2410 N   0  0  0  0  0  0  0  0  0  0  0  0
    1.4020    0.4530   -0.8620 C   0  0  0  0  0  0  0  0  0  0  0  0
    1.1730    1.5430   -1.3890 O   0  0  0  0  0  0  0  0  0  0  0  0
    2.7650   -0.0930   -0.8510 C   0  0  0  0  0  0  0  0  0  0  0  0
    2.9960   -1.3200   -1.4650 C   0  0  0  0  0  0  0  0  0  0  0  0
    4.2910   -1.8010   -1.4670 C   0  0  0  0  0  0  0  0  0  0  0  0
    5.3150   -1.0970   -0.8860 C   0  0  0  0  0  0  0  0  0  0  0  0
    5.0600    0.1240   -0.2820 C   0  0  0  0  0  0  0  0  0  0  0  0
    6.1170    0.8010    0.2790 C   0  0  0  0  0  0  0  0  0  0  0  0
    5.9060    2.0140    0.8750 C   0  0  0  0  0  0  0  0  0  0  0  0
    4.6240    2.5230    0.8950 C   0  0  0  0  0  0  0  0  0  0  0  0
    3.5580    1.8480    0.3350 C   0  0  0  0  0  0  0  0  0  0  0  0
    3.7660    0.6390   -0.2610 C   0  0  0  0  0  0  0  0  0  0  0  0
   -1.8420   -0.9640    0.2930 C   0  0  0  0  0  0  0  0  0  0  0  0
   -3.1730   -0.6230    0.3490 C   0  0  0  0  0  0  0  0  0  0  0  0
   -4.0940   -1.5930    0.9230 C   0  0  0  0  0  0  0  0  0  0  0  0
   -3.6980   -2.7550    1.3880 C   0  0  0  0  0  0  0  0  0  0  0  0
   -2.3040   -3.1930    1.3850 C   0  0  0  0  0  0  0  0  0  0  0  0
   -1.4740   -2.2730    0.6490 N   0  0  0  0  0  0  0  0  0  0  0  0
  1  2  1  0
  2  3  1  0
  3  4  2  0
  3 21  1  0
  4  5  1  0
  5  6  2  0
  6  7  1  0
  6 20  1  0
  7  8  1  0
  8  9  2  0
  8 10  1  0
 10 11  2  0
 10 19  1  0
 11 12  1  0
 12 13  2  0
 13 14  1  0
 14 15  2  0
 14 19  1  0
 15 16  1  0
 16 17  2  0
 17 18  1  0
 18 19  2  0
 20 21  2  0
 20 25  1  0
 21 22  1  0
 22 23  2  0
 23 24  1  0
 24 25  1  0
M  CHG  1   1   1
M  END
