
     RDKit          3D

 13 14  0  0  0  0  0  0  0  0999 V2000
    3.9790   -0.2610    1.2350 C   0  0  0  0  0  0  0  0  0  0  0  0
    2.9710    0.3930    0.6540 C   0  0  0  0  0  0  0  0  0  0  0  0
    3.1160    2.0200   -0.0410 S   0  0  0  0  0  0  0  0  0  0  0  0
    1.3910    2.1010   -0.5650 C   0  0  0  0  0  0  0  0  0  0  0  0
    0.8630    0.8990   -0.1690 C   0  0  0  0  0  0  0  0  0  0  0  0
   -0.5920    0.6370   -0.4610 C   0  0  0  0  0  0  0  0  0  0  0  0
   -1.4420    1.4760   -1.0810 N   0  0  0  0  0  0  0  0  0  0  0  0
   -2.6500    0.8690   -1.1470 C   0  0  0  0  0  0  0  0  0  0  0  0
   -2.5510   -0.3420   -0.5700 N   0  0  0  0  0  0  0  0  0  0  0  0
   -3.6230   -1.3300   -0.4260 C   0  0  0  0  0  0  0  0  0  0  0  0
   -1.2990   -0.4310   -0.1770 N   0  0  0  0  0  0  0  0  0  0  0  0
    1.6610    0.0270    0.4510 C   0  0  0  0  0  0  0  0  0  0  0  0
    1.2590   -1.1880    0.8870 C   0  0  0  0  0  0  0  0  0  0  0  0
  1  2  2  0
  2  3  1  0
  2 12  1  0
  3  4  1  0
  4  5  2  0
  5  6  1  0
  5 12  1  0
  6  7  1  0
  6 11  2  0
  7  8  2  0
  8  9  1  0
  9 10  1  0
  9 11  1  0
 12 13  2  0
M  END
