
     RDKit          3D

 25 28  0  0  0  0  0  0  0  0999 V2000
   -5.9310    0.3760    1.2400 C   0  0  0  0  0  0  0  0  0  0  0  0
   -4.7730   -0.2380    0.5430 C   0  0  0  0  0  0  0  0  0  0  0  0
   -3.6430    0.4560    0.3240 C   0  0  0  0  0  0  0  0  0  0  0  0
   -3.6550    1.8470    0.8320 C   0  0  0  0  0  0  0  0  0  0  0  0
   -2.6000   -0.1560   -0.4700 C   0  0  0  0  0  0  0  0  0  0  0  0
   -2.9670   -1.1300   -1.3980 C   0  0  0  0  0  0  0  0  0  0  0  0
   -4.2990   -1.4290   -1.6600 O   0  0  0  0  0  0  0  0  0  0  0  0
   -2.0500   -1.8550   -2.1230 C   0  0  0  0  0  0  0  0  0  0  0  0
   -0.6960   -1.6470   -1.9660 C   0  0  0  0  0  0  0  0  0  0  0  0
   -0.3000   -0.6850   -1.0550 C   0  0  0  0  0  0  0  0  0  0  0  0
   -1.2280    0.0350   -0.3310 C   0  0  0  0  0  0  0  0  0  0  0  0
   -0.7520    0.9770    0.6770 C   0  0  0  0  0  0  0  0  0  0  0  0
    0.6990    1.2880    0.7730 C   0  0  0  0  0  0  0  0  0  0  0  0
    1.5510    0.4450   -0.0390 C   0  0  0  0  0  0  0  0  0  0  0  0
    1.1350   -0.4760   -0.9040 C   0  0  0  0  0  0  0  0  0  0  0  0
    1.8930   -1.2960   -1.7990 N   0  0  0  0  0  0  0  0  0  0  0  0
    3.1670   -1.8670   -1.5530 C   0  0  0  0  0  0  0  0  0  0  0  0
    3.5340   -2.9320   -2.1620 N   0  0  0  0  0  0  0  0  0  0  0  0
    4.1530   -1.3470   -0.6400 N   0  0  0  0  0  0  0  0  0  0  0  0
    4.0980   -0.0740    0.0300 C   0  0  0  0  0  0  0  0  0  0  0  0
    5.3760    0.2650    0.3960 C   0  0  0  0  0  0  0  0  0  0  0  0
    5.5590    1.4540    1.0600 C   0  0  0  0  0  0  0  0  0  0  0  0
    4.4580    2.2540    1.3310 C   0  0  0  0  0  0  0  0  0  0  0  0
    3.1620    1.8960    0.9530 C   0  0  0  0  0  0  0  0  0  0  0  0
    2.9800    0.7130    0.2920 C   0  0  0  0  0  0  0  0  0  0  0  0
  1  2  1  0
  2  3  2  3
  3  4  1  0
  3  5  1  0
  5  6  2  0
  5 11  1  0
  6  7  1  0
  6  8  1  0
  8  9  2  0
  9 10  1  0
 10 11  2  0
 10 15  1  0
 11 12  1  0
 12 13  1  0
 13 14  1  0
 14 15  2  0
 14 25  1  0
 15 16  1  0
 16 17  1  0
 17 18  2  0
 17 19  1  0
 19 20  1  0
 20 21  2  0
 20 25  1  0
 21 22  1  0
 22 23  2  0
 23 24  1  0
 24 25  2  0
M  CHG  1  18   1
M  END
