
     RDKit          3D

 24 26  0  0  0  0  0  0  0  0999 V2000
   -6.2820    1.3330    1.8100 C   0  0  0  0  0  0  0  0  0  0  0  0
   -5.8350    0.5540    0.7140 O   0  0  0  0  0  0  0  0  0  0  0  0
   -4.4750    0.2860    0.5890 C   0  0  0  0  0  0  0  0  0  0  0  0
   -3.5370    0.7400    1.4670 C   0  0  0  0  0  0  0  0  0  0  0  0
   -2.1840    0.4260    1.2740 C   0  0  0  0  0  0  0  0  0  0  0  0
   -1.2120    0.8990    2.2960 C   0  0  0  0  0  0  0  0  0  0  0  0
   -1.7530   -0.3380    0.2110 C   0  0  0  0  0  0  0  0  0  0  0  0
   -0.3130   -0.5970   -0.0210 C   0  0  0  0  0  0  0  0  0  0  0  0
    0.1090   -1.7740   -0.0100 O   0  0  0  0  0  0  0  0  0  0  0  0
    0.5590    0.4790   -0.2540 N   0  0  0  0  0  0  0  0  0  0  0  0
    1.9630    0.4260   -0.4600 C   0  0  0  0  0  0  0  0  0  0  0  0
    2.6980   -0.6970   -0.2000 C   0  0  0  0  0  0  0  0  0  0  0  0
    4.0820   -0.6370   -0.3740 C   0  0  0  0  0  0  0  0  0  0  0  0
    4.6840    0.5260   -0.7960 C   0  0  0  0  0  0  0  0  0  0  0  0
    3.9210    1.6010   -1.0380 N   0  0  0  0  0  0  0  0  0  0  0  0
    2.5970    1.5990   -0.8880 C   0  0  0  0  0  0  0  0  0  0  0  0
    1.9070    2.6120   -1.1210 O   0  0  0  0  0  0  0  0  0  0  0  0
    6.1580    0.2740   -0.8720 C   0  0  0  0  0  0  0  0  0  0  0  0
    6.3110   -0.7840    0.2320 C   0  0  0  0  0  0  0  0  0  0  0  0
    5.1210   -1.6880   -0.1410 C   0  0  0  0  0  0  0  0  0  0  0  0
   -2.7050   -0.7980   -0.6770 C   0  0  0  0  0  0  0  0  0  0  0  0
   -4.0310   -0.4880   -0.4850 C   0  0  0  0  0  0  0  0  0  0  0  0
   -5.0180   -0.9500   -1.3870 O   0  0  0  0  0  0  0  0  0  0  0  0
   -4.5870   -1.7520   -2.4920 C   0  0  0  0  0  0  0  0  0  0  0  0
  1  2  1  0
  2  3  1  0
  3  4  2  0
  3 22  1  0
  4  5  1  0
  5  6  1  0
  5  7  2  0
  7  8  1  0
  7 21  1  0
  8  9  2  0
  8 10  1  0
 10 11  1  0
 11 12  2  0
 11 16  1  0
 12 13  1  0
 13 14  2  0
 13 20  1  0
 14 15  1  0
 14 18  1  0
 15 16  1  0
 16 17  2  0
 18 19  1  0
 19 20  1  0
 21 22  2  0
 22 23  1  0
 23 24  1  0
M  END
