
     RDKit          3D

 24 26  0  0  0  0  0  0  0  0999 V2000
   -5.9210    1.6690    0.9560 C   0  0  0  0  0  0  0  0  0  0  0  0
   -4.4900    2.0470    0.8980 C   0  0  0  0  0  0  0  0  0  0  0  0
   -4.0230    3.2670    1.4180 C   0  0  0  0  0  0  0  0  0  0  0  0
   -2.6810    3.2610    1.1680 C   0  0  0  0  0  0  0  0  0  0  0  0
   -2.3340    2.0670    0.5130 C   0  0  0  0  0  0  0  0  0  0  0  0
   -0.9800    1.7740    0.0970 C   0  0  0  0  0  0  0  0  0  0  0  0
   -0.3130    2.7950   -0.2900 O   0  0  0  0  0  0  0  0  0  0  0  0
   -0.3260    0.5410    0.0760 N   0  0  0  0  0  0  0  0  0  0  0  0
    1.0150    0.2710   -0.3630 C   0  0  0  0  0  0  0  0  0  0  0  0
    1.7990    1.1440   -1.0350 C   0  0  0  0  0  0  0  0  0  0  0  0
    3.0790    0.7960   -1.4000 C   0  0  0  0  0  0  0  0  0  0  0  0
    3.6220   -0.4350   -1.1070 C   0  0  0  0  0  0  0  0  0  0  0  0
    2.8390   -1.3360   -0.4250 C   0  0  0  0  0  0  0  0  0  0  0  0
    1.5680   -0.9870   -0.0630 C   0  0  0  0  0  0  0  0  0  0  0  0
    3.6270   -2.4880   -0.2610 O   0  0  0  0  0  0  0  0  0  0  0  0
    4.9780   -2.0750   -0.3520 C   0  0  1  0  0  0  0  0  0  0  0  0
    5.4020   -1.3780    0.9190 C   0  0  0  0  0  0  0  0  0  0  0  0
    5.9090   -3.1630   -0.7610 C   0  0  0  0  0  0  0  0  0  0  0  0
    4.8660   -1.0460   -1.3490 O   0  0  0  0  0  0  0  0  0  0  0  0
   -3.4740    1.3530    0.3660 N   0  0  0  0  0  0  0  0  0  0  0  0
   -3.4900    0.0900   -0.2720 C   0  0  0  0  0  0  0  0  0  0  0  0
   -4.4640   -0.7740   -0.3420 C   0  0  0  0  0  0  0  0  0  0  0  0
   -4.2960   -2.0550   -1.0600 C   0  0  0  0  0  0  0  0  0  0  0  0
   -5.2210   -2.8960   -1.1360 O   0  0  0  0  0  0  0  0  0  0  0  0
  1  2  1  0
  2  3  2  0
  2 20  1  0
  3  4  1  0
  4  5  2  0
  5  6  1  0
  5 20  1  0
  6  7  2  0
  6  8  1  0
  8  9  1  0
  9 10  2  0
  9 14  1  0
 10 11  1  0
 11 12  2  0
 12 13  1  0
 12 19  1  0
 13 14  2  0
 13 15  1  0
 15 16  1  0
 16 17  1  1
 16 18  1  0
 16 19  1  0
 20 21  1  0
 21 22  2  3
 22 23  1  0
 23 24  2  0
M  END
