
     RDKit          3D

 23 25  0  0  0  0  0  0  0  0999 V2000
    5.2800   -1.9240    0.2170 C   0  0  0  0  0  0  0  0  0  0  0  0
    4.3250   -0.9240   -0.0900 O   0  0  0  0  0  0  0  0  0  0  0  0
    2.9600   -1.0730    0.0700 C   0  0  0  0  0  0  0  0  0  0  0  0
    2.5620   -2.1780    0.5120 O   0  0  0  0  0  0  0  0  0  0  0  0
    2.0840    0.0360   -0.2720 C   0  0  0  0  0  0  0  0  0  0  0  0
    2.6610    1.1920   -0.7630 C   0  0  0  0  0  0  0  0  0  0  0  0
    1.8760    2.2710   -1.0520 C   0  0  0  0  0  0  0  0  0  0  0  0
    0.5130    2.2210   -0.8660 C   0  0  0  0  0  0  0  0  0  0  0  0
   -0.2240    3.3470   -0.9670 N   0  0  0  0  0  0  0  0  0  0  0  0
   -1.5030    3.3370   -0.6100 C   0  0  0  0  0  0  0  0  0  0  0  0
   -2.2040    4.4120   -0.6950 O   0  0  0  0  0  0  0  0  0  0  0  0
   -2.1490    2.2160   -0.1420 C   0  0  0  0  0  0  0  0  0  0  0  0
   -3.4460    2.2540    0.2420 C   0  0  0  0  0  0  0  0  0  0  0  0
   -4.0400    1.1640    0.7020 N   0  0  0  0  0  0  0  0  0  0  0  0
   -3.3760    0.0180    0.7810 C   0  0  0  0  0  0  0  0  0  0  0  0
   -3.9200   -1.0350    1.2060 O   0  0  0  0  0  0  0  0  0  0  0  0
   -1.9740   -0.1320    0.3900 C   0  0  0  0  0  0  0  0  0  0  0  0
   -1.5420   -1.5030    0.2360 C   0  0  1  0  0  0  0  0  0  0  0  0
   -0.6990   -2.1390   -0.8020 C   0  0  0  0  0  0  0  0  0  0  0  0
   -1.5690   -2.3290    1.5340 C   0  0  0  0  0  0  0  0  0  0  0  0
   -1.4030    1.0110   -0.0380 C   0  0  0  0  0  0  0  0  0  0  0  0
   -0.0640    1.0600   -0.3890 C   0  0  0  0  0  0  0  0  0  0  0  0
    0.7180   -0.0160   -0.0850 C   0  0  0  0  0  0  0  0  0  0  0  0
  1  2  1  0
  2  3  1  0
  3  4  2  0
  3  5  1  0
  5  6  2  0
  5 23  1  0
  6  7  1  0
  7  8  2  0
  8  9  1  0
  8 22  1  0
  9 10  1  0
 10 11  2  0
 10 12  1  0
 12 13  2  0
 12 21  1  0
 13 14  1  0
 14 15  1  0
 15 16  2  0
 15 17  1  0
 17 18  1  0
 17 21  2  0
 18 19  1  1
 18 20  1  0
 21 22  1  0
 22 23  2  0
M  END
