
     RDKit          3D

 24 26  0  0  0  0  0  0  0  0999 V2000
    0.3610   -2.8550   -0.9470 C   0  0  0  0  0  0  0  0  0  0  0  0
    0.8620   -1.5350   -0.4920 C   0  0  0  0  0  0  0  0  0  0  0  0
   -0.0410   -0.6040   -0.2070 C   0  0  0  0  0  0  0  0  0  0  0  0
   -1.4590   -0.8750   -0.3380 C   0  0  0  0  0  0  0  0  0  0  0  0
   -2.4120   -0.0350   -0.0850 C   0  0  0  0  0  0  0  0  0  0  0  0
   -3.7180   -0.5120   -0.2820 O   0  0  0  0  0  0  0  0  0  0  0  0
   -4.8100    0.2900   -0.0450 C   0  0  0  0  0  0  0  0  0  0  0  0
   -6.1100   -0.1990   -0.2460 C   0  0  0  0  0  0  0  0  0  0  0  0
   -7.2100    0.5940   -0.0130 C   0  0  0  0  0  0  0  0  0  0  0  0
   -7.0940    1.8940    0.4250 C   0  0  0  0  0  0  0  0  0  0  0  0
   -5.8310    2.3910    0.6270 C   0  0  0  0  0  0  0  0  0  0  0  0
   -4.7060    1.5920    0.3930 C   0  0  0  0  0  0  0  0  0  0  0  0
   -3.4300    2.1500    0.6160 N   0  0  0  0  0  0  0  0  0  0  0  0
   -2.2740    1.3210    0.3720 C   0  0  0  0  0  0  0  0  0  0  0  0
   -1.1420    1.8470    0.5810 O   0  0  0  0  0  0  0  0  0  0  0  0
    2.2700   -1.2840   -0.3680 C   0  0  0  0  0  0  0  0  0  0  0  0
    3.0880   -2.2130   -0.6540 O   0  0  0  0  0  0  0  0  0  0  0  0
    2.7910   -0.0600    0.0570 N   0  0  0  0  0  0  0  0  0  0  0  0
    4.1990    0.2010    0.1840 C   0  0  0  0  0  0  0  0  0  0  0  0
    5.2680   -0.6270   -0.0620 C   0  0  0  0  0  0  0  0  0  0  0  0
    6.4470    0.0710    0.2060 C   0  0  0  0  0  0  0  0  0  0  0  0
    7.8350   -0.4450    0.0730 C   0  0  0  0  0  0  0  0  0  0  0  0
    6.0190    1.3160    0.6090 C   0  0  0  0  0  0  0  0  0  0  0  0
    4.7150    1.3480    0.5820 O   0  0  0  0  0  0  0  0  0  0  0  0
  1  2  1  0
  2  3  2  3
  2 16  1  0
  3  4  1  0
  4  5  2  3
  5  6  1  0
  5 14  1  0
  6  7  1  0
  7  8  2  0
  7 12  1  0
  8  9  1  0
  9 10  2  0
 10 11  1  0
 11 12  2  0
 12 13  1  0
 13 14  1  0
 14 15  2  0
 16 17  2  0
 16 18  1  0
 18 19  1  0
 19 20  2  0
 19 24  1  0
 20 21  1  0
 21 22  1  0
 21 23  2  0
 23 24  1  0
M  END
