
     RDKit          3D

 24 26  0  0  0  0  0  0  0  0999 V2000
    6.4210    1.8000    0.3070 C   0  0  0  0  0  0  0  0  0  0  0  0
    5.6400    0.6690   -0.0320 O   0  0  0  0  0  0  0  0  0  0  0  0
    4.2700    0.6700    0.0370 C   0  0  0  0  0  0  0  0  0  0  0  0
    3.5930    1.7990    0.4490 C   0  0  0  0  0  0  0  0  0  0  0  0
    2.2350    1.7300    0.4940 C   0  0  0  0  0  0  0  0  0  0  0  0
    1.4880    2.9270    0.9320 C   0  0  0  0  0  0  0  0  0  0  0  0
    1.4880    0.5900    0.1500 C   0  0  0  0  0  0  0  0  0  0  0  0
    0.0820    0.6630    0.2460 N   0  0  0  0  0  0  0  0  0  0  0  0
   -0.7590   -0.4240   -0.0760 C   0  0  0  0  0  0  0  0  0  0  0  0
   -0.3590   -1.5360   -0.4690 O   0  0  0  0  0  0  0  0  0  0  0  0
   -2.2310   -0.2600    0.0530 C   0  0  0  0  0  0  0  0  0  0  0  0
   -2.8100    0.8700    0.4600 N   0  0  0  0  0  0  0  0  0  0  0  0
   -4.1590    0.6560    0.4570 C   0  0  0  0  0  0  0  0  0  0  0  0
   -5.2300    1.6280    0.8360 C   0  0  0  0  0  0  0  0  0  0  0  0
   -4.4270   -0.6310    0.0390 C   0  0  0  0  0  0  0  0  0  0  0  0
   -3.2040   -1.2170   -0.2180 C   0  0  0  0  0  0  0  0  0  0  0  0
   -3.3890   -2.6170   -0.6780 C   0  0  0  0  0  0  0  0  0  0  0  0
   -4.7510   -2.9600   -0.1110 C   0  0  0  0  0  0  0  0  0  0  0  0
   -5.4580   -1.6360   -0.2450 C   0  0  0  0  0  0  0  0  0  0  0  0
   -6.6410   -1.3990   -0.5290 O   0  0  0  0  0  0  0  0  0  0  0  0
    2.1860   -0.5110   -0.2530 C   0  0  0  0  0  0  0  0  0  0  0  0
    3.5940   -0.4740   -0.3120 C   0  0  0  0  0  0  0  0  0  0  0  0
    4.2550   -1.6150   -0.7260 O   0  0  0  0  0  0  0  0  0  0  0  0
    3.5790   -2.8020   -1.0900 C   0  0  0  0  0  0  0  0  0  0  0  0
  1  2  1  0
  2  3  1  0
  3  4  2  0
  3 22  1  0
  4  5  1  0
  5  6  1  0
  5  7  2  0
  7  8  1  0
  7 21  1  0
  8  9  1  0
  9 10  2  0
  9 11  1  0
 11 12  1  0
 11 16  2  0
 12 13  1  0
 13 14  1  0
 13 15  2  0
 15 16  1  0
 15 19  1  0
 16 17  1  0
 17 18  1  0
 18 19  1  0
 19 20  2  0
 21 22  2  0
 22 23  1  0
 23 24  1  0
M  END
