
     RDKit          3D

 24 26  0  0  0  0  0  0  0  0999 V2000
   -4.9770   -1.5330   -2.7210 C   0  0  0  0  0  0  0  0  0  0  0  0
   -4.1450   -1.0190   -1.7240 O   0  0  0  0  0  0  0  0  0  0  0  0
   -4.6680   -0.5110   -0.5420 C   0  0  0  0  0  0  0  0  0  0  0  0
   -6.0160   -0.4870   -0.2930 C   0  0  0  0  0  0  0  0  0  0  0  0
   -6.5640    0.0090    0.8670 C   0  0  0  0  0  0  0  0  0  0  0  0
   -5.6870    0.4980    1.8010 C   0  0  0  0  0  0  0  0  0  0  0  0
   -4.3020    0.4990    1.6010 C   0  0  0  0  0  0  0  0  0  0  0  0
   -3.7830   -0.0050    0.4280 C   0  0  0  0  0  0  0  0  0  0  0  0
   -2.4160   -0.0530    0.1240 N   0  0  0  0  0  0  0  0  0  0  0  0
   -1.3740    0.3990    0.9570 C   0  0  0  0  0  0  0  0  0  0  0  0
   -1.5730    0.9040    2.0830 O   0  0  0  0  0  0  0  0  0  0  0  0
    0.0260    0.2760    0.4820 C   0  0  0  0  0  0  0  0  0  0  0  0
    0.2730   -0.2180   -0.6280 O   0  0  0  0  0  0  0  0  0  0  0  0
    1.0490    0.7360    1.3350 N   0  0  0  0  0  0  0  0  0  0  0  0
    2.4270    0.6900    1.0440 C   0  0  0  0  0  0  0  0  0  0  0  0
    3.3020    1.4070    1.8690 C   0  0  0  0  0  0  0  0  0  0  0  0
    4.6630    1.4220    1.6870 C   0  0  0  0  0  0  0  0  0  0  0  0
    5.1640    0.6870    0.6310 C   0  0  0  0  0  0  0  0  0  0  0  0
    4.3390   -0.0370   -0.2090 C   0  0  0  0  0  0  0  0  0  0  0  0
    2.9690   -0.0280    0.0080 C   0  0  0  0  0  0  0  0  0  0  0  0
    4.9430   -0.7820   -1.2920 C   0  0  0  0  0  0  0  0  0  0  0  0
    6.2360   -0.7980   -1.5080 C   0  0  0  0  0  0  0  0  0  0  0  0
    7.1520   -0.0410   -0.6360 C   0  0  0  0  0  0  0  0  0  0  0  0
    6.5100    0.6560    0.3890 O   0  0  0  0  0  0  0  0  0  0  0  0
  1  2  1  0
  2  3  1  0
  3  4  2  0
  3  8  1  0
  4  5  1  0
  5  6  2  0
  6  7  1  0
  7  8  2  0
  8  9  1  0
  9 10  1  0
 10 11  2  0
 10 12  1  0
 12 13  2  0
 12 14  1  0
 14 15  1  0
 15 16  2  0
 15 20  1  0
 16 17  1  0
 17 18  2  0
 18 19  1  0
 18 24  1  0
 19 20  2  0
 19 21  1  0
 21 22  2  0
 22 23  1  0
 23 24  1  0
M  END
