
     RDKit          3D

 24 26  0  0  0  0  0  0  0  0999 V2000
    2.9250    1.8390    2.7190 N   0  0  0  0  0  0  0  0  0  0  0  0
    3.5740    1.6140    1.7990 C   0  0  0  0  0  0  0  0  0  0  0  0
    4.4120    1.3250    0.6510 C   0  0  0  0  0  0  0  0  0  0  0  0
    5.7560    1.6120    0.7190 C   0  0  0  0  0  0  0  0  0  0  0  0
    6.6040    1.3560   -0.3470 C   0  0  0  0  0  0  0  0  0  0  0  0
    7.9440    1.6750   -0.1970 O   0  0  0  0  0  0  0  0  0  0  0  0
    6.0610    0.8090   -1.4700 C   0  0  0  0  0  0  0  0  0  0  0  0
    4.6920    0.5190   -1.5320 C   0  0  0  0  0  0  0  0  0  0  0  0
    3.8520    0.7620   -0.5030 C   0  0  0  0  0  0  0  0  0  0  0  0
    2.4580    0.5090   -0.4600 N   0  0  0  0  0  0  0  0  0  0  0  0
    1.6710   -0.0500   -1.4860 C   0  0  0  0  0  0  0  0  0  0  0  0
    2.2200   -0.3700   -2.5590 O   0  0  0  0  0  0  0  0  0  0  0  0
    0.2180   -0.2900   -1.3820 C   0  0  0  0  0  0  0  0  0  0  0  0
   -0.4970   -0.0070   -0.3220 C   0  0  0  0  0  0  0  0  0  0  0  0
   -1.9260   -0.2730   -0.2950 C   0  0  0  0  0  0  0  0  0  0  0  0
   -2.6610   -0.8180   -1.3050 C   0  0  0  0  0  0  0  0  0  0  0  0
   -4.0390   -1.0490   -1.2190 C   0  0  0  0  0  0  0  0  0  0  0  0
   -4.6980   -0.7200   -0.0720 C   0  0  0  0  0  0  0  0  0  0  0  0
   -3.9650   -0.1640    0.9660 C   0  0  0  0  0  0  0  0  0  0  0  0
   -2.6120    0.0630    0.8790 C   0  0  0  0  0  0  0  0  0  0  0  0
   -4.6170    0.1820    2.1510 O   0  0  0  0  0  0  0  0  0  0  0  0
   -6.0050    0.4720    2.0990 C   0  0  0  0  0  0  0  0  0  0  0  0
   -6.7520   -0.5560    1.2800 C   0  0  0  0  0  0  0  0  0  0  0  0
   -6.0560   -0.9120    0.1030 O   0  0  0  0  0  0  0  0  0  0  0  0
  1  2  3  0
  2  3  1  0
  3  4  2  0
  3  9  1  0
  4  5  1  0
  5  6  1  0
  5  7  2  0
  7  8  1  0
  8  9  2  0
  9 10  1  0
 10 11  1  0
 11 12  2  0
 11 13  1  0
 13 14  2  3
 14 15  1  0
 15 16  2  0
 15 20  1  0
 16 17  1  0
 17 18  2  0
 18 19  1  0
 18 24  1  0
 19 20  2  0
 19 21  1  0
 21 22  1  0
 22 23  1  0
 23 24  1  0
M  END
