
     RDKit          3D

 24 26  0  0  0  0  0  0  0  0999 V2000
   -7.2330   -0.4170    1.2240 C   0  0  0  0  0  0  0  0  0  0  0  0
   -5.9920   -0.1240    0.9080 C   0  0  0  0  0  0  0  0  0  0  0  0
   -5.2740   -0.7620   -0.1670 C   0  0  0  0  0  0  0  0  0  0  0  0
   -4.0240   -0.4120   -0.4240 C   0  0  0  0  0  0  0  0  0  0  0  0
   -3.3600   -1.1090   -1.5400 C   0  0  0  0  0  0  0  0  0  0  0  0
   -3.3030    0.6080    0.3330 C   0  0  0  0  0  0  0  0  0  0  0  0
   -1.9230    1.0240    0.0640 C   0  0  0  0  0  0  0  0  0  0  0  0
   -0.9090   -0.0630    0.3130 C   0  0  0  0  0  0  0  0  0  0  0  0
    0.4460    0.4820    0.0020 C   0  0  0  0  0  0  0  0  0  0  0  0
    0.5450    1.6590   -0.3870 O   0  0  0  0  0  0  0  0  0  0  0  0
    1.6140   -0.3080    0.1400 N   0  0  0  0  0  0  0  0  0  0  0  0
    2.9340    0.0800   -0.1170 C   0  0  0  0  0  0  0  0  0  0  0  0
    3.3000    1.3110   -0.5500 C   0  0  0  0  0  0  0  0  0  0  0  0
    4.6450    1.6430   -0.7910 C   0  0  0  0  0  0  0  0  0  0  0  0
    5.6250    0.7220   -0.5930 C   0  0  0  0  0  0  0  0  0  0  0  0
    7.0510    1.0560   -0.8430 C   0  0  0  0  0  0  0  0  0  0  0  0
    5.2890   -0.5400   -0.1530 C   0  0  0  0  0  0  0  0  0  0  0  0
    5.9970   -1.6260    0.1250 O   0  0  0  0  0  0  0  0  0  0  0  0
    5.1710   -2.5680    0.5110 C   0  0  0  0  0  0  0  0  0  0  0  0
    5.4460   -3.7540    0.8660 O   0  0  0  0  0  0  0  0  0  0  0  0
    3.9360   -2.0810    0.4780 O   0  0  0  0  0  0  0  0  0  0  0  0
    3.9800   -0.8310    0.0710 C   0  0  0  0  0  0  0  0  0  0  0  0
   -3.9790    1.1980    1.3320 C   0  0  0  0  0  0  0  0  0  0  0  0
   -5.3170    0.8740    1.6630 N   0  0  0  0  0  0  0  0  0  0  0  0
  1  2  2  0
  2  3  1  0
  2 24  1  0
  3  4  2  0
  4  5  1  0
  4  6  1  0
  6  7  1  0
  6 23  2  0
  7  8  1  0
  8  9  1  0
  9 10  2  0
  9 11  1  0
 11 12  1  0
 12 13  2  0
 12 22  1  0
 13 14  1  0
 14 15  2  0
 15 16  1  0
 15 17  1  0
 17 18  1  0
 17 22  2  0
 18 19  1  0
 19 20  2  0
 19 21  1  0
 21 22  1  0
 23 24  1  0
M  END
