
     RDKit          3D

 24 26  0  0  0  0  0  0  0  0999 V2000
   -4.4790    3.0140    1.5740 C   0  0  0  0  0  0  0  0  0  0  0  0
   -4.8250    1.7250    1.1560 O   0  0  0  0  0  0  0  0  0  0  0  0
   -3.9090    0.7870    0.7160 C   0  0  0  0  0  0  0  0  0  0  0  0
   -4.3560   -0.4730    0.3200 C   0  0  0  0  0  0  0  0  0  0  0  0
   -3.4410   -1.3930   -0.1140 C   0  0  0  0  0  0  0  0  0  0  0  0
   -3.8550   -2.6390   -0.5090 O   0  0  0  0  0  0  0  0  0  0  0  0
   -5.1780   -3.0850   -0.5130 C   0  0  0  0  0  0  0  0  0  0  0  0
   -2.1110   -1.0630   -0.1520 C   0  0  0  0  0  0  0  0  0  0  0  0
   -1.1820   -1.9760   -0.5850 C   0  0  0  0  0  0  0  0  0  0  0  0
   -1.5910   -3.1140   -0.9420 O   0  0  0  0  0  0  0  0  0  0  0  0
    0.1210   -1.6240   -0.6130 N   0  0  0  0  0  0  0  0  0  0  0  0
    0.5620   -0.4210   -0.2360 C   0  0  0  0  0  0  0  0  0  0  0  0
    1.9740   -0.0730   -0.2770 C   0  0  0  0  0  0  0  0  0  0  0  0
    2.3760    1.2090    0.1310 C   0  0  0  0  0  0  0  0  0  0  0  0
    3.6990    1.5880    0.1110 C   0  0  0  0  0  0  0  0  0  0  0  0
    4.1410    2.9390    0.5400 C   0  0  0  0  0  0  0  0  0  0  0  0
    4.6120    0.6560   -0.3270 C   0  0  0  0  0  0  0  0  0  0  0  0
    5.9430    1.0210   -0.3520 O   0  0  0  0  0  0  0  0  0  0  0  0
    4.2680   -0.6030   -0.7340 C   0  0  0  0  0  0  0  0  0  0  0  0
    5.2870   -1.5790   -1.2000 C   0  0  0  0  0  0  0  0  0  0  0  0
    2.9170   -0.9720   -0.7070 C   0  0  0  0  0  0  0  0  0  0  0  0
   -0.3510    0.4890    0.1940 N   0  0  0  0  0  0  0  0  0  0  0  0
   -1.6600    0.1980    0.2430 C   0  0  0  0  0  0  0  0  0  0  0  0
   -2.5740    1.1310    0.6820 C   0  0  0  0  0  0  0  0  0  0  0  0
  1  2  1  0
  2  3  1  0
  3  4  2  0
  3 24  1  0
  4  5  1  0
  5  6  1  0
  5  8  2  0
  6  7  1  0
  8  9  1  0
  8 23  1  0
  9 10  2  0
  9 11  1  0
 11 12  1  0
 12 13  1  0
 12 22  2  0
 13 14  2  0
 13 21  1  0
 14 15  1  0
 15 16  1  0
 15 17  2  0
 17 18  1  0
 17 19  1  0
 19 20  1  0
 19 21  2  0
 22 23  1  0
 23 24  2  0
M  END
