
     RDKit          3D

 24 26  0  0  0  0  0  0  0  0999 V2000
   -4.8670   -1.1830   -1.9770 C   0  0  0  0  0  0  0  0  0  0  0  0
   -4.2750    0.1880   -2.0140 C   0  0  0  0  0  0  0  0  0  0  0  0
   -3.3820    0.4810   -0.9770 O   0  0  0  0  0  0  0  0  0  0  0  0
   -3.8230    0.4590    0.3280 C   0  0  0  0  0  0  0  0  0  0  0  0
   -5.1410    0.1660    0.6730 C   0  0  0  0  0  0  0  0  0  0  0  0
   -5.5150    0.1600    2.0210 C   0  0  0  0  0  0  0  0  0  0  0  0
   -4.5940    0.4400    2.9910 C   0  0  0  0  0  0  0  0  0  0  0  0
   -3.2830    0.7310    2.6350 C   0  0  0  0  0  0  0  0  0  0  0  0
   -2.8880    0.7430    1.3130 C   0  0  0  0  0  0  0  0  0  0  0  0
   -1.5930    1.0280    0.9260 O   0  0  0  0  0  0  0  0  0  0  0  0
   -0.6040    0.0160    0.7860 C   0  0  0  0  0  0  0  0  0  0  0  0
   -1.0480   -1.1230    1.0510 O   0  0  0  0  0  0  0  0  0  0  0  0
    0.7370    0.3340    0.3820 C   0  0  0  0  0  0  0  0  0  0  0  0
    1.7510   -0.4680    0.2090 C   0  0  0  0  0  0  0  0  0  0  0  0
    1.6190   -1.8550    0.4210 N   0  0  0  0  0  0  0  0  0  0  0  0
    2.7720   -2.6970    0.2140 C   0  0  0  0  0  0  0  0  0  0  0  0
    2.6600   -3.9420    0.4010 O   0  0  0  0  0  0  0  0  0  0  0  0
    3.9860   -2.1350   -0.1880 N   0  0  0  0  0  0  0  0  0  0  0  0
    4.1010   -0.7110   -0.4000 C   0  0  0  0  0  0  0  0  0  0  0  0
    3.0670    0.0790   -0.2180 C   0  0  0  0  0  0  0  0  0  0  0  0
    3.1840    1.5190   -0.4310 C   0  0  0  0  0  0  0  0  0  0  0  0
    4.5130    2.0730   -0.7330 C   0  0  0  0  0  0  0  0  0  0  0  0
    5.6760    1.1880   -0.4260 C   0  0  0  0  0  0  0  0  0  0  0  0
    5.4250   -0.2480   -0.8210 C   0  0  0  0  0  0  0  0  0  0  0  0
  1  2  1  0
  2  3  1  0
  3  4  1  0
  4  5  2  0
  4  9  1  0
  5  6  1  0
  6  7  2  0
  7  8  1  0
  8  9  2  0
  9 10  1  0
 10 11  1  0
 11 12  2  0
 11 13  1  0
 13 14  2  3
 14 15  1  0
 14 20  1  0
 15 16  1  0
 16 17  2  0
 16 18  1  0
 18 19  1  0
 19 20  2  0
 19 24  1  0
 20 21  1  0
 21 22  1  0
 22 23  1  0
 23 24  1  0
M  END
