
     RDKit          3D

 28 31  0  0  0  0  0  0  0  0999 V2000
   -3.6910   -1.5230    1.0070 C   0  0  0  0  0  0  0  0  0  0  0  0
   -3.9060   -0.5820    0.1190 C   0  0  0  0  0  0  0  0  0  0  0  0
   -5.2150    0.0530   -0.1690 C   0  0  0  0  0  0  0  0  0  0  0  0
   -6.4520    0.0450    0.1720 N   0  0  0  0  0  0  0  0  0  0  0  0
   -6.9930   -0.7630    1.1320 O   0  0  0  0  0  0  0  0  0  0  0  0
   -7.2000    1.0110   -0.5990 C   0  0  0  0  0  0  0  0  0  0  0  0
   -6.2040    1.6420   -1.5010 C   0  0  0  0  0  0  0  0  0  0  0  0
   -5.0610    1.0520   -1.2160 C   0  0  0  0  0  0  0  0  0  0  0  0
   -3.6400    1.0220   -1.5670 C   0  0  0  0  0  0  0  0  0  0  0  0
   -3.1010    1.7440   -2.4370 O   0  0  0  0  0  0  0  0  0  0  0  0
   -2.9810    0.0500   -0.7660 N   0  0  0  0  0  0  0  0  0  0  0  0
   -1.5770   -0.2900   -0.7970 C   0  0  0  0  0  0  0  0  0  0  0  0
   -1.1020   -1.1720   -1.7440 C   0  0  0  0  0  0  0  0  0  0  0  0
    0.2390   -1.4710   -1.7370 C   0  0  0  0  0  0  0  0  0  0  0  0
    0.7300   -2.4210   -2.7620 C   0  0  0  0  0  0  0  0  0  0  0  0
    1.0810   -0.8950   -0.8010 C   0  0  0  0  0  0  0  0  0  0  0  0
    0.6610   -0.0180    0.1540 C   0  0  0  0  0  0  0  0  0  0  0  0
    1.4270    0.6260    1.1390 N   0  0  0  0  0  0  0  0  0  0  0  0
    2.8500    0.5970    1.2580 C   0  0  0  0  0  0  0  0  0  0  0  0
    3.4450   -0.0770    0.3800 O   0  0  0  0  0  0  0  0  0  0  0  0
    3.5430    1.2960    2.3150 C   0  0  0  0  0  0  0  0  0  0  0  0
    4.7870    1.3470    2.5280 C   0  0  0  0  0  0  0  0  0  0  0  0
    5.8500    0.7260    1.7790 C   0  0  0  0  0  0  0  0  0  0  0  0
    7.2210    0.8420    2.0940 C   0  0  0  0  0  0  0  0  0  0  0  0
    7.8920    0.1120    1.1500 C   0  0  0  0  0  0  0  0  0  0  0  0
    6.9630   -0.4280    0.2930 C   0  0  0  0  0  0  0  0  0  0  0  0
    5.8170   -0.0230    0.7300 O   0  0  0  0  0  0  0  0  0  0  0  0
   -0.7170    0.2660    0.1200 C   0  0  0  0  0  0  0  0  0  0  0  0
  1  2  2  0
  2  3  1  0
  2 11  1  0
  3  4  2  0
  3  8  1  0
  4  5  1  0
  4  6  1  0
  6  7  1  0
  7  8  2  0
  8  9  1  0
  9 10  2  0
  9 11  1  0
 11 12  1  0
 12 13  2  0
 12 28  1  0
 13 14  1  0
 14 15  1  0
 14 16  2  0
 16 17  1  0
 17 18  1  0
 17 28  2  0
 18 19  1  0
 19 20  2  0
 19 21  1  0
 21 22  2  3
 22 23  1  0
 23 24  2  0
 23 27  1  0
 24 25  1  0
 25 26  2  0
 26 27  1  0
M  CHG  2   4   1   5  -1
M  END
