
     RDKit          3D

 28 31  0  0  0  0  0  0  0  0999 V2000
   -2.9980   -3.9130    1.7580 C   0  0  0  0  0  0  0  0  0  0  0  0
   -3.1640   -2.6280    1.1850 O   0  0  0  0  0  0  0  0  0  0  0  0
   -2.0430   -1.8980    0.7180 C   0  0  0  0  0  0  0  0  0  0  0  0
   -0.9450   -2.4680    0.8540 O   0  0  0  0  0  0  0  0  0  0  0  0
   -2.3130   -0.6050    0.1540 C   0  0  0  0  0  0  0  0  0  0  0  0
   -3.6120   -0.0820    0.2140 C   0  0  0  0  0  0  0  0  0  0  0  0
   -3.8890    1.1890   -0.2480 C   0  0  0  0  0  0  0  0  0  0  0  0
   -5.1730    1.6860   -0.1800 C   0  0  0  0  0  0  0  0  0  0  0  0
   -6.1230    0.9940    0.3050 O   0  0  0  0  0  0  0  0  0  0  0  0
   -5.4240    2.9240   -0.6340 N   0  0  0  0  0  0  0  0  0  0  0  0
   -4.4410    3.6780   -1.1500 C   0  0  0  0  0  0  0  0  0  0  0  0
   -3.1970    3.2160   -1.2250 N   0  0  0  0  0  0  0  0  0  0  0  0
   -2.1650    3.9880   -1.7600 O   0  0  0  0  0  0  0  0  0  0  0  0
   -2.8950    1.9800   -0.7830 C   0  0  0  0  0  0  0  0  0  0  0  0
   -1.6760    1.4600   -0.8290 N   0  0  0  0  0  0  0  0  0  0  0  0
   -1.3580    0.1940   -0.3790 C   0  0  0  0  0  0  0  0  0  0  0  0
    0.0250   -0.2510   -0.4900 C   0  0  0  0  0  0  0  0  0  0  0  0
    0.4090   -1.3920   -1.1550 C   0  0  0  0  0  0  0  0  0  0  0  0
    1.7300   -1.8100   -1.2290 C   0  0  0  0  0  0  0  0  0  0  0  0
    2.6950   -1.0490   -0.6100 C   0  0  0  0  0  0  0  0  0  0  0  0
    4.0410   -1.4070   -0.6410 C   0  0  0  0  0  0  0  0  0  0  0  0
    4.9960   -0.6370   -0.0180 C   0  0  0  0  0  0  0  0  0  0  0  0
    6.4170   -1.0590   -0.0790 C   0  0  0  0  0  0  0  0  0  0  0  0
    4.6700    0.5030    0.6540 C   0  0  0  0  0  0  0  0  0  0  0  0
    3.3480    0.8750    0.6980 C   0  0  0  0  0  0  0  0  0  0  0  0
    2.9780    2.1140    1.4260 C   0  0  0  0  0  0  0  0  0  0  0  0
    2.3710    0.1230    0.0830 C   0  0  0  0  0  0  0  0  0  0  0  0
    1.0350    0.4800    0.1160 C   0  0  0  0  0  0  0  0  0  0  0  0
  1  2  1  0
  2  3  1  0
  3  4  2  0
  3  5  1  0
  5  6  2  0
  5 16  1  0
  6  7  1  0
  7  8  1  0
  7 14  2  0
  8  9  2  0
  8 10  1  0
 10 11  1  0
 11 12  2  0
 12 13  1  0
 12 14  1  0
 14 15  1  0
 15 16  2  0
 16 17  1  0
 17 18  2  0
 17 28  1  0
 18 19  1  0
 19 20  2  0
 20 21  1  0
 20 27  1  0
 21 22  2  0
 22 23  1  0
 22 24  1  0
 24 25  2  0
 25 26  1  0
 25 27  1  0
 27 28  2  0
M  CHG  2  12   1  13  -1
M  END
