
     RDKit          3D

  9  9  0  0  0  0  0  0  0  0999 V2000
    0.0030   -0.8860   -1.7780 O   0  0  0  0  0  0  0  0  0  0  0  0
    0.2630   -0.1610   -0.6030 C   0  0  1  0  0  0  0  0  0  0  0  0
    1.7550    0.1960   -0.6660 C   0  0  0  0  0  0  0  0  0  0  0  0
    2.2370    1.1420    0.8020 S   0  0  0  0  0  0  0  0  0  0  0  0
   -0.5570    1.0810   -0.5880 C   0  0  0  0  0  0  0  0  0  0  0  0
   -1.9020    0.9310    0.0560 C   0  0  0  0  0  0  0  0  0  0  0  0
   -1.7280    0.3740    1.3140 O   0  0  0  0  0  0  0  0  0  0  0  0
   -1.2340   -0.9160    1.2700 C   0  0  0  0  0  0  0  0  0  0  0  0
    0.0800   -1.0460    0.5870 C   0  0  0  0  0  0  0  0  0  0  0  0
  2  1  1  6
  2  3  1  0
  2  5  1  0
  2  9  1  0
  3  4  1  0
  5  6  1  0
  6  7  1  0
  7  8  1  0
  8  9  1  0
M  END
