
     RDKit          3D

 27 30  0  0  0  0  0  0  0  0999 V2000
   -7.4280   -1.2780    1.4310 C   0  0  0  0  0  0  0  0  0  0  0  0
   -5.9860   -1.1480    1.1320 C   0  0  0  0  0  0  0  0  0  0  0  0
   -5.2090   -2.2890    0.8980 C   0  0  0  0  0  0  0  0  0  0  0  0
   -3.8810   -2.0950    0.6340 C   0  0  0  0  0  0  0  0  0  0  0  0
   -3.2980   -0.8420    0.5910 C   0  0  0  0  0  0  0  0  0  0  0  0
   -1.8790   -0.6550    0.3200 C   0  0  0  0  0  0  0  0  0  0  0  0
   -1.2740    0.5760    0.3050 C   0  0  0  0  0  0  0  0  0  0  0  0
    0.0890    0.7010    0.0570 C   0  0  0  0  0  0  0  0  0  0  0  0
    0.8630   -0.4250   -0.1810 C   0  0  0  0  0  0  0  0  0  0  0  0
    2.3040   -0.3310   -0.4320 C   0  0  0  0  0  0  0  0  0  0  0  0
    2.8140    0.8480   -0.3750 N   0  0  0  0  0  0  0  0  0  0  0  0
    4.1950    1.0150   -0.6070 C   0  0  0  0  0  0  0  0  0  0  0  0
    4.8050    2.1470   -0.0940 C   0  0  0  0  0  0  0  0  0  0  0  0
    6.1530    2.3590   -0.2920 C   0  0  0  0  0  0  0  0  0  0  0  0
    6.9040    1.4290   -1.0130 C   0  0  0  0  0  0  0  0  0  0  0  0
    8.1700    1.3720   -1.3470 O   0  0  0  0  0  0  0  0  0  0  0  0
    8.4290    0.2890   -2.0380 C   0  0  0  0  0  0  0  0  0  0  0  0
    7.2570   -0.4270   -2.1750 C   0  0  0  0  0  0  0  0  0  0  0  0
    6.2930    0.3030   -1.5210 C   0  0  0  0  0  0  0  0  0  0  0  0
    4.9340    0.0820   -1.3260 C   0  0  0  0  0  0  0  0  0  0  0  0
    0.2150   -1.6450   -0.1570 C   0  0  0  0  0  0  0  0  0  0  0  0
   -1.1140   -1.7330    0.0880 N   0  0  0  0  0  0  0  0  0  0  0  0
   -4.1070    0.2030    0.8250 N   0  0  0  0  0  0  0  0  0  0  0  0
   -5.4180    0.1070    1.0910 C   0  0  0  0  0  0  0  0  0  0  0  0
   -6.2420    1.2810    1.3250 C   0  0  0  0  0  0  0  0  0  0  0  0
   -7.4610    1.2580    1.5690 O   0  0  0  0  0  0  0  0  0  0  0  0
   -5.6550    2.5510    1.2800 O   0  0  0  0  0  0  0  0  0  0  0  0
  1  2  1  0
  2  3  2  0
  2 24  1  0
  3  4  1  0
  4  5  2  0
  5  6  1  0
  5 23  1  0
  6  7  2  0
  6 22  1  0
  7  8  1  0
  8  9  2  0
  9 10  1  0
  9 21  1  0
 10 11  2  3
 11 12  1  0
 12 13  2  0
 12 20  1  0
 13 14  1  0
 14 15  2  0
 15 16  1  0
 15 19  1  0
 16 17  1  0
 17 18  2  0
 18 19  1  0
 19 20  2  0
 21 22  2  0
 23 24  2  0
 24 25  1  0
 25 26  2  0
 25 27  1  0
M  END
