
     RDKit          3D

  9  9  0  0  0  0  0  0  0  0999 V2000
   -2.7320    0.8070    0.8130 O   0  0  0  0  0  0  0  0  0  0  0  0
   -2.5210    0.3350   -0.4610 C   0  0  0  0  0  0  0  0  0  0  0  0
   -1.4530   -0.7410   -0.5120 C   0  0  0  0  0  0  0  0  0  0  0  0
   -0.1300   -0.1750    0.0040 C   0  0  2  0  0  0  0  0  0  0  0  0
    0.3150    0.9830   -0.8300 C   0  0  0  0  0  0  0  0  0  0  0  0
    2.0600    0.8010   -1.3160 S   0  0  0  0  0  0  0  0  0  0  0  0
    2.9470   -0.1190   -0.0100 C   0  0  0  0  0  0  0  0  0  0  0  0
    1.8780   -0.7480    0.8680 C   0  0  0  0  0  0  0  0  0  0  0  0
    0.8220   -1.1640    0.0370 O   0  0  0  0  0  0  0  0  0  0  0  0
  1  2  1  0
  2  3  1  0
  4  3  1  6
  4  5  1  0
  4  9  1  0
  5  6  1  0
  6  7  1  0
  7  8  1  0
  8  9  1  0
M  END
