
     RDKit          3D

  9  8  0  0  0  0  0  0  0  0999 V2000
   -2.8440   -1.3400   -0.4330 C   0  0  0  0  0  0  0  0  0  0  0  0
   -2.0650   -0.3450   -0.7780 C   0  0  0  0  0  0  0  0  0  0  0  0
   -2.6650    0.8710   -1.9430 S   0  0  0  0  0  0  0  0  0  0  0  0
   -0.7240   -0.2330   -0.2160 C   0  0  0  0  0  0  0  0  0  0  0  0
    0.1000    0.7410   -0.5250 C   0  0  0  0  0  0  0  0  0  0  0  0
    1.4200    0.8050    0.0620 C   0  0  0  0  0  0  0  0  0  0  0  0
    2.2370    1.7420   -0.2230 O   0  0  0  0  0  0  0  0  0  0  0  0
    1.8520   -0.1670    0.9700 O   0  0  0  0  0  0  0  0  0  0  0  0
    3.1530   -0.0570    1.5140 C   0  0  0  0  0  0  0  0  0  0  0  0
  1  2  2  0
  2  3  1  0
  2  4  1  0
  4  5  2  3
  5  6  1  0
  6  7  2  0
  6  8  1  0
  8  9  1  0
M  END
