
     RDKit          3D

 27 29  0  0  0  0  0  0  0  0999 V2000
   -5.0210    3.7420   -0.8200 C   0  0  0  0  0  0  0  0  0  0  0  0
   -5.6540    2.5230   -0.4470 O   0  0  0  0  0  0  0  0  0  0  0  0
   -4.8490    1.4140   -0.2230 C   0  0  0  0  0  0  0  0  0  0  0  0
   -5.4090    0.2000    0.1430 C   0  0  0  0  0  0  0  0  0  0  0  0
   -4.6590   -0.9310    0.3780 C   0  0  0  0  0  0  0  0  0  0  0  0
   -5.1970   -2.1550    0.7450 O   0  0  0  0  0  0  0  0  0  0  0  0
   -6.6210   -2.2070    0.8780 C   0  0  0  0  0  0  0  0  0  0  0  0
   -3.2910   -0.8390    0.2390 C   0  0  0  0  0  0  0  0  0  0  0  0
   -2.4840   -1.9340    0.4600 C   0  0  0  0  0  0  0  0  0  0  0  0
   -3.0220   -3.0100    0.7880 O   0  0  0  0  0  0  0  0  0  0  0  0
   -1.1480   -1.8740    0.3320 N   0  0  0  0  0  0  0  0  0  0  0  0
   -0.5720   -0.7060   -0.0230 C   0  0  0  0  0  0  0  0  0  0  0  0
    0.8600   -0.5400   -0.1870 C   0  0  0  0  0  0  0  0  0  0  0  0
    1.3560    0.6950   -0.5530 C   0  0  0  0  0  0  0  0  0  0  0  0
    2.6800    0.9520   -0.7300 C   0  0  0  0  0  0  0  0  0  0  0  0
    3.2290    2.2670   -1.1220 C   0  0  0  0  0  0  0  0  0  0  0  0
    3.6210   -0.0880   -0.5350 C   0  0  0  0  0  0  0  0  0  0  0  0
    4.9600    0.2030   -0.7250 O   0  0  0  0  0  0  0  0  0  0  0  0
    5.8520    0.7710    0.1580 C   0  0  0  0  0  0  0  0  0  0  0  0
    6.1150    0.0090    1.3900 C   0  0  0  0  0  0  0  0  0  0  0  0
    6.6730   -1.2480    1.2180 O   0  0  0  0  0  0  0  0  0  0  0  0
    3.1730   -1.3250   -0.1740 C   0  0  0  0  0  0  0  0  0  0  0  0
    4.0920   -2.4910    0.0070 C   0  0  0  0  0  0  0  0  0  0  0  0
    1.7900   -1.5270   -0.0050 C   0  0  0  0  0  0  0  0  0  0  0  0
   -1.3650    0.3740   -0.2410 N   0  0  0  0  0  0  0  0  0  0  0  0
   -2.6860    0.3460   -0.1230 C   0  0  0  0  0  0  0  0  0  0  0  0
   -3.4770    1.4650   -0.3510 C   0  0  0  0  0  0  0  0  0  0  0  0
  1  2  1  0
  2  3  1  0
  3  4  2  0
  3 27  1  0
  4  5  1  0
  5  6  1  0
  5  8  2  0
  6  7  1  0
  8  9  1  0
  8 26  1  0
  9 10  2  0
  9 11  1  0
 11 12  1  0
 12 13  1  0
 12 25  2  0
 13 14  2  0
 13 24  1  0
 14 15  1  0
 15 16  1  0
 15 17  2  0
 17 18  1  0
 17 22  1  0
 18 19  1  0
 19 20  1  0
 20 21  1  0
 22 23  1  0
 22 24  2  0
 25 26  1  0
 26 27  2  0
M  END
