
     RDKit          3D

 20 22  0  0  0  0  0  0  0  0999 V2000
    0.7050    3.7380   -2.5030 O   0  0  0  0  0  0  0  0  0  0  0  0
    0.3680    3.0210   -1.5490 C   0  0  0  0  0  0  0  0  0  0  0  0
    1.2190    2.1370   -0.8330 N   0  0  0  0  0  0  0  0  0  0  0  0
    0.5810    1.5220    0.1110 C   0  0  0  0  0  0  0  0  0  0  0  0
    1.1920    0.5820    0.9790 N   0  0  0  0  0  0  0  0  0  0  0  0
    2.1960   -0.3340    0.5670 C   0  0  0  0  0  0  0  0  0  0  0  0
    2.8300   -1.1560    1.5090 C   0  0  0  0  0  0  0  0  0  0  0  0
    3.8000   -2.0590    1.1460 C   0  0  0  0  0  0  0  0  0  0  0  0
    4.1960   -2.2010   -0.1660 C   0  0  0  0  0  0  0  0  0  0  0  0
    3.5810   -1.4000   -1.0990 C   0  0  0  0  0  0  0  0  0  0  0  0
    2.5920   -0.4770   -0.7380 C   0  0  0  0  0  0  0  0  0  0  0  0
   -0.7790    1.9380    0.1230 N   0  0  0  0  0  0  0  0  0  0  0  0
   -1.7950    1.4860    1.0200 C   0  0  0  0  0  0  0  0  0  0  0  0
   -2.4930    0.2850    0.4530 C   0  0  0  0  0  0  0  0  0  0  0  0
   -3.7850    0.2160    0.1820 C   0  0  0  0  0  0  0  0  0  0  0  0
   -4.0940   -1.1300   -0.3640 C   0  0  0  0  0  0  0  0  0  0  0  0
   -2.8040   -1.8270   -0.3700 C   0  0  0  0  0  0  0  0  0  0  0  0
   -1.8930   -0.9940    0.1050 C   0  0  0  0  0  0  0  0  0  0  0  0
   -0.9510    2.8880   -0.9160 C   0  0  0  0  0  0  0  0  0  0  0  0
   -1.9970    3.5060   -1.2530 O   0  0  0  0  0  0  0  0  0  0  0  0
  1  2  2  0
  2  3  1  0
  2 19  1  0
  3  4  2  0
  4  5  1  0
  4 12  1  0
  5  6  1  0
  6  7  2  0
  6 11  1  0
  7  8  1  0
  8  9  2  0
  9 10  1  0
 10 11  2  0
 12 13  1  0
 12 19  1  0
 13 14  1  0
 14 15  2  0
 14 18  1  0
 15 16  1  0
 16 17  1  0
 17 18  2  0
 19 20  2  0
M  END
