
     RDKit          3D

 22 25  0  0  0  0  0  0  0  0999 V2000
    6.0630   -0.2170    0.0470 C   0  0  0  0  0  0  0  0  0  0  0  0
    5.2920    0.0480    1.1830 O   0  0  0  0  0  0  0  0  0  0  0  0
    3.9240   -0.0120    1.1140 C   0  0  0  0  0  0  0  0  0  0  0  0
    3.2780   -0.3290   -0.0530 C   0  0  0  0  0  0  0  0  0  0  0  0
    1.8950   -0.3900   -0.1260 C   0  0  0  0  0  0  0  0  0  0  0  0
    1.1440   -0.1300    0.9870 C   0  0  0  0  0  0  0  0  0  0  0  0
    1.7760    0.1890    2.1660 C   0  0  0  0  0  0  0  0  0  0  0  0
    3.1550    0.2520    2.2470 C   0  0  0  0  0  0  0  0  0  0  0  0
    3.9790    0.6610    3.7530 Cl  0  0  0  0  0  0  0  0  0  0  0  0
   -0.3430   -0.1450    1.1110 C   0  0  0  0  0  0  0  0  0  0  0  0
   -0.8790    0.3630   -0.1210 N   0  0  0  0  0  0  0  0  0  0  0  0
   -1.9910    1.2360    0.0360 C   0  0  0  0  0  0  0  0  0  0  0  0
   -3.2430    0.5770    0.4370 C   0  0  0  0  0  0  0  0  0  0  0  0
   -4.0600    0.8910    1.4930 C   0  0  0  0  0  0  0  0  0  0  0  0
   -5.0960    0.0340    1.4920 N   0  0  0  0  0  0  0  0  0  0  0  0
   -4.9530   -0.8090    0.4660 N   0  0  0  0  0  0  0  0  0  0  0  0
   -3.8320   -0.5100   -0.2050 C   0  0  0  0  0  0  0  0  0  0  0  0
   -3.3660   -1.2390   -1.3930 C   0  0  0  0  0  0  0  0  0  0  0  0
   -2.1980   -0.5040   -2.0100 C   0  0  0  0  0  0  0  0  0  0  0  0
   -0.9560   -0.5640   -1.1820 C   0  0  1  0  0  0  0  0  0  0  0  0
    0.2320   -0.4500   -2.1130 C   0  0  0  0  0  0  0  0  0  0  0  0
    1.4620   -0.7330   -1.4210 N   0  0  0  0  0  0  0  0  0  0  0  0
  1  2  1  0
  2  3  1  0
  3  4  2  0
  3  8  1  0
  4  5  1  0
  5  6  2  0
  5 22  1  0
  6  7  1  0
  6 10  1  0
  7  8  2  0
  8  9  1  0
 10 11  1  0
 11 12  1  0
 11 20  1  0
 12 13  1  0
 13 14  2  0
 13 17  1  0
 14 15  1  0
 15 16  1  0
 16 17  2  0
 17 18  1  0
 18 19  1  0
 20 19  1  6
 20 21  1  0
 21 22  1  0
M  END
