
     RDKit          3D

 20 22  0  0  0  0  0  0  0  0999 V2000
    5.9500   -0.2080   -0.9100 C   0  0  0  0  0  0  0  0  0  0  0  0
    5.0410    0.8420   -0.7810 O   0  0  0  0  0  0  0  0  0  0  0  0
    3.6900    0.6900   -0.5670 C   0  0  0  0  0  0  0  0  0  0  0  0
    3.1650   -0.5780   -0.4680 C   0  0  0  0  0  0  0  0  0  0  0  0
    1.8220   -0.7870   -0.2540 C   0  0  0  0  0  0  0  0  0  0  0  0
    0.9670    0.2890   -0.1340 C   0  0  0  0  0  0  0  0  0  0  0  0
   -0.4740    0.0940    0.0950 C   0  0  0  0  0  0  0  0  0  0  0  0
   -1.2340    0.9940    0.8120 C   0  0  0  0  0  0  0  0  0  0  0  0
   -2.5890    0.7310    0.9800 C   0  0  0  0  0  0  0  0  0  0  0  0
   -3.2010   -0.3840    0.4630 C   0  0  0  0  0  0  0  0  0  0  0  0
   -4.5920   -0.5900    0.6740 N   0  0  0  0  0  0  0  0  0  0  0  0
   -5.3890    0.1510    1.4610 C   0  0  0  0  0  0  0  0  0  0  0  0
   -6.6580   -0.3340    1.4240 N   0  0  0  0  0  0  0  0  0  0  0  0
   -6.6450   -1.3800    0.6100 N   0  0  0  0  0  0  0  0  0  0  0  0
   -5.3860   -1.5400    0.1510 C   0  0  0  0  0  0  0  0  0  0  0  0
   -2.4330   -1.2830   -0.2560 C   0  0  0  0  0  0  0  0  0  0  0  0
   -1.0800   -1.0290   -0.4280 C   0  0  0  0  0  0  0  0  0  0  0  0
    1.4870    1.5700   -0.2330 C   0  0  0  0  0  0  0  0  0  0  0  0
    2.8380    1.7650   -0.4470 C   0  0  0  0  0  0  0  0  0  0  0  0
    3.3370    3.0760   -0.5430 O   0  0  0  0  0  0  0  0  0  0  0  0
  1  2  1  0
  2  3  1  0
  3  4  2  0
  3 19  1  0
  4  5  1  0
  5  6  2  0
  6  7  1  0
  6 18  1  0
  7  8  2  0
  7 17  1  0
  8  9  1  0
  9 10  2  0
 10 11  1  0
 10 16  1  0
 11 12  1  0
 11 15  1  0
 12 13  2  0
 13 14  1  0
 14 15  2  0
 16 17  2  0
 18 19  2  0
 19 20  1  0
M  END
