
     RDKit          3D

 20 21  0  0  0  0  0  0  0  0999 V2000
   -4.0850   -0.2020   -0.6640 C   0  0  0  0  0  0  0  0  0  0  0  0
   -3.7970    0.0340    0.5840 C   0  0  0  0  0  0  0  0  0  0  0  0
   -4.7790   -0.1150    1.5920 O   0  0  0  0  0  0  0  0  0  0  0  0
   -4.4570    0.1410    2.8950 C   0  0  0  0  0  0  0  0  0  0  0  0
   -3.2400    0.5290    3.2660 C   0  0  0  0  0  0  0  0  0  0  0  0
   -2.1870    0.7010    2.2940 C   0  0  0  0  0  0  0  0  0  0  0  0
   -2.4750    0.4570    1.0040 C   0  0  0  0  0  0  0  0  0  0  0  0
   -1.4540    0.6030    0.0410 N   0  0  0  0  0  0  0  0  0  0  0  0
   -0.1710    0.0020    0.2690 C   0  0  0  0  0  0  0  0  0  0  0  0
    0.0730   -0.5560    1.4690 N   0  0  0  0  0  0  0  0  0  0  0  0
    1.2280   -1.0560    1.8610 C   0  0  0  0  0  0  0  0  0  0  0  0
    2.3220   -1.0110    0.9590 C   0  0  0  0  0  0  0  0  0  0  0  0
    3.5000   -1.5300    1.3910 O   0  0  0  0  0  0  0  0  0  0  0  0
    4.6100   -1.5160    0.5270 C   0  0  0  0  0  0  0  0  0  0  0  0
    2.0920   -0.4760   -0.1980 N   0  0  0  0  0  0  0  0  0  0  0  0
    0.8770    0.0420   -0.6040 C   0  0  0  0  0  0  0  0  0  0  0  0
    0.7200    0.4490   -1.9790 C   0  0  0  0  0  0  0  0  0  0  0  0
   -0.5480    0.3140   -2.7630 C   0  0  0  0  0  0  0  0  0  0  0  0
    1.8080    0.8720   -2.6150 C   0  0  0  0  0  0  0  0  0  0  0  0
    3.1550    0.9730   -2.0760 C   0  0  0  0  0  0  0  0  0  0  0  0
  1  2  2  0
  2  3  1  0
  2  7  1  0
  3  4  1  0
  4  5  2  0
  5  6  1  0
  6  7  2  0
  7  8  1  0
  8  9  1  0
  9 10  2  0
  9 16  1  0
 10 11  1  0
 11 12  2  0
 12 13  1  0
 12 15  1  0
 13 14  1  0
 15 16  2  0
 16 17  1  0
 17 18  1  0
 17 19  2  3
 19 20  1  0
M  END
