
     RDKit          3D

 20 22  0  0  0  0  0  0  0  0999 V2000
    5.8560   -1.2010    1.0260 C   0  0  0  0  0  0  0  0  0  0  0  0
    4.5920   -1.4010    1.3640 C   0  0  0  0  0  0  0  0  0  0  0  0
    3.5280   -0.5020    0.9070 C   0  0  0  0  0  0  0  0  0  0  0  0
    2.2060   -0.6740    1.2340 O   0  0  0  0  0  0  0  0  0  0  0  0
    1.1490   -0.5350    0.3480 C   0  0  0  0  0  0  0  0  0  0  0  0
   -0.1240   -0.7410    0.8350 C   0  0  0  0  0  0  0  0  0  0  0  0
   -1.2230   -0.6160   -0.0070 C   0  0  0  0  0  0  0  0  0  0  0  0
   -2.4870   -0.8820    0.5580 N   0  0  0  0  0  0  0  0  0  0  0  0
   -3.6360   -0.1160    0.3150 C   0  0  0  0  0  0  0  0  0  0  0  0
   -3.6110    1.0460   -0.4080 C   0  0  0  0  0  0  0  0  0  0  0  0
   -4.8130    1.7190   -0.6220 C   0  0  0  0  0  0  0  0  0  0  0  0
   -6.0180    1.2630   -0.1340 C   0  0  0  0  0  0  0  0  0  0  0  0
   -5.9740    0.0900    0.5850 C   0  0  0  0  0  0  0  0  0  0  0  0
   -4.8270   -0.5600    0.7930 N   0  0  0  0  0  0  0  0  0  0  0  0
   -0.9910   -0.2850   -1.3180 C   0  0  0  0  0  0  0  0  0  0  0  0
    0.3100   -0.0770   -1.7980 C   0  0  0  0  0  0  0  0  0  0  0  0
    1.3270   -0.2110   -0.9450 N   0  0  0  0  0  0  0  0  0  0  0  0
    3.8950    0.5100    0.1450 C   0  0  0  0  0  0  0  0  0  0  0  0
    5.2770    0.7950   -0.2710 C   0  0  0  0  0  0  0  0  0  0  0  0
    6.1800   -0.1440    0.2390 O   0  0  0  0  0  0  0  0  0  0  0  0
  1  2  2  0
  1 20  1  0
  2  3  1  0
  3  4  1  0
  3 18  2  0
  4  5  1  0
  5  6  2  0
  5 17  1  0
  6  7  1  0
  7  8  1  0
  7 15  2  0
  8  9  1  0
  9 10  2  0
  9 14  1  0
 10 11  1  0
 11 12  2  0
 12 13  1  0
 13 14  2  0
 15 16  1  0
 16 17  2  0
 18 19  1  0
 19 20  1  0
M  END
