
     RDKit          3D

 22 25  0  0  0  0  0  0  0  0999 V2000
    1.8050   -2.4700   -0.0780 O   0  0  0  0  0  0  0  0  0  0  0  0
    1.2980   -1.3480    0.1790 C   0  0  0  0  0  0  0  0  0  0  0  0
    2.0920   -0.3710    0.9240 C   0  0  1  0  0  0  0  0  0  0  0  0
    3.3990   -0.9850    1.3790 C   0  0  0  0  0  0  0  0  0  0  0  0
    4.3060   -1.1660    0.1900 C   0  0  0  0  0  0  0  0  0  0  0  0
    4.8300    0.2020   -0.1670 C   0  0  0  0  0  0  0  0  0  0  0  0
    3.6670    1.1070   -0.2970 C   0  0  0  0  0  0  0  0  0  0  0  0
    3.6720    2.3240   -0.9250 N   0  0  0  0  0  0  0  0  0  0  0  0
    2.4370    2.8170   -0.8210 C   0  0  0  0  0  0  0  0  0  0  0  0
    1.6930    1.9520   -0.1600 N   0  0  0  0  0  0  0  0  0  0  0  0
    2.4080    0.8710    0.1890 C   0  0  0  0  0  0  0  0  0  0  0  0
   -0.0190   -1.1120   -0.2760 N   0  0  0  0  0  0  0  0  0  0  0  0
   -0.7480   -2.1440   -1.0350 C   0  0  0  0  0  0  0  0  0  0  0  0
   -1.8060   -2.6840   -0.1220 C   0  0  0  0  0  0  0  0  0  0  0  0
   -2.4550   -1.6060    0.7160 C   0  0  0  0  0  0  0  0  0  0  0  0
   -2.2670   -0.2320    0.1100 C   0  0  2  0  0  0  0  0  0  0  0  0
   -2.8920    0.7710    1.0740 C   0  0  0  0  0  0  0  0  0  0  0  0
   -2.8820    2.1050    0.3680 C   0  0  0  0  0  0  0  0  0  0  0  0
   -3.9130    2.0750   -0.7180 C   0  0  0  0  0  0  0  0  0  0  0  0
   -4.2140    0.6980   -1.0450 N   0  0  0  0  0  0  0  0  0  0  0  0
   -3.0160   -0.1130   -1.1900 C   0  0  0  0  0  0  0  0  0  0  0  0
   -0.7790    0.1020   -0.0560 C   0  0  0  0  0  0  0  0  0  0  0  0
  1  2  2  0
  3  2  1  6
  2 12  1  0
  3  4  1  0
  3 11  1  0
  4  5  1  0
  5  6  1  0
  6  7  1  0
  7  8  1  0
  7 11  2  0
  8  9  1  0
  9 10  2  0
 10 11  1  0
 12 13  1  0
 12 22  1  0
 13 14  1  0
 14 15  1  0
 16 15  1  1
 16 17  1  0
 16 21  1  0
 16 22  1  0
 17 18  1  0
 18 19  1  0
 19 20  1  0
 20 21  1  0
M  END
