
     RDKit          3D

 11 12  0  0  0  0  0  0  0  0999 V2000
    2.6250   -1.4280    0.0610 C   0  0  0  0  0  0  0  0  0  0  0  0
    2.0340   -0.2600    0.0180 C   0  0  0  0  0  0  0  0  0  0  0  0
    2.6490    0.9270   -0.1580 N   0  0  0  0  0  0  0  0  0  0  0  0
    1.6910    1.8760   -0.1400 C   0  0  0  0  0  0  0  0  0  0  0  0
    0.4570    1.2930    0.0470 C   0  0  0  0  0  0  0  0  0  0  0  0
    0.6750   -0.0650    0.1470 C   0  0  0  0  0  0  0  0  0  0  0  0
   -0.3120   -0.9220    0.3330 C   0  0  0  0  0  0  0  0  0  0  0  0
   -1.7120   -0.4960    0.4460 C   0  0  2  0  0  0  0  0  0  0  0  0
   -2.4720   -1.1970   -0.5720 N   0  0  0  0  0  0  0  0  0  0  0  0
   -1.8850    0.9630    0.3310 C   0  0  0  0  0  0  0  0  0  0  0  0
   -0.8990    1.7980    0.1480 C   0  0  0  0  0  0  0  0  0  0  0  0
  1  2  2  0
  2  3  1  0
  2  6  1  0
  3  4  1  0
  4  5  2  0
  5  6  1  0
  5 11  1  0
  6  7  2  0
  7  8  1  0
  8  9  1  6
  8 10  1  0
 10 11  2  0
M  CHG  1   9   1
M  END
