
     RDKit          3D

 11 12  0  0  0  0  0  0  0  0999 V2000
   -0.5050    1.7340   -3.0860 N   0  0  0  0  0  0  0  0  0  0  0  0
   -0.6340    1.1070   -2.1220 C   0  0  0  0  0  0  0  0  0  0  0  0
   -0.7780    0.3320   -0.9010 C   0  0  1  0  0  0  0  0  0  0  0  0
   -2.0250    0.5700   -0.2490 N   0  0  0  0  0  0  0  0  0  0  0  0
   -0.6570   -1.1720   -1.1850 C   0  0  0  0  0  0  0  0  0  0  0  0
   -0.4120   -1.6820    0.2180 C   0  0  0  0  0  0  0  0  0  0  0  0
    0.6220   -0.7360    0.7150 C   0  0  0  0  0  0  0  0  0  0  0  0
    1.6470   -0.6400    1.5440 C   0  0  0  0  0  0  0  0  0  0  0  0
    2.1620    0.7400    1.4260 C   0  0  0  0  0  0  0  0  0  0  0  0
    1.2990    1.3960    0.4320 C   0  0  0  0  0  0  0  0  0  0  0  0
    0.3980    0.5210    0.0190 C   0  0  0  0  0  0  0  0  0  0  0  0
  1  2  3  0
  2  3  1  0
  3  4  1  1
  3  5  1  0
  3 11  1  0
  5  6  1  0
  6  7  1  0
  7  8  2  0
  7 11  1  0
  8  9  1  0
  9 10  1  0
 10 11  2  0
M  CHG  1   4   1
M  END
