
     RDKit          3D

 11 12  0  0  0  0  0  0  0  0999 V2000
   -1.7740   -1.8090   -0.3010 N   0  0  0  0  0  0  0  0  0  0  0  0
   -1.3910   -0.5870    0.3960 C   0  0  2  0  0  0  0  0  0  0  0  0
   -2.2140    0.5450    0.0770 C   0  0  0  0  0  0  0  0  0  0  0  0
   -1.7370    1.7070   -0.2850 C   0  0  0  0  0  0  0  0  0  0  0  0
   -0.3180    1.9720   -0.4030 C   0  0  0  0  0  0  0  0  0  0  0  0
    0.5290    0.9860   -0.1280 C   0  0  0  0  0  0  0  0  0  0  0  0
    1.9760    1.2290   -0.2400 C   0  0  0  0  0  0  0  0  0  0  0  0
    2.8200    0.2700    0.0270 C   0  0  0  0  0  0  0  0  0  0  0  0
    2.3320   -1.0570    0.4390 C   0  0  0  0  0  0  0  0  0  0  0  0
    0.9300   -1.2210    0.5250 N   0  0  0  0  0  0  0  0  0  0  0  0
    0.0460   -0.3130    0.2760 C   0  0  0  0  0  0  0  0  0  0  0  0
  2  1  1  6
  2  3  1  0
  2 11  1  0
  3  4  2  0
  4  5  1  0
  5  6  2  0
  6  7  1  0
  6 11  1  0
  7  8  2  0
  8  9  1  0
  9 10  1  0
 10 11  2  0
M  CHG  1   1   1
M  END
