
     RDKit          3D

 11 12  0  0  0  0  0  0  0  0999 V2000
    3.1090    0.1690    0.7710 C   0  0  0  0  0  0  0  0  0  0  0  0
    1.7990   -0.1320    0.1000 C   0  0  2  0  0  0  0  0  0  0  0  0
    2.0180   -0.6630   -1.2890 C   0  0  0  0  0  0  0  0  0  0  0  0
    0.9090    1.0990    0.1180 C   0  0  0  0  0  0  0  0  0  0  0  0
   -0.4790    0.5450    0.1570 C   0  0  0  0  0  0  0  0  0  0  0  0
   -0.3870   -0.6950    0.5590 C   0  0  0  0  0  0  0  0  0  0  0  0
   -1.7660   -1.2670    0.6020 C   0  0  0  0  0  0  0  0  0  0  0  0
   -2.6280   -0.0590    0.8350 C   0  0  0  0  0  0  0  0  0  0  0  0
   -1.9130    0.9360   -0.0990 C   0  0  2  0  0  0  0  0  0  0  0  0
   -2.2920    0.7630   -1.4640 N   0  0  0  0  0  0  0  0  0  0  0  0
    0.9840   -1.0720    0.8230 N   0  0  0  0  0  0  0  0  0  0  0  0
  2  1  1  1
  2  3  1  0
  2  4  1  0
  2 11  1  0
  4  5  1  0
  5  6  2  0
  5  9  1  0
  6  7  1  0
  6 11  1  0
  7  8  1  0
  8  9  1  0
  9 10  1  6
M  CHG  1  10   1
M  END
