
     RDKit          3D

 11 11  0  0  0  0  0  0  0  0999 V2000
   -2.7270   -0.7130    0.4480 C   0  0  0  0  0  0  0  0  0  0  0  0
   -1.2900   -0.5510    0.1470 C   0  0  0  0  0  0  0  0  0  0  0  0
   -0.6110   -1.6890    0.0990 C   0  0  0  0  0  0  0  0  0  0  0  0
    0.7850   -2.0300   -0.1550 C   0  0  0  0  0  0  0  0  0  0  0  0
    1.9150   -1.3960   -0.2400 N   0  0  0  0  0  0  0  0  0  0  0  0
    2.3070   -0.0350   -0.1200 C   0  0  0  0  0  0  0  0  0  0  0  0
    3.7210    0.1240   -0.0310 N   0  0  0  0  0  0  0  0  0  0  0  0
    1.6520    1.0980   -0.0730 C   0  0  0  0  0  0  0  0  0  0  0  0
    0.2480    1.4890   -0.1220 C   0  0  0  0  0  0  0  0  0  0  0  0
   -0.9140    0.8560   -0.0370 C   0  0  0  0  0  0  0  0  0  0  0  0
   -2.0510    1.7830   -0.1560 C   0  0  0  0  0  0  0  0  0  0  0  0
  1  2  1  0
  2  3  2  0
  2 10  1  0
  3  4  1  0
  4  5  2  0
  5  6  1  0
  6  7  1  0
  6  8  2  0
  8  9  1  0
  9 10  2  0
 10 11  1  0
M  CHG  1   5   1
M  END
