
     RDKit          3D

 11 11  0  0  0  0  0  0  0  0999 V2000
    0.3460   -2.4230    1.5580 C   0  0  0  0  0  0  0  0  0  0  0  0
    0.0360   -1.5790    0.6080 C   0  0  0  0  0  0  0  0  0  0  0  0
   -0.5930   -2.1370   -0.5710 N   0  0  0  0  0  0  0  0  0  0  0  0
   -0.9760   -1.3210   -1.6680 C   0  0  0  0  0  0  0  0  0  0  0  0
   -0.6820    0.0890   -1.4920 C   0  0  0  0  0  0  0  0  0  0  0  0
   -1.0610    1.0130   -2.6160 C   0  0  0  0  0  0  0  0  0  0  0  0
   -0.1130    0.6580   -0.4460 C   0  0  0  0  0  0  0  0  0  0  0  0
    0.3010   -0.1210    0.7060 C   0  0  0  0  0  0  0  0  0  0  0  0
    0.8700    0.3500    1.7840 C   0  0  0  0  0  0  0  0  0  0  0  0
    1.2780    1.6010    2.2580 C   0  0  0  0  0  0  0  0  0  0  0  0
    1.2360    2.7540    1.7890 N   0  0  0  0  0  0  0  0  0  0  0  0
  1  2  2  0
  2  3  1  0
  2  8  1  0
  3  4  1  0
  4  5  1  0
  5  6  1  0
  5  7  2  0
  7  8  1  0
  8  9  2  3
  9 10  1  0
 10 11  2  0
M  CHG  1  11   1
M  END
