
     RDKit          3D

 11 12  0  0  0  0  0  0  0  0999 V2000
    2.2620   -1.8080   -0.0640 N   0  0  0  0  0  0  0  0  0  0  0  0
    1.7320   -0.4940   -0.1820 C   0  0  0  0  0  0  0  0  0  0  0  0
    2.5750    0.5070   -0.6140 C   0  0  0  0  0  0  0  0  0  0  0  0
    2.0320    1.7720   -0.7190 C   0  0  0  0  0  0  0  0  0  0  0  0
    0.6920    2.0070   -0.3990 C   0  0  0  0  0  0  0  0  0  0  0  0
   -0.1310    0.9880    0.0310 C   0  0  0  0  0  0  0  0  0  0  0  0
    0.4120   -0.2760    0.1360 C   0  0  0  0  0  0  0  0  0  0  0  0
   -0.5140   -1.3430    0.6030 C   0  0  0  0  0  0  0  0  0  0  0  0
   -1.8820   -1.1500    0.0710 C   0  0  0  0  0  0  0  0  0  0  0  0
   -2.4300    0.1540    0.1620 N   0  0  0  0  0  0  0  0  0  0  0  0
   -1.5350    1.2330    0.3670 C   0  0  0  0  0  0  0  0  0  0  0  0
  1  2  1  0
  2  3  2  0
  2  7  1  0
  3  4  1  0
  4  5  2  0
  5  6  1  0
  6  7  2  0
  6 11  1  0
  7  8  1  0
  8  9  1  0
  9 10  1  0
 10 11  1  0
M  CHG  1  10   1
M  END
