
     RDKit          3D

 12 13  0  0  0  0  0  0  0  0999 V2000
    3.8990   -0.6570    0.0510 O   0  0  0  0  0  0  0  0  0  0  0  0
    2.6000   -0.1580    0.1290 C   0  0  0  0  0  0  0  0  0  0  0  0
    2.3820    1.2030    0.1520 C   0  0  0  0  0  0  0  0  0  0  0  0
    1.1030    1.6890    0.2290 C   0  0  0  0  0  0  0  0  0  0  0  0
    0.0410    0.8020    0.2830 C   0  0  0  0  0  0  0  0  0  0  0  0
   -1.2920    0.9630    0.3600 N   0  0  0  0  0  0  0  0  0  0  0  0
   -1.9100   -0.2360    0.3870 C   0  0  0  0  0  0  0  0  0  0  0  0
   -3.3880   -0.4460    0.4700 C   0  0  0  0  0  0  0  0  0  0  0  0
   -4.0820   -0.5190   -1.1640 Cl  0  0  0  0  0  0  0  0  0  0  0  0
   -0.9580   -1.2340    0.3250 C   0  0  0  0  0  0  0  0  0  0  0  0
    0.2590   -0.5720    0.2600 C   0  0  0  0  0  0  0  0  0  0  0  0
    1.5470   -1.0460    0.1830 C   0  0  0  0  0  0  0  0  0  0  0  0
  1  2  1  0
  2  3  2  0
  2 12  1  0
  3  4  1  0
  4  5  2  0
  5  6  1  0
  5 11  1  0
  6  7  1  0
  7  8  1  0
  7 10  2  0
  8  9  1  0
 10 11  1  0
 11 12  2  0
M  END
