
     RDKit          3D

 12 13  0  0  0  0  0  0  0  0999 V2000
   -2.4520   -0.7910   -0.9680 O   0  0  0  0  0  0  0  0  0  0  0  0
   -1.6180    0.0760   -0.3450 C   0  0  0  0  0  0  0  0  0  0  0  0
   -2.1560    1.2750    0.1170 C   0  0  0  0  0  0  0  0  0  0  0  0
   -1.3350    2.1700    0.7520 C   0  0  0  0  0  0  0  0  0  0  0  0
   -0.0360    1.8760    0.9140 N   0  0  0  0  0  0  0  0  0  0  0  0
    0.5050    0.7160    0.4710 C   0  0  0  0  0  0  0  0  0  0  0  0
    1.8360    0.4250    0.6430 C   0  0  0  0  0  0  0  0  0  0  0  0
    2.4220   -0.7440    0.2060 C   0  0  0  0  0  0  0  0  0  0  0  0
    4.1270   -1.0480    0.4600 Cl  0  0  0  0  0  0  0  0  0  0  0  0
    1.6490   -1.6820   -0.4370 C   0  0  0  0  0  0  0  0  0  0  0  0
    0.2900   -1.4110   -0.6250 C   0  0  0  0  0  0  0  0  0  0  0  0
   -0.2740   -0.2380   -0.1820 C   0  0  0  0  0  0  0  0  0  0  0  0
  1  2  1  0
  2  3  2  0
  2 12  1  0
  3  4  1  0
  4  5  2  0
  5  6  1  0
  6  7  2  0
  6 12  1  0
  7  8  1  0
  8  9  1  0
  8 10  2  0
 10 11  1  0
 11 12  2  0
M  END
