
     RDKit          3D

 12 13  0  0  0  0  0  0  0  0999 V2000
    0.9350    2.5930    0.2600 O   0  0  0  0  0  0  0  0  0  0  0  0
    0.8720    1.2610   -0.0110 C   0  0  0  0  0  0  0  0  0  0  0  0
    2.0260    0.6560   -0.5250 C   0  0  0  0  0  0  0  0  0  0  0  0
    2.0950   -0.6820   -0.8410 C   0  0  0  0  0  0  0  0  0  0  0  0
    0.9750   -1.4600   -0.6420 C   0  0  0  0  0  0  0  0  0  0  0  0
   -0.1890   -0.9220   -0.1400 C   0  0  0  0  0  0  0  0  0  0  0  0
   -1.3100   -1.7230    0.0550 C   0  0  0  0  0  0  0  0  0  0  0  0
   -1.2080   -3.4330   -0.3540 Cl  0  0  0  0  0  0  0  0  0  0  0  0
   -2.4090   -1.1580    0.5420 N   0  0  0  0  0  0  0  0  0  0  0  0
   -2.4510    0.1550    0.8440 C   0  0  0  0  0  0  0  0  0  0  0  0
   -1.3730    0.9900    0.6710 C   0  0  0  0  0  0  0  0  0  0  0  0
   -0.2150    0.4370    0.1670 C   0  0  0  0  0  0  0  0  0  0  0  0
  1  2  1  0
  2  3  2  0
  2 12  1  0
  3  4  1  0
  4  5  2  0
  5  6  1  0
  6  7  2  0
  6 12  1  0
  7  8  1  0
  7  9  1  0
  9 10  2  0
 10 11  1  0
 11 12  2  0
M  END
