
     RDKit          3D

 11 11  0  0  0  0  0  0  0  0999 V2000
   -3.5520   -0.2970    0.2390 C   0  0  0  0  0  0  0  0  0  0  0  0
   -2.3450   -0.4980   -0.2540 C   0  0  0  0  0  0  0  0  0  0  0  0
   -1.2110    0.1800    0.2870 C   0  0  0  0  0  0  0  0  0  0  0  0
    0.0450    0.1200   -0.0540 C   0  0  0  0  0  0  0  0  0  0  0  0
    1.0310    0.9510    0.6970 C   0  0  0  0  0  0  0  0  0  0  0  0
    2.3030    0.8800    0.3410 C   0  0  0  0  0  0  0  0  0  0  0  0
    3.4610    1.8580    1.2240 Cl  0  0  0  0  0  0  0  0  0  0  0  0
    2.8050    0.0480   -0.7320 C   0  0  0  0  0  0  0  0  0  0  0  0
    1.9860   -0.7050   -1.4270 C   0  0  0  0  0  0  0  0  0  0  0  0
    0.5450   -0.7080   -1.1200 C   0  0  0  0  0  0  0  0  0  0  0  0
   -0.1990   -1.4250   -1.7910 O   0  0  0  0  0  0  0  0  0  0  0  0
  1  2  2  0
  2  3  1  0
  3  4  2  3
  4  5  1  0
  4 10  1  0
  5  6  2  0
  6  7  1  0
  6  8  1  0
  8  9  2  0
  9 10  1  0
 10 11  2  0
M  END
