
     RDKit          3D

 12 13  0  0  0  0  0  0  0  0999 V2000
    3.5370    0.8590   -0.6170 O   0  0  0  0  0  0  0  0  0  0  0  0
    2.3990    0.3360   -0.4070 C   0  0  0  0  0  0  0  0  0  0  0  0
    1.3380    1.1930   -0.2730 C   0  0  0  0  0  0  0  0  0  0  0  0
    0.0890    0.6520   -0.0440 C   0  0  0  0  0  0  0  0  0  0  0  0
   -0.9900    1.5140    0.0920 C   0  0  0  0  0  0  0  0  0  0  0  0
   -2.2310    0.9570    0.3200 C   0  0  0  0  0  0  0  0  0  0  0  0
   -3.6370    2.0150    0.5010 Cl  0  0  0  0  0  0  0  0  0  0  0  0
   -2.3690   -0.4150    0.4060 C   0  0  0  0  0  0  0  0  0  0  0  0
   -1.2870   -1.2580    0.2680 C   0  0  0  0  0  0  0  0  0  0  0  0
   -0.0330   -0.7180    0.0380 C   0  0  0  0  0  0  0  0  0  0  0  0
    1.0470   -1.5770   -0.0980 C   0  0  0  0  0  0  0  0  0  0  0  0
    2.2410   -0.9960   -0.3200 N   0  0  0  0  0  0  0  0  0  0  0  0
  1  2  2  0
  2  3  1  0
  2 12  1  0
  3  4  2  0
  4  5  1  0
  4 10  1  0
  5  6  2  0
  6  7  1  0
  6  8  1  0
  8  9  2  0
  9 10  1  0
 10 11  2  0
 11 12  1  0
M  END
