
     RDKit          3D

 12 13  0  0  0  0  0  0  0  0999 V2000
    3.1350    0.9510   -0.2330 C   0  0  0  0  0  0  0  0  0  0  0  0
    2.0120    0.3590    0.0780 C   0  0  0  0  0  0  0  0  0  0  0  0
    1.8910   -1.1050    0.3220 C   0  0  0  0  0  0  0  0  0  0  0  0
    0.7550   -1.5460   -0.3970 O   0  0  0  0  0  0  0  0  0  0  0  0
   -0.4320   -0.8370   -0.2940 C   0  0  0  0  0  0  0  0  0  0  0  0
   -1.6690   -1.4390   -0.4820 C   0  0  0  0  0  0  0  0  0  0  0  0
   -2.8540   -0.7400   -0.3810 C   0  0  0  0  0  0  0  0  0  0  0  0
   -4.3870   -1.5750   -0.6330 Cl  0  0  0  0  0  0  0  0  0  0  0  0
   -2.8050    0.6060   -0.0830 C   0  0  0  0  0  0  0  0  0  0  0  0
   -1.6050    1.2230    0.1060 C   0  0  0  0  0  0  0  0  0  0  0  0
   -0.4340    0.5000   -0.0000 C   0  0  0  0  0  0  0  0  0  0  0  0
    0.8320    1.1370    0.1960 N   0  0  0  0  0  0  0  0  0  0  0  0
  1  2  2  0
  2  3  1  0
  2 12  1  0
  3  4  1  0
  4  5  1  0
  5  6  2  0
  5 11  1  0
  6  7  1  0
  7  8  1  0
  7  9  2  0
  9 10  1  0
 10 11  2  0
 11 12  1  0
M  END
