
     RDKit          3D

 12 13  0  0  0  0  0  0  0  0999 V2000
    2.7680   -1.0330    0.0670 C   0  0  0  0  0  0  0  0  0  0  0  0
    1.7360    0.0350    0.1270 C   0  0  0  0  0  0  0  0  0  0  0  0
    1.9160    1.3430    0.2180 N   0  0  0  0  0  0  0  0  0  0  0  0
    0.7270    1.9960    0.2490 C   0  0  0  0  0  0  0  0  0  0  0  0
    0.4340    3.7200    0.3630 Cl  0  0  0  0  0  0  0  0  0  0  0  0
   -0.2460    1.0210    0.1710 C   0  0  0  0  0  0  0  0  0  0  0  0
    0.3780   -0.2270    0.0940 C   0  0  0  0  0  0  0  0  0  0  0  0
   -0.4000   -1.4530    0.0010 C   0  0  0  0  0  0  0  0  0  0  0  0
    0.1610   -2.5490   -0.0560 O   0  0  0  0  0  0  0  0  0  0  0  0
   -1.8800   -1.3600   -0.0220 C   0  0  0  0  0  0  0  0  0  0  0  0
   -2.2120   -0.0460   -0.7440 C   0  0  0  0  0  0  0  0  0  0  0  0
   -1.7310    1.0720    0.1580 C   0  0  0  0  0  0  0  0  0  0  0  0
  1  2  1  0
  2  3  1  0
  2  7  2  0
  3  4  1  0
  4  5  1  0
  4  6  2  0
  6  7  1  0
  6 12  1  0
  7  8  1  0
  8  9  2  0
  8 10  1  0
 10 11  1  0
 11 12  1  0
M  END
