
     RDKit          3D

 12 13  0  0  0  0  0  0  0  0999 V2000
   -3.5470    1.1300    0.3260 O   0  0  0  0  0  0  0  0  0  0  0  0
   -2.4350    0.5500    0.1940 C   0  0  0  0  0  0  0  0  0  0  0  0
   -2.4090   -0.8230    0.0140 C   0  0  0  0  0  0  0  0  0  0  0  0
   -1.1600   -1.3980   -0.1230 C   0  0  0  0  0  0  0  0  0  0  0  0
    0.0080   -0.6550   -0.0860 C   0  0  0  0  0  0  0  0  0  0  0  0
    1.2550   -1.2540   -0.2260 C   0  0  0  0  0  0  0  0  0  0  0  0
    2.4310   -0.5130   -0.1890 C   0  0  0  0  0  0  0  0  0  0  0  0
    3.9680   -1.3270   -0.3730 Cl  0  0  0  0  0  0  0  0  0  0  0  0
    2.3260    0.8480   -0.0070 C   0  0  0  0  0  0  0  0  0  0  0  0
    1.0940    1.4390    0.1320 C   0  0  0  0  0  0  0  0  0  0  0  0
   -0.0810    0.6910    0.0940 C   0  0  0  0  0  0  0  0  0  0  0  0
   -1.2970    1.2720    0.2310 N   0  0  0  0  0  0  0  0  0  0  0  0
  1  2  2  0
  2  3  1  0
  2 12  1  0
  3  4  2  0
  4  5  1  0
  5  6  2  0
  5 11  1  0
  6  7  1  0
  7  8  1  0
  7  9  2  0
  9 10  1  0
 10 11  2  0
 11 12  1  0
M  END
