
     RDKit          3D

  9  9  0  0  0  0  0  0  0  0999 V2000
    3.5810   -0.1790   -0.1790 C   0  0  0  0  0  0  0  0  0  0  0  0
    2.2130   -0.0790   -0.4720 O   0  0  0  0  0  0  0  0  0  0  0  0
    1.2160   -0.1810    0.5010 C   0  0  0  0  0  0  0  0  0  0  0  0
    1.5900   -0.3730    1.6850 O   0  0  0  0  0  0  0  0  0  0  0  0
   -0.1940   -0.0700    0.1490 C   0  0  0  0  0  0  0  0  0  0  0  0
   -0.6790    0.1300   -1.0660 C   0  0  0  0  0  0  0  0  0  0  0  0
   -2.1650    0.1850   -1.0180 C   0  0  0  0  0  0  0  0  0  0  0  0
   -2.4750   -0.5850    0.2250 C   0  0  0  0  0  0  0  0  0  0  0  0
   -1.3060   -0.1700    1.1300 C   0  0  0  0  0  0  0  0  0  0  0  0
  1  2  1  0
  2  3  1  0
  3  4  2  0
  3  5  1  0
  5  6  2  0
  5  9  1  0
  6  7  1  0
  7  8  1  0
  8  9  1  0
M  END
