
     RDKit          3D

 10 10  0  0  0  0  0  0  0  0999 V2000
    3.1140    0.3250   -0.1670 C   0  0  0  0  0  0  0  0  0  0  0  0
    2.2280   -0.7890   -0.7150 C   0  0  0  0  0  0  0  0  0  0  0  0
    1.5240   -1.4190    0.3080 O   0  0  0  0  0  0  0  0  0  0  0  0
    0.7000   -0.5410    0.9940 C   0  0  0  0  0  0  0  0  0  0  0  0
   -0.3390    0.1110    0.1020 C   0  0  1  0  0  0  0  0  0  0  0  0
   -1.1130   -0.8990   -0.6380 C   0  0  0  0  0  0  0  0  0  0  0  0
   -2.4540   -0.9080   -0.5000 O   0  0  0  0  0  0  0  0  0  0  0  0
   -3.0650    0.2250   -0.0740 C   0  0  0  0  0  0  0  0  0  0  0  0
   -2.1550    1.4130    0.0970 C   0  0  0  0  0  0  0  0  0  0  0  0
   -1.0890    0.9570    0.9060 O   0  0  0  0  0  0  0  0  0  0  0  0
  1  2  1  0
  2  3  1  0
  3  4  1  0
  5  4  1  1
  5  6  1  0
  5 10  1  0
  6  7  1  0
  7  8  1  0
  8  9  1  0
  9 10  1  0
M  END
