
     RDKit          3D

 10  9  0  0  0  0  0  0  0  0999 V2000
    4.0890   -0.7500    1.0710 C   0  0  0  0  0  0  0  0  0  0  0  0
    2.8560   -0.7630    0.3780 O   0  0  0  0  0  0  0  0  0  0  0  0
    2.2660    0.4800    0.6730 C   0  0  0  0  0  0  0  0  0  0  0  0
    0.9190    0.6180   -0.0080 C   0  0  0  0  0  0  0  0  0  0  0  0
    0.0930   -0.4460    0.4820 O   0  0  0  0  0  0  0  0  0  0  0  0
   -1.1950   -0.4940   -0.0260 C   0  0  0  0  0  0  0  0  0  0  0  0
   -1.7660   -1.7020   -0.6720 C   0  0  0  0  0  0  0  0  0  0  0  0
   -1.9730    0.5720    0.0540 C   0  0  0  0  0  0  0  0  0  0  0  0
   -3.3580    0.5980   -0.4660 C   0  0  0  0  0  0  0  0  0  0  0  0
   -3.4290    1.6080   -1.4460 O   0  0  0  0  0  0  0  0  0  0  0  0
  1  2  1  0
  2  3  1  0
  3  4  1  0
  4  5  1  0
  5  6  1  0
  6  7  1  0
  6  8  2  3
  8  9  1  0
  9 10  1  0
M  END
