
     RDKit          3D

 10 10  0  0  0  0  0  0  0  0999 V2000
    3.5500   -0.7030   -0.4480 C   0  0  0  0  0  0  0  0  0  0  0  0
    2.4570    0.1840    0.0540 C   0  0  0  0  0  0  0  0  0  0  0  0
    1.1740   -0.3270   -0.2390 O   0  0  0  0  0  0  0  0  0  0  0  0
    0.2690    0.5860    0.2780 C   0  0  0  0  0  0  0  0  0  0  0  0
   -1.1570    0.2210    0.0680 C   0  0  2  0  0  0  0  0  0  0  0  0
   -1.5840   -1.0910    0.6820 C   0  0  0  0  0  0  0  0  0  0  0  0
   -2.9330   -1.3260    0.4210 O   0  0  0  0  0  0  0  0  0  0  0  0
   -1.6820    0.3790   -1.3390 C   0  0  0  0  0  0  0  0  0  0  0  0
   -2.3310    1.5440   -0.9150 O   0  0  0  0  0  0  0  0  0  0  0  0
   -2.0620    1.3820    0.4480 C   0  0  0  0  0  0  0  0  0  0  0  0
  1  2  1  0
  2  3  1  0
  3  4  1  0
  5  4  1  6
  5  6  1  0
  5  8  1  0
  5 10  1  0
  6  7  1  0
  8  9  1  0
  9 10  1  0
M  END
