
     RDKit          3D

 10 10  0  0  0  0  0  0  0  0999 V2000
    2.7260    0.0260   -1.1870 O   0  0  0  0  0  0  0  0  0  0  0  0
    2.5750    0.2940    0.1730 C   0  0  0  0  0  0  0  0  0  0  0  0
    1.3170    0.8410    0.4680 O   0  0  0  0  0  0  0  0  0  0  0  0
    0.1180    0.2220    0.2240 C   0  0  0  0  0  0  0  0  0  0  0  0
   -0.0100   -1.0220   -0.3440 C   0  0  0  0  0  0  0  0  0  0  0  0
   -1.2410   -1.6020   -0.5680 C   0  0  0  0  0  0  0  0  0  0  0  0
   -2.3750   -0.9320   -0.2210 C   0  0  0  0  0  0  0  0  0  0  0  0
   -2.2760    0.3200    0.3520 C   0  0  0  0  0  0  0  0  0  0  0  0
   -1.0450    0.8990    0.5760 C   0  0  0  0  0  0  0  0  0  0  0  0
   -0.9790    2.1780    1.1630 O   0  0  0  0  0  0  0  0  0  0  0  0
  1  2  1  0
  2  3  1  0
  3  4  1  0
  4  5  2  0
  4  9  1  0
  5  6  1  0
  6  7  2  0
  7  8  1  0
  8  9  2  0
  9 10  1  0
M  END
