
     RDKit          3D

  9  8  0  0  0  0  0  0  0  0999 V2000
   -3.3900    0.0270   -1.7370 C   0  0  0  0  0  0  0  0  0  0  0  0
   -2.3850   -0.7530   -1.1630 O   0  0  0  0  0  0  0  0  0  0  0  0
   -1.4220   -0.3370   -0.2940 C   0  0  0  0  0  0  0  0  0  0  0  0
   -1.5290    0.8670    0.5690 C   0  0  0  0  0  0  0  0  0  0  0  0
   -0.3110   -1.0400   -0.1990 C   0  0  0  0  0  0  0  0  0  0  0  0
    0.7890   -0.6600    0.7210 C   0  0  0  0  0  0  0  0  0  0  0  0
    2.0720   -0.4030   -0.0640 C   0  0  0  0  0  0  0  0  0  0  0  0
    3.1320   -0.0230    0.9480 C   0  0  0  0  0  0  0  0  0  0  0  0
    2.6710    1.1270    1.5970 O   0  0  0  0  0  0  0  0  0  0  0  0
  1  2  1  0
  2  3  1  0
  3  4  1  0
  3  5  2  3
  5  6  1  0
  6  7  1  0
  7  8  1  0
  8  9  1  0
M  END
