
     RDKit          3D

  9  8  0  0  0  0  0  0  0  0999 V2000
    3.8080    0.0410   -1.1370 C   0  0  0  0  0  0  0  0  0  0  0  0
    2.4410   -0.3030   -1.0270 O   0  0  0  0  0  0  0  0  0  0  0  0
    2.0340    0.1020    0.2350 C   0  0  0  0  0  0  0  0  0  0  0  0
    0.7070   -0.1920    0.4410 O   0  0  0  0  0  0  0  0  0  0  0  0
   -0.1480    0.4140   -0.4540 C   0  0  0  0  0  0  0  0  0  0  0  0
   -1.5670   -0.0270   -0.0680 C   0  0  1  0  0  0  0  0  0  0  0  0
   -2.6030    0.5620   -0.9650 C   0  0  0  0  0  0  0  0  0  0  0  0
   -1.5650   -1.5450   -0.1660 C   0  0  0  0  0  0  0  0  0  0  0  0
   -1.7520    0.3770    1.3750 C   0  0  0  0  0  0  0  0  0  0  0  0
  1  2  1  0
  2  3  1  0
  3  4  1  0
  4  5  1  0
  5  6  1  0
  6  7  1  6
  6  8  1  0
  6  9  1  0
M  END
