
     RDKit          3D

  9  9  0  0  0  0  0  0  0  0999 V2000
    2.7100    0.6210   -0.1900 N   0  0  0  0  0  0  0  0  0  0  0  0
    1.4330    0.5770   -0.1030 C   0  0  0  0  0  0  0  0  0  0  0  0
    0.8430   -0.7030    0.0260 N   0  0  0  0  0  0  0  0  0  0  0  0
   -0.5670   -0.9820    0.0980 C   0  0  0  0  0  0  0  0  0  0  0  0
   -0.8290   -2.2000    0.2680 O   0  0  0  0  0  0  0  0  0  0  0  0
   -1.7460   -0.1170    0.0120 C   0  0  0  0  0  0  0  0  0  0  0  0
   -1.5120    1.1260   -0.5260 O   0  0  0  0  0  0  0  0  0  0  0  0
   -1.0110    2.0020    0.2690 O   0  0  0  0  0  0  0  0  0  0  0  0
    0.6630    2.1820   -0.1660 S   0  0  0  0  0  0  0  0  0  0  0  0
  1  2  2  0
  2  3  1  0
  2  9  1  0
  3  4  1  0
  4  5  2  0
  4  6  1  0
  6  7  1  0
  7  8  1  0
  8  9  1  0
M  END
