
     RDKit          3D

  9  9  0  0  0  0  0  0  0  0999 V2000
    1.0300   -1.9270    0.4530 O   0  0  0  0  0  0  0  0  0  0  0  0
    1.0480   -0.6870    0.2490 C   0  0  0  0  0  0  0  0  0  0  0  0
    2.0740    0.1530    0.4040 N   0  0  0  0  0  0  0  0  0  0  0  0
    1.6410    1.3260    0.0810 O   0  0  0  0  0  0  0  0  0  0  0  0
    0.3740    1.2710   -0.2760 C   0  0  0  0  0  0  0  0  0  0  0  0
   -0.5070    2.5490   -0.7460 S   0  0  0  0  0  0  0  0  0  0  0  0
   -0.0370   -0.0100   -0.1790 N   0  0  0  0  0  0  0  0  0  0  0  0
   -1.3680   -0.5400   -0.4740 C   0  0  0  0  0  0  0  0  0  0  0  0
   -2.2020   -0.5350    0.6100 O   0  0  0  0  0  0  0  0  0  0  0  0
  1  2  2  0
  2  3  1  0
  2  7  1  0
  3  4  1  0
  4  5  1  0
  5  6  2  0
  5  7  1  0
  7  8  1  0
  8  9  1  0
M  END
