
     RDKit          3D

  9  9  0  0  0  0  0  0  0  0999 V2000
    1.1980    2.3650    0.0990 O   0  0  0  0  0  0  0  0  0  0  0  0
    0.6920    1.2240   -0.0550 C   0  0  0  0  0  0  0  0  0  0  0  0
   -0.6950    1.2390   -0.3940 N   0  0  0  0  0  0  0  0  0  0  0  0
   -1.4380    0.2200   -0.9000 O   0  0  0  0  0  0  0  0  0  0  0  0
   -1.6560   -0.7780    0.0190 C   0  0  0  0  0  0  0  0  0  0  0  0
   -0.3590   -2.0480   -0.2520 S   0  0  0  0  0  0  0  0  0  0  0  0
    1.2070   -1.2410    0.0240 C   0  0  0  0  0  0  0  0  0  0  0  0
    2.1710   -2.0370    0.1440 O   0  0  0  0  0  0  0  0  0  0  0  0
    1.5880    0.1240    0.1360 N   0  0  0  0  0  0  0  0  0  0  0  0
  1  2  2  0
  2  3  1  0
  2  9  1  0
  3  4  1  0
  4  5  1  0
  5  6  1  0
  6  7  1  0
  7  8  2  0
  7  9  1  0
M  END
