
     RDKit          3D

  9  9  0  0  0  0  0  0  0  0999 V2000
   -1.3750    1.3250   -0.3650 N   0  0  0  0  0  0  0  0  0  0  0  0
   -0.7950    0.0600   -0.0750 C   0  0  0  0  0  0  0  0  0  0  0  0
    0.4280   -0.1740    0.5390 C   0  0  0  0  0  0  0  0  0  0  0  0
    1.5510    1.1040    1.1070 S   0  0  0  0  0  0  0  0  0  0  0  0
    2.6410    1.5150   -0.1610 O   0  0  0  0  0  0  0  0  0  0  0  0
    0.5880   -1.5100    0.6170 N   0  0  0  0  0  0  0  0  0  0  0  0
   -0.4520   -2.0660    0.0930 O   0  0  0  0  0  0  0  0  0  0  0  0
   -1.3090   -1.2080   -0.3370 C   0  0  0  0  0  0  0  0  0  0  0  0
   -2.4320   -1.3820   -0.9020 O   0  0  0  0  0  0  0  0  0  0  0  0
  1  2  1  0
  2  3  2  0
  2  8  1  0
  3  4  1  0
  3  6  1  0
  4  5  1  0
  6  7  1  0
  7  8  1  0
  8  9  2  0
M  END
