
     RDKit          3D

 12 13  0  0  0  0  0  0  0  0999 V2000
    2.9730    0.8620    1.8320 O   0  0  0  0  0  0  0  0  0  0  0  0
    2.8180    0.1080    0.8580 N   0  0  0  0  0  0  0  0  0  0  0  0
    3.9130   -0.5330    0.3450 O   0  0  0  0  0  0  0  0  0  0  0  0
    1.5200   -0.0740    0.2990 C   0  0  0  0  0  0  0  0  0  0  0  0
    1.3290   -0.9130   -0.7900 C   0  0  0  0  0  0  0  0  0  0  0  0
    0.0650   -1.0750   -1.3150 C   0  0  0  0  0  0  0  0  0  0  0  0
   -1.0480   -0.4360   -0.8100 C   0  0  0  0  0  0  0  0  0  0  0  0
   -2.3670   -0.4170   -1.1250 N   0  0  0  0  0  0  0  0  0  0  0  0
   -3.0200    0.4010   -0.2790 C   0  0  0  0  0  0  0  0  0  0  0  0
   -2.0850    0.8820    0.5580 N   0  0  0  0  0  0  0  0  0  0  0  0
   -0.8680    0.4000    0.2730 C   0  0  0  0  0  0  0  0  0  0  0  0
    0.4040    0.5620    0.8010 C   0  0  0  0  0  0  0  0  0  0  0  0
  1  2  2  0
  2  3  1  0
  2  4  1  0
  4  5  2  0
  4 12  1  0
  5  6  1  0
  6  7  2  0
  7  8  1  0
  7 11  1  0
  8  9  2  0
  9 10  1  0
 10 11  1  0
 11 12  2  0
M  CHG  2   2   1   3  -1
M  END
