
     RDKit          3D

  9  9  0  0  0  0  0  0  0  0999 V2000
    2.3160   -1.3730    0.0330 O   0  0  0  0  0  0  0  0  0  0  0  0
    1.1870   -0.7950    0.0070 C   0  0  0  0  0  0  0  0  0  0  0  0
    1.2050    0.5420    0.1520 N   0  0  0  0  0  0  0  0  0  0  0  0
    0.0260    1.1440    0.1250 N   0  0  0  0  0  0  0  0  0  0  0  0
   -1.1120    0.4390   -0.0400 C   0  0  0  0  0  0  0  0  0  0  0  0
   -2.2410    1.0120   -0.0660 O   0  0  0  0  0  0  0  0  0  0  0  0
   -1.1020   -0.9340   -0.1860 C   0  0  0  0  0  0  0  0  0  0  0  0
   -2.4810   -1.7900   -0.3860 S   0  0  0  0  0  0  0  0  0  0  0  0
    0.0860   -1.4910   -0.1530 O   0  0  0  0  0  0  0  0  0  0  0  0
  1  2  2  0
  2  3  1  0
  2  9  1  0
  3  4  1  0
  4  5  1  0
  5  6  2  0
  5  7  1  0
  7  8  2  0
  7  9  1  0
M  END
