
     RDKit          3D

  8  8  0  0  0  0  0  0  0  0999 V2000
   -1.7450   -0.4670   -0.1580 N   0  0  0  0  0  0  0  0  0  0  0  0
   -0.3140   -0.4430   -0.0760 C   0  0  0  0  0  0  0  0  0  0  0  0
    0.4790    0.6770   -0.1660 C   0  0  0  0  0  0  0  0  0  0  0  0
   -0.1080    2.3590   -0.4060 S   0  0  0  0  0  0  0  0  0  0  0  0
    1.7590    0.2620   -0.0400 N   0  0  0  0  0  0  0  0  0  0  0  0
    1.7380   -1.0110    0.1140 O   0  0  0  0  0  0  0  0  0  0  0  0
    0.5420   -1.5000    0.1030 C   0  0  0  0  0  0  0  0  0  0  0  0
    0.1530   -2.6940    0.2260 O   0  0  0  0  0  0  0  0  0  0  0  0
  1  2  1  0
  2  3  2  0
  2  7  1  0
  3  4  1  0
  3  5  1  0
  5  6  1  0
  6  7  1  0
  7  8  2  0
M  END
