
     RDKit          3D

 15 16  0  0  0  0  0  0  0  0999 V2000
    5.2610    0.2710   -0.8230 C   0  0  0  0  0  0  0  0  0  0  0  0
    4.3730   -0.7510   -0.8540 C   0  0  0  0  0  0  0  0  0  0  0  0
    2.9920   -0.6100   -0.5780 C   0  0  0  0  0  0  0  0  0  0  0  0
    1.7900   -0.4880   -0.3390 O   0  0  0  0  0  0  0  0  0  0  0  0
    0.5350   -0.3410   -0.1110 C   0  0  0  0  0  0  0  0  0  0  0  0
   -0.3040    0.5200   -0.8640 C   0  0  0  0  0  0  0  0  0  0  0  0
   -1.6340    0.6550   -0.5980 C   0  0  0  0  0  0  0  0  0  0  0  0
   -2.4790    1.4800   -1.3060 C   0  0  0  0  0  0  0  0  0  0  0  0
   -3.8210    1.5860   -1.0020 C   0  0  0  0  0  0  0  0  0  0  0  0
   -4.3430    0.8540    0.0320 C   0  0  0  0  0  0  0  0  0  0  0  0
   -3.4990    0.0090    0.7640 C   0  0  0  0  0  0  0  0  0  0  0  0
   -2.1710   -0.0710    0.4340 C   0  0  0  0  0  0  0  0  0  0  0  0
   -1.4050   -0.8990    1.1700 N   0  0  0  0  0  0  0  0  0  0  0  0
   -0.1060   -1.0500    0.9340 C   0  0  0  0  0  0  0  0  0  0  0  0
    0.5590   -1.8300    1.6460 O   0  0  0  0  0  0  0  0  0  0  0  0
  1  2  2  0
  2  3  1  0
  3  4  1  0
  4  5  1  0
  5  6  2  0
  5 14  1  0
  6  7  1  0
  7  8  2  0
  7 12  1  0
  8  9  1  0
  9 10  2  0
 10 11  1  0
 11 12  2  0
 12 13  1  0
 13 14  1  0
 14 15  2  0
M  END
