
     RDKit          3D

 15 16  0  0  0  0  0  0  0  0999 V2000
   -3.1700   -1.2190   -1.3220 C   0  0  0  0  0  0  0  0  0  0  0  0
   -2.8910    0.0170   -0.9500 C   0  0  0  0  0  0  0  0  0  0  0  0
   -1.5940    0.6310   -1.1470 C   0  0  0  0  0  0  0  0  0  0  0  0
   -1.3660    1.8790   -0.7530 C   0  0  0  0  0  0  0  0  0  0  0  0
   -2.4580    2.6330   -0.1100 C   0  0  0  0  0  0  0  0  0  0  0  0
   -0.5490   -0.1090   -1.7700 N   0  0  0  0  0  0  0  0  0  0  0  0
    0.5650   -0.4900   -0.9700 C   0  0  0  0  0  0  0  0  0  0  0  0
    1.5900   -1.2150   -1.5800 C   0  0  0  0  0  0  0  0  0  0  0  0
    2.6530   -1.5680   -0.7820 C   0  0  0  0  0  0  0  0  0  0  0  0
    2.7340   -1.2360    0.5640 C   0  0  0  0  0  0  0  0  0  0  0  0
    1.7050   -0.5200    1.1330 C   0  0  0  0  0  0  0  0  0  0  0  0
    0.6230   -0.1490    0.3600 C   0  0  0  0  0  0  0  0  0  0  0  0
    1.9950   -0.2960    2.5000 O   0  0  0  0  0  0  0  0  0  0  0  0
    3.4030   -0.5500    2.6200 C   0  0  0  0  0  0  0  0  0  0  0  0
    3.6590   -1.4580    1.5650 O   0  0  0  0  0  0  0  0  0  0  0  0
  1  2  2  0
  2  3  1  0
  3  4  2  3
  3  6  1  0
  4  5  1  0
  6  7  1  0
  7  8  2  0
  7 12  1  0
  8  9  1  0
  9 10  2  0
 10 11  1  0
 10 15  1  0
 11 12  2  0
 11 13  1  0
 13 14  1  0
 14 15  1  0
M  END
