
     RDKit          3D

 15 16  0  0  0  0  0  0  0  0999 V2000
    3.7230   -1.3670    1.2500 C   0  0  0  0  0  0  0  0  0  0  0  0
    3.9170   -0.1330    0.5820 O   0  0  0  0  0  0  0  0  0  0  0  0
    2.7910    0.5070    0.0800 C   0  0  0  0  0  0  0  0  0  0  0  0
    1.7680   -0.2310   -0.1970 N   0  0  0  0  0  0  0  0  0  0  0  0
    0.6040    0.4030   -0.7130 C   0  0  0  0  0  0  0  0  0  0  0  0
    0.6940    1.3290   -1.7300 C   0  0  0  0  0  0  0  0  0  0  0  0
   -0.4360    1.9670   -2.2560 C   0  0  0  0  0  0  0  0  0  0  0  0
   -1.6580    1.6590   -1.7410 C   0  0  0  0  0  0  0  0  0  0  0  0
   -1.7740    0.7350   -0.7210 C   0  0  0  0  0  0  0  0  0  0  0  0
   -3.0200    0.4440   -0.2210 C   0  0  0  0  0  0  0  0  0  0  0  0
   -3.2000   -0.4760    0.8040 C   0  0  0  0  0  0  0  0  0  0  0  0
   -2.0780   -1.0790    1.2920 C   0  0  0  0  0  0  0  0  0  0  0  0
   -2.2100   -2.0040    2.3160 O   0  0  0  0  0  0  0  0  0  0  0  0
   -0.8190   -0.8010    0.8050 C   0  0  0  0  0  0  0  0  0  0  0  0
   -0.6540    0.1210   -0.2210 C   0  0  0  0  0  0  0  0  0  0  0  0
  1  2  1  0
  2  3  1  0
  3  4  2  3
  4  5  1  0
  5  6  2  0
  5 15  1  0
  6  7  1  0
  7  8  2  0
  8  9  1  0
  9 10  2  0
  9 15  1  0
 10 11  1  0
 11 12  2  0
 12 13  1  0
 12 14  1  0
 14 15  2  0
M  END
