
     RDKit          3D

 14 15  0  0  0  0  0  0  0  0999 V2000
    2.4760    1.8770    0.8960 C   0  0  0  0  0  0  0  0  0  0  0  0
    1.8680    1.2830   -0.3120 C   0  0  0  0  0  0  0  0  0  0  0  0
    2.1150    1.8030   -1.4300 O   0  0  0  0  0  0  0  0  0  0  0  0
    0.9900    0.1170   -0.2760 C   0  0  0  0  0  0  0  0  0  0  0  0
    1.3300   -1.2160   -0.3680 C   0  0  0  0  0  0  0  0  0  0  0  0
    2.7330   -1.7290   -0.5280 C   0  0  0  0  0  0  0  0  0  0  0  0
    0.2220   -1.9700   -0.2910 N   0  0  0  0  0  0  0  0  0  0  0  0
   -0.8360   -1.1280   -0.1510 C   0  0  0  0  0  0  0  0  0  0  0  0
   -0.3880    0.1750   -0.1380 C   0  0  0  0  0  0  0  0  0  0  0  0
   -1.3520    1.3010    0.0060 C   0  0  0  0  0  0  0  0  0  0  0  0
   -2.7550    0.8840   -0.2340 C   0  0  0  0  0  0  0  0  0  0  0  0
   -3.1070   -0.3780    0.5530 C   0  0  0  0  0  0  0  0  0  0  0  0
   -2.2550   -1.4500   -0.0260 C   0  0  0  0  0  0  0  0  0  0  0  0
   -2.7410   -2.5590   -0.3810 O   0  0  0  0  0  0  0  0  0  0  0  0
  1  2  1  0
  2  3  2  0
  2  4  1  0
  4  5  2  0
  4  9  1  0
  5  6  1  0
  5  7  1  0
  7  8  1  0
  8  9  2  0
  8 13  1  0
  9 10  1  0
 10 11  1  0
 11 12  1  0
 12 13  1  0
 13 14  2  0
M  END
