
     RDKit          3D

 15 16  0  0  0  0  0  0  0  0999 V2000
    3.7740    1.0750    0.6630 C   0  0  0  0  0  0  0  0  0  0  0  0
    3.1220    1.0470   -0.7240 C   0  0  0  0  0  0  0  0  0  0  0  0
    2.0190    0.0500   -0.6810 C   0  0  0  0  0  0  0  0  0  0  0  0
    2.1280   -1.2880   -0.9740 C   0  0  0  0  0  0  0  0  0  0  0  0
    0.8680   -1.8050   -0.7990 C   0  0  0  0  0  0  0  0  0  0  0  0
    0.0510   -0.7920   -0.4150 C   0  0  0  0  0  0  0  0  0  0  0  0
   -1.3960   -0.8480   -0.1060 C   0  0  0  0  0  0  0  0  0  0  0  0
   -2.0950   -2.0200   -0.1860 C   0  0  0  0  0  0  0  0  0  0  0  0
   -3.4370   -2.0010    0.1140 C   0  0  0  0  0  0  0  0  0  0  0  0
   -4.0920   -0.8760    0.4850 N   0  0  0  0  0  0  0  0  0  0  0  0
   -3.4230    0.2810    0.5700 C   0  0  0  0  0  0  0  0  0  0  0  0
   -4.0430    1.4600    0.9440 O   0  0  0  0  0  0  0  0  0  0  0  0
   -2.0620    0.2960    0.2720 C   0  0  0  0  0  0  0  0  0  0  0  0
   -1.3430    1.5810    0.3700 C   0  0  0  0  0  0  0  0  0  0  0  0
    0.7740    0.2970   -0.3560 O   0  0  0  0  0  0  0  0  0  0  0  0
  1  2  1  0
  2  3  1  0
  3  4  2  0
  3 15  1  0
  4  5  1  0
  5  6  2  0
  6  7  1  0
  6 15  1  0
  7  8  2  0
  7 13  1  0
  8  9  1  0
  9 10  2  0
 10 11  1  0
 11 12  1  0
 11 13  2  0
 13 14  1  0
M  END
