
     RDKit          3D

 22 25  0  0  0  0  0  0  0  0999 V2000
    6.5660    0.6940   -0.5070 C   0  0  0  0  0  0  0  0  0  0  0  0
    5.9160    0.7500   -1.7280 C   0  0  0  0  0  0  0  0  0  0  0  0
    4.5870    0.5780   -1.7100 N   0  0  0  0  0  0  0  0  0  0  0  0
    3.8910    0.3590   -0.5690 C   0  0  0  0  0  0  0  0  0  0  0  0
    2.5240    0.1880   -0.6030 C   0  0  0  0  0  0  0  0  0  0  0  0
    1.7770   -0.0390    0.5470 C   0  0  0  0  0  0  0  0  0  0  0  0
    0.3960   -0.2110    0.5070 O   0  0  0  0  0  0  0  0  0  0  0  0
   -0.2370   -0.1480   -0.7570 C   0  0  0  0  0  0  0  0  0  0  0  0
   -1.6930   -0.3600   -0.5360 C   0  0  0  0  0  0  0  0  0  0  0  0
   -2.1510   -1.6590   -0.5800 C   0  0  0  0  0  0  0  0  0  0  0  0
   -3.4800   -1.9150   -0.3840 C   0  0  0  0  0  0  0  0  0  0  0  0
   -4.3260   -0.8510   -0.1470 C   0  0  0  0  0  0  0  0  0  0  0  0
   -5.6720   -1.0710    0.0550 C   0  0  0  0  0  0  0  0  0  0  0  0
   -6.5050    0.0060    0.2920 C   0  0  0  0  0  0  0  0  0  0  0  0
   -5.9990    1.2880    0.3270 C   0  0  0  0  0  0  0  0  0  0  0  0
   -4.6610    1.5320    0.1290 C   0  0  0  0  0  0  0  0  0  0  0  0
   -3.8340    0.4500   -0.1080 C   0  0  0  0  0  0  0  0  0  0  0  0
   -2.5060    0.6840   -0.3050 N   0  0  0  0  0  0  0  0  0  0  0  0
    2.4010   -0.0990    1.7800 C   0  0  0  0  0  0  0  0  0  0  0  0
    3.7700    0.0740    1.8010 C   0  0  0  0  0  0  0  0  0  0  0  0
    4.5140    0.2990    0.6570 C   0  0  0  0  0  0  0  0  0  0  0  0
    5.8820    0.4720    0.6780 C   0  0  0  0  0  0  0  0  0  0  0  0
  1  2  2  0
  1 22  1  0
  2  3  1  0
  3  4  2  0
  4  5  1  0
  4 21  1  0
  5  6  2  0
  6  7  1  0
  6 19  1  0
  7  8  1  0
  8  9  1  0
  9 10  2  0
  9 18  1  0
 10 11  1  0
 11 12  2  0
 12 13  1  0
 12 17  1  0
 13 14  2  0
 14 15  1  0
 15 16  2  0
 16 17  1  0
 17 18  2  0
 19 20  2  0
 20 21  1  0
 21 22  2  0
M  END
