
     RDKit          3D

 34 38  0  0  0  0  0  0  0  0999 V2000
   -6.9390   -3.1030   -1.9230 C   0  0  0  0  0  0  0  0  0  0  0  0
   -6.3040   -2.5710   -0.6890 C   0  0  0  0  0  0  0  0  0  0  0  0
   -7.0610   -2.4320    0.4530 C   0  0  0  0  0  0  0  0  0  0  0  0
   -6.4360   -1.9340    1.5830 C   0  0  0  0  0  0  0  0  0  0  0  0
   -5.1020   -1.6030    1.5220 C   0  0  0  0  0  0  0  0  0  0  0  0
   -4.3470   -1.7430    0.3780 C   0  0  0  0  0  0  0  0  0  0  0  0
   -2.9360   -1.3840    0.3460 C   0  0  0  0  0  0  0  0  0  0  0  0
   -2.1360   -1.4770   -0.6850 N   0  0  0  0  0  0  0  0  0  0  0  0
   -0.8410   -1.0340   -0.3270 N   0  0  0  0  0  0  0  0  0  0  0  0
    0.3710   -1.4330   -0.8920 C   0  0  0  0  0  0  0  0  0  0  0  0
    0.4030   -2.2810   -1.8290 O   0  0  0  0  0  0  0  0  0  0  0  0
    1.6290   -0.9040   -0.4360 C   0  0  0  0  0  0  0  0  0  0  0  0
    2.1950    0.1990   -1.0130 C   0  0  0  0  0  0  0  0  0  0  0  0
    1.5780    0.9080   -2.1750 C   0  0  0  0  0  0  0  0  0  0  0  0
    3.3480    0.6690   -0.5510 N   0  0  0  0  0  0  0  0  0  0  0  0
    4.0040    0.1070    0.4720 C   0  0  0  0  0  0  0  0  0  0  0  0
    5.2220    0.7040    0.8610 N   0  0  0  0  0  0  0  0  0  0  0  0
    5.7660    1.8750    0.1760 C   0  0  0  0  0  0  0  0  0  0  0  0
    7.2830    1.6350    0.1720 C   0  0  0  0  0  0  0  0  0  0  0  0
    7.5710    0.2860    0.1380 O   0  0  0  0  0  0  0  0  0  0  0  0
    7.2600   -0.4090    1.2880 C   0  0  0  0  0  0  0  0  0  0  0  0
    6.0210    0.2110    1.9560 C   0  0  0  0  0  0  0  0  0  0  0  0
    3.4920   -0.9750    1.0700 N   0  0  0  0  0  0  0  0  0  0  0  0
    2.3140   -1.4880    0.6310 C   0  0  0  0  0  0  0  0  0  0  0  0
    1.8490   -2.5020    1.2020 O   0  0  0  0  0  0  0  0  0  0  0  0
   -1.0520   -0.1100    0.7770 C   0  0  1  0  0  0  0  0  0  0  0  0
   -1.5130    1.2220    0.3430 C   0  0  0  0  0  0  0  0  0  0  0  0
   -2.5170    1.9500    0.9350 C   0  0  0  0  0  0  0  0  0  0  0  0
   -2.6300    3.1470    0.2120 C   0  0  0  0  0  0  0  0  0  0  0  0
   -1.6700    3.0440   -0.7720 C   0  0  0  0  0  0  0  0  0  0  0  0
   -1.4260    4.1030   -1.7900 C   0  0  0  0  0  0  0  0  0  0  0  0
   -1.0420    1.9020   -0.6570 O   0  0  0  0  0  0  0  0  0  0  0  0
   -2.1900   -0.8460    1.5040 C   0  0  0  0  0  0  0  0  0  0  0  0
   -4.9700   -2.2390   -0.7480 C   0  0  0  0  0  0  0  0  0  0  0  0
  1  2  1  0
  2  3  2  0
  2 34  1  0
  3  4  1  0
  4  5  2  0
  5  6  1  0
  6  7  1  0
  6 34  2  0
  7  8  2  0
  7 33  1  0
  8  9  1  0
  9 10  1  0
  9 26  1  0
 10 11  2  0
 10 12  1  0
 12 13  2  0
 12 24  1  0
 13 14  1  0
 13 15  1  0
 15 16  2  0
 16 17  1  0
 16 23  1  0
 17 18  1  0
 17 22  1  0
 18 19  1  0
 19 20  1  0
 20 21  1  0
 21 22  1  0
 23 24  1  0
 24 25  2  0
 26 27  1  6
 26 33  1  0
 27 28  2  0
 27 32  1  0
 28 29  1  0
 29 30  2  0
 30 31  1  0
 30 32  1  0
M  END
