
     RDKit          3D

 35 39  0  0  0  0  0  0  0  0999 V2000
    6.8870    2.9400    0.6540 C   0  0  0  0  0  0  0  0  0  0  0  0
    6.1940    3.2060   -0.6680 C   0  0  0  0  0  0  0  0  0  0  0  0
    4.8680    2.7810   -0.5650 O   0  0  0  0  0  0  0  0  0  0  0  0
    4.3960    1.5250   -0.3130 C   0  0  0  0  0  0  0  0  0  0  0  0
    5.1770    0.4280   -0.1060 C   0  0  0  0  0  0  0  0  0  0  0  0
    4.6240   -0.8010    0.1400 C   0  0  0  0  0  0  0  0  0  0  0  0
    3.2510   -0.9460    0.1800 C   0  0  0  0  0  0  0  0  0  0  0  0
    2.4220    0.1840   -0.0330 C   0  0  0  0  0  0  0  0  0  0  0  0
    2.9910    1.3930   -0.2730 C   0  0  0  0  0  0  0  0  0  0  0  0
    0.9650    0.2050   -0.0520 C   0  0  0  0  0  0  0  0  0  0  0  0
    0.4730    1.3970   -0.3690 N   0  0  0  0  0  0  0  0  0  0  0  0
   -0.8780    1.5430   -0.4430 C   0  0  0  0  0  0  0  0  0  0  0  0
   -1.3630    2.6720   -0.7420 O   0  0  0  0  0  0  0  0  0  0  0  0
   -1.7290    0.4840   -0.1980 C   0  0  0  0  0  0  0  0  0  0  0  0
   -3.1460    0.6090   -0.2570 N   0  0  0  0  0  0  0  0  0  0  0  0
   -4.0150    1.2090    0.6780 C   0  0  0  0  0  0  0  0  0  0  0  0
   -3.6410    1.8140    1.7420 O   0  0  0  0  0  0  0  0  0  0  0  0
   -5.4040    1.0250    0.2280 C   0  0  1  0  0  0  0  0  0  0  0  0
   -5.8560    2.3490   -0.3710 C   0  0  0  0  0  0  0  0  0  0  0  0
   -7.0340    2.2040   -1.1570 N   0  0  0  0  0  0  0  0  0  0  0  0
   -7.2300    1.0470   -1.9390 C   0  0  0  0  0  0  0  0  0  0  0  0
   -8.1530    1.0020   -2.8120 O   0  0  0  0  0  0  0  0  0  0  0  0
   -6.3980   -0.1420   -1.7880 C   0  0  0  0  0  0  0  0  0  0  0  0
   -5.3390   -0.0920   -0.7510 C   0  0  1  0  0  0  0  0  0  0  0  0
   -3.9560    0.1250   -1.3190 C   0  0  0  0  0  0  0  0  0  0  0  0
   -3.6420   -0.0930   -2.4980 O   0  0  0  0  0  0  0  0  0  0  0  0
   -1.2100   -0.7510    0.1290 C   0  0  0  0  0  0  0  0  0  0  0  0
    0.1500   -0.9030    0.2070 C   0  0  0  0  0  0  0  0  0  0  0  0
    0.4640   -2.2800    0.5710 C   0  0  0  0  0  0  0  0  0  0  0  0
   -0.3020   -2.8740    1.4660 C   0  0  0  0  0  0  0  0  0  0  0  0
   -0.0440   -4.2900    1.8750 C   0  0  0  0  0  0  0  0  0  0  0  0
   -1.2890   -2.2010    2.0830 F   0  0  0  0  0  0  0  0  0  0  0  0
    1.6640   -3.0220    0.0480 C   0  0  0  0  0  0  0  0  0  0  0  0
    2.8580   -2.2850    0.4410 N   0  0  0  0  0  0  0  0  0  0  0  0
    3.7930   -3.0200    1.2470 C   0  0  0  0  0  0  0  0  0  0  0  0
  1  2  1  0
  2  3  1  0
  3  4  1  0
  4  5  2  0
  4  9  1  0
  5  6  1  0
  6  7  2  0
  7  8  1  0
  7 34  1  0
  8  9  2  0
  8 10  1  0
 10 11  1  0
 10 28  2  0
 11 12  1  0
 12 13  2  0
 12 14  1  0
 14 15  1  0
 14 27  2  0
 15 16  1  0
 15 25  1  0
 16 17  2  0
 16 18  1  0
 18 19  1  6
 18 24  1  0
 19 20  1  0
 20 21  1  0
 21 22  2  0
 21 23  1  0
 24 23  1  6
 24 25  1  0
 25 26  2  0
 27 28  1  0
 28 29  1  0
 29 30  2  3
 29 33  1  0
 30 31  1  0
 30 32  1  0
 33 34  1  0
 34 35  1  0
M  END
