
     RDKit          3D

 34 38  0  0  0  0  0  0  0  0999 V2000
  -10.0230    1.8040   -0.0290 C   0  0  0  0  0  0  0  0  0  0  0  0
   -8.6520    1.2540    0.3950 C   0  0  0  0  0  0  0  0  0  0  0  0
   -7.8750    0.9140   -0.8490 C   0  0  0  0  0  0  0  0  0  0  0  0
   -6.5550    0.3910   -0.6040 N   0  0  0  0  0  0  0  0  0  0  0  0
   -6.3600   -1.0370   -0.4780 C   0  0  0  0  0  0  0  0  0  0  0  0
   -4.9710   -1.4000   -0.3580 N   0  0  0  0  0  0  0  0  0  0  0  0
   -4.6340   -2.7750   -0.2870 C   0  0  0  0  0  0  0  0  0  0  0  0
   -3.3690   -3.0830   -0.1590 C   0  0  0  0  0  0  0  0  0  0  0  0
   -2.2180   -2.1570   -0.0770 C   0  0  0  0  0  0  0  0  0  0  0  0
   -2.6060   -0.7670   -0.1530 N   0  0  0  0  0  0  0  0  0  0  0  0
   -1.9100    0.3710   -0.1310 C   0  0  0  0  0  0  0  0  0  0  0  0
   -0.4840    0.6590   -0.0360 C   0  0  0  0  0  0  0  0  0  0  0  0
   -0.1140    1.8860    0.0300 O   0  0  0  0  0  0  0  0  0  0  0  0
    0.5250   -0.3300   -0.0140 N   0  0  0  0  0  0  0  0  0  0  0  0
    1.9200   -0.1140    0.0670 C   0  0  0  0  0  0  0  0  0  0  0  0
    2.7420   -1.2100   -0.2230 C   0  0  0  0  0  0  0  0  0  0  0  0
    4.1170   -1.1180   -0.1930 C   0  0  0  0  0  0  0  0  0  0  0  0
    4.7160    0.0960    0.1340 C   0  0  0  0  0  0  0  0  0  0  0  0
    6.1240    0.1960    0.1400 N   0  0  0  0  0  0  0  0  0  0  0  0
    6.8610    0.2100    1.3520 C   0  0  0  0  0  0  0  0  0  0  0  0
    6.3840   -0.3460    2.3910 O   0  0  0  0  0  0  0  0  0  0  0  0
    8.1800    0.8830    1.3680 C   0  0  0  0  0  0  0  0  0  0  0  0
    8.9910    0.4720    0.1900 C   0  0  1  0  0  0  0  0  0  0  0  0
    9.4630   -0.9510    0.3150 C   0  0  0  0  0  0  0  0  0  0  0  0
    8.2850    0.6570   -1.1240 C   0  0  0  0  0  0  0  0  0  0  0  0
    6.8720    0.2850   -1.0840 C   0  0  0  0  0  0  0  0  0  0  0  0
    6.2690    0.0300   -2.1440 O   0  0  0  0  0  0  0  0  0  0  0  0
    3.9140    1.1650    0.4190 C   0  0  0  0  0  0  0  0  0  0  0  0
    2.5120    1.0540    0.3830 C   0  0  0  0  0  0  0  0  0  0  0  0
   -2.8440    1.4290   -0.2560 C   0  0  0  0  0  0  0  0  0  0  0  0
   -4.0950    0.8740   -0.3530 C   0  0  0  0  0  0  0  0  0  0  0  0
   -3.9170   -0.4740   -0.2840 C   0  0  0  0  0  0  0  0  0  0  0  0
   -5.4760    1.3410   -0.5170 C   0  0  0  0  0  0  0  0  0  0  0  0
   -5.6650    2.5750   -0.5770 O   0  0  0  0  0  0  0  0  0  0  0  0
  1  2  1  0
  2  3  1  0
  3  4  1  0
  4  5  1  0
  4 33  1  0
  5  6  1  0
  6  7  1  0
  6 32  1  0
  7  8  2  0
  8  9  1  0
  9 10  1  0
 10 11  1  0
 10 32  1  0
 11 12  1  0
 11 30  2  0
 12 13  2  0
 12 14  1  0
 14 15  1  0
 15 16  2  0
 15 29  1  0
 16 17  1  0
 17 18  2  0
 18 19  1  0
 18 28  1  0
 19 20  1  0
 19 26  1  0
 20 21  2  0
 20 22  1  0
 22 23  1  0
 23 24  1  1
 23 25  1  0
 25 26  1  0
 26 27  2  0
 28 29  2  0
 30 31  1  0
 31 32  2  0
 31 33  1  0
 33 34  2  0
M  END
