
     RDKit          3D

 34 38  0  0  0  0  0  0  0  0999 V2000
   -1.9920   -0.6420    0.2390 O   0  0  0  0  0  0  0  0  0  0  0  0
   -1.9860   -0.8430    1.4860 C   0  0  0  0  0  0  0  0  0  0  0  0
   -3.2480   -0.7890    2.2470 C   0  0  0  0  0  0  0  0  0  0  0  0
   -4.3900   -0.5270    1.2790 C   0  0  0  0  0  0  0  0  0  0  0  0
   -4.1820    1.0150    0.3930 S   0  0  0  0  0  0  0  0  0  0  0  0
   -5.5480    1.2250   -0.7400 C   0  0  0  0  0  0  0  0  0  0  0  0
   -6.6660    1.8640   -0.3520 N   0  0  0  0  0  0  0  0  0  0  0  0
   -7.6670    1.9930   -1.2650 C   0  0  0  0  0  0  0  0  0  0  0  0
   -8.8300    2.6400   -0.9100 C   0  0  0  0  0  0  0  0  0  0  0  0
   -9.8300    2.7670   -1.8240 C   0  0  0  0  0  0  0  0  0  0  0  0
   -9.7430    2.2740   -3.1150 C   0  0  0  0  0  0  0  0  0  0  0  0
   -8.5720    1.6280   -3.4570 C   0  0  0  0  0  0  0  0  0  0  0  0
   -7.5440    1.4910   -2.5360 C   0  0  0  0  0  0  0  0  0  0  0  0
   -6.3810    0.8380   -2.9030 C   0  0  0  0  0  0  0  0  0  0  0  0
   -6.2750    0.3840   -4.0600 O   0  0  0  0  0  0  0  0  0  0  0  0
   -5.4160    0.7250   -1.9920 N   0  0  0  0  0  0  0  0  0  0  0  0
   -0.7300   -1.1130    2.0660 N   0  0  0  0  0  0  0  0  0  0  0  0
    0.4740   -1.1530    1.2820 C   0  0  2  0  0  0  0  0  0  0  0  0
    1.2180   -2.4220    1.3630 C   0  0  0  0  0  0  0  0  0  0  0  0
    2.6350   -2.3340    0.8540 C   0  0  0  0  0  0  0  0  0  0  0  0
    3.4440   -1.3490    1.6790 C   0  0  1  0  0  0  0  0  0  0  0  0
    4.4050   -0.6120    0.8280 C   0  0  0  0  0  0  0  0  0  0  0  0
    4.1340    0.4160   -0.0080 N   0  0  0  0  0  0  0  0  0  0  0  0
    5.2800    0.7860   -0.5790 N   0  0  0  0  0  0  0  0  0  0  0  0
    6.2650    0.0030   -0.1130 C   0  0  0  0  0  0  0  0  0  0  0  0
    7.6790    0.0420   -0.4570 C   0  0  0  0  0  0  0  0  0  0  0  0
    8.1630    1.0010   -1.3370 C   0  0  0  0  0  0  0  0  0  0  0  0
    9.5160    1.0310   -1.6730 C   0  0  0  0  0  0  0  0  0  0  0  0
   10.4020    0.1360   -1.1600 C   0  0  0  0  0  0  0  0  0  0  0  0
    9.9340   -0.8300   -0.2800 C   0  0  0  0  0  0  0  0  0  0  0  0
    8.5970   -0.8510    0.0450 C   0  0  0  0  0  0  0  0  0  0  0  0
    5.6920   -0.8240    0.7330 O   0  0  0  0  0  0  0  0  0  0  0  0
    2.5290   -0.4450    2.4710 C   0  0  0  0  0  0  0  0  0  0  0  0
    1.3400    0.0030    1.6840 C   0  0  0  0  0  0  0  0  0  0  0  0
  1  2  2  0
  2  3  1  0
  2 17  1  0
  3  4  1  0
  4  5  1  0
  5  6  1  0
  6  7  2  0
  6 16  1  0
  7  8  1  0
  8  9  2  0
  8 13  1  0
  9 10  1  0
 10 11  2  0
 11 12  1  0
 12 13  2  0
 13 14  1  0
 14 15  2  0
 14 16  1  0
 18 17  1  1
 18 19  1  0
 18 34  1  0
 19 20  1  0
 20 21  1  0
 21 22  1  6
 21 33  1  0
 22 23  2  0
 22 32  1  0
 23 24  1  0
 24 25  2  0
 25 26  1  0
 25 32  1  0
 26 27  2  0
 26 31  1  0
 27 28  1  0
 28 29  2  0
 29 30  1  0
 30 31  2  0
 33 34  1  0
M  END
