
     RDKit          3D

 35 39  0  0  0  0  0  0  0  0999 V2000
   -0.6500   -1.0950    2.3150 O   0  0  0  0  0  0  0  0  0  0  0  0
   -0.8390   -0.3050    1.3630 C   0  0  0  0  0  0  0  0  0  0  0  0
   -2.1100   -0.3130    0.5980 C   0  0  0  0  0  0  0  0  0  0  0  0
   -3.0020   -1.3630    1.1840 C   0  0  0  0  0  0  0  0  0  0  0  0
   -4.2750   -1.4920    0.5460 N   0  0  0  0  0  0  0  0  0  0  0  0
   -4.6450   -2.3350   -0.5570 C   0  0  0  0  0  0  0  0  0  0  0  0
   -3.8620   -3.1260   -1.1490 O   0  0  0  0  0  0  0  0  0  0  0  0
   -6.0170   -2.0760   -0.7990 N   0  0  0  0  0  0  0  0  0  0  0  0
   -6.5600   -1.1660    0.1570 C   0  0  1  0  0  0  0  0  0  0  0  0
   -7.3260   -0.0270   -0.4630 C   0  0  0  0  0  0  0  0  0  0  0  0
   -8.7330   -0.5170   -0.5840 C   0  0  0  0  0  0  0  0  0  0  0  0
   -8.7770   -1.9170   -0.0150 C   0  0  0  0  0  0  0  0  0  0  0  0
   -7.6210   -1.8810    0.9630 C   0  0  0  0  0  0  0  0  0  0  0  0
   -5.4150   -0.7420    0.9510 C   0  0  0  0  0  0  0  0  0  0  0  0
   -5.4630    0.1560    1.8530 O   0  0  0  0  0  0  0  0  0  0  0  0
    0.1950    0.6100    1.0220 N   0  0  0  0  0  0  0  0  0  0  0  0
    1.4570    0.6260    1.7700 C   0  0  0  0  0  0  0  0  0  0  0  0
    2.3860    1.6790    1.1850 C   0  0  0  0  0  0  0  0  0  0  0  0
    2.5810    1.5070   -0.2960 C   0  0  1  0  0  0  0  0  0  0  0  0
    3.4230    0.4360   -0.6170 O   0  0  0  0  0  0  0  0  0  0  0  0
    4.7380    0.2900   -0.2400 C   0  0  0  0  0  0  0  0  0  0  0  0
    5.0660   -0.2250    0.9590 C   0  0  0  0  0  0  0  0  0  0  0  0
    6.4330   -0.4030    1.4140 C   0  0  0  0  0  0  0  0  0  0  0  0
    6.7330   -0.9810    2.7560 C   0  0  0  0  0  0  0  0  0  0  0  0
    6.2050   -2.2720    2.8650 F   0  0  0  0  0  0  0  0  0  0  0  0
    7.4010   -0.0340    0.5950 C   0  0  0  0  0  0  0  0  0  0  0  0
    7.1450    0.5180   -0.6880 N   0  0  0  0  0  0  0  0  0  0  0  0
    5.7870    0.7010   -1.1550 C   0  0  0  0  0  0  0  0  0  0  0  0
    5.6050    1.1980   -2.3620 C   0  0  0  0  0  0  0  0  0  0  0  0
    6.6660    1.6180   -3.2950 C   0  0  0  0  0  0  0  0  0  0  0  0
    6.1050    1.7270   -4.4840 C   0  0  0  0  0  0  0  0  0  0  0  0
    4.7570    1.4170   -4.4340 O   0  0  0  0  0  0  0  0  0  0  0  0
    4.3370    1.4410   -3.0690 C   0  0  0  0  0  0  0  0  0  0  0  0
    1.2380    1.3400   -1.0050 C   0  0  0  0  0  0  0  0  0  0  0  0
    0.0780    1.5680   -0.0590 C   0  0  0  0  0  0  0  0  0  0  0  0
  1  2  2  0
  2  3  1  0
  2 16  1  0
  3  4  1  0
  4  5  1  0
  5  6  1  0
  5 14  1  0
  6  7  2  0
  6  8  1  0
  8  9  1  0
  9 10  1  6
  9 13  1  0
  9 14  1  0
 10 11  1  0
 11 12  1  0
 12 13  1  0
 14 15  2  0
 16 17  1  0
 16 35  1  0
 17 18  1  0
 18 19  1  0
 19 20  1  1
 19 34  1  0
 20 21  1  0
 21 22  2  0
 21 28  1  0
 22 23  1  0
 23 24  1  0
 23 26  2  0
 24 25  1  0
 26 27  1  0
 27 28  1  0
 28 29  2  3
 29 30  1  0
 29 33  1  0
 30 31  2  0
 31 32  1  0
 32 33  1  0
 34 35  1  0
M  END
