
     RDKit          3D

 35 39  0  0  0  0  0  0  0  0999 V2000
   -6.6230    1.4420   -2.9550 C   0  0  0  0  0  0  0  0  0  0  0  0
   -5.2280    1.3740   -2.9860 O   0  0  0  0  0  0  0  0  0  0  0  0
   -4.5030    1.0430   -1.8490 C   0  0  0  0  0  0  0  0  0  0  0  0
   -5.1230    0.8070   -0.7960 O   0  0  0  0  0  0  0  0  0  0  0  0
   -3.0250    0.9880   -1.9470 C   0  0  0  0  0  0  0  0  0  0  0  0
   -2.3090    0.6750   -0.8940 C   0  0  0  0  0  0  0  0  0  0  0  0
   -3.0360    0.3990    0.3220 N   0  0  0  0  0  0  0  0  0  0  0  0
   -3.3420    1.3360    1.2390 C   0  0  0  0  0  0  0  0  0  0  0  0
   -3.0810    2.5620    1.2300 O   0  0  0  0  0  0  0  0  0  0  0  0
   -4.0250    0.7550    2.2670 N   0  0  0  0  0  0  0  0  0  0  0  0
   -4.1550   -0.5570    2.0040 C   0  0  0  0  0  0  0  0  0  0  0  0
   -4.7390   -1.6120    2.6680 C   0  0  0  0  0  0  0  0  0  0  0  0
   -4.7350   -2.9010    2.1670 C   0  0  0  0  0  0  0  0  0  0  0  0
   -4.1040   -3.0800    0.9460 C   0  0  0  0  0  0  0  0  0  0  0  0
   -3.5120   -2.0300    0.2640 C   0  0  0  0  0  0  0  0  0  0  0  0
   -3.5280   -0.7530    0.7830 C   0  0  0  0  0  0  0  0  0  0  0  0
   -0.8190    0.5990   -0.8780 C   0  0  1  0  0  0  0  0  0  0  0  0
   -0.3220   -0.3770    0.1230 C   0  0  0  0  0  0  0  0  0  0  0  0
    1.1380   -0.5540    0.2650 C   0  0  0  0  0  0  0  0  0  0  0  0
    1.8820    0.6950    0.6520 C   0  0  0  0  0  0  0  0  0  0  0  0
    3.3140    0.4510    0.8140 N   0  0  0  0  0  0  0  0  0  0  0  0
    3.9650    0.0580    2.0380 C   0  0  0  0  0  0  0  0  0  0  0  0
    3.2900   -0.2060    3.0790 O   0  0  0  0  0  0  0  0  0  0  0  0
    5.4030    0.0410    1.8170 C   0  0  1  0  0  0  0  0  0  0  0  0
    6.1200   -1.2520    1.9450 C   0  0  0  0  0  0  0  0  0  0  0  0
    7.3590   -1.0320    1.0610 C   0  0  0  0  0  0  0  0  0  0  0  0
    6.9920    0.1160    0.1220 C   0  0  0  0  0  0  0  0  0  0  0  0
    5.5080    0.2700    0.3400 C   0  0  0  0  0  0  0  0  0  0  0  0
    4.3280    0.5510   -0.1610 C   0  0  0  0  0  0  0  0  0  0  0  0
    4.1300    0.9290   -1.5930 C   0  0  0  0  0  0  0  0  0  0  0  0
    3.5700    2.1720   -1.7440 F   0  0  0  0  0  0  0  0  0  0  0  0
   -0.2900    0.4340   -2.2270 C   0  0  0  0  0  0  0  0  0  0  0  0
    0.9190    0.2280   -2.4950 O   0  0  0  0  0  0  0  0  0  0  0  0
   -1.1910    0.5070   -3.3540 N   0  0  0  0  0  0  0  0  0  0  0  0
   -2.4020    1.3010   -3.2720 C   0  0  0  0  0  0  0  0  0  0  0  0
  1  2  1  0
  2  3  1  0
  3  4  2  0
  3  5  1  0
  5  6  2  0
  5 35  1  0
  6  7  1  0
  6 17  1  0
  7  8  1  0
  7 16  1  0
  8  9  2  0
  8 10  1  0
 10 11  1  0
 11 12  2  0
 11 16  1  0
 12 13  1  0
 13 14  2  0
 14 15  1  0
 15 16  2  0
 17 18  1  1
 17 32  1  0
 18 19  1  0
 19 20  1  0
 20 21  1  0
 21 22  1  0
 21 29  1  0
 22 23  2  0
 22 24  1  0
 24 25  1  6
 24 28  1  0
 25 26  1  0
 26 27  1  0
 27 28  1  0
 28 29  2  0
 29 30  1  0
 30 31  1  0
 32 33  2  0
 32 34  1  0
 34 35  1  0
M  END
