
     RDKit          3D

 35 39  0  0  0  0  0  0  0  0999 V2000
    2.6460    1.3930   -2.9840 C   0  0  0  0  0  0  0  0  0  0  0  0
    2.5750    0.5750   -1.8680 O   0  0  0  0  0  0  0  0  0  0  0  0
    1.4230    0.2160   -1.2230 C   0  0  0  0  0  0  0  0  0  0  0  0
    0.1660    0.5960   -1.5690 C   0  0  0  0  0  0  0  0  0  0  0  0
   -0.9690    0.1800   -0.8340 C   0  0  0  0  0  0  0  0  0  0  0  0
   -2.1830    0.5840   -1.1940 N   0  0  0  0  0  0  0  0  0  0  0  0
   -3.3470    0.7510   -1.2910 C   0  0  0  0  0  0  0  0  0  0  0  0
   -3.9510    1.7160   -2.3290 C   0  0  0  0  0  0  0  0  0  0  0  0
   -4.7110    0.8470   -3.3070 C   0  0  0  0  0  0  0  0  0  0  0  0
   -5.8090    0.0900   -2.6390 C   0  0  0  0  0  0  0  0  0  0  0  0
   -5.6530    0.0530   -1.2290 N   0  0  0  0  0  0  0  0  0  0  0  0
   -6.6670   -0.0390   -0.1900 C   0  0  0  0  0  0  0  0  0  0  0  0
   -7.9560   -0.4690   -0.1390 C   0  0  0  0  0  0  0  0  0  0  0  0
   -8.7350   -0.4730    1.0160 C   0  0  0  0  0  0  0  0  0  0  0  0
  -10.0110   -0.9090    1.0550 F   0  0  0  0  0  0  0  0  0  0  0  0
   -8.1420   -0.0010    2.1890 C   0  0  0  0  0  0  0  0  0  0  0  0
   -6.8270    0.4450    2.1700 C   0  0  0  0  0  0  0  0  0  0  0  0
   -6.0810    0.4290    0.9850 C   0  0  0  0  0  0  0  0  0  0  0  0
   -4.7440    0.8170    0.6950 N   0  0  0  0  0  0  0  0  0  0  0  0
   -4.3980    0.0640   -0.4850 C   0  0  2  0  0  0  0  0  0  0  0  0
   -0.7380   -0.6390    0.2640 C   0  0  0  0  0  0  0  0  0  0  0  0
   -1.8280   -1.0610    0.9950 O   0  0  0  0  0  0  0  0  0  0  0  0
   -1.6900   -1.9050    2.1150 C   0  0  0  0  0  0  0  0  0  0  0  0
    0.5450   -1.0440    0.6450 C   0  0  0  0  0  0  0  0  0  0  0  0
    1.6280   -0.6190   -0.0990 C   0  0  0  0  0  0  0  0  0  0  0  0
    2.9660   -1.1710    0.1470 C   0  0  0  0  0  0  0  0  0  0  0  0
    3.9600   -0.1480    0.4010 O   0  0  0  0  0  0  0  0  0  0  0  0
    5.2360   -0.6660    0.6620 C   0  0  0  0  0  0  0  0  0  0  0  0
    5.4520   -1.8820    0.7300 O   0  0  0  0  0  0  0  0  0  0  0  0
    6.3650    0.1870    0.8570 N   0  0  0  0  0  0  0  0  0  0  0  0
    7.6720   -0.3310    1.1370 C   0  0  1  0  0  0  0  0  0  0  0  0
    8.7480    0.1950    0.1770 C   0  0  0  0  0  0  0  0  0  0  0  0
    9.9720   -0.0410    1.0400 C   0  0  0  0  0  0  0  0  0  0  0  0
    9.5730   -0.1250    2.3420 O   0  0  0  0  0  0  0  0  0  0  0  0
    8.2310    0.2220    2.4400 C   0  0  0  0  0  0  0  0  0  0  0  0
  1  2  1  0
  2  3  1  0
  3  4  2  0
  3 25  1  0
  4  5  1  0
  5  6  1  0
  5 21  2  0
  6  7  2  3
  7  8  1  0
  7 20  1  0
  8  9  1  0
  9 10  1  0
 10 11  1  0
 11 12  1  0
 11 20  1  0
 12 13  2  0
 12 18  1  0
 13 14  1  0
 14 15  1  0
 14 16  2  0
 16 17  1  0
 17 18  2  0
 18 19  1  0
 20 19  1  1
 21 22  1  0
 21 24  1  0
 22 23  1  0
 24 25  2  0
 25 26  1  0
 26 27  1  0
 27 28  1  0
 28 29  2  0
 28 30  1  0
 31 30  1  6
 31 32  1  0
 31 35  1  0
 32 33  1  0
 33 34  1  0
 34 35  1  0
M  END
