
     RDKit          3D

 22 22  0  0  0  0  0  0  0  0999 V2000
    5.7150    0.9780    0.0050 C   0  0  0  0  0  0  0  0  0  0  0  0
    4.3950    1.7000    0.0020 C   0  0  0  0  0  0  0  0  0  0  0  0
    3.5630    1.3730   -1.1730 C   0  0  0  0  0  0  0  0  0  0  0  0
    3.0860   -0.0360   -1.3270 C   0  0  0  0  0  0  0  0  0  0  0  0
    2.2020   -0.4560   -0.2650 N   0  0  0  0  0  0  0  0  0  0  0  0
    2.5330   -1.1250    0.8310 C   0  0  0  0  0  0  0  0  0  0  0  0
    3.9240   -1.5950    1.0320 C   0  0  0  0  0  0  0  0  0  0  0  0
    1.6180   -1.4640    1.8420 C   0  0  0  0  0  0  0  0  0  0  0  0
    0.3190   -1.0610    1.6430 C   0  0  0  0  0  0  0  0  0  0  0  0
   -0.5680   -1.3240    2.5010 O   0  0  0  0  0  0  0  0  0  0  0  0
   -0.0130   -0.3850    0.5320 N   0  0  0  0  0  0  0  0  0  0  0  0
   -1.4510    0.0140    0.3940 C   0  0  0  0  0  0  0  0  0  0  0  0
   -2.1000   -1.1090   -0.3020 C   0  0  0  0  0  0  0  0  0  0  0  0
   -3.4970   -1.1060   -0.6270 C   0  0  0  0  0  0  0  0  0  0  0  0
   -3.9560   -2.3930   -1.3540 C   0  0  0  0  0  0  0  0  0  0  0  0
   -4.4010   -0.2480   -0.4240 C   0  0  0  0  0  0  0  0  0  0  0  0
   -4.3550    1.0300    0.2020 C   0  0  0  0  0  0  0  0  0  0  0  0
   -5.4790    1.7830    0.3040 C   0  0  0  0  0  0  0  0  0  0  0  0
   -5.4020    3.0450    0.9290 N   0  0  0  0  0  0  0  0  0  0  0  0
   -6.6740    1.3330   -0.1910 O   0  0  0  0  0  0  0  0  0  0  0  0
    0.8840   -0.0800   -0.4100 C   0  0  0  0  0  0  0  0  0  0  0  0
    0.5480    0.5500   -1.4350 O   0  0  0  0  0  0  0  0  0  0  0  0
  1  2  1  0
  2  3  1  0
  3  4  1  0
  4  5  1  0
  5  6  1  0
  5 21  1  0
  6  7  1  0
  6  8  2  0
  8  9  1  0
  9 10  2  0
  9 11  1  0
 11 12  1  0
 11 21  1  0
 12 13  1  0
 13 14  1  0
 14 15  1  0
 14 16  2  3
 16 17  1  0
 17 18  2  3
 18 19  1  0
 18 20  1  0
 21 22  2  0
M  END
