
     RDKit          3D

 22 22  0  0  0  0  0  0  0  0999 V2000
    1.3730    1.8510    3.3060 C   0  0  0  0  0  0  0  0  0  0  0  0
    2.3650    1.1310    2.7110 O   0  0  0  0  0  0  0  0  0  0  0  0
    2.0320    0.3630    1.6240 C   0  0  0  0  0  0  0  0  0  0  0  0
    1.4860    1.1940    0.4730 C   0  0  0  0  0  0  0  0  0  0  0  0
    1.1260    0.4440   -0.6760 N   0  0  0  0  0  0  0  0  0  0  0  0
   -0.1180   -0.1180   -1.0190 C   0  0  0  0  0  0  0  0  0  0  0  0
   -0.0900   -0.9060   -2.1040 O   0  0  0  0  0  0  0  0  0  0  0  0
   -1.4070   -0.0600   -0.5120 N   0  0  0  0  0  0  0  0  0  0  0  0
   -1.8640    0.7050    0.5710 C   0  0  0  0  0  0  0  0  0  0  0  0
   -1.8420    0.2130    1.9610 C   0  0  0  0  0  0  0  0  0  0  0  0
   -2.3820    1.3270    2.8300 C   0  0  0  0  0  0  0  0  0  0  0  0
   -2.4670    1.1060    4.2160 N   0  0  0  0  0  0  0  0  0  0  0  0
   -2.7260    2.3840    2.2900 O   0  0  0  0  0  0  0  0  0  0  0  0
   -2.3960   -0.8310   -1.2790 C   0  0  0  0  0  0  0  0  0  0  0  0
   -2.5690   -2.2460   -0.9800 C   0  0  2  0  0  0  0  0  0  0  0  0
   -3.6530   -2.7570   -1.9740 C   0  0  0  0  0  0  0  0  0  0  0  0
   -3.1460   -2.6000    0.3680 C   0  0  0  0  0  0  0  0  0  0  0  0
    2.1650    0.2550   -1.6820 C   0  0  1  0  0  0  0  0  0  0  0  0
    2.6320    1.5470   -2.3220 C   0  0  0  0  0  0  0  0  0  0  0  0
    3.7570    0.9950   -3.2120 C   0  0  0  0  0  0  0  0  0  0  0  0
    4.2150   -0.3110   -2.5630 C   0  0  0  0  0  0  0  0  0  0  0  0
    3.4640   -0.2940   -1.1970 C   0  0  0  0  0  0  0  0  0  0  0  0
  1  2  1  0
  2  3  1  0
  3  4  1  0
  4  5  1  0
  5  6  1  0
 18  5  1  1
  6  7  2  0
  6  8  1  0
  8  9  1  0
  8 14  1  0
  9 10  1  0
 10 11  1  0
 11 12  1  0
 11 13  2  0
 14 15  1  0
 15 16  1  6
 15 17  1  0
 18 19  1  0
 18 22  1  0
 19 20  1  0
 20 21  1  0
 21 22  1  0
M  END
