
     RDKit          3D

 22 22  0  0  0  0  0  0  0  0999 V2000
    5.1970   -1.3900   -1.6660 C   0  0  0  0  0  0  0  0  0  0  0  0
    4.6510   -1.0570   -0.2960 C   0  0  0  0  0  0  0  0  0  0  0  0
    3.3200   -0.5830   -0.3620 O   0  0  0  0  0  0  0  0  0  0  0  0
    2.6990   -0.2390    0.8300 C   0  0  0  0  0  0  0  0  0  0  0  0
    3.3200   -0.3460    2.0020 N   0  0  0  0  0  0  0  0  0  0  0  0
    2.7680   -0.0290    3.1780 C   0  0  0  0  0  0  0  0  0  0  0  0
    1.5010    0.4280    3.1830 N   0  0  0  0  0  0  0  0  0  0  0  0
    0.7970    0.5680    2.0420 C   0  0  0  0  0  0  0  0  0  0  0  0
    1.3810    0.2380    0.8490 C   0  0  0  0  0  0  0  0  0  0  0  0
    0.6750    0.3360   -0.4290 C   0  0  0  0  0  0  0  0  0  0  0  0
   -0.6560    0.8670   -0.3860 N   0  0  0  0  0  0  0  0  0  0  0  0
   -0.8240    2.2780   -0.6370 C   0  0  0  0  0  0  0  0  0  0  0  0
   -0.8290    3.1720    0.5410 C   0  0  0  0  0  0  0  0  0  0  0  0
   -1.0340    4.5990    0.0040 C   0  0  0  0  0  0  0  0  0  0  0  0
   -0.0270    4.9630   -0.8590 O   0  0  0  0  0  0  0  0  0  0  0  0
   -1.7950    0.0720   -0.1700 C   0  0  0  0  0  0  0  0  0  0  0  0
   -2.9250    0.6970   -0.1210 O   0  0  0  0  0  0  0  0  0  0  0  0
   -1.8650   -1.3810    0.0060 C   0  0  2  0  0  0  0  0  0  0  0  0
   -1.8690   -2.1230   -1.3030 C   0  0  0  0  0  0  0  0  0  0  0  0
   -3.0530   -1.7350   -2.1670 C   0  0  0  0  0  0  0  0  0  0  0  0
   -3.0890   -1.8170    0.7840 C   0  0  0  0  0  0  0  0  0  0  0  0
   -3.1260   -3.3030    0.9440 C   0  0  0  0  0  0  0  0  0  0  0  0
  1  2  1  0
  2  3  1  0
  3  4  1  0
  4  5  2  0
  4  9  1  0
  5  6  1  0
  6  7  2  0
  7  8  1  0
  8  9  2  0
  9 10  1  0
 10 11  1  0
 11 12  1  0
 11 16  1  0
 12 13  1  0
 13 14  1  0
 14 15  1  0
 16 17  2  0
 16 18  1  0
 18 19  1  6
 18 21  1  0
 19 20  1  0
 21 22  1  0
M  END
