
     RDKit          3D

 22 23  0  0  0  0  0  0  0  0999 V2000
   -4.7190    0.0550   -2.6580 C   0  0  0  0  0  0  0  0  0  0  0  0
   -3.8070   -0.9700   -3.1660 C   0  0  0  0  0  0  0  0  0  0  0  0
   -3.2130   -1.9070   -2.4620 C   0  0  0  0  0  0  0  0  0  0  0  0
   -3.4190   -2.0170   -1.0060 C   0  0  0  0  0  0  0  0  0  0  0  0
   -2.2330   -1.8980   -0.3470 O   0  0  0  0  0  0  0  0  0  0  0  0
   -1.2520   -1.0130   -0.2120 C   0  0  0  0  0  0  0  0  0  0  0  0
   -1.2330    0.2060   -0.8260 C   0  0  0  0  0  0  0  0  0  0  0  0
   -0.2040    1.1200   -0.6730 C   0  0  0  0  0  0  0  0  0  0  0  0
    0.8570    0.8320    0.1150 C   0  0  0  0  0  0  0  0  0  0  0  0
    1.8780    1.7410    0.2640 O   0  0  0  0  0  0  0  0  0  0  0  0
    2.9770    1.4470    1.0740 C   0  0  0  0  0  0  0  0  0  0  0  0
    3.9550    2.5810    1.0990 C   0  0  0  0  0  0  0  0  0  0  0  0
    5.2590    2.5360    1.5360 C   0  0  0  0  0  0  0  0  0  0  0  0
    5.7240    3.7910    1.3680 N   0  0  0  0  0  0  0  0  0  0  0  0
    4.8110    4.5860    0.8650 N   0  0  0  0  0  0  0  0  0  0  0  0
    3.6880    3.8500    0.6840 C   0  0  0  0  0  0  0  0  0  0  0  0
    0.8990   -0.3910    0.7670 C   0  0  0  0  0  0  0  0  0  0  0  0
   -0.1250   -1.2930    0.6120 C   0  0  0  0  0  0  0  0  0  0  0  0
   -0.0700   -2.4580    1.2420 O   0  0  0  0  0  0  0  0  0  0  0  0
    0.0370   -3.5280    1.8550 C   0  0  0  0  0  0  0  0  0  0  0  0
    0.1190   -3.5910    3.2930 C   0  0  0  0  0  0  0  0  0  0  0  0
    0.1840   -3.6230    4.5080 N   0  0  0  0  0  0  0  0  0  0  0  0
  1  2  1  0
  2  3  2  3
  3  4  1  0
  4  5  1  0
  5  6  1  0
  6  7  2  0
  6 18  1  0
  7  8  1  0
  8  9  2  0
  9 10  1  0
  9 17  1  0
 10 11  1  0
 11 12  1  0
 12 13  1  0
 12 16  2  0
 13 14  2  0
 14 15  1  0
 15 16  1  0
 17 18  2  0
 18 19  1  0
 19 20  1  0
 20 21  1  0
 21 22  3  0
M  END
