
     RDKit          3D

 22 22  0  0  0  0  0  0  0  0999 V2000
   -7.2330    1.3020    1.3020 C   0  0  0  0  0  0  0  0  0  0  0  0
   -7.0660    0.0600    1.0180 N   0  0  0  0  0  0  0  0  0  0  0  0
   -5.7390   -0.4610    1.1450 C   0  0  0  0  0  0  0  0  0  0  0  0
   -5.5810   -1.5530    1.8470 C   0  0  0  0  0  0  0  0  0  0  0  0
   -4.6490    0.2360    0.4980 C   0  0  0  0  0  0  0  0  0  0  0  0
   -4.9060    1.2970   -0.1670 O   0  0  0  0  0  0  0  0  0  0  0  0
   -3.2930   -0.2040    0.5650 N   0  0  0  0  0  0  0  0  0  0  0  0
   -2.2970    0.5950   -0.1330 C   0  0  0  0  0  0  0  0  0  0  0  0
   -0.9590   -0.0750    0.0900 C   0  0  1  0  0  0  0  0  0  0  0  0
   -0.6900   -0.1100    1.5860 C   0  0  0  0  0  0  0  0  0  0  0  0
   -1.0660   -1.4790   -0.4600 C   0  0  0  0  0  0  0  0  0  0  0  0
    0.1350    0.7160   -0.5930 C   0  0  0  0  0  0  0  0  0  0  0  0
    1.3380    0.0910   -0.3780 O   0  0  0  0  0  0  0  0  0  0  0  0
    2.4150    0.7210   -0.9540 C   0  0  0  0  0  0  0  0  0  0  0  0
    3.6390   -0.0660   -0.6370 C   0  0  0  0  0  0  0  0  0  0  0  0
    3.6010   -1.2220    0.1160 C   0  0  0  0  0  0  0  0  0  0  0  0
    4.7540   -1.9160    0.3850 C   0  0  0  0  0  0  0  0  0  0  0  0
    5.9720   -1.4800   -0.0880 C   0  0  0  0  0  0  0  0  0  0  0  0
    5.9840   -0.3510   -0.8200 N   0  0  0  0  0  0  0  0  0  0  0  0
    4.8620    0.3470   -1.0960 C   0  0  0  0  0  0  0  0  0  0  0  0
    4.9130    1.5240   -1.8650 O   0  0  0  0  0  0  0  0  0  0  0  0
    6.1410    2.0050   -2.3690 C   0  0  0  0  0  0  0  0  0  0  0  0
  1  2  2  0
  2  3  1  0
  3  4  2  0
  3  5  1  0
  5  6  2  0
  5  7  1  0
  7  8  1  0
  8  9  1  0
  9 10  1  1
  9 11  1  0
  9 12  1  0
 12 13  1  0
 13 14  1  0
 14 15  1  0
 15 16  2  0
 15 20  1  0
 16 17  1  0
 17 18  2  0
 18 19  1  0
 19 20  2  0
 20 21  1  0
 21 22  1  0
M  END
