
     RDKit          3D

 28 29  0  0  0  0  0  0  0  0999 V2000
    6.3560    1.0630    1.0550 C   0  0  0  0  0  0  0  0  0  0  0  0
    5.4090    0.1730    1.2740 C   0  0  0  0  0  0  0  0  0  0  0  0
    4.7720    0.1040    2.5670 C   0  0  0  0  0  0  0  0  0  0  0  0
    5.0530    0.8650    3.5700 N   0  0  0  0  0  0  0  0  0  0  0  0
    5.0270   -0.6910    0.2430 N   0  0  0  0  0  0  0  0  0  0  0  0
    3.5940   -1.1100    0.0450 C   0  0  2  0  0  0  0  0  0  0  0  0
    3.6630   -1.9850   -1.1780 C   0  0  0  0  0  0  0  0  0  0  0  0
    2.4080   -2.6090   -1.6610 C   0  0  0  0  0  0  0  0  0  0  0  0
    2.9170    0.2050   -0.2190 C   0  0  0  0  0  0  0  0  0  0  0  0
    1.4690    0.2010   -0.3880 C   0  0  0  0  0  0  0  0  0  0  0  0
    0.7200   -0.7670   -0.1800 O   0  0  0  0  0  0  0  0  0  0  0  0
    0.7910    1.3970   -0.8300 N   0  0  0  0  0  0  0  0  0  0  0  0
   -0.6200    1.4240   -0.9980 N   0  0  0  0  0  0  0  0  0  0  0  0
   -1.4660    1.1260    0.0950 C   0  0  0  0  0  0  0  0  0  0  0  0
   -0.8110    0.8320    1.1850 O   0  0  0  0  0  0  0  0  0  0  0  0
   -2.8890    1.1140    0.1510 C   0  0  0  0  0  0  0  0  0  0  0  0
   -3.8320    1.3910   -0.6710 C   0  0  0  0  0  0  0  0  0  0  0  0
   -3.7970    1.8560   -2.0390 C   0  0  0  0  0  0  0  0  0  0  0  0
   -3.1750    2.9430   -2.6100 C   0  0  0  0  0  0  0  0  0  0  0  0
   -3.4340    2.9680   -3.9510 C   0  0  0  0  0  0  0  0  0  0  0  0
   -4.2280    1.8700   -4.1810 C   0  0  0  0  0  0  0  0  0  0  0  0
   -4.4220    1.2460   -3.0630 O   0  0  0  0  0  0  0  0  0  0  0  0
   -3.3870    0.6840    1.4490 O   0  0  0  0  0  0  0  0  0  0  0  0
   -4.1230   -0.5030    1.4730 C   0  0  2  0  0  0  0  0  0  0  0  0
   -4.5790   -0.8610    2.8580 C   0  0  0  0  0  0  0  0  0  0  0  0
   -4.2350   -2.3230    2.9640 C   0  0  0  0  0  0  0  0  0  0  0  0
   -4.1160   -2.7380    1.6400 O   0  0  0  0  0  0  0  0  0  0  0  0
   -3.2850   -1.7260    1.1110 C   0  0  0  0  0  0  0  0  0  0  0  0
  1  2  2  0
  2  3  1  0
  2  5  1  0
  3  4  2  0
  5  6  1  0
  6  7  1  6
  6  9  1  0
  7  8  1  0
  9 10  1  0
 10 11  2  0
 10 12  1  0
 12 13  1  0
 13 14  1  0
 14 15  2  0
 14 16  1  0
 16 17  2  3
 16 23  1  0
 17 18  1  0
 18 19  2  0
 18 22  1  0
 19 20  1  0
 20 21  2  0
 21 22  1  0
 24 23  1  1
 24 25  1  0
 24 28  1  0
 25 26  1  0
 26 27  1  0
 27 28  1  0
M  END
