
     RDKit          3D

 28 28  0  0  0  0  0  0  0  0999 V2000
    5.2260    0.4360    2.4870 C   0  0  0  0  0  0  0  0  0  0  0  0
    5.4610    1.3350    1.5660 C   0  0  0  0  0  0  0  0  0  0  0  0
    4.4950    2.2750    1.0570 C   0  0  0  0  0  0  0  0  0  0  0  0
    4.9180    3.1430    0.1130 C   0  0  0  0  0  0  0  0  0  0  0  0
    3.0930    2.4070    1.4530 C   0  0  0  0  0  0  0  0  0  0  0  0
    2.2000    1.2680    1.1100 C   0  0  0  0  0  0  0  0  0  0  0  0
    2.2310    1.1050   -0.4100 C   0  0  0  0  0  0  0  0  0  0  0  0
    1.3660   -0.0070   -0.8150 N   0  0  0  0  0  0  0  0  0  0  0  0
   -0.0110    0.2500   -1.1170 C   0  0  0  0  0  0  0  0  0  0  0  0
   -0.9650   -0.8490   -0.8150 C   0  0  2  0  0  0  0  0  0  0  0  0
   -1.6980   -1.2890   -2.0890 C   0  0  0  0  0  0  0  0  0  0  0  0
   -2.6380   -2.4010   -1.6790 C   0  0  0  0  0  0  0  0  0  0  0  0
   -1.9750   -0.4890    0.1480 N   0  0  0  0  0  0  0  0  0  0  0  0
   -2.9010    0.5780   -0.0440 C   0  0  0  0  0  0  0  0  0  0  0  0
   -2.8360    1.2450   -1.1070 O   0  0  0  0  0  0  0  0  0  0  0  0
   -3.9260    0.9220    0.9630 C   0  0  0  0  0  0  0  0  0  0  0  0
   -4.8210    2.0510    0.5540 C   0  0  1  0  0  0  0  0  0  0  0  0
   -4.1110    3.2280    0.3130 O   0  0  0  0  0  0  0  0  0  0  0  0
   -5.7940    1.7210   -0.4960 C   0  0  0  0  0  0  0  0  0  0  0  0
   -7.0670    1.8160   -0.3170 N   0  0  0  0  0  0  0  0  0  0  0  0
   -5.3700    1.2900   -1.7370 O   0  0  0  0  0  0  0  0  0  0  0  0
   -0.2970   -2.0920   -0.3050 C   0  0  0  0  0  0  0  0  0  0  0  0
   -0.8900   -2.9230    0.4320 O   0  0  0  0  0  0  0  0  0  0  0  0
    1.0500   -2.4000   -0.6290 N   0  0  0  0  0  0  0  0  0  0  0  0
    1.5770   -3.7360   -0.7010 C   0  0  0  0  0  0  0  0  0  0  0  0
    2.1290   -4.2480    0.5770 C   0  0  0  0  0  0  0  0  0  0  0  0
    1.9260   -1.3080   -0.8970 C   0  0  0  0  0  0  0  0  0  0  0  0
    3.1520   -1.4790   -1.1960 O   0  0  0  0  0  0  0  0  0  0  0  0
  1  2  2  0
  2  3  1  0
  3  4  2  0
  3  5  1  0
  5  6  1  0
  6  7  1  0
  7  8  1  0
  8  9  1  0
  8 27  1  0
  9 10  1  0
 10 11  1  6
 10 13  1  0
 10 22  1  0
 11 12  1  0
 13 14  1  0
 14 15  2  0
 14 16  1  0
 16 17  1  0
 17 18  1  6
 17 19  1  0
 19 20  2  0
 19 21  1  0
 22 23  2  0
 22 24  1  0
 24 25  1  0
 24 27  1  0
 25 26  1  0
 27 28  2  0
M  END
