
     RDKit          3D

 28 28  0  0  0  0  0  0  0  0999 V2000
   -3.4540   -3.6570   -1.4010 C   0  0  0  0  0  0  0  0  0  0  0  0
   -2.1100   -3.0600   -1.2560 C   0  0  0  0  0  0  0  0  0  0  0  0
   -1.0980   -3.7110   -1.8690 C   0  0  0  0  0  0  0  0  0  0  0  0
    0.3250   -3.3940   -1.9220 C   0  0  0  0  0  0  0  0  0  0  0  0
    1.0450   -2.5700   -1.1960 C   0  0  0  0  0  0  0  0  0  0  0  0
    2.4880   -2.4490   -1.4750 C   0  0  0  0  0  0  0  0  0  0  0  0
    2.7760   -1.0390   -1.8380 C   0  0  0  0  0  0  0  0  0  0  0  0
    1.8960   -0.1630   -1.8410 O   0  0  0  0  0  0  0  0  0  0  0  0
    4.1370   -0.7200   -2.1950 N   0  0  0  0  0  0  0  0  0  0  0  0
    4.4720    0.6450   -2.5540 C   0  0  2  0  0  0  0  0  0  0  0  0
    4.6370    0.7620   -4.0780 C   0  0  0  0  0  0  0  0  0  0  0  0
    5.7130    1.0910   -1.8900 C   0  0  0  0  0  0  0  0  0  0  0  0
    6.4150    0.2910   -1.1400 N   0  0  0  0  0  0  0  0  0  0  0  0
    6.1580    2.3990   -2.0620 O   0  0  0  0  0  0  0  0  0  0  0  0
    0.4930   -1.7320   -0.0960 C   0  0  0  0  0  0  0  0  0  0  0  0
   -0.7660   -1.4590    0.1640 C   0  0  0  0  0  0  0  0  0  0  0  0
   -0.9960   -0.5980    1.3190 C   0  0  0  0  0  0  0  0  0  0  0  0
   -0.0430   -0.1930    1.9930 O   0  0  0  0  0  0  0  0  0  0  0  0
   -2.3310   -0.2440    1.6280 N   0  0  0  0  0  0  0  0  0  0  0  0
   -2.7420    0.6020    2.7390 C   0  0  1  0  0  0  0  0  0  0  0  0
   -1.6580    0.6740    3.8240 C   0  0  0  0  0  0  0  0  0  0  0  0
   -3.0870    1.9160    2.1850 C   0  0  1  0  0  0  0  0  0  0  0  0
   -4.1350    1.7180    1.2540 O   0  0  0  0  0  0  0  0  0  0  0  0
   -3.4440    2.9940    3.1720 C   0  0  0  0  0  0  0  0  0  0  0  0
   -3.7420    4.2890    2.4110 C   0  0  0  0  0  0  0  0  0  0  0  0
   -4.0960    5.3830    3.3470 C   0  0  0  0  0  0  0  0  0  0  0  0
   -4.3790    6.2270    4.0640 N   0  0  0  0  0  0  0  0  0  0  0  0
   -1.9010   -1.9050   -0.5400 O   0  0  0  0  0  0  0  0  0  0  0  0
  1  2  1  0
  2  3  2  0
  2 28  1  0
  3  4  1  0
  4  5  2  0
  5  6  1  0
  5 15  1  0
  6  7  1  0
  7  8  2  0
  7  9  1  0
  9 10  1  0
 10 11  1  6
 10 12  1  0
 12 13  2  0
 12 14  1  0
 15 16  2  0
 16 17  1  0
 16 28  1  0
 17 18  2  0
 17 19  1  0
 19 20  1  0
 20 21  1  1
 20 22  1  0
 22 23  1  6
 22 24  1  0
 24 25  1  0
 25 26  1  0
 26 27  3  0
M  END
