
     RDKit          3D

 28 29  0  0  0  0  0  0  0  0999 V2000
    2.1590    2.1210    1.7890 C   0  0  0  0  0  0  0  0  0  0  0  0
    1.6890    0.9390    2.5860 C   0  0  0  0  0  0  0  0  0  0  0  0
    0.7420    0.2200    1.8300 O   0  0  0  0  0  0  0  0  0  0  0  0
    1.1540   -0.3020    0.5980 C   0  0  0  0  0  0  0  0  0  0  0  0
    2.3930   -0.1490    0.1170 N   0  0  0  0  0  0  0  0  0  0  0  0
    2.8310   -0.6330   -1.0600 C   0  0  0  0  0  0  0  0  0  0  0  0
    4.1620   -0.4120   -1.4720 N   0  0  0  0  0  0  0  0  0  0  0  0
    5.0570    0.3320   -0.6340 C   0  0  1  0  0  0  0  0  0  0  0  0
    5.2360   -0.3180    0.7000 C   0  0  0  0  0  0  0  0  0  0  0  0
    6.6230    0.0450    1.1660 C   0  0  0  0  0  0  0  0  0  0  0  0
    7.2960    0.7310    0.0000 C   0  0  0  0  0  0  0  0  0  0  0  0
    6.4510    0.4250   -1.2140 C   0  0  1  0  0  0  0  0  0  0  0  0
    6.8660   -0.7320   -1.8280 O   0  0  0  0  0  0  0  0  0  0  0  0
    1.9420   -1.3260   -1.8040 N   0  0  0  0  0  0  0  0  0  0  0  0
    0.6820   -1.5170   -1.3790 C   0  0  0  0  0  0  0  0  0  0  0  0
   -0.0760   -2.1800   -2.1490 O   0  0  0  0  0  0  0  0  0  0  0  0
    0.2530   -1.0120   -0.1700 C   0  0  0  0  0  0  0  0  0  0  0  0
   -1.0960   -1.2490    0.2240 N   0  0  0  0  0  0  0  0  0  0  0  0
   -2.1560   -0.3620   -0.1070 C   0  0  0  0  0  0  0  0  0  0  0  0
   -1.8660    0.6510   -0.7660 O   0  0  0  0  0  0  0  0  0  0  0  0
   -3.5100   -0.6740    0.3330 C   0  0  0  0  0  0  0  0  0  0  0  0
   -4.5800    0.2830   -0.0740 C   0  0  1  0  0  0  0  0  0  0  0  0
   -4.7710    0.4600   -1.5290 C   0  0  0  0  0  0  0  0  0  0  0  0
   -5.1360   -0.7900   -2.2790 C   0  0  0  0  0  0  0  0  0  0  0  0
   -5.2760   -0.4400   -3.6300 O   0  0  0  0  0  0  0  0  0  0  0  0
   -5.8180   -0.0480    0.7050 C   0  0  1  0  0  0  0  0  0  0  0  0
   -5.5540    0.0780    2.1930 C   0  0  0  0  0  0  0  0  0  0  0  0
   -7.0180    0.7510    0.3570 C   0  0  0  0  0  0  0  0  0  0  0  0
  1  2  1  0
  2  3  1  0
  3  4  1  0
  4  5  1  0
  4 17  2  0
  5  6  2  0
  6  7  1  0
  6 14  1  0
  8  7  1  6
  8  9  1  0
  8 12  1  0
  9 10  1  0
 10 11  1  0
 11 12  1  0
 12 13  1  1
 14 15  1  0
 15 16  2  0
 15 17  1  0
 17 18  1  0
 18 19  1  0
 19 20  2  0
 19 21  1  0
 22 21  1  6
 22 23  1  0
 22 26  1  0
 23 24  1  0
 24 25  1  0
 26 27  1  1
 26 28  1  0
M  END
