
     RDKit          3D

 28 29  0  0  0  0  0  0  0  0999 V2000
   -6.5050   -1.7630   -1.1910 C   0  0  0  0  0  0  0  0  0  0  0  0
   -5.4910   -1.6850   -2.2960 C   0  0  0  0  0  0  0  0  0  0  0  0
   -4.3730   -0.6890   -1.9320 C   0  0  2  0  0  0  0  0  0  0  0  0
   -3.3700   -0.6390   -3.0730 C   0  0  0  0  0  0  0  0  0  0  0  0
   -3.7430   -1.1740   -0.7950 O   0  0  0  0  0  0  0  0  0  0  0  0
   -2.6780   -0.5730   -0.1180 C   0  0  0  0  0  0  0  0  0  0  0  0
   -2.8800    0.3790    0.7670 C   0  0  0  0  0  0  0  0  0  0  0  0
   -4.2320    0.8890    1.1210 C   0  0  0  0  0  0  0  0  0  0  0  0
   -4.5080    0.7050    2.6080 C   0  0  0  0  0  0  0  0  0  0  0  0
   -3.5420    1.4160    3.4140 N   0  0  0  0  0  0  0  0  0  0  0  0
   -1.3430   -1.0540   -0.4400 C   0  0  0  0  0  0  0  0  0  0  0  0
   -0.2410   -0.4640    0.2430 N   0  0  0  0  0  0  0  0  0  0  0  0
    1.0590   -0.9630   -0.1020 C   0  0  0  0  0  0  0  0  0  0  0  0
    1.1640   -1.8680   -0.9620 O   0  0  0  0  0  0  0  0  0  0  0  0
    2.2860   -0.4420    0.5280 C   0  0  1  0  0  0  0  0  0  0  0  0
    3.0010   -1.5940    1.1760 C   0  0  0  0  0  0  0  0  0  0  0  0
    3.0920    0.2570   -0.5350 C   0  0  0  0  0  0  0  0  0  0  0  0
    4.3480    0.8930    0.0230 C   0  0  1  0  0  0  0  0  0  0  0  0
    4.2150    1.3560    1.4420 C   0  0  0  0  0  0  0  0  0  0  0  0
    3.0070    0.9850    2.1890 C   0  0  0  0  0  0  0  0  0  0  0  0
    1.9330    0.5450    1.4420 O   0  0  0  0  0  0  0  0  0  0  0  0
    5.4410   -0.1530   -0.0990 C   0  0  0  0  0  0  0  0  0  0  0  0
    6.4720    0.1400   -1.0970 C   0  0  0  0  0  0  0  0  0  0  0  0
    6.9920   -0.7860   -1.7520 O   0  0  0  0  0  0  0  0  0  0  0  0
    6.8880    1.4670   -1.3300 N   0  0  0  0  0  0  0  0  0  0  0  0
    5.9050    2.4800   -1.1760 C   0  0  0  0  0  0  0  0  0  0  0  0
    6.1700    3.6860   -1.3590 O   0  0  0  0  0  0  0  0  0  0  0  0
    4.6090    2.0570   -0.8050 N   0  0  0  0  0  0  0  0  0  0  0  0
  1  2  1  0
  2  3  1  0
  3  4  1  6
  3  5  1  0
  5  6  1  0
  6  7  2  3
  6 11  1  0
  7  8  1  0
  8  9  1  0
  9 10  1  0
 11 12  1  0
 12 13  1  0
 13 14  2  0
 13 15  1  0
 15 16  1  1
 15 17  1  0
 15 21  1  0
 18 17  1  6
 18 19  1  0
 18 22  1  0
 18 28  1  0
 19 20  1  0
 20 21  1  0
 22 23  1  0
 23 24  2  0
 23 25  1  0
 25 26  1  0
 26 27  2  0
 26 28  1  0
M  END
