
     RDKit          3D

 28 29  0  0  0  0  0  0  0  0999 V2000
   -7.3940   -0.6390   -0.6120 C   0  0  0  0  0  0  0  0  0  0  0  0
   -7.1660   -0.0610    0.7370 C   0  0  0  0  0  0  0  0  0  0  0  0
   -6.0900    0.9640    0.8600 C   0  0  0  0  0  0  0  0  0  0  0  0
   -4.7100    0.5320    0.5210 C   0  0  1  0  0  0  0  0  0  0  0  0
   -4.4710    0.0540   -0.8670 C   0  0  0  0  0  0  0  0  0  0  0  0
   -3.1710    0.5930   -1.4540 C   0  0  0  0  0  0  0  0  0  0  0  0
   -2.0970    0.4370   -0.5060 N   0  0  0  0  0  0  0  0  0  0  0  0
   -0.9100   -0.2230   -0.9060 C   0  0  0  0  0  0  0  0  0  0  0  0
   -0.7980   -0.6710   -2.0760 O   0  0  0  0  0  0  0  0  0  0  0  0
    0.2240   -0.4160   -0.0030 C   0  0  0  0  0  0  0  0  0  0  0  0
    0.1940    0.0120    1.2130 N   0  0  0  0  0  0  0  0  0  0  0  0
    1.3020   -0.1990    2.0300 N   0  0  0  0  0  0  0  0  0  0  0  0
    1.9130   -1.5330    1.9850 C   0  0  1  0  0  0  0  0  0  0  0  0
    1.2470   -2.4420    3.0170 C   0  0  0  0  0  0  0  0  0  0  0  0
    1.7870   -2.1370    0.6120 C   0  0  0  0  0  0  0  0  0  0  0  0
    1.4610   -1.1120   -0.4400 C   0  0  2  0  0  0  0  0  0  0  0  0
    2.5890   -0.1630   -0.7060 C   0  0  0  0  0  0  0  0  0  0  0  0
    3.8050   -0.9180   -1.1410 C   0  0  0  0  0  0  0  0  0  0  0  0
    4.9290   -0.0190   -1.4110 N   0  0  0  0  0  0  0  0  0  0  0  0
    6.1400   -0.6200   -1.8320 C   0  0  0  0  0  0  0  0  0  0  0  0
    6.1960   -1.9020   -1.9680 O   0  0  0  0  0  0  0  0  0  0  0  0
    7.3580    0.1230   -2.1360 C   0  0  0  0  0  0  0  0  0  0  0  0
    7.3510    1.4300   -1.7560 O   0  0  0  0  0  0  0  0  0  0  0  0
    7.3240    1.6410   -0.3870 C   0  0  0  0  0  0  0  0  0  0  0  0
    7.3120    3.0470   -0.2190 O   0  0  0  0  0  0  0  0  0  0  0  0
   -2.2810    0.9720    0.8310 C   0  0  0  0  0  0  0  0  0  0  0  0
   -3.6700    1.5580    0.9330 C   0  0  1  0  0  0  0  0  0  0  0  0
   -3.7120    2.7250    0.2180 O   0  0  0  0  0  0  0  0  0  0  0  0
  1  2  1  0
  2  3  1  0
  4  3  1  6
  4  5  1  0
  4 27  1  0
  5  6  1  0
  6  7  1  0
  7  8  1  0
  7 26  1  0
  8  9  2  0
  8 10  1  0
 10 11  2  0
 10 16  1  0
 11 12  1  0
 12 13  1  0
 13 14  1  1
 13 15  1  0
 15 16  1  0
 16 17  1  1
 17 18  1  0
 18 19  1  0
 19 20  1  0
 20 21  2  0
 20 22  1  0
 22 23  1  0
 23 24  1  0
 24 25  1  0
 26 27  1  0
 27 28  1  6
M  END
