
     RDKit          3D

 29 31  0  0  0  0  0  0  0  0999 V2000
   -3.3000   -0.4330    0.5880 C   0  0  0  0  0  0  0  0  0  0  0  0
   -2.0940    0.3030    0.2570 C   0  0  0  0  0  0  0  0  0  0  0  0
   -2.0870    1.6340    0.3460 N   0  0  0  0  0  0  0  0  0  0  0  0
   -3.1950    2.3820    0.7460 C   0  0  0  0  0  0  0  0  0  0  0  0
   -3.9910    3.0870   -0.0230 C   0  0  0  0  0  0  0  0  0  0  0  0
   -5.0220    3.7100    0.8100 C   0  0  0  0  0  0  0  0  0  0  0  0
   -4.7210    3.2790    2.1410 N   0  0  0  0  0  0  0  0  0  0  0  0
   -3.6910    2.5310    2.1010 C   0  0  0  0  0  0  0  0  0  0  0  0
   -0.8410   -0.2790   -0.1790 C   0  0  0  0  0  0  0  0  0  0  0  0
   -0.4940   -1.5030   -0.3710 C   0  0  0  0  0  0  0  0  0  0  0  0
   -1.1450   -2.7870   -0.2420 C   0  0  0  0  0  0  0  0  0  0  0  0
   -0.4580   -3.9290   -0.5400 C   0  0  0  0  0  0  0  0  0  0  0  0
   -1.0760   -5.2260   -0.4220 C   0  0  0  0  0  0  0  0  0  0  0  0
   -2.3160   -5.3650   -0.0260 C   0  0  0  0  0  0  0  0  0  0  0  0
   -3.1380   -4.1700    0.3210 C   0  0  0  0  0  0  0  0  0  0  0  0
   -2.4200   -2.9960    0.1600 O   0  0  0  0  0  0  0  0  0  0  0  0
    0.1850    0.7610   -0.3300 N   0  0  0  0  0  0  0  0  0  0  0  0
    1.5670    0.5020   -0.3430 C   0  0  0  0  0  0  0  0  0  0  0  0
    2.0680   -0.6280   -0.2090 O   0  0  0  0  0  0  0  0  0  0  0  0
    2.5010    1.5780   -0.5170 N   0  0  0  0  0  0  0  0  0  0  0  0
    3.8950    1.4550   -0.5450 C   0  0  0  0  0  0  0  0  0  0  0  0
    4.6510    0.3350   -0.3990 C   0  0  0  0  0  0  0  0  0  0  0  0
    6.0410    0.2840   -0.4310 C   0  0  0  0  0  0  0  0  0  0  0  0
    6.7110    1.4710   -0.6280 C   0  0  0  0  0  0  0  0  0  0  0  0
    8.1380    1.4290   -0.6590 C   0  0  0  0  0  0  0  0  0  0  0  0
    9.3150    1.4090   -0.6970 N   0  0  0  0  0  0  0  0  0  0  0  0
    6.0050    2.6500   -0.7850 C   0  0  0  0  0  0  0  0  0  0  0  0
    4.6370    2.6400   -0.7440 C   0  0  0  0  0  0  0  0  0  0  0  0
    3.9580    3.8090   -0.8980 F   0  0  0  0  0  0  0  0  0  0  0  0
  1  2  1  0
  2  3  2  3
  2  9  1  0
  3  4  1  0
  4  5  2  0
  4  8  1  0
  5  6  1  0
  6  7  1  0
  7  8  2  0
  9 10  2  3
  9 17  1  0
 10 11  1  0
 11 12  2  0
 11 16  1  0
 12 13  1  0
 13 14  2  0
 14 15  1  0
 15 16  1  0
 17 18  1  0
 18 19  2  0
 18 20  1  0
 20 21  1  0
 21 22  2  0
 21 28  1  0
 22 23  1  0
 23 24  2  0
 24 25  1  0
 24 27  1  0
 25 26  3  0
 27 28  2  0
 28 29  1  0
M  END
