
     RDKit          3D

 29 32  0  0  0  0  0  0  0  0999 V2000
    6.3730    1.4070    0.0280 C   0  0  0  0  0  0  0  0  0  0  0  0
    6.2420    0.7470    1.3720 C   0  0  0  0  0  0  0  0  0  0  0  0
    6.8380    1.2000    2.5260 C   0  0  0  0  0  0  0  0  0  0  0  0
    6.4690    0.3200    3.5210 C   0  0  0  0  0  0  0  0  0  0  0  0
    5.6810   -0.6350    3.0090 N   0  0  0  0  0  0  0  0  0  0  0  0
    5.5400   -0.3780    1.6950 C   0  0  0  0  0  0  0  0  0  0  0  0
    4.7470   -1.2000    0.7860 C   0  0  0  0  0  0  0  0  0  0  0  0
    4.1390   -2.2090    1.1650 O   0  0  0  0  0  0  0  0  0  0  0  0
    4.6820   -0.8270   -0.5420 O   0  0  0  0  0  0  0  0  0  0  0  0
    3.9400   -1.5670   -1.4770 C   0  0  0  0  0  0  0  0  0  0  0  0
    2.5190   -1.5730   -1.0330 C   0  0  0  0  0  0  0  0  0  0  0  0
    1.9040   -2.4780   -0.2710 N   0  0  0  0  0  0  0  0  0  0  0  0
    0.6510   -2.0910   -0.1270 N   0  0  0  0  0  0  0  0  0  0  0  0
    0.4750   -0.9410   -0.7980 C   0  0  0  0  0  0  0  0  0  0  0  0
   -0.7990   -0.1410   -0.9080 C   0  0  0  0  0  0  0  0  0  0  0  0
   -1.8000   -0.8340   -0.1680 N   0  0  2  0  0  0  0  0  0  0  0  0
   -2.2710   -2.0310   -0.8430 C   0  0  0  0  0  0  0  0  0  0  0  0
   -2.8100   -2.9540    0.2390 C   0  0  0  0  0  0  0  0  0  0  0  0
   -3.8700   -2.1950    1.0060 C   0  0  0  0  0  0  0  0  0  0  0  0
   -4.2030   -0.9040    0.2560 C   0  0  0  0  0  0  0  0  0  0  0  0
   -2.9740   -0.0360    0.1290 C   0  0  2  0  0  0  0  0  0  0  0  0
   -3.1880    1.0870   -0.7900 C   0  0  0  0  0  0  0  0  0  0  0  0
   -4.3800    1.9290   -0.4920 C   0  0  0  0  0  0  0  0  0  0  0  0
   -4.3170    3.2410   -0.1650 C   0  0  0  0  0  0  0  0  0  0  0  0
   -5.6660    3.7910    0.0660 C   0  0  0  0  0  0  0  0  0  0  0  0
   -6.5450    2.6570   -0.1750 C   0  0  0  0  0  0  0  0  0  0  0  0
   -5.7960    1.6080   -0.4900 C   0  0  0  0  0  0  0  0  0  0  0  0
    1.6460   -0.6270   -1.3600 N   0  0  0  0  0  0  0  0  0  0  0  0
    1.8540    0.5700   -2.1800 C   0  0  0  0  0  0  0  0  0  0  0  0
  1  2  1  0
  2  3  1  0
  2  6  2  0
  3  4  2  0
  4  5  1  0
  5  6  1  0
  6  7  1  0
  7  8  2  0
  7  9  1  0
  9 10  1  0
 10 11  1  0
 11 12  2  0
 11 28  1  0
 12 13  1  0
 13 14  2  0
 14 15  1  0
 14 28  1  0
 16 15  1  6
 16 17  1  0
 16 21  1  0
 17 18  1  0
 18 19  1  0
 19 20  1  0
 20 21  1  0
 21 22  1  6
 22 23  1  0
 23 24  2  0
 23 27  1  0
 24 25  1  0
 25 26  1  0
 26 27  2  0
 28 29  1  0
M  CHG  1  16   1
M  END
