
     RDKit          3D

 29 32  0  0  0  0  0  0  0  0999 V2000
   -8.3940    1.1610    0.5180 C   0  0  0  0  0  0  0  0  0  0  0  0
   -7.0350    1.0900   -0.1310 C   0  0  0  0  0  0  0  0  0  0  0  0
   -6.5840   -0.3530   -0.3460 C   0  0  0  0  0  0  0  0  0  0  0  0
   -5.2200   -0.2800   -0.9960 C   0  0  0  0  0  0  0  0  0  0  0  0
   -4.6780   -1.5130   -1.2550 O   0  0  0  0  0  0  0  0  0  0  0  0
   -4.4860   -2.3140   -0.1590 C   0  0  0  0  0  0  0  0  0  0  0  0
   -3.5560   -1.7300    0.8790 C   0  0  1  0  0  0  0  0  0  0  0  0
   -3.3820   -2.7580    1.9890 C   0  0  0  0  0  0  0  0  0  0  0  0
   -2.2630   -1.5160    0.2500 N   0  0  0  0  0  0  0  0  0  0  0  0
   -1.5870   -0.2930    0.2590 C   0  0  0  0  0  0  0  0  0  0  0  0
   -2.1960    0.6630    0.8770 O   0  0  0  0  0  0  0  0  0  0  0  0
   -0.3370   -0.0600   -0.3430 N   0  0  0  0  0  0  0  0  0  0  0  0
    0.3670   -1.0930   -1.0400 C   0  0  0  0  0  0  0  0  0  0  0  0
    1.6720   -1.3080   -0.2530 C   0  0  0  0  0  0  0  0  0  0  0  0
    2.4200   -0.0210   -0.3400 C   0  0  0  0  0  0  0  0  0  0  0  0
    1.7750    1.1290   -0.3520 C   0  0  0  0  0  0  0  0  0  0  0  0
    0.2950    1.2550   -0.2730 C   0  0  0  0  0  0  0  0  0  0  0  0
    2.5480    2.3560   -0.5380 C   0  0  0  0  0  0  0  0  0  0  0  0
    2.2060    3.6670   -0.5470 N   0  0  0  0  0  0  0  0  0  0  0  0
    3.3360    4.3660   -0.7120 C   0  0  0  0  0  0  0  0  0  0  0  0
    4.3850    3.5400   -0.8090 N   0  0  0  0  0  0  0  0  0  0  0  0
    3.9060    2.2810   -0.7030 C   0  0  0  0  0  0  0  0  0  0  0  0
    4.6380    0.9910   -0.7920 C   0  0  1  0  0  0  0  0  0  0  0  0
    6.0030    1.1060   -0.1690 C   0  0  0  0  0  0  0  0  0  0  0  0
    6.8360   -0.1150   -0.3360 C   0  0  0  0  0  0  0  0  0  0  0  0
    6.6170   -1.1010    0.7540 C   0  0  0  0  0  0  0  0  0  0  0  0
    5.2450   -1.0410    1.3300 C   0  0  0  0  0  0  0  0  0  0  0  0
    4.2470   -1.3920    0.2150 C   0  0  0  0  0  0  0  0  0  0  0  0
    3.8520   -0.0910   -0.3350 N   0  0  0  0  0  0  0  0  0  0  0  0
  1  2  1  0
  2  3  1  0
  3  4  1  0
  4  5  1  0
  5  6  1  0
  6  7  1  0
  7  8  1  1
  7  9  1  0
  9 10  1  0
 10 11  2  0
 10 12  1  0
 12 13  1  0
 12 17  1  0
 13 14  1  0
 14 15  1  0
 15 16  2  0
 15 29  1  0
 16 17  1  0
 16 18  1  0
 18 19  1  0
 18 22  2  0
 19 20  1  0
 20 21  2  0
 21 22  1  0
 22 23  1  0
 23 24  1  1
 23 29  1  0
 24 25  1  0
 25 26  1  0
 26 27  1  0
 27 28  1  0
 28 29  1  0
M  CHG  1  21   1
M  END
