
     RDKit          3D

 28 30  0  0  0  0  0  0  0  0999 V2000
   -4.7070    2.0330    0.9080 C   0  0  0  0  0  0  0  0  0  0  0  0
   -3.7160    1.1180    1.3290 O   0  0  0  0  0  0  0  0  0  0  0  0
   -4.1960   -0.1940    1.1020 C   0  0  0  0  0  0  0  0  0  0  0  0
   -4.4640   -0.3130   -0.3790 C   0  0  0  0  0  0  0  0  0  0  0  0
   -5.6370   -0.3330   -1.0270 N   0  0  0  0  0  0  0  0  0  0  0  0
   -5.4170   -0.4440   -2.3580 C   0  0  0  0  0  0  0  0  0  0  0  0
   -6.4400   -0.4910   -3.4350 C   0  0  0  0  0  0  0  0  0  0  0  0
   -4.0420   -0.4930   -2.5350 C   0  0  0  0  0  0  0  0  0  0  0  0
   -3.3670   -0.6080   -3.8400 C   0  0  0  0  0  0  0  0  0  0  0  0
   -3.5070   -0.4110   -1.3230 N   0  0  0  0  0  0  0  0  0  0  0  0
   -2.1050   -0.4040   -1.0090 C   0  0  0  0  0  0  0  0  0  0  0  0
   -1.3010   -1.3740   -1.3290 C   0  0  0  0  0  0  0  0  0  0  0  0
   -1.8060   -2.5170   -2.0290 C   0  0  0  0  0  0  0  0  0  0  0  0
   -2.2000   -3.4390   -2.6090 N   0  0  0  0  0  0  0  0  0  0  0  0
    0.1060   -1.3470   -0.9700 C   0  0  0  0  0  0  0  0  0  0  0  0
    0.8850   -2.2840   -1.3100 O   0  0  0  0  0  0  0  0  0  0  0  0
    0.6760   -0.2920   -0.2290 N   0  0  0  0  0  0  0  0  0  0  0  0
    2.0630   -0.1930    0.1560 C   0  0  0  0  0  0  0  0  0  0  0  0
    3.0840   -0.7790   -0.5430 C   0  0  0  0  0  0  0  0  0  0  0  0
    4.4050   -0.6680   -0.0990 C   0  0  0  0  0  0  0  0  0  0  0  0
    4.6940    0.0420    1.0560 C   0  0  0  0  0  0  0  0  0  0  0  0
    5.8640    0.3310    1.7500 C   0  0  0  0  0  0  0  0  0  0  0  0
    7.2050   -0.1190    1.3190 C   0  0  0  0  0  0  0  0  0  0  0  0
    5.5580    1.0880    2.8620 C   0  0  0  0  0  0  0  0  0  0  0  0
    6.5320    1.6020    3.8720 C   0  0  0  0  0  0  0  0  0  0  0  0
    4.2270    1.2670    2.8610 N   0  0  0  0  0  0  0  0  0  0  0  0
    3.6850    0.6380    1.7710 C   0  0  0  0  0  0  0  0  0  0  0  0
    2.4010    0.5090    1.3100 C   0  0  0  0  0  0  0  0  0  0  0  0
  1  2  1  0
  2  3  1  0
  3  4  1  0
  4  5  2  0
  4 10  1  0
  5  6  1  0
  6  7  1  0
  6  8  2  0
  8  9  1  0
  8 10  1  0
 10 11  1  0
 11 12  2  3
 12 13  1  0
 12 15  1  0
 13 14  3  0
 15 16  2  0
 15 17  1  0
 17 18  1  0
 18 19  2  0
 18 28  1  0
 19 20  1  0
 20 21  2  0
 21 22  1  0
 21 27  1  0
 22 23  1  0
 22 24  2  0
 24 25  1  0
 24 26  1  0
 26 27  1  0
 27 28  2  0
M  END
