
     RDKit          3D

 29 32  0  0  0  0  0  0  0  0999 V2000
   -6.3270    0.5490   -2.1760 C   0  0  0  0  0  0  0  0  0  0  0  0
   -4.7940    0.4020   -2.0310 C   0  0  0  0  0  0  0  0  0  0  0  0
   -4.4770   -0.9890   -1.6250 C   0  0  0  0  0  0  0  0  0  0  0  0
   -4.2800   -1.9970   -2.5650 C   0  0  0  0  0  0  0  0  0  0  0  0
   -4.0610   -3.1700   -1.8920 C   0  0  0  0  0  0  0  0  0  0  0  0
   -4.1210   -2.8840   -0.5580 C   0  0  0  0  0  0  0  0  0  0  0  0
   -4.3750   -1.5450   -0.4110 N   0  0  0  0  0  0  0  0  0  0  0  0
   -4.4450   -0.8440    0.8540 C   0  0  0  0  0  0  0  0  0  0  0  0
   -3.1650   -0.5720    1.5160 C   0  0  0  0  0  0  0  0  0  0  0  0
   -2.1230    0.1890    0.8380 C   0  0  0  0  0  0  0  0  0  0  0  0
   -2.0790    0.3910   -0.4080 O   0  0  0  0  0  0  0  0  0  0  0  0
   -1.0340    0.7790    1.5650 N   0  0  0  0  0  0  0  0  0  0  0  0
   -0.8600    0.6910    2.9880 C   0  0  0  0  0  0  0  0  0  0  0  0
    0.0390    1.8340    3.3970 C   0  0  0  0  0  0  0  0  0  0  0  0
    0.4060    2.5310    2.1030 C   0  0  0  0  0  0  0  0  0  0  0  0
    0.0380    1.5350    1.0270 C   0  0  1  0  0  0  0  0  0  0  0  0
    1.2140    0.6780    0.6530 C   0  0  0  0  0  0  0  0  0  0  0  0
    1.1130   -0.5490    0.8520 O   0  0  0  0  0  0  0  0  0  0  0  0
    2.3890    1.1960    0.1040 N   0  0  0  0  0  0  0  0  0  0  0  0
    3.5480    0.4950   -0.2830 C   0  0  0  0  0  0  0  0  0  0  0  0
    3.7690   -0.8510   -0.2060 C   0  0  0  0  0  0  0  0  0  0  0  0
    4.9310   -1.4830   -0.6020 C   0  0  0  0  0  0  0  0  0  0  0  0
    5.9540   -0.7240   -1.1150 C   0  0  0  0  0  0  0  0  0  0  0  0
    7.1240   -1.2980   -1.5220 N   0  0  0  0  0  0  0  0  0  0  0  0
    8.1360   -0.5730   -2.0250 C   0  0  0  0  0  0  0  0  0  0  0  0
    7.9700    0.7880   -2.1270 C   0  0  0  0  0  0  0  0  0  0  0  0
    6.8150    1.3570   -1.7260 N   0  0  0  0  0  0  0  0  0  0  0  0
    5.7890    0.6400   -1.2180 C   0  0  0  0  0  0  0  0  0  0  0  0
    4.6140    1.2340   -0.8110 C   0  0  0  0  0  0  0  0  0  0  0  0
  1  2  1  0
  2  3  1  0
  3  4  2  0
  3  7  1  0
  4  5  1  0
  5  6  2  0
  6  7  1  0
  7  8  1  0
  8  9  1  0
  9 10  1  0
 10 11  2  0
 10 12  1  0
 12 13  1  0
 12 16  1  0
 13 14  1  0
 14 15  1  0
 15 16  1  0
 16 17  1  1
 17 18  2  0
 17 19  1  0
 19 20  1  0
 20 21  2  0
 20 29  1  0
 21 22  1  0
 22 23  2  0
 23 24  1  0
 23 28  1  0
 24 25  2  0
 25 26  1  0
 26 27  2  0
 27 28  1  0
 28 29  2  0
M  CHG  1  24   1
M  END
