
     RDKit          3D

 29 32  0  0  0  0  0  0  0  0999 V2000
    8.3500    0.9880   -1.5350 C   0  0  0  0  0  0  0  0  0  0  0  0
    6.9690    0.3740   -1.6150 C   0  0  0  0  0  0  0  0  0  0  0  0
    6.3350    0.4660   -0.2390 C   0  0  0  0  0  0  0  0  0  0  0  0
    5.0050   -0.1020   -0.2300 N   0  0  0  0  0  0  0  0  0  0  0  0
    4.6600   -1.4710    0.0470 C   0  0  0  0  0  0  0  0  0  0  0  0
    5.5230   -2.3570    0.3250 O   0  0  0  0  0  0  0  0  0  0  0  0
    3.2520   -1.6290   -0.0440 N   0  0  0  0  0  0  0  0  0  0  0  0
    2.7030   -0.2990    0.1290 C   0  0  1  0  0  0  0  0  0  0  0  0
    1.4280   -0.1650   -0.6590 C   0  0  0  0  0  0  0  0  0  0  0  0
    0.2110   -0.5660    0.1180 C   0  0  0  0  0  0  0  0  0  0  0  0
    0.1770    0.1950    1.3460 N   0  0  1  0  0  0  0  0  0  0  0  0
   -1.1090    0.0070    2.0240 C   0  0  0  0  0  0  0  0  0  0  0  0
   -2.1270    0.9230    1.5150 C   0  0  0  0  0  0  0  0  0  0  0  0
   -3.2620    0.6490    0.9460 C   0  0  0  0  0  0  0  0  0  0  0  0
   -3.7670   -0.6930    0.6900 C   0  0  0  0  0  0  0  0  0  0  0  0
   -3.2010   -1.8720    0.9680 N   0  0  0  0  0  0  0  0  0  0  0  0
   -4.0070   -2.8470    0.5640 C   0  0  0  0  0  0  0  0  0  0  0  0
   -5.1110   -2.2380    0.0170 C   0  0  0  0  0  0  0  0  0  0  0  0
   -4.9710   -0.9110    0.0910 N   0  0  0  0  0  0  0  0  0  0  0  0
   -5.9230    0.0470   -0.3790 C   0  0  0  0  0  0  0  0  0  0  0  0
   -6.2140    0.1070   -1.7270 C   0  0  0  0  0  0  0  0  0  0  0  0
   -7.1230    1.0130   -2.2140 C   0  0  0  0  0  0  0  0  0  0  0  0
   -7.7740    1.8900   -1.3800 C   0  0  0  0  0  0  0  0  0  0  0  0
   -7.4960    1.8470   -0.0150 C   0  0  0  0  0  0  0  0  0  0  0  0
   -6.5740    0.9230    0.4490 C   0  0  0  0  0  0  0  0  0  0  0  0
    1.2630   -0.3180    2.1820 C   0  0  0  0  0  0  0  0  0  0  0  0
    2.5660    0.1020    1.5640 C   0  0  0  0  0  0  0  0  0  0  0  0
    3.7630    0.5420   -0.4870 C   0  0  0  0  0  0  0  0  0  0  0  0
    3.6260    1.6270   -1.1260 O   0  0  0  0  0  0  0  0  0  0  0  0
  1  2  1  0
  2  3  1  0
  3  4  1  0
  4  5  1  0
  4 28  1  0
  5  6  2  0
  5  7  1  0
  7  8  1  0
  8  9  1  6
  8 27  1  0
  8 28  1  0
  9 10  1  0
 10 11  1  0
 11 12  1  1
 11 26  1  0
 12 13  1  0
 13 14  2  3
 14 15  1  0
 15 16  2  0
 15 19  1  0
 16 17  1  0
 17 18  2  0
 18 19  1  0
 19 20  1  0
 20 21  2  0
 20 25  1  0
 21 22  1  0
 22 23  2  0
 23 24  1  0
 24 25  2  0
 26 27  1  0
 28 29  2  0
M  CHG  1  11   1
M  END
