
     RDKit          3D

 29 32  0  0  0  0  0  0  0  0999 V2000
   -3.3700    0.0440    1.4450 C   0  0  0  0  0  0  0  0  0  0  0  0
   -3.4890    0.8400    0.1730 C   0  0  2  0  0  0  0  0  0  0  0  0
   -4.8740    1.2100   -0.2170 C   0  0  0  0  0  0  0  0  0  0  0  0
   -5.7930    0.1590   -0.4560 N   0  0  0  0  0  0  0  0  0  0  0  0
   -6.2110   -0.6150    0.6630 C   0  0  0  0  0  0  0  0  0  0  0  0
   -7.5910   -1.1910    0.2910 C   0  0  0  0  0  0  0  0  0  0  0  0
   -8.5540   -0.2180    0.3840 O   0  0  0  0  0  0  0  0  0  0  0  0
   -8.0390    0.9920   -0.0210 C   0  0  0  0  0  0  0  0  0  0  0  0
   -6.9830    0.7260   -1.0800 C   0  0  0  0  0  0  0  0  0  0  0  0
   -2.7310    0.2410   -0.9100 N   0  0  0  0  0  0  0  0  0  0  0  0
   -1.4090   -0.1210   -0.4400 C   0  0  0  0  0  0  0  0  0  0  0  0
   -0.6660   -0.9440   -1.4890 C   0  0  0  0  0  0  0  0  0  0  0  0
    0.6400   -1.2650   -0.9250 N   0  0  0  0  0  0  0  0  0  0  0  0
    1.8400   -0.4390   -1.0600 C   0  0  0  0  0  0  0  0  0  0  0  0
    2.9540   -1.4480   -0.8660 C   0  0  1  0  0  0  0  0  0  0  0  0
    4.2430   -0.8040   -0.5120 C   0  0  0  0  0  0  0  0  0  0  0  0
    4.5280   -0.0960    0.6340 C   0  0  0  0  0  0  0  0  0  0  0  0
    5.8120    0.3410    0.5930 N   0  0  0  0  0  0  0  0  0  0  0  0
    6.3310   -0.0940   -0.5810 C   0  0  0  0  0  0  0  0  0  0  0  0
    5.3790   -0.7860   -1.2430 N   0  0  0  0  0  0  0  0  0  0  0  0
    7.6430    0.0420   -1.2130 C   0  0  0  0  0  0  0  0  0  0  0  0
    8.8700    0.3470   -0.7570 C   0  0  0  0  0  0  0  0  0  0  0  0
    9.4250    0.6710    0.5570 C   0  0  0  0  0  0  0  0  0  0  0  0
    8.9220    1.0910    1.7080 C   0  0  0  0  0  0  0  0  0  0  0  0
    7.5610    1.4050    2.1290 C   0  0  0  0  0  0  0  0  0  0  0  0
    6.3370    1.1000    1.6760 C   0  0  0  0  0  0  0  0  0  0  0  0
    2.4100   -2.3360    0.2110 C   0  0  0  0  0  0  0  0  0  0  0  0
    0.9730   -2.4120   -0.1560 C   0  0  0  0  0  0  0  0  0  0  0  0
    0.1960   -3.3390    0.1660 O   0  0  0  0  0  0  0  0  0  0  0  0
  2  1  1  1
  2  3  1  0
  2 10  1  0
  3  4  1  0
  4  5  1  0
  4  9  1  0
  5  6  1  0
  6  7  1  0
  7  8  1  0
  8  9  1  0
 10 11  1  0
 11 12  1  0
 12 13  1  0
 13 14  1  0
 13 28  1  0
 14 15  1  0
 15 16  1  1
 15 27  1  0
 16 17  2  0
 16 20  1  0
 17 18  1  0
 18 19  1  0
 18 26  1  0
 19 20  2  0
 19 21  1  0
 21 22  2  0
 22 23  1  0
 23 24  2  0
 24 25  1  0
 25 26  2  0
 27 28  1  0
 28 29  2  0
M  CHG  1  10   1
M  END
