
     RDKit          3D

 29 31  0  0  0  0  0  0  0  0999 V2000
   -7.6300    2.3660   -0.1380 C   0  0  0  0  0  0  0  0  0  0  0  0
   -6.3430    1.6620    0.0660 C   0  0  0  0  0  0  0  0  0  0  0  0
   -6.3300    0.3920    0.4350 C   0  0  0  0  0  0  0  0  0  0  0  0
   -5.0910   -0.4080    0.6670 C   0  0  0  0  0  0  0  0  0  0  0  0
   -3.8040    0.0080    0.0890 C   0  0  0  0  0  0  0  0  0  0  0  0
   -2.6620   -0.9040    0.3490 C   0  0  0  0  0  0  0  0  0  0  0  0
   -2.8100   -2.0130    0.8900 O   0  0  0  0  0  0  0  0  0  0  0  0
   -1.3390   -0.5070   -0.0290 N   0  0  0  0  0  0  0  0  0  0  0  0
   -0.1720   -1.2460    0.1340 C   0  0  0  0  0  0  0  0  0  0  0  0
   -0.1040   -2.5470    0.4950 C   0  0  0  0  0  0  0  0  0  0  0  0
    1.1260   -3.2230    0.5910 C   0  0  0  0  0  0  0  0  0  0  0  0
    2.2620   -2.5110    0.3020 C   0  0  0  0  0  0  0  0  0  0  0  0
    2.2360   -1.1870   -0.0680 C   0  0  0  0  0  0  0  0  0  0  0  0
    3.4370   -0.4470   -0.3790 N   0  0  0  0  0  0  0  0  0  0  0  0
    3.6390    0.0940   -1.6980 C   0  0  0  0  0  0  0  0  0  0  0  0
    4.3740   -0.2910    0.6600 C   0  0  0  0  0  0  0  0  0  0  0  0
    4.0380   -0.7820    1.8180 O   0  0  0  0  0  0  0  0  0  0  0  0
    5.6710    0.3490    0.6090 C   0  0  0  0  0  0  0  0  0  0  0  0
    6.5030    0.4770    1.7280 C   0  0  0  0  0  0  0  0  0  0  0  0
    7.6290    1.1040    1.3500 N   0  0  0  0  0  0  0  0  0  0  0  0
    7.5990    1.3950    0.0760 N   0  0  0  0  0  0  0  0  0  0  0  0
    8.6430    2.0750   -0.6700 C   0  0  0  0  0  0  0  0  0  0  0  0
    6.3990    0.9340   -0.3910 C   0  0  0  0  0  0  0  0  0  0  0  0
    1.0300   -0.5560   -0.1520 C   0  0  0  0  0  0  0  0  0  0  0  0
    1.0180    0.8840   -0.5230 C   0  0  0  0  0  0  0  0  0  0  0  0
   -5.4480   -1.4280    1.4270 C   0  0  0  0  0  0  0  0  0  0  0  0
   -6.8570   -1.3790    1.7320 N   0  0  0  0  0  0  0  0  0  0  0  0
   -7.4420   -0.5450    0.7020 C   0  0  2  0  0  0  0  0  0  0  0  0
   -7.6280   -1.3580   -0.4080 F   0  0  0  0  0  0  0  0  0  0  0  0
  1  2  1  0
  2  3  2  3
  3  4  1  0
  3 28  1  0
  4  5  1  0
  4 26  2  0
  5  6  1  0
  6  7  2  0
  6  8  1  0
  8  9  1  0
  9 10  2  0
  9 24  1  0
 10 11  1  0
 11 12  2  0
 12 13  1  0
 13 14  1  0
 13 24  2  0
 14 15  1  0
 14 16  1  0
 16 17  2  0
 16 18  1  0
 18 19  1  0
 18 23  2  0
 19 20  2  0
 20 21  1  0
 21 22  1  0
 21 23  1  0
 24 25  1  0
 26 27  1  0
 27 28  1  0
 28 29  1  6
M  END
