
     RDKit          3D

 29 31  0  0  0  0  0  0  0  0999 V2000
   -6.1960   -0.2950    2.4150 C   0  0  0  0  0  0  0  0  0  0  0  0
   -5.2080   -1.0480    1.5800 C   0  0  0  0  0  0  0  0  0  0  0  0
   -5.3490   -0.8940    0.1670 N   0  0  2  0  0  0  0  0  0  0  0  0
   -4.0800   -0.8960   -0.5310 C   0  0  0  0  0  0  0  0  0  0  0  0
   -3.1750    0.1910   -0.1620 C   0  0  0  0  0  0  0  0  0  0  0  0
   -3.5440    1.0350    0.7110 O   0  0  0  0  0  0  0  0  0  0  0  0
   -1.9000    0.3280   -0.7500 N   0  0  0  0  0  0  0  0  0  0  0  0
   -0.9850    1.3940   -0.4100 C   0  0  0  0  0  0  0  0  0  0  0  0
    0.4280    1.0790   -0.8510 C   0  0  0  0  0  0  0  0  0  0  0  0
    0.7100   -0.3300   -0.8210 N   0  0  0  0  0  0  0  0  0  0  0  0
    2.0130   -0.7310   -0.4180 C   0  0  0  0  0  0  0  0  0  0  0  0
    2.2820   -1.9500   -0.3860 O   0  0  0  0  0  0  0  0  0  0  0  0
    3.0630    0.2390   -0.0340 C   0  0  0  0  0  0  0  0  0  0  0  0
    4.2540   -0.4680    0.3210 N   0  0  0  0  0  0  0  0  0  0  0  0
    5.4240    0.2280    0.7340 C   0  0  0  0  0  0  0  0  0  0  0  0
    6.5190    0.0790   -0.0040 C   0  0  0  0  0  0  0  0  0  0  0  0
    7.7430    0.7560    0.3580 C   0  0  0  0  0  0  0  0  0  0  0  0
    8.6300    0.3960   -0.5780 C   0  0  0  0  0  0  0  0  0  0  0  0
    8.0120   -0.4710   -1.4980 N   0  0  0  0  0  0  0  0  0  0  0  0
    6.7960   -0.6920   -1.2230 C   0  0  0  0  0  0  0  0  0  0  0  0
    5.7850   -1.5330   -1.9180 C   0  0  0  0  0  0  0  0  0  0  0  0
    7.8190    1.6200    1.5360 C   0  0  0  0  0  0  0  0  0  0  0  0
    6.5480    1.7010    2.2630 C   0  0  0  0  0  0  0  0  0  0  0  0
    5.4540    1.0700    1.9040 C   0  0  0  0  0  0  0  0  0  0  0  0
   -0.2590   -1.3380   -1.1760 C   0  0  0  0  0  0  0  0  0  0  0  0
   -1.4750   -0.6350   -1.7370 C   0  0  0  0  0  0  0  0  0  0  0  0
   -6.0980    0.2730   -0.2290 C   0  0  1  0  0  0  0  0  0  0  0  0
   -5.7860    0.5610   -1.6990 C   0  0  0  0  0  0  0  0  0  0  0  0
   -7.5970    0.0380   -0.1160 C   0  0  0  0  0  0  0  0  0  0  0  0
  1  2  1  0
  3  2  1  1
  3  4  1  0
  3 27  1  0
  4  5  1  0
  5  6  2  0
  5  7  1  0
  7  8  1  0
  7 26  1  0
  8  9  1  0
  9 10  1  0
 10 11  1  0
 10 25  1  0
 11 12  2  0
 11 13  1  0
 13 14  1  0
 14 15  1  0
 15 16  2  0
 15 24  1  0
 16 17  1  0
 16 20  1  0
 17 18  2  0
 17 22  1  0
 18 19  1  0
 19 20  2  0
 20 21  1  0
 22 23  1  0
 23 24  2  0
 25 26  1  0
 27 28  1  6
 27 29  1  0
M  CHG  1   3   1
M  END
