
     RDKit          3D

 31 33  0  0  0  0  0  0  0  0999 V2000
   -3.2940   -4.2810   -1.5230 C   0  0  0  0  0  0  0  0  0  0  0  0
   -2.2730   -3.9800   -0.4890 C   0  0  0  0  0  0  0  0  0  0  0  0
   -2.0430   -2.6900   -0.0430 C   0  0  0  0  0  0  0  0  0  0  0  0
   -1.0970   -2.4000    0.9160 C   0  0  0  0  0  0  0  0  0  0  0  0
   -0.8400   -1.0370    1.3890 C   0  0  0  0  0  0  0  0  0  0  0  0
   -1.2110   -0.0090    0.4790 N   0  0  0  0  0  0  0  0  0  0  0  0
   -0.5350    0.0200   -0.7440 C   0  0  0  0  0  0  0  0  0  0  0  0
    0.9410    0.2480   -0.5030 C   0  0  0  0  0  0  0  0  0  0  0  0
    1.4220    1.5460   -0.5380 C   0  0  0  0  0  0  0  0  0  0  0  0
    2.7540    1.7680   -0.3300 C   0  0  0  0  0  0  0  0  0  0  0  0
    3.6290    0.7020   -0.0840 C   0  0  0  0  0  0  0  0  0  0  0  0
    3.1500   -0.5820   -0.0500 C   0  0  0  0  0  0  0  0  0  0  0  0
    1.7920   -0.8050   -0.2630 C   0  0  0  0  0  0  0  0  0  0  0  0
    4.2210   -1.4350    0.2100 O   0  0  0  0  0  0  0  0  0  0  0  0
    5.4140   -0.6800   -0.0620 C   0  0  2  0  0  0  0  0  0  0  0  0
    5.7860   -0.7820   -1.5370 C   0  0  0  0  0  0  0  0  0  0  0  0
    6.5260   -1.0860    0.8180 C   0  0  0  0  0  0  0  0  0  0  0  0
    7.7590   -0.4170    0.6680 N   0  0  0  0  0  0  0  0  0  0  0  0
    6.3840   -1.9910    1.6670 O   0  0  0  0  0  0  0  0  0  0  0  0
    4.9950    0.6520    0.1550 O   0  0  0  0  0  0  0  0  0  0  0  0
   -1.6860    1.1730    1.0840 C   0  0  1  0  0  0  0  0  0  0  0  0
   -0.5840    1.8010    1.9100 C   0  0  0  0  0  0  0  0  0  0  0  0
   -2.3470    2.1570    0.2420 C   0  0  0  0  0  0  0  0  0  0  0  0
   -2.6390    1.9140   -0.9440 O   0  0  0  0  0  0  0  0  0  0  0  0
   -2.6930    3.4440    0.7350 N   0  0  0  0  0  0  0  0  0  0  0  0
   -3.3550    4.4360   -0.0970 C   0  0  0  0  0  0  0  0  0  0  0  0
   -4.6910    3.9470   -0.6010 C   0  0  0  0  0  0  0  0  0  0  0  0
   -5.5800    3.6430    0.5160 N   0  0  0  0  0  0  0  0  0  0  0  0
   -0.3770   -3.4550    1.4240 C   0  0  0  0  0  0  0  0  0  0  0  0
   -0.6030   -4.7630    0.9780 C   0  0  0  0  0  0  0  0  0  0  0  0
   -1.5460   -4.9830    0.0350 N   0  0  0  0  0  0  0  0  0  0  0  0
  1  2  1  0
  2  3  2  0
  2 31  1  0
  3  4  1  0
  4  5  1  0
  4 29  2  0
  5  6  1  0
  6  7  1  0
  6 21  1  0
  7  8  1  0
  8  9  2  0
  8 13  1  0
  9 10  1  0
 10 11  2  0
 11 12  1  0
 11 20  1  0
 12 13  2  0
 12 14  1  0
 14 15  1  0
 15 16  1  6
 15 17  1  0
 15 20  1  0
 17 18  1  0
 17 19  2  0
 21 22  1  6
 21 23  1  0
 23 24  2  0
 23 25  1  0
 25 26  1  0
 26 27  1  0
 27 28  1  0
 29 30  1  0
 30 31  2  0
M  CHG  2  28   1  31   1
M  END
