
     RDKit          3D

 31 33  0  0  0  0  0  0  0  0999 V2000
   -6.4210    2.1630   -1.0160 C   0  0  0  0  0  0  0  0  0  0  0  0
   -6.4780    0.9700   -0.5670 C   0  0  0  0  0  0  0  0  0  0  0  0
   -8.0700    0.1230   -0.6330 S   0  0  0  0  0  0  0  0  0  0  0  0
   -8.3640   -0.3600   -2.0270 O   0  0  0  0  0  0  0  0  0  0  0  0
   -5.3650    0.1870    0.0120 C   0  0  0  0  0  0  0  0  0  0  0  0
   -5.6660   -0.9990    0.3990 C   0  0  0  0  0  0  0  0  0  0  0  0
   -4.9340   -2.0660    1.0090 C   0  0  0  0  0  0  0  0  0  0  0  0
   -4.7890   -3.5340   -0.0020 Cl  0  0  0  0  0  0  0  0  0  0  0  0
   -4.0670    0.7770   -0.0500 C   0  0  0  0  0  0  0  0  0  0  0  0
   -3.9070    2.0220   -0.3700 O   0  0  0  0  0  0  0  0  0  0  0  0
   -2.8620    0.1000    0.2100 N   0  0  0  0  0  0  0  0  0  0  0  0
   -1.5510    0.7850    0.1400 C   0  0  1  0  0  0  0  0  0  0  0  0
   -0.9030    0.7990    1.4080 N   0  0  0  0  0  0  0  0  0  0  0  0
    0.4620    0.4710    1.5320 C   0  0  0  0  0  0  0  0  0  0  0  0
    1.1820    0.9680    2.4090 O   0  0  0  0  0  0  0  0  0  0  0  0
    1.0360   -0.5130    0.5630 C   0  0  1  0  0  0  0  0  0  0  0  0
    0.5810   -0.2340   -0.7570 N   0  0  0  0  0  0  0  0  0  0  0  0
    1.4270   -0.2610   -1.8820 C   0  0  0  0  0  0  0  0  0  0  0  0
    0.9410   -0.0890   -3.0640 O   0  0  0  0  0  0  0  0  0  0  0  0
    2.8170   -0.4780   -1.7090 N   0  0  0  0  0  0  0  0  0  0  0  0
    3.3050   -0.6690   -0.3800 C   0  0  0  0  0  0  0  0  0  0  0  0
    4.5660   -0.8550    0.1350 C   0  0  0  0  0  0  0  0  0  0  0  0
    6.0610   -0.9600   -0.7960 S   0  0  0  0  0  0  0  0  0  0  0  0
    6.8400    0.6520   -1.0470 C   0  0  0  0  0  0  0  0  0  0  0  0
    7.3330    1.2480    0.2520 C   0  0  0  0  0  0  0  0  0  0  0  0
    4.4640   -0.9440    1.5010 C   0  0  0  0  0  0  0  0  0  0  0  0
    5.5370   -1.1430    2.5130 C   0  0  0  0  0  0  0  0  0  0  0  0
    3.1610   -0.8130    1.8010 N   0  0  0  0  0  0  0  0  0  0  0  0
    2.4640   -0.6500    0.6770 N   0  0  0  0  0  0  0  0  0  0  0  0
   -0.8130    0.1070   -0.9390 C   0  0  0  0  0  0  0  0  0  0  0  0
   -1.3930   -0.1710   -2.0120 O   0  0  0  0  0  0  0  0  0  0  0  0
  1  2  2  0
  2  3  1  0
  2  5  1  0
  3  4  2  0
  5  6  2  3
  5  9  1  0
  6  7  1  0
  7  8  1  0
  9 10  2  0
  9 11  1  0
 12 11  1  1
 12 13  1  0
 12 30  1  0
 13 14  1  0
 14 15  2  0
 14 16  1  0
 16 17  1  0
 16 29  1  6
 17 18  1  0
 17 30  1  0
 18 19  2  0
 18 20  1  0
 20 21  1  0
 21 22  2  0
 21 29  1  0
 22 23  1  0
 22 26  1  0
 23 24  1  0
 24 25  1  0
 26 27  1  0
 26 28  2  0
 28 29  1  0
 30 31  2  0
M  END
