
     RDKit          3D

 31 33  0  0  0  0  0  0  0  0999 V2000
    8.1750    2.4410    1.1160 C   0  0  0  0  0  0  0  0  0  0  0  0
    7.4800    1.2880    0.8620 O   0  0  0  0  0  0  0  0  0  0  0  0
    7.8500    0.7270   -0.3440 C   0  0  0  0  0  0  0  0  0  0  0  0
    6.9920   -0.5760   -0.4770 C   0  0  0  0  0  0  0  0  0  0  0  0
    5.6850   -0.1170   -0.4370 N   0  0  0  0  0  0  0  0  0  0  0  0
    4.5010   -1.3750   -0.5100 C   0  0  0  0  0  0  0  0  0  0  0  0
    5.3150   -2.2760   -0.5590 O   0  0  0  0  0  0  0  0  0  0  0  0
    3.5650   -0.7020   -0.4870 N   0  0  0  0  0  0  0  0  0  0  0  0
    2.4900   -1.7190   -1.3990 C   0  0  0  0  0  0  0  0  0  0  0  0
    3.1820   -2.5550   -1.9600 O   0  0  0  0  0  0  0  0  0  0  0  0
    1.1330   -1.5150   -1.4240 C   0  0  0  0  0  0  0  0  0  0  0  0
    0.3450   -0.7200   -0.5310 N   0  0  0  0  0  0  0  0  0  0  0  0
   -0.5970   -1.6440    0.1450 C   0  0  2  0  0  0  0  0  0  0  0  0
   -1.3970   -0.9140    1.1370 C   0  0  1  0  0  0  0  0  0  0  0  0
   -0.4650   -0.3510    2.1630 N   0  0  0  0  0  0  0  0  0  0  0  0
   -2.2910    0.2050    0.7050 C   0  0  0  0  0  0  0  0  0  0  0  0
   -3.3140   -0.0320   -0.3310 C   0  0  0  0  0  0  0  0  0  0  0  0
   -4.3740    1.0330   -0.3500 C   0  0  0  0  0  0  0  0  0  0  0  0
   -5.6950    0.5100   -0.4470 C   0  0  0  0  0  0  0  0  0  0  0  0
   -6.7320    1.3380   -0.2430 C   0  0  0  0  0  0  0  0  0  0  0  0
   -6.5790    2.7070    0.0760 C   0  0  0  0  0  0  0  0  0  0  0  0
   -5.2820    3.1510    0.1500 C   0  0  0  0  0  0  0  0  0  0  0  0
   -4.1830    2.3350   -0.0660 C   0  0  0  0  0  0  0  0  0  0  0  0
   -5.3280    4.6070    0.5210 C   0  0  0  0  0  0  0  0  0  0  0  0
   -6.7430    4.8700    0.8050 C   0  0  0  0  0  0  0  0  0  0  0  0
   -7.3350    5.8960    1.2850 O   0  0  0  0  0  0  0  0  0  0  0  0
   -7.4720    3.6690    0.4280 N   0  0  0  0  0  0  0  0  0  0  0  0
    0.2730   -2.6450    0.9340 C   0  0  0  0  0  0  0  0  0  0  0  0
    0.1930   -3.9530    0.2200 C   0  0  0  0  0  0  0  0  0  0  0  0
   -0.9660   -3.9140   -0.6980 C   0  0  0  0  0  0  0  0  0  0  0  0
   -1.4250   -2.4620   -0.7640 C   0  0  0  0  0  0  0  0  0  0  0  0
  1  2  1  0
  2  3  1  0
  3  4  1  0
  4  5  1  0
  5  6  1  0
  6  7  2  0
  6  8  1  0
  8  9  1  0
  9 10  2  0
  9 11  1  0
 11 12  1  0
 13 12  1  6
 13 14  1  0
 13 28  1  0
 13 31  1  0
 14 15  1  1
 14 16  1  0
 16 17  1  0
 17 18  1  0
 18 19  2  0
 18 23  1  0
 19 20  1  0
 20 21  2  0
 21 22  1  0
 21 27  1  0
 22 23  2  0
 22 24  1  0
 24 25  1  0
 25 26  2  0
 25 27  1  0
 28 29  1  0
 29 30  1  0
 30 31  1  0
M  CHG  2  12   1  15   1
M  END
