
     RDKit          3D

 31 33  0  0  0  0  0  0  0  0999 V2000
   -6.5780    2.0540   -0.2420 N   0  0  0  0  0  0  0  0  0  0  0  0
   -5.9020    0.9090   -0.8080 C   0  0  2  0  0  0  0  0  0  0  0  0
   -6.6850    0.1950   -1.8460 C   0  0  0  0  0  0  0  0  0  0  0  0
   -8.0550   -0.2320   -1.4630 C   0  0  0  0  0  0  0  0  0  0  0  0
   -8.1260   -1.5010   -0.6770 C   0  0  1  0  0  0  0  0  0  0  0  0
   -7.9080   -2.6320   -1.4340 O   0  0  0  0  0  0  0  0  0  0  0  0
   -7.2140   -1.5180    0.5200 C   0  0  0  0  0  0  0  0  0  0  0  0
   -5.7650   -1.4200    0.1560 C   0  0  0  0  0  0  0  0  0  0  0  0
   -5.3510    0.0310    0.2940 C   0  0  1  0  0  0  0  0  0  0  0  0
   -3.8800    0.0550    0.3200 N   0  0  0  0  0  0  0  0  0  0  0  0
   -3.2380    0.4490    1.4940 C   0  0  0  0  0  0  0  0  0  0  0  0
   -3.9560    0.7760    2.5070 O   0  0  0  0  0  0  0  0  0  0  0  0
   -1.7960    0.5310    1.6940 C   0  0  0  0  0  0  0  0  0  0  0  0
   -1.0550    0.1560    0.5350 N   0  0  0  0  0  0  0  0  0  0  0  0
    0.3900    0.2120    0.6580 C   0  0  0  0  0  0  0  0  0  0  0  0
    0.9850    0.6070    1.8310 C   0  0  0  0  0  0  0  0  0  0  0  0
    2.3660    0.6620    1.9550 C   0  0  0  0  0  0  0  0  0  0  0  0
    3.1870    0.3220    0.9000 C   0  0  0  0  0  0  0  0  0  0  0  0
    4.5640    0.3890    1.0620 O   0  0  0  0  0  0  0  0  0  0  0  0
    5.3750    0.0330   -0.0400 C   0  0  0  0  0  0  0  0  0  0  0  0
    6.8300    0.1680    0.3220 C   0  0  0  0  0  0  0  0  0  0  0  0
    7.1240    0.5490    1.4630 O   0  0  0  0  0  0  0  0  0  0  0  0
    7.7730   -0.1490   -0.6660 N   0  0  0  0  0  0  0  0  0  0  0  0
    9.1580   -0.0720   -0.4850 C   0  0  0  0  0  0  0  0  0  0  0  0
    9.7790    0.4390    0.6190 C   0  0  0  0  0  0  0  0  0  0  0  0
   11.1670    0.4480    0.6760 C   0  0  0  0  0  0  0  0  0  0  0  0
   11.9410   -0.0190   -0.2980 N   0  0  0  0  0  0  0  0  0  0  0  0
   11.3700   -0.5230   -1.3870 C   0  0  0  0  0  0  0  0  0  0  0  0
   10.0060   -0.5540   -1.4880 C   0  0  0  0  0  0  0  0  0  0  0  0
    2.5870   -0.0740   -0.2760 C   0  0  0  0  0  0  0  0  0  0  0  0
    1.2050   -0.1300   -0.4000 C   0  0  0  0  0  0  0  0  0  0  0  0
  2  1  1  1
  2  3  1  0
  2  9  1  0
  3  4  1  0
  4  5  1  0
  5  6  1  6
  5  7  1  0
  7  8  1  0
  8  9  1  0
  9 10  1  6
 10 11  1  0
 11 12  2  0
 11 13  1  0
 13 14  1  0
 14 15  1  0
 15 16  2  0
 15 31  1  0
 16 17  1  0
 17 18  2  0
 18 19  1  0
 18 30  1  0
 19 20  1  0
 20 21  1  0
 21 22  2  0
 21 23  1  0
 23 24  1  0
 24 25  2  0
 24 29  1  0
 25 26  1  0
 26 27  2  0
 27 28  1  0
 28 29  2  0
 30 31  2  0
M  CHG  2   1   1  27   1
M  END
