
     RDKit          3D

 31 33  0  0  0  0  0  0  0  0999 V2000
    5.8100    2.4570   -3.0470 C   0  0  0  0  0  0  0  0  0  0  0  0
    5.8280    2.2270   -1.7420 C   0  0  0  0  0  0  0  0  0  0  0  0
    6.7560    2.9690   -0.9470 N   0  0  0  0  0  0  0  0  0  0  0  0
    4.9130    1.2170   -1.0920 C   0  0  0  0  0  0  0  0  0  0  0  0
    4.0220    1.8880   -0.0830 C   0  0  0  0  0  0  0  0  0  0  0  0
    3.0790    1.0390    0.6580 C   0  0  2  0  0  0  0  0  0  0  0  0
    3.8320    0.0180    1.3850 N   0  0  0  0  0  0  0  0  0  0  0  0
    1.8290    0.5760    0.0360 C   0  0  0  0  0  0  0  0  0  0  0  0
    1.8470   -0.2230   -1.1190 N   0  0  2  0  0  0  0  0  0  0  0  0
    1.4150    0.4160   -2.3380 C   0  0  0  0  0  0  0  0  0  0  0  0
    0.1790    1.2260   -2.2520 C   0  0  0  0  0  0  0  0  0  0  0  0
   -0.7290    0.6750   -1.2960 N   0  0  0  0  0  0  0  0  0  0  0  0
   -0.4900   -0.4890   -0.6790 C   0  0  0  0  0  0  0  0  0  0  0  0
   -1.3710   -1.0240    0.2590 C   0  0  0  0  0  0  0  0  0  0  0  0
   -1.1840   -2.2160    0.9180 O   0  0  0  0  0  0  0  0  0  0  0  0
   -1.6080   -3.4490    0.4240 C   0  0  0  0  0  0  0  0  0  0  0  0
   -0.9900   -3.8990   -0.8690 C   0  0  0  0  0  0  0  0  0  0  0  0
   -1.5870   -5.2010   -1.1920 N   0  0  0  0  0  0  0  0  0  0  0  0
   -2.5320   -0.2800    0.5390 C   0  0  0  0  0  0  0  0  0  0  0  0
   -3.4450   -0.7070    1.4720 C   0  0  0  0  0  0  0  0  0  0  0  0
   -3.2160   -1.9080    2.1380 O   0  0  0  0  0  0  0  0  0  0  0  0
   -4.6020    0.0220    1.7890 C   0  0  0  0  0  0  0  0  0  0  0  0
   -5.4630   -0.4980    2.7450 O   0  0  0  0  0  0  0  0  0  0  0  0
   -6.6440    0.2010    3.1000 C   0  0  0  0  0  0  0  0  0  0  0  0
   -7.4130   -0.5520    4.1510 C   0  0  0  0  0  0  0  0  0  0  0  0
   -4.7920    1.2000    1.1230 C   0  0  0  0  0  0  0  0  0  0  0  0
   -3.9090    1.6800    0.1810 C   0  0  0  0  0  0  0  0  0  0  0  0
   -2.7770    0.9330   -0.1060 C   0  0  0  0  0  0  0  0  0  0  0  0
   -1.8440    1.3630   -1.0140 C   0  0  0  0  0  0  0  0  0  0  0  0
   -2.0860    2.4710   -1.5930 O   0  0  0  0  0  0  0  0  0  0  0  0
    0.7650   -1.2570   -0.9400 C   0  0  0  0  0  0  0  0  0  0  0  0
  1  2  2  0
  2  3  1  0
  2  4  1  0
  4  5  1  0
  5  6  1  0
  6  7  1  6
  6  8  1  0
  9  8  1  1
  9 10  1  0
  9 31  1  0
 10 11  1  0
 11 12  1  0
 12 13  1  0
 12 29  1  0
 13 14  2  0
 13 31  1  0
 14 15  1  0
 14 19  1  0
 15 16  1  0
 16 17  1  0
 17 18  1  0
 19 20  2  0
 19 28  1  0
 20 21  1  0
 20 22  1  0
 22 23  1  0
 22 26  2  0
 23 24  1  0
 24 25  1  0
 26 27  1  0
 27 28  2  0
 28 29  1  0
 29 30  2  0
M  CHG  3   3   1   7   1   9   1
M  END
