
     RDKit          3D

 31 33  0  0  0  0  0  0  0  0999 V2000
    9.9760   -3.3350   -0.4230 N   0  0  0  0  0  0  0  0  0  0  0  0
    8.7630   -3.3250   -0.1230 C   0  0  0  0  0  0  0  0  0  0  0  0
    7.4030   -3.3220    0.2370 C   0  0  0  0  0  0  0  0  0  0  0  0
    6.6500   -2.2660   -0.2390 O   0  0  0  0  0  0  0  0  0  0  0  0
    5.2610   -2.4780    0.0240 C   0  0  0  0  0  0  0  0  0  0  0  0
    4.5780   -1.2200   -0.4470 C   0  0  2  0  0  0  0  0  0  0  0  0
    5.0270   -0.0340    0.3840 C   0  0  0  0  0  0  0  0  0  0  0  0
    4.4040   -0.2260    1.7570 C   0  0  1  0  0  0  0  0  0  0  0  0
    4.4140    1.0700    2.4120 N   0  0  0  0  0  0  0  0  0  0  0  0
    3.0180   -0.8320    1.7060 C   0  0  0  0  0  0  0  0  0  0  0  0
    2.3790   -0.5710    0.4380 N   0  0  0  0  0  0  0  0  0  0  0  0
    1.0180   -1.0440    0.4420 C   0  0  0  0  0  0  0  0  0  0  0  0
    0.2360   -0.5600   -0.7220 C   0  0  0  0  0  0  0  0  0  0  0  0
    0.0830    0.8970   -0.7530 C   0  0  0  0  0  0  0  0  0  0  0  0
   -0.6960    1.6190    0.2770 C   0  0  2  0  0  0  0  0  0  0  0  0
   -0.2520    1.4660    1.6510 N   0  0  0  0  0  0  0  0  0  0  0  0
   -2.1330    1.3680    0.2750 C   0  0  0  0  0  0  0  0  0  0  0  0
   -2.6690    0.8380    1.3090 O   0  0  0  0  0  0  0  0  0  0  0  0
   -2.9680    1.6630   -0.7980 N   0  0  0  0  0  0  0  0  0  0  0  0
   -4.3410    1.3400   -0.7730 C   0  0  0  0  0  0  0  0  0  0  0  0
   -4.6810    0.0780   -0.2090 C   0  0  0  0  0  0  0  0  0  0  0  0
   -6.0190   -0.2960   -0.1950 C   0  0  0  0  0  0  0  0  0  0  0  0
   -7.0040    0.4940   -0.6940 C   0  0  0  0  0  0  0  0  0  0  0  0
   -6.6610    1.7090   -1.2270 C   0  0  0  0  0  0  0  0  0  0  0  0
   -5.3440    2.1020   -1.2550 C   0  0  0  0  0  0  0  0  0  0  0  0
   -7.7570    2.5910   -1.7280 C   0  0  0  0  0  0  0  0  0  0  0  0
   -8.8750    1.7340   -2.2620 C   0  0  0  0  0  0  0  0  0  0  0  0
   -9.3480    0.8090   -1.2600 O   0  0  0  0  0  0  0  0  0  0  0  0
   -8.3810    0.0210   -0.7000 C   0  0  0  0  0  0  0  0  0  0  0  0
   -8.6190   -1.1220   -0.1730 O   0  0  0  0  0  0  0  0  0  0  0  0
    3.1310   -1.2410   -0.6360 C   0  0  0  0  0  0  0  0  0  0  0  0
  1  2  3  0
  2  3  1  0
  3  4  1  0
  4  5  1  0
  6  5  1  1
  6  7  1  0
  6 31  1  0
  7  8  1  0
  8  9  1  6
  8 10  1  0
 10 11  1  0
 11 12  1  0
 11 31  1  0
 12 13  1  0
 13 14  1  0
 14 15  1  0
 15 16  1  1
 15 17  1  0
 17 18  2  0
 17 19  1  0
 19 20  1  0
 20 21  2  0
 20 25  1  0
 21 22  1  0
 22 23  2  0
 23 24  1  0
 23 29  1  0
 24 25  2  0
 24 26  1  0
 26 27  1  0
 27 28  1  0
 28 29  1  0
 29 30  2  0
M  CHG  2   9   1  16   1
M  END
