
     RDKit          3D

 31 33  0  0  0  0  0  0  0  0999 V2000
   -5.3210    2.9460   -0.4720 C   0  0  0  0  0  0  0  0  0  0  0  0
   -4.4180    2.1240    0.3000 N   0  0  0  0  0  0  0  0  0  0  0  0
   -3.3880    1.5160   -0.4900 C   0  0  2  0  0  0  0  0  0  0  0  0
   -3.8740    0.9450   -1.7820 C   0  0  0  0  0  0  0  0  0  0  0  0
   -5.1010    0.0870   -1.5640 C   0  0  0  0  0  0  0  0  0  0  0  0
   -4.7130   -1.3700   -1.3880 C   0  0  2  0  0  0  0  0  0  0  0  0
   -5.5130   -2.0030   -0.3550 N   0  0  0  0  0  0  0  0  0  0  0  0
   -3.2600   -1.5150   -1.1390 C   0  0  0  0  0  0  0  0  0  0  0  0
   -2.5360   -2.5400   -1.7030 C   0  0  0  0  0  0  0  0  0  0  0  0
   -1.2550   -2.3860   -1.2810 C   0  0  0  0  0  0  0  0  0  0  0  0
   -1.1980   -1.2750   -0.4660 C   0  0  0  0  0  0  0  0  0  0  0  0
    0.0720   -0.7890    0.1270 C   0  0  0  0  0  0  0  0  0  0  0  0
    0.3120   -0.8220    1.4240 C   0  0  0  0  0  0  0  0  0  0  0  0
    1.4840   -0.3700    2.0470 N   0  0  0  0  0  0  0  0  0  0  0  0
    2.6280    0.2070    1.4590 C   0  0  0  0  0  0  0  0  0  0  0  0
    2.6610    0.3590    0.2200 O   0  0  0  0  0  0  0  0  0  0  0  0
    3.7880    0.6300    2.3220 C   0  0  0  0  0  0  0  0  0  0  0  0
    4.8140    1.1060    1.5220 O   0  0  0  0  0  0  0  0  0  0  0  0
    5.4720    0.3290    0.5980 C   0  0  0  0  0  0  0  0  0  0  0  0
    5.1790   -0.9990    0.4190 C   0  0  0  0  0  0  0  0  0  0  0  0
    5.8630   -1.7690   -0.5320 C   0  0  0  0  0  0  0  0  0  0  0  0
    6.8480   -1.2120   -1.3110 C   0  0  0  0  0  0  0  0  0  0  0  0
    7.1290    0.1190   -1.1180 C   0  0  0  0  0  0  0  0  0  0  0  0
    6.4690    0.8790   -0.1940 C   0  0  0  0  0  0  0  0  0  0  0  0
    6.7530    2.2110   -0.0030 O   0  0  0  0  0  0  0  0  0  0  0  0
    7.7470    2.8660   -0.7570 C   0  0  0  0  0  0  0  0  0  0  0  0
   -0.6750   -1.4680    2.3310 C   0  0  0  0  0  0  0  0  0  0  0  0
   -0.4430   -1.4870    3.7310 N   0  0  0  0  0  0  0  0  0  0  0  0
   -1.7220   -2.0090    1.9270 O   0  0  0  0  0  0  0  0  0  0  0  0
   -2.4210   -0.7480   -0.3840 N   0  0  0  0  0  0  0  0  0  0  0  0
   -2.7200    0.4500    0.3560 C   0  0  0  0  0  0  0  0  0  0  0  0
  1  2  1  0
  3  2  1  1
  3  4  1  0
  3 31  1  0
  4  5  1  0
  5  6  1  0
  6  7  1  1
  6  8  1  0
  8  9  2  0
  8 30  1  0
  9 10  1  0
 10 11  2  0
 11 12  1  0
 11 30  1  0
 12 13  2  3
 13 14  1  0
 13 27  1  0
 14 15  1  0
 15 16  2  0
 15 17  1  0
 17 18  1  0
 18 19  1  0
 19 20  2  0
 19 24  1  0
 20 21  1  0
 21 22  2  0
 22 23  1  0
 23 24  2  0
 24 25  1  0
 25 26  1  0
 27 28  1  0
 27 29  2  0
 30 31  1  0
M  CHG  2   2   1   7   1
M  END
