
     RDKit          3D

 31 34  0  0  0  0  0  0  0  0999 V2000
   -6.8060    2.1560    2.7990 C   0  0  0  0  0  0  0  0  0  0  0  0
   -6.7000    0.9530    2.0800 O   0  0  0  0  0  0  0  0  0  0  0  0
   -5.5980    0.5740    1.3290 C   0  0  0  0  0  0  0  0  0  0  0  0
   -5.7010   -0.6630    0.6930 C   0  0  0  0  0  0  0  0  0  0  0  0
   -4.6320   -1.0730   -0.0590 C   0  0  0  0  0  0  0  0  0  0  0  0
   -3.4890   -0.3180   -0.2010 C   0  0  0  0  0  0  0  0  0  0  0  0
   -3.4110    0.9050    0.4390 C   0  0  0  0  0  0  0  0  0  0  0  0
   -4.4700    1.3430    1.2010 C   0  0  0  0  0  0  0  0  0  0  0  0
   -2.1700    1.4020    0.1060 C   0  0  0  0  0  0  0  0  0  0  0  0
   -1.4860    0.5140   -0.7220 C   0  0  0  0  0  0  0  0  0  0  0  0
   -0.1400    0.7170   -1.2670 C   0  0  0  0  0  0  0  0  0  0  0  0
    0.4080   -0.1300   -1.9960 O   0  0  0  0  0  0  0  0  0  0  0  0
    0.6030    1.9060   -0.9810 N   0  0  0  0  0  0  0  0  0  0  0  0
    2.1720    2.2160   -1.5750 S   0  0  1  0  0  0  0  0  0  0  0  0
    2.1990    2.3160   -3.0860 O   0  0  0  0  0  0  0  0  0  0  0  0
    2.5960    3.5710   -1.0700 O   0  0  0  0  0  0  0  0  0  0  0  0
    3.3180    0.9870   -1.0760 C   0  0  0  0  0  0  0  0  0  0  0  0
    3.5720   -0.1430   -1.8390 C   0  0  0  0  0  0  0  0  0  0  0  0
    4.4810   -1.1020   -1.4250 C   0  0  0  0  0  0  0  0  0  0  0  0
    5.1710   -0.9770   -0.2390 C   0  0  0  0  0  0  0  0  0  0  0  0
    6.0810   -1.9480    0.1660 C   0  0  0  0  0  0  0  0  0  0  0  0
    6.7630   -1.8080    1.3560 C   0  0  0  0  0  0  0  0  0  0  0  0
    6.5270   -0.6910    2.1330 C   0  0  0  0  0  0  0  0  0  0  0  0
    5.6140    0.2700    1.7130 C   0  0  0  0  0  0  0  0  0  0  0  0
    4.9240    0.1440    0.5250 C   0  0  0  0  0  0  0  0  0  0  0  0
    4.0160    1.0990    0.1090 C   0  0  0  0  0  0  0  0  0  0  0  0
   -2.3210   -0.5190   -0.8850 N   0  0  0  0  0  0  0  0  0  0  0  0
   -2.0590   -1.7060   -1.6780 C   0  0  0  0  0  0  0  0  0  0  0  0
   -1.4090   -2.7690   -0.8930 C   0  0  0  0  0  0  0  0  0  0  0  0
   -1.1340   -3.8430   -1.4850 O   0  0  0  0  0  0  0  0  0  0  0  0
   -1.0780   -2.6780    0.4460 O   0  0  0  0  0  0  0  0  0  0  0  0
  1  2  1  0
  2  3  1  0
  3  4  2  0
  3  8  1  0
  4  5  1  0
  5  6  2  0
  6  7  1  0
  6 27  1  0
  7  8  2  0
  7  9  1  0
  9 10  2  0
 10 11  1  0
 10 27  1  0
 11 12  2  0
 11 13  1  0
 14 13  1  1
 14 15  2  0
 14 16  2  0
 14 17  1  0
 17 18  2  0
 17 26  1  0
 18 19  1  0
 19 20  2  0
 20 21  1  0
 20 25  1  0
 21 22  2  0
 22 23  1  0
 23 24  2  0
 24 25  1  0
 25 26  2  0
 27 28  1  0
 28 29  1  0
 29 30  2  0
 29 31  1  0
M  END
