
     RDKit          3D

 31 33  0  0  0  0  0  0  0  0999 V2000
   -1.6650    4.6950   -1.6630 N   0  0  0  0  0  0  0  0  0  0  0  0
   -2.3380    4.5060   -0.4310 C   0  0  0  0  0  0  0  0  0  0  0  0
   -2.9590    5.4770    0.0600 O   0  0  0  0  0  0  0  0  0  0  0  0
   -2.2870    3.1930    0.2210 C   0  0  0  0  0  0  0  0  0  0  0  0
   -1.5160    2.2240   -0.5230 N   0  0  0  0  0  0  0  0  0  0  0  0
   -1.4810    0.9930    0.2830 C   0  0  2  0  0  0  0  0  0  0  0  0
   -0.2520    0.1820    0.0140 C   0  0  0  0  0  0  0  0  0  0  0  0
    0.2420   -0.4800    1.2580 C   0  0  2  0  0  0  0  0  0  0  0  0
    1.5370   -1.1940    0.9480 C   0  0  0  0  0  0  0  0  0  0  0  0
    1.5990   -2.4270    1.1150 O   0  0  0  0  0  0  0  0  0  0  0  0
    2.6660   -0.4990    0.4790 N   0  0  0  0  0  0  0  0  0  0  0  0
    3.9280   -0.9990    0.1470 C   0  0  0  0  0  0  0  0  0  0  0  0
    4.2710   -2.3060    0.2370 C   0  0  0  0  0  0  0  0  0  0  0  0
    5.5400   -2.8040   -0.0960 C   0  0  0  0  0  0  0  0  0  0  0  0
    6.4830   -1.9120   -0.5380 C   0  0  0  0  0  0  0  0  0  0  0  0
    6.1730   -0.5740   -0.6440 C   0  0  0  0  0  0  0  0  0  0  0  0
    4.9050   -0.1170   -0.3040 C   0  0  0  0  0  0  0  0  0  0  0  0
    4.5690    1.2150   -0.4010 O   0  0  0  0  0  0  0  0  0  0  0  0
    5.3730    2.2680   -0.8110 C   0  0  0  0  0  0  0  0  0  0  0  0
    6.5230    2.4310    0.0960 C   0  0  0  0  0  0  0  0  0  0  0  0
    6.6720    1.6170    1.2580 N   0  0  0  0  0  0  0  0  0  0  0  0
    7.3660    3.3190   -0.2000 O   0  0  0  0  0  0  0  0  0  0  0  0
   -0.6830   -1.4570    1.8770 C   0  0  0  0  0  0  0  0  0  0  0  0
   -2.1330   -1.0780    1.8250 C   0  0  0  0  0  0  0  0  0  0  0  0
   -2.6610   -1.0790    0.4730 N   0  0  1  0  0  0  0  0  0  0  0  0
   -3.8460   -1.8660    0.3560 C   0  0  2  0  0  0  0  0  0  0  0  0
   -4.1450   -2.3330   -1.0330 C   0  0  0  0  0  0  0  0  0  0  0  0
   -5.5220   -2.9420   -0.8610 C   0  0  0  0  0  0  0  0  0  0  0  0
   -6.1750   -2.1600    0.2310 C   0  0  0  0  0  0  0  0  0  0  0  0
   -5.1030   -1.2170    0.7950 C   0  0  0  0  0  0  0  0  0  0  0  0
   -2.7650    0.2520   -0.0470 C   0  0  0  0  0  0  0  0  0  0  0  0
  1  2  1  0
  2  3  2  0
  2  4  1  0
  4  5  1  0
  6  5  1  6
  6  7  1  0
  6 31  1  0
  7  8  1  0
  8  9  1  6
  8 23  1  0
  9 10  2  0
  9 11  1  0
 11 12  1  0
 12 13  2  0
 12 17  1  0
 13 14  1  0
 14 15  2  0
 15 16  1  0
 16 17  2  0
 17 18  1  0
 18 19  1  0
 19 20  1  0
 20 21  1  0
 20 22  2  0
 23 24  1  0
 25 24  1  1
 25 26  1  0
 25 31  1  0
 26 27  1  6
 26 30  1  0
 27 28  1  0
 28 29  1  0
 29 30  1  0
M  CHG  2   5   1  25   1
M  END
