
     RDKit          3D

 31 33  0  0  0  0  0  0  0  0999 V2000
    5.1960   -3.2020    1.3370 C   0  0  0  0  0  0  0  0  0  0  0  0
    5.2110   -2.3960    0.0770 C   0  0  0  0  0  0  0  0  0  0  0  0
    3.8160   -2.1430   -0.3780 C   0  0  0  0  0  0  0  0  0  0  0  0
    3.3290   -0.9430   -0.5100 C   0  0  0  0  0  0  0  0  0  0  0  0
    4.0710    0.6640   -0.2250 S   0  0  0  0  0  0  0  0  0  0  0  0
    2.4200    1.5160   -0.0170 C   0  0  1  0  0  0  0  0  0  0  0  0
    2.5190    3.2370   -0.4590 S   0  0  0  0  0  0  0  0  0  0  0  0
    3.6110    4.0630    0.7610 C   0  0  0  0  0  0  0  0  0  0  0  0
    1.7420    0.6980   -1.0780 C   0  0  0  0  0  0  0  0  0  0  0  0
    1.0580    1.2180   -1.9680 O   0  0  0  0  0  0  0  0  0  0  0  0
    1.9990   -0.6990   -0.9140 N   0  0  0  0  0  0  0  0  0  0  0  0
    1.1290   -1.7920   -1.1890 C   0  0  0  0  0  0  0  0  0  0  0  0
   -0.1310   -1.7190   -1.4930 C   0  0  0  0  0  0  0  0  0  0  0  0
   -1.0030   -0.6140   -1.6380 N   0  0  0  0  0  0  0  0  0  0  0  0
   -1.5140   -0.2180   -2.8370 C   0  0  0  0  0  0  0  0  0  0  0  0
   -1.1250   -0.8720   -3.8450 O   0  0  0  0  0  0  0  0  0  0  0  0
   -2.3750    0.8040   -2.9170 N   0  0  0  0  0  0  0  0  0  0  0  0
   -2.7720    1.4840   -1.8260 C   0  0  0  0  0  0  0  0  0  0  0  0
   -3.5870    2.4410   -1.9610 O   0  0  0  0  0  0  0  0  0  0  0  0
   -2.2840    1.1130   -0.6380 N   0  0  0  0  0  0  0  0  0  0  0  0
   -2.6640    1.7900    0.5560 C   0  0  0  0  0  0  0  0  0  0  0  0
   -3.7930    1.2880    1.2250 N   0  0  0  0  0  0  0  0  0  0  0  0
   -4.2080    1.9180    2.4040 C   0  0  0  0  0  0  0  0  0  0  0  0
   -4.4340    0.1490    0.7390 C   0  0  0  0  0  0  0  0  0  0  0  0
   -5.6220   -0.2480    1.5800 C   0  0  0  0  0  0  0  0  0  0  0  0
   -6.8440    1.0350    1.6460 Cl  0  0  0  0  0  0  0  0  0  0  0  0
   -1.4270    0.0930   -0.5620 C   0  0  0  0  0  0  0  0  0  0  0  0
   -0.9580   -0.2630    0.5750 O   0  0  0  0  0  0  0  0  0  0  0  0
    1.6580   -3.1280   -1.0470 N   0  0  0  0  0  0  0  0  0  0  0  0
    2.9930   -3.3300   -0.6440 C   0  0  0  0  0  0  0  0  0  0  0  0
    3.4660   -4.4960   -0.5170 O   0  0  0  0  0  0  0  0  0  0  0  0
  1  2  1  0
  2  3  1  0
  3  4  2  0
  3 30  1  0
  4  5  1  0
  4 11  1  0
  5  6  1  0
  6  7  1  6
  6  9  1  0
  7  8  1  0
  9 10  2  0
  9 11  1  0
 11 12  1  0
 12 13  2  3
 12 29  1  0
 13 14  1  0
 14 15  1  0
 14 27  1  0
 15 16  2  0
 15 17  1  0
 17 18  1  0
 18 19  2  0
 18 20  1  0
 20 21  1  0
 20 27  1  0
 21 22  1  0
 22 23  1  0
 22 24  1  0
 24 25  1  0
 25 26  1  0
 27 28  2  0
 29 30  1  0
 30 31  2  0
M  END
