
     RDKit          3D

  9  8  0  0  0  0  0  0  0  0999 V2000
   -2.2640    0.5850    1.0980 O   0  0  0  0  0  0  0  0  0  0  0  0
   -2.7230    0.0350    0.0650 C   0  0  0  0  0  0  0  0  0  0  0  0
   -1.7500   -0.1870   -0.8620 O   0  0  0  0  0  0  0  0  0  0  0  0
   -0.4830    0.0680   -0.8460 O   0  0  0  0  0  0  0  0  0  0  0  0
    0.4690   -0.2120    0.1030 C   0  0  0  0  0  0  0  0  0  0  0  0
   -0.0140   -0.8060    1.0840 O   0  0  0  0  0  0  0  0  0  0  0  0
    1.8720    0.1240    0.0150 C   0  0  0  0  0  0  0  0  0  0  0  0
    2.3220    0.7230   -0.9900 O   0  0  0  0  0  0  0  0  0  0  0  0
    2.7030   -0.2290    1.0590 O   0  0  0  0  0  0  0  0  0  0  0  0
  1  2  2  0
  2  3  1  0
  3  4  1  0
  4  5  1  0
  5  6  2  0
  5  7  1  0
  7  8  2  0
  7  9  1  0
M  END
