
     RDKit          3D

  9  8  0  0  0  0  0  0  0  0999 V2000
    1.5590    0.7660   -0.9660 O   0  0  0  0  0  0  0  0  0  0  0  0
    2.1840    0.0020   -0.1670 C   0  0  0  0  0  0  0  0  0  0  0  0
    3.5260    0.2430    0.0850 O   0  0  0  0  0  0  0  0  0  0  0  0
    1.5090   -1.0560    0.4330 O   0  0  0  0  0  0  0  0  0  0  0  0
    0.1320   -1.2260    0.1140 C   0  0  0  0  0  0  0  0  0  0  0  0
   -0.5240   -0.0700    0.4970 O   0  0  0  0  0  0  0  0  0  0  0  0
   -1.8860   -0.1190    0.2330 C   0  0  0  0  0  0  0  0  0  0  0  0
   -2.4840    1.0520    0.6340 O   0  0  0  0  0  0  0  0  0  0  0  0
   -1.9810    2.0760    0.0050 O   0  0  0  0  0  0  0  0  0  0  0  0
  1  2  2  0
  2  3  1  0
  2  4  1  0
  4  5  1  0
  5  6  1  0
  6  7  1  0
  7  8  1  0
  8  9  1  0
M  END
