
     RDKit          3D

  9  9  0  0  0  0  0  0  0  0999 V2000
   -2.3190   -1.4810   -0.0500 O   0  0  0  0  0  0  0  0  0  0  0  0
   -1.2370   -1.1370    0.6090 O   0  0  0  0  0  0  0  0  0  0  0  0
   -0.7400    0.0880    0.1780 C   0  0  1  0  0  0  0  0  0  0  0  0
   -0.7390    1.0170    1.2320 O   0  0  0  0  0  0  0  0  0  0  0  0
    0.6570   -0.0380   -0.3210 C   0  0  0  0  0  0  0  0  0  0  0  0
    1.7420    0.5840    0.1500 C   0  0  0  0  0  0  0  0  0  0  0  0
    2.8240    0.1650   -0.6200 O   0  0  0  0  0  0  0  0  0  0  0  0
    2.4360   -0.9000   -1.3680 O   0  0  0  0  0  0  0  0  0  0  0  0
    1.0850   -0.8270   -1.3660 O   0  0  0  0  0  0  0  0  0  0  0  0
  1  2  1  0
  2  3  1  0
  3  4  1  1
  3  5  1  0
  5  6  2  0
  5  9  1  0
  6  7  1  0
  7  8  1  0
  8  9  1  0
M  END
