
     RDKit          3D

  9  8  0  0  0  0  0  0  0  0999 V2000
   -2.8030    1.6590   -0.8700 O   0  0  0  0  0  0  0  0  0  0  0  0
   -2.9910    0.6020   -0.2950 C   0  0  0  0  0  0  0  0  0  0  0  0
   -1.8610   -0.2630    0.1410 C   0  0  0  0  0  0  0  0  0  0  0  0
   -0.6380    0.3340   -0.2130 O   0  0  0  0  0  0  0  0  0  0  0  0
    0.3630   -0.4290    0.1710 O   0  0  0  0  0  0  0  0  0  0  0  0
    1.4850    0.1930   -0.2210 O   0  0  0  0  0  0  0  0  0  0  0  0
    2.7440   -0.2360    0.1480 C   0  0  0  0  0  0  0  0  0  0  0  0
    2.8210   -1.2530    0.8810 O   0  0  0  0  0  0  0  0  0  0  0  0
    3.9180    0.4020   -0.2530 O   0  0  0  0  0  0  0  0  0  0  0  0
  1  2  2  0
  2  3  1  0
  3  4  1  0
  4  5  1  0
  5  6  1  0
  6  7  1  0
  7  8  2  0
  7  9  1  0
M  END
