
     RDKit          3D

  9  8  0  0  0  0  0  0  0  0999 V2000
   -2.9900    0.4340    0.0290 C   0  0  0  0  0  0  0  0  0  0  0  0
   -2.1430   -0.6810   -0.1050 O   0  0  0  0  0  0  0  0  0  0  0  0
   -0.9780   -0.4400    0.5270 O   0  0  0  0  0  0  0  0  0  0  0  0
    0.2380   -0.4560   -0.1450 C   0  0  0  0  0  0  0  0  0  0  0  0
    0.2180   -0.7040   -1.3690 O   0  0  0  0  0  0  0  0  0  0  0  0
    1.4450   -0.2060    0.5150 O   0  0  0  0  0  0  0  0  0  0  0  0
    2.6600   -0.2220   -0.1560 C   0  0  0  0  0  0  0  0  0  0  0  0
    2.6480   -0.4690   -1.3810 O   0  0  0  0  0  0  0  0  0  0  0  0
    3.8750    0.0280    0.4970 O   0  0  0  0  0  0  0  0  0  0  0  0
  1  2  1  0
  2  3  1  0
  3  4  1  0
  4  5  2  0
  4  6  1  0
  6  7  1  0
  7  8  2  0
  7  9  1  0
M  END
