
     RDKit          3D

 23 26  0  0  0  0  0  0  0  0999 V2000
   -4.0650    2.7640    0.2700 N   0  0  0  0  0  0  0  0  0  0  0  0
   -3.9270    1.3750    0.0610 C   0  0  0  0  0  0  0  0  0  0  0  0
   -2.6990    0.8380    0.1170 N   0  0  0  0  0  0  0  0  0  0  0  0
   -2.4440   -0.4810   -0.0670 C   0  0  0  0  0  0  0  0  0  0  0  0
   -3.5420   -1.2880   -0.3270 C   0  0  0  0  0  0  0  0  0  0  0  0
   -3.0470   -2.5270   -0.4700 N   0  0  0  0  0  0  0  0  0  0  0  0
   -1.7200   -2.4980   -0.3100 C   0  0  0  0  0  0  0  0  0  0  0  0
   -1.3260   -1.2290   -0.0580 N   0  0  0  0  0  0  0  0  0  0  0  0
   -0.0260   -0.7100    0.1780 C   0  0  2  0  0  0  0  0  0  0  0  0
    0.3910    0.1950   -0.8200 O   0  0  0  0  0  0  0  0  0  0  0  0
    1.6580    0.5040   -0.2640 C   0  0  2  0  0  0  0  0  0  0  0  0
    2.4290    1.4400   -1.1070 C   0  0  0  0  0  0  0  0  0  0  0  0
    3.6920    1.6420   -0.6860 O   0  0  0  0  0  0  0  0  0  0  0  0
    4.1630    0.4920    0.3760 P   0  0  0  0  0  0  0  0  0  0  0  0
    5.3920    0.8210    1.4430 O   0  0  0  0  0  0  0  0  0  0  0  0
    5.1120   -0.1700   -0.6120 O   0  0  0  0  0  0  0  0  0  0  0  0
    3.3090   -0.9170    0.5710 O   0  0  0  0  0  0  0  0  0  0  0  0
    2.2670   -0.8900   -0.3010 C   0  0  1  0  0  0  0  0  0  0  0  0
    1.0730   -1.7090    0.1940 C   0  0  1  0  0  0  0  0  0  0  0  0
    1.2870   -2.1760    1.4830 O   0  0  0  0  0  0  0  0  0  0  0  0
   -4.8130   -0.7620   -0.3900 C   0  0  0  0  0  0  0  0  0  0  0  0
   -5.8290   -1.4580   -0.6220 O   0  0  0  0  0  0  0  0  0  0  0  0
   -4.9820    0.5570   -0.1950 N   0  0  0  0  0  0  0  0  0  0  0  0
  1  2  1  0
  2  3  1  0
  2 23  2  0
  3  4  1  0
  4  5  2  0
  4  8  1  0
  5  6  1  0
  5 21  1  0
  6  7  2  0
  7  8  1  0
  9  8  1  6
  9 10  1  0
  9 19  1  0
 10 11  1  0
 11 12  1  6
 11 18  1  0
 12 13  1  0
 13 14  1  0
 14 15  1  0
 14 16  1  0
 14 17  1  0
 18 17  1  1
 18 19  1  0
 19 20  1  1
 21 22  2  0
 21 23  1  0
M  CHG  1  23   1
M  END
