
     RDKit          3D

  9  8  0  0  0  0  0  0  0  0999 V2000
    2.9140   -0.8240    0.9430 O   0  0  0  0  0  0  0  0  0  0  0  0
    2.5750    0.1350    0.1890 C   0  0  0  0  0  0  0  0  0  0  0  0
    3.5650    0.9090   -0.3390 O   0  0  0  0  0  0  0  0  0  0  0  0
    1.1620    0.2500    0.0070 O   0  0  0  0  0  0  0  0  0  0  0  0
    0.3640   -0.4890    0.5870 O   0  0  0  0  0  0  0  0  0  0  0  0
   -0.5360   -1.2200   -0.1070 C   0  0  0  0  0  0  0  0  0  0  0  0
   -1.5830   -0.1880   -0.6260 C   0  0  0  0  0  0  0  0  0  0  0  0
   -2.0690    0.4270    0.5050 O   0  0  0  0  0  0  0  0  0  0  0  0
   -2.9320    1.4000    0.1670 O   0  0  0  0  0  0  0  0  0  0  0  0
  1  2  2  0
  2  3  1  0
  2  4  1  0
  4  5  1  0
  5  6  1  0
  6  7  1  0
  7  8  1  0
  8  9  1  0
M  END
