
     RDKit          3D

  9  8  0  0  0  0  0  0  0  0999 V2000
   -3.6290    0.2910   -0.6600 O   0  0  0  0  0  0  0  0  0  0  0  0
   -2.3550    0.0190   -0.7390 O   0  0  0  0  0  0  0  0  0  0  0  0
   -1.9680   -1.0490    0.0590 C   0  0  0  0  0  0  0  0  0  0  0  0
   -0.5890   -1.2470   -0.1060 O   0  0  0  0  0  0  0  0  0  0  0  0
    0.3890   -0.3360    0.1650 C   0  0  0  0  0  0  0  0  0  0  0  0
    1.3110   -0.0780   -0.7450 C   0  0  0  0  0  0  0  0  0  0  0  0
    2.3330    0.8570   -0.4960 O   0  0  0  0  0  0  0  0  0  0  0  0
    2.8310    0.8570    0.7460 O   0  0  0  0  0  0  0  0  0  0  0  0
    3.9850    1.5280    0.7050 O   0  0  0  0  0  0  0  0  0  0  0  0
  1  2  1  0
  2  3  1  0
  3  4  1  0
  4  5  1  0
  5  6  2  3
  6  7  1  0
  7  8  1  0
  8  9  1  0
M  END
