
     RDKit          3D

  9  8  0  0  0  0  0  0  0  0999 V2000
    2.6240    0.7170    1.7600 O   0  0  0  0  0  0  0  0  0  0  0  0
    2.7130    0.2570    0.5990 C   0  0  0  0  0  0  0  0  0  0  0  0
    1.5550   -0.0860   -0.2050 C   0  0  0  0  0  0  0  0  0  0  0  0
    1.6900   -0.5500   -1.3780 O   0  0  0  0  0  0  0  0  0  0  0  0
    0.2550    0.0720    0.2510 O   0  0  0  0  0  0  0  0  0  0  0  0
   -0.7960   -0.2710   -0.5600 O   0  0  0  0  0  0  0  0  0  0  0  0
   -2.1130   -0.1290   -0.1500 C   0  0  0  0  0  0  0  0  0  0  0  0
   -2.3320    0.3270    0.9960 O   0  0  0  0  0  0  0  0  0  0  0  0
   -3.2030   -0.4650   -0.9420 O   0  0  0  0  0  0  0  0  0  0  0  0
  1  2  2  0
  2  3  1  0
  3  4  2  0
  3  5  1  0
  5  6  1  0
  6  7  1  0
  7  8  2  0
  7  9  1  0
M  END
