
     RDKit          3D

 49 54  0  0  0  0  0  0  0  0999 V2000
   -2.3370    6.0820   -2.5740 C   0  0  0  0  0  0  0  0  0  0  0  0
   -2.4590    6.0760   -1.2010 O   0  0  0  0  0  0  0  0  0  0  0  0
   -2.3810    5.1290   -0.2550 C   0  0  0  0  0  0  0  0  0  0  0  0
   -2.5650    5.5190    1.0640 C   0  0  0  0  0  0  0  0  0  0  0  0
   -2.5040    4.6070    2.0740 C   0  0  0  0  0  0  0  0  0  0  0  0
   -2.2590    3.2860    1.8060 C   0  0  0  0  0  0  0  0  0  0  0  0
   -2.0710    2.8670    0.4830 C   0  0  0  0  0  0  0  0  0  0  0  0
   -1.8430    1.4560    0.1920 C   0  0  0  0  0  0  0  0  0  0  0  0
   -2.7810    0.6340   -0.1620 C   0  0  0  0  0  0  0  0  0  0  0  0
   -4.1430    1.2940   -0.2690 C   0  0  0  0  0  0  0  0  0  0  0  0
   -4.4970    2.0980   -1.2920 C   0  0  0  0  0  0  0  0  0  0  0  0
   -5.7760    2.6710   -1.2060 C   0  0  0  0  0  0  0  0  0  0  0  0
   -6.6000    2.4170   -0.1440 C   0  0  0  0  0  0  0  0  0  0  0  0
   -6.2140    1.5810    0.9020 C   0  0  0  0  0  0  0  0  0  0  0  0
   -4.9560    1.0230    0.8120 C   0  0  0  0  0  0  0  0  0  0  0  0
   -2.8790   -0.7480   -0.2600 N   0  0  0  0  0  0  0  0  0  0  0  0
   -3.9260   -1.3890   -1.0320 C   0  0  0  0  0  0  0  0  0  0  0  0
   -4.6720   -0.5840   -1.7070 O   0  0  0  0  0  0  0  0  0  0  0  0
   -4.1450   -2.8040   -1.0660 C   0  0  0  0  0  0  0  0  0  0  0  0
   -3.3800   -3.6230   -0.3830 C   0  0  0  0  0  0  0  0  0  0  0  0
   -3.6410   -5.1170   -0.4390 C   0  0  0  0  0  0  0  0  0  0  0  0
   -2.2710   -3.1530    0.4330 C   0  0  1  0  0  0  0  0  0  0  0  0
   -2.6590   -3.5000    1.8950 C   0  0  0  0  0  0  0  0  0  0  0  0
   -0.9730   -3.8540    0.1720 C   0  0  0  0  0  0  0  0  0  0  0  0
   -2.0900   -1.6580    0.4750 C   0  0  0  0  0  0  0  0  0  0  0  0
   -1.1760   -1.2890    1.2320 O   0  0  0  0  0  0  0  0  0  0  0  0
   -0.4260    1.0670    0.1820 C   0  0  0  0  0  0  0  0  0  0  0  0
    0.0740    0.3550   -0.9230 C   0  0  0  0  0  0  0  0  0  0  0  0
    1.3840   -0.0500   -0.9350 C   0  0  0  0  0  0  0  0  0  0  0  0
    2.2440    0.2120    0.0970 C   0  0  0  0  0  0  0  0  0  0  0  0
    3.6100   -0.2830    0.0640 N   0  0  0  0  0  0  0  0  0  0  0  0
    4.6580    0.5380    0.4400 C   0  0  0  0  0  0  0  0  0  0  0  0
    4.3500    1.7790    0.7850 O   0  0  0  0  0  0  0  0  0  0  0  0
    6.0790    0.2850    0.5270 C   0  0  0  0  0  0  0  0  0  0  0  0
    6.9860    1.3190    0.7740 C   0  0  0  0  0  0  0  0  0  0  0  0
    8.3390    1.1060    0.8930 C   0  0  0  0  0  0  0  0  0  0  0  0
    8.8390   -0.1640    0.7660 C   0  0  0  0  0  0  0  0  0  0  0  0
   10.1830   -0.4170    0.8800 O   0  0  0  0  0  0  0  0  0  0  0  0
    7.9630   -1.1890    0.5230 C   0  0  0  0  0  0  0  0  0  0  0  0
    6.5890   -0.9840    0.4010 C   0  0  0  0  0  0  0  0  0  0  0  0
    3.7160   -1.6040   -0.4180 C   0  0  0  0  0  0  0  0  0  0  0  0
    4.1150   -1.8590   -1.7370 C   0  0  0  0  0  0  0  0  0  0  0  0
    4.1730   -3.1600   -2.1660 C   0  0  0  0  0  0  0  0  0  0  0  0
    3.8480   -4.2110   -1.3360 C   0  0  0  0  0  0  0  0  0  0  0  0
    3.4520   -3.9520   -0.0310 C   0  0  0  0  0  0  0  0  0  0  0  0
    3.3890   -2.6590    0.4170 C   0  0  0  0  0  0  0  0  0  0  0  0
    1.7930    0.9070    1.1870 C   0  0  0  0  0  0  0  0  0  0  0  0
    0.4560    1.3210    1.2010 C   0  0  0  0  0  0  0  0  0  0  0  0
   -2.1330    3.7910   -0.5210 C   0  0  0  0  0  0  0  0  0  0  0  0
  1  2  1  0
  2  3  1  0
  3  4  2  0
  3 49  1  0
  4  5  1  0
  5  6  2  0
  6  7  1  0
  7  8  1  0
  7 49  2  0
  8  9  2  3
  8 27  1  0
  9 10  1  0
  9 16  1  0
 10 11  2  0
 10 15  1  0
 11 12  1  0
 12 13  2  0
 13 14  1  0
 14 15  2  0
 16 17  1  0
 16 25  1  0
 17 18  2  0
 17 19  1  0
 19 20  2  0
 20 21  1  0
 20 22  1  0
 22 23  1  1
 22 24  1  0
 22 25  1  0
 25 26  2  0
 27 28  2  0
 27 48  1  0
 28 29  1  0
 29 30  2  0
 30 31  1  0
 30 47  1  0
 31 32  1  0
 31 41  1  0
 32 33  2  0
 32 34  1  0
 34 35  2  0
 34 40  1  0
 35 36  1  0
 36 37  2  0
 37 38  1  0
 37 39  1  0
 39 40  2  0
 41 42  2  0
 41 46  1  0
 42 43  1  0
 43 44  2  0
 44 45  1  0
 45 46  2  0
 47 48  2  0
M  END
