
     RDKit          3D

 43 48  0  0  0  0  0  0  0  0999 V2000
   -2.9190   -7.9090    0.3770 C   0  0  0  0  0  0  0  0  0  0  0  0
   -2.9670   -6.6090   -0.1740 O   0  0  0  0  0  0  0  0  0  0  0  0
   -3.0160   -5.4500    0.5690 C   0  0  0  0  0  0  0  0  0  0  0  0
   -3.0150   -5.5290    1.8050 O   0  0  0  0  0  0  0  0  0  0  0  0
   -3.0660   -4.1600   -0.1440 C   0  0  0  0  0  0  0  0  0  0  0  0
   -3.0690   -3.9940   -1.4690 C   0  0  0  0  0  0  0  0  0  0  0  0
   -3.1420   -2.6000   -1.7590 C   0  0  2  0  0  0  0  0  0  0  0  0
   -2.0900   -1.9580   -2.4440 O   0  0  0  0  0  0  0  0  0  0  0  0
   -2.2490   -0.6160   -2.0470 N   0  0  0  0  0  0  0  0  0  0  0  0
   -2.7400   -0.5250   -0.8570 C   0  0  0  0  0  0  0  0  0  0  0  0
   -3.0710    0.6060   -0.0410 C   0  0  0  0  0  0  0  0  0  0  0  0
   -4.1800    0.7780    0.7980 C   0  0  0  0  0  0  0  0  0  0  0  0
   -4.1520    1.9890    1.3590 N   0  0  0  0  0  0  0  0  0  0  0  0
   -3.0640    2.6300    0.9220 N   0  0  0  0  0  0  0  0  0  0  0  0
   -2.3840    1.8040    0.0710 C   0  0  0  0  0  0  0  0  0  0  0  0
   -1.1100    2.2410   -0.4550 N   0  0  0  0  0  0  0  0  0  0  0  0
   -0.1140    1.2570   -0.6190 C   0  0  0  0  0  0  0  0  0  0  0  0
   -0.1670    0.1250   -0.0510 O   0  0  0  0  0  0  0  0  0  0  0  0
    1.0380    1.4970   -1.4610 C   0  0  0  0  0  0  0  0  0  0  0  0
    1.0720    2.5750   -2.1470 O   0  0  0  0  0  0  0  0  0  0  0  0
    2.1260    0.6110   -1.5710 N   0  0  0  0  0  0  0  0  0  0  0  0
    2.4690   -0.6780   -0.9480 C   0  0  0  0  0  0  0  0  0  0  0  0
    3.9330   -0.3360   -1.2150 C   0  0  1  0  0  0  0  0  0  0  0  0
    4.7380   -1.4440   -1.6620 N   0  0  0  0  0  0  0  0  0  0  0  0
    4.7930   -2.4740   -0.6250 C   0  0  0  0  0  0  0  0  0  0  0  0
    5.5990   -1.9360    0.5640 C   0  0  0  0  0  0  0  0  0  0  0  0
    5.6690   -3.2430    1.8740 P   0  0  0  0  0  0  0  0  0  0  0  0
    5.9450   -4.8090    1.2320 O   0  0  0  0  0  0  0  0  0  0  0  0
    4.3280   -3.1420    2.9430 O   0  0  0  0  0  0  0  0  0  0  0  0
    3.3860    0.5550   -2.3290 C   0  0  0  0  0  0  0  0  0  0  0  0
   -0.8880    3.6450   -0.6830 C   0  0  0  0  0  0  0  0  0  0  0  0
   -1.5700    4.4330    0.4090 C   0  0  0  0  0  0  0  0  0  0  0  0
   -1.1130    5.7080    0.6510 C   0  0  0  0  0  0  0  0  0  0  0  0
   -0.0090    6.2560   -0.0180 O   0  0  0  0  0  0  0  0  0  0  0  0
    0.4330    7.5570    0.2500 C   0  0  0  0  0  0  0  0  0  0  0  0
   -1.7550    6.5060    1.5950 C   0  0  0  0  0  0  0  0  0  0  0  0
   -2.8460    6.0660    2.3070 C   0  0  0  0  0  0  0  0  0  0  0  0
   -3.2910    4.7860    2.0540 C   0  0  0  0  0  0  0  0  0  0  0  0
   -4.3510    4.3290    2.7320 F   0  0  0  0  0  0  0  0  0  0  0  0
   -2.6500    3.9770    1.1090 C   0  0  0  0  0  0  0  0  0  0  0  0
   -2.9330   -1.8850   -0.4640 N   0  0  0  0  0  0  0  0  0  0  0  0
   -2.9920   -2.8730    0.5320 C   0  0  0  0  0  0  0  0  0  0  0  0
   -2.9800   -2.6360    1.7550 O   0  0  0  0  0  0  0  0  0  0  0  0
  1  2  1  0
  2  3  1  0
  3  4  2  0
  3  5  1  0
  5  6  2  0
  5 42  1  0
  6  7  1  0
  7  8  1  6
  7 41  1  0
  8  9  1  0
  9 10  2  0
 10 11  1  0
 10 41  1  0
 11 12  1  0
 11 15  2  0
 12 13  2  0
 13 14  1  0
 14 15  1  0
 14 40  1  0
 15 16  1  0
 16 17  1  0
 16 31  1  0
 17 18  2  0
 17 19  1  0
 19 20  2  0
 19 21  1  0
 21 22  1  0
 21 30  1  0
 22 23  1  0
 23 24  1  6
 23 30  1  0
 24 25  1  0
 25 26  1  0
 26 27  1  0
 27 28  1  0
 27 29  1  0
 31 32  1  0
 32 33  2  0
 32 40  1  0
 33 34  1  0
 33 36  1  0
 34 35  1  0
 36 37  2  0
 37 38  1  0
 38 39  1  0
 38 40  2  0
 41 42  1  0
 42 43  2  0
M  END
