
     RDKit          3D

 42 46  0  0  0  0  0  0  0  0999 V2000
    9.9400   -1.6590   -0.9090 C   0  0  0  0  0  0  0  0  0  0  0  0
    8.5660   -1.9640   -0.9200 O   0  0  0  0  0  0  0  0  0  0  0  0
    7.5420   -1.0930   -0.7400 C   0  0  0  0  0  0  0  0  0  0  0  0
    7.7940    0.1280   -0.5360 O   0  0  0  0  0  0  0  0  0  0  0  0
    6.1090   -1.5380   -0.7740 C   0  0  0  0  0  0  0  0  0  0  0  0
    5.2210   -0.4320   -0.5710 N   0  0  0  0  0  0  0  0  0  0  0  0
    5.2290    0.3930    0.6210 C   0  0  0  0  0  0  0  0  0  0  0  0
    6.0640    0.1090    1.5070 O   0  0  0  0  0  0  0  0  0  0  0  0
    4.3410    1.5120    0.7960 C   0  0  0  0  0  0  0  0  0  0  0  0
    4.9830    2.7760    0.8200 C   0  0  0  0  0  0  0  0  0  0  0  0
    4.2810    3.9480    0.6770 C   0  0  0  0  0  0  0  0  0  0  0  0
    2.9110    3.8970    0.5040 C   0  0  0  0  0  0  0  0  0  0  0  0
    2.2790    2.6880    0.4850 C   0  0  0  0  0  0  0  0  0  0  0  0
    0.9170    2.7160    0.3020 C   0  0  0  0  0  0  0  0  0  0  0  0
    0.2250    3.8720    0.1430 F   0  0  0  0  0  0  0  0  0  0  0  0
    0.2650    1.5510    0.2790 N   0  0  0  0  0  0  0  0  0  0  0  0
    0.8870    0.3720    0.4340 C   0  0  0  0  0  0  0  0  0  0  0  0
    2.2800    0.3210    0.6230 C   0  0  0  0  0  0  0  0  0  0  0  0
    2.9970    1.5000    0.6380 C   0  0  0  0  0  0  0  0  0  0  0  0
    2.9090   -0.9110    0.8770 N   0  0  0  0  0  0  0  0  0  0  0  0
    2.1030   -2.1130    0.9200 C   0  0  0  0  0  0  0  0  0  0  0  0
    2.4330   -3.4380    1.1340 C   0  0  0  0  0  0  0  0  0  0  0  0
    1.2170   -4.1260    1.0500 C   0  0  0  0  0  0  0  0  0  0  0  0
    0.2740   -3.2460    0.8070 O   0  0  0  0  0  0  0  0  0  0  0  0
    0.7640   -2.0420    0.7240 C   0  0  0  0  0  0  0  0  0  0  0  0
    0.1010   -0.7940    0.4730 N   0  0  0  0  0  0  0  0  0  0  0  0
   -1.2980   -0.7560    0.2590 C   0  0  0  0  0  0  0  0  0  0  0  0
   -1.9750   -1.8470    0.2930 O   0  0  0  0  0  0  0  0  0  0  0  0
   -2.0330    0.4640   -0.0080 C   0  0  0  0  0  0  0  0  0  0  0  0
   -3.4510    0.2430   -0.2410 N   0  0  0  0  0  0  0  0  0  0  0  0
   -3.8060   -0.4440   -1.4320 C   0  0  0  0  0  0  0  0  0  0  0  0
   -5.2320   -0.7040   -1.7120 C   0  0  2  0  0  0  0  0  0  0  0  0
   -6.1010    0.4410   -2.0590 C   0  0  0  0  0  0  0  0  0  0  0  0
   -7.4390    0.1090   -1.4360 C   0  0  0  0  0  0  0  0  0  0  0  0
   -7.2010   -1.2300   -0.8230 C   0  0  0  0  0  0  0  0  0  0  0  0
   -5.8460   -1.4580   -0.7230 O   0  0  0  0  0  0  0  0  0  0  0  0
   -4.3750    0.7100    0.6820 C   0  0  0  0  0  0  0  0  0  0  0  0
   -4.7070    1.9550    0.6820 N   0  0  0  0  0  0  0  0  0  0  0  0
   -5.0090   -0.0940    1.6910 N   0  0  0  0  0  0  0  0  0  0  0  0
   -6.1270    0.7090    2.8310 P   0  0  0  0  0  0  0  0  0  0  0  0
   -7.7000    0.0380    2.6700 O   0  0  0  0  0  0  0  0  0  0  0  0
   -6.2300    2.4150    2.5560 O   0  0  0  0  0  0  0  0  0  0  0  0
  1  2  1  0
  2  3  1  0
  3  4  2  0
  3  5  1  0
  5  6  1  0
  6  7  1  0
  7  8  2  0
  7  9  1  0
  9 10  2  0
  9 19  1  0
 10 11  1  0
 11 12  2  0
 12 13  1  0
 13 14  2  0
 13 19  1  0
 14 15  1  0
 14 16  1  0
 16 17  2  0
 17 18  1  0
 17 26  1  0
 18 19  2  0
 18 20  1  0
 20 21  1  0
 21 22  1  0
 21 25  2  0
 22 23  2  0
 23 24  1  0
 24 25  1  0
 25 26  1  0
 26 27  1  0
 27 28  2  0
 27 29  1  0
 29 30  1  0
 30 31  1  0
 30 37  1  0
 32 31  1  1
 32 33  1  0
 32 36  1  0
 33 34  1  0
 34 35  1  0
 35 36  1  0
 37 38  2  0
 37 39  1  0
 39 40  1  0
 40 41  1  0
 40 42  1  0
M  END
