
     RDKit          3D

 43 47  0  0  0  0  0  0  0  0999 V2000
   -5.3680    3.4800    2.0060 C   0  0  0  0  0  0  0  0  0  0  0  0
   -6.5530    3.0590    1.2990 C   0  0  0  0  0  0  0  0  0  0  0  0
   -7.5260    3.9730    1.2570 O   0  0  0  0  0  0  0  0  0  0  0  0
   -7.0120    1.8520    0.5820 C   0  0  0  0  0  0  0  0  0  0  0  0
   -5.4310    1.1890    0.6320 C   0  0  0  0  0  0  0  0  0  0  0  0
   -5.2140    0.0230    0.1000 C   0  0  0  0  0  0  0  0  0  0  0  0
   -3.7910   -0.5380    0.1700 C   0  0  0  0  0  0  0  0  0  0  0  0
   -3.1750   -0.3310   -1.2380 C   0  0  0  0  0  0  0  0  0  0  0  0
   -1.9630   -0.7650   -1.3640 O   0  0  0  0  0  0  0  0  0  0  0  0
   -0.7170   -1.0800   -1.3650 C   0  0  0  0  0  0  0  0  0  0  0  0
    0.2630   -0.5310   -0.5950 N   0  0  0  0  0  0  0  0  0  0  0  0
    1.4290   -1.0440   -0.8020 C   0  0  0  0  0  0  0  0  0  0  0  0
    2.7630   -0.7430   -0.1630 C   0  0  1  0  0  0  0  0  0  0  0  0
    2.6710    0.3130    0.8970 C   0  0  0  0  0  0  0  0  0  0  0  0
    2.9650    1.6560    0.5580 N   0  0  0  0  0  0  0  0  0  0  0  0
    1.8270    2.5150    0.3570 C   0  0  0  0  0  0  0  0  0  0  0  0
    0.7150    2.1970    0.7940 O   0  0  0  0  0  0  0  0  0  0  0  0
    1.9800    3.8070   -0.3850 C   0  0  0  0  0  0  0  0  0  0  0  0
    3.2540    4.4060    0.0830 C   0  0  0  0  0  0  0  0  0  0  0  0
    3.3450    5.6530    0.3190 O   0  0  0  0  0  0  0  0  0  0  0  0
    4.3810    3.5730    0.2650 N   0  0  0  0  0  0  0  0  0  0  0  0
    5.7050    3.8330    0.2680 C   0  0  0  0  0  0  0  0  0  0  0  0
    6.3700    2.7290    0.4820 N   0  0  0  0  0  0  0  0  0  0  0  0
    5.4600    1.6930    0.6280 C   0  0  0  0  0  0  0  0  0  0  0  0
    4.2330    2.2490    0.4930 C   0  0  0  0  0  0  0  0  0  0  0  0
    5.7530    0.3640    0.8620 O   0  0  0  0  0  0  0  0  0  0  0  0
    6.2870   -0.6410    0.1080 C   0  0  0  0  0  0  0  0  0  0  0  0
    6.3770   -1.9310    0.9430 C   0  0  0  0  0  0  0  0  0  0  0  0
    6.3240   -3.0700   -0.0090 C   0  0  0  0  0  0  0  0  0  0  0  0
    5.3510   -3.9480    0.0240 C   0  0  0  0  0  0  0  0  0  0  0  0
    4.2240   -3.9620    0.9390 C   0  0  0  0  0  0  0  0  0  0  0  0
    3.3200   -2.9660    1.0470 C   0  0  0  0  0  0  0  0  0  0  0  0
    2.3610   -3.2810    2.0160 F   0  0  0  0  0  0  0  0  0  0  0  0
    3.3140   -1.8640    0.3620 O   0  0  0  0  0  0  0  0  0  0  0  0
    1.2460   -1.9920   -1.7620 N   0  0  0  0  0  0  0  0  0  0  0  0
   -0.0150   -2.0130   -2.0960 N   0  0  0  0  0  0  0  0  0  0  0  0
   -6.1130   -0.8210   -0.5390 C   0  0  0  0  0  0  0  0  0  0  0  0
   -5.7370   -1.9930   -1.0320 O   0  0  0  0  0  0  0  0  0  0  0  0
   -6.5680   -3.2240   -1.8720 P   0  0  0  0  0  0  0  0  0  0  0  0
   -7.2590   -4.4580   -0.9030 O   0  0  0  0  0  0  0  0  0  0  0  0
   -7.7000   -2.6170   -2.9870 O   0  0  0  0  0  0  0  0  0  0  0  0
   -7.3890   -0.2380   -0.5580 C   0  0  0  0  0  0  0  0  0  0  0  0
   -7.3670    0.9210    0.0280 N   0  0  0  0  0  0  0  0  0  0  0  0
  1  2  1  0
  2  3  2  0
  2  4  1  0
  4  5  2  0
  4 43  1  0
  5  6  1  0
  6  7  1  0
  6 37  2  0
  7  8  1  0
  8  9  1  0
  9 10  1  0
 10 11  2  0
 10 36  1  0
 11 12  1  0
 13 12  1  1
 12 35  2  0
 13 14  1  0
 13 34  1  0
 14 15  1  0
 15 16  1  0
 15 25  1  0
 16 17  2  0
 16 18  1  0
 18 19  1  0
 19 20  2  0
 19 21  1  0
 21 22  1  0
 21 25  1  0
 22 23  2  0
 23 24  1  0
 24 25  2  0
 24 26  1  0
 26 27  1  0
 27 28  1  0
 28 29  1  0
 29 30  2  0
 30 31  1  0
 31 32  2  0
 32 33  1  0
 32 34  1  0
 35 36  1  0
 37 38  1  0
 37 42  1  0
 38 39  1  0
 39 40  1  0
 39 41  1  0
 42 43  2  0
M  END
