
     RDKit          3D

 42 46  0  0  0  0  0  0  0  0999 V2000
    0.4840    8.3500    0.8720 C   0  0  0  0  0  0  0  0  0  0  0  0
    0.5420    7.7730   -0.4280 O   0  0  0  0  0  0  0  0  0  0  0  0
    1.1950    6.5300   -0.6060 C   0  0  0  0  0  0  0  0  0  0  0  0
    2.4670    6.5390   -0.8920 C   0  0  0  0  0  0  0  0  0  0  0  0
    3.1160    5.2380   -1.0660 C   0  0  0  0  0  0  0  0  0  0  0  0
    4.3620    4.9240   -1.3400 C   0  0  0  0  0  0  0  0  0  0  0  0
    4.5220    3.5530   -1.4030 O   0  0  0  0  0  0  0  0  0  0  0  0
    3.1880    2.9570   -1.1260 C   0  0  0  0  0  0  0  0  0  0  0  0
    3.0450    1.6780   -1.1160 C   0  0  0  0  0  0  0  0  0  0  0  0
    3.8240    0.5320   -1.2900 C   0  0  0  0  0  0  0  0  0  0  0  0
    3.3680   -0.7290   -1.2850 C   0  0  0  0  0  0  0  0  0  0  0  0
    2.0030   -1.1420   -1.1380 C   0  0  0  0  0  0  0  0  0  0  0  0
    0.9330   -0.4490   -1.6650 C   0  0  0  0  0  0  0  0  0  0  0  0
   -0.3610   -0.8100   -1.4500 C   0  0  0  0  0  0  0  0  0  0  0  0
   -0.6310   -1.8990   -0.6870 N   0  0  0  0  0  0  0  0  0  0  0  0
    0.3490   -2.6360   -0.1360 C   0  0  0  0  0  0  0  0  0  0  0  0
   -0.0250   -3.7560    0.6440 O   0  0  0  0  0  0  0  0  0  0  0  0
   -1.4710   -3.8750    0.6660 C   0  0  0  0  0  0  0  0  0  0  0  0
   -2.1660   -3.3320    1.5600 C   0  0  0  0  0  0  0  0  0  0  0  0
   -1.6680   -2.5340    2.6560 C   0  0  0  0  0  0  0  0  0  0  0  0
   -2.1660   -2.5540    3.9380 N   0  0  0  0  0  0  0  0  0  0  0  0
   -1.5340   -1.6720    4.6390 O   0  0  0  0  0  0  0  0  0  0  0  0
   -0.6420   -1.0790    3.8580 C   0  0  0  0  0  0  0  0  0  0  0  0
    0.2490   -0.0480    4.2490 N   0  0  0  0  0  0  0  0  0  0  0  0
   -0.4930    1.4780    4.8810 P   0  0  0  0  0  0  0  0  0  0  0  0
    0.6950    2.6780    5.1750 O   0  0  0  0  0  0  0  0  0  0  0  0
   -1.6850    2.0320    3.7390 O   0  0  0  0  0  0  0  0  0  0  0  0
   -0.7210   -1.6080    2.6380 N   0  0  0  0  0  0  0  0  0  0  0  0
   -1.9490   -4.6610   -0.4750 C   0  0  0  0  0  0  0  0  0  0  0  0
   -3.3160   -4.5570   -0.8470 C   0  0  0  0  0  0  0  0  0  0  0  0
   -3.7860   -5.2680   -1.9190 C   0  0  0  0  0  0  0  0  0  0  0  0
   -2.9670   -6.1100   -2.6820 C   0  0  0  0  0  0  0  0  0  0  0  0
   -3.4300   -6.8280   -3.7670 O   0  0  0  0  0  0  0  0  0  0  0  0
   -4.7040   -6.7630   -4.2630 N   0  0  0  0  0  0  0  0  0  0  0  0
   -1.6640   -6.1670   -2.2690 C   0  0  0  0  0  0  0  0  0  0  0  0
   -0.8160   -7.0140   -3.0130 O   0  0  0  0  0  0  0  0  0  0  0  0
   -1.2080   -5.4710   -1.2230 N   0  0  0  0  0  0  0  0  0  0  0  0
    1.6430   -2.2670   -0.3550 C   0  0  0  0  0  0  0  0  0  0  0  0
    2.3460    4.0380   -0.9230 N   0  0  0  0  0  0  0  0  0  0  0  0
    0.9370    4.1120   -0.6080 C   0  0  0  0  0  0  0  0  0  0  0  0
    0.3830    5.3050   -0.4530 C   0  0  0  0  0  0  0  0  0  0  0  0
   -0.9270    5.3870   -0.1700 F   0  0  0  0  0  0  0  0  0  0  0  0
  1  2  1  0
  2  3  1  0
  3  4  2  0
  3 41  1  0
  4  5  1  0
  5  6  2  0
  5 39  1  0
  6  7  1  0
  7  8  1  0
  8  9  2  3
  8 39  1  0
  9 10  1  0
 10 11  2  3
 11 12  1  0
 12 13  2  0
 12 38  1  0
 13 14  1  0
 14 15  2  0
 15 16  1  0
 16 17  1  0
 16 38  2  0
 17 18  1  0
 18 19  2  3
 18 29  1  0
 19 20  1  0
 20 21  2  0
 20 28  1  0
 21 22  1  0
 22 23  1  0
 23 24  1  0
 23 28  2  0
 24 25  1  0
 25 26  1  0
 25 27  1  0
 29 30  2  0
 29 37  1  0
 30 31  1  0
 31 32  2  0
 32 33  1  0
 32 35  1  0
 33 34  1  0
 35 36  1  0
 35 37  2  0
 39 40  1  0
 40 41  2  0
 41 42  1  0
M  END
