
     RDKit          3D

 35 35  0  0  0  0  0  0  0  0999 V2000
   -6.8730   -0.3730   -3.8250 C   0  0  0  0  0  0  0  0  0  0  0  0
   -6.1170   -0.6270   -2.5310 C   0  0  0  0  0  0  0  0  0  0  0  0
   -4.6550   -0.2860   -2.7430 C   0  0  0  0  0  0  0  0  0  0  0  0
   -3.8820   -0.5230   -1.4990 C   0  0  0  0  0  0  0  0  0  0  0  0
   -4.4480   -0.9410   -0.4870 O   0  0  0  0  0  0  0  0  0  0  0  0
   -2.5380   -0.2710   -1.4970 O   0  0  0  0  0  0  0  0  0  0  0  0
   -1.6530   -0.4220   -0.4320 C   0  0  0  0  0  0  0  0  0  0  0  0
   -1.8580    0.4580    0.7330 C   0  0  2  0  0  0  0  0  0  0  0  0
   -0.7600    0.1350    1.7660 C   0  0  0  0  0  0  0  0  0  0  0  0
    0.4440    0.2900    1.0950 O   0  0  0  0  0  0  0  0  0  0  0  0
    1.7610   -0.0360    2.1100 P   0  0  2  0  0  0  0  0  0  0  0  0
    1.4840   -1.3360    2.8140 O   0  0  0  0  0  0  0  0  0  0  0  0
    1.9240    1.1850    3.2500 O   0  0  0  0  0  0  0  0  0  0  0  0
    3.1880   -0.1550    1.2190 O   0  0  0  0  0  0  0  0  0  0  0  0
    2.9510    0.2250   -0.1150 C   0  0  2  0  0  0  0  0  0  0  0  0
    3.2770   -0.9490   -1.0120 C   0  0  2  0  0  0  0  0  0  0  0  0
    2.3090   -1.9440   -0.9460 O   0  0  0  0  0  0  0  0  0  0  0  0
    4.6470   -1.4520   -0.6520 C   0  0  2  0  0  0  0  0  0  0  0  0
    4.5350   -2.1720    0.5530 O   0  0  0  0  0  0  0  0  0  0  0  0
    5.6040   -0.3100   -0.5480 C   0  0  1  0  0  0  0  0  0  0  0  0
    6.8140   -0.6070   -1.1710 O   0  0  0  0  0  0  0  0  0  0  0  0
    8.1240   -0.5080   -0.1100 P   0  0  1  0  0  0  0  0  0  0  0  0
    7.7270    0.0680    1.2320 O   0  0  0  0  0  0  0  0  0  0  0  0
    8.7200   -2.0670    0.1540 O   0  0  0  0  0  0  0  0  0  0  0  0
    9.3670    0.4150   -0.7940 O   0  0  0  0  0  0  0  0  0  0  0  0
    5.0800    0.9570   -1.2080 C   0  0  2  0  0  0  0  0  0  0  0  0
    6.0310    1.9630   -1.0050 O   0  0  0  0  0  0  0  0  0  0  0  0
    3.8240    1.3950   -0.4920 C   0  0  1  0  0  0  0  0  0  0  0  0
    3.1140    2.2280   -1.3490 O   0  0  0  0  0  0  0  0  0  0  0  0
   -3.0980    0.3150    1.3690 O   0  0  0  0  0  0  0  0  0  0  0  0
   -3.9180    1.4390    1.5510 C   0  0  0  0  0  0  0  0  0  0  0  0
   -3.4890    2.5510    1.1100 O   0  0  0  0  0  0  0  0  0  0  0  0
   -5.2250    1.3220    2.2290 C   0  0  0  0  0  0  0  0  0  0  0  0
   -5.3370   -0.0290    2.8610 C   0  0  0  0  0  0  0  0  0  0  0  0
   -6.6580   -0.2220    3.5820 C   0  0  0  0  0  0  0  0  0  0  0  0
  1  2  1  0
  2  3  1  0
  3  4  1  0
  4  5  2  0
  4  6  1  0
  6  7  1  0
  8  7  1  6
  8  9  1  0
  8 30  1  0
  9 10  1  0
 10 11  1  0
 11 12  2  0
 11 13  1  1
 11 14  1  0
 15 14  1  1
 15 16  1  0
 15 28  1  0
 16 17  1  1
 16 18  1  0
 18 19  1  1
 18 20  1  0
 20 21  1  6
 20 26  1  0
 21 22  1  0
 22 23  2  0
 22 24  1  1
 22 25  1  0
 26 27  1  1
 26 28  1  0
 28 29  1  6
 30 31  1  0
 31 32  2  0
 31 33  1  0
 33 34  1  0
 34 35  1  0
M  END
