
     RDKit          3D

 47 52  0  0  0  0  0  0  0  0999 V2000
    7.7110   -0.4240    1.9050 C   0  0  0  0  0  0  0  0  0  0  0  0
    8.6640    0.7430    1.9060 C   0  0  0  0  0  0  0  0  0  0  0  0
    8.6490    1.5240    0.7050 N   0  0  0  0  0  0  0  0  0  0  0  0
    7.6590    2.6550    0.7540 C   0  0  0  0  0  0  0  0  0  0  0  0
    6.3200    2.1640    0.3580 C   0  0  0  0  0  0  0  0  0  0  0  0
    5.8450    2.1440   -0.9360 C   0  0  0  0  0  0  0  0  0  0  0  0
    4.5740    1.6820   -1.2620 C   0  0  0  0  0  0  0  0  0  0  0  0
    3.7210    1.2170   -0.2860 C   0  0  0  0  0  0  0  0  0  0  0  0
    2.3750    0.7230   -0.6180 C   0  0  0  0  0  0  0  0  0  0  0  0
    2.1680    0.3920   -1.8010 O   0  0  0  0  0  0  0  0  0  0  0  0
    1.3370    0.6150    0.3280 N   0  0  0  0  0  0  0  0  0  0  0  0
    0.0160    0.1470    0.1080 C   0  0  0  0  0  0  0  0  0  0  0  0
   -0.9090    0.3660    1.1490 C   0  0  0  0  0  0  0  0  0  0  0  0
   -2.2020   -0.0540    1.0460 C   0  0  0  0  0  0  0  0  0  0  0  0
   -2.5970   -0.6980   -0.0960 C   0  0  0  0  0  0  0  0  0  0  0  0
   -3.9880   -1.1730   -0.2590 C   0  0  0  0  0  0  0  0  0  0  0  0
   -4.3150   -1.7590   -1.3140 O   0  0  0  0  0  0  0  0  0  0  0  0
   -4.9370   -0.9920    0.7130 O   0  0  0  0  0  0  0  0  0  0  0  0
   -6.2520   -1.3910    0.6660 C   0  0  0  0  0  0  0  0  0  0  0  0
   -6.5990   -2.6310    1.1390 C   0  0  0  0  0  0  0  0  0  0  0  0
   -7.9080   -3.0910    1.1190 C   0  0  0  0  0  0  0  0  0  0  0  0
   -8.9150   -2.2770    0.6050 C   0  0  0  0  0  0  0  0  0  0  0  0
   -8.5840   -1.0300    0.1260 C   0  0  0  0  0  0  0  0  0  0  0  0
   -7.2500   -0.5970    0.1610 C   0  0  0  0  0  0  0  0  0  0  0  0
   -9.6290   -0.1160   -0.4380 C   0  0  0  0  0  0  0  0  0  0  0  0
  -10.9320   -0.5060    0.2240 C   0  0  1  0  0  0  0  0  0  0  0  0
  -12.0310    0.4030   -0.1110 C   0  0  0  0  0  0  0  0  0  0  0  0
  -12.6940    1.1940    0.8130 C   0  0  0  0  0  0  0  0  0  0  0  0
  -13.7240    2.0290    0.4280 C   0  0  0  0  0  0  0  0  0  0  0  0
  -14.1270    2.1010   -0.8950 C   0  0  0  0  0  0  0  0  0  0  0  0
  -13.4800    1.3230   -1.8220 C   0  0  0  0  0  0  0  0  0  0  0  0
  -12.4490    0.4910   -1.4190 C   0  0  0  0  0  0  0  0  0  0  0  0
  -11.1840   -1.9510   -0.1280 C   0  0  0  0  0  0  0  0  0  0  0  0
  -10.2330   -2.7150    0.5750 O   0  0  0  0  0  0  0  0  0  0  0  0
   -1.7190   -0.9180   -1.1110 C   0  0  0  0  0  0  0  0  0  0  0  0
   -0.3970   -0.4870   -1.0000 C   0  0  0  0  0  0  0  0  0  0  0  0
    4.1780    1.2300    1.0050 C   0  0  0  0  0  0  0  0  0  0  0  0
    5.4450    1.6880    1.3410 C   0  0  0  0  0  0  0  0  0  0  0  0
    9.3860    1.3920   -0.4710 C   0  0  0  0  0  0  0  0  0  0  0  0
    9.1540    2.2900   -1.3740 O   0  0  0  0  0  0  0  0  0  0  0  0
   10.3660    0.4100   -0.8300 C   0  0  0  0  0  0  0  0  0  0  0  0
   10.7390   -0.6970   -0.1160 C   0  0  0  0  0  0  0  0  0  0  0  0
   11.7330   -1.5900   -0.5320 C   0  0  0  0  0  0  0  0  0  0  0  0
   12.4050   -1.4010   -1.7090 C   0  0  0  0  0  0  0  0  0  0  0  0
   13.4650   -2.3240   -2.1810 C   0  0  0  0  0  0  0  0  0  0  0  0
   12.0500   -0.2980   -2.4460 C   0  0  0  0  0  0  0  0  0  0  0  0
   11.0800    0.5770   -2.0420 C   0  0  0  0  0  0  0  0  0  0  0  0
  1  2  1  0
  2  3  1  0
  3  4  1  0
  3 39  1  0
  4  5  1  0
  5  6  2  0
  5 38  1  0
  6  7  1  0
  7  8  2  0
  8  9  1  0
  8 37  1  0
  9 10  2  0
  9 11  1  0
 11 12  1  0
 12 13  2  0
 12 36  1  0
 13 14  1  0
 14 15  2  0
 15 16  1  0
 15 35  1  0
 16 17  2  0
 16 18  1  0
 18 19  1  0
 19 20  2  0
 19 24  1  0
 20 21  1  0
 21 22  2  0
 22 23  1  0
 22 34  1  0
 23 24  2  0
 23 25  1  0
 25 26  1  0
 26 27  1  6
 26 33  1  0
 27 28  2  0
 27 32  1  0
 28 29  1  0
 29 30  2  0
 30 31  1  0
 31 32  2  0
 33 34  1  0
 35 36  2  0
 37 38  2  0
 39 40  2  0
 39 41  1  0
 41 42  2  0
 41 47  1  0
 42 43  1  0
 43 44  2  0
 44 45  1  0
 44 46  1  0
 46 47  2  0
M  END
