
     RDKit          3D

 43 48  0  0  0  0  0  0  0  0999 V2000
   -8.1350   -2.1120    1.7340 C   0  0  0  0  0  0  0  0  0  0  0  0
   -7.9680   -0.8690    0.9060 C   0  0  1  0  0  0  0  0  0  0  0  0
   -8.2640   -1.3080   -0.5420 C   0  0  0  0  0  0  0  0  0  0  0  0
   -8.9650    0.1600    1.2920 C   0  0  0  0  0  0  0  0  0  0  0  0
   -6.6140   -0.4530    0.9730 O   0  0  0  0  0  0  0  0  0  0  0  0
   -6.1770    0.6980    0.3390 C   0  0  0  0  0  0  0  0  0  0  0  0
   -7.0730    1.3600   -0.2720 O   0  0  0  0  0  0  0  0  0  0  0  0
   -4.8700    1.1840    0.3140 N   0  0  0  0  0  0  0  0  0  0  0  0
   -3.8760    0.3460    0.9810 C   0  0  0  0  0  0  0  0  0  0  0  0
   -2.9890   -0.2790   -0.1010 C   0  0  0  0  0  0  0  0  0  0  0  0
   -1.9730    0.6440   -0.4350 O   0  0  0  0  0  0  0  0  0  0  0  0
   -2.0730    2.0340   -0.3620 C   0  0  0  0  0  0  0  0  0  0  0  0
   -1.0030    2.8930   -0.3000 C   0  0  0  0  0  0  0  0  0  0  0  0
    0.4730    2.4910   -0.4090 C   0  0  0  0  0  0  0  0  0  0  0  0
    1.1760    1.5740   -0.4940 N   0  0  0  0  0  0  0  0  0  0  0  0
    2.5390    1.4300   -0.4650 C   0  0  0  0  0  0  0  0  0  0  0  0
    3.2950    0.2710   -0.4720 N   0  0  0  0  0  0  0  0  0  0  0  0
    2.9060   -1.0770   -0.6740 C   0  0  0  0  0  0  0  0  0  0  0  0
    1.6800   -1.2600   -0.9920 O   0  0  0  0  0  0  0  0  0  0  0  0
    3.7600   -2.2280   -0.5430 C   0  0  0  0  0  0  0  0  0  0  0  0
    3.2340   -3.4920   -0.7980 C   0  0  0  0  0  0  0  0  0  0  0  0
    4.0110   -4.6310   -0.6830 C   0  0  0  0  0  0  0  0  0  0  0  0
    3.5410   -5.8920   -0.9090 F   0  0  0  0  0  0  0  0  0  0  0  0
    5.2830   -4.5420   -0.3220 N   0  0  0  0  0  0  0  0  0  0  0  0
    5.8170   -3.3760   -0.0710 C   0  0  0  0  0  0  0  0  0  0  0  0
    5.0940   -2.1750   -0.1690 C   0  0  0  0  0  0  0  0  0  0  0  0
    5.9410   -1.1410    0.1530 O   0  0  0  0  0  0  0  0  0  0  0  0
    7.2720   -1.5360   -0.0310 C   0  0  2  0  0  0  0  0  0  0  0  0
    7.6320   -1.4350   -1.3510 O   0  0  0  0  0  0  0  0  0  0  0  0
    9.3370   -1.1450   -1.5420 P   0  0  0  0  0  0  0  0  0  0  0  0
   10.3030   -2.1620   -0.5170 O   0  0  0  0  0  0  0  0  0  0  0  0
    9.8580   -1.1270   -3.1670 O   0  0  0  0  0  0  0  0  0  0  0  0
    7.1780   -3.0100    0.3950 C   0  0  0  0  0  0  0  0  0  0  0  0
    3.2180    2.6560   -0.3060 C   0  0  0  0  0  0  0  0  0  0  0  0
    4.5140    3.0240   -0.2370 C   0  0  0  0  0  0  0  0  0  0  0  0
    4.6110    4.4210   -0.0890 C   0  0  0  0  0  0  0  0  0  0  0  0
    3.3480    4.8540   -0.0710 N   0  0  0  0  0  0  0  0  0  0  0  0
    2.4820    3.7990   -0.2030 C   0  0  0  0  0  0  0  0  0  0  0  0
    1.1620    3.7840   -0.2430 N   0  0  0  0  0  0  0  0  0  0  0  0
   -1.4990    4.1150   -0.2260 N   0  0  0  0  0  0  0  0  0  0  0  0
   -2.7910    4.0700   -0.2440 O   0  0  0  0  0  0  0  0  0  0  0  0
   -3.1990    2.8240   -0.3300 C   0  0  0  0  0  0  0  0  0  0  0  0
   -4.6400    2.4370   -0.3820 C   0  0  0  0  0  0  0  0  0  0  0  0
  2  1  1  1
  2  3  1  0
  2  4  1  0
  2  5  1  0
  5  6  1  0
  6  7  2  0
  6  8  1  0
  8  9  1  0
  8 43  1  0
  9 10  1  0
 10 11  1  0
 11 12  1  0
 12 13  1  0
 12 42  2  0
 13 14  1  0
 13 40  2  0
 14 15  2  0
 14 39  1  0
 15 16  1  0
 16 17  1  0
 16 34  2  0
 17 18  1  0
 18 19  2  0
 18 20  1  0
 20 21  2  0
 20 26  1  0
 21 22  1  0
 22 23  1  0
 22 24  2  0
 24 25  1  0
 25 26  2  0
 25 33  1  0
 26 27  1  0
 27 28  1  0
 28 29  1  6
 28 33  1  0
 29 30  1  0
 30 31  1  0
 30 32  1  0
 34 35  1  0
 34 38  1  0
 35 36  2  0
 36 37  1  0
 37 38  1  0
 38 39  2  0
 40 41  1  0
 41 42  1  0
 42 43  1  0
M  END
