
     RDKit          3D

 23 24  0  0  0  0  0  0  0  0999 V2000
   -2.8130   -1.2940   -1.1390 C   0  0  0  0  0  0  0  0  0  0  0  0
   -2.3240   -1.9310    0.1320 C   0  0  1  0  0  0  0  0  0  0  0  0
   -3.5810   -2.4290    0.8620 C   0  0  0  0  0  0  0  0  0  0  0  0
   -1.5230   -3.0390   -0.1610 O   0  0  0  0  0  0  0  0  0  0  0  0
   -1.6610   -0.9680    1.0550 C   0  0  0  0  0  0  0  0  0  0  0  0
   -0.5040   -0.3000    0.5280 N   0  0  0  0  0  0  0  0  0  0  0  0
    0.7210   -0.8080    0.5530 N   0  0  0  0  0  0  0  0  0  0  0  0
    1.5900    0.0200   -0.0300 C   0  0  0  0  0  0  0  0  0  0  0  0
    3.0270   -0.1300   -0.2260 C   0  0  0  0  0  0  0  0  0  0  0  0
    3.7580    0.8520   -0.8600 C   0  0  0  0  0  0  0  0  0  0  0  0
    5.1380    0.7150   -1.0520 C   0  0  0  0  0  0  0  0  0  0  0  0
    5.7790   -0.4140   -0.6030 C   0  0  0  0  0  0  0  0  0  0  0  0
    7.5100   -0.5360   -0.8690 Cl  0  0  0  0  0  0  0  0  0  0  0  0
    5.0580   -1.4120    0.0370 C   0  0  0  0  0  0  0  0  0  0  0  0
    3.6930   -1.2540    0.2150 C   0  0  0  0  0  0  0  0  0  0  0  0
    2.9820   -2.2860    0.8710 N   0  0  0  0  0  0  0  0  0  0  0  0
    0.8440    1.1090   -0.4390 C   0  0  0  0  0  0  0  0  0  0  0  0
   -0.4740    0.8850   -0.0750 C   0  0  0  0  0  0  0  0  0  0  0  0
   -1.5390    1.8560   -0.3350 C   0  0  0  0  0  0  0  0  0  0  0  0
   -1.6790    3.0470    0.9940 S   0  0  1  0  0  0  0  0  0  0  0  0
   -3.0080    4.1530    0.5360 C   0  0  0  0  0  0  0  0  0  0  0  0
   -2.1120    2.3570    2.2540 O   0  0  0  0  0  0  0  0  0  0  0  0
   -0.4070    3.7660    1.2410 O   0  0  0  0  0  0  0  0  0  0  0  0
  2  1  1  6
  2  3  1  0
  2  4  1  0
  2  5  1  0
  5  6  1  0
  6  7  1  0
  6 18  1  0
  7  8  2  0
  8  9  1  0
  8 17  1  0
  9 10  2  0
  9 15  1  0
 10 11  1  0
 11 12  2  0
 12 13  1  0
 12 14  1  0
 14 15  2  0
 15 16  1  0
 17 18  2  0
 18 19  1  0
 19 20  1  0
 20 21  1  6
 20 22  2  0
 20 23  2  0
M  END
