
     RDKit          3D

 23 24  0  0  0  0  0  0  0  0999 V2000
   -4.1480    3.2220   -0.8100 C   0  0  0  0  0  0  0  0  0  0  0  0
   -2.9340    1.9410   -0.5650 S   0  0  0  0  0  0  0  0  0  0  0  0
   -3.5900    0.3460   -0.1590 C   0  0  0  0  0  0  0  0  0  0  0  0
   -4.9430    0.1210   -0.0430 C   0  0  0  0  0  0  0  0  0  0  0  0
   -6.1310    1.3860   -0.2850 Cl  0  0  0  0  0  0  0  0  0  0  0  0
   -5.3520   -1.1690    0.2790 C   0  0  0  0  0  0  0  0  0  0  0  0
   -4.4640   -2.2000    0.4800 C   0  0  0  0  0  0  0  0  0  0  0  0
   -3.1100   -1.9350    0.3550 C   0  0  0  0  0  0  0  0  0  0  0  0
   -2.1660   -2.9350    0.5450 C   0  0  0  0  0  0  0  0  0  0  0  0
   -0.8150   -2.7040    0.4280 C   0  0  0  0  0  0  0  0  0  0  0  0
   -0.3460   -1.4230    0.1050 C   0  0  0  0  0  0  0  0  0  0  0  0
    1.0470   -1.2480   -0.0100 N   0  0  0  0  0  0  0  0  0  0  0  0
    1.7270   -0.0210   -0.1900 C   0  0  0  0  0  0  0  0  0  0  0  0
    1.0870    1.0400   -0.2580 O   0  0  0  0  0  0  0  0  0  0  0  0
    3.1740    0.0140   -0.2970 C   0  0  0  0  0  0  0  0  0  0  0  0
    3.8120   -1.0590   -0.2270 O   0  0  0  0  0  0  0  0  0  0  0  0
    3.8350    1.2520   -0.4760 N   0  0  0  0  0  0  0  0  0  0  0  0
    5.2850    1.2930   -0.5840 C   0  0  0  0  0  0  0  0  0  0  0  0
    5.8420    0.7370    0.6630 C   0  0  0  0  0  0  0  0  0  0  0  0
    7.2500    0.6570    0.8290 N   0  0  0  0  0  0  0  0  0  0  0  0
    5.1010    0.3180    1.6140 O   0  0  0  0  0  0  0  0  0  0  0  0
   -1.2840   -0.4520   -0.0800 C   0  0  0  0  0  0  0  0  0  0  0  0
   -2.6650   -0.6750    0.0380 C   0  0  0  0  0  0  0  0  0  0  0  0
  1  2  1  0
  2  3  1  0
  3  4  2  0
  3 23  1  0
  4  5  1  0
  4  6  1  0
  6  7  2  0
  7  8  1  0
  8  9  2  0
  8 23  1  0
  9 10  1  0
 10 11  2  0
 11 12  1  0
 11 22  1  0
 12 13  1  0
 13 14  2  0
 13 15  1  0
 15 16  2  0
 15 17  1  0
 17 18  1  0
 18 19  1  0
 19 20  1  0
 19 21  2  0
 22 23  2  0
M  END
