
     RDKit          3D

 23 24  0  0  0  0  0  0  0  0999 V2000
    7.4340   -0.7120   -1.8950 C   0  0  0  0  0  0  0  0  0  0  0  0
    6.5660   -0.2580   -0.7980 N   0  0  0  0  0  0  0  0  0  0  0  0
    5.1730   -0.3470   -0.9590 C   0  0  0  0  0  0  0  0  0  0  0  0
    4.6890   -0.8170   -2.0500 O   0  0  0  0  0  0  0  0  0  0  0  0
    4.2590    0.0880    0.0940 C   0  0  0  0  0  0  0  0  0  0  0  0
    4.6720    0.5890    1.2610 N   0  0  0  0  0  0  0  0  0  0  0  0
    3.7600    0.9620    2.1690 C   0  0  0  0  0  0  0  0  0  0  0  0
    4.1850    1.4300    3.2550 O   0  0  0  0  0  0  0  0  0  0  0  0
    2.3830    0.8440    1.9380 C   0  0  0  0  0  0  0  0  0  0  0  0
    1.9170    0.3320    0.7500 C   0  0  0  0  0  0  0  0  0  0  0  0
    0.5540    0.1810    0.4400 N   0  0  0  0  0  0  0  0  0  0  0  0
   -0.5680    0.4900    1.2040 C   0  0  0  0  0  0  0  0  0  0  0  0
   -0.4100    0.9750    2.3400 O   0  0  0  0  0  0  0  0  0  0  0  0
   -1.9510    0.2570    0.7050 C   0  0  0  0  0  0  0  0  0  0  0  0
   -2.4000   -0.2350   -0.4390 C   0  0  0  0  0  0  0  0  0  0  0  0
   -3.7280   -0.3450   -0.6510 C   0  0  0  0  0  0  0  0  0  0  0  0
   -4.5560    0.0710    0.3560 C   0  0  0  0  0  0  0  0  0  0  0  0
   -6.0400    0.1080    0.4940 C   0  0  1  0  0  0  0  0  0  0  0  0
   -6.5630    0.9320   -0.6810 C   0  0  0  0  0  0  0  0  0  0  0  0
   -6.5270   -1.3140    0.3420 C   0  0  0  0  0  0  0  0  0  0  0  0
   -3.3720    0.6150    1.5950 S   0  0  0  0  0  0  0  0  0  0  0  0
    2.8900   -0.0380   -0.1550 C   0  0  0  0  0  0  0  0  0  0  0  0
    2.3280   -0.6980   -1.6890 Cl  0  0  0  0  0  0  0  0  0  0  0  0
  1  2  1  0
  2  3  1  0
  3  4  2  0
  3  5  1  0
  5  6  1  0
  5 22  2  0
  6  7  1  0
  7  8  2  0
  7  9  1  0
  9 10  2  0
 10 11  1  0
 10 22  1  0
 11 12  1  0
 12 13  2  0
 12 14  1  0
 14 15  2  0
 14 21  1  0
 15 16  1  0
 16 17  2  0
 17 18  1  0
 17 21  1  0
 18 19  1  6
 18 20  1  0
 22 23  1  0
M  END
