
     RDKit          3D

 26 28  0  0  0  0  0  0  0  0999 V2000
    7.4160   -3.5250   -0.4700 C   0  0  0  0  0  0  0  0  0  0  0  0
    6.3670   -2.4540   -0.3670 C   0  0  0  0  0  0  0  0  0  0  0  0
    5.0250   -2.4750   -0.5740 C   0  0  0  0  0  0  0  0  0  0  0  0
    4.3510   -1.3230   -0.3940 C   0  0  0  0  0  0  0  0  0  0  0  0
    4.9950   -0.2270   -0.0290 C   0  0  0  0  0  0  0  0  0  0  0  0
    4.4920    1.1530    0.2330 C   0  0  0  0  0  0  0  0  0  0  0  0
    5.2780    2.0520    0.5720 O   0  0  0  0  0  0  0  0  0  0  0  0
    3.1080    1.4470    0.0970 N   0  0  0  0  0  0  0  0  0  0  0  0
    2.5510    2.7470    0.3310 C   0  0  0  0  0  0  0  0  0  0  0  0
    1.0600    2.7060    0.1110 C   0  0  2  0  0  0  0  0  0  0  0  0
    0.4840    3.9670    0.3000 O   0  0  0  0  0  0  0  0  0  0  0  0
    0.4730    1.7020    1.0770 C   0  0  0  0  0  0  0  0  0  0  0  0
   -0.9620    1.6570    0.8750 N   0  0  0  0  0  0  0  0  0  0  0  0
   -1.6200    0.8490    0.0290 C   0  0  0  0  0  0  0  0  0  0  0  0
   -2.9800    1.0870    0.1050 C   0  0  0  0  0  0  0  0  0  0  0  0
   -4.0780    0.4050   -0.6700 C   0  0  0  0  0  0  0  0  0  0  0  0
   -4.4990   -0.7940    0.1710 C   0  0  0  0  0  0  0  0  0  0  0  0
   -5.5830   -1.5580   -0.4820 C   0  0  0  0  0  0  0  0  0  0  0  0
   -5.5270   -2.8290   -0.8470 C   0  0  0  0  0  0  0  0  0  0  0  0
   -6.7960   -3.2040   -1.4520 C   0  0  0  0  0  0  0  0  0  0  0  0
   -7.5510   -2.1280   -1.3240 C   0  0  0  0  0  0  0  0  0  0  0  0
   -6.9090   -1.0750   -0.8480 C   0  0  0  0  0  0  0  0  0  0  0  0
   -3.1240    2.0610    1.0220 N   0  0  0  0  0  0  0  0  0  0  0  0
   -1.8940    2.4030    1.4860 C   0  0  0  0  0  0  0  0  0  0  0  0
   -1.7400    3.2990    2.3620 O   0  0  0  0  0  0  0  0  0  0  0  0
    6.6630   -0.7320    0.0990 S   0  0  0  0  0  0  0  0  0  0  0  0
  1  2  1  0
  2  3  2  0
  2 26  1  0
  3  4  1  0
  4  5  2  0
  5  6  1  0
  5 26  1  0
  6  7  2  0
  6  8  1  0
  8  9  1  0
  9 10  1  0
 10 11  1  1
 10 12  1  0
 12 13  1  0
 13 14  1  0
 13 24  1  0
 14 15  2  0
 15 16  1  0
 15 23  1  0
 16 17  1  0
 17 18  1  0
 18 19  2  0
 18 22  1  0
 19 20  1  0
 20 21  2  0
 21 22  2  0
 23 24  1  0
 24 25  2  0
M  END
