
     RDKit          3D

 26 28  0  0  0  0  0  0  0  0999 V2000
   -2.0310   -4.1650    0.2420 C   0  0  0  0  0  0  0  0  0  0  0  0
   -1.5740   -2.8170   -0.3530 C   0  0  2  0  0  0  0  0  0  0  0  0
   -2.0650   -1.7610    0.5700 C   0  0  0  0  0  0  0  0  0  0  0  0
   -1.7500   -0.4070    0.2250 N   0  0  0  0  0  0  0  0  0  0  0  0
   -2.6250    0.3600   -0.5700 C   0  0  0  0  0  0  0  0  0  0  0  0
   -3.7130   -0.1690   -0.9570 O   0  0  0  0  0  0  0  0  0  0  0  0
   -2.3630    1.7320   -0.9830 C   0  0  0  0  0  0  0  0  0  0  0  0
   -3.2180    2.4910   -1.7540 C   0  0  0  0  0  0  0  0  0  0  0  0
   -2.6380    3.7380   -1.9450 C   0  0  0  0  0  0  0  0  0  0  0  0
   -1.4460    3.6710   -1.2710 C   0  0  0  0  0  0  0  0  0  0  0  0
   -1.3210    2.4930   -0.7260 O   0  0  0  0  0  0  0  0  0  0  0  0
   -0.5670    0.1880    0.7330 C   0  0  0  0  0  0  0  0  0  0  0  0
   -0.7420    1.2000    1.5810 C   0  0  0  0  0  0  0  0  0  0  0  0
    0.3880    1.8890    2.1650 C   0  0  0  0  0  0  0  0  0  0  0  0
    0.2520    2.8480    2.9710 O   0  0  0  0  0  0  0  0  0  0  0  0
    1.7210    1.4670    1.8170 C   0  0  0  0  0  0  0  0  0  0  0  0
    2.8090    2.0260    2.2910 C   0  0  0  0  0  0  0  0  0  0  0  0
    4.1530    1.5750    1.9190 C   0  0  0  0  0  0  0  0  0  0  0  0
    4.2540    0.2620    1.3860 N   0  0  0  0  0  0  0  0  0  0  0  0
    5.5100    0.1610    0.6570 C   0  0  0  0  0  0  0  0  0  0  0  0
    3.2050   -0.1340    0.4770 C   0  0  0  0  0  0  0  0  0  0  0  0
    1.8760    0.3620    0.8890 C   0  0  0  0  0  0  0  0  0  0  0  0
    0.7840   -0.2180    0.3960 C   0  0  0  0  0  0  0  0  0  0  0  0
   -2.0780   -2.7720   -1.7260 C   0  0  0  0  0  0  0  0  0  0  0  0
   -3.4440   -3.0510   -1.9970 N   0  0  0  0  0  0  0  0  0  0  0  0
   -1.1020   -2.4030   -2.9780 S   0  0  0  0  0  0  0  0  0  0  0  0
  2  1  1  1
  2  3  1  0
  2 24  1  0
  3  4  1  0
  4  5  1  0
  4 12  1  0
  5  6  2  0
  5  7  1  0
  7  8  2  0
  7 11  1  0
  8  9  1  0
  9 10  2  0
 10 11  1  0
 12 13  2  0
 12 23  1  0
 13 14  1  0
 14 15  2  0
 14 16  1  0
 16 17  2  0
 16 22  1  0
 17 18  1  0
 18 19  1  0
 19 20  1  0
 19 21  1  0
 21 22  1  0
 22 23  2  0
 24 25  1  0
 24 26  2  0
M  END
