
     RDKit          3D

 26 28  0  0  0  0  0  0  0  0999 V2000
   -5.0490   -1.9000    0.0850 C   0  0  0  0  0  0  0  0  0  0  0  0
   -4.4290   -0.8850    0.9840 C   0  0  0  0  0  0  0  0  0  0  0  0
   -3.7900    0.2300    0.3260 N   0  0  0  0  0  0  0  0  0  0  0  0
   -2.4130    0.0550   -0.0380 C   0  0  0  0  0  0  0  0  0  0  0  0
   -1.8210    0.9990   -0.6120 O   0  0  0  0  0  0  0  0  0  0  0  0
   -1.6940   -1.2040    0.2490 C   0  0  0  0  0  0  0  0  0  0  0  0
   -0.2840   -1.0880   -0.2460 C   0  0  0  0  0  0  0  0  0  0  0  0
    0.2730   -1.3910   -1.4560 C   0  0  0  0  0  0  0  0  0  0  0  0
    1.5840   -1.1880   -1.6420 C   0  0  0  0  0  0  0  0  0  0  0  0
    2.3090   -0.6860   -0.6100 C   0  0  0  0  0  0  0  0  0  0  0  0
    3.7380   -0.3680   -0.5300 C   0  0  0  0  0  0  0  0  0  0  0  0
    4.5710   -0.5690   -1.6070 C   0  0  0  0  0  0  0  0  0  0  0  0
    5.9150   -0.2690   -1.5280 C   0  0  0  0  0  0  0  0  0  0  0  0
    6.4950    0.2490   -0.3670 C   0  0  0  0  0  0  0  0  0  0  0  0
    5.6630    0.4470    0.7010 C   0  0  0  0  0  0  0  0  0  0  0  0
    4.2930    0.1400    0.6180 C   0  0  0  0  0  0  0  0  0  0  0  0
    6.4770    0.9930    1.8110 C   0  0  0  0  0  0  0  0  0  0  0  0
    7.8370    1.0800    1.2570 C   0  0  0  0  0  0  0  0  0  0  0  0
    8.8280    1.5120    1.9290 O   0  0  0  0  0  0  0  0  0  0  0  0
    7.8390    0.6190   -0.0830 N   0  0  0  0  0  0  0  0  0  0  0  0
    1.1230   -0.4840    0.6790 S   0  0  0  0  0  0  0  0  0  0  0  0
   -4.4070    1.4900    0.0820 C   0  0  2  0  0  0  0  0  0  0  0  0
   -4.8640    2.1850    1.3460 C   0  0  0  0  0  0  0  0  0  0  0  0
   -5.4630    1.4970   -0.9470 C   0  0  0  0  0  0  0  0  0  0  0  0
   -5.7010    0.3680   -1.7440 N   0  0  0  0  0  0  0  0  0  0  0  0
   -6.1660    2.5400   -1.1170 O   0  0  0  0  0  0  0  0  0  0  0  0
  1  2  1  0
  2  3  1  0
  3  4  1  0
  3 22  1  0
  4  5  2  0
  4  6  1  0
  6  7  1  0
  7  8  2  0
  7 21  1  0
  8  9  1  0
  9 10  2  0
 10 11  1  0
 10 21  1  0
 11 12  2  0
 11 16  1  0
 12 13  1  0
 13 14  2  0
 14 15  1  0
 14 20  1  0
 15 16  2  0
 15 17  1  0
 17 18  1  0
 18 19  2  0
 18 20  1  0
 22 23  1  1
 22 24  1  0
 24 25  1  0
 24 26  2  0
M  END
