
     RDKit          3D

 26 28  0  0  0  0  0  0  0  0999 V2000
   -6.2010    1.7980   -0.7180 C   0  0  0  0  0  0  0  0  0  0  0  0
   -6.6320    0.4000   -0.9410 C   0  0  0  0  0  0  0  0  0  0  0  0
   -5.8670   -0.6150   -0.6100 C   0  0  0  0  0  0  0  0  0  0  0  0
   -4.5450   -0.4020   -0.0000 C   0  0  0  0  0  0  0  0  0  0  0  0
   -3.7850   -1.4300    0.3270 C   0  0  0  0  0  0  0  0  0  0  0  0
   -2.5110   -1.1970    0.9150 N   0  0  0  0  0  0  0  0  0  0  0  0
   -2.1500   -1.6720    2.1930 C   0  0  0  0  0  0  0  0  0  0  0  0
   -3.0430   -2.3350    2.8200 O   0  0  0  0  0  0  0  0  0  0  0  0
   -0.8630   -1.4810    2.8690 C   0  0  0  0  0  0  0  0  0  0  0  0
    0.1140   -0.7580    2.1270 N   0  0  0  0  0  0  0  0  0  0  0  0
    0.6500   -1.3280    0.9370 C   0  0  0  0  0  0  0  0  0  0  0  0
    0.2890   -2.5800    0.4930 C   0  0  0  0  0  0  0  0  0  0  0  0
    0.8260   -3.1210   -0.6550 C   0  0  0  0  0  0  0  0  0  0  0  0
    1.7450   -2.3980   -1.3790 C   0  0  0  0  0  0  0  0  0  0  0  0
    2.1460   -1.1250   -0.9750 C   0  0  0  0  0  0  0  0  0  0  0  0
    3.0720   -0.4220   -1.7190 C   0  0  0  0  0  0  0  0  0  0  0  0
    3.4510    0.8290   -1.2980 C   0  0  0  0  0  0  0  0  0  0  0  0
    4.6320    1.7830   -2.2050 S   0  0  1  0  0  0  0  0  0  0  0  0
    5.0310    1.0450   -3.4280 O   0  0  0  0  0  0  0  0  0  0  0  0
    3.9780    3.0660   -2.6400 O   0  0  0  0  0  0  0  0  0  0  0  0
    5.9690    2.0920   -1.1540 N   0  0  0  0  0  0  0  0  0  0  0  0
    5.4870    2.8560   -0.0240 C   0  0  0  0  0  0  0  0  0  0  0  0
    2.9150    1.3900   -0.1360 C   0  0  0  0  0  0  0  0  0  0  0  0
    1.9480    0.6270    0.6210 C   0  0  0  0  0  0  0  0  0  0  0  0
    1.5860   -0.6180    0.1790 C   0  0  0  0  0  0  0  0  0  0  0  0
    2.3360    1.9610    1.0930 C   0  0  0  0  0  0  0  0  0  0  0  0
  1  2  1  0
  2  3  2  3
  3  4  1  0
  4  5  2  3
  5  6  1  0
  6  7  1  0
  7  8  2  0
  7  9  1  0
  9 10  1  0
 10 11  1  0
 11 12  2  0
 11 25  1  0
 12 13  1  0
 13 14  2  0
 14 15  1  0
 15 16  2  0
 15 25  1  0
 16 17  1  0
 17 18  1  0
 17 23  2  0
 18 19  2  0
 18 20  2  0
 18 21  1  1
 21 22  1  0
 23 24  1  0
 23 26  1  0
 24 25  2  0
 24 26  1  0
M  END
