
     RDKit          3D

 16 18  0  0  0  0  0  0  0  0999 V2000
   -1.8940   -1.4440   -2.3690 O   0  0  0  0  0  0  0  0  0  0  0  0
   -1.7230   -1.6080   -0.8660 S   0  0  1  0  0  0  0  0  0  0  0  0
   -2.8810   -2.4180   -0.3370 O   0  0  0  0  0  0  0  0  0  0  0  0
   -0.2480   -2.3760   -0.5610 N   0  0  0  0  0  0  0  0  0  0  0  0
    0.6390   -1.7000    0.3550 C   0  0  0  0  0  0  0  0  0  0  0  0
    0.7130   -0.2900    0.2100 N   0  0  0  0  0  0  0  0  0  0  0  0
    1.9250    0.4570   -0.0230 C   0  0  2  0  0  0  0  0  0  0  0  0
    2.7990    0.1590   -1.1750 C   0  0  0  0  0  0  0  0  0  0  0  0
    3.2810   -0.1610    0.2640 C   0  0  0  0  0  0  0  0  0  0  0  0
   -0.5140    0.4650    0.3060 C   0  0  0  0  0  0  0  0  0  0  0  0
   -0.5430    1.7310    0.8710 C   0  0  0  0  0  0  0  0  0  0  0  0
   -1.7280    2.4660    0.9650 C   0  0  0  0  0  0  0  0  0  0  0  0
   -2.8940    1.9150    0.4840 C   0  0  0  0  0  0  0  0  0  0  0  0
   -4.0490    2.6150    0.5690 F   0  0  0  0  0  0  0  0  0  0  0  0
   -2.9040    0.6530   -0.0860 C   0  0  0  0  0  0  0  0  0  0  0  0
   -1.7160   -0.0280   -0.1550 C   0  0  0  0  0  0  0  0  0  0  0  0
  1  2  2  0
  2  3  2  0
  2  4  1  6
  2 16  1  0
  4  5  1  0
  5  6  1  0
  7  6  1  6
  6 10  1  0
  7  8  1  0
  7  9  1  0
  8  9  1  0
 10 11  2  0
 10 16  1  0
 11 12  1  0
 12 13  2  0
 13 14  1  0
 13 15  1  0
 15 16  2  0
M  END
