
     RDKit          3D

 26 28  0  0  0  0  0  0  0  0999 V2000
   -4.4140   -2.8990    0.0870 C   0  0  0  0  0  0  0  0  0  0  0  0
   -3.4390   -3.0440   -0.7360 N   0  0  0  0  0  0  0  0  0  0  0  0
   -2.2260   -2.3410   -0.4670 C   0  0  0  0  0  0  0  0  0  0  0  0
   -1.0340   -3.0150   -0.2350 C   0  0  0  0  0  0  0  0  0  0  0  0
   -1.0370   -4.4570   -0.2570 C   0  0  0  0  0  0  0  0  0  0  0  0
   -2.0790   -5.1290   -0.4830 O   0  0  0  0  0  0  0  0  0  0  0  0
    0.0630   -2.2480    0.0070 C   0  0  0  0  0  0  0  0  0  0  0  0
    1.3720   -2.9860    0.2280 C   0  0  0  0  0  0  0  0  0  0  0  0
    0.0430   -0.8770    0.0330 C   0  0  0  0  0  0  0  0  0  0  0  0
    1.3230   -0.2240    0.2200 C   0  0  0  0  0  0  0  0  0  0  0  0
    1.6090    0.6540   -0.6680 O   0  0  0  0  0  0  0  0  0  0  0  0
    2.2450   -0.4510    1.2500 N   0  0  0  0  0  0  0  0  0  0  0  0
    3.4720    0.3060    1.2840 C   0  0  0  0  0  0  0  0  0  0  0  0
    4.3260    0.1500    0.0890 C   0  0  0  0  0  0  0  0  0  0  0  0
    5.5640    0.8870    0.0870 N   0  0  0  0  0  0  0  0  0  0  0  0
    4.0710   -0.5550   -0.9020 O   0  0  0  0  0  0  0  0  0  0  0  0
   -1.1580   -0.1550   -0.1910 C   0  0  0  0  0  0  0  0  0  0  0  0
   -1.3790    1.1710   -0.1880 C   0  0  0  0  0  0  0  0  0  0  0  0
   -2.6560    1.6280   -0.4440 C   0  0  0  0  0  0  0  0  0  0  0  0
   -3.5770    0.2070   -0.6810 S   0  0  0  0  0  0  0  0  0  0  0  0
   -2.2590   -0.9700   -0.4400 C   0  0  0  0  0  0  0  0  0  0  0  0
   -2.9520    3.0800   -0.4750 C   0  0  0  0  0  0  0  0  0  0  0  0
   -1.8430    3.7250   -1.2530 C   0  0  0  0  0  0  0  0  0  0  0  0
   -0.4680    3.4840   -0.7110 C   0  0  0  0  0  0  0  0  0  0  0  0
   -0.4880    2.3090    0.1920 C   0  0  0  0  0  0  0  0  0  0  0  0
    0.2100    2.2940    1.3180 C   0  0  0  0  0  0  0  0  0  0  0  0
  1  2  2  0
  2  3  1  0
  3  4  2  0
  3 21  1  0
  4  5  1  0
  4  7  1  0
  5  6  2  0
  7  8  1  0
  7  9  2  0
  9 10  1  0
  9 17  1  0
 10 11  2  0
 10 12  1  0
 12 13  1  0
 13 14  1  0
 14 15  1  0
 14 16  2  0
 17 18  1  0
 17 21  2  0
 18 19  2  0
 18 25  1  0
 19 20  1  0
 19 22  1  0
 20 21  1  0
 22 23  1  0
 23 24  1  0
 24 25  1  0
 25 26  2  0
M  END
