
     RDKit          3D

 26 28  0  0  0  0  0  0  0  0999 V2000
    0.5970   -0.4210    0.4350 O   0  0  0  0  0  0  0  0  0  0  0  0
    0.2840    0.7700    0.5420 C   0  0  0  0  0  0  0  0  0  0  0  0
   -1.1610    1.1950    0.6760 C   0  0  0  0  0  0  0  0  0  0  0  0
   -1.9860   -0.0390    0.6480 C   0  0  0  0  0  0  0  0  0  0  0  0
   -2.9150   -0.2520   -0.2750 C   0  0  0  0  0  0  0  0  0  0  0  0
   -3.7510   -1.4550   -0.3390 C   0  0  1  0  0  0  0  0  0  0  0  0
   -3.9810   -2.0320    0.9040 O   0  0  0  0  0  0  0  0  0  0  0  0
   -5.1080   -2.8570    0.6720 C   0  0  0  0  0  0  0  0  0  0  0  0
   -5.9770   -1.9480   -0.1380 C   0  0  0  0  0  0  0  0  0  0  0  0
   -7.3400   -1.8740   -0.3190 C   0  0  0  0  0  0  0  0  0  0  0  0
   -7.8200   -0.8880   -1.1550 C   0  0  0  0  0  0  0  0  0  0  0  0
   -6.9500   -0.0120   -1.7820 C   0  0  0  0  0  0  0  0  0  0  0  0
   -5.6230   -0.1110   -1.5840 N   0  0  0  0  0  0  0  0  0  0  0  0
   -5.1190   -1.0710   -0.7680 C   0  0  0  0  0  0  0  0  0  0  0  0
    1.2710    1.7760    0.5420 N   0  0  0  0  0  0  0  0  0  0  0  0
    2.6730    1.5720    0.4260 C   0  0  0  0  0  0  0  0  0  0  0  0
    3.3040    0.3780    0.2960 C   0  0  0  0  0  0  0  0  0  0  0  0
    4.6880    0.2200    0.1840 C   0  0  0  0  0  0  0  0  0  0  0  0
    5.2330   -1.1060    0.0510 C   0  0  0  0  0  0  0  0  0  0  0  0
    6.4900   -1.4100   -0.0610 C   0  0  0  0  0  0  0  0  0  0  0  0
    7.6310   -0.5880   -0.0850 N   0  0  0  0  0  0  0  0  0  0  0  0
    8.3140   -0.1560   -1.6570 S   0  0  0  0  0  0  0  0  0  0  0  0
    5.4360    1.3420    0.2100 C   0  0  0  0  0  0  0  0  0  0  0  0
    4.8590    2.6190    0.3420 C   0  0  0  0  0  0  0  0  0  0  0  0
    3.5110    2.7040    0.4460 C   0  0  0  0  0  0  0  0  0  0  0  0
    2.9110    3.9640    0.5780 O   0  0  0  0  0  0  0  0  0  0  0  0
  1  2  2  0
  2  3  1  0
  2 15  1  0
  3  4  1  0
  4  5  2  3
  6  5  1  1
  6  7  1  0
  6 14  1  0
  7  8  1  0
  8  9  1  0
  9 10  2  0
  9 14  1  0
 10 11  1  0
 11 12  2  0
 12 13  1  0
 13 14  2  0
 15 16  1  0
 16 17  2  0
 16 25  1  0
 17 18  1  0
 18 19  1  0
 18 23  2  0
 19 20  2  3
 20 21  1  0
 21 22  1  0
 23 24  1  0
 24 25  2  0
 25 26  1  0
M  END
