
     RDKit          3D

 26 28  0  0  0  0  0  0  0  0999 V2000
   -6.3260    0.2630   -0.8890 C   0  0  0  0  0  0  0  0  0  0  0  0
   -5.4710   -0.7020   -0.6320 C   0  0  0  0  0  0  0  0  0  0  0  0
   -4.0560   -0.5440   -0.3880 C   0  0  0  0  0  0  0  0  0  0  0  0
   -3.2080   -1.5020   -0.8940 C   0  0  0  0  0  0  0  0  0  0  0  0
   -3.6790   -2.6620   -1.6850 C   0  0  0  0  0  0  0  0  0  0  0  0
   -1.8300   -1.4120   -0.6740 C   0  0  0  0  0  0  0  0  0  0  0  0
   -1.3070   -0.3790    0.0430 C   0  0  0  0  0  0  0  0  0  0  0  0
    0.1290   -0.2630    0.2890 C   0  0  0  0  0  0  0  0  0  0  0  0
    1.0780   -1.5750   -0.4380 S   0  0  2  0  0  0  0  0  0  0  0  0
    0.9000   -1.6030   -1.9330 O   0  0  0  0  0  0  0  0  0  0  0  0
    0.6390   -2.8600    0.2080 O   0  0  0  0  0  0  0  0  0  0  0  0
    2.7090   -1.3170   -0.0740 N   0  0  0  0  0  0  0  0  0  0  0  0
    3.0860   -1.3120    1.2600 C   0  0  0  0  0  0  0  0  0  0  0  0
    4.5410   -1.0660    1.4490 C   0  0  0  0  0  0  0  0  0  0  0  0
    4.8550    0.2450    0.7170 C   0  0  0  0  0  0  0  0  0  0  0  0
    4.7150   -0.0530   -0.7540 C   0  0  2  0  0  0  0  0  0  0  0  0
    4.6630    1.2540   -1.4610 C   0  0  0  0  0  0  0  0  0  0  0  0
    5.7550    2.1390   -1.3470 N   0  0  0  0  0  0  0  0  0  0  0  0
    3.6760    1.5860   -2.1530 O   0  0  0  0  0  0  0  0  0  0  0  0
    3.5640   -0.9380   -1.0890 C   0  0  0  0  0  0  0  0  0  0  0  0
   -2.1450    0.5850    0.5570 C   0  0  0  0  0  0  0  0  0  0  0  0
   -1.8850    1.6740    1.2970 N   0  0  0  0  0  0  0  0  0  0  0  0
   -3.0110    2.3280    1.5930 C   0  0  0  0  0  0  0  0  0  0  0  0
   -3.2230    3.5720    2.3800 C   0  0  0  0  0  0  0  0  0  0  0  0
   -4.0420    1.5930    0.9940 C   0  0  0  0  0  0  0  0  0  0  0  0
   -3.5310    0.4960    0.3360 C   0  0  0  0  0  0  0  0  0  0  0  0
  1  2  2  0
  2  3  1  0
  3  4  2  0
  3 26  1  0
  4  5  1  0
  4  6  1  0
  6  7  2  0
  7  8  1  0
  7 21  1  0
  9  8  1  1
  9 10  2  0
  9 11  2  0
  9 12  1  0
 12 13  1  0
 12 20  1  0
 13 14  1  0
 14 15  1  0
 15 16  1  0
 16 17  1  6
 16 20  1  0
 17 18  1  0
 17 19  2  0
 21 22  1  0
 21 26  2  0
 22 23  1  0
 23 24  1  0
 23 25  2  0
 25 26  1  0
M  END
