
     RDKit          3D

 25 27  0  0  0  0  0  0  0  0999 V2000
    7.6810   -1.2000   -0.1570 C   0  0  0  0  0  0  0  0  0  0  0  0
    6.2980   -1.4120    0.0000 O   0  0  0  0  0  0  0  0  0  0  0  0
    5.3740   -0.3770   -0.0280 C   0  0  0  0  0  0  0  0  0  0  0  0
    5.7840    0.9190   -0.2130 C   0  0  0  0  0  0  0  0  0  0  0  0
    4.8070    1.8850   -0.2280 C   0  0  0  0  0  0  0  0  0  0  0  0
    3.4870    1.5540   -0.0630 C   0  0  0  0  0  0  0  0  0  0  0  0
    3.0430    0.2500    0.1260 C   0  0  0  0  0  0  0  0  0  0  0  0
    1.6000   -0.0600    0.3000 C   0  0  0  0  0  0  0  0  0  0  0  0
    1.0830   -1.2620    0.4850 C   0  0  0  0  0  0  0  0  0  0  0  0
   -0.6830   -1.0010    0.6250 S   0  0  0  0  0  0  0  0  0  0  0  0
   -0.4430    0.8710    0.3920 C   0  0  0  0  0  0  0  0  0  0  0  0
   -1.6670    1.7550    0.4100 C   0  0  0  0  0  0  0  0  0  0  0  0
   -2.2210    1.9060   -0.9880 C   0  0  0  0  0  0  0  0  0  0  0  0
   -2.6080    0.6470   -1.5830 N   0  0  0  0  0  0  0  0  0  0  0  0
   -3.6080   -0.1540   -1.0000 C   0  0  0  0  0  0  0  0  0  0  0  0
   -3.9670   -1.3650   -1.5850 C   0  0  0  0  0  0  0  0  0  0  0  0
   -4.9440   -2.1710   -1.0390 C   0  0  0  0  0  0  0  0  0  0  0  0
   -5.5840   -1.7690    0.1140 C   0  0  0  0  0  0  0  0  0  0  0  0
   -5.2240   -0.5710    0.6850 C   0  0  0  0  0  0  0  0  0  0  0  0
   -5.9090   -0.1270    1.9310 C   0  0  0  0  0  0  0  0  0  0  0  0
   -7.0270    0.6250    1.5080 O   0  0  0  0  0  0  0  0  0  0  0  0
   -4.2710    0.1700    0.1150 N   0  0  0  0  0  0  0  0  0  0  0  0
    0.6750    0.9170    0.2790 N   0  0  0  0  0  0  0  0  0  0  0  0
    4.0190   -0.7140    0.1410 C   0  0  0  0  0  0  0  0  0  0  0  0
    3.6750   -2.0450    0.3240 O   0  0  0  0  0  0  0  0  0  0  0  0
  1  2  1  0
  2  3  1  0
  3  4  2  0
  3 24  1  0
  4  5  1  0
  5  6  2  0
  6  7  1  0
  7  8  1  0
  7 24  2  0
  8  9  2  0
  8 23  1  0
  9 10  1  0
 10 11  1  0
 11 12  1  0
 11 23  2  0
 12 13  1  0
 13 14  1  0
 14 15  1  0
 15 16  2  0
 15 22  1  0
 16 17  1  0
 17 18  2  0
 18 19  1  0
 19 20  1  0
 19 22  2  0
 20 21  1  0
 24 25  1  0
M  END
