
     RDKit          3D

 27 28  0  0  0  0  0  0  0  0999 V2000
   -3.1560    2.5160   -1.6520 C   0  0  0  0  0  0  0  0  0  0  0  0
   -4.0980    1.6040   -0.9140 C   0  0  0  0  0  0  0  0  0  0  0  0
   -5.3820    1.3410   -1.2120 N   0  0  0  0  0  0  0  0  0  0  0  0
   -5.8480    0.4650   -0.2810 C   0  0  0  0  0  0  0  0  0  0  0  0
   -4.8320    0.1830    0.6070 C   0  0  0  0  0  0  0  0  0  0  0  0
   -4.9010   -0.6840    1.7270 N   0  0  0  0  0  0  0  0  0  0  0  0
   -5.9730   -1.2790    1.9780 O   0  0  0  0  0  0  0  0  0  0  0  0
   -3.8540   -0.9100    2.5560 O   0  0  0  0  0  0  0  0  0  0  0  0
   -3.7690    0.8930    0.1990 N   0  0  0  0  0  0  0  0  0  0  0  0
   -2.4870    0.9070    0.8290 C   0  0  0  0  0  0  0  0  0  0  0  0
   -1.5850   -0.1820    0.2490 C   0  0  0  0  0  0  0  0  0  0  0  0
   -0.3340   -0.1150    0.9150 O   0  0  0  0  0  0  0  0  0  0  0  0
    0.7110   -0.9690    0.6230 C   0  0  0  0  0  0  0  0  0  0  0  0
    0.4930   -1.8310   -0.2870 O   0  0  0  0  0  0  0  0  0  0  0  0
    1.9710   -0.9300    1.2670 N   0  0  0  0  0  0  0  0  0  0  0  0
    3.0580   -1.8490    0.9340 C   0  0  1  0  0  0  0  0  0  0  0  0
    4.2210   -1.1080    0.4910 N   0  0  0  0  0  0  0  0  0  0  0  0
    4.1170   -0.2740   -0.6520 C   0  0  0  0  0  0  0  0  0  0  0  0
    5.1510    0.4450   -1.1240 N   0  0  0  0  0  0  0  0  0  0  0  0
    5.0480    1.2240   -2.1950 C   0  0  0  0  0  0  0  0  0  0  0  0
    3.8520    1.3270   -2.8740 C   0  0  0  0  0  0  0  0  0  0  0  0
    2.7820    0.5990   -2.4050 C   0  0  0  0  0  0  0  0  0  0  0  0
    2.9550   -0.1640   -1.3250 N   0  0  0  0  0  0  0  0  0  0  0  0
    3.4270   -2.6870    2.1560 C   0  0  1  0  0  0  0  0  0  0  0  0
    1.9880   -3.6100    2.6530 Cl  0  0  0  0  0  0  0  0  0  0  0  0
    4.7140   -3.8020    1.7190 Cl  0  0  0  0  0  0  0  0  0  0  0  0
    3.9750   -1.5980    3.4510 Cl  0  0  0  0  0  0  0  0  0  0  0  0
  1  2  1  0
  2  3  2  0
  2  9  1  0
  3  4  1  0
  4  5  2  0
  5  6  1  0
  5  9  1  0
  6  7  2  0
  6  8  1  0
  9 10  1  0
 10 11  1  0
 11 12  1  0
 12 13  1  0
 13 14  2  0
 13 15  1  0
 16 15  1  1
 16 17  1  0
 16 24  1  0
 17 18  1  0
 18 19  2  0
 18 23  1  0
 19 20  1  0
 20 21  2  0
 21 22  1  0
 22 23  2  0
 24 25  1  1
 24 26  1  0
 24 27  1  0
M  CHG  2   6   1   8  -1
M  END
