
     RDKit          3D

 24 25  0  0  0  0  0  0  0  0999 V2000
    6.7930    1.3360   -0.1610 C   0  0  0  0  0  0  0  0  0  0  0  0
    5.6690    0.3820   -0.0060 C   0  0  0  0  0  0  0  0  0  0  0  0
    4.4500    0.5770   -0.3660 C   0  0  0  0  0  0  0  0  0  0  0  0
    4.0160    2.1330   -1.1500 Cl  0  0  0  0  0  0  0  0  0  0  0  0
    3.3750   -0.3120   -0.0230 C   0  0  0  0  0  0  0  0  0  0  0  0
    2.1250   -0.2060   -0.3900 C   0  0  0  0  0  0  0  0  0  0  0  0
    1.1980   -1.2060    0.0870 C   0  0  0  0  0  0  0  0  0  0  0  0
    0.5620   -1.8900    0.4320 C   0  0  0  0  0  0  0  0  0  0  0  0
   -0.3800   -2.9290    0.9720 C   0  0  0  0  0  0  0  0  0  0  0  0
   -1.2090   -2.2920    1.8630 O   0  0  0  0  0  0  0  0  0  0  0  0
   -2.4390   -1.9690    2.1400 C   0  0  0  0  0  0  0  0  0  0  0  0
   -3.3740   -2.6070    2.9050 N   0  0  0  0  0  0  0  0  0  0  0  0
   -4.4640   -1.9790    2.9590 O   0  0  0  0  0  0  0  0  0  0  0  0
   -4.3520   -0.8110    2.1970 C   0  0  0  0  0  0  0  0  0  0  0  0
   -3.1450   -0.8260    1.7180 C   0  0  0  0  0  0  0  0  0  0  0  0
   -2.4940    0.1700    0.7860 C   0  0  0  0  0  0  0  0  0  0  0  0
   -2.9680    0.0610   -0.5540 N   0  0  0  0  0  0  0  0  0  0  0  0
   -4.2580    0.6010   -0.7350 C   0  0  0  0  0  0  0  0  0  0  0  0
   -2.0040    0.3490   -1.5170 C   0  0  0  0  0  0  0  0  0  0  0  0
   -1.5730    1.6520   -1.8650 C   0  0  0  0  0  0  0  0  0  0  0  0
   -2.2970    2.2860   -2.7540 O   0  0  0  0  0  0  0  0  0  0  0  0
   -0.3910    2.3050   -1.3230 N   0  0  0  0  0  0  0  0  0  0  0  0
    0.6450    1.4730   -1.2380 N   0  0  0  0  0  0  0  0  0  0  0  0
    1.6260    0.8170   -1.3500 C   0  0  0  0  0  0  0  0  0  0  0  0
  1  2  1  0
  2  3  2  3
  3  4  1  0
  3  5  1  0
  5  6  2  3
  6  7  1  0
  6 24  1  0
  7  8  3  0
  8  9  1  0
  9 10  1  0
 10 11  1  0
 11 12  2  0
 11 15  1  0
 12 13  1  0
 13 14  1  0
 14 15  2  0
 15 16  1  0
 16 17  1  0
 17 18  1  0
 17 19  1  0
 19 20  1  0
 20 21  2  0
 20 22  1  0
 22 23  1  0
 23 24  2  0
M  END
