
     RDKit          3D

 24 25  0  0  0  0  0  0  0  0999 V2000
    5.0690    1.3640   -0.6470 C   0  0  0  0  0  0  0  0  0  0  0  0
    4.9200   -0.1050   -0.2610 C   0  0  0  0  0  0  0  0  0  0  0  0
    3.6930   -0.6900   -0.7810 C   0  0  0  0  0  0  0  0  0  0  0  0
    3.7920   -1.7680   -1.6090 C   0  0  0  0  0  0  0  0  0  0  0  0
    5.1230   -2.2000   -1.8570 C   0  0  0  0  0  0  0  0  0  0  0  0
    6.2770   -2.5570   -2.0850 N   0  0  0  0  0  0  0  0  0  0  0  0
    2.6380   -2.4130   -2.1150 N   0  0  0  0  0  0  0  0  0  0  0  0
    1.3030   -1.9450   -1.7490 C   0  0  0  0  0  0  0  0  0  0  0  0
    0.3360   -2.5450   -2.2190 O   0  0  0  0  0  0  0  0  0  0  0  0
    1.1800   -0.8150   -0.8650 C   0  0  0  0  0  0  0  0  0  0  0  0
    0.0770   -0.3450   -0.3410 C   0  0  0  0  0  0  0  0  0  0  0  0
   -1.2500   -0.8500   -0.5210 C   0  0  0  0  0  0  0  0  0  0  0  0
   -2.2690   -0.2540    0.1690 C   0  0  0  0  0  0  0  0  0  0  0  0
   -3.5870   -0.5950    0.1280 O   0  0  0  0  0  0  0  0  0  0  0  0
   -4.2860    0.2680    1.0100 C   0  0  0  0  0  0  0  0  0  0  0  0
   -5.6200    0.0440    1.0990 C   0  0  0  0  0  0  0  0  0  0  0  0
   -6.6380    0.6600    1.8400 C   0  0  0  0  0  0  0  0  0  0  0  0
   -6.8290    1.5640    2.6210 N   0  0  0  0  0  0  0  0  0  0  0  0
   -3.5880    1.1790    1.6560 C   0  0  0  0  0  0  0  0  0  0  0  0
   -3.2950    2.1880    2.4720 C   0  0  0  0  0  0  0  0  0  0  0  0
   -1.9410    3.0130    2.8960 Cl  0  0  0  0  0  0  0  0  0  0  0  0
   -2.1050    0.8160    1.0630 C   0  0  0  0  0  0  0  0  0  0  0  0
   -1.1490    1.4610    1.4340 O   0  0  0  0  0  0  0  0  0  0  0  0
    2.4220   -0.2290   -0.4180 N   0  0  0  0  0  0  0  0  0  0  0  0
  1  2  1  0
  2  3  1  0
  3  4  2  0
  3 24  1  0
  4  5  1  0
  4  7  1  0
  5  6  3  0
  7  8  1  0
  8  9  2  0
  8 10  1  0
 10 11  2  3
 10 24  1  0
 11 12  1  0
 12 13  2  3
 13 14  1  0
 13 22  1  0
 14 15  1  0
 15 16  2  3
 15 19  1  0
 16 17  1  0
 17 18  2  0
 19 20  2  3
 19 22  1  0
 20 21  1  0
 22 23  2  0
M  END
