
     RDKit          3D

 24 25  0  0  0  0  0  0  0  0999 V2000
   -3.0360    1.4360    0.0430 C   0  0  0  0  0  0  0  0  0  0  0  0
   -2.5960    0.0070    0.2520 C   0  0  0  0  0  0  0  0  0  0  0  0
   -3.5370   -0.8880   -0.0760 C   0  0  0  0  0  0  0  0  0  0  0  0
   -4.8150   -0.4340   -0.5760 N   0  0  0  0  0  0  0  0  0  0  0  0
   -3.2450   -2.2850    0.1040 C   0  0  0  0  0  0  0  0  0  0  0  0
   -4.1180   -3.1340   -0.2040 O   0  0  0  0  0  0  0  0  0  0  0  0
   -1.9810   -2.6340    0.6230 N   0  0  0  0  0  0  0  0  0  0  0  0
   -0.9640   -1.6650    0.9830 C   0  0  0  0  0  0  0  0  0  0  0  0
    0.1580   -2.1200    1.5460 C   0  0  0  0  0  0  0  0  0  0  0  0
    1.3810   -1.5910    2.0550 C   0  0  0  0  0  0  0  0  0  0  0  0
    2.5280   -1.1830    1.5450 C   0  0  0  0  0  0  0  0  0  0  0  0
    3.1240   -1.0580    0.2630 C   0  0  0  0  0  0  0  0  0  0  0  0
    3.8770   -2.0580   -0.1640 O   0  0  0  0  0  0  0  0  0  0  0  0
    3.1140   -0.0510   -0.7450 N   0  0  0  0  0  0  0  0  0  0  0  0
    2.8050   -0.5070   -2.1180 C   0  0  0  0  0  0  0  0  0  0  0  0
    3.4090    1.3660   -0.6010 C   0  0  0  0  0  0  0  0  0  0  0  0
    2.3440    1.9420    0.2550 C   0  0  0  0  0  0  0  0  0  0  0  0
    1.1330    2.2470   -0.3850 O   0  0  0  0  0  0  0  0  0  0  0  0
    0.1130    1.3180   -0.3690 C   0  0  0  0  0  0  0  0  0  0  0  0
   -0.3890    0.9120   -1.5200 C   0  0  0  0  0  0  0  0  0  0  0  0
    0.1070    1.4330   -2.8050 C   0  0  0  0  0  0  0  0  0  0  0  0
   -1.2330    2.2580   -3.6870 Cl  0  0  0  0  0  0  0  0  0  0  0  0
   -0.4100    0.7960    0.9570 C   0  0  0  0  0  0  0  0  0  0  0  0
   -1.3180   -0.3260    0.7710 N   0  0  0  0  0  0  0  0  0  0  0  0
  1  2  1  0
  2  3  2  0
  2 24  1  0
  3  4  1  0
  3  5  1  0
  5  6  2  0
  5  7  1  0
  7  8  1  0
  8  9  2  0
  8 24  1  0
  9 10  1  0
 10 11  2  0
 11 12  1  0
 12 13  2  0
 12 14  1  0
 14 15  1  0
 14 16  1  0
 16 17  1  0
 17 18  1  0
 18 19  1  0
 19 20  2  3
 19 23  1  0
 20 21  1  0
 21 22  1  0
 23 24  1  0
M  END
