
     RDKit          3D

 24 25  0  0  0  0  0  0  0  0999 V2000
    5.0060   -1.6030   -0.5590 C   0  0  0  0  0  0  0  0  0  0  0  0
    4.1450   -1.3600    0.6600 C   0  0  0  0  0  0  0  0  0  0  0  0
    2.8710   -0.7870    0.1500 N   0  0  0  0  0  0  0  0  0  0  0  0
    2.9580    0.6980    0.1120 C   0  0  0  0  0  0  0  0  0  0  0  0
    1.6160    1.3430   -0.0290 C   0  0  0  0  0  0  0  0  0  0  0  0
    0.7280    1.3360    1.0300 C   0  0  0  0  0  0  0  0  0  0  0  0
    0.8640    0.9080    2.4150 O   0  0  0  0  0  0  0  0  0  0  0  0
   -0.6070    1.8110    0.9000 C   0  0  0  0  0  0  0  0  0  0  0  0
   -1.1410    2.3130   -0.2650 C   0  0  0  0  0  0  0  0  0  0  0  0
   -0.2310    2.3160   -1.2990 C   0  0  0  0  0  0  0  0  0  0  0  0
    1.1160    1.8480   -1.2010 C   0  0  0  0  0  0  0  0  0  0  0  0
    1.8780    2.1190   -2.8500 Cl  0  0  0  0  0  0  0  0  0  0  0  0
   -2.5570    2.6720   -0.4130 N   0  0  0  0  0  0  0  0  0  0  0  0
   -3.4860    1.5570   -0.6580 C   0  0  0  0  0  0  0  0  0  0  0  0
   -4.3620    1.7780   -1.5790 O   0  0  0  0  0  0  0  0  0  0  0  0
   -3.5200    0.2760    0.0090 C   0  0  0  0  0  0  0  0  0  0  0  0
   -4.8470   -0.0210    0.7440 C   0  0  0  0  0  0  0  0  0  0  0  0
   -2.6080   -0.7230    0.0180 C   0  0  0  0  0  0  0  0  0  0  0  0
   -3.0850   -1.9010    0.8920 C   0  0  0  0  0  0  0  0  0  0  0  0
   -1.4420   -0.8760   -0.6280 N   0  0  0  0  0  0  0  0  0  0  0  0
   -0.4390   -0.9360   -1.2950 C   0  0  0  0  0  0  0  0  0  0  0  0
    0.8030   -1.6510   -1.1280 N   0  0  0  0  0  0  0  0  0  0  0  0
    1.8180   -1.6260   -0.1880 C   0  0  0  0  0  0  0  0  0  0  0  0
    1.7870   -2.6970    0.6190 O   0  0  0  0  0  0  0  0  0  0  0  0
  1  2  1  0
  2  3  1  0
  3  4  1  0
  3 23  1  0
  4  5  1  0
  5  6  2  0
  5 11  1  0
  6  7  1  0
  6  8  1  0
  8  9  2  0
  9 10  1  0
  9 13  1  0
 10 11  2  0
 11 12  1  0
 13 14  1  0
 14 15  2  0
 14 16  1  0
 16 17  1  0
 16 18  2  0
 18 19  1  0
 18 20  1  0
 20 21  2  0
 21 22  1  0
 22 23  1  0
 23 24  2  0
M  END
