
     RDKit          3D

 24 25  0  0  0  0  0  0  0  0999 V2000
   -0.1670   -1.4760   -1.3620 C   0  0  0  0  0  0  0  0  0  0  0  0
   -1.2140   -2.0180   -0.4270 C   0  0  2  0  0  0  0  0  0  0  0  0
   -2.4940   -1.3980   -0.7170 C   0  0  0  0  0  0  0  0  0  0  0  0
   -3.1210   -0.3010   -0.4330 C   0  0  0  0  0  0  0  0  0  0  0  0
   -2.8970    0.9070    0.3180 C   0  0  0  0  0  0  0  0  0  0  0  0
   -3.4420    0.8340    1.7100 N   0  0  0  0  0  0  0  0  0  0  0  0
   -2.3320    2.0840   -0.0020 C   0  0  0  0  0  0  0  0  0  0  0  0
   -1.7290    2.6210   -1.1780 C   0  0  0  0  0  0  0  0  0  0  0  0
   -0.4720    3.0190   -1.4700 C   0  0  0  0  0  0  0  0  0  0  0  0
   -0.3970    3.6020   -3.2190 Cl  0  0  0  0  0  0  0  0  0  0  0  0
    0.6600    3.1120   -0.7830 N   0  0  0  0  0  0  0  0  0  0  0  0
    1.6730    3.2680   -0.1290 C   0  0  0  0  0  0  0  0  0  0  0  0
    2.6940    2.1830   -0.1430 C   0  0  0  0  0  0  0  0  0  0  0  0
    2.5620    0.9040    0.2200 C   0  0  0  0  0  0  0  0  0  0  0  0
    3.8610    0.1870    0.0210 C   0  0  0  0  0  0  0  0  0  0  0  0
    4.9000    0.8410   -0.3850 O   0  0  0  0  0  0  0  0  0  0  0  0
    4.0350   -1.1940    0.2550 N   0  0  0  0  0  0  0  0  0  0  0  0
    2.8810   -1.8700    0.6940 C   0  0  0  0  0  0  0  0  0  0  0  0
    3.0070   -3.1420    0.9180 O   0  0  0  0  0  0  0  0  0  0  0  0
    1.5770   -1.2370    0.9110 N   0  0  0  0  0  0  0  0  0  0  0  0
    0.6160   -2.2470    1.3010 C   0  0  0  0  0  0  0  0  0  0  0  0
   -0.8240   -2.1620    1.0070 C   0  0  0  0  0  0  0  0  0  0  0  0
    1.4190    0.1560    0.6790 C   0  0  0  0  0  0  0  0  0  0  0  0
    0.2460    0.7390    0.8990 O   0  0  0  0  0  0  0  0  0  0  0  0
  2  1  1  6
  2  3  1  0
  2 22  1  0
  3  4  2  0
  4  5  1  0
  5  6  1  0
  5  7  2  0
  7  8  1  0
  8  9  2  0
  9 10  1  0
  9 11  1  0
 11 12  2  0
 12 13  1  0
 13 14  2  0
 14 15  1  0
 14 23  1  0
 15 16  2  0
 15 17  1  0
 17 18  1  0
 18 19  2  0
 18 20  1  0
 20 21  1  0
 20 23  1  0
 21 22  1  0
 23 24  2  0
M  END
