
     RDKit          3D

 21 22  0  0  0  0  0  0  0  0999 V2000
   -5.4950    0.6750    1.3150 C   0  0  0  0  0  0  0  0  0  0  0  0
   -4.6030    1.0720    0.3190 O   0  0  0  0  0  0  0  0  0  0  0  0
   -3.4740    0.3850   -0.0720 C   0  0  0  0  0  0  0  0  0  0  0  0
   -3.4980   -0.5450   -1.0570 C   0  0  0  0  0  0  0  0  0  0  0  0
   -4.9830   -0.9560   -1.9270 Cl  0  0  0  0  0  0  0  0  0  0  0  0
   -2.3320   -1.2350   -1.4400 C   0  0  0  0  0  0  0  0  0  0  0  0
   -2.4610   -2.1440   -2.4350 O   0  0  0  0  0  0  0  0  0  0  0  0
   -1.1040   -0.9660   -0.7960 C   0  0  0  0  0  0  0  0  0  0  0  0
    0.0480   -1.6340   -1.1590 C   0  0  0  0  0  0  0  0  0  0  0  0
   -0.0070   -2.5060   -2.0930 O   0  0  0  0  0  0  0  0  0  0  0  0
    1.2600   -1.4820   -0.6430 N   0  0  0  0  0  0  0  0  0  0  0  0
    1.6560   -0.6760    0.3230 C   0  0  0  0  0  0  0  0  0  0  0  0
    3.0320   -0.5710    0.8390 C   0  0  0  0  0  0  0  0  0  0  0  0
    3.7790    0.4630    0.0660 C   0  0  0  0  0  0  0  0  0  0  0  0
    3.2160    1.0610   -0.8360 O   0  0  0  0  0  0  0  0  0  0  0  0
    5.1920    0.8000    0.3490 C   0  0  0  0  0  0  0  0  0  0  0  0
    5.6660    1.8200   -0.5340 N   0  0  0  0  0  0  0  0  0  0  0  0
    0.3870    0.2800    0.9560 S   0  0  0  0  0  0  0  0  0  0  0  0
   -1.1100   -0.0150    0.2040 C   0  0  0  0  0  0  0  0  0  0  0  0
   -2.2800    0.6430    0.5520 C   0  0  0  0  0  0  0  0  0  0  0  0
   -2.1960    1.5810    1.5640 O   0  0  0  0  0  0  0  0  0  0  0  0
  1  2  1  0
  2  3  1  0
  3  4  2  0
  3 20  1  0
  4  5  1  0
  4  6  1  0
  6  7  1  0
  6  8  2  0
  8  9  1  0
  8 19  1  0
  9 10  2  0
  9 11  1  0
 11 12  2  0
 12 13  1  0
 12 18  1  0
 13 14  1  0
 14 15  2  0
 14 16  1  0
 16 17  1  0
 18 19  1  0
 19 20  2  0
 20 21  1  0
M  END
