
     RDKit          3D

 20 21  0  0  0  0  0  0  0  0999 V2000
    6.7590   -0.3180    1.0350 O   0  0  0  0  0  0  0  0  0  0  0  0
    6.7910    0.4320    0.0280 C   0  0  0  0  0  0  0  0  0  0  0  0
    5.6040    0.8290   -0.6380 N   0  0  0  0  0  0  0  0  0  0  0  0
    4.3290    0.4210   -0.2280 C   0  0  0  0  0  0  0  0  0  0  0  0
    3.9690   -0.3860    0.8200 C   0  0  0  0  0  0  0  0  0  0  0  0
    2.6650   -0.5110    0.8450 O   0  0  0  0  0  0  0  0  0  0  0  0
    2.1050    0.1600   -0.1220 C   0  0  0  0  0  0  0  0  0  0  0  0
    0.6660    0.2910   -0.4580 C   0  0  0  0  0  0  0  0  0  0  0  0
    0.3100    0.9890   -1.4370 O   0  0  0  0  0  0  0  0  0  0  0  0
   -0.3120   -0.3640    0.3180 N   0  0  0  0  0  0  0  0  0  0  0  0
   -1.7110   -0.3300    0.1180 C   0  0  0  0  0  0  0  0  0  0  0  0
   -2.3870    0.3410   -0.8590 C   0  0  0  0  0  0  0  0  0  0  0  0
   -3.7640    0.3310   -0.9970 C   0  0  0  0  0  0  0  0  0  0  0  0
   -4.5420   -0.3870   -0.1180 C   0  0  0  0  0  0  0  0  0  0  0  0
   -6.3120   -0.4520   -0.2260 S   0  0  0  0  0  0  0  0  0  0  0  0
   -6.8040    0.4970   -1.5560 O   0  0  0  0  0  0  0  0  0  0  0  0
   -3.8890   -1.0760    0.8790 C   0  0  0  0  0  0  0  0  0  0  0  0
   -4.6310   -1.8260    1.8060 O   0  0  0  0  0  0  0  0  0  0  0  0
   -2.5140   -1.0550    1.0040 C   0  0  0  0  0  0  0  0  0  0  0  0
    3.1130    0.7660   -0.8270 C   0  0  0  0  0  0  0  0  0  0  0  0
  1  2  2  0
  2  3  1  0
  3  4  1  0
  4  5  2  0
  4 20  1  0
  5  6  1  0
  6  7  1  0
  7  8  1  0
  7 20  2  0
  8  9  2  0
  8 10  1  0
 10 11  1  0
 11 12  2  0
 11 19  1  0
 12 13  1  0
 13 14  2  0
 14 15  1  0
 14 17  1  0
 15 16  1  0
 17 18  1  0
 17 19  2  0
M  END
