
     RDKit          3D

 21 21  0  0  0  0  0  0  0  0999 V2000
    4.8820    1.6000   -1.4880 O   0  0  0  0  0  0  0  0  0  0  0  0
    5.0710    1.1750   -0.2930 C   0  0  0  0  0  0  0  0  0  0  0  0
    6.2560    1.5860    0.4290 C   0  0  0  0  0  0  0  0  0  0  0  0
    7.1250    2.3880   -0.1510 C   0  0  0  0  0  0  0  0  0  0  0  0
    6.8100    2.9270   -1.7800 Cl  0  0  0  0  0  0  0  0  0  0  0  0
    4.1040    0.3080    0.2950 N   0  0  0  0  0  0  0  0  0  0  0  0
    2.9430   -0.0750   -0.4470 C   0  0  0  0  0  0  0  0  0  0  0  0
    2.8570    0.4040   -1.6170 O   0  0  0  0  0  0  0  0  0  0  0  0
    1.6560   -1.1340    0.1350 S   0  0  0  0  0  0  0  0  0  0  0  0
    0.4870   -1.3770   -1.2240 C   0  0  0  0  0  0  0  0  0  0  0  0
   -0.9080   -1.5880   -0.6370 C   0  0  0  0  0  0  0  0  0  0  0  0
   -1.3790   -2.7110   -0.5340 O   0  0  0  0  0  0  0  0  0  0  0  0
   -1.6190   -0.4380   -0.2270 N   0  0  0  0  0  0  0  0  0  0  0  0
   -2.9190   -0.4360    0.3190 C   0  0  0  0  0  0  0  0  0  0  0  0
   -3.7320   -1.5450    0.3310 C   0  0  0  0  0  0  0  0  0  0  0  0
   -5.0170   -1.4900    0.8440 C   0  0  0  0  0  0  0  0  0  0  0  0
   -5.8420   -2.5980    0.8630 O   0  0  0  0  0  0  0  0  0  0  0  0
   -5.5060   -0.3230    1.3520 C   0  0  0  0  0  0  0  0  0  0  0  0
   -4.7050    0.7800    1.3420 C   0  0  0  0  0  0  0  0  0  0  0  0
   -3.4130    0.7710    0.8400 C   0  0  0  0  0  0  0  0  0  0  0  0
   -2.6750    1.9250    0.8730 O   0  0  0  0  0  0  0  0  0  0  0  0
  1  2  2  0
  2  3  1  0
  2  6  1  0
  3  4  2  3
  4  5  1  0
  6  7  1  0
  7  8  2  0
  7  9  1  0
  9 10  1  0
 10 11  1  0
 11 12  2  0
 11 13  1  0
 13 14  1  0
 14 15  2  0
 14 20  1  0
 15 16  1  0
 16 17  1  0
 16 18  2  0
 18 19  1  0
 19 20  2  0
 20 21  1  0
M  END
