
     RDKit          3D

 21 22  0  0  0  0  0  0  0  0999 V2000
   -3.8460   -0.8610    0.5510 N   0  0  0  0  0  0  0  0  0  0  0  0
   -3.8910   -0.7240   -0.8550 C   0  0  0  0  0  0  0  0  0  0  0  0
   -4.9870   -0.8210   -1.4460 O   0  0  0  0  0  0  0  0  0  0  0  0
   -2.6480   -0.4720   -1.6110 C   0  0  0  0  0  0  0  0  0  0  0  0
   -1.5180   -0.3070   -0.7990 O   0  0  0  0  0  0  0  0  0  0  0  0
   -1.3700    0.7150    0.1230 C   0  0  0  0  0  0  0  0  0  0  0  0
   -2.3610    1.6710    0.2810 C   0  0  0  0  0  0  0  0  0  0  0  0
   -2.2310    2.7170    1.2070 C   0  0  0  0  0  0  0  0  0  0  0  0
   -1.0790    2.7500    1.9490 C   0  0  0  0  0  0  0  0  0  0  0  0
   -0.0720    1.8270    1.8270 C   0  0  0  0  0  0  0  0  0  0  0  0
    1.3740    1.9530    2.8260 Cl  0  0  0  0  0  0  0  0  0  0  0  0
   -0.2350    0.8200    0.9110 C   0  0  0  0  0  0  0  0  0  0  0  0
    0.7800   -0.1510    0.7560 N   0  0  0  0  0  0  0  0  0  0  0  0
    1.8550   -0.0340   -0.1480 C   0  0  0  0  0  0  0  0  0  0  0  0
    1.9660    0.9740   -0.8840 O   0  0  0  0  0  0  0  0  0  0  0  0
    2.8430   -1.0810   -0.2330 C   0  0  0  0  0  0  0  0  0  0  0  0
    3.9160   -1.1800   -0.9960 C   0  0  0  0  0  0  0  0  0  0  0  0
    4.2370   -0.1540   -1.9080 O   0  0  0  0  0  0  0  0  0  0  0  0
    4.7060   -2.3840   -0.8240 C   0  0  0  0  0  0  0  0  0  0  0  0
    3.9400   -3.4520   -0.4170 O   0  0  0  0  0  0  0  0  0  0  0  0
    2.8870   -2.6320    0.7110 S   0  0  0  0  0  0  0  0  0  0  0  0
  1  2  1  0
  2  3  2  0
  2  4  1  0
  4  5  1  0
  5  6  1  0
  6  7  2  0
  6 12  1  0
  7  8  1  0
  8  9  2  0
  9 10  1  0
 10 11  1  0
 10 12  2  0
 12 13  1  0
 13 14  1  0
 14 15  2  0
 14 16  1  0
 16 17  2  0
 16 21  1  0
 17 18  1  0
 17 19  1  0
 19 20  1  0
 20 21  1  0
M  END
