
     RDKit          3D

 21 21  0  0  0  0  0  0  0  0999 V2000
    4.6790    0.4190    1.2510 N   0  0  0  0  0  0  0  0  0  0  0  0
    4.4230   -0.2040    0.0120 C   0  0  0  0  0  0  0  0  0  0  0  0
    5.0870   -1.2190   -0.3000 O   0  0  0  0  0  0  0  0  0  0  0  0
    3.4020    0.2840   -0.9480 C   0  0  0  0  0  0  0  0  0  0  0  0
    2.6920    1.3740   -0.5300 O   0  0  0  0  0  0  0  0  0  0  0  0
    1.9130    1.2430    0.5730 C   0  0  0  0  0  0  0  0  0  0  0  0
    0.7540    0.3070    0.4350 C   0  0  0  0  0  0  0  0  0  0  0  0
   -0.1760    0.7150   -0.5780 O   0  0  0  0  0  0  0  0  0  0  0  0
   -1.3130   -0.0910   -0.7380 C   0  0  0  0  0  0  0  0  0  0  0  0
   -1.5950   -0.8950   -1.7320 C   0  0  0  0  0  0  0  0  0  0  0  0
   -0.8090   -1.1570   -2.9240 C   0  0  0  0  0  0  0  0  0  0  0  0
   -1.2600   -2.0800   -3.8910 N   0  0  0  0  0  0  0  0  0  0  0  0
    0.5790   -0.3700   -3.1830 S   0  0  0  0  0  0  0  0  0  0  0  0
   -2.8220   -1.5250   -1.5200 O   0  0  0  0  0  0  0  0  0  0  0  0
   -3.3910   -1.1210   -0.3250 C   0  0  0  0  0  0  0  0  0  0  0  0
   -4.4860   -1.4910    0.1660 O   0  0  0  0  0  0  0  0  0  0  0  0
   -2.4360   -0.1720    0.2310 C   0  0  0  0  0  0  0  0  0  0  0  0
   -2.5320    0.5220    1.3340 C   0  0  0  0  0  0  0  0  0  0  0  0
   -3.6380    0.4120    2.2490 C   0  0  0  0  0  0  0  0  0  0  0  0
   -3.6790    1.1510    3.3650 C   0  0  0  0  0  0  0  0  0  0  0  0
   -5.0370    0.9920    4.4550 Cl  0  0  0  0  0  0  0  0  0  0  0  0
  1  2  1  0
  2  3  2  0
  2  4  1  0
  4  5  1  0
  5  6  1  0
  6  7  1  0
  7  8  1  0
  8  9  1  0
  9 10  2  0
  9 17  1  0
 10 11  1  0
 10 14  1  0
 11 12  1  0
 11 13  2  0
 14 15  1  0
 15 16  2  0
 15 17  1  0
 17 18  2  3
 18 19  1  0
 19 20  2  3
 20 21  1  0
M  END
