
     RDKit          3D

 21 21  0  0  0  0  0  0  0  0999 V2000
    6.1130   -1.9600    0.0010 N   0  0  0  0  0  0  0  0  0  0  0  0
    5.3630   -1.0560    0.8040 C   0  0  0  0  0  0  0  0  0  0  0  0
    5.2770   -1.3070    2.0310 O   0  0  0  0  0  0  0  0  0  0  0  0
    4.7240    0.1150    0.2090 C   0  0  0  0  0  0  0  0  0  0  0  0
    4.8300    0.3310   -1.0090 O   0  0  0  0  0  0  0  0  0  0  0  0
    3.9940    0.9970    0.9840 O   0  0  0  0  0  0  0  0  0  0  0  0
    3.3470    2.1410    0.5130 C   0  0  0  0  0  0  0  0  0  0  0  0
    2.2860    1.8150   -0.5440 C   0  0  0  0  0  0  0  0  0  0  0  0
    1.2760    0.9090    0.0900 C   0  0  0  0  0  0  0  0  0  0  0  0
    0.1930    0.5130   -0.8170 C   0  0  0  0  0  0  0  0  0  0  0  0
    0.1080    0.8940   -2.0210 O   0  0  0  0  0  0  0  0  0  0  0  0
   -0.8380   -0.3460   -0.3520 N   0  0  0  0  0  0  0  0  0  0  0  0
   -1.9160   -0.7610   -1.1960 C   0  0  0  0  0  0  0  0  0  0  0  0
   -2.0210   -0.2680   -2.7470 S   0  0  0  0  0  0  0  0  0  0  0  0
   -2.9110   -1.6000   -0.7210 O   0  0  0  0  0  0  0  0  0  0  0  0
   -4.1670   -1.1470   -0.3270 C   0  0  0  0  0  0  0  0  0  0  0  0
   -4.9970   -0.5300   -1.1480 C   0  0  0  0  0  0  0  0  0  0  0  0
   -6.2140   -0.1980   -0.4060 C   0  0  0  0  0  0  0  0  0  0  0  0
   -5.9900   -0.7030    0.9670 C   0  0  0  0  0  0  0  0  0  0  0  0
   -7.1020   -0.5960    2.3150 Cl  0  0  0  0  0  0  0  0  0  0  0  0
   -4.7930   -1.2500    0.9860 C   0  0  0  0  0  0  0  0  0  0  0  0
  1  2  1  0
  2  3  2  0
  2  4  1  0
  4  5  2  0
  4  6  1  0
  6  7  1  0
  7  8  1  0
  8  9  1  0
  9 10  1  0
 10 11  2  0
 10 12  1  0
 12 13  1  0
 13 14  2  0
 13 15  1  0
 15 16  1  0
 16 17  2  0
 16 21  1  0
 17 18  1  0
 18 19  1  0
 19 20  1  0
 19 21  2  0
M  END
