
     RDKit          3D

 12 12  0  0  0  0  0  0  0  0999 V2000
   -2.4900    2.0140   -0.1510 O   0  0  0  0  0  0  0  0  0  0  0  0
   -2.6160    0.6280   -0.0670 C   0  0  0  0  0  0  0  0  0  0  0  0
   -1.2410    0.0790    0.2840 C   0  0  2  0  0  0  0  0  0  0  0  0
   -0.7900    0.5770    1.4820 O   0  0  0  0  0  0  0  0  0  0  0  0
   -0.3310    0.3700   -0.8760 C   0  0  0  0  0  0  0  0  0  0  0  0
    0.9990   -0.2970   -0.7800 C   0  0  1  0  0  0  0  0  0  0  0  0
    1.3940   -0.6150   -2.1010 O   0  0  0  0  0  0  0  0  0  0  0  0
    2.0040    0.7270   -0.2910 C   0  0  0  0  0  0  0  0  0  0  0  0
    1.7700    1.1540    0.9930 O   0  0  0  0  0  0  0  0  0  0  0  0
    1.0190   -1.5590    0.0000 C   0  0  0  0  0  0  0  0  0  0  0  0
   -0.1480   -1.7730    0.8990 C   0  0  0  0  0  0  0  0  0  0  0  0
   -1.3500   -1.3280    0.3630 O   0  0  0  0  0  0  0  0  0  0  0  0
  1  2  1  0
  2  3  1  0
  3  4  1  1
  3  5  1  0
  3 12  1  0
  5  6  1  0
  6  7  1  6
  6  8  1  0
  6 10  1  0
  8  9  1  0
 10 11  1  0
 11 12  1  0
M  END
