
     RDKit          3D

 12 12  0  0  0  0  0  0  0  0999 V2000
    2.9590    0.9000   -0.4990 C   0  0  0  0  0  0  0  0  0  0  0  0
    1.5730    1.1840   -0.1500 C   0  0  0  0  0  0  0  0  0  0  0  0
    0.5400    0.3980   -0.0340 C   0  0  0  0  0  0  0  0  0  0  0  0
   -0.7650    1.0070    0.3440 C   0  0  0  0  0  0  0  0  0  0  0  0
   -1.8610    0.2870    0.4830 C   0  0  0  0  0  0  0  0  0  0  0  0
   -3.1050    0.9360    0.8540 C   0  0  0  0  0  0  0  0  0  0  0  0
   -4.1050    1.4420    1.1500 N   0  0  0  0  0  0  0  0  0  0  0  0
   -1.8900   -1.1540    0.2810 C   0  0  0  0  0  0  0  0  0  0  0  0
   -3.1050   -1.8620    0.4490 O   0  0  0  0  0  0  0  0  0  0  0  0
   -0.7900   -1.7640   -0.0510 C   0  0  0  0  0  0  0  0  0  0  0  0
    0.5090   -1.0290   -0.2340 C   0  0  0  0  0  0  0  0  0  0  0  0
    1.5190   -1.6960   -0.5560 N   0  0  0  0  0  0  0  0  0  0  0  0
  1  2  1  0
  2  3  2  3
  3  4  1  0
  3 11  1  0
  4  5  2  0
  5  6  1  0
  5  8  1  0
  6  7  3  0
  8  9  1  0
  8 10  2  0
 10 11  1  0
 11 12  2  0
M  END
