
     RDKit          3D

 12 12  0  0  0  0  0  0  0  0999 V2000
    3.1560    0.5760   -0.4190 C   0  0  0  0  0  0  0  0  0  0  0  0
    2.2260    1.0100   -1.4880 C   0  0  0  0  0  0  0  0  0  0  0  0
    1.0210    0.5400   -1.4650 N   0  0  0  0  0  0  0  0  0  0  0  0
    0.5430   -0.3500   -0.4970 C   0  0  0  0  0  0  0  0  0  0  0  0
    1.3300   -1.4220   -0.0360 N   0  0  0  0  0  0  0  0  0  0  0  0
   -0.6670   -0.1840   -0.0050 C   0  0  0  0  0  0  0  0  0  0  0  0
   -1.2290   -1.0840    1.0160 C   0  0  0  0  0  0  0  0  0  0  0  0
   -2.4410   -0.9230    1.5140 C   0  0  0  0  0  0  0  0  0  0  0  0
   -3.2960    0.1680    1.0730 C   0  0  0  0  0  0  0  0  0  0  0  0
   -2.8490    1.0130    0.1570 C   0  0  0  0  0  0  0  0  0  0  0  0
   -1.5290    0.9080   -0.4420 C   0  0  0  0  0  0  0  0  0  0  0  0
   -1.0850    1.6960   -1.3100 O   0  0  0  0  0  0  0  0  0  0  0  0
  1  2  1  0
  2  3  2  3
  3  4  1  0
  4  5  1  0
  4  6  2  3
  6  7  1  0
  6 11  1  0
  7  8  2  0
  8  9  1  0
  9 10  2  0
 10 11  1  0
 11 12  2  0
M  END
