
     RDKit          3D

 12 13  0  0  0  0  0  0  0  0999 V2000
    3.3970   -0.7440    0.2060 N   0  0  0  0  0  0  0  0  0  0  0  0
    2.2010   -0.2560    0.2000 C   0  0  0  0  0  0  0  0  0  0  0  0
    1.1080   -1.1490   -0.1810 C   0  0  0  0  0  0  0  0  0  0  0  0
   -0.2290   -0.5590   -0.1750 C   0  0  0  0  0  0  0  0  0  0  0  0
   -1.3050   -1.3930   -0.5370 C   0  0  0  0  0  0  0  0  0  0  0  0
   -2.5800   -0.8980   -0.5500 C   0  0  0  0  0  0  0  0  0  0  0  0
   -2.7970    0.4170   -0.2070 C   0  0  0  0  0  0  0  0  0  0  0  0
   -1.7440    1.2260    0.1460 C   0  0  0  0  0  0  0  0  0  0  0  0
   -0.4310    0.7490    0.1680 C   0  0  0  0  0  0  0  0  0  0  0  0
    0.6610    1.6380    0.5490 C   0  0  0  0  0  0  0  0  0  0  0  0
    0.4330    2.8220    0.8540 O   0  0  0  0  0  0  0  0  0  0  0  0
    1.9840    1.0950    0.5540 N   0  0  0  0  0  0  0  0  0  0  0  0
  1  2  2  0
  2  3  1  0
  2 12  1  0
  3  4  1  0
  4  5  2  0
  4  9  1  0
  5  6  1  0
  6  7  2  0
  7  8  1  0
  8  9  2  0
  9 10  1  0
 10 11  2  0
 10 12  1  0
M  END
