
     RDKit          3D

 12 13  0  0  0  0  0  0  0  0999 V2000
    2.0410   -1.6410   -1.5250 O   0  0  0  0  0  0  0  0  0  0  0  0
    2.2560   -0.7050   -0.7130 C   0  0  0  0  0  0  0  0  0  0  0  0
    3.5970   -0.3180   -0.1900 C   0  0  0  0  0  0  0  0  0  0  0  0
    3.3520    1.0190    0.2830 N   0  0  0  0  0  0  0  0  0  0  0  0
    1.9670    1.1660    0.4460 C   0  0  0  0  0  0  0  0  0  0  0  0
    1.2640    0.1950   -0.1100 C   0  0  0  0  0  0  0  0  0  0  0  0
   -0.1640    0.0370   -0.1330 N   0  0  0  0  0  0  0  0  0  0  0  0
   -0.6570   -1.2970   -0.2170 C   0  0  0  0  0  0  0  0  0  0  0  0
   -2.1220   -1.4620   -0.0910 C   0  0  0  0  0  0  0  0  0  0  0  0
   -2.9700   -0.2700   -0.2780 C   0  0  0  0  0  0  0  0  0  0  0  0
   -2.3990    1.0590    0.0560 C   0  0  0  0  0  0  0  0  0  0  0  0
   -0.9430    1.2300   -0.0680 C   0  0  0  0  0  0  0  0  0  0  0  0
  1  2  2  0
  2  3  1  0
  2  6  1  0
  3  4  1  0
  4  5  1  0
  5  6  2  0
  6  7  1  0
  7  8  1  0
  7 12  1  0
  8  9  1  0
  9 10  1  0
 10 11  1  0
 11 12  1  0
M  END
