
     RDKit          3D

 12 12  0  0  0  0  0  0  0  0999 V2000
   -0.8970   -1.5000   -0.9320 N   0  0  0  0  0  0  0  0  0  0  0  0
   -1.3990   -0.7630   -0.0090 C   0  0  0  0  0  0  0  0  0  0  0  0
   -2.7950   -0.8910    0.4010 C   0  0  0  0  0  0  0  0  0  0  0  0
   -3.2660   -0.1130    1.3530 C   0  0  0  0  0  0  0  0  0  0  0  0
   -2.4530    0.8830    2.0280 C   0  0  0  0  0  0  0  0  0  0  0  0
   -1.1960    1.0560    1.7160 C   0  0  0  0  0  0  0  0  0  0  0  0
   -0.5740    0.2230    0.6520 C   0  0  0  0  0  0  0  0  0  0  0  0
    0.7000    0.4550    0.3920 C   0  0  0  0  0  0  0  0  0  0  0  0
    1.5040   -0.2310   -0.5960 C   0  0  0  0  0  0  0  0  0  0  0  0
    2.7930    0.1410   -0.7230 C   0  0  0  0  0  0  0  0  0  0  0  0
    3.6290   -0.4900   -1.6700 N   0  0  0  0  0  0  0  0  0  0  0  0
    3.3210    1.1350    0.0600 O   0  0  0  0  0  0  0  0  0  0  0  0
  1  2  2  0
  2  3  1  0
  2  7  1  0
  3  4  2  0
  4  5  1  0
  5  6  2  0
  6  7  1  0
  7  8  2  3
  8  9  1  0
  9 10  2  3
 10 11  1  0
 10 12  1  0
M  END
