
     RDKit          3D

 12 13  0  0  0  0  0  0  0  0999 V2000
   -3.8560   -0.0750   -0.1660 O   0  0  0  0  0  0  0  0  0  0  0  0
   -2.4860    0.1080   -0.2540 C   0  0  2  0  0  0  0  0  0  0  0  0
   -1.8580   -1.1200   -0.8880 C   0  0  0  0  0  0  0  0  0  0  0  0
   -0.4110   -0.8060   -1.1380 C   0  0  0  0  0  0  0  0  0  0  0  0
    0.2080   -0.1940   -0.0050 N   0  0  0  0  0  0  0  0  0  0  0  0
    1.6370    0.0120   -0.0740 C   0  0  0  0  0  0  0  0  0  0  0  0
    2.2300    1.1740   -0.2630 C   0  0  0  0  0  0  0  0  0  0  0  0
    3.6910    0.9570   -0.2690 C   0  0  0  0  0  0  0  0  0  0  0  0
    3.8400   -0.4440   -0.0650 N   0  0  0  0  0  0  0  0  0  0  0  0
    2.6820   -0.9870    0.0470 C   0  0  0  0  0  0  0  0  0  0  0  0
   -0.4430    0.2350    1.1920 C   0  0  0  0  0  0  0  0  0  0  0  0
   -1.9250    0.2100    1.1470 C   0  0  0  0  0  0  0  0  0  0  0  0
  2  1  1  1
  2  3  1  0
  2 12  1  0
  3  4  1  0
  4  5  1  0
  5  6  1  0
  5 11  1  0
  6  7  2  0
  6 10  1  0
  7  8  1  0
  8  9  1  0
  9 10  2  0
 11 12  1  0
M  END
