
     RDKit          3D

 27 28  0  0  0  0  0  0  0  0999 V2000
    6.5240   -0.1520   -1.5520 O   0  0  0  0  0  0  0  0  0  0  0  0
    6.8050   -0.0760   -0.4450 C   0  0  0  0  0  0  0  0  0  0  0  0
    8.0310    0.0100    0.3060 C   0  0  0  0  0  0  0  0  0  0  0  0
    9.1580   -0.1190   -0.5000 O   0  0  0  0  0  0  0  0  0  0  0  0
    5.4230   -0.0760    0.6310 N   0  0  0  0  0  0  0  0  0  0  0  0
    4.4280   -0.0620   -0.3620 C   0  0  0  0  0  0  0  0  0  0  0  0
    4.3910    0.0650   -1.4910 O   0  0  0  0  0  0  0  0  0  0  0  0
    3.1030   -0.2620    0.3520 N   0  0  0  0  0  0  0  0  0  0  0  0
    1.9120   -0.2630   -0.4180 C   0  0  0  0  0  0  0  0  0  0  0  0
    1.8800   -0.4180   -1.8130 C   0  0  0  0  0  0  0  0  0  0  0  0
    0.1990   -0.2750   -2.2740 S   0  0  0  0  0  0  0  0  0  0  0  0
   -0.4170   -0.0110   -0.5650 C   0  0  0  0  0  0  0  0  0  0  0  0
   -1.7900    0.2970   -0.2870 C   0  0  0  0  0  0  0  0  0  0  0  0
   -2.5380    0.4830   -1.3060 O   0  0  0  0  0  0  0  0  0  0  0  0
   -2.3470    0.4120    0.9810 N   0  0  0  0  0  0  0  0  0  0  0  0
   -1.7450    0.1380    2.1760 O   0  0  0  0  0  0  0  0  0  0  0  0
   -3.6280    1.0540    1.0710 C   0  0  0  0  0  0  0  0  0  0  0  0
   -4.8020    0.2820    0.7170 C   0  0  0  0  0  0  0  0  0  0  0  0
   -4.8250   -1.0480    0.4700 C   0  0  0  0  0  0  0  0  0  0  0  0
   -6.0520   -1.6280    0.1220 C   0  0  0  0  0  0  0  0  0  0  0  0
   -7.1820   -0.8420    0.0390 C   0  0  0  0  0  0  0  0  0  0  0  0
   -8.3360   -1.4550   -0.3220 F   0  0  0  0  0  0  0  0  0  0  0  0
   -7.1310    0.5090    0.2960 C   0  0  0  0  0  0  0  0  0  0  0  0
   -8.3160    1.2130    0.1910 O   0  0  0  0  0  0  0  0  0  0  0  0
   -5.9570    1.0260    0.6250 N   0  0  0  0  0  0  0  0  0  0  0  0
    0.6800   -0.0590    0.1570 C   0  0  0  0  0  0  0  0  0  0  0  0
    0.6190    0.1090    1.5550 F   0  0  0  0  0  0  0  0  0  0  0  0
  1  2  2  0
  2  3  1  0
  2  5  1  0
  3  4  1  0
  5  6  1  0
  6  7  2  0
  6  8  1  0
  8  9  1  0
  9 10  2  0
  9 26  1  0
 10 11  1  0
 11 12  1  0
 12 13  1  0
 12 26  2  0
 13 14  2  0
 13 15  1  0
 15 16  1  0
 15 17  1  0
 17 18  1  0
 18 19  2  0
 18 25  1  0
 19 20  1  0
 20 21  2  0
 21 22  1  0
 21 23  1  0
 23 24  1  0
 23 25  2  0
 26 27  1  0
M  CHG  1  16  -1
M  END
