
     RDKit          3D

 28 29  0  0  0  0  0  0  0  0999 V2000
   -3.9870   -2.2900    0.1990 O   0  0  0  0  0  0  0  0  0  0  0  0
   -3.5240   -1.1450    0.1390 C   0  0  0  0  0  0  0  0  0  0  0  0
   -2.1070   -0.9710    0.1530 N   0  0  0  0  0  0  0  0  0  0  0  0
   -1.1980   -2.0590    0.2340 C   0  0  0  0  0  0  0  0  0  0  0  0
    0.2380   -1.7360    0.2400 C   0  0  0  0  0  0  0  0  0  0  0  0
    0.6880   -0.4440    0.1710 C   0  0  0  0  0  0  0  0  0  0  0  0
    2.0650   -0.1990    0.1810 C   0  0  0  0  0  0  0  0  0  0  0  0
    2.4870    1.1130    0.1100 C   0  0  0  0  0  0  0  0  0  0  0  0
    3.8440    1.3990    0.1160 C   0  0  0  0  0  0  0  0  0  0  0  0
    4.2760    2.7050    0.0460 O   0  0  0  0  0  0  0  0  0  0  0  0
    4.5000    3.2360   -1.2660 C   0  0  1  0  0  0  0  0  0  0  0  0
    4.9290    4.5480   -1.2060 F   0  0  0  0  0  0  0  0  0  0  0  0
    5.4330    2.4190   -1.8820 F   0  0  0  0  0  0  0  0  0  0  0  0
    3.2960    3.2340   -1.9770 F   0  0  0  0  0  0  0  0  0  0  0  0
    4.7270    0.3470    0.1950 C   0  0  0  0  0  0  0  0  0  0  0  0
    6.0850    0.6730    0.1990 O   0  0  0  0  0  0  0  0  0  0  0  0
    4.2840   -0.9660    0.2650 C   0  0  0  0  0  0  0  0  0  0  0  0
    2.9370   -1.2550    0.2590 C   0  0  0  0  0  0  0  0  0  0  0  0
    2.4500   -2.5080    0.3250 N   0  0  0  0  0  0  0  0  0  0  0  0
    1.1590   -2.8010    0.3200 C   0  0  0  0  0  0  0  0  0  0  0  0
    0.7560   -3.9710    0.3830 O   0  0  0  0  0  0  0  0  0  0  0  0
   -4.4170    0.0160    0.0540 C   0  0  0  0  0  0  0  0  0  0  0  0
   -3.9410    1.1710   -0.0070 O   0  0  0  0  0  0  0  0  0  0  0  0
   -5.8230   -0.1350    0.0380 N   0  0  0  0  0  0  0  0  0  0  0  0
   -6.8180    0.8290   -0.0370 C   0  0  0  0  0  0  0  0  0  0  0  0
   -8.3830    0.2150   -0.0280 S   0  0  0  0  0  0  0  0  0  0  0  0
   -6.7380    2.2070   -0.1180 N   0  0  0  0  0  0  0  0  0  0  0  0
   -5.6020    2.8980   -0.1390 O   0  0  0  0  0  0  0  0  0  0  0  0
  1  2  2  0
  2  3  1  0
  2 22  1  0
  3  4  1  0
  4  5  1  0
  5  6  2  0
  5 20  1  0
  6  7  1  0
  7  8  2  0
  7 18  1  0
  8  9  1  0
  9 10  1  0
  9 15  2  0
 10 11  1  0
 11 12  1  1
 11 13  1  0
 11 14  1  0
 15 16  1  0
 15 17  1  0
 17 18  2  0
 18 19  1  0
 19 20  1  0
 20 21  2  0
 22 23  2  0
 22 24  1  0
 24 25  1  0
 25 26  2  0
 25 27  1  0
 27 28  1  0
M  CHG  1  28  -1
M  END
