
     RDKit          3D

 28 29  0  0  0  0  0  0  0  0999 V2000
   -8.5010   -0.3330    0.5200 N   0  0  0  0  0  0  0  0  0  0  0  0
   -7.2340    0.0390    1.0680 C   0  0  0  0  0  0  0  0  0  0  0  0
   -7.0890    0.4980    2.2220 O   0  0  0  0  0  0  0  0  0  0  0  0
   -6.0400   -0.1130    0.2720 N   0  0  0  0  0  0  0  0  0  0  0  0
   -4.7700    0.2330    0.7520 C   0  0  0  0  0  0  0  0  0  0  0  0
   -4.7580    0.6810    1.9630 O   0  0  0  0  0  0  0  0  0  0  0  0
   -3.5040    0.1370    0.0410 C   0  0  0  0  0  0  0  0  0  0  0  0
   -2.3480    0.2300    0.7890 C   0  0  0  0  0  0  0  0  0  0  0  0
   -1.0650    0.1470    0.3460 C   0  0  0  0  0  0  0  0  0  0  0  0
   -0.6780   -0.0470   -0.9400 C   0  0  0  0  0  0  0  0  0  0  0  0
    0.7130   -0.1290   -1.3660 C   0  0  0  0  0  0  0  0  0  0  0  0
    0.9770   -0.3140   -2.5990 O   0  0  0  0  0  0  0  0  0  0  0  0
    1.8230   -0.0190   -0.5040 N   0  0  0  0  0  0  0  0  0  0  0  0
    3.1820   -0.0950   -0.8880 C   0  0  0  0  0  0  0  0  0  0  0  0
    3.7100   -0.2870   -2.1320 C   0  0  0  0  0  0  0  0  0  0  0  0
    4.9960   -0.2940   -2.0530 O   0  0  0  0  0  0  0  0  0  0  0  0
    5.4170   -0.1150   -0.7980 C   0  0  0  0  0  0  0  0  0  0  0  0
    6.8110   -0.0800   -0.4270 C   0  0  0  0  0  0  0  0  0  0  0  0
    7.3300    0.0840    0.8530 N   0  0  0  0  0  0  0  0  0  0  0  0
    7.6780   -0.2140   -1.3660 O   0  0  0  0  0  0  0  0  0  0  0  0
    4.3110    0.0150   -0.0350 C   0  0  0  0  0  0  0  0  0  0  0  0
    4.1040    0.2320    1.4140 C   0  0  1  0  0  0  0  0  0  0  0  0
    3.3760   -0.8540    1.9140 F   0  0  0  0  0  0  0  0  0  0  0  0
    5.2140    0.3720    2.1600 F   0  0  0  0  0  0  0  0  0  0  0  0
    3.2760    1.3440    1.5930 F   0  0  0  0  0  0  0  0  0  0  0  0
   -1.9520   -0.1910   -2.0580 S   0  0  0  0  0  0  0  0  0  0  0  0
   -3.5090   -0.0600   -1.3100 C   0  0  0  0  0  0  0  0  0  0  0  0
   -4.5320   -0.1490   -2.0350 O   0  0  0  0  0  0  0  0  0  0  0  0
  1  2  1  0
  2  3  2  0
  2  4  1  0
  4  5  1  0
  5  6  2  0
  5  7  1  0
  7  8  2  0
  7 27  1  0
  8  9  1  0
  9 10  2  0
 10 11  1  0
 10 26  1  0
 11 12  2  0
 11 13  1  0
 13 14  1  0
 14 15  2  0
 14 21  1  0
 15 16  1  0
 16 17  1  0
 17 18  1  0
 17 21  2  0
 18 19  1  0
 18 20  2  0
 21 22  1  0
 22 23  1  1
 22 24  1  0
 22 25  1  0
 26 27  1  0
 27 28  2  0
M  END
