
     RDKit          3D

 23 25  0  0  0  0  0  0  0  0999 V2000
    5.4180   -0.5600   -0.9920 N   0  0  0  0  0  0  0  0  0  0  0  0
    4.7890    0.5320   -0.3460 C   0  0  0  0  0  0  0  0  0  0  0  0
    5.5170    1.5850    0.1230 N   0  0  0  0  0  0  0  0  0  0  0  0
    4.9020    2.6140    0.7350 C   0  0  0  0  0  0  0  0  0  0  0  0
    3.5420    2.5670    0.8670 C   0  0  0  0  0  0  0  0  0  0  0  0
    2.7990    1.5300    0.4080 N   0  0  0  0  0  0  0  0  0  0  0  0
    3.4270    0.5230   -0.1930 C   0  0  0  0  0  0  0  0  0  0  0  0
    2.6730   -0.6350   -0.7140 C   0  0  0  0  0  0  0  0  0  0  0  0
    3.2800   -1.5710   -1.2760 O   0  0  0  0  0  0  0  0  0  0  0  0
    1.2850   -0.6750   -0.5750 N   0  0  0  0  0  0  0  0  0  0  0  0
    0.4100   -1.6630   -0.9940 C   0  0  0  0  0  0  0  0  0  0  0  0
    0.8160   -2.7800   -1.6770 C   0  0  0  0  0  0  0  0  0  0  0  0
   -0.0800   -3.7280   -2.0860 N   0  0  0  0  0  0  0  0  0  0  0  0
   -1.3750   -3.5680   -1.8170 C   0  0  0  0  0  0  0  0  0  0  0  0
   -1.8140   -2.4590   -1.1340 C   0  0  0  0  0  0  0  0  0  0  0  0
   -0.9520   -1.4750   -0.7000 C   0  0  0  0  0  0  0  0  0  0  0  0
   -1.4230   -0.3360    0.0170 N   0  0  0  0  0  0  0  0  0  0  0  0
   -1.0620   -0.0270    1.3860 C   0  0  0  0  0  0  0  0  0  0  0  0
   -2.3280   -0.2780    2.2170 C   0  0  0  0  0  0  0  0  0  0  0  0
   -3.4330    0.5120    1.5970 C   0  0  0  0  0  0  0  0  0  0  0  0
   -2.9810    1.4620    0.5200 C   0  0  2  0  0  0  0  0  0  0  0  0
   -4.1720    2.0780   -0.0380 N   0  0  0  0  0  0  0  0  0  0  0  0
   -2.3340    0.6330   -0.5980 C   0  0  0  0  0  0  0  0  0  0  0  0
  1  2  1  0
  2  3  2  0
  2  7  1  0
  3  4  1  0
  4  5  2  0
  5  6  1  0
  6  7  2  0
  7  8  1  0
  8  9  2  0
  8 10  1  0
 10 11  1  0
 11 12  2  0
 11 16  1  0
 12 13  1  0
 13 14  2  0
 14 15  1  0
 15 16  2  0
 16 17  1  0
 17 18  1  0
 17 23  1  0
 18 19  1  0
 19 20  1  0
 20 21  1  0
 21 22  1  6
 21 23  1  0
M  CHG  1  22   1
M  END
