
     RDKit          3D

 27 28  0  0  0  0  0  0  0  0999 V2000
    4.1130    1.8140   -4.8660 N   0  0  0  0  0  0  0  0  0  0  0  0
    3.0810    1.3430   -3.9670 C   0  0  0  0  0  0  0  0  0  0  0  0
    1.9850    1.0640   -4.4840 O   0  0  0  0  0  0  0  0  0  0  0  0
    3.4090    1.2300   -2.5390 C   0  0  0  0  0  0  0  0  0  0  0  0
    2.5270    0.7650   -1.5700 N   0  0  0  0  0  0  0  0  0  0  0  0
    1.2530    0.2500   -1.7650 C   0  0  0  0  0  0  0  0  0  0  0  0
    0.7180    0.1090   -2.8590 O   0  0  0  0  0  0  0  0  0  0  0  0
    0.4220   -0.1720   -0.5830 C   0  0  0  0  0  0  0  0  0  0  0  0
    0.9590   -0.0530    0.5450 O   0  0  0  0  0  0  0  0  0  0  0  0
   -0.8700   -0.6560   -0.7480 N   0  0  0  0  0  0  0  0  0  0  0  0
   -1.8090   -1.0180    0.2220 C   0  0  0  0  0  0  0  0  0  0  0  0
   -3.0170   -2.3460   -0.1750 S   0  0  0  0  0  0  0  0  0  0  0  0
   -3.9050   -2.2590    1.3170 C   0  0  0  0  0  0  0  0  0  0  0  0
   -3.3110   -1.3020    2.0110 C   0  0  0  0  0  0  0  0  0  0  0  0
   -2.2180   -0.6430    1.4510 C   0  0  0  0  0  0  0  0  0  0  0  0
   -1.6540    0.6130    2.0690 C   0  0  0  0  0  0  0  0  0  0  0  0
   -1.9080    0.9020    3.4370 N   0  0  0  0  0  0  0  0  0  0  0  0
   -0.9710    1.3840    1.3900 O   0  0  0  0  0  0  0  0  0  0  0  0
   -4.0900   -1.1780    3.3070 C   0  0  2  0  0  0  0  0  0  0  0  0
   -4.9060   -0.0640    3.2630 F   0  0  0  0  0  0  0  0  0  0  0  0
   -3.2270   -1.1210    4.4020 F   0  0  0  0  0  0  0  0  0  0  0  0
   -4.8580   -2.4430    3.4170 C   0  0  0  0  0  0  0  0  0  0  0  0
   -5.0800   -2.8960    2.0190 C   0  0  0  0  0  0  0  0  0  0  0  0
    4.5880    1.6830   -2.1800 C   0  0  0  0  0  0  0  0  0  0  0  0
    5.4290    2.2300   -3.1800 O   0  0  0  0  0  0  0  0  0  0  0  0
    5.1310    1.6850   -0.8390 C   0  0  0  0  0  0  0  0  0  0  0  0
    6.2900    0.8940   -0.8390 F   0  0  0  0  0  0  0  0  0  0  0  0
  1  2  1  0
  2  3  2  0
  2  4  1  0
  4  5  1  0
  4 24  2  3
  5  6  1  0
  6  7  2  0
  6  8  1  0
  8  9  2  0
  8 10  1  0
 10 11  1  0
 11 12  1  0
 11 15  2  0
 12 13  1  0
 13 14  2  0
 13 23  1  0
 14 15  1  0
 14 19  1  0
 15 16  1  0
 16 17  1  0
 16 18  2  0
 19 20  1  6
 19 21  1  0
 19 22  1  0
 22 23  1  0
 24 25  1  0
 24 26  1  0
 26 27  1  0
M  END
