
     RDKit          3D

 27 27  0  0  0  0  0  0  0  0999 V2000
   -6.7790   -1.9710   -0.9360 C   0  0  0  0  0  0  0  0  0  0  0  0
   -5.4200   -1.4360   -0.5750 C   0  0  0  0  0  0  0  0  0  0  0  0
   -3.8800   -2.0420   -1.1110 S   0  0  0  0  0  0  0  0  0  0  0  0
   -2.8510   -0.8540   -0.2170 C   0  0  0  0  0  0  0  0  0  0  0  0
   -1.4530   -0.9070   -0.3400 N   0  0  0  0  0  0  0  0  0  0  0  0
   -0.5080   -0.5580    0.6340 C   0  0  0  0  0  0  0  0  0  0  0  0
   -0.8340   -0.1910    1.7890 O   0  0  0  0  0  0  0  0  0  0  0  0
    0.9480   -0.6190    0.2990 C   0  0  0  0  0  0  0  0  0  0  0  0
    1.3120   -0.9790   -0.8390 O   0  0  0  0  0  0  0  0  0  0  0  0
    1.8610   -0.2590    1.3080 N   0  0  0  0  0  0  0  0  0  0  0  0
    3.2630   -0.2830    1.0950 N   0  0  0  0  0  0  0  0  0  0  0  0
    3.7720    0.4540    0.0120 C   0  0  0  0  0  0  0  0  0  0  0  0
    2.9300    1.0970   -0.7090 O   0  0  0  0  0  0  0  0  0  0  0  0
    5.1940    0.4980   -0.2970 C   0  0  0  0  0  0  0  0  0  0  0  0
    6.0550   -0.1460    0.4230 C   0  0  0  0  0  0  0  0  0  0  0  0
    7.5230   -0.2030    0.2440 C   0  0  2  0  0  0  0  0  0  0  0  0
    8.0780   -1.0000    1.2690 F   0  0  0  0  0  0  0  0  0  0  0  0
    8.1260    1.0280    0.3960 F   0  0  0  0  0  0  0  0  0  0  0  0
    7.8240   -0.8190   -0.9350 F   0  0  0  0  0  0  0  0  0  0  0  0
    5.5730    1.3140   -1.4640 C   0  0  0  0  0  0  0  0  0  0  0  0
    6.9100    1.3420   -1.7360 O   0  0  0  0  0  0  0  0  0  0  0  0
   -3.7730   -0.0930    0.4020 C   0  0  0  0  0  0  0  0  0  0  0  0
   -3.3750    1.2190    1.0340 C   0  0  0  0  0  0  0  0  0  0  0  0
   -4.2420    1.9700    1.8640 N   0  0  0  0  0  0  0  0  0  0  0  0
   -2.2470    1.7270    0.8670 O   0  0  0  0  0  0  0  0  0  0  0  0
   -5.0980   -0.3640    0.2480 C   0  0  0  0  0  0  0  0  0  0  0  0
   -6.2450    0.4140    0.9070 C   0  0  0  0  0  0  0  0  0  0  0  0
  1  2  1  0
  2  3  1  0
  2 26  2  0
  3  4  1  0
  4  5  1  0
  4 22  2  0
  5  6  1  0
  6  7  2  0
  6  8  1  0
  8  9  2  0
  8 10  1  0
 10 11  1  0
 11 12  1  0
 12 13  2  0
 12 14  1  0
 14 15  2  3
 14 20  1  0
 15 16  1  0
 16 17  1  1
 16 18  1  0
 16 19  1  0
 20 21  1  0
 22 23  1  0
 22 26  1  0
 23 24  1  0
 23 25  2  0
 26 27  1  0
M  END
