
     RDKit          3D

 27 28  0  0  0  0  0  0  0  0999 V2000
   -4.7030    0.4120    0.0400 C   0  0  0  0  0  0  0  0  0  0  0  0
   -3.2680    0.2220   -0.0490 C   0  0  0  0  0  0  0  0  0  0  0  0
   -2.4690    1.1470   -0.6330 C   0  0  0  0  0  0  0  0  0  0  0  0
   -3.0230    2.3140   -1.2600 C   0  0  0  0  0  0  0  0  0  0  0  0
   -2.1950    3.1720   -1.8090 O   0  0  0  0  0  0  0  0  0  0  0  0
   -4.3290    2.6630   -1.3710 O   0  0  0  0  0  0  0  0  0  0  0  0
   -1.0690    0.9850   -0.6180 C   0  0  0  0  0  0  0  0  0  0  0  0
   -0.5060   -0.0960   -0.0120 C   0  0  0  0  0  0  0  0  0  0  0  0
    0.8900   -0.0790    0.1460 N   0  0  0  0  0  0  0  0  0  0  0  0
    1.8130    0.4520   -0.8590 C   0  0  0  0  0  0  0  0  0  0  0  0
    1.3340    0.8630   -1.9470 O   0  0  0  0  0  0  0  0  0  0  0  0
    3.1570    0.4310   -0.4600 C   0  0  0  0  0  0  0  0  0  0  0  0
    3.8170    0.0080    0.6510 C   0  0  0  0  0  0  0  0  0  0  0  0
    5.1210    0.1590    0.6330 N   0  0  0  0  0  0  0  0  0  0  0  0
    5.8250    0.5830   -0.1320 C   0  0  0  0  0  0  0  0  0  0  0  0
    7.2520    0.9350   -0.4950 C   0  0  2  0  0  0  0  0  0  0  0  0
    8.0510   -0.1260   -0.1580 F   0  0  0  0  0  0  0  0  0  0  0  0
    7.6370    2.0670    0.2230 F   0  0  0  0  0  0  0  0  0  0  0  0
    7.3860    1.2600   -1.8350 F   0  0  0  0  0  0  0  0  0  0  0  0
    4.5810    1.0480   -1.4750 S   0  0  0  0  0  0  0  0  0  0  0  0
   -1.3120   -1.0740    0.5920 C   0  0  0  0  0  0  0  0  0  0  0  0
   -0.6630   -2.2250    1.1150 C   0  0  0  0  0  0  0  0  0  0  0  0
    0.6130   -2.2890    1.1530 O   0  0  0  0  0  0  0  0  0  0  0  0
   -1.2940   -3.4000    1.6110 N   0  0  0  0  0  0  0  0  0  0  0  0
   -0.5130   -4.4170    2.1040 O   0  0  0  0  0  0  0  0  0  0  0  0
   -2.6860   -0.9120    0.5770 C   0  0  0  0  0  0  0  0  0  0  0  0
   -3.5530   -1.8050    1.2140 N   0  0  0  0  0  0  0  0  0  0  0  0
  1  2  1  0
  2  3  2  0
  2 26  1  0
  3  4  1  0
  3  7  1  0
  4  5  2  0
  4  6  1  0
  7  8  2  0
  8  9  1  0
  8 21  1  0
  9 10  1  0
 10 11  2  0
 10 12  1  0
 12 13  2  0
 12 20  1  0
 13 14  1  0
 14 15  2  0
 15 16  1  0
 15 20  1  0
 16 17  1  1
 16 18  1  0
 16 19  1  0
 21 22  1  0
 21 26  2  0
 22 23  2  0
 22 24  1  0
 24 25  1  0
 26 27  1  0
M  CHG  1  25  -1
M  END
