
     RDKit          3D

 28 29  0  0  0  0  0  0  0  0999 V2000
    5.7210    0.2340   -1.5010 O   0  0  0  0  0  0  0  0  0  0  0  0
    6.1770    1.0560   -0.8180 C   0  0  0  0  0  0  0  0  0  0  0  0
    7.4650    1.6700   -0.6320 C   0  0  0  0  0  0  0  0  0  0  0  0
    8.4550    0.7900    0.6310 S   0  0  0  0  0  0  0  0  0  0  0  0
    7.6440    1.0320    2.1170 O   0  0  0  0  0  0  0  0  0  0  0  0
    4.9910    1.7430    0.2840 N   0  0  0  0  0  0  0  0  0  0  0  0
    3.9120    0.9720   -0.1400 C   0  0  0  0  0  0  0  0  0  0  0  0
    3.7110    0.1440   -0.9500 O   0  0  0  0  0  0  0  0  0  0  0  0
    2.7440    1.3870    0.7300 N   0  0  0  0  0  0  0  0  0  0  0  0
    1.5040    0.8090    0.5410 C   0  0  0  0  0  0  0  0  0  0  0  0
    1.2310   -0.1030   -0.3850 N   0  0  0  0  0  0  0  0  0  0  0  0
   -0.0230   -0.5870   -0.4880 C   0  0  0  0  0  0  0  0  0  0  0  0
   -1.0240   -0.1480    0.3500 C   0  0  0  0  0  0  0  0  0  0  0  0
   -2.3620   -0.7360    0.2070 C   0  0  0  0  0  0  0  0  0  0  0  0
   -2.6180   -1.5600   -0.8820 C   0  0  0  0  0  0  0  0  0  0  0  0
   -3.8680   -2.1520   -1.0280 C   0  0  0  0  0  0  0  0  0  0  0  0
   -4.8760   -1.9580   -0.1360 C   0  0  0  0  0  0  0  0  0  0  0  0
   -6.1220   -2.5630   -0.3050 O   0  0  0  0  0  0  0  0  0  0  0  0
   -7.0640   -1.7930   -1.0600 C   0  0  1  0  0  0  0  0  0  0  0  0
   -6.5510   -1.5950   -2.3190 F   0  0  0  0  0  0  0  0  0  0  0  0
   -8.3220   -2.3050   -1.0360 F   0  0  0  0  0  0  0  0  0  0  0  0
   -7.1500   -0.5070   -0.4910 F   0  0  0  0  0  0  0  0  0  0  0  0
   -4.6080   -1.1420    0.9330 C   0  0  0  0  0  0  0  0  0  0  0  0
   -3.3620   -0.5250    1.1200 C   0  0  0  0  0  0  0  0  0  0  0  0
   -3.1840    0.2750    2.2240 O   0  0  0  0  0  0  0  0  0  0  0  0
   -0.7800    0.7700    1.2920 N   0  0  0  0  0  0  0  0  0  0  0  0
    0.4900    1.2480    1.3850 C   0  0  0  0  0  0  0  0  0  0  0  0
    0.7620    2.1060    2.2500 O   0  0  0  0  0  0  0  0  0  0  0  0
  1  2  2  0
  2  3  1  0
  2  6  1  0
  3  4  1  0
  4  5  1  0
  6  7  1  0
  7  8  2  0
  7  9  1  0
  9 10  1  0
 10 11  2  0
 10 27  1  0
 11 12  1  0
 12 13  2  0
 13 14  1  0
 13 26  1  0
 14 15  2  0
 14 24  1  0
 15 16  1  0
 16 17  2  0
 17 18  1  0
 17 23  1  0
 18 19  1  0
 19 20  1  6
 19 21  1  0
 19 22  1  0
 23 24  2  0
 24 25  1  0
 26 27  1  0
 27 28  2  0
M  CHG  1   5  -1
M  END
