
     RDKit          3D

 18 18  0  0  0  0  0  0  0  0999 V2000
   -4.4890    3.3640   -0.7020 C   0  0  0  0  0  0  0  0  0  0  0  0
   -3.4700    2.7830    0.2300 C   0  0  0  0  0  0  0  0  0  0  0  0
   -2.7000    1.6630   -0.3730 C   0  0  0  0  0  0  0  0  0  0  0  0
   -2.7220    0.4490    0.1670 C   0  0  0  0  0  0  0  0  0  0  0  0
   -1.7720   -0.9390   -0.5770 P   0  0  0  0  0  0  0  0  0  0  0  0
   -2.1410   -2.3800    0.3040 O   0  0  0  0  0  0  0  0  0  0  0  0
   -1.1920   -3.3650    0.0220 C   0  0  0  0  0  0  0  0  0  0  0  0
   -1.5720   -4.5920    0.8200 C   0  0  0  0  0  0  0  0  0  0  0  0
    0.0330   -0.5690   -0.5020 C   0  0  0  0  0  0  0  0  0  0  0  0
    0.5090    0.4300    0.3210 C   0  0  0  0  0  0  0  0  0  0  0  0
    1.8650    0.7170    0.3850 C   0  0  0  0  0  0  0  0  0  0  0  0
    2.7650    0.0030   -0.3780 C   0  0  0  0  0  0  0  0  0  0  0  0
    4.1880    0.3110   -0.3040 C   0  0  0  0  0  0  0  0  0  0  0  0
    5.0100   -0.3390   -0.9990 O   0  0  0  0  0  0  0  0  0  0  0  0
    4.6300    1.3230    0.5350 O   0  0  0  0  0  0  0  0  0  0  0  0
    6.0200    1.6600    0.6390 C   0  0  0  0  0  0  0  0  0  0  0  0
    2.2580   -0.9880   -1.1880 C   0  0  0  0  0  0  0  0  0  0  0  0
    0.9150   -1.2950   -1.2730 C   0  0  0  0  0  0  0  0  0  0  0  0
  1  2  1  0
  2  3  1  0
  3  4  2  3
  4  5  1  0
  5  6  1  0
  5  9  1  0
  6  7  1  0
  7  8  1  0
  9 10  2  0
  9 18  1  0
 10 11  1  0
 11 12  2  0
 12 13  1  0
 12 17  1  0
 13 14  2  0
 13 15  1  0
 15 16  1  0
 17 18  2  0
M  END
