
     RDKit          3D

 18 17  0  0  0  0  0  0  0  0999 V2000
    5.1880   -0.1900   -1.4560 C   0  0  0  0  0  0  0  0  0  0  0  0
    5.0440    0.4950   -0.1090 C   0  0  0  0  0  0  0  0  0  0  0  0
    4.5290   -0.4480    0.9560 C   0  0  0  0  0  0  0  0  0  0  0  0
    3.1740   -1.0030    0.5910 C   0  0  0  0  0  0  0  0  0  0  0  0
    2.2360    0.1600    0.4530 C   0  0  0  0  0  0  0  0  0  0  0  0
    0.5710   -0.4680    0.0090 S   0  0  2  0  0  0  0  0  0  0  0  0
    0.2200   -1.4580    1.0360 O   0  0  0  0  0  0  0  0  0  0  0  0
    0.8470   -1.2190   -1.2670 O   0  0  0  0  0  0  0  0  0  0  0  0
   -0.4270    0.8960   -0.1280 C   0  0  0  0  0  0  0  0  0  0  0  0
   -1.8460    0.9060   -0.5020 C   0  0  1  0  0  0  0  0  0  0  0  0
   -2.0460    2.5240   -0.5430 C   0  0  0  0  0  0  0  0  0  0  0  0
   -2.0110    0.6620   -2.0090 C   0  0  0  0  0  0  0  0  0  0  0  0
   -2.9520    0.5290    0.3150 C   0  0  0  0  0  0  0  0  0  0  0  0
   -3.3760   -0.6660    0.9950 C   0  0  2  0  0  0  0  0  0  0  0  0
   -2.5960   -1.2830    2.0830 C   0  0  0  0  0  0  0  0  0  0  0  0
   -3.9040   -1.7670    0.0520 C   0  0  0  0  0  0  0  0  0  0  0  0
   -5.0020   -0.1300    1.8620 P   0  0  0  0  0  0  0  0  0  0  0  0
   -5.6150   -1.0590    2.9450 O   0  0  0  0  0  0  0  0  0  0  0  0
  1  2  1  0
  2  3  1  0
  3  4  1  0
  4  5  1  0
  6  5  1  1
  6  7  2  0
  6  8  2  0
  6  9  1  0
  9 10  1  0
 10 11  1  6
 10 12  1  0
 10 13  1  0
 13 14  1  0
 14 15  1  1
 14 16  1  0
 14 17  1  0
 17 18  2  0
M  END
