
     RDKit          3D

 18 18  0  0  0  0  0  0  0  0999 V2000
   -3.6280    2.3270   -0.5310 C   0  0  0  0  0  0  0  0  0  0  0  0
   -4.0450    1.2770    0.4770 C   0  0  0  0  0  0  0  0  0  0  0  0
   -3.3610   -0.0510    0.2140 C   0  0  0  0  0  0  0  0  0  0  0  0
   -1.8880    0.1670    0.3110 C   0  0  0  0  0  0  0  0  0  0  0  0
   -1.0790   -1.0820    0.0700 C   0  0  1  0  0  0  0  0  0  0  0  0
   -1.5050   -2.0960    1.1410 C   0  0  0  0  0  0  0  0  0  0  0  0
   -1.3380   -1.7110   -1.2540 C   0  0  0  0  0  0  0  0  0  0  0  0
    0.2940   -0.8840    0.2410 O   0  0  0  0  0  0  0  0  0  0  0  0
    1.0710   -0.0090   -0.4600 C   0  0  0  0  0  0  0  0  0  0  0  0
    0.5470    0.7020   -1.3490 O   0  0  0  0  0  0  0  0  0  0  0  0
    2.4970    0.0800   -0.1620 C   0  0  0  0  0  0  0  0  0  0  0  0
    3.3220    0.9510   -0.8450 C   0  0  0  0  0  0  0  0  0  0  0  0
    4.6720    1.0530   -0.5800 C   0  0  0  0  0  0  0  0  0  0  0  0
    5.2640    0.2760    0.3960 C   0  0  0  0  0  0  0  0  0  0  0  0
    7.0600    0.3950    0.7650 P   0  0  0  0  0  0  0  0  0  0  0  0
    8.0880    0.8430   -0.3010 O   0  0  0  0  0  0  0  0  0  0  0  0
    4.4410   -0.5950    1.0800 C   0  0  0  0  0  0  0  0  0  0  0  0
    3.0910   -0.6960    0.8130 C   0  0  0  0  0  0  0  0  0  0  0  0
  1  2  1  0
  2  3  1  0
  3  4  1  0
  4  5  1  0
  5  6  1  1
  5  7  1  0
  5  8  1  0
  8  9  1  0
  9 10  2  0
  9 11  1  0
 11 12  2  0
 11 18  1  0
 12 13  1  0
 13 14  2  0
 14 15  1  0
 14 17  1  0
 15 16  2  0
 17 18  2  0
M  END
