
     RDKit          3D

 15 14  0  0  0  0  0  0  0  0999 V2000
    4.4210   -0.2290   -0.0510 C   0  0  0  0  0  0  0  0  0  0  0  0
    3.0210    0.1650    0.4470 C   0  0  1  0  0  0  0  0  0  0  0  0
    2.7000    1.5700   -0.0470 C   0  0  0  0  0  0  0  0  0  0  0  0
    3.6790    2.4350    0.4720 O   0  0  0  0  0  0  0  0  0  0  0  0
    2.0300   -0.8380   -0.0500 C   0  0  0  0  0  0  0  0  0  0  0  0
    0.6320   -0.4960    0.4170 C   0  0  0  0  0  0  0  0  0  0  0  0
   -0.3680   -1.5490   -0.0980 C   0  0  0  0  0  0  0  0  0  0  0  0
   -2.0010   -1.2130    0.4050 P   0  0  0  0  0  0  0  0  0  0  0  0
   -2.4640   -2.6250    0.9020 O   0  0  0  0  0  0  0  0  0  0  0  0
   -3.2130   -1.4170   -0.7550 O   0  0  0  0  0  0  0  0  0  0  0  0
   -2.0440    0.2680   -0.0130 O   0  0  0  0  0  0  0  0  0  0  0  0
   -3.4740    1.0760    0.2640 P   0  0  0  0  0  0  0  0  0  0  0  0
   -3.4350    2.7270    0.5240 O   0  0  0  0  0  0  0  0  0  0  0  0
   -4.8620    0.2790    0.5100 O   0  0  0  0  0  0  0  0  0  0  0  0
   -3.6340    1.3230   -1.2350 O   0  0  0  0  0  0  0  0  0  0  0  0
  2  1  1  6
  2  3  1  0
  2  5  1  0
  3  4  1  0
  5  6  1  0
  6  7  1  0
  7  8  1  0
  8  9  1  0
  8 10  1  0
  8 11  1  0
 11 12  1  0
 12 13  1  0
 12 14  1  0
 12 15  1  0
M  END
