
     RDKit          3D

 17 17  0  0  0  0  0  0  0  0999 V2000
   -3.0090    3.3030   -0.0720 C   0  0  0  0  0  0  0  0  0  0  0  0
   -2.1410    2.1030   -0.2830 C   0  0  0  0  0  0  0  0  0  0  0  0
   -1.7340    1.5140    0.9060 O   0  0  0  0  0  0  0  0  0  0  0  0
   -0.7570    0.1600    0.7530 P   0  0  0  0  0  0  0  0  0  0  0  0
   -1.5120   -1.3520    0.8110 O   0  0  0  0  0  0  0  0  0  0  0  0
   -2.8790   -1.3410    0.8900 C   0  0  2  0  0  0  0  0  0  0  0  0
   -3.3880   -2.0890    2.1130 C   0  0  0  0  0  0  0  0  0  0  0  0
   -3.4100   -2.1190   -0.3200 C   0  0  0  0  0  0  0  0  0  0  0  0
    0.4870    0.2120   -0.5420 C   0  0  0  0  0  0  0  0  0  0  0  0
    0.0800    0.4210   -1.9550 C   0  0  0  0  0  0  0  0  0  0  0  0
    1.7400    0.0670   -0.2540 C   0  0  0  0  0  0  0  0  0  0  0  0
    2.8060    0.0940   -1.2240 C   0  0  0  0  0  0  0  0  0  0  0  0
    4.0730   -0.0410   -1.0190 C   0  0  0  0  0  0  0  0  0  0  0  0
    4.6060   -0.2490    0.2930 C   0  0  0  0  0  0  0  0  0  0  0  0
    6.1080   -0.3930    0.4020 C   0  0  0  0  0  0  0  0  0  0  0  0
    3.9680   -0.3320    1.4190 C   0  0  0  0  0  0  0  0  0  0  0  0
    2.2030   -0.1830    1.4540 S   0  0  0  0  0  0  0  0  0  0  0  0
  1  2  1  0
  2  3  1  0
  3  4  1  0
  4  5  1  0
  4  9  1  0
  5  6  1  0
  6  7  1  1
  6  8  1  0
  9 10  1  0
  9 11  2  3
 11 12  1  0
 11 17  1  0
 12 13  2  0
 13 14  1  0
 14 15  1  0
 14 16  2  0
 16 17  1  0
M  END
