
     RDKit          3D

 23 24  0  0  0  0  0  0  0  0999 V2000
    5.5220    2.5580    0.4920 C   0  0  0  0  0  0  0  0  0  0  0  0
    6.1260    1.3310   -0.1030 C   0  0  0  0  0  0  0  0  0  0  0  0
    5.4470    0.0330    0.1470 C   0  0  0  0  0  0  0  0  0  0  0  0
    4.1180   -0.0140   -0.3620 N   0  0  0  0  0  0  0  0  0  0  0  0
    3.6910   -1.4500   -0.4640 C   0  0  0  0  0  0  0  0  0  0  0  0
    2.5260   -1.4270   -1.4320 C   0  0  0  0  0  0  0  0  0  0  0  0
    1.3710   -0.6160   -0.8950 C   0  0  1  0  0  0  0  0  0  0  0  0
    0.6130   -1.2860    0.0770 O   0  0  0  0  0  0  0  0  0  0  0  0
   -0.7590   -1.5080   -0.1380 C   0  0  0  0  0  0  0  0  0  0  0  0
   -1.2770   -1.0990   -1.1980 O   0  0  0  0  0  0  0  0  0  0  0  0
   -1.5130   -2.1920    0.8650 N   0  0  0  0  0  0  0  0  0  0  0  0
   -2.9240   -2.4460    0.6980 C   0  0  0  0  0  0  0  0  0  0  0  0
   -3.6450   -1.1260    0.5450 C   0  0  0  0  0  0  0  0  0  0  0  0
   -2.9860   -0.0610    0.5700 O   0  0  0  0  0  0  0  0  0  0  0  0
   -5.0440   -1.1240    0.3770 N   0  0  0  0  0  0  0  0  0  0  0  0
   -5.8220    0.0620    0.2220 C   0  0  0  0  0  0  0  0  0  0  0  0
   -5.4340    1.2940    0.1880 C   0  0  0  0  0  0  0  0  0  0  0  0
   -6.6000    2.1920    0.0100 C   0  0  0  0  0  0  0  0  0  0  0  0
   -7.7530    1.2730   -0.0520 C   0  0  0  0  0  0  0  0  0  0  0  0
   -9.0720    1.5800   -0.2070 F   0  0  0  0  0  0  0  0  0  0  0  0
   -7.2800    0.0550    0.0720 C   0  0  0  0  0  0  0  0  0  0  0  0
    1.8450    0.6950   -0.2960 C   0  0  0  0  0  0  0  0  0  0  0  0
    3.0980    0.5030    0.5520 C   0  0  0  0  0  0  0  0  0  0  0  0
  1  2  1  0
  2  3  1  0
  3  4  1  0
  4  5  1  0
  4 23  1  0
  5  6  1  0
  6  7  1  0
  7  8  1  1
  7 22  1  0
  8  9  1  0
  9 10  2  0
  9 11  1  0
 11 12  1  0
 12 13  1  0
 13 14  2  0
 13 15  1  0
 15 16  1  0
 16 17  2  0
 16 21  1  0
 17 18  1  0
 18 19  1  0
 19 20  1  0
 19 21  2  0
 22 23  1  0
M  END
