
     RDKit          3D

 23 24  0  0  0  0  0  0  0  0999 V2000
    1.8170    2.4420    0.6420 O   0  0  0  0  0  0  0  0  0  0  0  0
    1.1880    1.3780    0.5640 C   0  0  0  0  0  0  0  0  0  0  0  0
    1.8250    0.1580    0.8810 N   0  0  0  0  0  0  0  0  0  0  0  0
    3.2090    0.1670    1.2950 C   0  0  0  0  0  0  0  0  0  0  0  0
    3.6460   -1.2360    1.5720 C   0  0  2  0  0  0  0  0  0  0  0  0
    5.1470   -1.2810    1.7660 C   0  0  0  0  0  0  0  0  0  0  0  0
    5.6210   -1.0210    0.3290 C   0  0  0  0  0  0  0  0  0  0  0  0
    4.4390   -1.4970   -0.4740 C   0  0  0  0  0  0  0  0  0  0  0  0
    3.5010   -1.9920    0.4030 O   0  0  0  0  0  0  0  0  0  0  0  0
   -0.2000    1.3610    0.1500 C   0  0  0  0  0  0  0  0  0  0  0  0
   -0.7870    2.5960   -0.1540 C   0  0  0  0  0  0  0  0  0  0  0  0
   -2.0520    2.5690   -0.5300 N   0  0  0  0  0  0  0  0  0  0  0  0
   -2.8190    1.4730   -0.6460 C   0  0  0  0  0  0  0  0  0  0  0  0
   -4.1990    1.5100   -1.0630 C   0  0  0  0  0  0  0  0  0  0  0  0
   -4.8420    2.5910   -1.3680 C   0  0  0  0  0  0  0  0  0  0  0  0
   -4.4230    3.9930   -1.3890 C   0  0  0  0  0  0  0  0  0  0  0  0
   -4.5850    4.4600   -2.7020 F   0  0  0  0  0  0  0  0  0  0  0  0
   -2.1980    0.2600   -0.3340 C   0  0  0  0  0  0  0  0  0  0  0  0
   -2.9160   -0.9980   -0.4180 C   0  0  0  0  0  0  0  0  0  0  0  0
   -2.2740   -2.1280   -0.1090 C   0  0  0  0  0  0  0  0  0  0  0  0
   -2.9510   -3.4380   -0.1760 C   0  0  0  0  0  0  0  0  0  0  0  0
   -4.2630   -3.2850   -0.5850 O   0  0  0  0  0  0  0  0  0  0  0  0
   -0.9050    0.2420    0.0550 N   0  0  0  0  0  0  0  0  0  0  0  0
  1  2  2  0
  2  3  1  0
  2 10  1  0
  3  4  1  0
  5  4  1  6
  5  6  1  0
  5  9  1  0
  6  7  1  0
  7  8  1  0
  8  9  1  0
 10 11  2  0
 10 23  1  0
 11 12  1  0
 12 13  2  0
 13 14  1  0
 13 18  1  0
 14 15  2  3
 15 16  1  0
 16 17  1  0
 18 19  1  0
 18 23  2  0
 19 20  2  3
 20 21  1  0
 21 22  1  0
M  END
