
     RDKit          3D

 22 24  0  0  0  0  0  0  0  0999 V2000
   -0.6480   -2.2930    2.6690 N   0  0  0  0  0  0  0  0  0  0  0  0
   -1.0860   -2.4420    1.2780 C   0  0  2  0  0  0  0  0  0  0  0  0
    0.1160   -2.4170    0.3870 C   0  0  0  0  0  0  0  0  0  0  0  0
    0.8570   -1.1260    0.5390 C   0  0  0  0  0  0  0  0  0  0  0  0
    2.0180   -1.1180   -0.3130 N   0  0  0  0  0  0  0  0  0  0  0  0
    2.9220    0.0110   -0.3690 C   0  0  0  0  0  0  0  0  0  0  0  0
    3.5490    0.3020    0.7390 C   0  0  0  0  0  0  0  0  0  0  0  0
    4.5150    1.4040    0.9240 C   0  0  0  0  0  0  0  0  0  0  0  0
    4.7970    2.3670   -0.5170 S   0  0  1  0  0  0  0  0  0  0  0  0
    4.4150    3.8120   -0.3130 O   0  0  0  0  0  0  0  0  0  0  0  0
    6.2590    2.3170   -0.9380 O   0  0  0  0  0  0  0  0  0  0  0  0
    3.8120    1.7140   -1.8030 C   0  0  0  0  0  0  0  0  0  0  0  0
    3.0330    0.6870   -1.6290 C   0  0  0  0  0  0  0  0  0  0  0  0
   -2.0160   -1.3580    0.8730 C   0  0  0  0  0  0  0  0  0  0  0  0
   -1.9450   -0.0530    1.1300 N   0  0  0  0  0  0  0  0  0  0  0  0
   -2.9690    0.6370    0.6020 C   0  0  0  0  0  0  0  0  0  0  0  0
   -3.3470    1.9690    0.5820 C   0  0  0  0  0  0  0  0  0  0  0  0
   -4.4970    2.3630   -0.0730 C   0  0  0  0  0  0  0  0  0  0  0  0
   -5.2890    1.4220   -0.7210 C   0  0  0  0  0  0  0  0  0  0  0  0
   -4.8960    0.0890   -0.6930 C   0  0  0  0  0  0  0  0  0  0  0  0
   -3.7400   -0.3060   -0.0340 C   0  0  0  0  0  0  0  0  0  0  0  0
   -3.1580   -1.4990    0.1360 N   0  0  0  0  0  0  0  0  0  0  0  0
  2  1  1  1
  2  3  1  0
  2 14  1  0
  3  4  1  0
  4  5  1  0
  5  6  1  0
  6  7  2  0
  6 13  1  0
  7  8  1  0
  9  8  1  1
  9 10  2  0
  9 11  2  0
  9 12  1  0
 12 13  2  0
 14 15  2  0
 14 22  1  0
 15 16  1  0
 16 17  2  0
 16 21  1  0
 17 18  1  0
 18 19  2  0
 19 20  1  0
 20 21  2  0
 21 22  1  0
M  END
