
     RDKit          3D

 23 23  0  0  0  0  0  0  0  0999 V2000
    5.7590    1.6880    1.6820 C   0  0  0  0  0  0  0  0  0  0  0  0
    5.0510    0.4590    1.8180 O   0  0  0  0  0  0  0  0  0  0  0  0
    5.2260   -0.5810    0.9010 C   0  0  0  0  0  0  0  0  0  0  0  0
    6.5250   -1.3100    0.9050 C   0  0  0  0  0  0  0  0  0  0  0  0
    4.2550   -0.8960    0.0610 C   0  0  0  0  0  0  0  0  0  0  0  0
    3.0160   -0.1640    0.0930 C   0  0  0  0  0  0  0  0  0  0  0  0
    2.8550    0.8310    0.9730 F   0  0  0  0  0  0  0  0  0  0  0  0
    2.0590   -0.4720   -0.7330 C   0  0  0  0  0  0  0  0  0  0  0  0
    0.7440    0.1790   -0.8220 C   0  0  0  0  0  0  0  0  0  0  0  0
   -0.4080   -0.7090   -0.5840 C   0  0  1  0  0  0  0  0  0  0  0  0
   -0.5030   -1.8610   -1.5570 C   0  0  0  0  0  0  0  0  0  0  0  0
   -0.4840   -1.2850    0.8040 C   0  0  0  0  0  0  0  0  0  0  0  0
   -1.6650    0.1520   -0.7260 C   0  0  0  0  0  0  0  0  0  0  0  0
   -1.4960    1.3150   -0.9920 O   0  0  0  0  0  0  0  0  0  0  0  0
   -2.9190   -0.3820   -0.5570 N   0  0  0  0  0  0  0  0  0  0  0  0
   -4.2330    0.1170   -0.6190 C   0  0  0  0  0  0  0  0  0  0  0  0
   -4.7700    1.2650   -0.8630 C   0  0  0  0  0  0  0  0  0  0  0  0
   -4.2230    2.5700   -1.1750 C   0  0  0  0  0  0  0  0  0  0  0  0
   -3.0980    3.0630   -1.3220 N   0  0  0  0  0  0  0  0  0  0  0  0
   -6.3190    1.1090   -0.9450 C   0  0  0  0  0  0  0  0  0  0  0  0
   -6.5530   -0.0370   -0.1780 N   0  0  0  0  0  0  0  0  0  0  0  0
   -5.3710   -0.7880   -0.1670 C   0  0  0  0  0  0  0  0  0  0  0  0
   -5.2630   -1.9810    0.1520 O   0  0  0  0  0  0  0  0  0  0  0  0
  1  2  1  0
  2  3  1  0
  3  4  1  0
  3  5  2  3
  5  6  1  0
  6  7  1  0
  6  8  2  3
  8  9  1  0
  9 10  1  0
 10 11  1  6
 10 12  1  0
 10 13  1  0
 13 14  2  0
 13 15  1  0
 15 16  1  0
 16 17  2  0
 16 22  1  0
 17 18  1  0
 17 20  1  0
 18 19  2  0
 20 21  1  0
 21 22  1  0
 22 23  2  0
M  END
