
     RDKit          3D

 23 24  0  0  0  0  0  0  0  0999 V2000
   -4.4120    2.9210   -0.5710 C   0  0  0  0  0  0  0  0  0  0  0  0
   -4.8600    1.6660    0.1000 C   0  0  0  0  0  0  0  0  0  0  0  0
   -3.8080    0.5320   -0.1060 C   0  0  0  0  0  0  0  0  0  0  0  0
   -2.5680    1.0450    0.4990 C   0  0  0  0  0  0  0  0  0  0  0  0
   -1.3440    0.2760    0.4700 C   0  0  0  0  0  0  0  0  0  0  0  0
   -1.0800   -0.8650   -0.0570 C   0  0  0  0  0  0  0  0  0  0  0  0
   -1.9340   -1.8480   -0.8390 C   0  0  0  0  0  0  0  0  0  0  0  0
   -1.4650   -3.1200   -0.1320 C   0  0  0  0  0  0  0  0  0  0  0  0
   -2.2010   -4.0400    0.2500 O   0  0  0  0  0  0  0  0  0  0  0  0
   -0.0250   -2.9020   -0.0730 C   0  0  0  0  0  0  0  0  0  0  0  0
    0.8980   -3.9280   -0.0590 O   0  0  0  0  0  0  0  0  0  0  0  0
    0.7980   -5.1520   -0.7140 C   0  0  0  0  0  0  0  0  0  0  0  0
   -0.3030   -5.8820   -0.3140 F   0  0  0  0  0  0  0  0  0  0  0  0
    0.2320   -1.5760   -0.0350 C   0  0  0  0  0  0  0  0  0  0  0  0
    1.5750   -1.0490    0.0180 C   0  0  0  0  0  0  0  0  0  0  0  0
    2.5630   -1.8900    0.1080 O   0  0  0  0  0  0  0  0  0  0  0  0
    1.9450    0.3060   -0.0250 N   0  0  0  0  0  0  0  0  0  0  0  0
    3.3130    0.7590    0.0360 C   0  0  0  0  0  0  0  0  0  0  0  0
    3.7000    2.0920   -0.0050 C   0  0  0  0  0  0  0  0  0  0  0  0
    5.0630    2.1060    0.0770 C   0  0  0  0  0  0  0  0  0  0  0  0
    5.9840    3.2840    0.0770 C   0  0  0  0  0  0  0  0  0  0  0  0
    5.4970    0.8590    0.1650 N   0  0  0  0  0  0  0  0  0  0  0  0
    4.4280    0.0670    0.1380 N   0  0  0  0  0  0  0  0  0  0  0  0
  1  2  1  0
  2  3  1  0
  3  4  1  0
  4  5  1  0
  5  6  2  3
  6  7  1  0
  6 14  1  0
  7  8  1  0
  8  9  2  0
  8 10  1  0
 10 11  1  0
 10 14  2  0
 11 12  1  0
 12 13  1  0
 14 15  1  0
 15 16  2  0
 15 17  1  0
 17 18  1  0
 18 19  2  0
 18 23  1  0
 19 20  1  0
 20 21  1  0
 20 22  2  0
 22 23  1  0
M  END
