
     RDKit          3D

 24 25  0  0  0  0  0  0  0  0999 V2000
    0.4340   -3.1160   -0.3500 C   0  0  0  0  0  0  0  0  0  0  0  0
    1.3820   -1.9630   -0.2670 C   0  0  0  0  0  0  0  0  0  0  0  0
    2.6410   -2.2690    0.0880 C   0  0  0  0  0  0  0  0  0  0  0  0
    3.6710   -1.2360    0.2080 C   0  0  0  0  0  0  0  0  0  0  0  0
    3.3850   -0.0220    0.7990 C   0  0  0  0  0  0  0  0  0  0  0  0
    4.3370    0.9720    0.9130 C   0  0  0  0  0  0  0  0  0  0  0  0
    4.0460    2.1830    1.5050 O   0  0  0  0  0  0  0  0  0  0  0  0
    5.6200    0.7980    0.4400 C   0  0  0  0  0  0  0  0  0  0  0  0
    5.9140   -0.4170   -0.1540 C   0  0  0  0  0  0  0  0  0  0  0  0
    4.9540   -1.4070   -0.2630 C   0  0  0  0  0  0  0  0  0  0  0  0
    5.2960   -2.5980   -0.8620 O   0  0  0  0  0  0  0  0  0  0  0  0
    0.9860   -0.7190   -0.5350 O   0  0  0  0  0  0  0  0  0  0  0  0
   -0.1300    0.0150   -0.5820 C   0  0  0  0  0  0  0  0  0  0  0  0
   -1.4070   -0.4360   -0.3100 C   0  0  0  0  0  0  0  0  0  0  0  0
   -2.5270    0.3850   -0.3800 C   0  0  0  0  0  0  0  0  0  0  0  0
   -3.8870   -0.1570   -0.0920 C   0  0  0  0  0  0  0  0  0  0  0  0
   -4.4330    0.2540    1.2330 C   0  0  1  0  0  0  0  0  0  0  0  0
   -5.8050   -0.3500    1.4090 C   0  0  0  0  0  0  0  0  0  0  0  0
   -3.6130   -0.2820    2.2340 O   0  0  0  0  0  0  0  0  0  0  0  0
   -2.3270    1.6970   -0.7360 C   0  0  0  0  0  0  0  0  0  0  0  0
   -3.4630    2.6280   -0.8250 C   0  0  0  0  0  0  0  0  0  0  0  0
   -1.0640    2.1920   -1.0170 C   0  0  0  0  0  0  0  0  0  0  0  0
    0.0280    1.3710   -0.9440 C   0  0  0  0  0  0  0  0  0  0  0  0
    1.3920    1.8500   -1.2340 C   0  0  0  0  0  0  0  0  0  0  0  0
  1  2  1  0
  2  3  2  3
  2 12  1  0
  3  4  1  0
  4  5  2  0
  4 10  1  0
  5  6  1  0
  6  7  1  0
  6  8  2  0
  8  9  1  0
  9 10  2  0
 10 11  1  0
 12 13  1  0
 13 14  2  0
 13 23  1  0
 14 15  1  0
 15 16  1  0
 15 20  2  0
 16 17  1  0
 17 18  1  1
 17 19  1  0
 20 21  1  0
 20 22  1  0
 22 23  2  0
 23 24  1  0
M  END
