
     RDKit          3D

 10 10  0  0  0  0  0  0  0  0999 V2000
    3.1190   -0.3540    0.3030 C   0  0  0  0  0  0  0  0  0  0  0  0
    2.0000    0.6360    0.3150 C   0  0  0  0  0  0  0  0  0  0  0  0
    0.7520    0.1640   -0.3640 C   0  0  2  0  0  0  0  0  0  0  0  0
    1.0960   -0.1070   -1.7050 O   0  0  0  0  0  0  0  0  0  0  0  0
   -0.2210    1.3280   -0.3980 C   0  0  0  0  0  0  0  0  0  0  0  0
   -1.2340    1.2740    0.7010 C   0  0  0  0  0  0  0  0  0  0  0  0
   -2.4970    0.6520    0.1330 C   0  0  0  0  0  0  0  0  0  0  0  0
   -2.3360   -0.8450    0.2110 C   0  0  0  0  0  0  0  0  0  0  0  0
   -1.1410   -1.3560   -0.5180 C   0  0  0  0  0  0  0  0  0  0  0  0
    0.1630   -1.0710    0.2170 C   0  0  0  0  0  0  0  0  0  0  0  0
  1  2  1  0
  2  3  1  0
  3  4  1  6
  3  5  1  0
  3 10  1  0
  5  6  1  0
  6  7  1  0
  7  8  1  0
  8  9  1  0
  9 10  1  0
M  END
