
     RDKit          3D

 24 25  0  0  0  0  0  0  0  0999 V2000
    5.8270    1.4390    0.6030 C   0  0  0  0  0  0  0  0  0  0  0  0
    4.9330    1.4620   -0.5730 C   0  0  0  0  0  0  0  0  0  0  0  0
    5.1730    2.3490   -1.6230 C   0  0  0  0  0  0  0  0  0  0  0  0
    4.3550    2.3940   -2.7330 C   0  0  0  0  0  0  0  0  0  0  0  0
    4.6380    3.3550   -3.8330 C   0  0  0  0  0  0  0  0  0  0  0  0
    3.3010    1.5360   -2.7640 C   0  0  0  0  0  0  0  0  0  0  0  0
    2.4760    1.5650   -3.8610 O   0  0  0  0  0  0  0  0  0  0  0  0
    2.9970    0.6210   -1.7530 C   0  0  0  0  0  0  0  0  0  0  0  0
    1.9940   -0.1670   -1.8250 O   0  0  0  0  0  0  0  0  0  0  0  0
    0.9950   -0.9940   -1.8290 C   0  0  0  0  0  0  0  0  0  0  0  0
    0.0230   -0.7660   -0.6860 C   0  0  0  0  0  0  0  0  0  0  0  0
    0.1780    0.1580    0.1480 O   0  0  0  0  0  0  0  0  0  0  0  0
   -1.0440   -1.6200   -0.6030 O   0  0  0  0  0  0  0  0  0  0  0  0
   -2.0200   -1.5220    0.3980 C   0  0  0  0  0  0  0  0  0  0  0  0
   -1.8000   -2.1390    1.6320 C   0  0  0  0  0  0  0  0  0  0  0  0
   -2.7240   -2.0770    2.6570 C   0  0  0  0  0  0  0  0  0  0  0  0
   -2.4840   -2.7360    3.9720 C   0  0  0  0  0  0  0  0  0  0  0  0
   -3.8970   -1.3670    2.4070 C   0  0  0  0  0  0  0  0  0  0  0  0
   -4.8960   -1.2920    3.4870 C   0  0  0  0  0  0  0  0  0  0  0  0
   -4.1140   -0.7540    1.1790 C   0  0  0  0  0  0  0  0  0  0  0  0
   -5.3870   -0.0170    0.9860 C   0  0  0  0  0  0  0  0  0  0  0  0
   -3.1830   -0.8280    0.1740 C   0  0  0  0  0  0  0  0  0  0  0  0
   -3.4150   -0.1730   -1.1450 C   0  0  0  0  0  0  0  0  0  0  0  0
    3.8590    0.6080   -0.6360 C   0  0  0  0  0  0  0  0  0  0  0  0
  1  2  1  0
  2  3  2  0
  2 24  1  0
  3  4  1  0
  4  5  1  0
  4  6  2  0
  6  7  1  0
  6  8  1  0
  8  9  1  0
  8 24  2  0
  9 10  1  0
 10 11  1  0
 11 12  2  0
 11 13  1  0
 13 14  1  0
 14 15  2  0
 14 22  1  0
 15 16  1  0
 16 17  1  0
 16 18  2  0
 18 19  1  0
 18 20  1  0
 20 21  1  0
 20 22  2  0
 22 23  1  0
M  END
