
     RDKit          3D

 24 25  0  0  0  0  0  0  0  0999 V2000
   -1.9920   -5.1750   -0.6660 C   0  0  0  0  0  0  0  0  0  0  0  0
   -1.0600   -3.9720   -0.4840 C   0  0  1  0  0  0  0  0  0  0  0  0
   -0.2760   -3.8310   -1.7800 C   0  0  0  0  0  0  0  0  0  0  0  0
   -1.9380   -2.7540   -0.3340 C   0  0  1  0  0  0  0  0  0  0  0  0
   -2.7770   -2.9070    0.7760 O   0  0  0  0  0  0  0  0  0  0  0  0
   -1.1620   -1.5000   -0.1940 C   0  0  0  0  0  0  0  0  0  0  0  0
    0.2080   -1.4980   -0.0520 C   0  0  0  0  0  0  0  0  0  0  0  0
    0.8900   -0.2900    0.0800 C   0  0  0  0  0  0  0  0  0  0  0  0
    2.3380   -0.3190    0.2270 C   0  0  0  0  0  0  0  0  0  0  0  0
    2.9940   -1.3860    0.2450 O   0  0  0  0  0  0  0  0  0  0  0  0
    3.0570    0.8700    0.3570 O   0  0  0  0  0  0  0  0  0  0  0  0
    4.4530    0.9260    0.5020 C   0  0  2  0  0  0  0  0  0  0  0  0
    4.8920    0.1960    1.7320 C   0  0  0  0  0  0  0  0  0  0  0  0
    4.8530    2.3850    0.5360 C   0  0  0  0  0  0  0  0  0  0  0  0
    5.1220    0.2330   -0.6810 C   0  0  0  0  0  0  0  0  0  0  0  0
    0.1960    0.9060    0.0700 C   0  0  0  0  0  0  0  0  0  0  0  0
   -1.1740    0.9130   -0.0710 C   0  0  0  0  0  0  0  0  0  0  0  0
   -1.8960    2.1840   -0.0850 C   0  0  0  0  0  0  0  0  0  0  0  0
   -2.6210    2.5010    1.1720 C   0  0  0  0  0  0  0  0  0  0  0  0
   -3.3310    3.8290    1.0320 C   0  0  2  0  0  0  0  0  0  0  0  0
   -4.3520    3.8800   -0.0760 C   0  0  0  0  0  0  0  0  0  0  0  0
   -3.1210    4.7460   -0.0860 C   0  0  0  0  0  0  0  0  0  0  0  0
   -1.8060   -0.3020   -0.1990 C   0  0  0  0  0  0  0  0  0  0  0  0
   -3.1790   -0.2600   -0.3380 O   0  0  0  0  0  0  0  0  0  0  0  0
  2  1  1  6
  2  3  1  0
  2  4  1  0
  4  5  1  1
  4  6  1  0
  6  7  2  0
  6 23  1  0
  7  8  1  0
  8  9  1  0
  8 16  2  0
  9 10  2  0
  9 11  1  0
 11 12  1  0
 12 13  1  1
 12 14  1  0
 12 15  1  0
 16 17  1  0
 17 18  1  0
 17 23  2  0
 18 19  1  0
 20 19  1  6
 20 21  1  0
 20 22  1  0
 21 22  1  0
 23 24  1  0
M  END
