
     RDKit          3D

 17 19  0  0  0  0  0  0  0  0999 V2000
   -3.2640   -2.1510   -1.4530 O   0  0  0  0  0  0  0  0  0  0  0  0
   -2.6320   -1.0970   -1.1070 C   0  0  0  0  0  0  0  0  0  0  0  0
   -2.6340   -0.0690   -2.0390 O   0  0  0  0  0  0  0  0  0  0  0  0
   -1.9490   -0.9930    0.2040 C   0  0  2  0  0  0  0  0  0  0  0  0
   -2.5250    0.0750    1.0920 C   0  0  0  0  0  0  0  0  0  0  0  0
   -2.0600    1.4370    0.6670 C   0  0  0  0  0  0  0  0  0  0  0  0
   -0.6060    1.5900    0.9810 C   0  0  0  0  0  0  0  0  0  0  0  0
    0.1160    0.4180    0.4180 C   0  0  0  0  0  0  0  0  0  0  0  0
   -0.4860   -0.7510    0.0660 C   0  0  0  0  0  0  0  0  0  0  0  0
    0.4700   -1.5730   -0.4000 N   0  0  0  0  0  0  0  0  0  0  0  0
    1.6810   -0.9770   -0.3630 C   0  0  0  0  0  0  0  0  0  0  0  0
    2.9310   -1.4280   -0.7340 C   0  0  0  0  0  0  0  0  0  0  0  0
    3.9990   -0.5810   -0.5780 C   0  0  0  0  0  0  0  0  0  0  0  0
    3.7910    0.6870   -0.0600 C   0  0  0  0  0  0  0  0  0  0  0  0
    5.1720    1.7630    0.1340 Cl  0  0  0  0  0  0  0  0  0  0  0  0
    2.5540    1.1300    0.3050 C   0  0  0  0  0  0  0  0  0  0  0  0
    1.4660    0.2740    0.1500 C   0  0  0  0  0  0  0  0  0  0  0  0
  1  2  2  0
  2  3  1  0
  4  2  1  6
  4  5  1  0
  4  9  1  0
  5  6  1  0
  6  7  1  0
  7  8  1  0
  8  9  2  0
  8 17  1  0
  9 10  1  0
 10 11  1  0
 11 12  2  0
 11 17  1  0
 12 13  1  0
 13 14  2  0
 14 15  1  0
 14 16  1  0
 16 17  2  0
M  END
