
     RDKit          3D

 22 22  0  0  0  0  0  0  0  0999 V2000
   -0.2690    3.6840    1.4140 O   0  0  0  0  0  0  0  0  0  0  0  0
    0.0600    3.5660    0.0690 C   0  0  0  0  0  0  0  0  0  0  0  0
   -0.7620    2.5380   -0.6430 C   0  0  2  0  0  0  0  0  0  0  0  0
   -2.2150    2.9220   -0.5520 C   0  0  0  0  0  0  0  0  0  0  0  0
   -2.9030    2.0960   -1.4410 O   0  0  0  0  0  0  0  0  0  0  0  0
   -2.9790    0.8410   -0.8480 C   0  0  0  0  0  0  0  0  0  0  0  0
   -1.5910    0.2270   -0.6650 C   0  0  2  0  0  0  0  0  0  0  0  0
   -1.8020   -0.8940    0.1250 O   0  0  0  0  0  0  0  0  0  0  0  0
   -1.6120   -2.0870   -0.5240 C   0  0  0  0  0  0  0  0  0  0  0  0
   -1.8290   -3.2880    0.3510 C   0  0  2  0  0  0  0  0  0  0  0  0
   -3.1070   -3.3570    0.8730 O   0  0  0  0  0  0  0  0  0  0  0  0
   -0.9350   -3.3060    1.4160 O   0  0  0  0  0  0  0  0  0  0  0  0
   -0.6450    1.1540   -0.0140 C   0  0  2  0  0  0  0  0  0  0  0  0
   -1.0080    1.3040    1.3360 O   0  0  0  0  0  0  0  0  0  0  0  0
    0.7890    0.7070   -0.1300 C   0  0  0  0  0  0  0  0  0  0  0  0
    0.9510   -0.4750    0.5360 O   0  0  0  0  0  0  0  0  0  0  0  0
    2.2010   -1.0260    0.5320 C   0  0  2  0  0  0  0  0  0  0  0  0
    2.1160   -2.2270    1.2740 O   0  0  0  0  0  0  0  0  0  0  0  0
    3.2160   -0.1670    1.2290 C   0  0  0  0  0  0  0  0  0  0  0  0
    4.4780   -0.7580    1.2070 O   0  0  0  0  0  0  0  0  0  0  0  0
    2.6640   -1.4390   -0.8510 C   0  0  0  0  0  0  0  0  0  0  0  0
    3.9390   -1.9950   -0.8160 O   0  0  0  0  0  0  0  0  0  0  0  0
  1  2  1  0
  3  2  1  1
  3  4  1  0
  3 13  1  0
  4  5  1  0
  5  6  1  0
  6  7  1  0
  7  8  1  1
  7 13  1  0
  8  9  1  0
  9 10  1  0
 10 11  1  1
 10 12  1  0
 13 14  1  1
 13 15  1  0
 15 16  1  0
 16 17  1  0
 17 18  1  1
 17 19  1  0
 17 21  1  0
 19 20  1  0
 21 22  1  0
M  END
