
     RDKit          3D

 22 22  0  0  0  0  0  0  0  0999 V2000
   -0.8040    0.9910   -3.0850 O   0  0  0  0  0  0  0  0  0  0  0  0
   -0.9080    1.9640   -2.2770 C   0  0  0  0  0  0  0  0  0  0  0  0
   -0.8310    3.2940   -2.7230 O   0  0  0  0  0  0  0  0  0  0  0  0
   -1.1020    1.6630   -0.9340 O   0  0  0  0  0  0  0  0  0  0  0  0
   -1.1800    0.3190   -0.4790 C   0  0  1  0  0  0  0  0  0  0  0  0
   -0.1350    0.0470    0.5610 C   0  0  1  0  0  0  0  0  0  0  0  0
    0.7290    1.1140    0.6600 O   0  0  0  0  0  0  0  0  0  0  0  0
    2.0550    0.7580    0.3650 C   0  0  2  0  0  0  0  0  0  0  0  0
    2.8260    0.9510    1.6760 C   0  0  0  0  0  0  0  0  0  0  0  0
    2.2790    0.1210    2.6740 O   0  0  0  0  0  0  0  0  0  0  0  0
    2.6280    1.5740   -0.5770 O   0  0  0  0  0  0  0  0  0  0  0  0
    3.1120    0.9330   -1.6900 C   0  0  0  0  0  0  0  0  0  0  0  0
    4.1810   -0.0820   -1.4030 C   0  0  0  0  0  0  0  0  0  0  0  0
    4.5720   -0.6460   -2.6250 O   0  0  0  0  0  0  0  0  0  0  0  0
   -0.8630   -0.2250    1.8570 C   0  0  0  0  0  0  0  0  0  0  0  0
   -2.2900   -0.5550    1.4800 C   0  0  2  0  0  0  0  0  0  0  0  0
   -3.1180   -0.0390    2.4740 O   0  0  0  0  0  0  0  0  0  0  0  0
   -2.4370   -2.0490    1.4800 C   0  0  0  0  0  0  0  0  0  0  0  0
   -1.6350   -2.6480    0.5060 O   0  0  0  0  0  0  0  0  0  0  0  0
   -2.5190    0.0870    0.1600 C   0  0  2  0  0  0  0  0  0  0  0  0
   -3.3770   -0.7070   -0.7790 C   0  0  0  0  0  0  0  0  0  0  0  0
   -4.6100   -0.9070   -0.1610 O   0  0  0  0  0  0  0  0  0  0  0  0
  1  2  2  0
  2  3  1  0
  2  4  1  0
  5  4  1  1
  5  6  1  0
  5 20  1  0
  6  7  1  1
  6 15  1  0
  7  8  1  0
  8  9  1  1
  8 11  1  0
  9 10  1  0
 11 12  1  0
 12 13  1  0
 13 14  1  0
 15 16  1  0
 16 17  1  1
 16 18  1  0
 16 20  1  0
 18 19  1  0
 20 21  1  6
 21 22  1  0
M  END
