
     RDKit          3D

 22 22  0  0  0  0  0  0  0  0999 V2000
    7.5020   -0.1800    0.6020 O   0  0  0  0  0  0  0  0  0  0  0  0
    6.6490   -0.0130   -0.4850 C   0  0  0  0  0  0  0  0  0  0  0  0
    5.2810    0.4880   -0.0280 C   0  0  2  0  0  0  0  0  0  0  0  0
    4.7650   -0.4570    0.8330 O   0  0  0  0  0  0  0  0  0  0  0  0
    4.4870    0.7550   -1.2580 C   0  0  0  0  0  0  0  0  0  0  0  0
    3.2270    1.2520   -1.1180 O   0  0  0  0  0  0  0  0  0  0  0  0
    2.3870    0.4370   -0.4200 C   0  0  0  0  0  0  0  0  0  0  0  0
    0.9690    1.0440   -0.3600 C   0  0  1  0  0  0  0  0  0  0  0  0
    0.5340    1.1750   -1.6600 O   0  0  0  0  0  0  0  0  0  0  0  0
    0.0900    0.1160    0.4460 C   0  0  0  0  0  0  0  0  0  0  0  0
   -1.2060    0.5570    0.5090 O   0  0  0  0  0  0  0  0  0  0  0  0
   -1.9890   -0.3210    1.2450 C   0  0  1  0  0  0  0  0  0  0  0  0
   -2.3560    0.2530    2.4770 O   0  0  0  0  0  0  0  0  0  0  0  0
   -3.1440   -0.8560    0.4970 C   0  0  2  0  0  0  0  0  0  0  0  0
   -2.6660   -1.5980   -0.7260 C   0  0  0  0  0  0  0  0  0  0  0  0
   -1.9500   -0.8070   -1.6100 O   0  0  0  0  0  0  0  0  0  0  0  0
   -4.1460    0.1670    0.0440 C   0  0  2  0  0  0  0  0  0  0  0  0
   -3.6330    1.1250   -0.7950 O   0  0  0  0  0  0  0  0  0  0  0  0
   -4.9530    0.7450    1.1820 C   0  0  0  0  0  0  0  0  0  0  0  0
   -5.6220   -0.3650    1.6230 O   0  0  0  0  0  0  0  0  0  0  0  0
   -5.9820   -1.0280    0.4660 C   0  0  0  0  0  0  0  0  0  0  0  0
   -5.1790   -0.5840   -0.5590 O   0  0  0  0  0  0  0  0  0  0  0  0
  1  2  1  0
  2  3  1  0
  3  4  1  1
  3  5  1  0
  5  6  1  0
  6  7  1  0
  7  8  1  0
  8  9  1  6
  8 10  1  0
 10 11  1  0
 11 12  1  0
 12 13  1  1
 12 14  1  0
 14 15  1  6
 14 17  1  0
 15 16  1  0
 17 18  1  6
 17 19  1  0
 17 22  1  0
 19 20  1  0
 20 21  1  0
 21 22  1  0
M  END
