
     RDKit          3D

 22 22  0  0  0  0  0  0  0  0999 V2000
   -1.8590    0.9200   -2.0190 O   0  0  0  0  0  0  0  0  0  0  0  0
   -1.9690   -0.3820   -1.5440 C   0  0  0  0  0  0  0  0  0  0  0  0
   -2.8620   -0.4950   -0.3330 C   0  0  2  0  0  0  0  0  0  0  0  0
   -4.2320   -0.0210   -0.7050 C   0  0  0  0  0  0  0  0  0  0  0  0
   -4.6650   -0.8610   -1.7620 O   0  0  0  0  0  0  0  0  0  0  0  0
   -2.3010    0.1040    0.9170 C   0  0  1  0  0  0  0  0  0  0  0  0
   -2.0290    1.4710    0.6610 O   0  0  0  0  0  0  0  0  0  0  0  0
   -3.4930    0.2410    1.9490 C   0  0  0  0  0  0  0  0  0  0  0  0
   -3.8890   -1.0200    2.2920 O   0  0  0  0  0  0  0  0  0  0  0  0
   -1.3690   -0.5580    1.6060 O   0  0  0  0  0  0  0  0  0  0  0  0
   -0.0990   -0.7240    1.2140 C   0  0  0  0  0  0  0  0  0  0  0  0
    0.6890    0.5360    0.9280 C   0  0  1  0  0  0  0  0  0  0  0  0
    0.7310    1.3100    2.0850 O   0  0  0  0  0  0  0  0  0  0  0  0
    2.1170    0.2480    0.5350 C   0  0  2  0  0  0  0  0  0  0  0  0
    2.9770   -0.2340    1.6630 C   0  0  0  0  0  0  0  0  0  0  0  0
    2.7290   -1.5220    2.0640 O   0  0  0  0  0  0  0  0  0  0  0  0
    2.6650    1.5930    0.0230 C   0  0  0  0  0  0  0  0  0  0  0  0
    3.7330    1.1460   -0.7490 O   0  0  0  0  0  0  0  0  0  0  0  0
    3.2740   -0.0140   -1.3690 C   0  0  1  0  0  0  0  0  0  0  0  0
    4.4410   -0.9420   -1.5390 C   0  0  0  0  0  0  0  0  0  0  0  0
    5.3820   -0.2620   -2.3420 O   0  0  0  0  0  0  0  0  0  0  0  0
    2.2570   -0.5160   -0.5960 O   0  0  0  0  0  0  0  0  0  0  0  0
  1  2  1  0
  3  2  1  6
  3  4  1  0
  3  6  1  0
  4  5  1  0
  6  7  1  6
  6  8  1  0
  6 10  1  0
  8  9  1  0
 10 11  1  0
 11 12  1  0
 12 13  1  1
 12 14  1  0
 14 15  1  1
 14 17  1  0
 14 22  1  0
 15 16  1  0
 17 18  1  0
 18 19  1  0
 19 20  1  1
 19 22  1  0
 20 21  1  0
M  END
