
     RDKit          3D

 22 23  0  0  0  0  0  0  0  0999 V2000
    5.7290   -0.2140    0.9580 O   0  0  0  0  0  0  0  0  0  0  0  0
    5.2740   -1.1380    0.0200 C   0  0  0  0  0  0  0  0  0  0  0  0
    3.8610   -0.7840   -0.4420 C   0  0  2  0  0  0  0  0  0  0  0  0
    3.9090    0.4510   -0.9970 O   0  0  0  0  0  0  0  0  0  0  0  0
    2.9250   -1.0230    0.6850 C   0  0  0  0  0  0  0  0  0  0  0  0
    1.6280   -0.8810    0.5510 O   0  0  0  0  0  0  0  0  0  0  0  0
    0.9280    0.1990    0.2110 C   0  0  2  0  0  0  0  0  0  0  0  0
    1.3420    0.5950   -1.0660 O   0  0  0  0  0  0  0  0  0  0  0  0
    1.0440    1.4080    1.0640 C   0  0  0  0  0  0  0  0  0  0  0  0
    0.0180    2.3070    1.0800 O   0  0  0  0  0  0  0  0  0  0  0  0
   -1.0400    2.0520    0.2600 C   0  0  0  0  0  0  0  0  0  0  0  0
   -1.4820    0.6420    0.6870 C   0  0  1  0  0  0  0  0  0  0  0  0
   -1.2440    0.5110    2.0860 O   0  0  0  0  0  0  0  0  0  0  0  0
   -2.9070    0.5190    0.4970 C   0  0  0  0  0  0  0  0  0  0  0  0
   -3.5360    0.6860   -0.8240 C   0  0  2  0  0  0  0  0  0  0  0  0
   -5.0510    0.4890   -0.5950 C   0  0  0  0  0  0  0  0  0  0  0  0
   -5.2790   -0.8570   -0.7580 O   0  0  0  0  0  0  0  0  0  0  0  0
   -4.1360   -1.4130   -1.2970 C   0  0  0  0  0  0  0  0  0  0  0  0
   -3.3350   -0.3610   -1.7250 O   0  0  0  0  0  0  0  0  0  0  0  0
   -0.5300   -0.2820    0.0380 C   0  0  1  0  0  0  0  0  0  0  0  0
   -0.7820   -0.5440   -1.3070 O   0  0  0  0  0  0  0  0  0  0  0  0
   -0.7060   -1.5390    0.6730 O   0  0  0  0  0  0  0  0  0  0  0  0
  1  2  1  0
  2  3  1  0
  3  4  1  1
  3  5  1  0
  5  6  1  0
  6  7  1  0
  7  8  1  6
  7  9  1  0
  7 20  1  0
  9 10  1  0
 10 11  1  0
 11 12  1  0
 12 13  1  1
 12 14  1  0
 12 20  1  0
 15 14  1  1
 15 16  1  0
 15 19  1  0
 16 17  1  0
 17 18  1  0
 18 19  1  0
 20 21  1  6
 20 22  1  0
M  END
