
     RDKit          3D

 22 22  0  0  0  0  0  0  0  0999 V2000
    6.4580    1.0580   -1.0290 C   0  0  0  0  0  0  0  0  0  0  0  0
    5.8340    0.9050    0.3470 C   0  0  0  0  0  0  0  0  0  0  0  0
    4.4250    1.0370    0.2910 O   0  0  0  0  0  0  0  0  0  0  0  0
    3.6110    0.2010   -0.4610 C   0  0  0  0  0  0  0  0  0  0  0  0
    4.1580   -0.7080   -1.1170 O   0  0  0  0  0  0  0  0  0  0  0  0
    2.1420    0.3350   -0.5220 C   0  0  2  0  0  0  0  0  0  0  0  0
    1.7960    1.4170    0.2870 O   0  0  0  0  0  0  0  0  0  0  0  0
    1.4400   -0.9340   -0.0760 C   0  0  2  0  0  0  0  0  0  0  0  0
    1.9190   -2.0970   -0.9090 C   0  0  0  0  0  0  0  0  0  0  0  0
    0.0620   -0.7750   -0.1380 O   0  0  0  0  0  0  0  0  0  0  0  0
   -0.4400   -0.9110    1.1380 C   0  0  0  0  0  0  0  0  0  0  0  0
   -1.9110   -0.7680    1.2580 C   0  0  2  0  0  0  0  0  0  0  0  0
   -2.6420   -1.6780    0.5320 O   0  0  0  0  0  0  0  0  0  0  0  0
   -3.8280   -1.0200    0.1260 C   0  0  2  0  0  0  0  0  0  0  0  0
   -3.6440   -0.7340   -1.3530 C   0  0  0  0  0  0  0  0  0  0  0  0
   -2.5430    0.0650   -1.5820 O   0  0  0  0  0  0  0  0  0  0  0  0
   -3.7700    0.2140    0.9810 C   0  0  2  0  0  0  0  0  0  0  0  0
   -4.0740   -0.1830    2.2840 O   0  0  0  0  0  0  0  0  0  0  0  0
   -4.6280    1.3450    0.5150 C   0  0  1  0  0  0  0  0  0  0  0  0
   -4.4330    2.4290    1.3620 O   0  0  0  0  0  0  0  0  0  0  0  0
   -4.4200    1.7170   -0.7850 O   0  0  0  0  0  0  0  0  0  0  0  0
   -2.4010    0.4990    0.9390 O   0  0  0  0  0  0  0  0  0  0  0  0
  1  2  1  0
  2  3  1  0
  3  4  1  0
  4  5  2  0
  4  6  1  0
  6  7  1  1
  6  8  1  0
  8  9  1  6
  8 10  1  0
 10 11  1  0
 12 11  1  6
 12 13  1  0
 12 22  1  0
 13 14  1  0
 14 15  1  6
 14 17  1  0
 15 16  1  0
 17 18  1  1
 17 19  1  0
 17 22  1  0
 19 20  1  1
 19 21  1  0
M  END
