
     RDKit          3D

 23 26  0  0  0  0  0  0  0  0999 V2000
    3.6610    1.4070   -2.5940 N   0  0  0  0  0  0  0  0  0  0  0  0
    3.4540    0.9060   -1.2650 C   0  0  0  0  0  0  0  0  0  0  0  0
    2.3300    0.2530   -0.9330 N   0  0  0  0  0  0  0  0  0  0  0  0
    2.1580   -0.2060    0.3160 C   0  0  0  0  0  0  0  0  0  0  0  0
    3.1220   -0.0250    1.2950 C   0  0  0  0  0  0  0  0  0  0  0  0
    2.6560   -0.5950    2.4320 N   0  0  0  0  0  0  0  0  0  0  0  0
    1.4430   -1.1180    2.1850 C   0  0  0  0  0  0  0  0  0  0  0  0
    1.1320   -0.8870    0.9000 N   0  0  0  0  0  0  0  0  0  0  0  0
   -0.0710   -1.2710    0.2060 C   0  0  2  0  0  0  0  0  0  0  0  0
   -0.3690   -0.4400   -0.8580 O   0  0  0  0  0  0  0  0  0  0  0  0
   -1.7490   -0.3560   -0.9560 C   0  0  2  0  0  0  0  0  0  0  0  0
   -2.2390    0.8330   -1.6900 C   0  0  0  0  0  0  0  0  0  0  0  0
   -2.8960    1.7690   -0.8920 O   0  0  0  0  0  0  0  0  0  0  0  0
   -4.1540    1.0390   -0.0060 P   0  0  1  0  0  0  0  0  0  0  0  0
   -4.4870    1.9030    1.1960 O   0  0  0  0  0  0  0  0  0  0  0  0
   -5.4730    0.7250   -0.9710 O   0  0  0  0  0  0  0  0  0  0  0  0
   -3.4670   -0.4000    0.6260 O   0  0  0  0  0  0  0  0  0  0  0  0
   -2.1130   -0.1910    0.5260 C   0  0  1  0  0  0  0  0  0  0  0  0
   -1.2760   -1.2920    1.1150 C   0  0  1  0  0  0  0  0  0  0  0  0
   -2.0100   -2.4790    0.9910 O   0  0  0  0  0  0  0  0  0  0  0  0
    4.2660    0.6440    0.9430 C   0  0  0  0  0  0  0  0  0  0  0  0
    5.1440    0.8110    1.8300 O   0  0  0  0  0  0  0  0  0  0  0  0
    4.3840    1.0780   -0.3090 N   0  0  0  0  0  0  0  0  0  0  0  0
  1  2  1  0
  2  3  2  0
  2 23  1  0
  3  4  1  0
  4  5  2  0
  4  8  1  0
  5  6  1  0
  5 21  1  0
  6  7  2  0
  7  8  1  0
  9  8  1  1
  9 10  1  0
  9 19  1  0
 10 11  1  0
 11 12  1  6
 11 18  1  0
 12 13  1  0
 13 14  1  0
 14 15  2  0
 14 16  1  6
 14 17  1  0
 18 17  1  6
 18 19  1  0
 19 20  1  6
 21 22  2  0
 21 23  1  0
M  END
