
     RDKit          3D

 20 21  0  0  0  0  0  0  0  0999 V2000
   -6.2810   -0.3090    0.0570 O   0  0  0  0  0  0  0  0  0  0  0  0
   -5.0930   -0.0600   -0.1210 C   0  0  0  0  0  0  0  0  0  0  0  0
   -4.5240    1.1410    0.3940 N   0  0  0  0  0  0  0  0  0  0  0  0
   -3.1410    1.3630    0.1530 C   0  0  0  0  0  0  0  0  0  0  0  0
   -2.7060    2.5310    0.0170 O   0  0  0  0  0  0  0  0  0  0  0  0
   -2.2390    0.1470    0.0800 C   0  0  1  0  0  0  0  0  0  0  0  0
   -2.8610   -0.8070   -0.9330 C   0  0  0  0  0  0  0  0  0  0  0  0
   -4.2230   -0.9040   -0.8210 O   0  0  0  0  0  0  0  0  0  0  0  0
   -0.9470    0.6740   -0.3800 C   0  0  0  0  0  0  0  0  0  0  0  0
    0.1080   -0.2930   -0.1400 N   0  0  0  0  0  0  0  0  0  0  0  0
    1.3000    0.0200   -0.8270 C   0  0  0  0  0  0  0  0  0  0  0  0
    1.3030    0.3560   -2.0070 O   0  0  0  0  0  0  0  0  0  0  0  0
    2.5140   -0.0300   -0.1240 O   0  0  0  0  0  0  0  0  0  0  0  0
    3.6230    0.2980   -0.8840 C   0  0  0  0  0  0  0  0  0  0  0  0
    4.7280    1.0340   -0.1070 C   0  0  0  0  0  0  0  0  0  0  0  0
    5.0740    0.1420    0.8870 O   0  0  0  0  0  0  0  0  0  0  0  0
    6.3710   -0.2160    0.7620 O   0  0  0  0  0  0  0  0  0  0  0  0
   -0.1270   -1.4650    0.6330 C   0  0  0  0  0  0  0  0  0  0  0  0
   -1.1910   -1.2120    1.6790 C   0  0  0  0  0  0  0  0  0  0  0  0
   -2.2490   -0.4340    1.2940 O   0  0  0  0  0  0  0  0  0  0  0  0
  1  2  2  0
  2  3  1  0
  2  8  1  0
  3  4  1  0
  4  5  2  0
  4  6  1  0
  6  7  1  6
  6  9  1  0
  6 20  1  0
  7  8  1  0
  9 10  1  0
 10 11  1  0
 10 18  1  0
 11 12  2  0
 11 13  1  0
 13 14  1  0
 14 15  1  0
 15 16  1  0
 16 17  1  0
 18 19  1  0
 19 20  1  0
M  END
