
     RDKit          3D

 20 21  0  0  0  0  0  0  0  0999 V2000
    0.0810   -0.7160    1.1980 O   0  0  0  0  0  0  0  0  0  0  0  0
    0.3450   -0.6090   -0.0200 C   0  0  0  0  0  0  0  0  0  0  0  0
    1.5820   -0.0230   -0.4700 N   0  0  0  0  0  0  0  0  0  0  0  0
    2.5340    0.4490    0.5070 C   0  0  2  0  0  0  0  0  0  0  0  0
    2.8860    1.8710    0.1570 C   0  0  0  0  0  0  0  0  0  0  0  0
    4.3670    2.1500    0.2970 C   0  0  0  0  0  0  0  0  0  0  0  0
    5.1590    1.2330   -0.3510 O   0  0  0  0  0  0  0  0  0  0  0  0
    4.5510    0.1520   -0.7290 O   0  0  0  0  0  0  0  0  0  0  0  0
    3.8000   -0.3930    0.3120 C   0  0  0  0  0  0  0  0  0  0  0  0
   -0.5780   -1.0660   -0.9270 O   0  0  0  0  0  0  0  0  0  0  0  0
   -1.8090   -1.6470   -0.6530 C   0  0  2  0  0  0  0  0  0  0  0  0
   -2.8260   -0.8990    0.0660 C   0  0  0  0  0  0  0  0  0  0  0  0
   -3.9130   -1.5100    0.3330 O   0  0  0  0  0  0  0  0  0  0  0  0
   -2.7260    0.4380    0.4960 N   0  0  0  0  0  0  0  0  0  0  0  0
   -3.8180    1.1060    1.2220 C   0  0  0  0  0  0  0  0  0  0  0  0
   -3.4860    2.4050    1.5340 O   0  0  0  0  0  0  0  0  0  0  0  0
   -3.2410    3.0980    0.4430 O   0  0  0  0  0  0  0  0  0  0  0  0
   -1.7430   -3.1160   -0.2350 C   0  0  0  0  0  0  0  0  0  0  0  0
   -2.8630   -3.3280   -1.0440 O   0  0  0  0  0  0  0  0  0  0  0  0
   -2.3050   -2.3640   -1.9150 C   0  0  0  0  0  0  0  0  0  0  0  0
  1  2  2  0
  2  3  1  0
  2 10  1  0
  4  3  1  6
  4  5  1  0
  4  9  1  0
  5  6  1  0
  6  7  1  0
  7  8  1  0
  8  9  1  0
 11 10  1  6
 11 12  1  0
 11 18  1  0
 11 20  1  0
 12 13  2  0
 12 14  1  0
 14 15  1  0
 15 16  1  0
 16 17  1  0
 18 19  1  0
 19 20  1  0
M  END
