
     RDKit          3D

 20 20  0  0  0  0  0  0  0  0999 V2000
    3.5590   -3.6510   -0.6600 O   0  0  0  0  0  0  0  0  0  0  0  0
    4.2930   -2.6460   -0.5460 C   0  0  0  0  0  0  0  0  0  0  0  0
    3.7330   -1.4040   -0.3380 O   0  0  0  0  0  0  0  0  0  0  0  0
    2.3490   -1.3220   -0.2610 C   0  0  0  0  0  0  0  0  0  0  0  0
    1.5810   -2.2980   -0.3690 O   0  0  0  0  0  0  0  0  0  0  0  0
    1.7530   -0.0530   -0.0470 N   0  0  0  0  0  0  0  0  0  0  0  0
    0.3180    0.1160    0.0450 C   0  0  2  0  0  0  0  0  0  0  0  0
    0.0740    1.6040    0.2760 C   0  0  0  0  0  0  0  0  0  0  0  0
    0.5850    2.3820   -0.7880 O   0  0  0  0  0  0  0  0  0  0  0  0
    0.4490    3.7510   -0.7400 C   0  0  0  0  0  0  0  0  0  0  0  0
   -0.1300    4.2560    0.2560 O   0  0  0  0  0  0  0  0  0  0  0  0
    0.9260    4.5970   -1.7500 O   0  0  0  0  0  0  0  0  0  0  0  0
   -0.2510   -0.5660    1.2310 C   0  0  0  0  0  0  0  0  0  0  0  0
   -1.5140   -0.8490    1.4370 C   0  0  0  0  0  0  0  0  0  0  0  0
   -2.7030   -0.5900    0.5950 C   0  0  2  0  0  0  0  0  0  0  0  0
   -3.8820   -0.8630    1.2830 O   0  0  0  0  0  0  0  0  0  0  0  0
   -2.5520   -1.5090   -0.6160 C   0  0  0  0  0  0  0  0  0  0  0  0
   -1.6070   -0.8470   -1.4950 N   0  0  0  0  0  0  0  0  0  0  0  0
   -0.3120   -0.3580   -1.1920 C   0  0  0  0  0  0  0  0  0  0  0  0
    0.4470   -0.3300   -2.2140 O   0  0  0  0  0  0  0  0  0  0  0  0
  1  2  2  0
  2  3  1  0
  3  4  1  0
  4  5  2  0
  4  6  1  0
  6  7  1  0
  7  8  1  1
  7 13  1  0
  7 19  1  0
  8  9  1  0
  9 10  1  0
 10 11  2  0
 10 12  1  0
 13 14  2  0
 14 15  1  0
 15 16  1  1
 15 17  1  0
 17 18  1  0
 18 19  1  0
 19 20  2  0
M  END
