
     RDKit          3D

 20 21  0  0  0  0  0  0  0  0999 V2000
    0.8600   -2.9770   -2.3050 O   0  0  0  0  0  0  0  0  0  0  0  0
    0.1000   -2.2770   -1.5860 C   0  0  0  0  0  0  0  0  0  0  0  0
   -0.0740   -0.8900   -1.5530 N   0  0  0  0  0  0  0  0  0  0  0  0
   -0.4750   -0.6000   -0.1950 C   0  0  1  0  0  0  0  0  0  0  0  0
    0.5960   -0.6520    0.7680 C   0  0  0  0  0  0  0  0  0  0  0  0
    1.5320    0.3330    0.3900 O   0  0  0  0  0  0  0  0  0  0  0  0
    2.6250   -0.2550   -0.1810 C   0  0  0  0  0  0  0  0  0  0  0  0
    3.7310    0.8070   -0.4200 C   0  0  0  0  0  0  0  0  0  0  0  0
    3.8150    1.4150    0.8350 O   0  0  0  0  0  0  0  0  0  0  0  0
    5.0670    1.4180    1.2690 O   0  0  0  0  0  0  0  0  0  0  0  0
   -1.3170    0.6290   -0.0860 C   0  0  0  0  0  0  0  0  0  0  0  0
   -2.1190    0.6870    0.8230 O   0  0  0  0  0  0  0  0  0  0  0  0
   -1.1580    1.7010   -0.9930 N   0  0  0  0  0  0  0  0  0  0  0  0
   -2.0140    2.8630   -0.9500 C   0  0  0  0  0  0  0  0  0  0  0  0
   -1.7270    3.8030    0.0110 O   0  0  0  0  0  0  0  0  0  0  0  0
   -1.4580   -1.7730   -0.0940 C   0  0  1  0  0  0  0  0  0  0  0  0
   -2.2900   -1.9400    1.0840 C   0  0  0  0  0  0  0  0  0  0  0  0
   -3.3910   -1.3930    0.3720 O   0  0  0  0  0  0  0  0  0  0  0  0
   -2.7120   -1.4650   -0.8670 C   0  0  0  0  0  0  0  0  0  0  0  0
   -0.6940   -2.8560   -0.5610 O   0  0  0  0  0  0  0  0  0  0  0  0
  1  2  2  0
  2  3  1  0
  2 20  1  0
  3  4  1  0
  4  5  1  1
  4 11  1  0
  4 16  1  0
  5  6  1  0
  6  7  1  0
  7  8  1  0
  8  9  1  0
  9 10  1  0
 11 12  2  0
 11 13  1  0
 13 14  1  0
 14 15  1  0
 16 17  1  1
 16 19  1  0
 16 20  1  0
 17 18  1  0
 18 19  1  0
M  END
