
     RDKit          3D

 20 21  0  0  0  0  0  0  0  0999 V2000
    2.4570   -2.3190   -2.0930 O   0  0  0  0  0  0  0  0  0  0  0  0
    1.6490   -1.6950   -1.4020 C   0  0  0  0  0  0  0  0  0  0  0  0
    0.3550   -1.5010   -1.9240 O   0  0  0  0  0  0  0  0  0  0  0  0
   -0.5510   -0.8170   -1.1800 O   0  0  0  0  0  0  0  0  0  0  0  0
   -0.3630   -0.2730    0.0520 C   0  0  0  0  0  0  0  0  0  0  0  0
   -1.2370    0.3700    0.7340 C   0  0  0  0  0  0  0  0  0  0  0  0
   -2.6110    0.7540    0.5410 C   0  0  0  0  0  0  0  0  0  0  0  0
   -3.2760    1.4620    1.5030 C   0  0  0  0  0  0  0  0  0  0  0  0
   -4.5790    1.7100    1.0850 N   0  0  0  0  0  0  0  0  0  0  0  0
   -4.7600    1.1720   -0.1290 O   0  0  0  0  0  0  0  0  0  0  0  0
   -3.5530    0.5540   -0.5260 C   0  0  0  0  0  0  0  0  0  0  0  0
   -3.4300   -0.0570   -1.6740 C   0  0  0  0  0  0  0  0  0  0  0  0
   -4.5870   -0.0700   -2.5160 O   0  0  0  0  0  0  0  0  0  0  0  0
    1.0220   -0.4820    0.6060 C   0  0  0  0  0  0  0  0  0  0  0  0
    1.2920   -0.0260    1.7180 O   0  0  0  0  0  0  0  0  0  0  0  0
    1.9990   -1.1900   -0.1350 N   0  0  0  0  0  0  0  0  0  0  0  0
    3.3190   -1.3600    0.4470 C   0  0  0  0  0  0  0  0  0  0  0  0
    4.2590   -0.2510    0.1020 C   0  0  0  0  0  0  0  0  0  0  0  0
    3.7250    0.9490    0.5800 O   0  0  0  0  0  0  0  0  0  0  0  0
    4.4900    1.9750    0.3190 O   0  0  0  0  0  0  0  0  0  0  0  0
  1  2  2  0
  2  3  1  0
  2 16  1  0
  3  4  1  0
  4  5  1  0
  5  6  2  3
  5 14  1  0
  6  7  1  0
  7  8  2  0
  7 11  1  0
  8  9  1  0
  9 10  1  0
 10 11  1  0
 11 12  2  3
 12 13  1  0
 14 15  2  0
 14 16  1  0
 16 17  1  0
 17 18  1  0
 18 19  1  0
 19 20  1  0
M  END
