
     RDKit          3D

 35 36  0  0  0  0  0  0  0  0999 V2000
   -5.3890    3.3100   -1.5790 C   0  0  0  0  0  0  0  0  0  0  0  0
   -6.0220    2.1310   -1.8650 O   0  0  0  0  0  0  0  0  0  0  0  0
   -5.3510    1.2810   -2.6940 C   0  0  0  0  0  0  0  0  0  0  0  0
   -4.0170    0.8760   -2.0940 C   0  0  0  0  0  0  0  0  0  0  0  0
   -4.1850    0.1920   -0.7580 C   0  0  1  0  0  0  0  0  0  0  0  0
   -4.9960   -1.0530   -0.7560 C   0  0  0  0  0  0  0  0  0  0  0  0
   -3.1720    0.4230    0.2560 C   0  0  0  0  0  0  0  0  0  0  0  0
   -1.7420    0.1830    0.2280 C   0  0  2  0  0  0  0  0  0  0  0  0
   -1.2150    0.6430    1.6010 C   0  0  0  0  0  0  0  0  0  0  0  0
   -0.9610    1.0910   -0.7040 C   0  0  0  0  0  0  0  0  0  0  0  0
    0.5070    0.9600   -0.5250 C   0  0  0  0  0  0  0  0  0  0  0  0
    1.0380   -0.3750   -0.2020 C   0  0  1  0  0  0  0  0  0  0  0  0
    2.2820   -0.1570    0.6290 C   0  0  0  0  0  0  0  0  0  0  0  0
    2.2960   -0.6270    1.7680 O   0  0  0  0  0  0  0  0  0  0  0  0
    3.3640    0.5240    0.1760 O   0  0  0  0  0  0  0  0  0  0  0  0
    4.5710    0.7560    0.9340 C   0  0  2  0  0  0  0  0  0  0  0  0
    4.5720    2.1990    1.2500 C   0  0  1  0  0  0  0  0  0  0  0  0
    5.6240    2.6750    2.0110 O   0  0  0  0  0  0  0  0  0  0  0  0
    4.2600    3.0930    0.0720 C   0  0  0  0  0  0  0  0  0  0  0  0
    3.9230    4.3500    0.6310 O   0  0  0  0  0  0  0  0  0  0  0  0
    5.7270    0.0850    0.3860 C   0  0  2  0  0  0  0  0  0  0  0  0
    7.0230    0.2900    1.1370 C   0  0  0  0  0  0  0  0  0  0  0  0
    8.0500   -0.2500    0.1370 C   0  0  0  0  0  0  0  0  0  0  0  0
    7.4440   -0.2930   -1.0840 O   0  0  0  0  0  0  0  0  0  0  0  0
    6.1870    0.3490   -1.0040 C   0  0  0  0  0  0  0  0  0  0  0  0
    0.1780   -1.3680    0.4460 C   0  0  0  0  0  0  0  0  0  0  0  0
   -1.3080   -1.2580    0.0750 C   0  0  1  0  0  0  0  0  0  0  0  0
   -2.0690   -2.1430    1.0080 C   0  0  1  0  0  0  0  0  0  0  0  0
   -1.7250   -3.5260    0.8740 O   0  0  0  0  0  0  0  0  0  0  0  0
   -2.8510   -4.3360    0.8440 C   0  0  0  0  0  0  0  0  0  0  0  0
   -1.5530   -1.8990    2.3120 O   0  0  0  0  0  0  0  0  0  0  0  0
   -2.4740   -1.8380    3.3030 C   0  0  0  0  0  0  0  0  0  0  0  0
   -1.4150   -1.7290   -1.3380 C   0  0  2  0  0  0  0  0  0  0  0  0
   -1.0270   -3.1220   -1.5800 C   0  0  0  0  0  0  0  0  0  0  0  0
   -0.5750   -0.9550   -2.1910 O   0  0  0  0  0  0  0  0  0  0  0  0
  1  2  1  0
  2  3  1  0
  3  4  1  0
  4  5  1  0
  5  6  1  6
  5  7  1  0
  7  8  1  0
  8  9  1  1
  8 10  1  0
  8 27  1  0
 10 11  1  0
 11 12  1  0
 12 13  1  1
 12 26  1  0
 13 14  2  0
 13 15  1  0
 16 15  1  6
 16 17  1  0
 16 21  1  0
 17 18  1  6
 17 19  1  0
 19 20  1  0
 21 22  1  1
 21 25  1  0
 22 23  1  0
 23 24  1  0
 24 25  1  0
 27 26  1  1
 27 28  1  0
 27 33  1  0
 28 29  1  6
 28 31  1  0
 29 30  1  0
 31 32  1  0
 33 34  1  1
 33 35  1  0
M  END
