
     RDKit          3D

 35 39  0  0  0  0  0  0  0  0999 V2000
   -2.1080   -0.7600   -6.7370 N   0  0  0  0  0  0  0  0  0  0  0  0
   -0.8000   -1.2380   -6.4210 C   0  0  0  0  0  0  0  0  0  0  0  0
   -0.0970   -1.7130   -7.3670 N   0  0  0  0  0  0  0  0  0  0  0  0
   -0.3140   -1.1730   -5.0400 C   0  0  0  0  0  0  0  0  0  0  0  0
    0.9290   -1.6190   -4.6960 C   0  0  0  0  0  0  0  0  0  0  0  0
    1.3350   -1.5310   -3.3560 C   0  0  0  0  0  0  0  0  0  0  0  0
    0.4880   -1.0040   -2.4130 C   0  0  0  0  0  0  0  0  0  0  0  0
   -0.7700   -0.5540   -2.7510 C   0  0  0  0  0  0  0  0  0  0  0  0
   -1.1550   -0.6380   -4.0400 C   0  0  0  0  0  0  0  0  0  0  0  0
   -1.6400   -0.0380   -1.6790 C   0  0  1  0  0  0  0  0  0  0  0  0
   -2.5680   -1.0680   -1.1270 C   0  0  0  0  0  0  0  0  0  0  0  0
   -2.5130   -1.5080    0.1690 C   0  0  0  0  0  0  0  0  0  0  0  0
   -3.4240   -2.4870    0.6480 C   0  0  0  0  0  0  0  0  0  0  0  0
   -4.3670   -2.9980   -0.1880 C   0  0  0  0  0  0  0  0  0  0  0  0
   -4.4390   -2.5710   -1.4900 C   0  0  0  0  0  0  0  0  0  0  0  0
   -3.5430   -1.6220   -1.9230 C   0  0  0  0  0  0  0  0  0  0  0  0
   -0.9260    0.7280   -0.6060 C   0  0  0  0  0  0  0  0  0  0  0  0
    0.4530    0.3290   -0.3620 C   0  0  1  0  0  0  0  0  0  0  0  0
    0.9170    0.2920    1.0550 C   0  0  0  0  0  0  0  0  0  0  0  0
    0.8730   -0.9130    1.7130 C   0  0  0  0  0  0  0  0  0  0  0  0
    1.3150   -1.0390    3.0150 C   0  0  0  0  0  0  0  0  0  0  0  0
    1.2960   -2.2660    3.7260 N   0  0  0  0  0  0  0  0  0  0  0  0
    1.8060    0.0740    3.6550 C   0  0  0  0  0  0  0  0  0  0  0  0
    1.8730    1.3090    3.0420 C   0  0  0  0  0  0  0  0  0  0  0  0
    2.4060    2.4810    3.7210 C   0  0  0  0  0  0  0  0  0  0  0  0
    3.5420    3.0730    3.2000 C   0  0  0  0  0  0  0  0  0  0  0  0
    4.1230    4.1660    3.8830 C   0  0  0  0  0  0  0  0  0  0  0  0
    3.5820    4.6440    5.0450 C   0  0  0  0  0  0  0  0  0  0  0  0
    2.4610    4.0370    5.5320 C   0  0  0  0  0  0  0  0  0  0  0  0
    1.8630    2.9530    4.8740 C   0  0  0  0  0  0  0  0  0  0  0  0
    0.6280    2.4130    5.4200 C   0  0  0  0  0  0  0  0  0  0  0  0
    0.2270    2.8810    6.5360 O   0  0  0  0  0  0  0  0  0  0  0  0
   -0.1360    1.4450    4.8280 O   0  0  0  0  0  0  0  0  0  0  0  0
    1.4140    1.3890    1.7230 C   0  0  0  0  0  0  0  0  0  0  0  0
    0.8910   -0.8470   -1.0360 N   0  0  0  0  0  0  0  0  0  0  0  0
  1  2  1  0
  2  3  2  0
  2  4  1  0
  4  5  2  0
  4  9  1  0
  5  6  1  0
  6  7  2  0
  7  8  1  0
  7 35  1  0
  8  9  2  0
  8 10  1  0
 10 11  1  1
 10 17  1  0
 11 12  2  0
 11 16  1  0
 12 13  1  0
 13 14  2  0
 14 15  1  0
 15 16  2  0
 17 18  1  0
 18 19  1  1
 18 35  1  0
 19 20  2  0
 19 34  1  0
 20 21  1  0
 21 22  1  0
 21 23  2  0
 23 24  1  0
 24 25  1  0
 24 34  2  0
 25 26  2  0
 25 30  1  0
 26 27  1  0
 27 28  2  0
 28 29  1  0
 29 30  2  0
 30 31  1  0
 31 32  2  0
 31 33  1  0
M  CHG  1   3   1
M  END
