
     RDKit          3D

 34 38  0  0  0  0  0  0  0  0999 V2000
    8.1890    2.6250   -1.4890 C   0  0  0  0  0  0  0  0  0  0  0  0
    7.0000    2.0990   -0.7570 C   0  0  0  0  0  0  0  0  0  0  0  0
    6.9120    0.7320   -0.4810 C   0  0  0  0  0  0  0  0  0  0  0  0
    5.8240    0.1910    0.1990 C   0  0  0  0  0  0  0  0  0  0  0  0
    4.8140    1.0020    0.6120 C   0  0  0  0  0  0  0  0  0  0  0  0
    3.6470    0.4750    1.3330 C   0  0  2  0  0  0  0  0  0  0  0  0
    4.0780    0.0680    2.7460 C   0  0  0  0  0  0  0  0  0  0  0  0
    3.1300   -0.7430    0.7140 N   0  0  0  0  0  0  0  0  0  0  0  0
    1.7650   -0.7920    0.3530 C   0  0  0  0  0  0  0  0  0  0  0  0
    1.0380    0.2340    0.5960 O   0  0  0  0  0  0  0  0  0  0  0  0
    1.1370   -1.8830   -0.2500 N   0  0  0  0  0  0  0  0  0  0  0  0
    1.8010   -3.0890   -0.7200 C   0  0  0  0  0  0  0  0  0  0  0  0
    3.0280   -3.3310   -1.2910 C   0  0  0  0  0  0  0  0  0  0  0  0
    3.4400   -4.6100   -1.6420 C   0  0  0  0  0  0  0  0  0  0  0  0
    2.5950   -5.6660   -1.4110 C   0  0  0  0  0  0  0  0  0  0  0  0
    1.3540   -5.4160   -0.8340 C   0  0  0  0  0  0  0  0  0  0  0  0
    0.9510   -4.1580   -0.4910 C   0  0  0  0  0  0  0  0  0  0  0  0
   -0.3120   -3.5850    0.1030 C   0  0  0  0  0  0  0  0  0  0  0  0
   -0.2590   -2.2020   -0.5280 C   0  0  1  0  0  0  0  0  0  0  0  0
   -1.2550   -1.2650   -0.0890 C   0  0  0  0  0  0  0  0  0  0  0  0
   -2.2020   -1.5170    0.8990 C   0  0  0  0  0  0  0  0  0  0  0  0
   -3.1640   -0.6040    1.2660 C   0  0  0  0  0  0  0  0  0  0  0  0
   -3.2270    0.6260    0.6510 C   0  0  0  0  0  0  0  0  0  0  0  0
   -4.2460    1.6440    1.0120 C   0  0  0  0  0  0  0  0  0  0  0  0
   -5.4520    1.5010    0.2150 N   0  0  2  0  0  0  0  0  0  0  0  0
   -5.4110    2.4820   -0.8240 C   0  0  0  0  0  0  0  0  0  0  0  0
   -6.6630    2.5240   -1.6630 C   0  0  0  0  0  0  0  0  0  0  0  0
   -7.8780    2.0480   -0.9210 C   0  0  0  0  0  0  0  0  0  0  0  0
   -7.6950    2.4640    0.5390 C   0  0  0  0  0  0  0  0  0  0  0  0
   -6.5800    1.6240    1.0930 C   0  0  0  0  0  0  0  0  0  0  0  0
   -2.3020    0.9010   -0.3300 C   0  0  0  0  0  0  0  0  0  0  0  0
   -1.3440   -0.0260   -0.6860 C   0  0  0  0  0  0  0  0  0  0  0  0
    4.8830    2.3540    0.3500 C   0  0  0  0  0  0  0  0  0  0  0  0
    5.9670    2.9050   -0.3300 C   0  0  0  0  0  0  0  0  0  0  0  0
  1  2  1  0
  2  3  2  0
  2 34  1  0
  3  4  1  0
  4  5  2  0
  5  6  1  0
  5 33  1  0
  6  7  1  1
  6  8  1  0
  8  9  1  0
  9 10  2  0
  9 11  1  0
 11 12  1  0
 11 19  1  0
 12 13  2  0
 12 17  1  0
 13 14  1  0
 14 15  2  0
 15 16  1  0
 16 17  2  0
 17 18  1  0
 18 19  1  0
 19 20  1  1
 20 21  2  0
 20 32  1  0
 21 22  1  0
 22 23  2  0
 23 24  1  0
 23 31  1  0
 25 24  1  1
 25 26  1  0
 25 30  1  0
 26 27  1  0
 27 28  1  0
 28 29  1  0
 29 30  1  0
 31 32  2  0
 33 34  2  0
M  CHG  1  25   1
M  END
