
     RDKit          3D

 35 36  0  0  0  0  0  0  0  0999 V2000
   -6.0290   -1.4620   -0.0150 C   0  0  0  0  0  0  0  0  0  0  0  0
   -4.8720   -1.2280    0.9190 C   0  0  1  0  0  0  0  0  0  0  0  0
   -3.8410   -0.3730    0.1370 C   0  0  0  0  0  0  0  0  0  0  0  0
   -2.8890    0.2860    1.0650 C   0  0  2  0  0  0  0  0  0  0  0  0
   -1.4830    0.4310    0.6450 C   0  0  0  0  0  0  0  0  0  0  0  0
   -1.1400    1.2160   -0.5530 C   0  0  2  0  0  0  0  0  0  0  0  0
   -1.5720    2.6610   -0.4900 C   0  0  0  0  0  0  0  0  0  0  0  0
   -1.5970    0.6380   -1.8700 C   0  0  0  0  0  0  0  0  0  0  0  0
   -1.1070    1.4020   -2.9450 O   0  0  0  0  0  0  0  0  0  0  0  0
   -1.5210    0.8800   -4.1440 C   0  0  0  0  0  0  0  0  0  0  0  0
   -2.9990    0.8220   -4.3220 C   0  0  0  0  0  0  0  0  0  0  0  0
   -3.6510    2.1910   -4.2440 C   0  0  0  0  0  0  0  0  0  0  0  0
   -5.0310    2.1010   -4.4140 O   0  0  0  0  0  0  0  0  0  0  0  0
    0.3000    1.2190   -0.6380 O   0  0  0  0  0  0  0  0  0  0  0  0
    1.1470    1.7480    0.2820 C   0  0  0  0  0  0  0  0  0  0  0  0
    0.6990    2.2970    1.2990 O   0  0  0  0  0  0  0  0  0  0  0  0
    2.6340    1.7150    0.1530 C   0  0  0  0  0  0  0  0  0  0  0  0
    3.0720    1.0180   -1.1050 C   0  0  2  0  0  0  0  0  0  0  0  0
    2.5960   -0.4160   -1.1570 C   0  0  0  0  0  0  0  0  0  0  0  0
    3.8350   -1.2090   -0.8620 C   0  0  0  0  0  0  0  0  0  0  0  0
    4.7860   -0.1510   -0.2980 C   0  0  1  0  0  0  0  0  0  0  0  0
    6.1960   -0.5490   -0.5470 C   0  0  0  0  0  0  0  0  0  0  0  0
    6.8940    0.1010   -1.3680 O   0  0  0  0  0  0  0  0  0  0  0  0
    6.8020   -1.6150    0.0840 O   0  0  0  0  0  0  0  0  0  0  0  0
    8.1160   -2.0420   -0.1020 C   0  0  0  0  0  0  0  0  0  0  0  0
    9.1550   -1.0130    0.2290 C   0  0  0  0  0  0  0  0  0  0  0  0
    9.0920   -0.5560    1.6760 C   0  0  0  0  0  0  0  0  0  0  0  0
    9.2890   -1.6390    2.5120 O   0  0  0  0  0  0  0  0  0  0  0  0
    4.4690    0.9540   -1.0750 O   0  0  0  0  0  0  0  0  0  0  0  0
   -2.8740   -0.5750    2.3440 C   0  0  1  0  0  0  0  0  0  0  0  0
   -1.8690   -0.1050    3.2150 O   0  0  0  0  0  0  0  0  0  0  0  0
   -4.1860   -0.3770    3.0830 C   0  0  1  0  0  0  0  0  0  0  0  0
   -4.3420   -1.4770    4.1040 C   0  0  0  0  0  0  0  0  0  0  0  0
   -4.2040    0.9490    3.7670 C   0  0  0  0  0  0  0  0  0  0  0  0
   -5.3650   -0.4720    2.1320 C   0  0  0  0  0  0  0  0  0  0  0  0
  2  1  1  6
  2  3  1  0
  2 35  1  0
  3  4  1  0
  4  5  1  6
  4 30  1  0
  5  6  1  0
  6  7  1  1
  6  8  1  0
  6 14  1  0
  8  9  1  0
  9 10  1  0
 10 11  1  0
 11 12  1  0
 12 13  1  0
 14 15  1  0
 15 16  2  0
 15 17  1  0
 18 17  1  1
 18 19  1  0
 18 29  1  0
 19 20  1  0
 20 21  1  0
 21 22  1  6
 21 29  1  0
 22 23  2  0
 22 24  1  0
 24 25  1  0
 25 26  1  0
 26 27  1  0
 27 28  1  0
 30 31  1  1
 30 32  1  0
 32 33  1  1
 32 34  1  0
 32 35  1  0
M  END
