
     RDKit          3D

 35 37  0  0  0  0  0  0  0  0999 V2000
   -7.1000    2.2890    0.9790 C   0  0  0  0  0  0  0  0  0  0  0  0
   -6.8450    0.8270    1.3080 C   0  0  1  0  0  0  0  0  0  0  0  0
   -8.1910    0.3910    2.0020 C   0  0  0  0  0  0  0  0  0  0  0  0
   -8.1110   -0.9410    2.3660 O   0  0  0  0  0  0  0  0  0  0  0  0
   -6.7910   -0.0250    0.0850 C   0  0  0  0  0  0  0  0  0  0  0  0
   -5.8460    0.1940   -0.9750 C   0  0  0  0  0  0  0  0  0  0  0  0
   -4.3790    0.1240   -0.8990 C   0  0  2  0  0  0  0  0  0  0  0  0
   -3.7960    1.0950    0.0260 C   0  0  0  0  0  0  0  0  0  0  0  0
   -2.3830    1.2370    0.3100 C   0  0  2  0  0  0  0  0  0  0  0  0
   -2.3500    2.3070    1.3000 O   0  0  0  0  0  0  0  0  0  0  0  0
   -1.3270    1.5610   -0.6230 C   0  0  1  0  0  0  0  0  0  0  0  0
   -1.3580    2.8910   -1.3020 C   0  0  0  0  0  0  0  0  0  0  0  0
   -2.4640    3.0650   -2.1210 O   0  0  0  0  0  0  0  0  0  0  0  0
   -0.1190    1.6020    0.1640 O   0  0  0  0  0  0  0  0  0  0  0  0
    0.8190    0.6930   -0.3250 C   0  0  0  0  0  0  0  0  0  0  0  0
    2.0790    0.7310    0.5000 C   0  0  0  0  0  0  0  0  0  0  0  0
    3.0700   -0.1260    0.0870 O   0  0  0  0  0  0  0  0  0  0  0  0
    2.6960   -1.4270    0.1060 C   0  0  0  0  0  0  0  0  0  0  0  0
    3.7250   -2.4360   -0.2890 C   0  0  0  0  0  0  0  0  0  0  0  0
    4.8600   -2.4880    0.4550 O   0  0  0  0  0  0  0  0  0  0  0  0
    5.6720   -1.3770    0.4690 C   0  0  1  0  0  0  0  0  0  0  0  0
    5.7540   -0.7470    1.8470 C   0  0  0  0  0  0  0  0  0  0  0  0
    7.1200   -1.0410    2.4480 C   0  0  0  0  0  0  0  0  0  0  0  0
    8.0460   -0.3640    1.6950 O   0  0  0  0  0  0  0  0  0  0  0  0
    8.0770   -0.6840    0.3640 C   0  0  2  0  0  0  0  0  0  0  0  0
    9.4600   -1.0320   -0.1270 C   0  0  0  0  0  0  0  0  0  0  0  0
   10.0460    0.3330   -0.3940 C   0  0  0  0  0  0  0  0  0  0  0  0
    9.0260    1.2130   -0.6030 O   0  0  0  0  0  0  0  0  0  0  0  0
    7.8190    0.6050   -0.4210 C   0  0  0  0  0  0  0  0  0  0  0  0
    7.0470   -1.6860   -0.0780 C   0  0  0  0  0  0  0  0  0  0  0  0
   -3.9230    0.2300   -2.3670 C   0  0  0  0  0  0  0  0  0  0  0  0
   -4.3740   -1.1300   -2.9260 C   0  0  0  0  0  0  0  0  0  0  0  0
   -4.4790   -2.0490   -1.7300 C   0  0  0  0  0  0  0  0  0  0  0  0
   -3.8210   -1.2660   -0.6580 C   0  0  2  0  0  0  0  0  0  0  0  0
   -3.9650   -1.7250    0.6120 O   0  0  0  0  0  0  0  0  0  0  0  0
  2  1  1  6
  2  3  1  0
  2  5  1  0
  3  4  1  0
  5  6  1  0
  7  6  1  6
  7  8  1  0
  7 31  1  0
  7 34  1  0
  8  9  1  0
  9 10  1  1
  9 11  1  0
 11 12  1  1
 11 14  1  0
 12 13  1  0
 14 15  1  0
 15 16  1  0
 16 17  1  0
 17 18  1  0
 18 19  1  0
 19 20  1  0
 21 20  1  1
 21 22  1  0
 21 30  1  0
 22 23  1  0
 23 24  1  0
 24 25  1  0
 25 26  1  6
 25 29  1  0
 25 30  1  0
 26 27  1  0
 27 28  1  0
 28 29  1  0
 31 32  1  0
 32 33  1  0
 33 34  1  0
 34 35  1  1
M  END
