
     RDKit          3D

 34 38  0  0  0  0  0  0  0  0999 V2000
   -3.9320    3.5070    1.3240 C   0  0  0  0  0  0  0  0  0  0  0  0
   -3.6350    2.0050    1.4170 C   0  0  1  0  0  0  0  0  0  0  0  0
   -4.0430    1.4700    2.7640 C   0  0  0  0  0  0  0  0  0  0  0  0
   -2.8770    0.6190    3.2630 C   0  0  0  0  0  0  0  0  0  0  0  0
   -2.1410   -0.0040    2.1140 C   0  0  0  0  0  0  0  0  0  0  0  0
   -0.8720   -0.1870    2.4560 N   0  0  0  0  0  0  0  0  0  0  0  0
   -0.0190   -0.7420    1.5640 C   0  0  0  0  0  0  0  0  0  0  0  0
    1.1820   -0.8820    1.9780 O   0  0  0  0  0  0  0  0  0  0  0  0
   -0.4240   -1.1200    0.3180 C   0  0  0  0  0  0  0  0  0  0  0  0
    0.4900   -1.7060   -0.6350 C   0  0  0  0  0  0  0  0  0  0  0  0
    1.7360   -1.3420   -0.8440 C   0  0  0  0  0  0  0  0  0  0  0  0
    2.5080   -0.3280   -0.2340 N   0  0  0  0  0  0  0  0  0  0  0  0
    3.6960   -0.2660   -0.7020 C   0  0  0  0  0  0  0  0  0  0  0  0
    4.7790    0.6550   -0.3170 C   0  0  0  0  0  0  0  0  0  0  0  0
    4.5420    1.5490    0.6270 C   0  0  0  0  0  0  0  0  0  0  0  0
    5.5800    2.4440    1.0070 N   0  0  1  0  0  0  0  0  0  0  0  0
    6.7120    1.7650    1.5960 C   0  0  0  0  0  0  0  0  0  0  0  0
    6.0230    3.1450   -0.2000 C   0  0  0  0  0  0  0  0  0  0  0  0
    3.8220   -1.2940   -1.7220 C   0  0  0  0  0  0  0  0  0  0  0  0
    4.8540   -1.6970   -2.5560 C   0  0  0  0  0  0  0  0  0  0  0  0
    4.6790   -2.7240   -3.4420 C   0  0  0  0  0  0  0  0  0  0  0  0
    3.4660   -3.3880   -3.5280 C   0  0  0  0  0  0  0  0  0  0  0  0
    2.4240   -3.0070   -2.7100 C   0  0  0  0  0  0  0  0  0  0  0  0
    2.6250   -1.9610   -1.8180 C   0  0  0  0  0  0  0  0  0  0  0  0
   -1.7490   -0.9280   -0.0370 C   0  0  0  0  0  0  0  0  0  0  0  0
   -2.6190   -0.3630    0.8700 C   0  0  0  0  0  0  0  0  0  0  0  0
   -4.0060   -0.2000    0.4030 C   0  0  2  0  0  0  0  0  0  0  0  0
   -4.3980   -1.0270   -0.7290 C   0  0  0  0  0  0  0  0  0  0  0  0
   -4.2400   -0.5490   -2.0070 C   0  0  0  0  0  0  0  0  0  0  0  0
   -4.6050   -1.3130   -3.1200 C   0  0  0  0  0  0  0  0  0  0  0  0
   -5.1340   -2.5670   -2.9570 C   0  0  0  0  0  0  0  0  0  0  0  0
   -5.2920   -3.0440   -1.6750 C   0  0  0  0  0  0  0  0  0  0  0  0
   -4.9300   -2.2880   -0.5840 C   0  0  0  0  0  0  0  0  0  0  0  0
   -4.2700    1.2700    0.2560 C   0  0  0  0  0  0  0  0  0  0  0  0
  2  1  1  1
  2  3  1  0
  2 34  1  0
  3  4  1  0
  4  5  1  0
  5  6  1  0
  5 26  2  0
  6  7  1  0
  7  8  2  0
  7  9  1  0
  9 10  1  0
  9 25  2  0
 10 11  2  3
 11 12  1  0
 11 24  1  0
 12 13  2  0
 13 14  1  0
 13 19  1  0
 14 15  2  3
 15 16  1  0
 16 17  1  6
 16 18  1  0
 19 20  2  0
 19 24  1  0
 20 21  1  0
 21 22  2  0
 22 23  1  0
 23 24  2  0
 25 26  1  0
 26 27  1  0
 27 28  1  6
 27 34  1  0
 28 29  2  0
 28 33  1  0
 29 30  1  0
 30 31  2  0
 31 32  1  0
 32 33  2  0
M  CHG  1  16   1
M  END
