
     RDKit          3D

 35 36  0  0  0  0  0  0  0  0999 V2000
    1.5540   -1.3080    4.0720 C   0  0  0  0  0  0  0  0  0  0  0  0
    1.8900   -0.6930    2.7440 C   0  0  1  0  0  0  0  0  0  0  0  0
    3.2840   -0.1150    2.8480 C   0  0  0  0  0  0  0  0  0  0  0  0
    3.7140    0.5320    1.5490 C   0  0  0  0  0  0  0  0  0  0  0  0
    3.6170   -0.4310    0.4050 C   0  0  2  0  0  0  0  0  0  0  0  0
    3.8860    0.2710   -0.7650 O   0  0  0  0  0  0  0  0  0  0  0  0
    4.9610   -0.2980   -1.4460 C   0  0  0  0  0  0  0  0  0  0  0  0
    5.2700    0.4530   -2.7230 C   0  0  1  0  0  0  0  0  0  0  0  0
    5.6060    1.8810   -2.4930 C   0  0  0  0  0  0  0  0  0  0  0  0
    6.9970    2.0180   -3.0710 C   0  0  0  0  0  0  0  0  0  0  0  0
    7.4740    0.5850   -3.0430 C   0  0  0  0  0  0  0  0  0  0  0  0
    6.3450   -0.1670   -3.3410 O   0  0  0  0  0  0  0  0  0  0  0  0
    2.1620   -0.9320    0.3650 C   0  0  0  0  0  0  0  0  0  0  0  0
    1.9280   -1.7310    1.6230 C   0  0  2  0  0  0  0  0  0  0  0  0
    0.7130   -2.5850    1.6250 C   0  0  2  0  0  0  0  0  0  0  0  0
    0.6450   -3.6510    0.5750 C   0  0  0  0  0  0  0  0  0  0  0  0
    0.6710   -3.2010   -0.7160 O   0  0  0  0  0  0  0  0  0  0  0  0
   -0.5490   -1.8070    1.5440 C   0  0  0  0  0  0  0  0  0  0  0  0
   -1.4010   -1.8840    2.4600 O   0  0  0  0  0  0  0  0  0  0  0  0
   -0.7680   -1.0150    0.4710 O   0  0  0  0  0  0  0  0  0  0  0  0
   -2.0590   -0.2030    0.3640 C   0  0  2  0  0  0  0  0  0  0  0  0
   -2.6120   -0.7660   -0.8510 C   0  0  0  0  0  0  0  0  0  0  0  0
   -3.8580   -0.4870   -1.5180 C   0  0  0  0  0  0  0  0  0  0  0  0
   -5.1500   -0.7830   -0.7990 C   0  0  1  0  0  0  0  0  0  0  0  0
   -5.4020   -0.0890    0.4760 C   0  0  0  0  0  0  0  0  0  0  0  0
   -6.3420   -0.5080   -1.7430 C   0  0  0  0  0  0  0  0  0  0  0  0
   -5.2680   -2.2890   -0.5170 C   0  0  0  0  0  0  0  0  0  0  0  0
   -5.2440   -2.9810   -1.7260 O   0  0  0  0  0  0  0  0  0  0  0  0
   -1.5240    1.1600    0.4680 C   0  0  0  0  0  0  0  0  0  0  0  0
   -2.2730    2.3970    0.4820 C   0  0  2  0  0  0  0  0  0  0  0  0
   -1.3180    3.4540    0.5930 O   0  0  0  0  0  0  0  0  0  0  0  0
   -2.9840    2.4870    1.7300 O   0  0  0  0  0  0  0  0  0  0  0  0
   -3.2260    2.8050   -0.5500 C   0  0  0  0  0  0  0  0  0  0  0  0
   -3.7380    4.2150   -0.1100 C   0  0  0  0  0  0  0  0  0  0  0  0
   -4.6560    4.6730   -1.0490 O   0  0  0  0  0  0  0  0  0  0  0  0
  2  1  1  1
  2  3  1  0
  2 14  1  0
  3  4  1  0
  4  5  1  0
  5  6  1  6
  5 13  1  0
  6  7  1  0
  8  7  1  1
  8  9  1  0
  8 12  1  0
  9 10  1  0
 10 11  1  0
 11 12  1  0
 14 13  1  6
 14 15  1  0
 15 16  1  6
 15 18  1  0
 16 17  1  0
 18 19  2  0
 18 20  1  0
 20 21  1  0
 21 22  1  6
 21 29  1  0
 22 23  1  0
 23 24  1  0
 24 25  1  1
 24 26  1  0
 24 27  1  0
 27 28  1  0
 29 30  1  0
 30 31  1  1
 30 32  1  0
 30 33  1  0
 33 34  1  0
 34 35  1  0
M  END
