
     RDKit          3D

 23 24  0  0  0  0  0  0  0  0999 V2000
    2.1330    3.7200    4.9600 C   0  0  0  0  0  0  0  0  0  0  0  0
    0.9200    3.8080    3.9380 C   0  0  0  0  0  0  0  0  0  0  0  0
    0.5010    3.0630    3.1160 C   0  0  0  0  0  0  0  0  0  0  0  0
   -0.7990    3.9310    2.5660 C   0  0  0  0  0  0  0  0  0  0  0  0
    0.7660    1.8640    2.3200 C   0  0  0  0  0  0  0  0  0  0  0  0
    0.0060    1.3340    1.4520 C   0  0  0  0  0  0  0  0  0  0  0  0
   -0.2780    0.3760    0.5120 C   0  0  0  0  0  0  0  0  0  0  0  0
   -1.6680    0.1730   -0.1320 C   0  0  0  0  0  0  0  0  0  0  0  0
   -1.5730   -0.8840   -1.0590 C   0  0  0  0  0  0  0  0  0  0  0  0
   -1.2230   -2.1730   -1.2420 C   0  0  0  0  0  0  0  0  0  0  0  0
   -0.6560   -3.0710   -0.1230 C   0  0  0  0  0  0  0  0  0  0  0  0
   -0.6770   -4.2190   -0.6510 C   0  0  0  0  0  0  0  0  0  0  0  0
   -1.1340   -4.3330   -1.9890 C   0  0  0  0  0  0  0  0  0  0  0  0
   -1.4470   -3.1470   -2.3830 C   0  0  0  0  0  0  0  0  0  0  0  0
   -1.8280   -2.6040   -3.6740 N   0  0  0  0  0  0  0  0  0  0  0  0
   -1.4440   -1.4850   -4.2270 C   0  0  0  0  0  0  0  0  0  0  0  0
   -1.7770   -0.5040   -4.9110 O   0  0  0  0  0  0  0  0  0  0  0  0
    0.1010   -1.0770   -3.9600 N   0  0  0  0  0  0  0  0  0  0  0  0
    1.0500   -1.6330   -3.2430 N   0  0  0  0  0  0  0  0  0  0  0  0
    1.5650   -1.9420   -1.9910 C   0  0  0  0  0  0  0  0  0  0  0  0
    2.0060   -2.9170   -1.4140 O   0  0  0  0  0  0  0  0  0  0  0  0
    1.6000   -0.6600   -0.9070 C   0  0  0  0  0  0  0  0  0  0  0  0
    0.5870   -0.5880   -0.1500 O   0  0  0  0  0  0  0  0  0  0  0  0
  1  2  1  0
  2  3  2  3
  3  4  1  0
  3  5  1  0
  5  6  2  3
  6  7  1  0
  7  8  2  0
  7 23  1  0
  8  9  1  0
  9 10  2  0
 10 11  1  0
 10 14  1  0
 11 12  2  0
 12 13  1  0
 13 14  2  0
 14 15  1  0
 15 16  1  0
 16 17  2  0
 16 18  1  0
 18 19  1  0
 19 20  1  0
 20 21  2  0
 20 22  1  0
 22 23  1  0
M  END
