
     RDKit          3D

 16 17  0  0  0  0  0  0  0  0999 V2000
   -2.3330   -2.3360   -0.1300 C   0  0  0  0  0  0  0  0  0  0  0  0
   -2.7540   -0.9450    0.1250 C   0  0  0  0  0  0  0  0  0  0  0  0
   -4.0800   -0.6000    0.2520 C   0  0  0  0  0  0  0  0  0  0  0  0
   -4.4440    0.7320    0.4950 C   0  0  0  0  0  0  0  0  0  0  0  0
   -3.4540    1.6860    0.6040 C   0  0  0  0  0  0  0  0  0  0  0  0
   -2.1890    1.3100    0.4750 N   0  0  0  0  0  0  0  0  0  0  0  0
   -1.7950    0.0340    0.2400 C   0  0  0  0  0  0  0  0  0  0  0  0
   -0.3890   -0.2790    0.1140 N   0  0  0  0  0  0  0  0  0  0  0  0
    0.5520    0.7840    0.2440 C   0  0  0  0  0  0  0  0  0  0  0  0
    1.9620    0.3740    0.1020 C   0  0  0  0  0  0  0  0  0  0  0  0
    2.4290   -0.8930   -0.1360 C   0  0  0  0  0  0  0  0  0  0  0  0
    3.7910   -1.1900   -0.2570 C   0  0  0  0  0  0  0  0  0  0  0  0
    4.7340   -0.2040   -0.1400 C   0  0  0  0  0  0  0  0  0  0  0  0
    4.2890    1.0850    0.1000 C   0  0  0  0  0  0  0  0  0  0  0  0
    2.9490    1.3610    0.2160 C   0  0  0  0  0  0  0  0  0  0  0  0
    2.5420    2.6630    0.4560 O   0  0  0  0  0  0  0  0  0  0  0  0
  1  2  1  0
  2  3  2  0
  2  7  1  0
  3  4  1  0
  4  5  2  0
  5  6  1  0
  6  7  2  0
  7  8  1  0
  8  9  1  0
  9 10  1  0
 10 11  2  0
 10 15  1  0
 11 12  1  0
 12 13  2  0
 13 14  1  0
 14 15  2  0
 15 16  1  0
M  END
