
     RDKit          3D

 25 27  0  0  0  0  0  0  0  0999 V2000
    1.9870    3.8010    3.3090 C   0  0  0  0  0  0  0  0  0  0  0  0
    1.7830    2.5890    2.4900 C   0  0  0  0  0  0  0  0  0  0  0  0
    0.7160    2.6480    1.5570 O   0  0  0  0  0  0  0  0  0  0  0  0
    0.6590    1.4240    1.0040 C   0  0  1  0  0  0  0  0  0  0  0  0
   -0.7040    0.7070    1.3130 C   0  0  1  0  0  0  0  0  0  0  0  0
   -1.6110    1.4670    0.5770 O   0  0  0  0  0  0  0  0  0  0  0  0
   -0.3410   -0.4980    0.6360 C   0  0  1  0  0  0  0  0  0  0  0  0
   -1.0520   -1.7180    0.4010 C   0  0  1  0  0  0  0  0  0  0  0  0
   -2.5070   -1.7640    0.3260 C   0  0  0  0  0  0  0  0  0  0  0  0
   -3.1550   -1.3910    1.6750 C   0  0  1  0  0  0  0  0  0  0  0  0
   -4.4850   -1.3140    1.6830 O   0  0  0  0  0  0  0  0  0  0  0  0
   -2.8470   -2.6690    2.5660 C   0  0  0  0  0  0  0  0  0  0  0  0
   -2.6610   -3.4990    3.1560 N   0  0  0  0  0  0  0  0  0  0  0  0
   -0.3040   -2.2950   -0.7510 C   0  0  1  0  0  0  0  0  0  0  0  0
   -1.0170   -3.2370   -1.6370 C   0  0  0  0  0  0  0  0  0  0  0  0
    0.3240   -1.0920   -1.4930 C   0  0  2  0  0  0  0  0  0  0  0  0
   -0.2600   -1.0820   -2.9270 C   0  0  0  0  0  0  0  0  0  0  0  0
    1.8010   -1.1780   -1.6250 C   0  0  0  0  0  0  0  0  0  0  0  0
    2.3020    0.0710   -1.9350 O   0  0  0  0  0  0  0  0  0  0  0  0
    2.1430    1.0340   -0.9700 C   0  0  1  0  0  0  0  0  0  0  0  0
    2.6690    2.3380   -1.5370 C   0  0  0  0  0  0  0  0  0  0  0  0
    1.9030    2.5890   -2.7080 O   0  0  0  0  0  0  0  0  0  0  0  0
    0.7320    1.2310   -0.4750 C   0  0  1  0  0  0  0  0  0  0  0  0
   -0.1710    0.0790   -0.7900 C   0  0  2  0  0  0  0  0  0  0  0  0
   -1.3650    0.5650   -1.3060 O   0  0  0  0  0  0  0  0  0  0  0  0
  1  2  1  0
  2  3  1  0
  4  3  1  6
  4  5  1  0
  4 23  1  0
  5  6  1  6
  7  5  1  1
  7  8  1  0
  7 24  1  0
  8  9  1  6
  8 14  1  0
  9 10  1  0
 10 11  1  6
 10 12  1  0
 12 13  3  0
 14 15  1  6
 14 16  1  0
 16 17  1  6
 16 18  1  0
 16 24  1  0
 18 19  1  0
 19 20  1  0
 20 21  1  6
 23 20  1  1
 21 22  1  0
 23 24  1  0
 24 25  1  6
M  END
