
     RDKit          3D

 25 27  0  0  0  0  0  0  0  0999 V2000
   -0.8770    2.7560   -1.5870 O   0  0  0  0  0  0  0  0  0  0  0  0
   -0.4660    1.6950   -0.9780 C   0  0  0  0  0  0  0  0  0  0  0  0
   -1.3940    0.6390   -0.9390 N   0  0  0  0  0  0  0  0  0  0  0  0
   -1.9290   -0.0350    0.2230 C   0  0  1  0  0  0  0  0  0  0  0  0
   -3.4110    0.3450    0.4020 C   0  0  1  0  0  0  0  0  0  0  0  0
   -3.5610    1.8290    0.5900 C   0  0  0  0  0  0  0  0  0  0  0  0
   -5.0290    2.1080    0.8210 C   0  0  0  0  0  0  0  0  0  0  0  0
   -5.8160    0.9780    0.6640 O   0  0  0  0  0  0  0  0  0  0  0  0
   -5.6380    0.3600   -0.5720 C   0  0  0  0  0  0  0  0  0  0  0  0
   -4.2090   -0.0580   -0.8040 C   0  0  0  0  0  0  0  0  0  0  0  0
   -1.9290   -1.5500    0.0250 C   0  0  0  0  0  0  0  0  0  0  0  0
   -0.6860   -2.1800    0.6520 C   0  0  2  0  0  0  0  0  0  0  0  0
   -0.4700   -1.5150    1.8570 O   0  0  0  0  0  0  0  0  0  0  0  0
    0.4690   -2.0330   -0.3120 C   0  0  0  0  0  0  0  0  0  0  0  0
    1.1680   -0.9090    0.0470 O   0  0  0  0  0  0  0  0  0  0  0  0
    2.5520   -1.0240   -0.0530 C   0  0  2  0  0  0  0  0  0  0  0  0
    3.2060   -1.1060    1.3100 C   0  0  0  0  0  0  0  0  0  0  0  0
    3.2310    0.3300    1.8100 C   0  0  0  0  0  0  0  0  0  0  0  0
    2.7850    1.1980    0.6560 C   0  0  2  0  0  0  0  0  0  0  0  0
    1.3110    1.5560    0.7890 C   0  0  0  0  0  0  0  0  0  0  0  0
    0.7950    1.7550   -0.4690 O   0  0  0  0  0  0  0  0  0  0  0  0
    3.0560    0.3130   -0.5420 C   0  0  1  0  0  0  0  0  0  0  0  0
    4.5180    0.3200   -0.8460 C   0  0  0  0  0  0  0  0  0  0  0  0
    4.8420   -0.6890   -1.9230 C   0  0  0  0  0  0  0  0  0  0  0  0
    6.2120   -0.6890   -2.2220 O   0  0  0  0  0  0  0  0  0  0  0  0
  1  2  2  0
  2  3  1  0
  2 21  1  0
  3  4  1  0
  4  5  1  0
  4 11  1  6
  5  6  1  6
  5 10  1  0
  6  7  1  0
  7  8  1  0
  8  9  1  0
  9 10  1  0
 11 12  1  0
 12 13  1  1
 12 14  1  0
 14 15  1  0
 15 16  1  0
 16 17  1  1
 16 22  1  0
 17 18  1  0
 19 18  1  1
 19 20  1  0
 19 22  1  0
 20 21  1  0
 22 23  1  1
 23 24  1  0
 24 25  1  0
M  END
