
     RDKit          3D

 25 27  0  0  0  0  0  0  0  0999 V2000
   -1.4670   -0.3230    1.9090 C   0  0  0  0  0  0  0  0  0  0  0  0
   -1.9880    0.0030    0.5010 C   0  0  1  0  0  0  0  0  0  0  0  0
   -1.8750    1.3370    0.2110 O   0  0  0  0  0  0  0  0  0  0  0  0
   -1.3620   -0.8950   -0.4580 C   0  0  2  0  0  0  0  0  0  0  0  0
   -1.5980   -2.2780   -0.0550 O   0  0  0  0  0  0  0  0  0  0  0  0
    0.0580   -0.8690   -0.7880 C   0  0  0  0  0  0  0  0  0  0  0  0
    0.8270    0.1910   -1.4080 C   0  0  2  0  0  0  0  0  0  0  0  0
    2.3220   -0.3350   -1.5520 C   0  0  0  0  0  0  0  0  0  0  0  0
    3.1080   -0.1180   -0.3220 C   0  0  2  0  0  0  0  0  0  0  0  0
    4.4240    0.6180   -0.5980 C   0  0  0  0  0  0  0  0  0  0  0  0
    5.4660   -0.3420   -1.1750 C   0  0  0  0  0  0  0  0  0  0  0  0
    5.9040   -1.2340   -0.1970 O   0  0  0  0  0  0  0  0  0  0  0  0
    4.9350   -1.4180    0.7920 C   0  0  0  0  0  0  0  0  0  0  0  0
    3.5720   -1.5120    0.1550 C   0  0  0  0  0  0  0  0  0  0  0  0
    2.4600    0.5160    0.8460 C   0  0  0  0  0  0  0  0  0  0  0  0
    1.4340    1.5810    0.5250 C   0  0  0  0  0  0  0  0  0  0  0  0
    1.0210    1.5460   -0.9050 C   0  0  2  0  0  0  0  0  0  0  0  0
    0.1570    2.5430   -1.2580 O   0  0  0  0  0  0  0  0  0  0  0  0
   -3.4350   -0.2180    0.6310 N   0  0  0  0  0  0  0  0  0  0  0  0
   -3.9430    0.6980    1.5730 C   0  0  0  0  0  0  0  0  0  0  0  0
   -5.1330    1.4930    1.1740 C   0  0  0  0  0  0  0  0  0  0  0  0
   -5.2970    1.6480   -0.1890 O   0  0  0  0  0  0  0  0  0  0  0  0
   -6.1630    0.7420   -0.5940 O   0  0  0  0  0  0  0  0  0  0  0  0
   -5.6120   -0.4940   -0.2580 C   0  0  0  0  0  0  0  0  0  0  0  0
   -4.1240   -0.4050   -0.5790 C   0  0  0  0  0  0  0  0  0  0  0  0
  2  1  1  1
  2  3  1  0
  2  4  1  0
  2 19  1  0
  4  5  1  1
  4  6  1  0
  7  6  1  1
  7  8  1  0
  7 17  1  0
  9  8  1  6
  9 10  1  0
  9 14  1  0
  9 15  1  0
 10 11  1  0
 11 12  1  0
 12 13  1  0
 13 14  1  0
 15 16  1  0
 16 17  1  0
 17 18  1  1
 19 20  1  0
 19 25  1  0
 20 21  1  0
 21 22  1  0
 22 23  1  0
 23 24  1  0
 24 25  1  0
M  END
