
     RDKit          3D

 25 27  0  0  0  0  0  0  0  0999 V2000
   -3.7620   -1.2930    0.2900 C   0  0  0  0  0  0  0  0  0  0  0  0
   -2.3190   -1.5130   -0.1630 C   0  0  2  0  0  0  0  0  0  0  0  0
   -2.3970   -2.2350   -1.4860 C   0  0  0  0  0  0  0  0  0  0  0  0
   -1.6320   -2.2860    0.8980 C   0  0  0  0  0  0  0  0  0  0  0  0
   -0.9960   -1.1940    1.7310 C   0  0  0  0  0  0  0  0  0  0  0  0
   -0.6520   -0.0540    0.8070 C   0  0  2  0  0  0  0  0  0  0  0  0
    0.7590    0.1820    0.5390 C   0  0  0  0  0  0  0  0  0  0  0  0
    1.7330   -0.7040   -0.0330 C   0  0  1  0  0  0  0  0  0  0  0  0
    2.0760   -2.0040    0.5970 C   0  0  0  0  0  0  0  0  0  0  0  0
    1.5130   -0.9590   -1.5090 C   0  0  0  0  0  0  0  0  0  0  0  0
    1.5540    0.3170   -2.2730 C   0  0  0  0  0  0  0  0  0  0  0  0
    0.8660    0.4990   -3.3030 O   0  0  0  0  0  0  0  0  0  0  0  0
    2.3920    1.3900   -1.8510 N   0  0  0  0  0  0  0  0  0  0  0  0
    2.9540    1.4560   -0.5010 C   0  0  0  0  0  0  0  0  0  0  0  0
    3.0820    0.0560   -0.0040 C   0  0  2  0  0  0  0  0  0  0  0  0
    3.8840   -0.6070   -0.9710 O   0  0  0  0  0  0  0  0  0  0  0  0
    3.8200   -0.0900    1.2700 C   0  0  0  0  0  0  0  0  0  0  0  0
    3.3010    0.4490    2.4000 O   0  0  0  0  0  0  0  0  0  0  0  0
   -1.0710    1.0680    1.5920 O   0  0  0  0  0  0  0  0  0  0  0  0
   -1.3060    2.1920    0.8660 C   0  0  0  0  0  0  0  0  0  0  0  0
   -2.6040    1.9390    0.1320 C   0  0  1  0  0  0  0  0  0  0  0  0
   -2.9100    3.0780   -0.8400 C   0  0  0  0  0  0  0  0  0  0  0  0
   -2.8860    4.3100   -0.1610 O   0  0  0  0  0  0  0  0  0  0  0  0
   -2.6080    0.7420   -0.4350 O   0  0  0  0  0  0  0  0  0  0  0  0
   -1.6130   -0.1640   -0.2970 C   0  0  2  0  0  0  0  0  0  0  0  0
  2  1  1  1
  2  3  1  0
  2  4  1  0
  2 25  1  0
  4  5  1  0
  5  6  1  0
  6  7  1  6
  6 19  1  0
  6 25  1  0
  7  8  1  0
  8  9  1  1
  8 10  1  0
  8 15  1  0
 10 11  1  0
 11 12  2  0
 11 13  1  0
 13 14  1  0
 14 15  1  0
 15 16  1  6
 15 17  1  0
 17 18  1  0
 19 20  1  0
 20 21  1  0
 21 22  1  6
 21 24  1  0
 22 23  1  0
 25 24  1  1
M  END
