
     RDKit          3D

 24 27  0  0  0  0  0  0  0  0999 V2000
   -4.6670   -2.2960    0.2510 C   0  0  0  0  0  0  0  0  0  0  0  0
   -4.0280   -0.9560    0.6600 C   0  0  2  0  0  0  0  0  0  0  0  0
   -5.1720   -0.0180    0.8670 C   0  0  0  0  0  0  0  0  0  0  0  0
   -5.5930    0.2760   -0.5690 C   0  0  0  0  0  0  0  0  0  0  0  0
   -4.2440    0.5150   -1.2080 C   0  0  0  0  0  0  0  0  0  0  0  0
   -3.2790   -0.4270   -0.4800 C   0  0  1  0  0  0  0  0  0  0  0  0
   -1.9810    0.2370   -0.2630 C   0  0  2  0  0  0  0  0  0  0  0  0
   -0.9590   -0.6670    0.3920 C   0  0  2  0  0  0  0  0  0  0  0  0
   -0.6880    0.0660    1.6950 C   0  0  0  0  0  0  0  0  0  0  0  0
   -0.6110    1.5080    1.1800 C   0  0  1  0  0  0  0  0  0  0  0  0
    0.4800    1.5230    0.1570 C   0  0  0  0  0  0  0  0  0  0  0  0
    1.1600    0.1820   -0.0280 C   0  0  2  0  0  0  0  0  0  0  0  0
    2.1030    0.3740   -1.2100 C   0  0  0  0  0  0  0  0  0  0  0  0
    2.7860   -0.7340   -1.5590 O   0  0  0  0  0  0  0  0  0  0  0  0
    3.6750   -1.2820   -0.6960 C   0  0  0  0  0  0  0  0  0  0  0  0
    4.8710   -0.5080   -0.3220 C   0  0  1  0  0  0  0  0  0  0  0  0
    5.8110   -0.1050   -1.4270 C   0  0  0  0  0  0  0  0  0  0  0  0
    6.8620    0.6110   -0.8540 O   0  0  0  0  0  0  0  0  0  0  0  0
    4.7970    0.3820    0.8560 C   0  0  0  0  0  0  0  0  0  0  0  0
    4.8630   -0.7610    1.6910 O   0  0  0  0  0  0  0  0  0  0  0  0
    5.6850   -1.3210    0.7100 C   0  0  0  0  0  0  0  0  0  0  0  0
    0.2070   -0.7860   -0.3620 O   0  0  0  0  0  0  0  0  0  0  0  0
   -1.9600    1.5470    0.4350 C   0  0  1  0  0  0  0  0  0  0  0  0
   -1.9630    2.6290   -0.4530 O   0  0  0  0  0  0  0  0  0  0  0  0
  2  1  1  6
  2  3  1  0
  2  6  1  0
  3  4  1  0
  4  5  1  0
  6  5  1  1
  6  7  1  0
  7  8  1  1
  7 23  1  0
  8  9  1  0
  8 22  1  6
  9 10  1  0
 10 11  1  6
 10 23  1  0
 11 12  1  0
 12 13  1  6
 12 22  1  0
 13 14  1  0
 14 15  1  0
 16 15  1  6
 16 17  1  0
 16 19  1  0
 16 21  1  0
 17 18  1  0
 19 20  1  0
 20 21  1  0
 23 24  1  6
M  END
