
     RDKit          3D

 23 25  0  0  0  0  0  0  0  0999 V2000
   -2.9650   -2.9900    0.5920 C   0  0  0  0  0  0  0  0  0  0  0  0
   -2.7090   -1.7180   -0.1760 C   0  0  0  0  0  0  0  0  0  0  0  0
   -3.6890   -1.2030   -0.7520 O   0  0  0  0  0  0  0  0  0  0  0  0
   -1.4000   -1.1300   -0.2380 C   0  0  0  0  0  0  0  0  0  0  0  0
   -0.3940   -1.7600    0.3520 C   0  0  0  0  0  0  0  0  0  0  0  0
    0.9610   -1.2550    0.3260 N   0  0  0  0  0  0  0  0  0  0  0  0
    1.9050   -2.0500    1.0730 C   0  0  0  0  0  0  0  0  0  0  0  0
    1.3190   -0.0590   -0.3400 C   0  0  0  0  0  0  0  0  0  0  0  0
    2.6130    0.5420   -0.2630 C   0  0  0  0  0  0  0  0  0  0  0  0
    3.8180    0.4000    0.0870 C   0  0  0  0  0  0  0  0  0  0  0  0
    4.8420   -0.3680    0.6390 C   0  0  0  0  0  0  0  0  0  0  0  0
    4.8930   -1.6570    1.1320 N   0  0  0  0  0  0  0  0  0  0  0  0
    6.0310    0.2130    0.7320 O   0  0  0  0  0  0  0  0  0  0  0  0
    0.2690    0.5600   -0.9450 C   0  0  0  0  0  0  0  0  0  0  0  0
    0.5900    1.8100   -1.6670 C   0  0  0  0  0  0  0  0  0  0  0  0
    1.6600    1.9730   -2.3030 O   0  0  0  0  0  0  0  0  0  0  0  0
   -0.4110    2.8580   -1.6110 N   0  0  0  0  0  0  0  0  0  0  0  0
   -1.6280    2.6270   -0.9370 C   0  0  0  0  0  0  0  0  0  0  0  0
   -2.6210    3.4390   -0.6230 C   0  0  0  0  0  0  0  0  0  0  0  0
   -3.6820    2.7400    0.1290 C   0  0  0  0  0  0  0  0  0  0  0  0
   -3.0790    1.3550    0.2840 C   0  0  0  0  0  0  0  0  0  0  0  0
   -1.9390    1.3130   -0.3480 C   0  0  0  0  0  0  0  0  0  0  0  0
   -1.1250    0.1440   -0.8410 C   0  0  2  0  0  0  0  0  0  0  0  0
  1  2  1  0
  2  3  2  0
  2  4  1  0
  4  5  2  0
 23  4  1  1
  5  6  1  0
  6  7  1  0
  6  8  1  0
  8  9  1  0
  8 14  2  0
  9 10  2  3
 10 11  1  0
 11 12  1  0
 11 13  2  0
 14 15  1  0
 14 23  1  0
 15 16  2  0
 15 17  1  0
 17 18  1  0
 18 19  2  0
 18 22  1  0
 19 20  1  0
 20 21  1  0
 21 22  2  0
 22 23  1  0
M  END
