
     RDKit          3D

 25 27  0  0  0  0  0  0  0  0999 V2000
   -5.3470   -2.1260   -1.4450 C   0  0  0  0  0  0  0  0  0  0  0  0
   -4.2980   -1.8400   -0.3860 C   0  0  0  0  0  0  0  0  0  0  0  0
   -3.7460   -0.4720   -0.6300 C   0  0  1  0  0  0  0  0  0  0  0  0
   -4.7350    0.5390   -0.5650 O   0  0  0  0  0  0  0  0  0  0  0  0
   -5.0800    1.3370   -1.6510 C   0  0  0  0  0  0  0  0  0  0  0  0
   -6.0680    2.3490   -1.5930 N   0  0  0  0  0  0  0  0  0  0  0  0
   -4.4430    1.1010   -2.7260 O   0  0  0  0  0  0  0  0  0  0  0  0
   -2.6020   -0.1080    0.2630 C   0  0  2  0  0  0  0  0  0  0  0  0
   -1.4220   -1.0450    0.1160 C   0  0  0  0  0  0  0  0  0  0  0  0
   -0.2290   -0.3340    0.6890 C   0  0  2  0  0  0  0  0  0  0  0  0
   -0.5740    0.8210    1.5660 C   0  0  0  0  0  0  0  0  0  0  0  0
   -1.7770    0.6440    2.4160 C   0  0  0  0  0  0  0  0  0  0  0  0
   -2.9320   -0.0350    1.7100 C   0  0  2  0  0  0  0  0  0  0  0  0
   -3.0040   -1.3370    2.2570 O   0  0  0  0  0  0  0  0  0  0  0  0
    0.5560    0.2230   -0.5070 C   0  0  0  0  0  0  0  0  0  0  0  0
    1.8810    0.5200    0.1600 C   0  0  2  0  0  0  0  0  0  0  0  0
    3.0520    0.3040   -0.7600 C   0  0  0  0  0  0  0  0  0  0  0  0
    4.2010    0.5950   -0.0770 O   0  0  0  0  0  0  0  0  0  0  0  0
    5.3630    0.4380   -0.8060 C   0  0  2  0  0  0  0  0  0  0  0  0
    6.2200   -0.5800   -0.0710 C   0  0  0  0  0  0  0  0  0  0  0  0
    7.5280    0.1200    0.1960 C   0  0  0  0  0  0  0  0  0  0  0  0
    7.1710    1.4490    0.2470 O   0  0  0  0  0  0  0  0  0  0  0  0
    6.2480    1.6570   -0.7790 C   0  0  0  0  0  0  0  0  0  0  0  0
    1.9260   -0.5460    1.2410 C   0  0  0  0  0  0  0  0  0  0  0  0
    0.7000   -1.1620    1.2630 O   0  0  0  0  0  0  0  0  0  0  0  0
  1  2  1  0
  3  2  1  1
  3  4  1  0
  3  8  1  0
  4  5  1  0
  5  6  1  0
  5  7  2  0
  8  9  1  1
  8 13  1  0
 10  9  1  6
 10 11  1  0
 10 15  1  0
 10 25  1  0
 11 12  1  0
 12 13  1  0
 13 14  1  1
 15 16  1  0
 16 17  1  6
 16 24  1  0
 17 18  1  0
 19 18  1  1
 19 20  1  0
 19 23  1  0
 20 21  1  0
 21 22  1  0
 22 23  1  0
 24 25  1  0
M  END
