
     RDKit          3D

 13 13  0  0  0  0  0  0  0  0999 V2000
    2.1150    0.6090    0.3730 N   0  0  0  0  0  0  0  0  0  0  0  0
    1.6580   -0.6800   -0.0060 C   0  0  0  0  0  0  0  0  0  0  0  0
    2.5110   -1.6030   -0.0530 O   0  0  0  0  0  0  0  0  0  0  0  0
    0.2530   -0.9400   -0.3320 C   0  0  2  0  0  0  0  0  0  0  0  0
    0.0700   -2.2830   -0.6710 O   0  0  0  0  0  0  0  0  0  0  0  0
   -0.1120   -0.1290   -1.5150 C   0  0  0  0  0  0  0  0  0  0  0  0
    0.0260   -0.6240   -2.6600 O   0  0  0  0  0  0  0  0  0  0  0  0
   -0.6080    1.1860   -1.3500 N   0  0  0  0  0  0  0  0  0  0  0  0
   -1.0470    1.6250   -0.0700 C   0  0  0  0  0  0  0  0  0  0  0  0
   -1.6510    2.7210    0.0620 O   0  0  0  0  0  0  0  0  0  0  0  0
   -0.8040    0.8060    1.1330 C   0  0  0  0  0  0  0  0  0  0  0  0
   -0.6840   -0.6460    0.8150 C   0  0  1  0  0  0  0  0  0  0  0  0
   -1.9430   -1.1350    0.4730 O   0  0  0  0  0  0  0  0  0  0  0  0
  1  2  1  0
  2  3  2  0
  2  4  1  0
  4  5  1  6
  4  6  1  0
  4 12  1  0
  6  7  2  0
  6  8  1  0
  8  9  1  0
  9 10  2  0
  9 11  1  0
 11 12  1  0
 12 13  1  6
M  END
