
     RDKit          3D

 11 11  0  0  0  0  0  0  0  0999 V2000
   -0.7690    1.2290    0.9560 N   0  0  0  0  0  0  0  0  0  0  0  0
   -1.4570    0.2950    0.4310 C   0  0  0  0  0  0  0  0  0  0  0  0
   -2.6950    0.6080   -0.2970 C   0  0  0  0  0  0  0  0  0  0  0  0
   -4.0310   -0.2280    0.5130 Cl  0  0  0  0  0  0  0  0  0  0  0  0
   -1.0210   -1.0420    0.5550 N   0  0  0  0  0  0  0  0  0  0  0  0
    0.1300   -1.4450    0.2330 N   0  0  0  0  0  0  0  0  0  0  0  0
    1.1350   -0.6350   -0.2900 N   0  0  0  0  0  0  0  0  0  0  0  0
    0.8910    0.1680   -1.2350 N   0  0  0  0  0  0  0  0  0  0  0  0
    2.4560   -0.6780    0.2130 C   0  0  0  0  0  0  0  0  0  0  0  0
    3.3280   -0.5440    1.1570 N   0  0  0  0  0  0  0  0  0  0  0  0
    3.8720   -0.9030    0.0730 C   0  0  0  0  0  0  0  0  0  0  0  0
  1  2  2  0
  2  3  1  0
  2  5  1  0
  3  4  1  0
  5  6  2  3
  6  7  1  0
  7  8  2  0
  7  9  1  0
  9 10  2  0
  9 11  1  0
 10 11  2  0
M  CHG  2   7   1  10   1
M  END
