
     RDKit          3D

 13 13  0  0  0  0  0  0  0  0999 V2000
    4.7680    0.4180   -0.0370 N   0  0  0  0  0  0  0  0  0  0  0  0
    3.5380   -0.2330    0.2410 C   0  0  0  0  0  0  0  0  0  0  0  0
    3.5730   -1.4140    0.7230 O   0  0  0  0  0  0  0  0  0  0  0  0
    2.2660    0.4270   -0.0160 C   0  0  0  0  0  0  0  0  0  0  0  0
    2.2710    1.5760   -0.4840 O   0  0  0  0  0  0  0  0  0  0  0  0
    1.0180   -0.1920    0.2500 N   0  0  0  0  0  0  0  0  0  0  0  0
   -0.2540    0.4710   -0.0080 C   0  0  2  0  0  0  0  0  0  0  0  0
   -0.9750    0.4500    1.1690 O   0  0  0  0  0  0  0  0  0  0  0  0
   -1.5930   -0.7990    1.1290 C   0  0  0  0  0  0  0  0  0  0  0  0
   -2.0550   -0.8110   -0.3290 C   0  0  1  0  0  0  0  0  0  0  0  0
   -3.1630    0.2120   -0.4350 C   0  0  0  0  0  0  0  0  0  0  0  0
   -3.3970    0.4470   -1.7880 O   0  0  0  0  0  0  0  0  0  0  0  0
   -0.9350   -0.2800   -0.9470 O   0  0  0  0  0  0  0  0  0  0  0  0
  1  2  1  0
  2  3  2  0
  2  4  1  0
  4  5  2  0
  4  6  1  0
  7  6  1  1
  7  8  1  0
  7 13  1  0
  8  9  1  0
  9 10  1  0
 10 11  1  1
 10 13  1  0
 11 12  1  0
M  END
