
     RDKit          3D

 12 13  0  0  0  0  0  0  0  0999 V2000
    0.0690   -2.0220   -1.3800 Cl  0  0  0  0  0  0  0  0  0  0  0  0
   -1.1940   -1.0200   -0.6590 C   0  0  0  0  0  0  0  0  0  0  0  0
   -0.5990   -0.0290    0.2900 C   0  0  2  0  0  0  0  0  0  0  0  0
   -1.5830    0.7910    0.8860 O   0  0  0  0  0  0  0  0  0  0  0  0
   -1.4530    1.7640   -0.0760 N   0  0  0  0  0  0  0  0  0  0  0  0
   -0.1830    1.2360   -0.3020 N   0  0  0  0  0  0  0  0  0  0  0  0
    0.9520    1.5490   -0.7760 N   0  0  0  0  0  0  0  0  0  0  0  0
    2.1090    0.7280   -0.8440 N   0  0  0  0  0  0  0  0  0  0  0  0
    2.4500   -0.2260   -0.0480 C   0  0  0  0  0  0  0  0  0  0  0  0
    1.6780   -0.6400    1.0980 N   0  0  0  0  0  0  0  0  0  0  0  0
    0.3750   -0.5530    1.2370 C   0  0  0  0  0  0  0  0  0  0  0  0
   -0.2820   -1.1350    2.7380 Cl  0  0  0  0  0  0  0  0  0  0  0  0
  1  2  1  0
  3  2  1  6
  3  4  1  0
  3  6  1  0
  3 11  1  0
  4  5  1  0
  5  6  1  0
  6  7  2  0
  7  8  1  0
  8  9  2  0
  9 10  1  0
 10 11  2  0
 11 12  1  0
M  CHG  1   6   1
M  END
