
     RDKit          3D

 12 13  0  0  0  0  0  0  0  0999 V2000
    2.3990    0.5630    0.0960 C   0  0  0  0  0  0  0  0  0  0  0  0
    1.5920   -0.6220    0.2130 N   0  0  0  0  0  0  0  0  0  0  0  0
    0.3010   -0.5070   -0.4620 C   0  0  1  0  0  0  0  0  0  0  0  0
    0.7220   -0.1120   -2.1720 Cl  0  0  0  0  0  0  0  0  0  0  0  0
   -0.3170   -1.8290   -0.4840 C   0  0  0  0  0  0  0  0  0  0  0  0
   -1.4090   -2.0480    0.1540 N   0  0  0  0  0  0  0  0  0  0  0  0
   -1.9720   -0.9870    0.8580 N   0  0  0  0  0  0  0  0  0  0  0  0
   -1.7220    0.3180    0.5290 N   0  0  0  0  0  0  0  0  0  0  0  0
   -1.6750    0.8520   -0.7460 C   0  0  0  0  0  0  0  0  0  0  0  0
   -0.4690    0.5710    0.0240 N   0  0  2  0  0  0  0  0  0  0  0  0
    0.1530    1.6060    0.6430 O   0  0  0  0  0  0  0  0  0  0  0  0
   -0.7260    2.1500    2.0030 Cl  0  0  0  0  0  0  0  0  0  0  0  0
  1  2  1  0
  2  3  1  0
  3  4  1  6
  3  5  1  0
  3 10  1  0
  5  6  2  0
  6  7  1  0
  7  8  1  0
  8  9  1  0
  8 10  1  0
  9 10  1  0
 10 11  1  1
 11 12  1  0
M  CHG  1  10   1
M  END
