
     RDKit          3D

 12 13  0  0  0  0  0  0  0  0999 V2000
    4.2110   -0.0180    0.0860 Cl  0  0  0  0  0  0  0  0  0  0  0  0
    2.5200   -0.5540    0.0430 C   0  0  0  0  0  0  0  0  0  0  0  0
    1.9140   -1.6300    0.2780 N   0  0  0  0  0  0  0  0  0  0  0  0
    0.6770   -1.0850   -0.0190 C   0  0  0  0  0  0  0  0  0  0  0  0
   -0.5750   -1.4450   -0.0610 N   0  0  0  0  0  0  0  0  0  0  0  0
   -1.8080   -0.8290   -0.3780 C   0  0  0  0  0  0  0  0  0  0  0  0
   -2.0640    0.4170    0.2690 N   0  0  0  0  0  0  0  0  0  0  0  0
   -1.5080    1.3980    0.8170 N   0  0  0  0  0  0  0  0  0  0  0  0
   -0.1600    1.7020    1.0480 N   0  0  0  0  0  0  0  0  0  0  0  0
    0.9390    1.2380    0.6220 N   0  0  0  0  0  0  0  0  0  0  0  0
    1.3090    0.1770   -0.3040 C   0  0  1  0  0  0  0  0  0  0  0  0
    1.2310    0.7270   -2.0000 Cl  0  0  0  0  0  0  0  0  0  0  0  0
  1  2  1  0
  2  3  2  0
  2 11  1  0
  3  4  1  0
  4  5  2  0
  4 11  1  0
  5  6  1  0
  6  7  1  0
  7  8  2  0
  8  9  1  0
  9 10  2  0
 10 11  1  0
 11 12  1  6
M  CHG  1   8   1
M  END
