
     RDKit          3D

 12 12  0  0  0  0  0  0  0  0999 V2000
    3.3140   -0.3610   -0.2790 C   0  0  0  0  0  0  0  0  0  0  0  0
    2.0100   -0.7780   -0.0030 O   0  0  0  0  0  0  0  0  0  0  0  0
    1.2510    0.3520    0.2230 C   0  0  0  0  0  0  0  0  0  0  0  0
   -0.1870    0.0660    0.5350 C   0  0  1  0  0  0  0  0  0  0  0  0
   -0.3710   -0.7390    1.7020 N   0  0  0  0  0  0  0  0  0  0  0  0
   -0.8670    1.3830    0.7300 C   0  0  0  0  0  0  0  0  0  0  0  0
   -0.3270    2.3620    1.2960 O   0  0  0  0  0  0  0  0  0  0  0  0
   -2.1920    1.4980    0.2370 N   0  0  0  0  0  0  0  0  0  0  0  0
   -2.9570    0.4450   -0.0050 O   0  0  0  0  0  0  0  0  0  0  0  0
   -2.3440   -0.6510   -0.5390 C   0  0  0  0  0  0  0  0  0  0  0  0
   -0.8620   -0.5960   -0.6380 C   0  0  1  0  0  0  0  0  0  0  0  0
   -0.4810    0.0280   -1.8120 O   0  0  0  0  0  0  0  0  0  0  0  0
  1  2  1  0
  2  3  1  0
  3  4  1  0
  4  5  1  1
  4  6  1  0
  4 11  1  0
  6  7  2  0
  6  8  1  0
  8  9  1  0
  9 10  1  0
 10 11  1  0
 11 12  1  6
M  END
