
     RDKit          3D

 19 20  0  0  0  0  0  0  0  0999 V2000
    5.2040    0.3100    0.2370 C   0  0  0  0  0  0  0  0  0  0  0  0
    3.7570    0.0720    0.1620 C   0  0  0  0  0  0  0  0  0  0  0  0
    3.0970   -0.4130   -0.9460 C   0  0  0  0  0  0  0  0  0  0  0  0
    1.7210   -0.6140   -0.9430 C   0  0  0  0  0  0  0  0  0  0  0  0
    1.0580   -1.1040   -2.0630 O   0  0  0  0  0  0  0  0  0  0  0  0
    0.9570   -0.3370    0.1690 C   0  0  0  0  0  0  0  0  0  0  0  0
   -0.4150   -0.5400    0.1620 O   0  0  0  0  0  0  0  0  0  0  0  0
   -1.2520    0.4900   -0.2370 C   0  0  0  0  0  0  0  0  0  0  0  0
   -0.7200    1.5740   -0.5780 O   0  0  0  0  0  0  0  0  0  0  0  0
   -2.6930    0.2980   -0.2500 C   0  0  0  0  0  0  0  0  0  0  0  0
   -3.5610    1.2900   -0.6380 C   0  0  0  0  0  0  0  0  0  0  0  0
   -4.9240    1.0570   -0.6340 C   0  0  0  0  0  0  0  0  0  0  0  0
   -5.4640   -0.1340   -0.2550 N   0  0  0  0  0  0  0  0  0  0  0  0
   -4.6100   -1.0980    0.1220 C   0  0  0  0  0  0  0  0  0  0  0  0
   -3.2460   -0.9000    0.1290 C   0  0  0  0  0  0  0  0  0  0  0  0
    1.6130    0.1490    1.2800 C   0  0  0  0  0  0  0  0  0  0  0  0
    2.9780    0.3530    1.2910 C   0  0  0  0  0  0  0  0  0  0  0  0
    3.5730    0.8380    2.4280 O   0  0  0  0  0  0  0  0  0  0  0  0
    2.8470    1.1080    3.5040 O   0  0  0  0  0  0  0  0  0  0  0  0
  1  2  1  0
  2  3  2  0
  2 17  1  0
  3  4  1  0
  4  5  1  0
  4  6  2  0
  6  7  1  0
  6 16  1  0
  7  8  1  0
  8  9  2  0
  8 10  1  0
 10 11  2  0
 10 15  1  0
 11 12  1  0
 12 13  2  0
 13 14  1  0
 14 15  2  0
 16 17  2  0
 17 18  1  0
 18 19  1  0
M  CHG  2  13   1  19  -1
M  END
