
     RDKit          3D

 20 21  0  0  0  0  0  0  0  0999 V2000
    5.4630   -0.5190   -0.3600 C   0  0  0  0  0  0  0  0  0  0  0  0
    4.5380   -0.9280    0.4780 C   0  0  0  0  0  0  0  0  0  0  0  0
    3.1340   -0.6350    0.3600 C   0  0  0  0  0  0  0  0  0  0  0  0
    2.6700    0.5930   -0.0410 C   0  0  0  0  0  0  0  0  0  0  0  0
    3.4610    1.7360   -0.2890 N   0  0  0  0  0  0  0  0  0  0  0  0
    4.4810    1.9360    0.3830 O   0  0  0  0  0  0  0  0  0  0  0  0
    3.0920    2.6470   -1.2400 O   0  0  0  0  0  0  0  0  0  0  0  0
    1.2830    0.7580   -0.1950 C   0  0  0  0  0  0  0  0  0  0  0  0
    0.4320   -0.2880    0.0540 C   0  0  0  0  0  0  0  0  0  0  0  0
   -1.0200   -0.1270   -0.1050 C   0  0  0  0  0  0  0  0  0  0  0  0
   -1.6570    1.0310   -0.5000 C   0  0  0  0  0  0  0  0  0  0  0  0
   -3.0240    0.7690   -0.5250 C   0  0  0  0  0  0  0  0  0  0  0  0
   -4.1120    1.7030   -0.8880 C   0  0  0  0  0  0  0  0  0  0  0  0
   -3.1340   -0.5490   -0.1390 C   0  0  0  0  0  0  0  0  0  0  0  0
   -4.4230   -1.3100   -0.0080 C   0  0  0  0  0  0  0  0  0  0  0  0
   -4.1890   -2.6010    0.3950 O   0  0  0  0  0  0  0  0  0  0  0  0
   -1.9250   -1.0290    0.0970 O   0  0  0  0  0  0  0  0  0  0  0  0
    0.9660   -1.4190    0.4330 O   0  0  0  0  0  0  0  0  0  0  0  0
    2.2180   -1.6490    0.5950 C   0  0  0  0  0  0  0  0  0  0  0  0
    2.6820   -2.7790    0.9690 O   0  0  0  0  0  0  0  0  0  0  0  0
  1  2  2  0
  2  3  1  0
  3  4  2  0
  3 19  1  0
  4  5  1  0
  4  8  1  0
  5  6  2  0
  5  7  1  0
  8  9  2  0
  9 10  1  0
  9 18  1  0
 10 11  2  0
 10 17  1  0
 11 12  1  0
 12 13  1  0
 12 14  2  0
 14 15  1  0
 14 17  1  0
 15 16  1  0
 18 19  1  0
 19 20  2  0
M  CHG  2   5   1   7  -1
M  END
