
     RDKit          3D

 24 26  0  0  0  0  0  0  0  0999 V2000
   -4.2280   -1.6440   -0.6360 O   0  0  0  0  0  0  0  0  0  0  0  0
   -4.6020   -0.4480   -0.0890 C   0  0  0  0  0  0  0  0  0  0  0  0
   -5.4930    0.4150   -0.6850 C   0  0  0  0  0  0  0  0  0  0  0  0
   -5.8290    1.6160   -0.0960 C   0  0  0  0  0  0  0  0  0  0  0  0
   -5.2510    1.9520    1.1280 C   0  0  0  0  0  0  0  0  0  0  0  0
   -4.3460    1.0810    1.7360 C   0  0  0  0  0  0  0  0  0  0  0  0
   -4.0430   -0.0900    1.1260 C   0  0  0  0  0  0  0  0  0  0  0  0
   -3.0990   -1.1140    1.7610 C   0  0  0  0  0  0  0  0  0  0  0  0
   -2.4450   -1.8140    0.6950 N   0  0  0  0  0  0  0  0  0  0  0  0
   -1.3650   -1.5170   -0.1250 C   0  0  0  0  0  0  0  0  0  0  0  0
   -0.3410   -0.6740    0.1740 C   0  0  0  0  0  0  0  0  0  0  0  0
    0.6690   -0.3140   -0.7260 C   0  0  0  0  0  0  0  0  0  0  0  0
    1.7160    0.5150   -0.3290 N   0  0  0  0  0  0  0  0  0  0  0  0
    2.8230    1.0260   -1.0340 C   0  0  0  0  0  0  0  0  0  0  0  0
    4.1260    0.4890   -0.4600 C   0  0  0  0  0  0  0  0  0  0  0  0
    4.5830   -0.7510   -0.6520 C   0  0  0  0  0  0  0  0  0  0  0  0
    5.8480   -1.1280   -0.1940 C   0  0  0  0  0  0  0  0  0  0  0  0
    6.6050   -0.1980    0.4650 C   0  0  0  0  0  0  0  0  0  0  0  0
    6.1130    1.0910    0.6570 C   0  0  0  0  0  0  0  0  0  0  0  0
    4.8830    1.4590    0.2040 C   0  0  0  0  0  0  0  0  0  0  0  0
    4.3030    2.7110    0.3460 O   0  0  0  0  0  0  0  0  0  0  0  0
    0.5880   -0.8570   -1.9720 N   0  0  0  0  0  0  0  0  0  0  0  0
   -0.4300   -1.6920   -2.2810 C   0  0  0  0  0  0  0  0  0  0  0  0
   -1.3500   -2.0060   -1.4150 N   0  0  0  0  0  0  0  0  0  0  0  0
  1  2  1  0
  2  3  2  0
  2  7  1  0
  3  4  1  0
  4  5  2  0
  5  6  1  0
  6  7  2  0
  7  8  1  0
  8  9  1  0
  9 10  1  0
 10 11  2  0
 10 24  1  0
 11 12  1  0
 12 13  1  0
 12 22  2  0
 13 14  1  0
 14 15  1  0
 15 16  2  0
 15 20  1  0
 16 17  1  0
 17 18  2  0
 18 19  1  0
 19 20  2  0
 20 21  1  0
 22 23  1  0
 23 24  2  0
M  END
