
     RDKit          3D

 20 22  0  0  0  0  0  0  0  0999 V2000
   -4.0310   -2.6910    1.6300 O   0  0  0  0  0  0  0  0  0  0  0  0
   -2.8440   -3.0520    1.5890 C   0  0  0  0  0  0  0  0  0  0  0  0
   -1.7850   -2.1730    1.1350 N   0  0  0  0  0  0  0  0  0  0  0  0
   -2.1110   -0.8800    0.7320 C   0  0  0  0  0  0  0  0  0  0  0  0
   -1.3540    0.0790    0.2810 C   0  0  0  0  0  0  0  0  0  0  0  0
   -1.9320    1.4040   -0.0800 C   0  0  0  0  0  0  0  0  0  0  0  0
   -1.0000    2.5210    0.3640 C   0  0  2  0  0  0  0  0  0  0  0  0
   -0.5740    3.3720   -0.7510 C   0  0  0  0  0  0  0  0  0  0  0  0
    0.6300    3.5470   -1.0000 O   0  0  0  0  0  0  0  0  0  0  0  0
   -1.5240    3.9890   -1.5360 O   0  0  0  0  0  0  0  0  0  0  0  0
    0.1920    2.0230    0.9900 O   0  0  0  0  0  0  0  0  0  0  0  0
    0.8790    0.9510    0.4590 C   0  0  0  0  0  0  0  0  0  0  0  0
    2.2210    0.8620    0.2990 C   0  0  0  0  0  0  0  0  0  0  0  0
    2.7410   -0.3070   -0.2630 C   0  0  0  0  0  0  0  0  0  0  0  0
    1.9260   -1.3650   -0.6560 C   0  0  0  0  0  0  0  0  0  0  0  0
    0.5690   -1.2700   -0.4910 C   0  0  0  0  0  0  0  0  0  0  0  0
    0.0620   -0.1160    0.0650 C   0  0  0  0  0  0  0  0  0  0  0  0
    2.7210   -2.3750   -1.1730 O   0  0  0  0  0  0  0  0  0  0  0  0
    4.0370   -2.1510   -0.6440 C   0  0  0  0  0  0  0  0  0  0  0  0
    4.0340   -0.7170   -0.5590 O   0  0  0  0  0  0  0  0  0  0  0  0
  1  2  2  0
  2  3  1  0
  3  4  1  0
  4  5  2  3
  5  6  1  0
  5 17  1  0
  6  7  1  0
  7  8  1  6
  7 11  1  0
  8  9  2  0
  8 10  1  0
 11 12  1  0
 12 13  2  0
 12 17  1  0
 13 14  1  0
 14 15  2  0
 14 20  1  0
 15 16  1  0
 15 18  1  0
 16 17  2  0
 18 19  1  0
 19 20  1  0
M  END
