
     RDKit          3D

 19 21  0  0  0  0  0  0  0  0999 V2000
    0.4340    2.2500    0.4500 O   0  0  0  0  0  0  0  0  0  0  0  0
   -0.1950    1.1270    0.3720 C   0  0  0  0  0  0  0  0  0  0  0  0
    0.6030    0.0090    0.1430 N   0  0  0  0  0  0  0  0  0  0  0  0
    2.0110   -0.0510   -0.0260 C   0  0  0  0  0  0  0  0  0  0  0  0
    2.8770    1.0050    0.0040 C   0  0  0  0  0  0  0  0  0  0  0  0
    4.2400    0.8180   -0.1760 C   0  0  0  0  0  0  0  0  0  0  0  0
    4.7840   -0.4130   -0.3910 C   0  0  0  0  0  0  0  0  0  0  0  0
    3.9420   -1.4820   -0.4250 C   0  0  0  0  0  0  0  0  0  0  0  0
    2.5910   -1.3060   -0.2480 C   0  0  0  0  0  0  0  0  0  0  0  0
    1.7900   -2.4630   -0.2980 O   0  0  0  0  0  0  0  0  0  0  0  0
   -1.6320    1.1630    0.5320 C   0  0  0  0  0  0  0  0  0  0  0  0
   -2.3000    2.2050    1.0640 O   0  0  0  0  0  0  0  0  0  0  0  0
   -3.5610    1.9960    1.0960 C   0  0  0  0  0  0  0  0  0  0  0  0
   -3.7970    0.7310    0.5530 C   0  0  0  0  0  0  0  0  0  0  0  0
   -2.5600    0.2150    0.1980 C   0  0  0  0  0  0  0  0  0  0  0  0
   -2.8470   -1.0930   -0.3830 C   0  0  0  0  0  0  0  0  0  0  0  0
   -1.9930   -1.8750   -0.8290 O   0  0  0  0  0  0  0  0  0  0  0  0
   -4.2310   -1.3300   -0.3620 O   0  0  0  0  0  0  0  0  0  0  0  0
   -4.8560   -0.2470    0.2210 C   0  0  0  0  0  0  0  0  0  0  0  0
  1  2  2  0
  2  3  1  0
  2 11  1  0
  3  4  1  0
  4  5  2  0
  4  9  1  0
  5  6  1  0
  6  7  2  0
  7  8  1  0
  8  9  2  0
  9 10  1  0
 11 12  1  0
 11 15  2  0
 12 13  1  0
 13 14  2  0
 14 15  1  0
 14 19  1  0
 15 16  1  0
 16 17  2  0
 16 18  1  0
 18 19  1  0
M  END
