
     RDKit          3D

 20 22  0  0  0  0  0  0  0  0999 V2000
    1.8740   -1.7890    3.5380 O   0  0  0  0  0  0  0  0  0  0  0  0
    1.2250   -1.3030    2.6010 C   0  0  0  0  0  0  0  0  0  0  0  0
   -0.1650   -1.4020    2.4760 O   0  0  0  0  0  0  0  0  0  0  0  0
   -0.7120   -1.4450    1.1310 C   0  0  0  0  0  0  0  0  0  0  0  0
   -0.3060   -0.1570    0.4990 C   0  0  2  0  0  0  0  0  0  0  0  0
   -0.8570    0.1120   -0.7510 O   0  0  0  0  0  0  0  0  0  0  0  0
   -2.2250    0.2190   -0.9090 C   0  0  0  0  0  0  0  0  0  0  0  0
   -2.8070    0.4930   -2.0940 C   0  0  0  0  0  0  0  0  0  0  0  0
   -4.2990    0.5330   -1.8800 C   0  0  0  0  0  0  0  0  0  0  0  0
   -4.3280    0.9200   -0.5140 O   0  0  0  0  0  0  0  0  0  0  0  0
   -3.3470    0.0840    0.0470 C   0  0  0  0  0  0  0  0  0  0  0  0
    1.1750   -0.0400    0.5080 C   0  0  0  0  0  0  0  0  0  0  0  0
    1.8320    0.6300   -0.5140 C   0  0  0  0  0  0  0  0  0  0  0  0
    3.1850    0.7620   -0.5030 C   0  0  0  0  0  0  0  0  0  0  0  0
    3.8540    1.4440   -1.5420 N   0  0  0  0  0  0  0  0  0  0  0  0
    5.0810    1.5540   -1.5160 O   0  0  0  0  0  0  0  0  0  0  0  0
    3.1430    1.9770   -2.5690 O   0  0  0  0  0  0  0  0  0  0  0  0
    3.9170    0.2140    0.5520 C   0  0  0  0  0  0  0  0  0  0  0  0
    3.3040   -0.4520    1.5730 C   0  0  0  0  0  0  0  0  0  0  0  0
    1.9070   -0.5690    1.5280 C   0  0  0  0  0  0  0  0  0  0  0  0
  1  2  2  0
  2  3  1  0
  2 20  1  0
  3  4  1  0
  4  5  1  0
  5  6  1  6
  5 12  1  0
  6  7  1  0
  7  8  2  0
  7 11  1  0
  8  9  1  0
  9 10  1  0
 10 11  1  0
 12 13  2  0
 12 20  1  0
 13 14  1  0
 14 15  1  0
 14 18  2  0
 15 16  2  0
 15 17  1  0
 18 19  1  0
 19 20  2  0
M  CHG  2  15   1  17  -1
M  END
