
     RDKit          3D

 20 22  0  0  0  0  0  0  0  0999 V2000
    5.3310   -0.3160   -0.4370 C   0  0  0  0  0  0  0  0  0  0  0  0
    4.2810   -0.3380   -1.3560 O   0  0  0  0  0  0  0  0  0  0  0  0
    2.9420   -0.2480   -0.9800 C   0  0  0  0  0  0  0  0  0  0  0  0
    2.6090   -0.1320    0.3510 C   0  0  0  0  0  0  0  0  0  0  0  0
    1.2830   -0.0380    0.7870 C   0  0  0  0  0  0  0  0  0  0  0  0
    0.3030   -0.0640   -0.1590 C   0  0  0  0  0  0  0  0  0  0  0  0
   -1.1040    0.0120   -0.0130 C   0  0  0  0  0  0  0  0  0  0  0  0
   -1.5610   -0.0640   -1.2870 C   0  0  0  0  0  0  0  0  0  0  0  0
   -0.5520   -0.1740   -2.1360 O   0  0  0  0  0  0  0  0  0  0  0  0
    0.5850   -0.1780   -1.4950 C   0  0  0  0  0  0  0  0  0  0  0  0
    1.9210   -0.2700   -1.9030 C   0  0  0  0  0  0  0  0  0  0  0  0
   -3.0140   -0.0130   -1.5080 C   0  0  0  0  0  0  0  0  0  0  0  0
   -3.4390   -0.0820   -2.6710 O   0  0  0  0  0  0  0  0  0  0  0  0
   -3.8450    0.1140   -0.3210 C   0  0  0  0  0  0  0  0  0  0  0  0
   -3.3650    0.1840    0.8910 C   0  0  0  0  0  0  0  0  0  0  0  0
   -4.2700    0.3100    2.0110 N   0  0  0  0  0  0  0  0  0  0  0  0
   -3.9000    0.9430    3.0050 O   0  0  0  0  0  0  0  0  0  0  0  0
   -5.5100   -0.2440    2.0050 O   0  0  0  0  0  0  0  0  0  0  0  0
   -1.9380    0.1400    1.1780 C   0  0  2  0  0  0  0  0  0  0  0  0
   -1.6470    1.3520    1.8730 O   0  0  0  0  0  0  0  0  0  0  0  0
  1  2  1  0
  2  3  1  0
  3  4  2  0
  3 11  1  0
  4  5  1  0
  5  6  2  0
  6  7  1  0
  6 10  1  0
  7  8  2  0
  7 19  1  0
  8  9  1  0
  8 12  1  0
  9 10  1  0
 10 11  2  0
 12 13  2  0
 12 14  1  0
 14 15  2  0
 15 16  1  0
 15 19  1  0
 16 17  2  0
 16 18  1  0
 19 20  1  6
M  CHG  2  16   1  18  -1
M  END
