
     RDKit          3D

 32 34  0  0  0  0  0  0  0  0999 V2000
   -3.4900   -3.1020    0.8960 N   0  0  0  0  0  0  0  0  0  0  0  0
   -4.3780   -2.0760    0.4640 C   0  0  0  0  0  0  0  0  0  0  0  0
   -3.9030   -0.9060    0.0610 N   0  0  0  0  0  0  0  0  0  0  0  0
   -4.7410    0.0590   -0.3470 C   0  0  0  0  0  0  0  0  0  0  0  0
   -6.0930   -0.1570   -0.3490 C   0  0  0  0  0  0  0  0  0  0  0  0
   -6.6610    0.9780   -0.8020 N   0  0  0  0  0  0  0  0  0  0  0  0
   -5.6620    1.8640   -1.0690 C   0  0  0  0  0  0  0  0  0  0  0  0
   -4.4770    1.2980   -0.7880 N   0  0  0  0  0  0  0  0  0  0  0  0
   -3.1750    1.9110   -0.9360 C   0  0  2  0  0  0  0  0  0  0  0  0
   -2.2350    0.9910   -1.3380 O   0  0  0  0  0  0  0  0  0  0  0  0
   -0.9920    1.4840   -1.0330 C   0  0  2  0  0  0  0  0  0  0  0  0
   -0.0490    0.3880   -0.5360 C   0  0  0  0  0  0  0  0  0  0  0  0
    1.1730    0.9130   -0.2460 O   0  0  0  0  0  0  0  0  0  0  0  0
    2.2580   -0.2440    0.3040 P   0  0  0  0  0  0  0  0  0  0  0  0
    1.6500   -1.7000    0.8660 O   0  0  0  0  0  0  0  0  0  0  0  0
    2.1990    0.3350    1.7140 O   0  0  0  0  0  0  0  0  0  0  0  0
    3.8350   -0.0440    0.0790 O   0  0  0  0  0  0  0  0  0  0  0  0
    4.8140   -0.6140    1.2470 P   0  0  0  0  0  0  0  0  0  0  0  0
    6.2760    0.1020    1.5060 O   0  0  0  0  0  0  0  0  0  0  0  0
    4.2900   -1.8300    2.2590 O   0  0  0  0  0  0  0  0  0  0  0  0
    5.4180   -1.6430    0.2990 O   0  0  0  0  0  0  0  0  0  0  0  0
    6.3100   -1.2390   -1.0040 P   0  0  0  0  0  0  0  0  0  0  0  0
    5.7920   -1.7730   -2.5540 O   0  0  0  0  0  0  0  0  0  0  0  0
    7.1440   -2.5170   -0.9170 O   0  0  0  0  0  0  0  0  0  0  0  0
    7.5610   -0.2180   -0.9450 O   0  0  0  0  0  0  0  0  0  0  0  0
   -1.1420    2.5750   -0.0040 C   0  0  1  0  0  0  0  0  0  0  0  0
   -1.0370    3.8400   -0.5820 O   0  0  0  0  0  0  0  0  0  0  0  0
   -2.6160    2.4060    0.3910 C   0  0  1  0  0  0  0  0  0  0  0  0
   -3.1790    3.5950    0.7950 O   0  0  0  0  0  0  0  0  0  0  0  0
   -6.6060   -1.3880    0.0750 C   0  0  0  0  0  0  0  0  0  0  0  0
   -7.8480   -1.5710    0.0670 O   0  0  0  0  0  0  0  0  0  0  0  0
   -5.7080   -2.3080    0.4690 N   0  0  0  0  0  0  0  0  0  0  0  0
  1  2  1  0
  2  3  1  0
  2 32  2  0
  3  4  1  0
  4  5  2  0
  4  8  1  0
  5  6  1  0
  5 30  1  0
  6  7  2  0
  7  8  1  0
  9  8  1  1
  9 10  1  0
  9 28  1  0
 10 11  1  0
 11 12  1  1
 11 26  1  0
 12 13  1  0
 13 14  1  0
 14 15  1  0
 14 16  1  0
 14 17  1  0
 17 18  1  0
 18 19  1  0
 18 20  1  0
 18 21  1  0
 21 22  1  0
 22 23  1  0
 22 24  1  0
 22 25  1  0
 26 27  1  6
 26 28  1  0
 28 29  1  6
 30 31  2  0
 30 32  1  0
M  CHG  1  32   1
M  END
