
     RDKit          3D

 31 32  0  0  0  0  0  0  0  0999 V2000
   -4.8810    0.1860   -0.8900 C   0  0  0  0  0  0  0  0  0  0  0  0
   -3.6080   -0.0860   -0.0520 C   0  0  2  0  0  0  0  0  0  0  0  0
   -3.7060   -1.5680    0.1820 N   0  0  0  0  0  0  0  0  0  0  0  0
   -3.8210    0.5960    1.2420 C   0  0  0  0  0  0  0  0  0  0  0  0
   -2.8910    0.2830    2.2330 O   0  0  0  0  0  0  0  0  0  0  0  0
   -2.5670    0.1800   -0.8400 O   0  0  0  0  0  0  0  0  0  0  0  0
   -1.2930    0.0730   -0.4750 C   0  0  1  0  0  0  0  0  0  0  0  0
   -0.4460    0.1330   -1.8340 C   0  0  0  0  0  0  0  0  0  0  0  0
    0.9970    0.3870   -1.4650 C   0  0  1  0  0  0  0  0  0  0  0  0
    1.2520    1.7560   -1.5130 O   0  0  0  0  0  0  0  0  0  0  0  0
    2.4390    2.0940   -2.7340 P   0  0  0  0  0  0  0  0  0  0  0  0
    1.2600   -0.1830   -0.0960 C   0  0  1  0  0  0  0  0  0  0  0  0
    2.5610   -0.2750    0.2860 O   0  0  0  0  0  0  0  0  0  0  0  0
    3.5410   -0.9840   -0.3670 C   0  0  0  0  0  0  0  0  0  0  0  0
    3.2340   -1.5990   -1.3960 O   0  0  0  0  0  0  0  0  0  0  0  0
    4.9520   -1.0460    0.1070 C   0  0  0  0  0  0  0  0  0  0  0  0
    5.1010   -0.2640    1.3210 N   0  0  0  0  0  0  0  0  0  0  0  0
    0.5960    0.8080    0.8610 C   0  0  0  0  0  0  0  0  0  0  0  0
    1.0630    1.1950    1.9120 O   0  0  0  0  0  0  0  0  0  0  0  0
   -0.7090    1.1940    0.2590 C   0  0  0  0  0  0  0  0  0  0  0  0
   -1.3190    2.7050    0.3840 P   0  0  0  0  0  0  0  0  0  0  0  0
   -0.5410    4.0340    1.3070 C   0  0  0  0  0  0  0  0  0  0  0  0
    0.2250    4.8410    0.7400 O   0  0  0  0  0  0  0  0  0  0  0  0
   -0.7800    4.1780    2.6580 O   0  0  0  0  0  0  0  0  0  0  0  0
    0.4170   -1.4240    0.0580 C   0  0  1  0  0  0  0  0  0  0  0  0
    0.7430   -2.2900   -1.0050 O   0  0  0  0  0  0  0  0  0  0  0  0
    0.0320   -3.4020   -0.9250 O   0  0  0  0  0  0  0  0  0  0  0  0
    0.7120   -2.1170    1.2370 O   0  0  0  0  0  0  0  0  0  0  0  0
    1.9610   -2.5010    1.2660 O   0  0  0  0  0  0  0  0  0  0  0  0
    2.3270   -2.7920    2.4960 O   0  0  0  0  0  0  0  0  0  0  0  0
   -0.9180   -1.1810   -0.0150 O   0  0  0  0  0  0  0  0  0  0  0  0
  2  1  1  6
  2  3  1  0
  2  4  1  0
  2  6  1  0
  4  5  1  0
  7  6  1  6
  7  8  1  0
  7 20  1  0
  7 31  1  0
  8  9  1  0
  9 10  1  1
  9 12  1  0
 10 11  1  0
 12 13  1  1
 12 18  1  0
 12 25  1  0
 13 14  1  0
 14 15  2  0
 14 16  1  0
 16 17  1  0
 18 19  2  0
 18 20  1  0
 20 21  2  3
 21 22  1  0
 22 23  2  0
 22 24  1  0
 25 26  1  6
 25 28  1  0
 25 31  1  0
 26 27  1  0
 28 29  1  0
 29 30  1  0
M  END
