
     RDKit          3D

 32 34  0  0  0  0  0  0  0  0999 V2000
    6.1860    0.4630    0.6380 C   0  0  0  0  0  0  0  0  0  0  0  0
    4.8980    0.0450    0.3930 O   0  0  0  0  0  0  0  0  0  0  0  0
    4.6920   -0.4540   -0.8770 C   0  0  1  0  0  0  0  0  0  0  0  0
    4.9940    0.5590   -1.7890 O   0  0  0  0  0  0  0  0  0  0  0  0
    5.4920   -1.5700   -1.1490 O   0  0  0  0  0  0  0  0  0  0  0  0
    3.2060   -0.8140   -0.9680 C   0  0  1  0  0  0  0  0  0  0  0  0
    2.9650   -1.7510   -0.0020 O   0  0  0  0  0  0  0  0  0  0  0  0
    1.7050   -2.1200    0.0880 O   0  0  0  0  0  0  0  0  0  0  0  0
    0.9460   -0.7980    0.9190 P   0  0  0  0  0  0  0  0  0  0  0  0
   -0.7980   -0.7280    0.7050 N   0  0  0  0  0  0  0  0  0  0  0  0
   -1.6080    0.3090    1.2450 C   0  0  0  0  0  0  0  0  0  0  0  0
   -2.6970    0.4600    0.5150 C   0  0  0  0  0  0  0  0  0  0  0  0
   -3.6480    1.4250    0.8540 O   0  0  0  0  0  0  0  0  0  0  0  0
   -3.6800    2.0550    2.1180 C   0  0  2  0  0  0  0  0  0  0  0  0
   -4.2000    3.4770    2.0260 C   0  0  0  0  0  0  0  0  0  0  0  0
   -2.3990    2.1310    2.7200 O   0  0  0  0  0  0  0  0  0  0  0  0
   -1.4360    1.1920    2.4210 C   0  0  0  0  0  0  0  0  0  0  0  0
   -0.4270    1.1110    3.1680 O   0  0  0  0  0  0  0  0  0  0  0  0
   -2.6340   -0.5540   -0.6230 C   0  0  2  0  0  0  0  0  0  0  0  0
   -1.9480    0.1130   -1.7520 C   0  0  0  0  0  0  0  0  0  0  0  0
   -2.5340    0.2410   -2.8030 O   0  0  0  0  0  0  0  0  0  0  0  0
   -3.9050   -0.9560   -0.9390 O   0  0  0  0  0  0  0  0  0  0  0  0
   -3.8940   -1.7930   -1.9300 O   0  0  0  0  0  0  0  0  0  0  0  0
   -5.1310   -2.0990   -2.3760 N   0  0  0  0  0  0  0  0  0  0  0  0
   -1.7500   -1.5950    0.0130 C   0  0  1  0  0  0  0  0  0  0  0  0
   -1.0590   -2.5220   -0.9340 C   0  0  0  0  0  0  0  0  0  0  0  0
   -1.9860   -3.3510   -1.5360 O   0  0  0  0  0  0  0  0  0  0  0  0
    1.8220    0.6850    0.1630 C   0  0  1  0  0  0  0  0  0  0  0  0
    2.5950    1.3090    1.1090 O   0  0  0  0  0  0  0  0  0  0  0  0
    2.0710    2.9060    1.4990 P   0  0  0  0  0  0  0  0  0  0  0  0
    1.7870    3.9090    0.3380 O   0  0  0  0  0  0  0  0  0  0  0  0
    2.4880    0.3110   -0.9740 O   0  0  0  0  0  0  0  0  0  0  0  0
  1  2  1  0
  2  3  1  0
  3  4  1  6
  3  5  1  0
  3  6  1  0
  6  7  1  1
  6 32  1  0
  7  8  1  0
  8  9  1  0
  9 10  1  0
  9 28  1  0
 10 11  1  0
 10 25  1  0
 11 12  2  0
 11 17  1  0
 12 13  1  0
 12 19  1  0
 13 14  1  0
 14 15  1  6
 14 16  1  0
 16 17  1  0
 17 18  2  0
 19 20  1  0
 19 22  1  6
 19 25  1  0
 20 21  2  0
 22 23  1  0
 23 24  1  0
 25 26  1  6
 26 27  1  0
 28 29  1  1
 28 32  1  0
 29 30  1  0
 30 31  2  0
M  END
