
     RDKit          3D

 30 31  0  0  0  0  0  0  0  0999 V2000
   -2.1760    0.7600   -2.8780 C   0  0  0  0  0  0  0  0  0  0  0  0
   -1.5920    0.1730   -1.8070 O   0  0  0  0  0  0  0  0  0  0  0  0
   -1.7170    0.7310   -0.5800 C   0  0  1  0  0  0  0  0  0  0  0  0
   -3.1290    0.8620   -0.1280 C   0  0  0  0  0  0  0  0  0  0  0  0
   -3.7300    1.9150   -0.1140 O   0  0  0  0  0  0  0  0  0  0  0  0
   -3.8800   -0.7340    0.4110 P   0  0  0  0  0  0  0  0  0  0  0  0
   -5.1750   -1.2080   -0.5990 O   0  0  0  0  0  0  0  0  0  0  0  0
   -2.5250   -1.8180    0.3460 O   0  0  0  0  0  0  0  0  0  0  0  0
   -1.5200   -1.1870    1.0780 C   0  0  2  0  0  0  0  0  0  0  0  0
   -0.6320   -2.2060    1.4350 O   0  0  0  0  0  0  0  0  0  0  0  0
   -2.1600   -0.7760    2.3690 C   0  0  0  0  0  0  0  0  0  0  0  0
   -1.8160   -1.4520    3.5990 N   0  0  0  0  0  0  0  0  0  0  0  0
   -2.9960    0.1320    2.4900 O   0  0  0  0  0  0  0  0  0  0  0  0
   -0.8760   -0.0450    0.4050 C   0  0  1  0  0  0  0  0  0  0  0  0
    0.5180   -0.2710   -0.1150 C   0  0  2  0  0  0  0  0  0  0  0  0
    0.6550   -1.2770   -1.2130 C   0  0  0  0  0  0  0  0  0  0  0  0
    0.2190   -2.5440   -0.9470 O   0  0  0  0  0  0  0  0  0  0  0  0
    1.3390   -0.7900    0.9780 O   0  0  0  0  0  0  0  0  0  0  0  0
    2.6770   -1.0960    0.7900 C   0  0  0  0  0  0  0  0  0  0  0  0
    2.9610   -2.3750    0.3360 O   0  0  0  0  0  0  0  0  0  0  0  0
    3.6780   -0.2760    1.0070 C   0  0  0  0  0  0  0  0  0  0  0  0
    3.5220    1.1210    1.4950 C   0  0  0  0  0  0  0  0  0  0  0  0
    4.9660   -0.7160    0.7770 O   0  0  0  0  0  0  0  0  0  0  0  0
    5.6700   -0.1610   -0.2460 N   0  0  0  0  0  0  0  0  0  0  0  0
    1.1910    0.8820   -0.5030 O   0  0  0  0  0  0  0  0  0  0  0  0
    0.7650    2.1410   -0.7490 C   0  0  0  0  0  0  0  0  0  0  0  0
    1.5500    3.0490   -1.0780 O   0  0  0  0  0  0  0  0  0  0  0  0
   -1.0060    2.4400   -0.5750 P   0  0  0  0  0  0  0  0  0  0  0  0
   -1.6940    3.5260   -1.6750 O   0  0  0  0  0  0  0  0  0  0  0  0
   -2.3090    4.4800   -0.9700 O   0  0  0  0  0  0  0  0  0  0  0  0
  1  2  1  0
  3  2  1  6
  3  4  1  0
  3 14  1  0
  3 28  1  0
  4  5  2  0
  4  6  1  0
  6  7  1  0
  6  8  1  0
  8  9  1  0
  9 10  1  1
  9 11  1  0
 14  9  1  6
 11 12  1  0
 11 13  2  0
 14 15  1  0
 15 16  1  6
 15 18  1  0
 15 25  1  0
 16 17  1  0
 18 19  1  0
 19 20  1  0
 19 21  2  3
 21 22  1  0
 21 23  1  0
 23 24  1  0
 25 26  1  0
 26 27  2  0
 26 28  1  0
 28 29  1  0
 29 30  1  0
M  END
