
     RDKit          3D

 32 33  0  0  0  0  0  0  0  0999 V2000
    1.6920    0.6550   -1.4460 C   0  0  0  0  0  0  0  0  0  0  0  0
    1.6450   -0.0710   -0.1360 C   0  0  1  0  0  0  0  0  0  0  0  0
    3.0400    0.1510    0.4920 C   0  0  0  0  0  0  0  0  0  0  0  0
    4.0210   -0.2930   -0.4260 O   0  0  0  0  0  0  0  0  0  0  0  0
    5.5910   -0.0440    0.2730 P   0  0  0  0  0  0  0  0  0  0  0  0
    6.5060   -1.5070    0.2510 O   0  0  0  0  0  0  0  0  0  0  0  0
    6.4170    1.1600   -0.6550 O   0  0  0  0  0  0  0  0  0  0  0  0
    0.7220    0.3700    0.7750 O   0  0  0  0  0  0  0  0  0  0  0  0
    0.2760    1.6580    1.0570 C   0  0  0  0  0  0  0  0  0  0  0  0
    0.2800    2.0190    2.2930 N   0  0  0  0  0  0  0  0  0  0  0  0
   -0.1240    3.2380    2.7100 O   0  0  0  0  0  0  0  0  0  0  0  0
    0.6950    4.3040    2.5390 O   0  0  0  0  0  0  0  0  0  0  0  0
   -0.1840    2.6010    0.0490 C   0  0  0  0  0  0  0  0  0  0  0  0
   -1.1230    2.4300   -0.8620 C   0  0  0  0  0  0  0  0  0  0  0  0
   -1.9670    1.2960   -1.1400 C   0  0  0  0  0  0  0  0  0  0  0  0
   -1.9200    0.7190   -2.2970 O   0  0  0  0  0  0  0  0  0  0  0  0
   -2.9490    0.6500   -0.2360 C   0  0  2  0  0  0  0  0  0  0  0  0
   -3.8440   -0.1900   -0.9520 O   0  0  0  0  0  0  0  0  0  0  0  0
   -4.8280    0.6570   -1.4380 C   0  0  0  0  0  0  0  0  0  0  0  0
   -4.7870    1.7570   -0.6110 O   0  0  0  0  0  0  0  0  0  0  0  0
   -3.8700    1.5540    0.3030 O   0  0  0  0  0  0  0  0  0  0  0  0
   -2.4050   -0.1920    0.8140 C   0  0  0  0  0  0  0  0  0  0  0  0
   -2.3710    0.0820    2.0080 O   0  0  0  0  0  0  0  0  0  0  0  0
   -1.8210   -1.5340    0.4420 C   0  0  2  0  0  0  0  0  0  0  0  0
   -2.4630   -2.5020    1.4400 C   0  0  0  0  0  0  0  0  0  0  0  0
   -2.0050   -3.7850    1.3410 O   0  0  0  0  0  0  0  0  0  0  0  0
   -0.4530   -1.4810    0.6470 O   0  0  0  0  0  0  0  0  0  0  0  0
    0.3210   -1.9930   -0.3590 C   0  0  2  0  0  0  0  0  0  0  0  0
   -0.2790   -1.8740   -1.6790 N   0  0  0  0  0  0  0  0  0  0  0  0
    0.6040   -3.8250    0.0140 P   0  0  0  0  0  0  0  0  0  0  0  0
    1.4900   -4.1200    1.2630 O   0  0  0  0  0  0  0  0  0  0  0  0
    1.5720   -1.4310   -0.3550 O   0  0  0  0  0  0  0  0  0  0  0  0
  2  1  1  6
  2  3  1  0
  2  8  1  0
  2 32  1  0
  3  4  1  0
  4  5  1  0
  5  6  1  0
  5  7  1  0
  8  9  1  0
  9 10  2  3
  9 13  1  0
 10 11  1  0
 11 12  1  0
 13 14  2  0
 14 15  1  0
 15 16  2  0
 15 17  1  0
 17 18  1  6
 17 21  1  0
 17 22  1  0
 18 19  1  0
 19 20  1  0
 20 21  1  0
 22 23  2  0
 22 24  1  0
 24 25  1  1
 24 27  1  0
 25 26  1  0
 27 28  1  0
 28 29  1  6
 28 30  1  0
 28 32  1  0
 30 31  2  0
M  END
