
     RDKit          3D

 32 35  0  0  0  0  0  0  0  0999 V2000
   -3.8870    2.0440   -1.5700 C   0  0  0  0  0  0  0  0  0  0  0  0
   -2.7900    1.7170   -2.3260 O   0  0  0  0  0  0  0  0  0  0  0  0
   -1.8610    0.4090   -1.6840 P   0  0  0  0  0  0  0  0  0  0  0  0
   -1.1370   -0.4230   -3.0020 O   0  0  0  0  0  0  0  0  0  0  0  0
   -0.6590    0.9730   -0.4730 N   0  0  0  0  0  0  0  0  0  0  0  0
    0.0580    2.1890   -0.6910 C   0  0  0  0  0  0  0  0  0  0  0  0
    0.1790    2.6240   -1.8520 O   0  0  0  0  0  0  0  0  0  0  0  0
    0.5740    2.8020    0.4500 O   0  0  0  0  0  0  0  0  0  0  0  0
   -0.1370    2.4600    1.5620 O   0  0  0  0  0  0  0  0  0  0  0  0
   -0.0230    1.1760    1.8480 N   0  0  0  0  0  0  0  0  0  0  0  0
   -0.3590    0.2570    0.7550 C   0  0  2  0  0  0  0  0  0  0  0  0
    0.8430   -0.6100    0.6510 C   0  0  0  0  0  0  0  0  0  0  0  0
    1.9350   -0.2750   -0.2930 C   0  0  0  0  0  0  0  0  0  0  0  0
    1.5810   -0.2290   -1.6130 O   0  0  0  0  0  0  0  0  0  0  0  0
    2.6610    0.0690   -2.3050 O   0  0  0  0  0  0  0  0  0  0  0  0
    3.4740    1.4840   -1.7920 P   0  0  0  0  0  0  0  0  0  0  0  0
    4.8500    1.1820   -0.6000 C   0  0  0  0  0  0  0  0  0  0  0  0
    4.1440    2.3230   -3.1630 O   0  0  0  0  0  0  0  0  0  0  0  0
    0.9340   -1.6860    1.4260 C   0  0  0  0  0  0  0  0  0  0  0  0
    2.4590   -2.7110    1.2330 P   0  0  0  0  0  0  0  0  0  0  0  0
    3.3310   -2.6940    2.7150 O   0  0  0  0  0  0  0  0  0  0  0  0
    2.0750   -4.3370    0.8160 O   0  0  0  0  0  0  0  0  0  0  0  0
   -0.0300   -2.0560    2.3410 O   0  0  0  0  0  0  0  0  0  0  0  0
   -1.1460   -1.2670    2.4610 C   0  0  0  0  0  0  0  0  0  0  0  0
   -1.8140   -1.1710    3.5210 O   0  0  0  0  0  0  0  0  0  0  0  0
   -1.5490   -0.5120    1.2600 C   0  0  1  0  0  0  0  0  0  0  0  0
   -2.6800    0.4480    1.5470 C   0  0  0  0  0  0  0  0  0  0  0  0
   -3.8360   -0.1380    1.1110 O   0  0  0  0  0  0  0  0  0  0  0  0
   -3.5610   -1.2200    0.3230 C   0  0  2  0  0  0  0  0  0  0  0  0
   -3.1100   -2.3350    1.0940 O   0  0  0  0  0  0  0  0  0  0  0  0
   -2.1910   -1.4420    0.2960 C   0  0  2  0  0  0  0  0  0  0  0  0
   -1.4540   -2.2830   -0.5180 O   0  0  0  0  0  0  0  0  0  0  0  0
  1  2  1  0
  2  3  1  0
  3  4  1  0
  3  5  1  0
  5  6  1  0
  5 11  1  0
  6  7  2  0
  6  8  1  0
  8  9  1  0
  9 10  1  0
 11 10  1  1
 11 12  1  0
 11 26  1  0
 12 13  1  0
 12 19  2  0
 13 14  1  0
 14 15  1  0
 15 16  1  0
 16 17  1  0
 16 18  1  0
 19 20  1  0
 19 23  1  0
 20 21  1  0
 20 22  1  0
 23 24  1  0
 24 25  2  0
 24 26  1  0
 26 27  1  1
 26 31  1  0
 27 28  1  0
 29 28  1  1
 29 30  1  0
 29 31  1  0
 30 31  1  0
 31 32  1  6
M  END
