
     RDKit          3D

 32 34  0  0  0  0  0  0  0  0999 V2000
   -5.3270    1.3000    1.0630 C   0  0  0  0  0  0  0  0  0  0  0  0
   -3.9820    1.5180    1.7220 C   0  0  1  0  0  0  0  0  0  0  0  0
   -3.8520    2.8990    1.9400 O   0  0  0  0  0  0  0  0  0  0  0  0
   -4.0140    0.8800    2.9530 O   0  0  0  0  0  0  0  0  0  0  0  0
   -3.0140    1.0420    0.8720 O   0  0  0  0  0  0  0  0  0  0  0  0
   -1.7920    1.1780    1.3410 O   0  0  0  0  0  0  0  0  0  0  0  0
   -1.1570   -0.0230    1.2020 C   0  0  1  0  0  0  0  0  0  0  0  0
   -1.0630   -0.5040   -0.2410 C   0  0  0  0  0  0  0  0  0  0  0  0
   -2.4700   -0.7540   -0.5330 N   0  0  0  0  0  0  0  0  0  0  0  0
   -3.0220   -0.3840   -1.7860 C   0  0  0  0  0  0  0  0  0  0  0  0
   -2.5980   -0.7100   -2.9750 C   0  0  0  0  0  0  0  0  0  0  0  0
   -1.4490   -1.5430   -3.3720 C   0  0  0  0  0  0  0  0  0  0  0  0
   -1.6480   -2.2960   -4.4430 O   0  0  0  0  0  0  0  0  0  0  0  0
   -0.2570   -1.6370   -2.8020 O   0  0  0  0  0  0  0  0  0  0  0  0
    1.3490   -1.0270   -2.8920 P   0  0  0  0  0  0  0  0  0  0  0  0
    2.2750   -1.9490   -1.6720 O   0  0  0  0  0  0  0  0  0  0  0  0
    2.4100   -1.4310   -0.3540 C   0  0  0  0  0  0  0  0  0  0  0  0
    1.9720   -0.2390   -0.1370 C   0  0  0  0  0  0  0  0  0  0  0  0
    1.2870    0.2970    0.9410 O   0  0  0  0  0  0  0  0  0  0  0  0
    0.2420   -0.0500    1.6890 C   0  0  0  0  0  0  0  0  0  0  0  0
    0.3970   -0.4260    2.8790 O   0  0  0  0  0  0  0  0  0  0  0  0
    2.2330    0.7920   -1.2280 C   0  0  1  0  0  0  0  0  0  0  0  0
    1.9500    2.0910   -0.7810 O   0  0  0  0  0  0  0  0  0  0  0  0
    4.0600    0.8540   -1.6580 P   0  0  0  0  0  0  0  0  0  0  0  0
    4.7800   -0.5640   -1.0140 O   0  0  0  0  0  0  0  0  0  0  0  0
    5.3520   -0.3580    0.2370 C   0  0  0  0  0  0  0  0  0  0  0  0
    6.3510    0.5970    0.2320 O   0  0  0  0  0  0  0  0  0  0  0  0
    6.8180    0.6990    1.4960 N   0  0  0  0  0  0  0  0  0  0  0  0
    1.5040    0.6090   -2.3630 O   0  0  0  0  0  0  0  0  0  0  0  0
   -2.9240   -1.3500    0.6330 O   0  0  0  0  0  0  0  0  0  0  0  0
   -2.0210   -1.1140    1.6910 C   0  0  0  0  0  0  0  0  0  0  0  0
   -1.9470   -1.6860    2.8040 O   0  0  0  0  0  0  0  0  0  0  0  0
  2  1  1  6
  2  3  1  0
  2  4  1  0
  2  5  1  0
  5  6  1  0
  7  6  1  6
  7  8  1  0
  7 20  1  0
  7 31  1  0
  8  9  1  0
  9 10  1  0
  9 30  1  0
 10 11  2  0
 11 12  1  0
 12 13  2  0
 12 14  1  0
 14 15  1  0
 15 16  1  0
 15 29  1  0
 16 17  1  0
 17 18  2  0
 18 19  1  0
 18 22  1  0
 19 20  1  0
 20 21  2  0
 22 23  1  1
 22 24  1  0
 22 29  1  0
 24 25  1  0
 25 26  1  0
 26 27  1  0
 27 28  1  0
 30 31  1  0
 31 32  2  0
M  END
