
     RDKit          3D

 29 31  0  0  0  0  0  0  0  0999 V2000
   -4.5390    2.8750   -0.2530 N   0  0  0  0  0  0  0  0  0  0  0  0
   -4.1460    1.9350    0.6050 O   0  0  0  0  0  0  0  0  0  0  0  0
   -3.1470    1.1040    0.0580 C   0  0  2  0  0  0  0  0  0  0  0  0
   -2.0810    1.9460   -0.2500 O   0  0  0  0  0  0  0  0  0  0  0  0
   -1.3440    2.0690    0.8970 C   0  0  2  0  0  0  0  0  0  0  0  0
   -0.6410    3.2360    1.0440 O   0  0  0  0  0  0  0  0  0  0  0  0
    0.5670    2.9560    1.4120 O   0  0  0  0  0  0  0  0  0  0  0  0
    0.6330    1.7160    1.8090 O   0  0  0  0  0  0  0  0  0  0  0  0
   -0.1760    1.0760    0.8370 C   0  0  2  0  0  0  0  0  0  0  0  0
    0.7130    1.2820   -0.7750 P   0  0  0  0  0  0  0  0  0  0  0  0
    2.2280    0.7180   -1.0620 C   0  0  0  0  0  0  0  0  0  0  0  0
    2.8000    0.9210   -2.2880 O   0  0  0  0  0  0  0  0  0  0  0  0
    2.9280    0.0040    0.0200 C   0  0  0  0  0  0  0  0  0  0  0  0
    2.4050   -0.1770    1.1290 O   0  0  0  0  0  0  0  0  0  0  0  0
    4.1980   -0.4730   -0.2100 O   0  0  0  0  0  0  0  0  0  0  0  0
    4.9530   -1.1670    0.7550 C   0  0  0  0  0  0  0  0  0  0  0  0
    6.2680   -1.5350    0.1790 C   0  0  0  0  0  0  0  0  0  0  0  0
    6.5830   -1.1750   -1.1610 N   0  0  0  0  0  0  0  0  0  0  0  0
    7.1060   -2.1670    0.8800 O   0  0  0  0  0  0  0  0  0  0  0  0
   -0.5090   -0.1910    1.1500 O   0  0  0  0  0  0  0  0  0  0  0  0
   -1.7630   -0.6410    0.7990 C   0  0  2  0  0  0  0  0  0  0  0  0
   -2.0220   -1.8260    1.7070 C   0  0  0  0  0  0  0  0  0  0  0  0
   -3.1280   -2.4490    1.6020 O   0  0  0  0  0  0  0  0  0  0  0  0
   -1.1210   -2.2670    2.6440 O   0  0  0  0  0  0  0  0  0  0  0  0
   -1.6640   -1.2320   -0.5790 C   0  0  0  0  0  0  0  0  0  0  0  0
   -2.9950   -1.5250   -1.2210 C   0  0  0  0  0  0  0  0  0  0  0  0
   -3.7850    0.1750   -1.4080 P   0  0  0  0  0  0  0  0  0  0  0  0
   -5.5020   -0.0110   -1.2210 O   0  0  0  0  0  0  0  0  0  0  0  0
   -2.7790    0.2220    1.0190 O   0  0  0  0  0  0  0  0  0  0  0  0
  1  2  1  0
  3  2  1  1
  3  4  1  0
  3 27  1  0
  3 29  1  0
  5  4  1  6
  5  6  1  0
  5  9  1  0
  6  7  1  0
  7  8  1  0
  8  9  1  0
  9 10  1  6
  9 20  1  0
 10 11  2  3
 11 12  1  0
 11 13  1  0
 13 14  2  0
 13 15  1  0
 15 16  1  0
 16 17  1  0
 17 18  1  0
 17 19  2  0
 20 21  1  0
 21 22  1  1
 21 25  1  0
 21 29  1  0
 22 23  2  0
 22 24  1  0
 25 26  1  0
 26 27  1  0
 27 28  1  0
M  END
