
     RDKit          3D

 33 37  0  0  0  0  0  0  0  0999 V2000
    5.6760   -2.8810    0.1450 C   0  0  0  0  0  0  0  0  0  0  0  0
    5.1520   -1.6080   -0.4210 C   0  0  0  0  0  0  0  0  0  0  0  0
    3.6980   -1.4060   -0.0410 C   0  0  2  0  0  0  0  0  0  0  0  0
    2.8160   -2.5330   -0.5550 C   0  0  0  0  0  0  0  0  0  0  0  0
    2.0840   -3.1160    0.5960 C   0  0  0  0  0  0  0  0  0  0  0  0
    0.8170   -3.0530    0.8700 C   0  0  0  0  0  0  0  0  0  0  0  0
   -0.2630   -2.3650    0.0890 C   0  0  0  0  0  0  0  0  0  0  0  0
   -0.6520   -1.1930    0.8730 C   0  0  0  0  0  0  0  0  0  0  0  0
   -1.5920   -0.1570    0.4170 C   0  0  2  0  0  0  0  0  0  0  0  0
   -2.0660    0.4550    1.6170 O   0  0  0  0  0  0  0  0  0  0  0  0
   -2.9460   -0.7280   -0.0110 C   0  0  2  0  0  0  0  0  0  0  0  0
   -2.9550   -1.6660   -1.1330 C   0  0  0  0  0  0  0  0  0  0  0  0
   -4.0880    0.2380    0.0920 C   0  0  0  0  0  0  0  0  0  0  0  0
   -5.3910   -0.3410    0.6390 C   0  0  0  0  0  0  0  0  0  0  0  0
   -5.6150   -1.7790    0.2640 C   0  0  0  0  0  0  0  0  0  0  0  0
   -4.5000   -2.4860    0.9810 C   0  0  0  0  0  0  0  0  0  0  0  0
   -3.3030   -1.6210    1.2220 C   0  0  0  0  0  0  0  0  0  0  0  0
   -1.0160    0.9990   -0.3460 C   0  0  1  0  0  0  0  0  0  0  0  0
   -1.4070    0.8430   -1.8490 C   0  0  0  0  0  0  0  0  0  0  0  0
   -1.6890    2.3340   -0.0230 C   0  0  0  0  0  0  0  0  0  0  0  0
   -0.9290    3.5390   -0.4070 C   0  0  0  0  0  0  0  0  0  0  0  0
    0.1670    3.4340   -1.3970 C   0  0  0  0  0  0  0  0  0  0  0  0
    0.7250    2.0870   -1.6460 C   0  0  0  0  0  0  0  0  0  0  0  0
    0.4410    1.1160   -0.4740 C   0  0  1  0  0  0  0  0  0  0  0  0
    1.4350    1.4990    0.5360 C   0  0  2  0  0  0  0  0  0  0  0  0
    1.0550    1.9470    1.9570 C   0  0  0  0  0  0  0  0  0  0  0  0
    1.6270    3.3020    2.1540 C   0  0  0  0  0  0  0  0  0  0  0  0
    1.1510    4.2730    2.6980 O   0  0  0  0  0  0  0  0  0  0  0  0
    2.9410    3.1820    1.5160 C   0  0  2  0  0  0  0  0  0  0  0  0
    3.4490    4.4110    1.1500 O   0  0  0  0  0  0  0  0  0  0  0  0
    2.6070    2.2930    0.3210 C   0  0  1  0  0  0  0  0  0  0  0  0
    2.7290    0.7820    0.5280 C   0  0  2  0  0  0  0  0  0  0  0  0
    3.2080   -0.0400   -0.5620 C   0  0  0  0  0  0  0  0  0  0  0  0
  1  2  1  0
  3  2  1  6
  3  4  1  0
  3 33  1  0
  4  5  1  0
  5  6  2  0
  6  7  1  0
  7  8  1  0
  8  9  1  0
  9 10  1  1
  9 11  1  0
  9 18  1  0
 11 12  1  6
 11 13  1  0
 11 17  1  0
 13 14  1  0
 14 15  1  0
 15 16  1  0
 16 17  1  0
 18 19  1  6
 18 20  1  0
 18 24  1  0
 20 21  1  0
 21 22  1  0
 22 23  1  0
 24 23  1  6
 24 25  1  0
 25 26  1  1
 25 31  1  0
 25 32  1  0
 26 27  1  0
 27 28  2  0
 27 29  1  0
 29 30  1  6
 31 29  1  1
 31 32  1  0
 32 33  1  6
M  END
