
     RDKit          3D

 33 33  0  0  0  0  0  0  0  0999 V2000
   -5.4500   -1.2140    2.1670 C   0  0  0  0  0  0  0  0  0  0  0  0
   -4.2700   -0.4450    1.6990 C   0  0  0  0  0  0  0  0  0  0  0  0
   -3.9640    0.6030    2.3330 O   0  0  0  0  0  0  0  0  0  0  0  0
   -3.5130   -0.8750    0.5770 N   0  0  0  0  0  0  0  0  0  0  0  0
   -2.3650   -0.1220    0.1300 C   0  0  0  0  0  0  0  0  0  0  0  0
   -1.1000   -0.5960    0.8160 C   0  0  0  0  0  0  0  0  0  0  0  0
    0.1060    0.1770    0.3470 C   0  0  0  0  0  0  0  0  0  0  0  0
   -0.0060    1.6460    0.6220 C   0  0  0  0  0  0  0  0  0  0  0  0
    1.1910    2.4240    0.1550 C   0  0  2  0  0  0  0  0  0  0  0  0
    2.4310    2.0270    0.7610 N   0  0  0  0  0  0  0  0  0  0  0  0
    3.5210    1.5970   -0.0310 C   0  0  0  0  0  0  0  0  0  0  0  0
    3.3630    1.5770   -1.2570 O   0  0  0  0  0  0  0  0  0  0  0  0
    4.7760    1.1890    0.5050 N   0  0  0  0  0  0  0  0  0  0  0  0
    5.9190    0.7720   -0.1820 C   0  0  1  0  0  0  0  0  0  0  0  0
    6.0870   -0.6970   -0.3490 C   0  0  0  0  0  0  0  0  0  0  0  0
    6.1870   -1.5550    0.8400 C   0  0  0  0  0  0  0  0  0  0  0  0
    5.0040   -1.6500    1.6890 C   0  0  0  0  0  0  0  0  0  0  0  0
    3.8930   -1.2090    1.3410 O   0  0  0  0  0  0  0  0  0  0  0  0
    5.1070   -2.2590    2.9540 O   0  0  0  0  0  0  0  0  0  0  0  0
    6.2470    1.5050   -1.4420 C   0  0  0  0  0  0  0  0  0  0  0  0
    5.6030    2.4790   -1.8070 O   0  0  0  0  0  0  0  0  0  0  0  0
    7.3040    1.0530   -2.1980 O   0  0  0  0  0  0  0  0  0  0  0  0
    0.8950    3.8600    0.3990 C   0  0  0  0  0  0  0  0  0  0  0  0
    1.6930    4.5410    1.0650 O   0  0  0  0  0  0  0  0  0  0  0  0
   -0.2500    4.4420   -0.1050 O   0  0  0  0  0  0  0  0  0  0  0  0
   -3.9130   -2.0760   -0.1070 C   0  0  0  0  0  0  0  0  0  0  0  0
   -4.8900   -1.7500   -1.2050 C   0  0  0  0  0  0  0  0  0  0  0  0
   -5.4620   -2.7360   -1.9620 C   0  0  0  0  0  0  0  0  0  0  0  0
   -6.3540   -2.4470   -2.9650 C   0  0  0  0  0  0  0  0  0  0  0  0
   -6.6710   -1.1190   -3.2040 C   0  0  0  0  0  0  0  0  0  0  0  0
   -7.8940   -0.6360   -4.5730 Br  0  0  0  0  0  0  0  0  0  0  0  0
   -6.1020   -0.1230   -2.4500 C   0  0  0  0  0  0  0  0  0  0  0  0
   -5.2140   -0.4440   -1.4550 C   0  0  0  0  0  0  0  0  0  0  0  0
  1  2  1  0
  2  3  2  0
  2  4  1  0
  4  5  1  0
  4 26  1  0
  5  6  1  0
  6  7  1  0
  7  8  1  0
  9  8  1  1
  9 10  1  0
  9 23  1  0
 10 11  1  0
 11 12  2  0
 11 13  1  0
 13 14  1  0
 14 15  1  6
 14 20  1  0
 15 16  1  0
 16 17  1  0
 17 18  2  0
 17 19  1  0
 20 21  2  0
 20 22  1  0
 23 24  2  0
 23 25  1  0
 26 27  1  0
 27 28  2  0
 27 33  1  0
 28 29  1  0
 29 30  2  0
 30 31  1  0
 30 32  1  0
 32 33  2  0
M  END
