
     RDKit          3D

 33 35  0  0  0  0  0  0  0  0999 V2000
   -7.9270   -0.4840    0.3190 C   0  0  0  0  0  0  0  0  0  0  0  0
   -6.9460   -1.6030    0.6070 C   0  0  0  0  0  0  0  0  0  0  0  0
   -5.7300   -1.0510    1.2520 C   0  0  0  0  0  0  0  0  0  0  0  0
   -4.5270   -1.1710    0.7110 C   0  0  0  0  0  0  0  0  0  0  0  0
   -3.2250   -0.6470    1.2840 C   0  0  0  0  0  0  0  0  0  0  0  0
   -2.3340   -1.8190    0.9380 C   0  0  2  0  0  0  0  0  0  0  0  0
   -0.9110   -1.6280    1.1080 C   0  0  0  0  0  0  0  0  0  0  0  0
   -0.2980   -2.6180    1.7140 O   0  0  0  0  0  0  0  0  0  0  0  0
   -0.1310   -0.5360    0.7050 N   0  0  0  0  0  0  0  0  0  0  0  0
    1.3330   -0.6480    0.9120 C   0  0  0  0  0  0  0  0  0  0  0  0
    1.9340   -1.2730   -0.3530 C   0  0  0  0  0  0  0  0  0  0  0  0
    3.3860   -1.3770   -0.1330 C   0  0  0  0  0  0  0  0  0  0  0  0
    4.2550   -0.3680   -0.4860 C   0  0  0  0  0  0  0  0  0  0  0  0
    5.6220   -0.4920   -0.2690 C   0  0  0  0  0  0  0  0  0  0  0  0
    6.1650   -1.6210    0.3060 C   0  0  0  0  0  0  0  0  0  0  0  0
    7.6120   -1.7480    0.5330 C   0  0  0  0  0  0  0  0  0  0  0  0
    8.1090   -2.7740    1.0560 O   0  0  0  0  0  0  0  0  0  0  0  0
    8.4140   -0.7000    0.1520 O   0  0  0  0  0  0  0  0  0  0  0  0
    9.8200   -0.7060    0.3180 C   0  0  0  0  0  0  0  0  0  0  0  0
    5.2820   -2.6260    0.6560 C   0  0  0  0  0  0  0  0  0  0  0  0
    3.9230   -2.5100    0.4420 C   0  0  0  0  0  0  0  0  0  0  0  0
   -0.5590    0.6510    0.1220 C   0  0  0  0  0  0  0  0  0  0  0  0
   -0.8650    0.7490   -1.2040 C   0  0  0  0  0  0  0  0  0  0  0  0
   -1.2760    1.9690   -1.7480 C   0  0  0  0  0  0  0  0  0  0  0  0
   -1.3790    3.0940   -0.9540 C   0  0  0  0  0  0  0  0  0  0  0  0
   -1.8100    4.4100   -1.4790 C   0  0  0  0  0  0  0  0  0  0  0  0
   -0.6310    5.2300   -1.9600 C   0  0  0  0  0  0  0  0  0  0  0  0
    0.3510    5.4930   -0.8530 C   0  0  0  0  0  0  0  0  0  0  0  0
   -1.0710    2.9930    0.3750 C   0  0  0  0  0  0  0  0  0  0  0  0
   -0.6690    1.7910    0.9020 C   0  0  0  0  0  0  0  0  0  0  0  0
   -2.8020   -2.2240   -0.4390 C   0  0  1  0  0  0  0  0  0  0  0  0
   -2.8760   -3.7570   -0.4770 C   0  0  0  0  0  0  0  0  0  0  0  0
   -4.1690   -1.7830   -0.4770 O   0  0  0  0  0  0  0  0  0  0  0  0
  1  2  1  0
  2  3  1  0
  3  4  2  3
  4  5  1  0
  4 33  1  0
  5  6  1  0
  6  7  1  6
  6 31  1  0
  7  8  2  0
  7  9  1  0
  9 10  1  0
  9 22  1  0
 10 11  1  0
 11 12  1  0
 12 13  2  0
 12 21  1  0
 13 14  1  0
 14 15  2  0
 15 16  1  0
 15 20  1  0
 16 17  2  0
 16 18  1  0
 18 19  1  0
 20 21  2  0
 22 23  2  0
 22 30  1  0
 23 24  1  0
 24 25  2  0
 25 26  1  0
 25 29  1  0
 26 27  1  0
 27 28  1  0
 29 30  2  0
 31 32  1  1
 31 33  1  0
M  END
