
     RDKit          3D

 33 35  0  0  0  0  0  0  0  0999 V2000
   -1.4640    4.9730   -2.2890 C   0  0  0  0  0  0  0  0  0  0  0  0
   -0.9180    3.8110   -1.4410 C   0  0  0  0  0  0  0  0  0  0  0  0
    0.4780    3.6010   -1.8700 C   0  0  0  0  0  0  0  0  0  0  0  0
    1.1700    2.5190   -1.1020 C   0  0  0  0  0  0  0  0  0  0  0  0
    2.1050    2.9480   -0.1500 C   0  0  0  0  0  0  0  0  0  0  0  0
    2.8720    2.0400    0.5210 C   0  0  0  0  0  0  0  0  0  0  0  0
    2.7800    0.6790    0.3110 C   0  0  0  0  0  0  0  0  0  0  0  0
    3.6190   -0.2560    1.0620 C   0  0  0  0  0  0  0  0  0  0  0  0
    4.0090    0.1130    2.2100 O   0  0  0  0  0  0  0  0  0  0  0  0
    4.0270   -1.5480    0.5950 C   0  0  0  0  0  0  0  0  0  0  0  0
    4.1780   -1.7830   -0.7490 C   0  0  0  0  0  0  0  0  0  0  0  0
    4.5900   -3.0400   -1.2010 C   0  0  0  0  0  0  0  0  0  0  0  0
    4.8480   -4.0590   -0.2940 C   0  0  0  0  0  0  0  0  0  0  0  0
    4.6960   -3.8220    1.0440 C   0  0  0  0  0  0  0  0  0  0  0  0
    4.2910   -2.5800    1.4670 C   0  0  0  0  0  0  0  0  0  0  0  0
    4.1260   -2.3440    2.9450 C   0  0  0  0  0  0  0  0  0  0  0  0
    1.8630    0.2820   -0.6170 C   0  0  0  0  0  0  0  0  0  0  0  0
    1.0490    1.1890   -1.3310 C   0  0  0  0  0  0  0  0  0  0  0  0
    0.0130    0.5920   -2.2190 C   0  0  0  0  0  0  0  0  0  0  0  0
   -0.9780   -0.2820   -1.5950 C   0  0  0  0  0  0  0  0  0  0  0  0
   -1.9180   -0.0470   -0.6370 N   0  0  0  0  0  0  0  0  0  0  0  0
   -3.0650    0.7130   -0.9340 C   0  0  0  0  0  0  0  0  0  0  0  0
   -3.4660    1.6610    0.1360 C   0  0  0  0  0  0  0  0  0  0  0  0
   -2.4100    2.1210    0.8770 O   0  0  0  0  0  0  0  0  0  0  0  0
   -2.1280    1.3480    1.9890 C   0  0  0  0  0  0  0  0  0  0  0  0
   -1.2010    0.1920    1.6260 C   0  0  0  0  0  0  0  0  0  0  0  0
   -1.8430   -0.7140    0.6020 C   0  0  2  0  0  0  0  0  0  0  0  0
   -0.9780   -1.9840    0.6020 C   0  0  0  0  0  0  0  0  0  0  0  0
   -1.4580   -3.0400   -0.3240 C   0  0  0  0  0  0  0  0  0  0  0  0
   -3.1300   -1.1930    1.1580 C   0  0  0  0  0  0  0  0  0  0  0  0
   -3.1450   -1.4710    2.4160 O   0  0  0  0  0  0  0  0  0  0  0  0
   -4.3130   -1.3870    0.5050 O   0  0  0  0  0  0  0  0  0  0  0  0
   -5.4500   -1.8600    1.1980 C   0  0  0  0  0  0  0  0  0  0  0  0
  1  2  1  0
  2  3  1  0
  3  4  1  0
  4  5  2  0
  4 18  1  0
  5  6  1  0
  6  7  2  0
  7  8  1  0
  7 17  1  0
  8  9  2  0
  8 10  1  0
 10 11  2  0
 10 15  1  0
 11 12  1  0
 12 13  2  0
 13 14  1  0
 14 15  2  0
 15 16  1  0
 17 18  2  0
 18 19  1  0
 19 20  1  0
 20 21  1  0
 21 22  1  0
 21 27  1  0
 22 23  1  0
 23 24  1  0
 24 25  1  0
 25 26  1  0
 26 27  1  0
 27 28  1  6
 27 30  1  0
 28 29  1  0
 30 31  2  0
 30 32  1  0
 32 33  1  0
M  END
