
     RDKit          3D

 33 36  0  0  0  0  0  0  0  0999 V2000
    4.5970    0.3600   -1.9850 C   0  0  0  0  0  0  0  0  0  0  0  0
    4.0310    0.2970   -0.8290 C   0  0  0  0  0  0  0  0  0  0  0  0
    2.9940    1.2380   -0.3730 C   0  0  0  0  0  0  0  0  0  0  0  0
    3.1900    2.5070   -0.5900 C   0  0  0  0  0  0  0  0  0  0  0  0
    2.2950    3.6150   -0.2210 C   0  0  0  0  0  0  0  0  0  0  0  0
    1.7320    0.6780    0.3040 C   0  0  1  0  0  0  0  0  0  0  0  0
    0.8020    0.3310   -0.7280 C   0  0  2  0  0  0  0  0  0  0  0  0
    0.6440    1.6300   -1.3780 O   0  0  0  0  0  0  0  0  0  0  0  0
   -0.5850   -0.2310   -0.7170 C   0  0  1  0  0  0  0  0  0  0  0  0
   -1.5090    0.6640    0.0370 C   0  0  1  0  0  0  0  0  0  0  0  0
   -1.2010    0.8070    1.5130 C   0  0  0  0  0  0  0  0  0  0  0  0
   -1.1140    2.1850    2.1140 C   0  0  2  0  0  0  0  0  0  0  0  0
   -1.0510    1.8950    3.6450 C   0  0  0  0  0  0  0  0  0  0  0  0
   -2.3950    2.9530    1.9660 C   0  0  0  0  0  0  0  0  0  0  0  0
   -3.0610    2.2500    0.8000 C   0  0  0  0  0  0  0  0  0  0  0  0
   -1.9900    1.9610   -0.3260 C   0  0  2  0  0  0  0  0  0  0  0  0
   -2.7310    2.4110   -1.5050 C   0  0  0  0  0  0  0  0  0  0  0  0
   -1.0990    3.0510   -0.0970 O   0  0  0  0  0  0  0  0  0  0  0  0
   -0.8740    0.0190   -2.2240 C   0  0  0  0  0  0  0  0  0  0  0  0
   -2.0810   -0.3600   -2.8810 C   0  0  0  0  0  0  0  0  0  0  0  0
   -2.8920   -1.3880   -2.1260 C   0  0  0  0  0  0  0  0  0  0  0  0
   -1.8410   -2.2300   -1.6440 C   0  0  0  0  0  0  0  0  0  0  0  0
   -0.8250   -1.7030   -0.6040 C   0  0  1  0  0  0  0  0  0  0  0  0
    0.4000   -2.5220   -0.9960 C   0  0  0  0  0  0  0  0  0  0  0  0
    0.6380   -3.7960   -0.2860 C   0  0  0  0  0  0  0  0  0  0  0  0
    0.7060   -3.8150    1.1960 C   0  0  0  0  0  0  0  0  0  0  0  0
   -0.3180   -2.8520    1.6430 C   0  0  0  0  0  0  0  0  0  0  0  0
   -1.3000   -2.4240    0.5950 C   0  0  1  0  0  0  0  0  0  0  0  0
   -2.6870   -2.3820    1.0690 C   0  0  0  0  0  0  0  0  0  0  0  0
    2.3240   -0.3550    1.2190 C   0  0  0  0  0  0  0  0  0  0  0  0
    3.8200   -0.2220    1.4570 C   0  0  0  0  0  0  0  0  0  0  0  0
    4.4320   -0.7800    0.1490 C   0  0  1  0  0  0  0  0  0  0  0  0
    3.8750   -1.9980   -0.1960 O   0  0  0  0  0  0  0  0  0  0  0  0
  1  2  2  0
  2  3  1  0
  2 32  1  0
  3  4  2  3
  3  6  1  0
  4  5  1  0
  6  7  1  0
  6 30  1  6
  7  8  1  1
  7  9  1  0
  9 10  1  0
  9 19  1  6
  9 23  1  0
 10 11  1  1
 10 16  1  0
 11 12  1  0
 12 13  1  1
 12 14  1  0
 14 15  1  0
 15 16  1  0
 16 17  1  6
 16 18  1  0
 19 20  1  0
 20 21  1  0
 21 22  1  0
 23 22  1  6
 23 24  1  0
 23 28  1  0
 24 25  1  0
 25 26  1  0
 26 27  1  0
 27 28  1  0
 28 29  1  1
 30 31  1  0
 31 32  1  0
 32 33  1  6
M  END
