
     RDKit          3D

 33 37  0  0  0  0  0  0  0  0999 V2000
   -7.0390    0.9900    1.5690 C   0  0  0  0  0  0  0  0  0  0  0  0
   -6.3690   -0.1640    0.9180 C   0  0  0  0  0  0  0  0  0  0  0  0
   -5.1890    0.0650    0.0600 C   0  0  2  0  0  0  0  0  0  0  0  0
   -3.9710    0.6650    0.6370 C   0  0  2  0  0  0  0  0  0  0  0  0
   -3.5720   -0.2070    1.6780 O   0  0  0  0  0  0  0  0  0  0  0  0
   -4.0490    1.9810    1.3170 C   0  0  0  0  0  0  0  0  0  0  0  0
   -3.6920    3.0300    0.2820 C   0  0  0  0  0  0  0  0  0  0  0  0
   -2.6790    2.3640   -0.5610 C   0  0  0  0  0  0  0  0  0  0  0  0
   -2.8520    0.8860   -0.3390 C   0  0  1  0  0  0  0  0  0  0  0  0
   -1.5150    0.3750    0.0810 C   0  0  2  0  0  0  0  0  0  0  0  0
   -0.5640    0.7170   -1.0840 C   0  0  0  0  0  0  0  0  0  0  0  0
    0.7970    0.7960   -0.4980 C   0  0  0  0  0  0  0  0  0  0  0  0
    1.0900   -0.4470    0.2580 C   0  0  2  0  0  0  0  0  0  0  0  0
    1.3420   -0.2230    1.7360 C   0  0  0  0  0  0  0  0  0  0  0  0
    2.2570    0.9270    1.9970 C   0  0  0  0  0  0  0  0  0  0  0  0
    3.3860    0.9080    0.9960 C   0  0  0  0  0  0  0  0  0  0  0  0
    3.5990   -0.4790    0.4580 C   0  0  2  0  0  0  0  0  0  0  0  0
    4.7870   -0.5230   -0.4590 C   0  0  2  0  0  0  0  0  0  0  0  0
    4.9640   -1.9320   -0.9730 C   0  0  0  0  0  0  0  0  0  0  0  0
    6.4210   -2.2430   -1.2640 C   0  0  0  0  0  0  0  0  0  0  0  0
    6.9870   -1.0750   -1.7640 O   0  0  0  0  0  0  0  0  0  0  0  0
    7.2300   -0.2380   -0.6840 C   0  0  1  0  0  0  0  0  0  0  0  0
    8.3490   -0.7990    0.1670 C   0  0  0  0  0  0  0  0  0  0  0  0
    7.7350    1.0830   -1.2630 C   0  0  0  0  0  0  0  0  0  0  0  0
    6.0350   -0.0330    0.1970 C   0  0  0  0  0  0  0  0  0  0  0  0
    2.4110   -1.0010   -0.2990 C   0  0  0  0  0  0  0  0  0  0  0  0
    0.0810   -1.5330    0.1280 C   0  0  2  0  0  0  0  0  0  0  0  0
    0.2930   -2.1880   -1.0940 O   0  0  0  0  0  0  0  0  0  0  0  0
   -1.3530   -1.0740    0.2940 C   0  0  0  0  0  0  0  0  0  0  0  0
   -5.6820    0.7230   -1.2160 C   0  0  0  0  0  0  0  0  0  0  0  0
   -6.6220   -0.3070   -1.8060 C   0  0  0  0  0  0  0  0  0  0  0  0
   -6.1360   -1.6410   -1.3700 C   0  0  0  0  0  0  0  0  0  0  0  0
   -4.8570   -1.3030   -0.5930 C   0  0  0  0  0  0  0  0  0  0  0  0
  1  2  1  0
  3  2  1  1
  3  4  1  0
  3 30  1  0
  3 33  1  0
  4  5  1  1
  4  6  1  0
  4  9  1  0
  6  7  1  0
  7  8  1  0
  9  8  1  1
  9 10  1  0
 10 11  1  6
 10 29  1  0
 11 12  1  0
 13 12  1  6
 13 14  1  0
 13 26  1  0
 13 27  1  0
 14 15  1  0
 15 16  1  0
 17 16  1  6
 17 18  1  0
 17 26  1  0
 18 19  1  1
 18 25  1  0
 19 20  1  0
 20 21  1  0
 21 22  1  0
 22 23  1  1
 22 24  1  0
 22 25  1  0
 27 28  1  6
 27 29  1  0
 30 31  1  0
 31 32  1  0
 32 33  1  0
M  END
