
     RDKit          3D

 33 36  0  0  0  0  0  0  0  0999 V2000
   -1.2550   -4.9080   -2.3940 C   0  0  0  0  0  0  0  0  0  0  0  0
   -2.0820   -3.6870   -2.7360 C   0  0  0  0  0  0  0  0  0  0  0  0
   -1.6520   -2.5740   -1.7980 C   0  0  1  0  0  0  0  0  0  0  0  0
   -0.2080   -2.2600   -1.9570 C   0  0  0  0  0  0  0  0  0  0  0  0
    0.3800   -1.3490   -0.9390 C   0  0  0  0  0  0  0  0  0  0  0  0
    1.7510   -0.8700   -1.3950 C   0  0  0  0  0  0  0  0  0  0  0  0
    2.3040    0.1310   -0.3620 C   0  0  1  0  0  0  0  0  0  0  0  0
    3.6960    0.2820   -0.5750 O   0  0  0  0  0  0  0  0  0  0  0  0
    4.4500   -0.2490    0.4390 C   0  0  1  0  0  0  0  0  0  0  0  0
    5.2880   -1.3790   -0.1510 C   0  0  0  0  0  0  0  0  0  0  0  0
    6.5820   -1.5520    0.6530 C   0  0  0  0  0  0  0  0  0  0  0  0
    7.4650   -0.3390    0.5530 C   0  0  0  0  0  0  0  0  0  0  0  0
    6.6350    0.8290    0.0990 C   0  0  0  0  0  0  0  0  0  0  0  0
    5.3670    0.8360    0.9590 C   0  0  0  0  0  0  0  0  0  0  0  0
    1.6840    1.4470   -0.5340 C   0  0  0  0  0  0  0  0  0  0  0  0
    1.2580    2.1790    0.7450 C   0  0  2  0  0  0  0  0  0  0  0  0
    1.0720    1.2090    1.8130 C   0  0  0  0  0  0  0  0  0  0  0  0
    0.1950    3.0960    0.3170 C   0  0  0  0  0  0  0  0  0  0  0  0
   -0.6980    3.7850    1.2400 C   0  0  2  0  0  0  0  0  0  0  0  0
   -0.1950    3.9640    2.6660 C   0  0  0  0  0  0  0  0  0  0  0  0
   -2.1550    3.3650    1.2230 C   0  0  0  0  0  0  0  0  0  0  0  0
   -2.4200    1.9220    1.1270 C   0  0  0  0  0  0  0  0  0  0  0  0
   -3.5750    1.5480    0.2480 C   0  0  2  0  0  0  0  0  0  0  0  0
   -4.7910    2.3920    0.4150 C   0  0  0  0  0  0  0  0  0  0  0  0
   -5.9450    1.4690    0.0880 C   0  0  0  0  0  0  0  0  0  0  0  0
   -5.3360    0.0740   -0.1090 C   0  0  0  0  0  0  0  0  0  0  0  0
   -4.0820    0.1940    0.7040 C   0  0  1  0  0  0  0  0  0  0  0  0
   -3.1340   -0.9160    0.6080 C   0  0  0  0  0  0  0  0  0  0  0  0
   -3.2540   -1.8440   -0.5500 C   0  0  1  0  0  0  0  0  0  0  0  0
   -2.5660   -1.3690   -1.8110 C   0  0  2  0  0  0  0  0  0  0  0  0
   -3.4750   -1.4630   -2.8920 O   0  0  0  0  0  0  0  0  0  0  0  0
   -2.1110   -2.8620   -0.4090 C   0  0  1  0  0  0  0  0  0  0  0  0
   -2.6590   -4.1510   -0.2250 O   0  0  0  0  0  0  0  0  0  0  0  0
  1  2  1  0
  3  2  1  6
  3  4  1  0
  3 30  1  0
  3 32  1  0
  4  5  1  0
  5  6  1  0
  6  7  1  0
  7  8  1  6
  7 15  1  0
  9  8  1  6
  9 10  1  0
  9 14  1  0
 10 11  1  0
 11 12  1  0
 12 13  1  0
 13 14  1  0
 15 16  1  0
 16 17  1  1
 16 18  1  0
 18 19  1  0
 19 20  1  1
 19 21  1  0
 21 22  1  0
 23 22  1  1
 23 24  1  0
 23 27  1  0
 24 25  1  0
 25 26  1  0
 27 26  1  6
 27 28  1  0
 29 28  1  1
 29 30  1  0
 29 32  1  0
 30 31  1  6
 32 33  1  6
M  END
