
     RDKit          3D

 33 35  0  0  0  0  0  0  0  0999 V2000
    5.8930    1.2470    2.5510 C   0  0  0  0  0  0  0  0  0  0  0  0
    6.5820    1.3830    1.4630 C   0  0  0  0  0  0  0  0  0  0  0  0
    6.0450    1.1990    0.1450 C   0  0  0  0  0  0  0  0  0  0  0  0
    6.7970    1.3140   -0.9330 C   0  0  0  0  0  0  0  0  0  0  0  0
    4.6060    0.9510   -0.0830 C   0  0  0  0  0  0  0  0  0  0  0  0
    3.6860    1.7220    0.6090 C   0  0  0  0  0  0  0  0  0  0  0  0
    2.3110    1.5580    0.4080 C   0  0  0  0  0  0  0  0  0  0  0  0
    1.9130    0.6070   -0.5040 C   0  0  0  0  0  0  0  0  0  0  0  0
    0.4600    0.4590   -0.7660 C   0  0  1  0  0  0  0  0  0  0  0  0
   -0.0940   -0.7330   -0.0790 C   0  0  0  0  0  0  0  0  0  0  0  0
    0.8530   -1.6630    0.6170 C   0  0  0  0  0  0  0  0  0  0  0  0
   -1.3880   -0.9100   -0.1280 C   0  0  0  0  0  0  0  0  0  0  0  0
   -2.1010   -2.0510    0.4710 C   0  0  0  0  0  0  0  0  0  0  0  0
   -1.4640   -3.1170    1.2370 C   0  0  0  0  0  0  0  0  0  0  0  0
   -2.5100   -4.1150    1.6300 N   0  0  0  0  0  0  0  0  0  0  0  0
   -3.3290   -4.1190    2.8150 C   0  0  0  0  0  0  0  0  0  0  0  0
   -4.6250   -4.6740    2.2270 C   0  0  0  0  0  0  0  0  0  0  0  0
   -4.1280   -5.7340    1.4350 O   0  0  0  0  0  0  0  0  0  0  0  0
   -2.9100   -5.2510    0.9020 C   0  0  0  0  0  0  0  0  0  0  0  0
   -2.2830   -5.7490   -0.0680 O   0  0  0  0  0  0  0  0  0  0  0  0
   -2.3030    0.2060   -0.5800 C   0  0  0  0  0  0  0  0  0  0  0  0
   -3.7520   -0.0370   -0.7000 C   0  0  0  0  0  0  0  0  0  0  0  0
   -1.7860    1.3710   -0.8920 C   0  0  0  0  0  0  0  0  0  0  0  0
   -2.6790    2.4670   -1.3500 C   0  0  0  0  0  0  0  0  0  0  0  0
   -2.1750    3.5690   -1.6280 O   0  0  0  0  0  0  0  0  0  0  0  0
   -4.0450    2.3180   -1.4760 O   0  0  0  0  0  0  0  0  0  0  0  0
   -4.8800    3.3650   -1.8940 C   0  0  0  0  0  0  0  0  0  0  0  0
   -4.7790    4.5080   -0.8990 C   0  0  0  0  0  0  0  0  0  0  0  0
   -0.3500    1.6420   -0.6280 C   0  0  2  0  0  0  0  0  0  0  0  0
    0.1040    2.8130   -1.4570 C   0  0  0  0  0  0  0  0  0  0  0  0
    2.8070   -0.1610   -1.1930 C   0  0  0  0  0  0  0  0  0  0  0  0
    4.1770    0.0060   -0.9860 C   0  0  0  0  0  0  0  0  0  0  0  0
    5.0970   -0.8810   -1.7460 C   0  0  0  0  0  0  0  0  0  0  0  0
  1  2  2  0
  2  3  1  0
  3  4  2  0
  3  5  1  0
  5  6  2  0
  5 32  1  0
  6  7  1  0
  7  8  2  0
  9  8  1  1
  8 31  1  0
  9 10  1  0
  9 29  1  0
 10 11  1  0
 10 12  2  0
 12 13  1  0
 12 21  1  0
 13 14  1  0
 14 15  1  0
 15 16  1  0
 15 19  1  0
 16 17  1  0
 17 18  1  0
 18 19  1  0
 19 20  2  0
 21 22  1  0
 21 23  2  0
 23 24  1  0
 23 29  1  0
 24 25  2  0
 24 26  1  0
 26 27  1  0
 27 28  1  0
 29 30  1  6
 31 32  2  0
 32 33  1  0
M  END
