
     RDKit          3D

 24 23  0  0  0  0  0  0  0  0999 V2000
    5.2260    1.7860   -1.4310 O   0  0  0  0  0  0  0  0  0  0  0  0
    5.4260    2.2950   -0.3000 C   0  0  0  0  0  0  0  0  0  0  0  0
    5.7590    1.4810    0.8120 N   0  0  0  0  0  0  0  0  0  0  0  0
    5.8860    0.0400    0.7140 C   0  0  0  0  0  0  0  0  0  0  0  0
    4.5730   -0.5980    0.2500 C   0  0  0  0  0  0  0  0  0  0  0  0
    3.4920   -0.2920    1.2070 C   0  0  0  0  0  0  0  0  0  0  0  0
    2.1560   -0.8250    0.9420 C   0  0  0  0  0  0  0  0  0  0  0  0
    1.3990   -0.3660   -0.2610 C   0  0  2  0  0  0  0  0  0  0  0  0
    0.1050   -1.1060   -0.2030 N   0  0  0  0  0  0  0  0  0  0  0  0
   -1.0780   -0.3600   -0.0040 C   0  0  0  0  0  0  0  0  0  0  0  0
   -1.1300    0.8820    0.1300 O   0  0  0  0  0  0  0  0  0  0  0  0
   -2.2980   -1.0750    0.0480 N   0  0  0  0  0  0  0  0  0  0  0  0
   -3.5590   -0.3680    0.2520 C   0  0  1  0  0  0  0  0  0  0  0  0
   -4.4870   -0.5590   -0.8880 C   0  0  0  0  0  0  0  0  0  0  0  0
   -5.7880    0.1490   -0.7280 C   0  0  0  0  0  0  0  0  0  0  0  0
   -5.6890    1.6140   -0.5730 C   0  0  0  0  0  0  0  0  0  0  0  0
   -4.6650    2.3050   -0.5790 O   0  0  0  0  0  0  0  0  0  0  0  0
   -6.8950    2.2940   -0.3990 O   0  0  0  0  0  0  0  0  0  0  0  0
   -4.1110   -0.8710    1.5150 C   0  0  0  0  0  0  0  0  0  0  0  0
   -3.5330   -1.7810    2.1460 O   0  0  0  0  0  0  0  0  0  0  0  0
   -5.2730   -0.3430    2.0250 O   0  0  0  0  0  0  0  0  0  0  0  0
    1.9680   -0.7120   -1.5640 C   0  0  0  0  0  0  0  0  0  0  0  0
    1.9470   -1.9030   -1.9720 O   0  0  0  0  0  0  0  0  0  0  0  0
    2.5290    0.3020   -2.3590 O   0  0  0  0  0  0  0  0  0  0  0  0
  1  2  2  0
  2  3  1  0
  3  4  1  0
  4  5  1  0
  5  6  1  0
  6  7  1  0
  8  7  1  1
  8  9  1  0
  8 22  1  0
  9 10  1  0
 10 11  2  0
 10 12  1  0
 12 13  1  0
 13 14  1  6
 13 19  1  0
 14 15  1  0
 15 16  1  0
 16 17  2  0
 16 18  1  0
 19 20  2  0
 19 21  1  0
 22 23  2  0
 22 24  1  0
M  END
