
     RDKit          3D

 24 24  0  0  0  0  0  0  0  0999 V2000
    8.7780    0.9610   -0.1340 N   0  0  0  0  0  0  0  0  0  0  0  0
    7.3560    0.8330   -0.1910 C   0  0  0  0  0  0  0  0  0  0  0  0
    6.7110    1.5010   -1.0580 O   0  0  0  0  0  0  0  0  0  0  0  0
    6.6490    0.0190    0.6490 O   0  0  0  0  0  0  0  0  0  0  0  0
    5.2550   -0.1550    0.6550 C   0  0  0  0  0  0  0  0  0  0  0  0
    4.5510    1.1280    0.9480 C   0  0  0  0  0  0  0  0  0  0  0  0
    3.1430    0.9880    0.9610 O   0  0  0  0  0  0  0  0  0  0  0  0
    2.3860    0.5680   -0.0950 C   0  0  0  0  0  0  0  0  0  0  0  0
    2.9500    0.2750   -1.1770 O   0  0  0  0  0  0  0  0  0  0  0  0
    0.9200    0.4660    0.0530 C   0  0  2  0  0  0  0  0  0  0  0  0
    0.6470   -0.5070    1.1770 C   0  0  0  0  0  0  0  0  0  0  0  0
    0.2630   -1.7500    0.4200 C   0  0  0  0  0  0  0  0  0  0  0  0
   -0.1220   -1.2630   -0.9440 C   0  0  1  0  0  0  0  0  0  0  0  0
   -1.6570   -1.3440   -1.0090 C   0  0  0  0  0  0  0  0  0  0  0  0
   -2.1380   -0.5530    0.0700 N   0  0  0  0  0  0  0  0  0  0  0  0
   -3.5620   -0.4810    0.2220 C   0  0  1  0  0  0  0  0  0  0  0  0
   -4.1080    0.1600   -0.8790 O   0  0  0  0  0  0  0  0  0  0  0  0
   -4.6920    1.3680   -0.6480 C   0  0  0  0  0  0  0  0  0  0  0  0
   -5.8630    1.3270    0.2990 C   0  0  0  0  0  0  0  0  0  0  0  0
   -6.4120    2.6040    0.4850 O   0  0  0  0  0  0  0  0  0  0  0  0
   -4.2190   -1.7450    0.5080 C   0  0  0  0  0  0  0  0  0  0  0  0
   -5.6220   -1.7850    0.6690 N   0  0  0  0  0  0  0  0  0  0  0  0
   -3.5770   -2.8110    0.6180 O   0  0  0  0  0  0  0  0  0  0  0  0
    0.2720    0.0380   -1.0710 O   0  0  0  0  0  0  0  0  0  0  0  0
  1  2  1  0
  2  3  2  0
  2  4  1  0
  4  5  1  0
  5  6  1  0
  6  7  1  0
  7  8  1  0
  8  9  2  0
 10  8  1  6
 10 11  1  0
 10 24  1  0
 11 12  1  0
 12 13  1  0
 13 14  1  1
 13 24  1  0
 14 15  1  0
 16 15  1  6
 16 17  1  0
 16 21  1  0
 17 18  1  0
 18 19  1  0
 19 20  1  0
 21 22  1  0
 21 23  2  0
M  END
