
     RDKit          3D

 24 23  0  0  0  0  0  0  0  0999 V2000
   -6.4910   -0.3690    0.0900 C   0  0  0  0  0  0  0  0  0  0  0  0
   -5.0440   -0.0060    0.5330 C   0  0  1  0  0  0  0  0  0  0  0  0
   -5.0440    0.8040    1.5790 O   0  0  0  0  0  0  0  0  0  0  0  0
   -4.4950   -1.4170    0.9160 C   0  0  0  0  0  0  0  0  0  0  0  0
   -4.6640   -2.2070   -0.2690 O   0  0  0  0  0  0  0  0  0  0  0  0
   -4.2920    0.4350   -0.6520 C   0  0  0  0  0  0  0  0  0  0  0  0
   -2.9710    0.9970   -0.6470 C   0  0  0  0  0  0  0  0  0  0  0  0
   -1.7590    0.4860    0.0080 C   0  0  1  0  0  0  0  0  0  0  0  0
   -0.7020    1.3850   -0.5320 O   0  0  0  0  0  0  0  0  0  0  0  0
    0.3080    0.5980   -1.0520 C   0  0  0  0  0  0  0  0  0  0  0  0
    0.9910   -0.2150    0.0180 C   0  0  0  0  0  0  0  0  0  0  0  0
    2.0040   -1.0020   -0.5440 O   0  0  0  0  0  0  0  0  0  0  0  0
    3.1060   -0.4810   -1.1790 C   0  0  0  0  0  0  0  0  0  0  0  0
    3.2580    0.7580   -1.2820 O   0  0  0  0  0  0  0  0  0  0  0  0
    4.1450   -1.3840   -1.7610 C   0  0  0  0  0  0  0  0  0  0  0  0
    5.2000   -0.7610   -2.3390 O   0  0  0  0  0  0  0  0  0  0  0  0
    5.9870    0.0470   -1.5740 C   0  0  0  0  0  0  0  0  0  0  0  0
    6.6610   -0.6020   -0.4340 C   0  0  0  0  0  0  0  0  0  0  0  0
    6.5120   -1.8160   -0.2260 O   0  0  0  0  0  0  0  0  0  0  0  0
    7.4790    0.1660    0.4220 N   0  0  0  0  0  0  0  0  0  0  0  0
    8.1180   -0.4680    1.5090 N   0  0  0  0  0  0  0  0  0  0  0  0
   -1.6110    0.8060    1.4660 C   0  0  0  0  0  0  0  0  0  0  0  0
   -2.1900    0.2070    2.5750 N   0  0  0  0  0  0  0  0  0  0  0  0
   -0.8230    1.7850    1.7540 O   0  0  0  0  0  0  0  0  0  0  0  0
  2  1  1  6
  2  3  1  0
  2  4  1  0
  2  6  1  0
  4  5  1  0
  6  7  1  0
  8  7  1  6
  8  9  1  0
  8 22  1  0
  9 10  1  0
 10 11  1  0
 11 12  1  0
 12 13  1  0
 13 14  2  0
 13 15  1  0
 15 16  1  0
 16 17  1  0
 17 18  1  0
 18 19  2  0
 18 20  1  0
 20 21  1  0
 22 23  1  0
 22 24  2  0
M  END
