
     RDKit          3D

 26 28  0  0  0  0  0  0  0  0999 V2000
   -4.4210   -0.8600   -0.9190 C   0  0  0  0  0  0  0  0  0  0  0  0
   -3.1470   -0.4800   -0.4530 N   0  0  0  0  0  0  0  0  0  0  0  0
   -3.0380    0.7360    0.3990 C   0  0  0  0  0  0  0  0  0  0  0  0
   -1.5830    1.2030    0.1630 C   0  0  0  0  0  0  0  0  0  0  0  0
   -0.6670    0.3550    0.6730 C   0  0  0  0  0  0  0  0  0  0  0  0
   -0.8660   -0.9810    0.1570 C   0  0  0  0  0  0  0  0  0  0  0  0
   -1.9070   -1.1140   -0.7010 N   0  0  0  0  0  0  0  0  0  0  0  0
   -0.1580   -2.2680    0.2970 C   0  0  0  0  0  0  0  0  0  0  0  0
    0.2140   -2.8310   -1.0920 C   0  0  0  0  0  0  0  0  0  0  0  0
    1.5950   -3.3550   -1.0780 C   0  0  0  0  0  0  0  0  0  0  0  0
    1.7490   -4.4240   -1.7750 O   0  0  0  0  0  0  0  0  0  0  0  0
    2.6930   -2.7870   -0.3890 N   0  0  0  0  0  0  0  0  0  0  0  0
    2.8700   -1.5050    0.2320 C   0  0  0  0  0  0  0  0  0  0  0  0
    2.5310   -0.2320   -0.1730 C   0  0  0  0  0  0  0  0  0  0  0  0
    2.7760    0.7970    0.7070 C   0  0  0  0  0  0  0  0  0  0  0  0
    3.3460    0.5410    1.9400 N   0  0  0  0  0  0  0  0  0  0  0  0
    3.6980   -0.6680    2.3820 C   0  0  0  0  0  0  0  0  0  0  0  0
    4.2170   -0.8550    3.5140 O   0  0  0  0  0  0  0  0  0  0  0  0
    3.4540   -1.6940    1.5130 C   0  0  0  0  0  0  0  0  0  0  0  0
    2.4730    2.2450    0.6070 C   0  0  0  0  0  0  0  0  0  0  0  0
    3.2900    3.0800    1.2630 O   0  0  0  0  0  0  0  0  0  0  0  0
    1.4930    2.9330   -0.0370 O   0  0  0  0  0  0  0  0  0  0  0  0
    0.8800    3.0300   -1.2300 C   0  0  0  0  0  0  0  0  0  0  0  0
   -0.4130    2.7890   -1.4750 C   0  0  0  0  0  0  0  0  0  0  0  0
   -1.4510    2.3840   -0.6170 N   0  0  0  0  0  0  0  0  0  0  0  0
   -2.6410    3.2970   -0.5550 C   0  0  0  0  0  0  0  0  0  0  0  0
  1  2  1  0
  2  3  1  0
  2  7  1  0
  3  4  1  0
  4  5  2  0
  4 25  1  0
  5  6  1  0
  6  7  2  0
  6  8  1  0
  8  9  1  0
  9 10  1  0
 10 11  2  0
 10 12  1  0
 12 13  1  0
 13 14  1  0
 13 19  2  0
 14 15  2  0
 15 16  1  0
 15 20  1  0
 16 17  1  0
 17 18  2  0
 17 19  1  0
 20 21  2  0
 20 22  1  0
 22 23  1  0
 23 24  2  0
 24 25  1  0
 25 26  1  0
M  END
