
     RDKit          3D

 23 22  0  0  0  0  0  0  0  0999 V2000
    6.9930    1.3680    1.8620 C   0  0  0  0  0  0  0  0  0  0  0  0
    6.1410    1.4680    0.6070 C   0  0  0  0  0  0  0  0  0  0  0  0
    5.4230    0.2520    0.5080 O   0  0  0  0  0  0  0  0  0  0  0  0
    4.5350    0.0110   -0.5450 C   0  0  0  0  0  0  0  0  0  0  0  0
    4.4410    0.9620   -1.3750 O   0  0  0  0  0  0  0  0  0  0  0  0
    3.8110   -1.1950   -0.6600 N   0  0  0  0  0  0  0  0  0  0  0  0
    2.9090   -1.3910   -1.7610 C   0  0  0  0  0  0  0  0  0  0  0  0
    1.8370   -0.3320   -1.7050 C   0  0  0  0  0  0  0  0  0  0  0  0
    1.0940   -0.3530   -0.5350 O   0  0  0  0  0  0  0  0  0  0  0  0
    0.4320   -1.5470   -0.3370 C   0  0  0  0  0  0  0  0  0  0  0  0
   -0.3890   -1.5360    0.9380 C   0  0  0  0  0  0  0  0  0  0  0  0
   -1.3530   -0.5620    0.9620 O   0  0  0  0  0  0  0  0  0  0  0  0
   -2.2890   -0.6810   -0.0760 C   0  0  0  0  0  0  0  0  0  0  0  0
   -3.2920    0.4230    0.0420 C   0  0  1  0  0  0  0  0  0  0  0  0
   -4.0330    0.3820    1.3620 C   0  0  0  0  0  0  0  0  0  0  0  0
   -4.9650    1.4100    1.4390 O   0  0  0  0  0  0  0  0  0  0  0  0
   -2.5830    1.7500   -0.0020 C   0  0  0  0  0  0  0  0  0  0  0  0
   -1.5320    2.0700    0.8700 N   0  0  0  0  0  0  0  0  0  0  0  0
   -2.9370    2.5990   -0.8390 O   0  0  0  0  0  0  0  0  0  0  0  0
   -4.2510    0.3750   -1.0880 C   0  0  1  0  0  0  0  0  0  0  0  0
   -3.5450    0.5230   -2.2870 O   0  0  0  0  0  0  0  0  0  0  0  0
   -5.0780   -0.8590   -1.2140 C   0  0  0  0  0  0  0  0  0  0  0  0
   -5.8740   -1.1790   -0.1540 O   0  0  0  0  0  0  0  0  0  0  0  0
  1  2  1  0
  2  3  1  0
  3  4  1  0
  4  5  2  0
  4  6  1  0
  6  7  1  0
  7  8  1  0
  8  9  1  0
  9 10  1  0
 10 11  1  0
 11 12  1  0
 12 13  1  0
 14 13  1  6
 14 15  1  0
 14 17  1  0
 14 20  1  0
 15 16  1  0
 17 18  1  0
 17 19  2  0
 20 21  1  6
 20 22  1  0
 22 23  1  0
M  END
