
     RDKit          3D

 23 22  0  0  0  0  0  0  0  0999 V2000
    7.0520   -0.5810   -0.3550 C   0  0  0  0  0  0  0  0  0  0  0  0
    6.0540    0.1240    0.1390 C   0  0  0  0  0  0  0  0  0  0  0  0
    6.2810    1.5050    0.6410 C   0  0  0  0  0  0  0  0  0  0  0  0
    5.9410    1.6000    2.0000 O   0  0  0  0  0  0  0  0  0  0  0  0
    4.7960   -0.4570    0.1760 O   0  0  0  0  0  0  0  0  0  0  0  0
    3.6520    0.1430   -0.3750 C   0  0  0  0  0  0  0  0  0  0  0  0
    2.4190   -0.7130   -0.1910 C   0  0  2  0  0  0  0  0  0  0  0  0
    2.2160   -0.8970    1.1700 O   0  0  0  0  0  0  0  0  0  0  0  0
    2.5740   -2.0640   -0.8520 C   0  0  0  0  0  0  0  0  0  0  0  0
    3.6340   -2.7960   -0.3650 O   0  0  0  0  0  0  0  0  0  0  0  0
    1.2160   -0.0820   -0.7690 C   0  0  0  0  0  0  0  0  0  0  0  0
    1.1020    0.2170   -1.9860 O   0  0  0  0  0  0  0  0  0  0  0  0
    0.1140    0.2110    0.0780 N   0  0  0  0  0  0  0  0  0  0  0  0
   -1.0310    0.8080   -0.4590 N   0  0  0  0  0  0  0  0  0  0  0  0
   -1.8670    1.5640    0.3820 C   0  0  0  0  0  0  0  0  0  0  0  0
   -1.5350    1.6830    1.5980 O   0  0  0  0  0  0  0  0  0  0  0  0
   -3.0910    2.2180   -0.0860 C   0  0  0  0  0  0  0  0  0  0  0  0
   -3.4860    1.7270   -1.2950 O   0  0  0  0  0  0  0  0  0  0  0  0
   -3.9110    0.4300   -1.2430 C   0  0  0  0  0  0  0  0  0  0  0  0
   -5.1690    0.3390   -0.3920 C   0  0  0  0  0  0  0  0  0  0  0  0
   -5.5140   -1.0370   -0.4210 O   0  0  0  0  0  0  0  0  0  0  0  0
   -6.6550   -1.1870    0.3280 C   0  0  0  0  0  0  0  0  0  0  0  0
   -6.5100   -0.7650    1.7590 C   0  0  0  0  0  0  0  0  0  0  0  0
  1  2  2  0
  2  3  1  0
  2  5  1  0
  3  4  1  0
  5  6  1  0
  6  7  1  0
  7  8  1  1
  7  9  1  0
  7 11  1  0
  9 10  1  0
 11 12  2  0
 11 13  1  0
 13 14  1  0
 14 15  1  0
 15 16  2  0
 15 17  1  0
 17 18  1  0
 18 19  1  0
 19 20  1  0
 20 21  1  0
 21 22  1  0
 22 23  1  0
M  END
