
     RDKit          3D

 23 22  0  0  0  0  0  0  0  0999 V2000
   -0.4560   -2.2740   -2.5880 C   0  0  0  0  0  0  0  0  0  0  0  0
   -1.3020   -2.4830   -1.5510 C   0  0  0  0  0  0  0  0  0  0  0  0
   -1.5890   -3.7910   -1.2650 O   0  0  0  0  0  0  0  0  0  0  0  0
   -1.7970   -1.3150   -0.8750 C   0  0  0  0  0  0  0  0  0  0  0  0
   -2.6140   -1.3460    0.1370 C   0  0  0  0  0  0  0  0  0  0  0  0
   -3.2130   -2.4980    0.8190 C   0  0  0  0  0  0  0  0  0  0  0  0
   -2.8250   -2.4890    2.1690 O   0  0  0  0  0  0  0  0  0  0  0  0
   -1.4100   -0.0260   -1.2880 O   0  0  0  0  0  0  0  0  0  0  0  0
   -0.2690    0.6310   -0.7280 C   0  0  2  0  0  0  0  0  0  0  0  0
   -0.3970    0.8000    0.6220 O   0  0  0  0  0  0  0  0  0  0  0  0
    0.4530    0.0720    1.4250 C   0  0  0  0  0  0  0  0  0  0  0  0
    1.8970    0.3620    1.2340 C   0  0  0  0  0  0  0  0  0  0  0  0
    2.7410   -0.3960    2.0680 O   0  0  0  0  0  0  0  0  0  0  0  0
    2.8270   -1.7640    2.0850 C   0  0  0  0  0  0  0  0  0  0  0  0
    3.7660   -2.4740    3.0210 C   0  0  0  0  0  0  0  0  0  0  0  0
    2.0970   -2.4120    1.2920 O   0  0  0  0  0  0  0  0  0  0  0  0
   -0.1620    1.8890   -1.4940 C   0  0  0  0  0  0  0  0  0  0  0  0
   -0.9710    2.2100   -2.4240 O   0  0  0  0  0  0  0  0  0  0  0  0
    0.8810    2.7960   -1.1970 N   0  0  0  0  0  0  0  0  0  0  0  0
    0.9640    4.0360   -1.9690 C   0  0  0  0  0  0  0  0  0  0  0  0
   -0.2600    4.8350   -1.7960 C   0  0  0  0  0  0  0  0  0  0  0  0
   -1.3420    4.4220   -0.9820 N   0  0  0  0  0  0  0  0  0  0  0  0
   -0.3680    5.9550   -2.4010 O   0  0  0  0  0  0  0  0  0  0  0  0
  1  2  2  0
  2  3  1  0
  2  4  1  0
  4  5  2  3
  4  8  1  0
  5  6  1  0
  6  7  1  0
  9  8  1  6
  9 10  1  0
  9 17  1  0
 10 11  1  0
 11 12  1  0
 12 13  1  0
 13 14  1  0
 14 15  1  0
 14 16  2  0
 17 18  2  0
 17 19  1  0
 19 20  1  0
 20 21  1  0
 21 22  1  0
 21 23  2  0
M  END
