
     RDKit          3D

 24 23  0  0  0  0  0  0  0  0999 V2000
    7.5680   -1.1130    1.7900 C   0  0  0  0  0  0  0  0  0  0  0  0
    7.3250    0.2790    1.7330 O   0  0  0  0  0  0  0  0  0  0  0  0
    7.7080    0.6900    0.4860 C   0  0  0  0  0  0  0  0  0  0  0  0
    7.0050    0.1230   -0.5130 O   0  0  0  0  0  0  0  0  0  0  0  0
    5.6790    0.3100   -0.6440 C   0  0  0  0  0  0  0  0  0  0  0  0
    4.8400   -0.1140    0.4860 C   0  0  0  0  0  0  0  0  0  0  0  0
    3.4200    0.1200    0.2710 N   0  0  0  0  0  0  0  0  0  0  0  0
    2.6590   -0.4430   -0.7730 C   0  0  0  0  0  0  0  0  0  0  0  0
    3.2070   -1.1970   -1.5850 O   0  0  0  0  0  0  0  0  0  0  0  0
    1.3040   -0.1890   -0.9360 O   0  0  0  0  0  0  0  0  0  0  0  0
    0.6070   -0.8040   -2.0250 C   0  0  0  0  0  0  0  0  0  0  0  0
   -0.8300   -0.3970   -2.0100 C   0  0  0  0  0  0  0  0  0  0  0  0
   -1.5740   -0.8570   -2.9040 O   0  0  0  0  0  0  0  0  0  0  0  0
   -1.2970    0.4800   -1.0050 N   0  0  0  0  0  0  0  0  0  0  0  0
   -2.6850    0.8790   -0.9730 C   0  0  0  0  0  0  0  0  0  0  0  0
   -3.5470   -0.3370   -0.7830 C   0  0  0  0  0  0  0  0  0  0  0  0
   -4.8670    0.0260   -0.7490 O   0  0  0  0  0  0  0  0  0  0  0  0
   -5.1840    0.8520    0.2910 C   0  0  1  0  0  0  0  0  0  0  0  0
   -5.8020    2.1600   -0.2090 C   0  0  0  0  0  0  0  0  0  0  0  0
   -6.9680    1.9250   -0.9310 O   0  0  0  0  0  0  0  0  0  0  0  0
   -6.2110    0.1050    1.1480 C   0  0  0  0  0  0  0  0  0  0  0  0
   -5.5900   -1.1670    1.6350 C   0  0  0  0  0  0  0  0  0  0  0  0
   -5.9070   -2.3990    1.0330 N   0  0  0  0  0  0  0  0  0  0  0  0
   -4.7860   -1.1340    2.5820 O   0  0  0  0  0  0  0  0  0  0  0  0
  1  2  1  0
  2  3  1  0
  3  4  1  0
  4  5  1  0
  5  6  1  0
  6  7  1  0
  7  8  1  0
  8  9  2  0
  8 10  1  0
 10 11  1  0
 11 12  1  0
 12 13  2  0
 12 14  1  0
 14 15  1  0
 15 16  1  0
 16 17  1  0
 17 18  1  0
 18 19  1  6
 18 21  1  0
 19 20  1  0
 21 22  1  0
 22 23  1  0
 22 24  2  0
M  END
