
     RDKit          3D

 23 22  0  0  0  0  0  0  0  0999 V2000
   -7.3800    2.5880   -1.7750 N   0  0  0  0  0  0  0  0  0  0  0  0
   -6.3410    2.2410   -0.8680 C   0  0  0  0  0  0  0  0  0  0  0  0
   -5.7200    3.1640   -0.2910 O   0  0  0  0  0  0  0  0  0  0  0  0
   -6.0020    0.8210   -0.6130 C   0  0  0  0  0  0  0  0  0  0  0  0
   -4.9420    0.7870    0.3220 O   0  0  0  0  0  0  0  0  0  0  0  0
   -4.3730   -0.3750    0.7870 C   0  0  0  0  0  0  0  0  0  0  0  0
   -4.8370   -1.4520    0.3440 O   0  0  0  0  0  0  0  0  0  0  0  0
   -3.2620   -0.4060    1.7680 C   0  0  0  0  0  0  0  0  0  0  0  0
   -2.8040   -1.6320    2.1070 O   0  0  0  0  0  0  0  0  0  0  0  0
   -2.3020   -2.4600    1.1680 C   0  0  0  0  0  0  0  0  0  0  0  0
   -1.0940   -1.9390    0.3990 C   0  0  1  0  0  0  0  0  0  0  0  0
   -1.4680   -0.8000   -0.2690 O   0  0  0  0  0  0  0  0  0  0  0  0
    0.0640   -1.7760    1.3360 C   0  0  0  0  0  0  0  0  0  0  0  0
    1.2900   -1.3530    0.7580 N   0  0  0  0  0  0  0  0  0  0  0  0
    1.5540   -0.1430    0.0740 C   0  0  0  0  0  0  0  0  0  0  0  0
    0.6110    0.6730   -0.0460 O   0  0  0  0  0  0  0  0  0  0  0  0
    2.8600    0.1960   -0.4920 C   0  0  0  0  0  0  0  0  0  0  0  0
    3.9100   -0.5940   -0.4180 C   0  0  0  0  0  0  0  0  0  0  0  0
    5.1870   -0.1230   -1.0410 C   0  0  1  0  0  0  0  0  0  0  0  0
    4.8220    0.4650   -2.2720 O   0  0  0  0  0  0  0  0  0  0  0  0
    5.7340    0.9640   -0.1580 C   0  0  0  0  0  0  0  0  0  0  0  0
    7.0270    1.5330   -0.6710 C   0  0  0  0  0  0  0  0  0  0  0  0
    6.8670    2.0840   -1.9370 O   0  0  0  0  0  0  0  0  0  0  0  0
  1  2  1  0
  2  3  2  0
  2  4  1  0
  4  5  1  0
  5  6  1  0
  6  7  2  0
  6  8  1  0
  8  9  1  0
  9 10  1  0
 10 11  1  0
 11 12  1  1
 11 13  1  0
 13 14  1  0
 14 15  1  0
 15 16  2  0
 15 17  1  0
 17 18  2  3
 18 19  1  0
 19 20  1  6
 19 21  1  0
 21 22  1  0
 22 23  1  0
M  END
