
     RDKit          3D

 31 33  0  0  0  0  0  0  0  0999 V2000
    0.2060   -0.2890   -2.6430 C   0  0  0  0  0  0  0  0  0  0  0  0
    0.2960    0.1570   -1.1980 C   0  0  1  0  0  0  0  0  0  0  0  0
   -0.2220   -0.9060   -0.3040 C   0  0  0  0  0  0  0  0  0  0  0  0
   -1.6420   -1.2510   -0.7440 C   0  0  0  0  0  0  0  0  0  0  0  0
   -2.4710   -1.6670    0.4170 C   0  0  0  0  0  0  0  0  0  0  0  0
   -3.8040   -0.9750    0.5020 C   0  0  0  0  0  0  0  0  0  0  0  0
   -4.8300   -1.7070    0.8300 C   0  0  0  0  0  0  0  0  0  0  0  0
   -6.2450   -1.4380    1.0190 C   0  0  0  0  0  0  0  0  0  0  0  0
   -6.7270   -0.1870    0.8440 O   0  0  0  0  0  0  0  0  0  0  0  0
   -3.9180    0.4700    0.2250 C   0  0  1  0  0  0  0  0  0  0  0  0
   -4.7620    0.7510   -0.8980 N   0  0  0  0  0  0  0  0  0  0  0  0
   -4.3710    1.3090    1.3980 C   0  0  0  0  0  0  0  0  0  0  0  0
   -3.2290    2.2040    1.8820 C   0  0  0  0  0  0  0  0  0  0  0  0
   -2.7950    3.1950    0.8350 C   0  0  0  0  0  0  0  0  0  0  0  0
   -1.4800    3.5840    1.0580 O   0  0  0  0  0  0  0  0  0  0  0  0
   -0.3520    3.2910    0.3410 C   0  0  0  0  0  0  0  0  0  0  0  0
    0.3570    4.2060   -0.2030 O   0  0  0  0  0  0  0  0  0  0  0  0
    0.0900    1.9030    0.1700 C   0  0  2  0  0  0  0  0  0  0  0  0
    1.6070    1.8290   -0.0600 C   0  0  0  0  0  0  0  0  0  0  0  0
    1.7090    0.5780   -0.9060 C   0  0  1  0  0  0  0  0  0  0  0  0
    2.4610   -0.3890   -0.1720 N   0  0  0  0  0  0  0  0  0  0  0  0
    3.7230   -0.9300   -0.5880 C   0  0  0  0  0  0  0  0  0  0  0  0
    4.1730   -0.5030   -1.6810 O   0  0  0  0  0  0  0  0  0  0  0  0
    4.4780   -1.9170    0.1720 C   0  0  2  0  0  0  0  0  0  0  0  0
    4.7930   -1.5180    1.5830 C   0  0  0  0  0  0  0  0  0  0  0  0
    6.2600   -1.8780    1.6950 C   0  0  0  0  0  0  0  0  0  0  0  0
    6.7040   -1.7230    0.2570 C   0  0  2  0  0  0  0  0  0  0  0  0
    7.0110   -0.2760   -0.0670 C   0  0  0  0  0  0  0  0  0  0  0  0
    7.3430   -0.1250   -1.4100 O   0  0  0  0  0  0  0  0  0  0  0  0
    5.6410   -2.2270   -0.4800 O   0  0  0  0  0  0  0  0  0  0  0  0
   -0.3970    1.3370   -0.9840 O   0  0  0  0  0  0  0  0  0  0  0  0
  2  1  1  6
  2  3  1  0
  2 20  1  0
  2 31  1  0
  3  4  1  0
  4  5  1  0
  5  6  1  0
  6  7  2  3
  6 10  1  0
  7  8  1  0
  8  9  1  0
 10 11  1  6
 10 12  1  0
 12 13  1  0
 13 14  1  0
 14 15  1  0
 15 16  1  0
 16 17  2  0
 16 18  1  0
 18 19  1  6
 18 31  1  0
 19 20  1  0
 20 21  1  1
 21 22  1  0
 22 23  2  0
 24 22  1  6
 24 25  1  0
 24 30  1  0
 25 26  1  0
 26 27  1  0
 27 28  1  6
 27 30  1  0
 28 29  1  0
M  CHG  1  11   1
M  END
