
     RDKit          3D

 32 36  0  0  0  0  0  0  0  0999 V2000
    6.1600    0.6940    1.5300 C   0  0  0  0  0  0  0  0  0  0  0  0
    5.6450   -0.7080    1.2990 C   0  0  0  0  0  0  0  0  0  0  0  0
    5.2130   -0.9440   -0.1120 C   0  0  1  0  0  0  0  0  0  0  0  0
    4.7550   -2.2460   -0.2350 O   0  0  0  0  0  0  0  0  0  0  0  0
    4.1630   -0.0010   -0.5860 C   0  0  0  0  0  0  0  0  0  0  0  0
    4.3590    1.1070   -1.3740 C   0  0  0  0  0  0  0  0  0  0  0  0
    3.1050    1.6650   -1.5530 C   0  0  0  0  0  0  0  0  0  0  0  0
    2.1770    0.8810   -0.8680 C   0  0  0  0  0  0  0  0  0  0  0  0
    0.6940    1.1420   -0.8040 C   0  0  1  0  0  0  0  0  0  0  0  0
    0.4430    1.8140   -2.1790 C   0  0  0  0  0  0  0  0  0  0  0  0
    0.7430    0.5900   -3.0390 C   0  0  0  0  0  0  0  0  0  0  0  0
    0.5030   -0.6120   -2.0720 C   0  0  0  0  0  0  0  0  0  0  0  0
   -0.1860    0.0420   -1.0350 N   0  0  0  0  0  0  0  0  0  0  0  0
   -0.8480   -0.5590    0.0220 C   0  0  2  0  0  0  0  0  0  0  0  0
    0.2110   -1.0640    0.9860 C   0  0  0  0  0  0  0  0  0  0  0  0
    0.7750   -2.3550    0.4860 C   0  0  0  0  0  0  0  0  0  0  0  0
   -0.1880   -2.8660   -0.5770 C   0  0  0  0  0  0  0  0  0  0  0  0
   -1.3180   -2.0070   -0.2380 C   0  0  1  0  0  0  0  0  0  0  0  0
   -1.5280   -2.5510    1.1020 O   0  0  0  0  0  0  0  0  0  0  0  0
   -2.6220   -2.1990   -0.8220 C   0  0  0  0  0  0  0  0  0  0  0  0
   -3.6170   -1.7870    0.2750 C   0  0  0  0  0  0  0  0  0  0  0  0
   -3.0510   -0.8230    1.2400 C   0  0  0  0  0  0  0  0  0  0  0  0
   -2.0000    0.1490    0.6720 C   0  0  1  0  0  0  0  0  0  0  0  0
   -1.5450    0.8990    1.9450 C   0  0  0  0  0  0  0  0  0  0  0  0
   -2.7210    1.2700    2.8150 C   0  0  0  0  0  0  0  0  0  0  0  0
   -3.7120    2.1440    2.0900 C   0  0  0  0  0  0  0  0  0  0  0  0
   -3.9380    1.7530    0.6860 C   0  0  0  0  0  0  0  0  0  0  0  0
   -2.6680    1.2690   -0.0520 C   0  0  1  0  0  0  0  0  0  0  0  0
   -1.9110    2.4680    0.0360 O   0  0  0  0  0  0  0  0  0  0  0  0
   -3.1750    1.0750   -1.4200 C   0  0  0  0  0  0  0  0  0  0  0  0
   -3.9340    2.2440   -1.7340 O   0  0  0  0  0  0  0  0  0  0  0  0
    2.9120   -0.0520   -0.3490 O   0  0  0  0  0  0  0  0  0  0  0  0
  1  2  1  0
  2  3  1  0
  3  4  1  1
  3  5  1  0
  5  6  2  0
  5 32  1  0
  6  7  1  0
  7  8  2  0
  9  8  1  6
  8 32  1  0
  9 10  1  0
  9 13  1  0
 10 11  1  0
 11 12  1  0
 12 13  1  0
 14 13  1  6
 14 15  1  0
 14 18  1  0
 14 23  1  0
 15 16  1  0
 16 17  1  0
 17 18  1  0
 18 19  1  1
 18 20  1  0
 20 21  1  0
 21 22  1  0
 23 22  1  1
 23 24  1  0
 23 28  1  0
 24 25  1  0
 25 26  1  0
 26 27  1  0
 27 28  1  0
 28 29  1  6
 28 30  1  0
 30 31  1  0
M  END
