
     RDKit          3D

 33 36  0  0  0  0  0  0  0  0999 V2000
   -5.1030   -0.2350    0.7080 C   0  0  0  0  0  0  0  0  0  0  0  0
   -4.6210   -0.3610   -0.7010 C   0  0  1  0  0  0  0  0  0  0  0  0
   -5.3980   -1.4430   -1.4320 C   0  0  0  0  0  0  0  0  0  0  0  0
   -4.8740    0.9440   -1.4340 C   0  0  0  0  0  0  0  0  0  0  0  0
   -4.2450    2.0130   -0.6140 C   0  0  0  0  0  0  0  0  0  0  0  0
   -4.7790    3.1440   -0.4860 O   0  0  0  0  0  0  0  0  0  0  0  0
   -2.9790    1.6800    0.0300 C   0  0  0  0  0  0  0  0  0  0  0  0
   -2.0780    2.4290    0.7850 C   0  0  0  0  0  0  0  0  0  0  0  0
   -2.3060    3.8610    1.0800 C   0  0  1  0  0  0  0  0  0  0  0  0
   -2.3870    4.6010   -0.0880 F   0  0  0  0  0  0  0  0  0  0  0  0
   -3.5320    4.0440    1.7290 F   0  0  0  0  0  0  0  0  0  0  0  0
   -1.2670    4.3930    1.8190 F   0  0  0  0  0  0  0  0  0  0  0  0
   -1.0570    1.6270    1.1450 N   0  0  0  0  0  0  0  0  0  0  0  0
   -1.2560    0.4110    0.6630 N   0  0  0  0  0  0  0  0  0  0  0  0
   -0.3510   -0.7010    0.8600 C   0  0  0  0  0  0  0  0  0  0  0  0
   -0.7740   -1.8370    1.5060 C   0  0  0  0  0  0  0  0  0  0  0  0
    0.0920   -2.8710    1.6800 C   0  0  0  0  0  0  0  0  0  0  0  0
    1.4190   -2.8010    1.2120 C   0  0  0  0  0  0  0  0  0  0  0  0
    2.2960   -3.9270    1.4450 C   0  0  0  0  0  0  0  0  0  0  0  0
    1.7740   -5.0760    2.1160 N   0  0  0  0  0  0  0  0  0  0  0  0
    3.4710   -3.9710    1.1040 O   0  0  0  0  0  0  0  0  0  0  0  0
    1.8760   -1.6720    0.5580 C   0  0  0  0  0  0  0  0  0  0  0  0
    3.1850   -1.5320    0.0210 N   0  0  0  0  0  0  0  0  0  0  0  0
    3.5710   -0.2230   -0.4870 C   0  0  1  0  0  0  0  0  0  0  0  0
    3.7070    0.8180    0.5960 C   0  0  0  0  0  0  0  0  0  0  0  0
    3.6980    2.1600   -0.1370 C   0  0  0  0  0  0  0  0  0  0  0  0
    4.8600    2.2490   -1.0990 C   0  0  2  0  0  0  0  0  0  0  0  0
    4.5730    3.3020   -1.9780 O   0  0  0  0  0  0  0  0  0  0  0  0
    5.0980    1.0280   -1.9120 C   0  0  0  0  0  0  0  0  0  0  0  0
    4.9400   -0.2770   -1.1660 C   0  0  0  0  0  0  0  0  0  0  0  0
    0.9430   -0.6390    0.4050 C   0  0  0  0  0  0  0  0  0  0  0  0
   -2.4150    0.4140   -0.0180 C   0  0  0  0  0  0  0  0  0  0  0  0
   -3.1330   -0.6580   -0.7600 C   0  0  0  0  0  0  0  0  0  0  0  0
  2  1  1  1
  2  3  1  0
  2  4  1  0
  2 33  1  0
  4  5  1  0
  5  6  2  0
  5  7  1  0
  7  8  1  0
  7 32  2  0
  8  9  1  0
  8 13  2  0
  9 10  1  6
  9 11  1  0
  9 12  1  0
 13 14  1  0
 14 15  1  0
 14 32  1  0
 15 16  2  0
 15 31  1  0
 16 17  1  0
 17 18  2  0
 18 19  1  0
 18 22  1  0
 19 20  1  0
 19 21  2  0
 22 23  1  0
 22 31  2  0
 24 23  1  1
 24 25  1  0
 24 30  1  0
 25 26  1  0
 26 27  1  0
 27 28  1  6
 27 29  1  0
 29 30  1  0
 32 33  1  0
M  END
