
     RDKit          3D

 31 33  0  0  0  0  0  0  0  0999 V2000
   -7.2380   -0.0470   -0.0050 C   0  0  0  0  0  0  0  0  0  0  0  0
   -6.0840    0.0970   -0.9310 C   0  0  1  0  0  0  0  0  0  0  0  0
   -5.9800    1.4420   -1.5610 C   0  0  0  0  0  0  0  0  0  0  0  0
   -5.6120    2.4420   -0.5250 C   0  0  0  0  0  0  0  0  0  0  0  0
   -5.1810    1.8970    0.7830 C   0  0  0  0  0  0  0  0  0  0  0  0
   -4.2650    0.6760    0.6890 C   0  0  2  0  0  0  0  0  0  0  0  0
   -2.8240    1.1380    0.5990 C   0  0  1  0  0  0  0  0  0  0  0  0
   -2.6480    1.9180    1.8290 O   0  0  0  0  0  0  0  0  0  0  0  0
   -1.7850    0.0620    0.7170 C   0  0  2  0  0  0  0  0  0  0  0  0
   -2.0650   -0.7850    1.7770 O   0  0  0  0  0  0  0  0  0  0  0  0
   -0.4440    0.7870    1.0390 C   0  0  0  0  0  0  0  0  0  0  0  0
    0.6200   -0.2000    1.4290 C   0  0  0  0  0  0  0  0  0  0  0  0
    0.5320   -1.4830    0.6460 C   0  0  2  0  0  0  0  0  0  0  0  0
    1.9060   -1.9700    0.3550 C   0  0  0  0  0  0  0  0  0  0  0  0
    2.3040   -2.1890   -0.8210 O   0  0  0  0  0  0  0  0  0  0  0  0
    2.7790   -2.1940    1.3960 O   0  0  0  0  0  0  0  0  0  0  0  0
    4.0970   -2.6550    1.2850 C   0  0  0  0  0  0  0  0  0  0  0  0
    4.9890   -1.7620    0.5370 C   0  0  0  0  0  0  0  0  0  0  0  0
    6.1850   -2.1930    0.3460 O   0  0  0  0  0  0  0  0  0  0  0  0
    4.6320   -0.4880    0.0250 N   0  0  0  0  0  0  0  0  0  0  0  0
    5.6780    0.2500   -0.7020 C   0  0  1  0  0  0  0  0  0  0  0  0
    5.1000    1.4490   -1.1140 O   0  0  0  0  0  0  0  0  0  0  0  0
    6.8110    0.4680    0.2290 C   0  0  0  0  0  0  0  0  0  0  0  0
    8.1690    0.2140   -0.3220 C   0  0  0  0  0  0  0  0  0  0  0  0
    8.1860   -0.1820   -1.7740 C   0  0  0  0  0  0  0  0  0  0  0  0
    7.2040   -1.1920   -1.9110 O   0  0  0  0  0  0  0  0  0  0  0  0
    5.9890   -0.5590   -1.9220 C   0  0  0  0  0  0  0  0  0  0  0  0
   -0.1220   -1.1940   -0.6620 C   0  0  0  0  0  0  0  0  0  0  0  0
   -1.5680   -0.7120   -0.5320 C   0  0  0  0  0  0  0  0  0  0  0  0
   -4.7410   -0.2920   -0.3160 C   0  0  1  0  0  0  0  0  0  0  0  0
   -4.9150   -1.6520    0.2080 N   0  0  0  0  0  0  0  0  0  0  0  0
  2  1  1  1
  2  3  1  0
  2 30  1  0
  3  4  1  0
  4  5  1  0
  6  5  1  6
  6  7  1  0
  6 30  1  0
  7  8  1  1
  7  9  1  0
  9 10  1  1
  9 11  1  0
  9 29  1  0
 11 12  1  0
 12 13  1  0
 13 14  1  6
 13 28  1  0
 14 15  2  0
 14 16  1  0
 16 17  1  0
 17 18  1  0
 18 19  2  0
 18 20  1  0
 20 21  1  0
 21 22  1  6
 21 23  1  0
 21 27  1  0
 23 24  1  0
 24 25  1  0
 25 26  1  0
 26 27  1  0
 28 29  1  0
 30 31  1  1
M  CHG  1  31   1
M  END
