
     RDKit          3D

 32 34  0  0  0  0  0  0  0  0999 V2000
   -3.0160    0.0410    2.2150 C   0  0  0  0  0  0  0  0  0  0  0  0
   -1.8930   -0.8380    1.9080 C   0  0  0  0  0  0  0  0  0  0  0  0
   -1.1150   -0.7900    0.6380 C   0  0  1  0  0  0  0  0  0  0  0  0
   -0.3490    0.4580    0.3200 C   0  0  1  0  0  0  0  0  0  0  0  0
    0.5100    0.5350    1.4910 O   0  0  0  0  0  0  0  0  0  0  0  0
    0.7680    0.2840   -0.7100 C   0  0  1  0  0  0  0  0  0  0  0  0
    1.3580    1.5530   -1.2300 C   0  0  0  0  0  0  0  0  0  0  0  0
    2.7530    1.9110   -0.8060 C   0  0  0  0  0  0  0  0  0  0  0  0
    3.7440    0.8630   -1.2920 C   0  0  0  0  0  0  0  0  0  0  0  0
    3.0400   -0.4830   -1.2970 C   0  0  1  0  0  0  0  0  0  0  0  0
    2.4760   -0.7140   -2.5730 N   0  0  0  0  0  0  0  0  0  0  0  0
    3.4800   -0.7890   -3.5800 C   0  0  0  0  0  0  0  0  0  0  0  0
    4.0060   -1.5620   -0.9180 C   0  0  0  0  0  0  0  0  0  0  0  0
    4.1850   -2.4870   -1.7370 O   0  0  0  0  0  0  0  0  0  0  0  0
    4.6750   -1.5350    0.2920 O   0  0  0  0  0  0  0  0  0  0  0  0
    5.6010   -2.5540    0.6710 C   0  0  0  0  0  0  0  0  0  0  0  0
    2.0150   -0.4010   -0.1570 C   0  0  0  0  0  0  0  0  0  0  0  0
   -0.9840    1.7700    0.3300 C   0  0  2  0  0  0  0  0  0  0  0  0
   -2.0430    2.1800   -0.6130 C   0  0  0  0  0  0  0  0  0  0  0  0
   -0.2810    2.9570    0.9330 C   0  0  1  0  0  0  0  0  0  0  0  0
   -1.1860    4.1940    0.7840 C   0  0  0  0  0  0  0  0  0  0  0  0
   -0.7870    5.0810    1.9760 C   0  0  0  0  0  0  0  0  0  0  0  0
    0.1660    4.1640    2.7060 C   0  0  0  0  0  0  0  0  0  0  0  0
   -0.2960    2.9100    2.3700 O   0  0  0  0  0  0  0  0  0  0  0  0
   -0.3150   -2.0700    0.6140 C   0  0  0  0  0  0  0  0  0  0  0  0
   -1.1330   -3.3100    0.9630 C   0  0  0  0  0  0  0  0  0  0  0  0
   -2.3660   -3.4840    0.1910 C   0  0  0  0  0  0  0  0  0  0  0  0
   -3.0140   -2.2630   -0.3150 C   0  0  2  0  0  0  0  0  0  0  0  0
   -4.4080   -2.1050    0.3100 C   0  0  0  0  0  0  0  0  0  0  0  0
   -3.4040   -2.6200   -1.7900 C   0  0  0  0  0  0  0  0  0  0  0  0
   -2.2230   -1.0330   -0.4120 C   0  0  2  0  0  0  0  0  0  0  0  0
   -1.5540   -1.0940   -1.6140 O   0  0  0  0  0  0  0  0  0  0  0  0
  1  2  1  0
  3  2  1  1
  3  4  1  0
  3 25  1  0
  3 31  1  0
  4  5  1  1
  4  6  1  0
  4 18  1  0
  6  7  1  1
  6 17  1  0
  7  8  1  0
  8  9  1  0
  9 10  1  0
 10 11  1  6
 10 13  1  0
 10 17  1  0
 11 12  1  0
 13 14  2  0
 13 15  1  0
 15 16  1  0
 18 19  1  6
 18 20  1  0
 20 21  1  1
 20 24  1  0
 21 22  1  0
 22 23  1  0
 23 24  1  0
 25 26  1  0
 26 27  1  0
 27 28  1  0
 28 29  1  1
 28 30  1  0
 28 31  1  0
 31 32  1  6
M  END
