
     RDKit          3D

 32 34  0  0  0  0  0  0  0  0999 V2000
   -6.3140    0.2750    0.8740 C   0  0  0  0  0  0  0  0  0  0  0  0
   -5.0270    0.2820    0.6660 C   0  0  0  0  0  0  0  0  0  0  0  0
   -4.3100   -0.8750    0.8950 C   0  0  0  0  0  0  0  0  0  0  0  0
   -2.9440   -1.0030    0.7150 C   0  0  0  0  0  0  0  0  0  0  0  0
   -2.2530    0.1280    0.2720 C   0  0  0  0  0  0  0  0  0  0  0  0
   -2.9900    1.2700    0.0470 C   0  0  0  0  0  0  0  0  0  0  0  0
   -4.3690    1.3820    0.2330 C   0  0  0  0  0  0  0  0  0  0  0  0
   -4.9370    2.5550   -0.0290 C   0  0  0  0  0  0  0  0  0  0  0  0
   -4.1460    3.7170   -0.5010 C   0  0  0  0  0  0  0  0  0  0  0  0
   -0.8550    0.0660    0.0780 O   0  0  0  0  0  0  0  0  0  0  0  0
    0.0680   -0.1100    1.1780 C   0  0  0  0  0  0  0  0  0  0  0  0
    1.3820   -0.6740    0.7570 C   0  0  2  0  0  0  0  0  0  0  0  0
    2.3720   -0.0540    1.5560 O   0  0  0  0  0  0  0  0  0  0  0  0
    1.6480   -0.3090   -0.6900 C   0  0  0  0  0  0  0  0  0  0  0  0
    1.5860    1.1160   -0.9070 N   0  0  0  0  0  0  0  0  0  0  0  0
    2.7470    1.6940   -1.4980 C   0  0  1  0  0  0  0  0  0  0  0  0
    2.4750    2.2380   -2.9100 C   0  0  0  0  0  0  0  0  0  0  0  0
    3.6920    3.1240   -3.2090 C   0  0  0  0  0  0  0  0  0  0  0  0
    4.7990    2.7320   -2.4520 O   0  0  0  0  0  0  0  0  0  0  0  0
    4.7080    3.0940   -1.1230 C   0  0  0  0  0  0  0  0  0  0  0  0
    3.2420    2.9200   -0.7220 C   0  0  2  0  0  0  0  0  0  0  0  0
    3.0740    2.8090    0.6340 O   0  0  0  0  0  0  0  0  0  0  0  0
    1.3620   -2.0260    0.9290 O   0  0  0  0  0  0  0  0  0  0  0  0
    2.5450   -2.6830    1.0290 C   0  0  0  0  0  0  0  0  0  0  0  0
    2.2630   -4.1350    1.1510 C   0  0  0  0  0  0  0  0  0  0  0  0
    3.0500   -4.9640    0.5740 O   0  0  0  0  0  0  0  0  0  0  0  0
    1.1510   -4.5940    1.8860 N   0  0  0  0  0  0  0  0  0  0  0  0
   -0.1630   -3.9990    1.8620 C   0  0  0  0  0  0  0  0  0  0  0  0
   -0.6720   -4.0260    0.4720 C   0  0  1  0  0  0  0  0  0  0  0  0
   -1.4140   -5.2300    0.3250 O   0  0  0  0  0  0  0  0  0  0  0  0
   -1.5020   -2.9150   -0.0080 C   0  0  0  0  0  0  0  0  0  0  0  0
   -2.2540   -2.2070    0.9530 O   0  0  0  0  0  0  0  0  0  0  0  0
  1  2  2  0
  2  3  1  0
  2  7  1  0
  3  4  2  0
  4  5  1  0
  4 32  1  0
  5  6  2  0
  5 10  1  0
  6  7  1  0
  7  8  2  3
  8  9  1  0
 10 11  1  0
 11 12  1  0
 12 13  1  1
 12 14  1  0
 12 23  1  0
 14 15  1  0
 16 15  1  1
 16 17  1  0
 16 21  1  0
 17 18  1  0
 18 19  1  0
 19 20  1  0
 20 21  1  0
 21 22  1  1
 23 24  1  0
 24 25  1  0
 25 26  2  0
 25 27  1  0
 27 28  1  0
 28 29  1  0
 29 30  1  1
 29 31  1  0
 31 32  1  0
M  CHG  1  15   1
M  END
