
     RDKit          3D

 32 34  0  0  0  0  0  0  0  0999 V2000
   -3.7950   -3.3270   -0.3150 N   0  0  0  0  0  0  0  0  0  0  0  0
   -3.3560   -2.2480    0.3060 C   0  0  0  0  0  0  0  0  0  0  0  0
   -4.3720   -1.1710    0.4610 C   0  0  0  0  0  0  0  0  0  0  0  0
   -4.2050    0.0360   -0.3770 C   0  0  2  0  0  0  0  0  0  0  0  0
   -3.1890   -0.1670   -1.2950 O   0  0  0  0  0  0  0  0  0  0  0  0
   -3.9570    1.3650    0.3060 C   0  0  0  0  0  0  0  0  0  0  0  0
   -3.0930    2.2190   -0.2950 O   0  0  0  0  0  0  0  0  0  0  0  0
   -2.2320    3.2380   -0.0940 C   0  0  0  0  0  0  0  0  0  0  0  0
   -2.5820    4.4370    0.1840 O   0  0  0  0  0  0  0  0  0  0  0  0
   -0.7420    3.0920   -0.1770 C   0  0  0  0  0  0  0  0  0  0  0  0
   -0.0820    2.0150    0.2470 C   0  0  0  0  0  0  0  0  0  0  0  0
   -0.6010    0.6110    0.3910 C   0  0  0  0  0  0  0  0  0  0  0  0
   -1.0430    0.0650    1.4890 C   0  0  0  0  0  0  0  0  0  0  0  0
   -1.5910   -1.2890    1.8570 C   0  0  1  0  0  0  0  0  0  0  0  0
   -2.7190   -1.1620    2.6940 O   0  0  0  0  0  0  0  0  0  0  0  0
   -1.9820   -2.1760    0.7760 C   0  0  0  0  0  0  0  0  0  0  0  0
   -1.0600   -2.8990    0.1830 C   0  0  0  0  0  0  0  0  0  0  0  0
    0.3850   -2.9540    0.5250 C   0  0  0  0  0  0  0  0  0  0  0  0
    1.3460   -2.6400   -0.5670 C   0  0  0  0  0  0  0  0  0  0  0  0
    1.9530   -1.3010   -0.5620 C   0  0  0  0  0  0  0  0  0  0  0  0
    3.4410   -1.3080   -0.7470 C   0  0  0  0  0  0  0  0  0  0  0  0
    4.0530    0.0210   -0.2650 C   0  0  1  0  0  0  0  0  0  0  0  0
    5.5690   -0.2270   -0.2220 C   0  0  0  0  0  0  0  0  0  0  0  0
    6.0610   -0.4960   -1.4850 O   0  0  0  0  0  0  0  0  0  0  0  0
    3.8250    1.0960   -1.0850 O   0  0  0  0  0  0  0  0  0  0  0  0
    3.3720    2.3750   -0.8490 C   0  0  0  0  0  0  0  0  0  0  0  0
    4.1510    3.3910   -0.7450 O   0  0  0  0  0  0  0  0  0  0  0  0
    1.9660    2.6160   -0.7090 C   0  0  1  0  0  0  0  0  0  0  0  0
    1.3720    2.3040    0.6360 C   0  0  0  0  0  0  0  0  0  0  0  0
    1.4760    3.9860   -0.9380 N   0  0  0  0  0  0  0  0  0  0  0  0
    0.0590    4.1690   -0.8130 C   0  0  0  0  0  0  0  0  0  0  0  0
   -0.4840    5.1920   -1.2210 O   0  0  0  0  0  0  0  0  0  0  0  0
  1  2  2  0
  2  3  1  0
  2 16  1  0
  3  4  1  0
  4  5  1  6
  4  6  1  0
  6  7  1  0
  7  8  1  0
  8  9  2  0
  8 10  1  0
 10 11  2  0
 10 31  1  0
 11 12  1  0
 11 29  1  0
 12 13  2  0
 13 14  1  0
 14 15  1  1
 14 16  1  0
 16 17  2  0
 17 18  1  0
 18 19  1  0
 19 20  1  0
 20 21  1  0
 21 22  1  0
 22 23  1  6
 22 25  1  0
 23 24  1  0
 25 26  1  0
 26 27  2  0
 26 28  1  0
 28 29  1  0
 28 30  1  1
 30 31  1  0
 31 32  2  0
M  CHG  1   1   1
M  END
