
     RDKit          3D

 32 34  0  0  0  0  0  0  0  0999 V2000
   -1.1060   -3.9980    1.6660 N   0  0  0  0  0  0  0  0  0  0  0  0
   -0.7940   -3.3850    0.4050 C   0  0  0  0  0  0  0  0  0  0  0  0
   -0.7910   -1.8750    0.5600 C   0  0  1  0  0  0  0  0  0  0  0  0
   -0.4770   -1.2370   -0.6990 N   0  0  0  0  0  0  0  0  0  0  0  0
    0.8550   -0.9160   -1.0680 C   0  0  0  0  0  0  0  0  0  0  0  0
    1.1660   -0.7450   -2.2980 O   0  0  0  0  0  0  0  0  0  0  0  0
    1.9500   -0.7620   -0.0790 C   0  0  1  0  0  0  0  0  0  0  0  0
    2.2480   -1.9700    0.5520 O   0  0  0  0  0  0  0  0  0  0  0  0
    3.2370   -2.5690   -0.2260 C   0  0  0  0  0  0  0  0  0  0  0  0
    4.1510   -1.4250   -0.6000 C   0  0  0  0  0  0  0  0  0  0  0  0
    3.2140   -0.2640   -0.6880 C   0  0  1  0  0  0  0  0  0  0  0  0
    3.1190    0.1010   -2.0240 O   0  0  0  0  0  0  0  0  0  0  0  0
    3.7790    0.9280    0.0590 C   0  0  0  0  0  0  0  0  0  0  0  0
    2.8530    2.1200   -0.0310 C   0  0  0  0  0  0  0  0  0  0  0  0
    3.6160    3.3270    0.4610 C   0  0  0  0  0  0  0  0  0  0  0  0
    2.7400    4.2510    1.2410 C   0  0  0  0  0  0  0  0  0  0  0  0
    3.3590    5.0780    1.9570 O   0  0  0  0  0  0  0  0  0  0  0  0
    1.3850    4.1270    1.1150 O   0  0  0  0  0  0  0  0  0  0  0  0
    0.5920    4.2780   -0.0190 C   0  0  0  0  0  0  0  0  0  0  0  0
   -0.3660    3.1760   -0.3050 C   0  0  0  0  0  0  0  0  0  0  0  0
   -0.8760    2.4500    0.9250 C   0  0  0  0  0  0  0  0  0  0  0  0
   -2.3430    2.0880    0.7060 C   0  0  0  0  0  0  0  0  0  0  0  0
   -2.5060    1.1670   -0.3170 O   0  0  0  0  0  0  0  0  0  0  0  0
   -3.3090    0.0840   -0.5120 C   0  0  0  0  0  0  0  0  0  0  0  0
   -4.3580    0.1340   -1.4410 C   0  0  0  0  0  0  0  0  0  0  0  0
   -5.2240   -0.8980   -1.7130 C   0  0  0  0  0  0  0  0  0  0  0  0
   -5.0450   -2.0700   -1.0190 C   0  0  0  0  0  0  0  0  0  0  0  0
   -5.8800   -3.1660   -1.2340 O   0  0  0  0  0  0  0  0  0  0  0  0
   -4.0230   -2.1450   -0.1030 C   0  0  0  0  0  0  0  0  0  0  0  0
   -3.1470   -1.1150    0.1780 C   0  0  0  0  0  0  0  0  0  0  0  0
   -2.0860   -1.3890    1.1760 C   0  0  2  0  0  0  0  0  0  0  0  0
   -1.8220   -0.4120    2.0770 O   0  0  0  0  0  0  0  0  0  0  0  0
  1  2  1  0
  3  2  1  6
  3  4  1  0
  3 31  1  0
  4  5  1  0
  5  6  2  0
  5  7  1  0
  7  8  1  6
  7 11  1  0
  8  9  1  0
  9 10  1  0
 10 11  1  0
 11 12  1  6
 11 13  1  0
 13 14  1  0
 14 15  1  0
 15 16  1  0
 16 17  2  0
 16 18  1  0
 18 19  1  0
 19 20  1  0
 20 21  1  0
 21 22  1  0
 22 23  1  0
 23 24  1  0
 24 25  2  0
 24 30  1  0
 25 26  1  0
 26 27  2  0
 27 28  1  0
 27 29  1  0
 29 30  2  0
 30 31  1  0
 31 32  1  6
M  CHG  1   1   1
M  END
