
     RDKit          3D

 29 31  0  0  0  0  0  0  0  0999 V2000
   10.1610   -0.0030    0.4620 C   0  0  0  0  0  0  0  0  0  0  0  0
    8.7840   -0.1130   -0.0980 C   0  0  0  0  0  0  0  0  0  0  0  0
    8.3240   -1.2640   -0.7010 C   0  0  0  0  0  0  0  0  0  0  0  0
    7.0460   -1.3390   -1.2100 C   0  0  0  0  0  0  0  0  0  0  0  0
    6.1720   -0.2750   -1.1430 C   0  0  0  0  0  0  0  0  0  0  0  0
    4.8030   -0.4120   -1.7110 C   0  0  0  0  0  0  0  0  0  0  0  0
    3.8510   -0.9440   -0.7850 N   0  0  0  0  0  0  0  0  0  0  0  0
    3.0840    0.0830   -0.0880 C   0  0  0  0  0  0  0  0  0  0  0  0
    2.1030    0.7330   -0.9290 C   0  0  0  0  0  0  0  0  0  0  0  0
    0.8370    0.8480   -0.9480 C   0  0  0  0  0  0  0  0  0  0  0  0
   -0.2640    0.3860   -0.1480 C   0  0  0  0  0  0  0  0  0  0  0  0
   -0.1060   -0.5400    0.8450 C   0  0  0  0  0  0  0  0  0  0  0  0
   -1.2340   -0.8890    1.5990 C   0  0  0  0  0  0  0  0  0  0  0  0
   -2.4700   -0.3320    1.3650 C   0  0  0  0  0  0  0  0  0  0  0  0
   -2.6550    0.6010    0.3690 C   0  0  0  0  0  0  0  0  0  0  0  0
   -3.9560    1.2010    0.1080 C   0  0  0  0  0  0  0  0  0  0  0  0
   -4.1770    2.0400   -0.7690 O   0  0  0  0  0  0  0  0  0  0  0  0
   -5.0360    0.8020    0.9040 O   0  0  0  0  0  0  0  0  0  0  0  0
   -6.3170    1.3270    0.7210 C   0  0  2  0  0  0  0  0  0  0  0  0
   -6.8050    2.0770    1.9420 C   0  0  0  0  0  0  0  0  0  0  0  0
   -7.2370    0.2220    0.3520 C   0  0  0  0  0  0  0  0  0  0  0  0
   -8.1420    0.3660   -0.6730 C   0  0  0  0  0  0  0  0  0  0  0  0
   -8.9840   -0.6810   -0.9910 C   0  0  0  0  0  0  0  0  0  0  0  0
   -8.9600   -1.8780   -0.3200 C   0  0  0  0  0  0  0  0  0  0  0  0
   -8.0610   -2.0320    0.7050 C   0  0  0  0  0  0  0  0  0  0  0  0
   -7.2130   -0.9800    1.0260 C   0  0  0  0  0  0  0  0  0  0  0  0
   -1.5470    0.9380   -0.3630 C   0  0  0  0  0  0  0  0  0  0  0  0
    6.6090    0.8830   -0.5470 C   0  0  0  0  0  0  0  0  0  0  0  0
    7.8870    0.9400   -0.0440 C   0  0  0  0  0  0  0  0  0  0  0  0
  1  2  1  0
  2  3  2  0
  2 29  1  0
  3  4  1  0
  4  5  2  0
  5  6  1  0
  5 28  1  0
  6  7  1  0
  7  8  1  0
  8  9  1  0
  9 10  2  3
 10 11  1  0
 11 12  2  0
 11 27  1  0
 12 13  1  0
 13 14  2  0
 14 15  1  0
 15 16  1  0
 15 27  2  0
 16 17  2  0
 16 18  1  0
 18 19  1  0
 19 20  1  1
 19 21  1  0
 21 22  2  0
 21 26  1  0
 22 23  1  0
 23 24  2  0
 24 25  1  0
 25 26  2  0
 28 29  2  0
M  CHG  1   7   1
M  END
