
     RDKit          3D

 29 31  0  0  0  0  0  0  0  0999 V2000
    9.1440    1.8020    1.0700 C   0  0  0  0  0  0  0  0  0  0  0  0
    7.9500    0.8860    0.8620 C   0  0  0  0  0  0  0  0  0  0  0  0
    7.3300    1.1170   -0.4190 N   0  0  0  0  0  0  0  0  0  0  0  0
    5.9980    1.6730   -0.2270 C   0  0  0  0  0  0  0  0  0  0  0  0
    5.0000    0.6040   -0.4810 C   0  0  0  0  0  0  0  0  0  0  0  0
    4.5810   -0.1880    0.5660 C   0  0  0  0  0  0  0  0  0  0  0  0
    3.6420   -1.2050    0.3600 C   0  0  0  0  0  0  0  0  0  0  0  0
    3.1240   -1.4260   -0.8940 C   0  0  0  0  0  0  0  0  0  0  0  0
    2.2010   -2.4310   -1.0760 O   0  0  0  0  0  0  0  0  0  0  0  0
    0.8330   -2.1720   -0.9380 C   0  0  0  0  0  0  0  0  0  0  0  0
    0.4380   -0.9000   -0.6200 C   0  0  0  0  0  0  0  0  0  0  0  0
   -0.9150   -0.5770   -0.4690 C   0  0  0  0  0  0  0  0  0  0  0  0
   -1.8890   -1.5410   -0.6370 C   0  0  0  0  0  0  0  0  0  0  0  0
   -3.3270   -1.2180   -0.3980 C   0  0  0  0  0  0  0  0  0  0  0  0
   -3.6040   -0.1400    0.2560 C   0  0  0  0  0  0  0  0  0  0  0  0
   -4.8750    0.4320    0.6480 C   0  0  0  0  0  0  0  0  0  0  0  0
   -5.7870   -0.1920    1.4720 C   0  0  0  0  0  0  0  0  0  0  0  0
   -6.9920    0.3900    1.8240 C   0  0  0  0  0  0  0  0  0  0  0  0
   -7.3410    1.6410    1.3600 C   0  0  0  0  0  0  0  0  0  0  0  0
   -8.6330    2.2640    1.7380 C   0  0  0  0  0  0  0  0  0  0  0  0
   -6.4400    2.2790    0.5350 C   0  0  0  0  0  0  0  0  0  0  0  0
   -5.2400    1.7060    0.1810 C   0  0  0  0  0  0  0  0  0  0  0  0
   -4.3120   -2.0470   -1.0380 C   0  0  0  0  0  0  0  0  0  0  0  0
   -5.7610   -1.7490   -1.0620 C   0  0  0  0  0  0  0  0  0  0  0  0
   -4.0170   -3.1240   -1.6560 O   0  0  0  0  0  0  0  0  0  0  0  0
   -1.4680   -2.8140   -0.9560 C   0  0  0  0  0  0  0  0  0  0  0  0
   -0.1080   -3.1260   -1.1060 C   0  0  0  0  0  0  0  0  0  0  0  0
    3.5530   -0.6270   -1.9260 C   0  0  0  0  0  0  0  0  0  0  0  0
    4.4870    0.3900   -1.7420 C   0  0  0  0  0  0  0  0  0  0  0  0
  1  2  1  0
  2  3  1  0
  3  4  1  0
  4  5  1  0
  5  6  2  0
  5 29  1  0
  6  7  1  0
  7  8  2  0
  8  9  1  0
  8 28  1  0
  9 10  1  0
 10 11  2  0
 10 27  1  0
 11 12  1  0
 12 13  2  0
 13 14  1  0
 13 26  1  0
 14 15  2  3
 14 23  1  0
 15 16  1  0
 16 17  2  0
 16 22  1  0
 17 18  1  0
 18 19  2  0
 19 20  1  0
 19 21  1  0
 21 22  2  0
 23 24  1  0
 23 25  2  0
 26 27  2  0
 28 29  2  0
M  CHG  1   3   1
M  END
