
     RDKit          3D

 28 28  0  0  0  0  0  0  0  0999 V2000
    2.4330    3.3710   -0.0860 C   0  0  0  0  0  0  0  0  0  0  0  0
    2.0590    2.0040   -0.0120 O   0  0  0  0  0  0  0  0  0  0  0  0
    2.0740    1.1510   -1.0920 C   0  0  0  0  0  0  0  0  0  0  0  0
    2.4550    1.6860   -2.1920 O   0  0  0  0  0  0  0  0  0  0  0  0
    1.7090   -0.2640   -1.1110 C   0  0  1  0  0  0  0  0  0  0  0  0
    2.0860   -0.8670   -2.3190 O   0  0  0  0  0  0  0  0  0  0  0  0
    1.9700   -1.0450    0.0500 N   0  0  0  0  0  0  0  0  0  0  0  0
    3.2750   -1.2580    0.5030 C   0  0  0  0  0  0  0  0  0  0  0  0
    3.4430   -2.1910    1.8810 S   0  0  0  0  0  0  0  0  0  0  0  0
    4.4990   -0.7800   -0.0630 C   0  0  0  0  0  0  0  0  0  0  0  0
    4.5440   -0.0820   -1.0910 O   0  0  0  0  0  0  0  0  0  0  0  0
    5.7220   -1.0630    0.5010 F   0  0  0  0  0  0  0  0  0  0  0  0
    0.8600   -1.6980    0.7240 C   0  0  1  0  0  0  0  0  0  0  0  0
    1.1410   -2.1830    1.9760 F   0  0  0  0  0  0  0  0  0  0  0  0
   -0.4200   -1.0940    0.5850 N   0  0  0  0  0  0  0  0  0  0  0  0
   -0.8750    0.1380    1.2020 C   0  0  0  0  0  0  0  0  0  0  0  0
   -0.0100    0.7410    2.1720 C   0  0  0  0  0  0  0  0  0  0  0  0
    1.1820    0.1690    2.2330 O   0  0  0  0  0  0  0  0  0  0  0  0
   -0.0820    1.8080    3.1160 C   0  0  0  0  0  0  0  0  0  0  0  0
   -0.9560    2.5740    3.4960 O   0  0  0  0  0  0  0  0  0  0  0  0
   -2.0930    0.5930    0.9290 C   0  0  0  0  0  0  0  0  0  0  0  0
   -2.6350    1.8640    1.5200 C   0  0  0  0  0  0  0  0  0  0  0  0
   -3.0370   -0.0890    0.0230 C   0  0  0  0  0  0  0  0  0  0  0  0
   -4.3200    0.4330   -0.2340 O   0  0  0  0  0  0  0  0  0  0  0  0
   -2.6410   -1.2060   -0.5400 C   0  0  0  0  0  0  0  0  0  0  0  0
   -3.5830   -1.9120   -1.4610 C   0  0  0  0  0  0  0  0  0  0  0  0
   -1.3580   -1.7200   -0.2800 N   0  0  0  0  0  0  0  0  0  0  0  0
   -1.0250   -2.9160   -0.9290 N   0  0  0  0  0  0  0  0  0  0  0  0
  1  2  1  0
  2  3  1  0
  3  4  2  0
  3  5  1  0
  5  6  1  6
  5  7  1  0
  7  8  1  0
  7 13  1  0
  8  9  2  0
  8 10  1  0
 10 11  2  0
 10 12  1  0
 13 14  1  1
 13 15  1  0
 15 16  1  0
 15 27  1  0
 16 17  1  0
 16 21  2  0
 17 18  2  0
 17 19  1  0
 19 20  2  0
 21 22  1  0
 21 23  1  0
 23 24  1  0
 23 25  2  0
 25 26  1  0
 25 27  1  0
 27 28  1  0
M  END
