
     RDKit          3D

 29 31  0  0  0  0  0  0  0  0999 V2000
   -4.9550    4.8160    0.2120 C   0  0  0  0  0  0  0  0  0  0  0  0
   -5.0200    3.3490    0.1280 C   0  0  0  0  0  0  0  0  0  0  0  0
   -6.1190    2.7570    0.0980 O   0  0  0  0  0  0  0  0  0  0  0  0
   -3.7970    2.5640    0.0790 C   0  0  0  0  0  0  0  0  0  0  0  0
   -3.8300    1.2560    0.0030 C   0  0  0  0  0  0  0  0  0  0  0  0
   -2.5930    0.4950   -0.0450 C   0  0  0  0  0  0  0  0  0  0  0  0
   -1.3420    1.0450   -0.0130 C   0  0  0  0  0  0  0  0  0  0  0  0
   -0.1820    0.2910   -0.0630 C   0  0  0  0  0  0  0  0  0  0  0  0
    1.1720    0.8960   -0.0250 C   0  0  0  0  0  0  0  0  0  0  0  0
    1.5190    1.1230    1.3490 N   0  0  0  0  0  0  0  0  0  0  0  0
    2.6690    0.3920    1.8140 C   0  0  1  0  0  0  0  0  0  0  0  0
    2.2180   -0.8880    2.5310 C   0  0  0  0  0  0  0  0  0  0  0  0
    3.6640    0.0900    0.7680 C   0  0  0  0  0  0  0  0  0  0  0  0
    3.9330   -1.2390    0.4710 C   0  0  0  0  0  0  0  0  0  0  0  0
    4.8550   -1.5960   -0.5060 C   0  0  0  0  0  0  0  0  0  0  0  0
    5.1440   -3.0310   -0.8260 C   0  0  0  0  0  0  0  0  0  0  0  0
    5.5060   -0.5830   -1.1840 C   0  0  0  0  0  0  0  0  0  0  0  0
    5.2680    0.7480   -0.9200 C   0  0  0  0  0  0  0  0  0  0  0  0
    5.9980    1.7650   -1.6780 C   0  0  0  0  0  0  0  0  0  0  0  0
    4.3320    1.0730    0.0710 C   0  0  0  0  0  0  0  0  0  0  0  0
    4.0890    2.4900    0.3480 C   0  0  0  0  0  0  0  0  0  0  0  0
   -0.3610   -1.0670   -0.1490 C   0  0  0  0  0  0  0  0  0  0  0  0
   -1.6150   -1.6520   -0.1830 C   0  0  0  0  0  0  0  0  0  0  0  0
   -2.7560   -0.9120   -0.1340 C   0  0  0  0  0  0  0  0  0  0  0  0
   -4.0220   -1.4390   -0.1630 O   0  0  0  0  0  0  0  0  0  0  0  0
   -4.2890   -2.7960   -0.2540 C   0  0  2  0  0  0  0  0  0  0  0  0
   -5.3260   -3.0100   -1.3770 C   0  0  0  0  0  0  0  0  0  0  0  0
   -6.3980   -2.8850   -0.2890 C   0  0  0  0  0  0  0  0  0  0  0  0
   -5.3530   -3.2970    0.7240 C   0  0  0  0  0  0  0  0  0  0  0  0
  1  2  1  0
  2  3  2  0
  2  4  1  0
  4  5  2  3
  5  6  1  0
  6  7  2  0
  6 24  1  0
  7  8  1  0
  8  9  1  0
  8 22  2  0
  9 10  1  0
 10 11  1  0
 11 12  1  6
 11 13  1  0
 13 14  2  0
 13 20  1  0
 14 15  1  0
 15 16  1  0
 15 17  2  0
 17 18  1  0
 18 19  1  0
 18 20  2  0
 20 21  1  0
 22 23  1  0
 23 24  2  0
 24 25  1  0
 26 25  1  1
 26 27  1  0
 26 29  1  0
 27 28  1  0
 28 29  1  0
M  CHG  1  10   1
M  END
