
     RDKit          3D

 29 31  0  0  0  0  0  0  0  0999 V2000
    8.6740    0.1920   -0.2260 C   0  0  0  0  0  0  0  0  0  0  0  0
    7.6960    0.9440    0.6870 C   0  0  0  0  0  0  0  0  0  0  0  0
    6.3380    0.5190    0.2640 C   0  0  0  0  0  0  0  0  0  0  0  0
    5.6610    1.2190   -0.7180 C   0  0  0  0  0  0  0  0  0  0  0  0
    4.3930    0.8160   -1.1080 C   0  0  0  0  0  0  0  0  0  0  0  0
    3.7790   -0.2770   -0.5380 C   0  0  0  0  0  0  0  0  0  0  0  0
    2.4220   -0.6840   -0.9750 C   0  0  0  0  0  0  0  0  0  0  0  0
    1.3710   -0.2850    0.0420 C   0  0  0  0  0  0  0  0  0  0  0  0
    0.0030   -0.7090   -0.4250 C   0  0  0  0  0  0  0  0  0  0  0  0
   -0.0750   -1.2720   -1.4820 O   0  0  0  0  0  0  0  0  0  0  0  0
   -1.1500   -0.3910    0.4760 C   0  0  0  0  0  0  0  0  0  0  0  0
   -2.4360   -0.7650   -0.0440 C   0  0  1  0  0  0  0  0  0  0  0  0
   -3.4780   -0.4120    0.9730 C   0  0  0  0  0  0  0  0  0  0  0  0
   -4.3420   -1.3150    1.5400 C   0  0  0  0  0  0  0  0  0  0  0  0
   -5.3010   -0.9590    2.4770 C   0  0  0  0  0  0  0  0  0  0  0  0
   -5.4040    0.3630    2.8690 C   0  0  0  0  0  0  0  0  0  0  0  0
   -6.4180    0.7740    3.8680 C   0  0  0  0  0  0  0  0  0  0  0  0
   -4.5530    1.2810    2.3180 C   0  0  0  0  0  0  0  0  0  0  0  0
   -3.5890    0.8930    1.3700 C   0  0  0  0  0  0  0  0  0  0  0  0
   -2.9970   -0.4390   -1.3110 C   0  0  0  0  0  0  0  0  0  0  0  0
   -4.0440   -1.2900   -1.7380 C   0  0  0  0  0  0  0  0  0  0  0  0
   -4.7080   -1.1300   -2.9200 C   0  0  0  0  0  0  0  0  0  0  0  0
   -4.3770   -0.1310   -3.7350 N   0  0  0  0  0  0  0  0  0  0  0  0
   -3.3930    0.6900   -3.3610 C   0  0  0  0  0  0  0  0  0  0  0  0
   -2.6840    0.5590   -2.1510 C   0  0  0  0  0  0  0  0  0  0  0  0
   -1.6280    1.4930   -1.8260 C   0  0  0  0  0  0  0  0  0  0  0  0
    4.4450   -0.9830    0.4420 C   0  0  0  0  0  0  0  0  0  0  0  0
    3.8600   -2.1040    1.0530 O   0  0  0  0  0  0  0  0  0  0  0  0
    5.7210   -0.5580    0.8190 C   0  0  0  0  0  0  0  0  0  0  0  0
  1  2  1  0
  2  3  1  0
  3  4  2  0
  3 29  1  0
  4  5  1  0
  5  6  2  0
  6  7  1  0
  6 27  1  0
  7  8  1  0
  8  9  1  0
  9 10  2  0
  9 11  1  0
 12 11  1  1
 12 13  1  0
 12 20  1  0
 13 14  2  0
 13 19  1  0
 14 15  1  0
 15 16  2  0
 16 17  1  0
 16 18  1  0
 18 19  2  0
 20 21  2  0
 20 25  1  0
 21 22  1  0
 22 23  2  0
 23 24  1  0
 24 25  2  0
 25 26  1  0
 27 28  1  0
 27 29  2  0
M  CHG  1  23   1
M  END
