
     RDKit          3D

 29 31  0  0  0  0  0  0  0  0999 V2000
    9.4060   -0.4570    0.0140 C   0  0  0  0  0  0  0  0  0  0  0  0
    8.8060    0.9040    0.2920 C   0  0  0  0  0  0  0  0  0  0  0  0
    7.3240    0.8990    0.1900 C   0  0  0  0  0  0  0  0  0  0  0  0
    6.7040    1.1700   -1.0170 C   0  0  0  0  0  0  0  0  0  0  0  0
    5.3090    1.1630   -1.0980 C   0  0  0  0  0  0  0  0  0  0  0  0
    4.5270    0.8910    0.0000 C   0  0  0  0  0  0  0  0  0  0  0  0
    3.0630    0.8830   -0.0840 C   0  0  0  0  0  0  0  0  0  0  0  0
    2.4540    1.1230   -1.1510 O   0  0  0  0  0  0  0  0  0  0  0  0
    2.2990    0.6040    1.0400 O   0  0  0  0  0  0  0  0  0  0  0  0
    0.9080    0.5720    1.0600 C   0  0  0  0  0  0  0  0  0  0  0  0
    0.3350   -0.4530    0.1340 C   0  0  0  0  0  0  0  0  0  0  0  0
    1.1290   -1.4140   -0.4540 C   0  0  0  0  0  0  0  0  0  0  0  0
    0.5610   -2.3570   -1.3190 C   0  0  0  0  0  0  0  0  0  0  0  0
   -0.7870   -2.3630   -1.6120 C   0  0  0  0  0  0  0  0  0  0  0  0
   -1.5800   -1.4000   -1.0220 C   0  0  0  0  0  0  0  0  0  0  0  0
   -3.0400   -1.3750   -1.3140 C   0  0  0  0  0  0  0  0  0  0  0  0
   -3.7790   -2.1930   -0.4040 N   0  0  0  0  0  0  0  0  0  0  0  0
   -4.3800   -1.4950    0.6910 C   0  0  2  0  0  0  0  0  0  0  0  0
   -5.4040   -2.4270    1.3220 C   0  0  0  0  0  0  0  0  0  0  0  0
   -4.9590   -0.1910    0.3490 C   0  0  0  0  0  0  0  0  0  0  0  0
   -5.7320   -0.0560   -0.7860 C   0  0  0  0  0  0  0  0  0  0  0  0
   -6.2990    1.1560   -1.1490 C   0  0  0  0  0  0  0  0  0  0  0  0
   -6.0750    2.2520   -0.3420 C   0  0  0  0  0  0  0  0  0  0  0  0
   -6.6720    3.5880   -0.6990 C   0  0  0  0  0  0  0  0  0  0  0  0
   -5.3000    2.1060    0.7900 C   0  0  0  0  0  0  0  0  0  0  0  0
   -4.7320    0.9030    1.1590 C   0  0  0  0  0  0  0  0  0  0  0  0
   -1.0060   -0.4820   -0.1750 C   0  0  0  0  0  0  0  0  0  0  0  0
    5.1570    0.6230    1.1940 C   0  0  0  0  0  0  0  0  0  0  0  0
    6.5500    0.6240    1.3010 C   0  0  0  0  0  0  0  0  0  0  0  0
  1  2  1  0
  2  3  1  0
  3  4  2  0
  3 29  1  0
  4  5  1  0
  5  6  2  0
  6  7  1  0
  6 28  1  0
  7  8  2  0
  7  9  1  0
  9 10  1  0
 10 11  1  0
 11 12  2  0
 11 27  1  0
 12 13  1  0
 13 14  2  0
 14 15  1  0
 15 16  1  0
 15 27  2  0
 16 17  1  0
 17 18  1  0
 18 19  1  6
 18 20  1  0
 20 21  2  0
 20 26  1  0
 21 22  1  0
 22 23  2  0
 23 24  1  0
 23 25  1  0
 25 26  2  0
 28 29  2  0
M  CHG  1  17   1
M  END
