
     RDKit          3D

 29 32  0  0  0  0  0  0  0  0999 V2000
   -2.7840    2.5300   -3.0670 C   0  0  0  0  0  0  0  0  0  0  0  0
   -2.3070    1.6560   -1.9610 C   0  0  0  0  0  0  0  0  0  0  0  0
   -1.1340    0.9400   -1.9810 C   0  0  0  0  0  0  0  0  0  0  0  0
   -0.9720    0.2430   -0.8400 N   0  0  0  0  0  0  0  0  0  0  0  0
    0.1230   -0.6010   -0.5220 C   0  0  0  0  0  0  0  0  0  0  0  0
   -0.0370   -1.9650   -0.5240 C   0  0  0  0  0  0  0  0  0  0  0  0
    0.9810   -2.8380   -0.2270 C   0  0  0  0  0  0  0  0  0  0  0  0
    0.7540   -4.1840   -0.2470 F   0  0  0  0  0  0  0  0  0  0  0  0
    2.2380   -2.3740    0.0960 C   0  0  0  0  0  0  0  0  0  0  0  0
    3.2820   -3.3270    0.3990 C   0  0  0  0  0  0  0  0  0  0  0  0
    2.9440   -4.7270    0.3520 N   0  0  0  0  0  0  0  0  0  0  0  0
    4.4640   -3.0810    0.7010 O   0  0  0  0  0  0  0  0  0  0  0  0
    2.4460   -1.0130    0.1110 C   0  0  0  0  0  0  0  0  0  0  0  0
    3.6960   -0.4290    0.4400 N   0  0  0  0  0  0  0  0  0  0  0  0
    3.8120    1.0210    0.3730 C   0  0  1  0  0  0  0  0  0  0  0  0
    5.1800    1.4940    0.8160 C   0  0  0  0  0  0  0  0  0  0  0  0
    5.9480    1.4840   -0.4640 C   0  0  0  0  0  0  0  0  0  0  0  0
    5.0750    1.6850   -1.4950 O   0  0  0  0  0  0  0  0  0  0  0  0
    3.7930    1.4990   -1.0610 C   0  0  0  0  0  0  0  0  0  0  0  0
    1.3860   -0.1490   -0.1980 C   0  0  0  0  0  0  0  0  0  0  0  0
   -2.0580    0.5230   -0.0890 C   0  0  0  0  0  0  0  0  0  0  0  0
   -2.8960    1.3860   -0.7450 C   0  0  0  0  0  0  0  0  0  0  0  0
   -4.1540    1.8630   -0.1680 C   0  0  0  0  0  0  0  0  0  0  0  0
   -4.9620    2.5000   -0.8560 O   0  0  0  0  0  0  0  0  0  0  0  0
   -4.3790    1.5290    1.2810 C   0  0  0  0  0  0  0  0  0  0  0  0
   -3.8790    0.1140    1.4670 C   0  0  2  0  0  0  0  0  0  0  0  0
   -4.5430   -0.7350    0.4030 C   0  0  0  0  0  0  0  0  0  0  0  0
   -4.2840   -0.4480    2.8130 C   0  0  0  0  0  0  0  0  0  0  0  0
   -2.3790    0.0090    1.2760 C   0  0  0  0  0  0  0  0  0  0  0  0
  1  2  1  0
  2  3  2  0
  2 22  1  0
  3  4  1  0
  4  5  1  0
  4 21  1  0
  5  6  2  0
  5 20  1  0
  6  7  1  0
  7  8  1  0
  7  9  2  0
  9 10  1  0
  9 13  1  0
 10 11  1  0
 10 12  2  0
 13 14  1  0
 13 20  2  0
 15 14  1  6
 15 16  1  0
 15 19  1  0
 16 17  1  0
 17 18  1  0
 18 19  1  0
 21 22  2  0
 21 29  1  0
 22 23  1  0
 23 24  2  0
 23 25  1  0
 25 26  1  0
 26 27  1  6
 26 28  1  0
 26 29  1  0
M  END
