
     RDKit          3D

 29 31  0  0  0  0  0  0  0  0999 V2000
    5.6720   -0.3680   -1.1030 C   0  0  0  0  0  0  0  0  0  0  0  0
    5.8340   -0.0630    0.3580 C   0  0  0  0  0  0  0  0  0  0  0  0
    4.5790   -0.2690    1.1540 C   0  0  0  0  0  0  0  0  0  0  0  0
    3.4480    0.5840    0.7870 C   0  0  0  0  0  0  0  0  0  0  0  0
    3.5560    1.4990   -0.1660 C   0  0  0  0  0  0  0  0  0  0  0  0
    2.3580    2.2860   -0.4410 C   0  0  0  0  0  0  0  0  0  0  0  0
    2.4220    3.4980   -0.7890 O   0  0  0  0  0  0  0  0  0  0  0  0
    1.0340    1.6530   -0.3100 C   0  0  0  0  0  0  0  0  0  0  0  0
    0.9970    0.4030    0.5080 C   0  0  2  0  0  0  0  0  0  0  0  0
    1.3690   -0.7230   -0.4630 C   0  0  0  0  0  0  0  0  0  0  0  0
   -0.2940    0.1100    1.2090 C   0  0  0  0  0  0  0  0  0  0  0  0
   -1.4900   -0.0750    0.4310 C   0  0  0  0  0  0  0  0  0  0  0  0
   -2.1530   -1.1910    0.1760 C   0  0  0  0  0  0  0  0  0  0  0  0
   -3.3670   -1.1960   -0.6320 C   0  0  0  0  0  0  0  0  0  0  0  0
   -4.0490   -2.3050   -0.9520 C   0  0  0  0  0  0  0  0  0  0  0  0
   -3.5780   -3.5940   -0.4810 C   0  0  0  0  0  0  0  0  0  0  0  0
   -4.2110   -4.6760   -0.7720 N   0  0  0  0  0  0  0  0  0  0  0  0
   -2.3740   -3.6370    0.3270 C   0  0  0  0  0  0  0  0  0  0  0  0
   -1.7120   -2.5120    0.6310 C   0  0  0  0  0  0  0  0  0  0  0  0
   -0.5740   -2.5850    1.3970 O   0  0  0  0  0  0  0  0  0  0  0  0
   -0.4850   -3.4100    2.5560 C   0  0  0  0  0  0  0  0  0  0  0  0
   -2.0250    1.1600   -0.1930 C   0  0  0  0  0  0  0  0  0  0  0  0
   -2.2260    1.3120   -1.5320 C   0  0  0  0  0  0  0  0  0  0  0  0
   -2.7610    2.4630   -2.0230 C   0  0  0  0  0  0  0  0  0  0  0  0
   -3.1080    3.4920   -1.1750 C   0  0  0  0  0  0  0  0  0  0  0  0
   -3.6920    4.7380   -1.7590 C   0  0  0  0  0  0  0  0  0  0  0  0
   -2.9090    3.3520    0.1890 C   0  0  0  0  0  0  0  0  0  0  0  0
   -2.3700    2.1930    0.6940 C   0  0  0  0  0  0  0  0  0  0  0  0
    2.1550    0.4050    1.5030 C   0  0  0  0  0  0  0  0  0  0  0  0
  1  2  1  0
  2  3  1  0
  3  4  1  0
  4  5  2  0
  4 29  1  0
  5  6  1  0
  6  7  2  0
  6  8  1  0
  8  9  1  0
  9 10  1  6
  9 11  1  0
  9 29  1  0
 11 12  1  0
 12 13  2  3
 12 22  1  0
 13 14  1  0
 13 19  1  0
 14 15  2  0
 15 16  1  0
 16 17  2  0
 16 18  1  0
 18 19  2  0
 19 20  1  0
 20 21  1  0
 22 23  2  0
 22 28  1  0
 23 24  1  0
 24 25  2  0
 25 26  1  0
 25 27  1  0
 27 28  2  0
M  CHG  1  17   1
M  END
