
     RDKit          3D

 29 32  0  0  0  0  0  0  0  0999 V2000
    0.1460   -1.3340   -2.2100 C   0  0  0  0  0  0  0  0  0  0  0  0
    0.4860   -1.2790   -0.7770 C   0  0  0  0  0  0  0  0  0  0  0  0
    1.7430   -1.3070   -0.2300 C   0  0  0  0  0  0  0  0  0  0  0  0
    2.9970   -1.3900   -0.9580 C   0  0  0  0  0  0  0  0  0  0  0  0
    2.9990   -1.4530   -2.2050 O   0  0  0  0  0  0  0  0  0  0  0  0
    4.3100   -1.4040   -0.2760 C   0  0  0  0  0  0  0  0  0  0  0  0
    4.9150   -0.0280   -0.2580 C   0  0  0  0  0  0  0  0  0  0  0  0
    5.2600    0.7210    0.7740 C   0  0  0  0  0  0  0  0  0  0  0  0
    5.8200    2.0110    0.3040 C   0  0  0  0  0  0  0  0  0  0  0  0
    5.7440    1.8930   -1.1660 C   0  0  0  0  0  0  0  0  0  0  0  0
    5.2230    0.7160   -1.4720 C   0  0  0  0  0  0  0  0  0  0  0  0
    1.5390   -1.2320    1.1370 C   0  0  0  0  0  0  0  0  0  0  0  0
    2.5270   -1.2270    2.1030 O   0  0  0  0  0  0  0  0  0  0  0  0
    0.1620   -1.1600    1.3860 C   0  0  0  0  0  0  0  0  0  0  0  0
   -0.4670   -1.1890    0.2100 N   0  0  0  0  0  0  0  0  0  0  0  0
   -1.9120   -1.0940    0.1320 C   0  0  2  0  0  0  0  0  0  0  0  0
   -2.2690    0.3220    0.1520 N   0  0  0  0  0  0  0  0  0  0  0  0
   -3.5840    0.8140   -0.0420 C   0  0  0  0  0  0  0  0  0  0  0  0
   -3.8790    2.1430    0.2090 C   0  0  0  0  0  0  0  0  0  0  0  0
   -5.1270    2.6900    0.0320 C   0  0  0  0  0  0  0  0  0  0  0  0
   -5.4250    4.0120    0.2810 O   0  0  0  0  0  0  0  0  0  0  0  0
   -6.1450    1.8710   -0.4200 C   0  0  0  0  0  0  0  0  0  0  0  0
   -5.8590    0.5470   -0.6730 C   0  0  0  0  0  0  0  0  0  0  0  0
   -7.1640   -0.4620   -1.2440 Cl  0  0  0  0  0  0  0  0  0  0  0  0
   -4.5990    0.0010   -0.4940 C   0  0  0  0  0  0  0  0  0  0  0  0
   -2.5080   -1.7730    1.3340 C   0  0  0  0  0  0  0  0  0  0  0  0
   -2.0130   -1.0770    2.5220 N   0  0  0  0  0  0  0  0  0  0  0  0
   -0.5890   -1.0980    2.6530 C   0  0  0  0  0  0  0  0  0  0  0  0
    0.0100   -1.0660    3.7380 O   0  0  0  0  0  0  0  0  0  0  0  0
  1  2  1  0
  2  3  2  0
  2 15  1  0
  3  4  1  0
  3 12  1  0
  4  5  2  0
  4  6  1  0
  6  7  1  0
  7  8  2  0
  7 11  1  0
  8  9  1  0
  9 10  1  0
 10 11  2  0
 12 13  1  0
 12 14  2  0
 14 15  1  0
 14 28  1  0
 15 16  1  0
 16 17  1  1
 16 26  1  0
 17 18  1  0
 18 19  2  0
 18 25  1  0
 19 20  1  0
 20 21  1  0
 20 22  2  0
 22 23  1  0
 23 24  1  0
 23 25  2  0
 26 27  1  0
 27 28  1  0
 28 29  2  0
M  END
