
     RDKit          3D

 29 32  0  0  0  0  0  0  0  0999 V2000
   -0.5590    3.1480    1.9980 O   0  0  0  0  0  0  0  0  0  0  0  0
   -1.0520    2.1210    1.4830 C   0  0  0  0  0  0  0  0  0  0  0  0
   -2.4540    1.9120    1.4130 N   0  0  0  0  0  0  0  0  0  0  0  0
   -2.9550    0.7220    0.8120 C   0  0  0  0  0  0  0  0  0  0  0  0
   -4.0800    0.1590    1.1750 C   0  0  0  0  0  0  0  0  0  0  0  0
   -4.6440   -1.0520    0.5980 C   0  0  0  0  0  0  0  0  0  0  0  0
   -5.2340   -2.1210    1.2650 C   0  0  0  0  0  0  0  0  0  0  0  0
   -5.6350   -3.0610    0.3430 C   0  0  0  0  0  0  0  0  0  0  0  0
   -5.2700   -2.5260   -0.8760 C   0  0  0  0  0  0  0  0  0  0  0  0
   -4.7020   -1.3650   -0.6650 O   0  0  0  0  0  0  0  0  0  0  0  0
   -2.1510    0.0780   -0.2750 C   0  0  1  0  0  0  0  0  0  0  0  0
   -1.9870    0.9240   -1.4850 C   0  0  0  0  0  0  0  0  0  0  0  0
   -3.2770    1.2990   -2.1490 C   0  0  0  0  0  0  0  0  0  0  0  0
   -3.0730    2.0960   -3.2820 O   0  0  0  0  0  0  0  0  0  0  0  0
   -0.8170   -0.0940    0.3450 N   0  0  0  0  0  0  0  0  0  0  0  0
   -0.1990    1.0460    0.9090 C   0  0  0  0  0  0  0  0  0  0  0  0
    1.1210    1.1930    0.9510 C   0  0  0  0  0  0  0  0  0  0  0  0
    2.1160    0.2990    0.4640 C   0  0  0  0  0  0  0  0  0  0  0  0
    1.7300   -0.7680   -0.1010 O   0  0  0  0  0  0  0  0  0  0  0  0
    3.5460    0.5430    0.5810 C   0  0  0  0  0  0  0  0  0  0  0  0
    4.2060    1.6030    1.1400 C   0  0  0  0  0  0  0  0  0  0  0  0
    3.5530    3.0420    1.9080 Cl  0  0  0  0  0  0  0  0  0  0  0  0
    5.5260    1.3490    1.0010 N   0  0  0  0  0  0  0  0  0  0  0  0
    5.7210    0.1890    0.3860 C   0  0  0  0  0  0  0  0  0  0  0  0
    6.9080   -0.4440    0.0480 C   0  0  0  0  0  0  0  0  0  0  0  0
    6.8310   -1.6750   -0.6030 C   0  0  0  0  0  0  0  0  0  0  0  0
    5.6190   -2.2380   -0.8980 C   0  0  0  0  0  0  0  0  0  0  0  0
    4.4340   -1.5920   -0.5520 C   0  0  0  0  0  0  0  0  0  0  0  0
    4.5030   -0.3790    0.0890 C   0  0  0  0  0  0  0  0  0  0  0  0
  1  2  2  0
  2  3  1  0
  2 16  1  0
  3  4  1  0
  4  5  2  3
  4 11  1  0
  5  6  1  0
  6  7  2  0
  6 10  1  0
  7  8  1  0
  8  9  2  0
  9 10  1  0
 11 12  1  6
 11 15  1  0
 12 13  1  0
 13 14  1  0
 15 16  1  0
 16 17  2  3
 17 18  1  0
 18 19  2  0
 18 20  1  0
 20 21  2  0
 20 29  1  0
 21 22  1  0
 21 23  1  0
 23 24  1  0
 24 25  2  0
 24 29  1  0
 25 26  1  0
 26 27  2  0
 27 28  1  0
 28 29  2  0
M  END
