
     RDKit          3D

 28 31  0  0  0  0  0  0  0  0999 V2000
   -4.6400   -3.3500    1.6500 C   0  0  0  0  0  0  0  0  0  0  0  0
   -3.1470   -3.3430    1.6080 C   0  0  0  0  0  0  0  0  0  0  0  0
   -2.3040   -4.7440    2.2300 Cl  0  0  0  0  0  0  0  0  0  0  0  0
   -2.5100   -2.3130    1.1190 C   0  0  0  0  0  0  0  0  0  0  0  0
   -1.1110   -2.1430    1.0040 C   0  0  0  0  0  0  0  0  0  0  0  0
   -0.2050   -2.9370    1.3450 O   0  0  0  0  0  0  0  0  0  0  0  0
   -0.8690   -0.8960    0.4250 C   0  0  0  0  0  0  0  0  0  0  0  0
    0.2200   -0.1120    0.0370 C   0  0  0  0  0  0  0  0  0  0  0  0
    1.4880   -0.6370    0.2450 N   0  0  0  0  0  0  0  0  0  0  0  0
    2.7280   -0.0110   -0.0750 C   0  0  0  0  0  0  0  0  0  0  0  0
    2.7500    1.1100   -0.5900 O   0  0  0  0  0  0  0  0  0  0  0  0
    3.9660   -0.7830    0.2480 C   0  0  0  0  0  0  0  0  0  0  0  0
    5.2070   -0.0160   -0.1370 C   0  0  0  0  0  0  0  0  0  0  0  0
    6.3920   -0.8230    0.2040 C   0  0  0  0  0  0  0  0  0  0  0  0
    7.6830   -0.3120   -0.0640 N   0  0  0  0  0  0  0  0  0  0  0  0
    6.2620   -1.9470    0.7240 O   0  0  0  0  0  0  0  0  0  0  0  0
   -0.0850    1.1260   -0.5240 C   0  0  0  0  0  0  0  0  0  0  0  0
   -1.3990    1.5990   -0.7080 C   0  0  0  0  0  0  0  0  0  0  0  0
   -1.7390    2.8620   -1.2790 C   0  0  0  0  0  0  0  0  0  0  0  0
   -2.6590    3.8010   -0.8610 C   0  0  0  0  0  0  0  0  0  0  0  0
   -2.6300    4.8510   -1.7290 C   0  0  0  0  0  0  0  0  0  0  0  0
   -1.7300    4.5870   -2.6550 O   0  0  0  0  0  0  0  0  0  0  0  0
   -1.1760    3.4110   -2.4240 C   0  0  0  0  0  0  0  0  0  0  0  0
   -2.4570    0.7910   -0.3090 C   0  0  0  0  0  0  0  0  0  0  0  0
   -3.8110    0.7820   -0.2700 N   0  0  0  0  0  0  0  0  0  0  0  0
   -4.2450   -0.4070    0.2880 C   0  0  0  0  0  0  0  0  0  0  0  0
   -3.1350   -1.1850    0.6160 C   0  0  0  0  0  0  0  0  0  0  0  0
   -2.1050   -0.4030    0.2310 C   0  0  0  0  0  0  0  0  0  0  0  0
  1  2  1  0
  2  3  1  0
  2  4  2  3
  4  5  1  0
  4 27  1  0
  5  6  2  0
  5  7  1  0
  7  8  2  0
  7 28  1  0
  8  9  1  0
  8 17  1  0
  9 10  1  0
 10 11  2  0
 10 12  1  0
 12 13  1  0
 13 14  1  0
 14 15  1  0
 14 16  2  0
 17 18  2  0
 18 19  1  0
 18 24  1  0
 19 20  1  0
 19 23  2  0
 20 21  2  0
 21 22  1  0
 22 23  1  0
 24 25  1  0
 24 28  2  0
 25 26  1  0
 26 27  2  0
 27 28  1  0
M  END
