
     RDKit          3D

 29 32  0  0  0  0  0  0  0  0999 V2000
   -4.6360   -1.6900   -0.6050 C   0  0  0  0  0  0  0  0  0  0  0  0
   -5.9260   -0.9710   -0.6280 C   0  0  0  0  0  0  0  0  0  0  0  0
   -6.1480    0.2050   -0.1120 C   0  0  0  0  0  0  0  0  0  0  0  0
   -7.4340    0.9450   -0.1180 C   0  0  0  0  0  0  0  0  0  0  0  0
   -8.5050    0.5540   -0.6410 O   0  0  0  0  0  0  0  0  0  0  0  0
   -7.2200    2.1600    0.5690 N   0  0  0  0  0  0  0  0  0  0  0  0
   -5.8820    2.1710    0.9750 C   0  0  0  0  0  0  0  0  0  0  0  0
   -5.2250    1.0550    0.5980 C   0  0  0  0  0  0  0  0  0  0  0  0
   -3.8460    0.8810    0.9310 N   0  0  0  0  0  0  0  0  0  0  0  0
   -2.7770    0.8860    0.0230 C   0  0  0  0  0  0  0  0  0  0  0  0
   -3.0150    1.0630   -1.1870 O   0  0  0  0  0  0  0  0  0  0  0  0
   -1.3820    0.6910    0.4260 C   0  0  0  0  0  0  0  0  0  0  0  0
   -0.2780    0.6810   -0.3980 C   0  0  0  0  0  0  0  0  0  0  0  0
    0.8320    0.4650    0.4070 C   0  0  0  0  0  0  0  0  0  0  0  0
    2.2300    0.3700    0.0170 C   0  0  0  0  0  0  0  0  0  0  0  0
    3.0260   -0.6300    0.5320 C   0  0  0  0  0  0  0  0  0  0  0  0
    4.3710   -0.7350    0.1670 C   0  0  0  0  0  0  0  0  0  0  0  0
    5.1460   -1.7410    0.6930 C   0  0  0  0  0  0  0  0  0  0  0  0
    6.4940   -1.9160    0.3820 C   0  0  0  0  0  0  0  0  0  0  0  0
    7.2040   -2.9540    0.9540 O   0  0  0  0  0  0  0  0  0  0  0  0
    7.0370   -1.0090   -0.5030 C   0  0  0  0  0  0  0  0  0  0  0  0
    8.3570   -1.0950   -0.8730 O   0  0  0  0  0  0  0  0  0  0  0  0
    6.2440    0.0120   -1.0340 C   0  0  0  0  0  0  0  0  0  0  0  0
    4.9320    0.1500   -0.7070 C   0  0  0  0  0  0  0  0  0  0  0  0
    4.1380    1.1720   -1.2380 C   0  0  0  0  0  0  0  0  0  0  0  0
    2.8240    1.2510   -0.8650 C   0  0  0  0  0  0  0  0  0  0  0  0
    1.7800    2.5240   -1.5090 Cl  0  0  0  0  0  0  0  0  0  0  0  0
    0.3990    0.3450    1.7110 C   0  0  0  0  0  0  0  0  0  0  0  0
   -0.9190    0.4830    1.6940 N   0  0  0  0  0  0  0  0  0  0  0  0
  1  2  1  0
  2  3  2  3
  3  4  1  0
  3  8  1  0
  4  5  2  0
  4  6  1  0
  6  7  1  0
  7  8  2  0
  8  9  1  0
  9 10  1  0
 10 11  2  0
 10 12  1  0
 12 13  2  0
 12 29  1  0
 13 14  1  0
 14 15  1  0
 14 28  2  0
 15 16  2  0
 15 26  1  0
 16 17  1  0
 17 18  2  0
 17 24  1  0
 18 19  1  0
 19 20  1  0
 19 21  2  0
 21 22  1  0
 21 23  1  0
 23 24  2  0
 24 25  1  0
 25 26  2  0
 26 27  1  0
 28 29  1  0
M  END
