
     RDKit          3D

 29 32  0  0  0  0  0  0  0  0999 V2000
    5.7880   -1.7530   -0.1360 O   0  0  0  0  0  0  0  0  0  0  0  0
    4.6620   -1.8090   -0.6460 C   0  0  0  0  0  0  0  0  0  0  0  0
    3.7540   -0.7460   -0.7870 N   0  0  0  0  0  0  0  0  0  0  0  0
    4.0320    0.5710   -0.3470 C   0  0  0  0  0  0  0  0  0  0  0  0
    5.2650    0.9860    0.0830 C   0  0  0  0  0  0  0  0  0  0  0  0
    5.5450    2.3030    0.4580 C   0  0  0  0  0  0  0  0  0  0  0  0
    4.5020    3.1890    0.3760 C   0  0  0  0  0  0  0  0  0  0  0  0
    3.2560    2.8270   -0.0450 C   0  0  0  0  0  0  0  0  0  0  0  0
    2.9990    1.5190   -0.4110 C   0  0  0  0  0  0  0  0  0  0  0  0
    1.7150    1.1880   -0.8330 O   0  0  0  0  0  0  0  0  0  0  0  0
    0.9760    0.3040   -0.0670 C   0  0  0  0  0  0  0  0  0  0  0  0
    1.4490   -0.2150    1.1090 C   0  0  0  0  0  0  0  0  0  0  0  0
    0.7260   -1.0980    1.8840 C   0  0  0  0  0  0  0  0  0  0  0  0
   -0.5230   -1.4450    1.4160 C   0  0  0  0  0  0  0  0  0  0  0  0
   -1.0400   -0.9490    0.2410 C   0  0  0  0  0  0  0  0  0  0  0  0
   -2.3720   -1.3430   -0.2060 C   0  0  0  0  0  0  0  0  0  0  0  0
   -2.6980   -2.5460   -0.7550 C   0  0  0  0  0  0  0  0  0  0  0  0
   -3.9710   -2.8810   -1.1710 C   0  0  0  0  0  0  0  0  0  0  0  0
   -4.9540   -1.9290   -1.0120 C   0  0  0  0  0  0  0  0  0  0  0  0
   -4.6600   -0.6960   -0.4570 C   0  0  0  0  0  0  0  0  0  0  0  0
   -5.6420    0.2140   -0.3150 N   0  0  0  0  0  0  0  0  0  0  0  0
   -5.3900    1.4270    0.2220 C   0  0  0  0  0  0  0  0  0  0  0  0
   -6.3180    2.2660    0.3480 O   0  0  0  0  0  0  0  0  0  0  0  0
   -4.0820    1.6980    0.6200 C   0  0  0  0  0  0  0  0  0  0  0  0
   -3.8620    2.8280    1.1170 O   0  0  0  0  0  0  0  0  0  0  0  0
   -3.0940    0.8190    0.4910 N   0  0  0  0  0  0  0  0  0  0  0  0
   -3.3800   -0.3890   -0.0510 C   0  0  0  0  0  0  0  0  0  0  0  0
   -0.2920   -0.0720   -0.5070 C   0  0  0  0  0  0  0  0  0  0  0  0
   -0.9470    0.5710   -2.0190 Cl  0  0  0  0  0  0  0  0  0  0  0  0
  1  2  2  0
  2  3  1  0
  3  4  1  0
  4  5  2  0
  4  9  1  0
  5  6  1  0
  6  7  2  0
  7  8  1  0
  8  9  2  0
  9 10  1  0
 10 11  1  0
 11 12  2  0
 11 28  1  0
 12 13  1  0
 13 14  2  0
 14 15  1  0
 15 16  1  0
 15 28  2  0
 16 17  2  0
 16 27  1  0
 17 18  1  0
 18 19  2  0
 19 20  1  0
 20 21  1  0
 20 27  2  0
 21 22  1  0
 22 23  2  0
 22 24  1  0
 24 25  2  0
 24 26  1  0
 26 27  1  0
 28 29  1  0
M  END
