
     RDKit          3D

 30 33  0  0  0  0  0  0  0  0999 V2000
    4.5600    3.2660   -0.2720 C   0  0  0  0  0  0  0  0  0  0  0  0
    3.1670    3.0650   -0.3280 O   0  0  0  0  0  0  0  0  0  0  0  0
    2.6610    1.7780   -0.1390 C   0  0  0  0  0  0  0  0  0  0  0  0
    3.4940    0.7050    0.1000 C   0  0  0  0  0  0  0  0  0  0  0  0
    2.9890   -0.5700    0.2870 C   0  0  0  0  0  0  0  0  0  0  0  0
    4.0010   -1.8840    0.5800 S   0  0  1  0  0  0  0  0  0  0  0  0
    3.1590   -2.3200    2.4110 O   0  0  0  0  0  0  0  0  0  0  0  0
    4.1970   -3.0250    0.0240 O   0  0  0  0  0  0  0  0  0  0  0  0
    5.3820   -1.2100    1.4960 O   0  0  0  0  0  0  0  0  0  0  0  0
    1.6060   -0.6970    0.2180 C   0  0  0  0  0  0  0  0  0  0  0  0
    1.0960   -1.9530    0.4020 C   0  0  0  0  0  0  0  0  0  0  0  0
   -0.2640   -2.1960    0.3550 C   0  0  0  0  0  0  0  0  0  0  0  0
   -1.1200   -1.1490    0.1180 C   0  0  0  0  0  0  0  0  0  0  0  0
   -2.4870   -1.3300    0.0640 C   0  0  0  0  0  0  0  0  0  0  0  0
   -3.2110   -2.8660    0.2370 S   0  0  2  0  0  0  0  0  0  0  0  0
   -4.7750   -2.8210    0.2510 O   0  0  0  0  0  0  0  0  0  0  0  0
   -2.9760   -2.9370    2.2760 O   0  0  0  0  0  0  0  0  0  0  0  0
   -2.4740   -4.1160   -0.0240 O   0  0  0  0  0  0  0  0  0  0  0  0
   -3.3270   -0.2180   -0.1760 C   0  0  0  0  0  0  0  0  0  0  0  0
   -2.8550    1.0510   -0.3630 C   0  0  0  0  0  0  0  0  0  0  0  0
   -3.7990    2.4580   -0.6600 S   0  0  2  0  0  0  0  0  0  0  0  0
   -5.5510    1.5260   -0.6060 O   0  0  0  0  0  0  0  0  0  0  0  0
   -3.9000    2.9120   -2.1000 O   0  0  0  0  0  0  0  0  0  0  0  0
   -4.0600    3.3810    0.4940 O   0  0  0  0  0  0  0  0  0  0  0  0
   -1.4800    1.2070   -0.3060 C   0  0  0  0  0  0  0  0  0  0  0  0
   -0.9300    2.4560   -0.4840 C   0  0  0  0  0  0  0  0  0  0  0  0
    0.4370    2.6650   -0.4340 C   0  0  0  0  0  0  0  0  0  0  0  0
    1.2870    1.6160   -0.2010 C   0  0  0  0  0  0  0  0  0  0  0  0
    0.7530    0.3450   -0.0170 C   0  0  0  0  0  0  0  0  0  0  0  0
   -0.6170    0.1530   -0.0740 C   0  0  0  0  0  0  0  0  0  0  0  0
  1  2  1  0
  2  3  1  0
  3  4  2  0
  3 28  1  0
  4  5  1  0
  5  6  1  0
  5 10  2  0
  6  7  1  1
  6  8  1  0
  6  9  1  0
 10 11  1  0
 10 29  1  0
 11 12  2  0
 12 13  1  0
 13 14  2  0
 13 30  1  0
 14 15  1  0
 14 19  1  0
 15 16  1  1
 15 17  1  0
 15 18  1  0
 19 20  2  0
 20 21  1  0
 20 25  1  0
 21 22  1  6
 21 23  1  0
 21 24  1  0
 25 26  2  0
 25 30  1  0
 26 27  1  0
 27 28  2  0
 28 29  1  0
 29 30  2  0
M  END
