
     RDKit          3D

 31 34  0  0  0  0  0  0  0  0999 V2000
   -6.0120    1.7330    1.8560 C   0  0  0  0  0  0  0  0  0  0  0  0
   -4.8400    1.4400    2.5920 O   0  0  0  0  0  0  0  0  0  0  0  0
   -3.6470    1.1880    1.9110 C   0  0  0  0  0  0  0  0  0  0  0  0
   -3.5870    1.2170    0.5350 C   0  0  0  0  0  0  0  0  0  0  0  0
   -2.4120    0.9690   -0.1440 C   0  0  0  0  0  0  0  0  0  0  0  0
   -2.3730    1.0040   -1.5210 O   0  0  0  0  0  0  0  0  0  0  0  0
   -3.4780    1.2740   -2.3150 C   0  0  0  0  0  0  0  0  0  0  0  0
   -4.5900    0.2990   -2.1750 C   0  0  0  0  0  0  0  0  0  0  0  0
   -4.5550   -0.9410   -1.5820 C   0  0  0  0  0  0  0  0  0  0  0  0
   -5.8200   -1.4730   -1.6940 C   0  0  0  0  0  0  0  0  0  0  0  0
   -6.5690   -0.5130   -2.3570 C   0  0  0  0  0  0  0  0  0  0  0  0
   -5.8100    0.5170   -2.6240 O   0  0  0  0  0  0  0  0  0  0  0  0
   -1.2080    0.6710    0.5210 C   0  0  0  0  0  0  0  0  0  0  0  0
   -0.0550    0.4310   -0.2600 N   0  0  0  0  0  0  0  0  0  0  0  0
    1.2270    0.1210    0.2340 C   0  0  0  0  0  0  0  0  0  0  0  0
    1.4430    0.0340    1.4400 O   0  0  0  0  0  0  0  0  0  0  0  0
    2.3430   -0.1070   -0.6510 N   0  0  0  0  0  0  0  0  0  0  0  0
    3.6240   -0.4180   -0.1170 C   0  0  0  0  0  0  0  0  0  0  0  0
    3.7850   -0.4970    1.2110 N   0  0  0  0  0  0  0  0  0  0  0  0
    5.0040   -0.7940    1.7490 C   0  0  0  0  0  0  0  0  0  0  0  0
    5.1480   -0.8660    2.9980 O   0  0  0  0  0  0  0  0  0  0  0  0
    6.0810   -1.0150    0.9170 C   0  0  0  0  0  0  0  0  0  0  0  0
    7.3420   -1.3190    1.3940 C   0  0  0  0  0  0  0  0  0  0  0  0
    8.4160   -1.5400    0.5640 C   0  0  0  0  0  0  0  0  0  0  0  0
    8.2440   -1.4570   -0.8040 C   0  0  0  0  0  0  0  0  0  0  0  0
    6.9910   -1.1540   -1.2800 C   0  0  0  0  0  0  0  0  0  0  0  0
    5.9190   -0.9340   -0.4460 C   0  0  0  0  0  0  0  0  0  0  0  0
    4.6880   -0.6370   -0.9030 N   0  0  0  0  0  0  0  0  0  0  0  0
   -1.2850    0.6460    1.8840 C   0  0  0  0  0  0  0  0  0  0  0  0
   -2.4800    0.8980    2.5730 C   0  0  0  0  0  0  0  0  0  0  0  0
   -2.4690    0.8530    3.9260 F   0  0  0  0  0  0  0  0  0  0  0  0
  1  2  1  0
  2  3  1  0
  3  4  2  0
  3 30  1  0
  4  5  1  0
  5  6  1  0
  5 13  2  0
  6  7  1  0
  7  8  1  0
  8  9  2  0
  8 12  1  0
  9 10  1  0
 10 11  2  0
 11 12  1  0
 13 14  1  0
 13 29  1  0
 14 15  1  0
 15 16  2  0
 15 17  1  0
 17 18  1  0
 18 19  2  0
 18 28  1  0
 19 20  1  0
 20 21  2  0
 20 22  1  0
 22 23  2  0
 22 27  1  0
 23 24  1  0
 24 25  2  0
 25 26  1  0
 26 27  2  0
 27 28  1  0
 29 30  2  0
 30 31  1  0
M  END
