
     RDKit          3D

 31 34  0  0  0  0  0  0  0  0999 V2000
    4.7330    4.1260   -0.5900 C   0  0  0  0  0  0  0  0  0  0  0  0
    4.0960    3.8280   -1.7800 O   0  0  0  0  0  0  0  0  0  0  0  0
    3.6590    2.5230   -1.8730 C   0  0  0  0  0  0  0  0  0  0  0  0
    2.6750    2.1340   -0.8230 C   0  0  0  0  0  0  0  0  0  0  0  0
    2.2430    0.7470   -0.9700 N   0  0  0  0  0  0  0  0  0  0  0  0
    1.3070    0.1890   -0.0660 C   0  0  0  0  0  0  0  0  0  0  0  0
    0.9030    0.9990    0.8380 O   0  0  0  0  0  0  0  0  0  0  0  0
    0.8590   -1.1830   -0.1770 C   0  0  0  0  0  0  0  0  0  0  0  0
   -0.3700   -1.6420    0.1970 C   0  0  0  0  0  0  0  0  0  0  0  0
   -1.5850   -1.0140    0.6840 C   0  0  0  0  0  0  0  0  0  0  0  0
   -2.5550   -1.6160    1.4850 C   0  0  0  0  0  0  0  0  0  0  0  0
   -2.5270   -2.9930    2.1050 C   0  0  0  0  0  0  0  0  0  0  0  0
   -3.5410   -0.7720    1.6300 O   0  0  0  0  0  0  0  0  0  0  0  0
   -3.3580    0.3460    1.0170 N   0  0  0  0  0  0  0  0  0  0  0  0
   -4.2210    1.4790    0.9640 C   0  0  0  0  0  0  0  0  0  0  0  0
   -4.7310    2.0090    2.1200 C   0  0  0  0  0  0  0  0  0  0  0  0
   -5.5720    3.1150    2.0470 C   0  0  0  0  0  0  0  0  0  0  0  0
   -5.8680    3.6470    0.8060 C   0  0  0  0  0  0  0  0  0  0  0  0
   -6.6890    4.7320    0.6810 F   0  0  0  0  0  0  0  0  0  0  0  0
   -5.3540    3.1110   -0.3490 C   0  0  0  0  0  0  0  0  0  0  0  0
   -4.5280    2.0220   -0.2560 C   0  0  0  0  0  0  0  0  0  0  0  0
   -2.1420    0.2170    0.4180 C   0  0  0  0  0  0  0  0  0  0  0  0
   -1.6960    1.1630   -0.2660 O   0  0  0  0  0  0  0  0  0  0  0  0
   -0.3030   -3.0050    0.0590 N   0  0  0  0  0  0  0  0  0  0  0  0
    0.9110   -3.3750   -0.3850 C   0  0  0  0  0  0  0  0  0  0  0  0
    1.6680   -2.2640   -0.5470 C   0  0  0  0  0  0  0  0  0  0  0  0
    3.0620   -2.2490   -1.0150 C   0  0  0  0  0  0  0  0  0  0  0  0
    3.7460   -3.5840   -0.8430 C   0  0  0  0  0  0  0  0  0  0  0  0
    2.8560   -4.6860   -1.1260 N   0  0  0  0  0  0  0  0  0  0  0  0
    1.5010   -4.6890   -0.6820 C   0  0  0  0  0  0  0  0  0  0  0  0
    0.8330   -5.7280   -0.5450 O   0  0  0  0  0  0  0  0  0  0  0  0
  1  2  1  0
  2  3  1  0
  3  4  1  0
  4  5  1  0
  5  6  1  0
  6  7  2  0
  6  8  1  0
  8  9  2  0
  8 26  1  0
  9 10  1  0
  9 24  1  0
 10 11  2  0
 10 22  1  0
 11 12  1  0
 11 13  1  0
 13 14  1  0
 14 15  1  0
 14 22  1  0
 15 16  2  0
 15 21  1  0
 16 17  1  0
 17 18  2  0
 18 19  1  0
 18 20  1  0
 20 21  2  0
 22 23  2  0
 24 25  1  0
 25 26  2  0
 25 30  1  0
 26 27  1  0
 27 28  1  0
 28 29  1  0
 29 30  1  0
 30 31  2  0
M  END
