
     RDKit          3D

 29 32  0  0  0  0  0  0  0  0999 V2000
   -6.3240   -2.4040    0.9190 C   0  0  0  0  0  0  0  0  0  0  0  0
   -5.3750   -1.2550    0.7360 C   0  0  0  0  0  0  0  0  0  0  0  0
   -5.8360   -0.1420    0.2270 C   0  0  0  0  0  0  0  0  0  0  0  0
   -7.2000    0.1430   -0.2020 C   0  0  0  0  0  0  0  0  0  0  0  0
   -8.1700   -0.6580   -0.1490 O   0  0  0  0  0  0  0  0  0  0  0  0
   -7.1710    1.4870   -0.6760 N   0  0  0  0  0  0  0  0  0  0  0  0
   -5.8430    1.9890   -0.5360 C   0  0  0  0  0  0  0  0  0  0  0  0
   -5.0550    1.0640   -0.0170 C   0  0  0  0  0  0  0  0  0  0  0  0
   -3.6690    1.3080    0.2300 N   0  0  0  0  0  0  0  0  0  0  0  0
   -2.6290    0.5480   -0.3750 C   0  0  0  0  0  0  0  0  0  0  0  0
   -2.9800   -0.3700   -1.1560 O   0  0  0  0  0  0  0  0  0  0  0  0
   -1.2210    0.8190   -0.1060 C   0  0  0  0  0  0  0  0  0  0  0  0
   -0.1690    0.1310   -0.6510 C   0  0  0  0  0  0  0  0  0  0  0  0
    1.0140    0.6690   -0.1630 C   0  0  0  0  0  0  0  0  0  0  0  0
    2.3860    0.2830   -0.4460 C   0  0  0  0  0  0  0  0  0  0  0  0
    3.2960    0.1630    0.5830 C   0  0  0  0  0  0  0  0  0  0  0  0
    4.5890   -0.2020    0.3130 C   0  0  0  0  0  0  0  0  0  0  0  0
    5.5050   -0.3230    1.3340 C   0  0  0  0  0  0  0  0  0  0  0  0
    6.8150   -0.6880    1.1020 C   0  0  0  0  0  0  0  0  0  0  0  0
    7.6970   -0.7960    2.1680 O   0  0  0  0  0  0  0  0  0  0  0  0
    7.2310   -0.9410   -0.1840 C   0  0  0  0  0  0  0  0  0  0  0  0
    8.5490   -1.3050   -0.3980 O   0  0  0  0  0  0  0  0  0  0  0  0
    6.3360   -0.8260   -1.2240 C   0  0  0  0  0  0  0  0  0  0  0  0
    5.0070   -0.4570   -0.9900 C   0  0  0  0  0  0  0  0  0  0  0  0
    4.1100   -0.3420   -2.0280 C   0  0  0  0  0  0  0  0  0  0  0  0
    2.8080    0.0280   -1.7330 C   0  0  0  0  0  0  0  0  0  0  0  0
    1.6200    0.1910   -3.0190 Cl  0  0  0  0  0  0  0  0  0  0  0  0
    0.6660    1.6950    0.6870 C   0  0  0  0  0  0  0  0  0  0  0  0
   -0.6750    1.7480    0.6900 N   0  0  0  0  0  0  0  0  0  0  0  0
  1  2  1  0
  2  3  2  3
  3  4  1  0
  3  8  1  0
  4  5  2  0
  4  6  1  0
  6  7  1  0
  7  8  2  0
  8  9  1  0
  9 10  1  0
 10 11  2  0
 10 12  1  0
 12 13  2  0
 12 29  1  0
 13 14  1  0
 14 15  1  0
 14 28  2  0
 15 16  2  0
 15 26  1  0
 16 17  1  0
 17 18  2  0
 17 24  1  0
 18 19  1  0
 19 20  1  0
 19 21  2  0
 21 22  1  0
 21 23  1  0
 23 24  2  0
 24 25  1  0
 25 26  2  0
 26 27  1  0
 28 29  1  0
M  END
