
     RDKit          3D

 29 32  0  0  0  0  0  0  0  0999 V2000
   -6.0270   -2.4730   -1.0410 O   0  0  0  0  0  0  0  0  0  0  0  0
   -4.7950   -2.4550   -1.0150 C   0  0  0  0  0  0  0  0  0  0  0  0
   -3.9830   -1.3930   -0.5720 N   0  0  0  0  0  0  0  0  0  0  0  0
   -4.4950   -0.1760   -0.0830 C   0  0  0  0  0  0  0  0  0  0  0  0
   -5.8350    0.1300   -0.0470 C   0  0  0  0  0  0  0  0  0  0  0  0
   -6.2840    1.3650    0.4220 C   0  0  0  0  0  0  0  0  0  0  0  0
   -5.3670    2.2740    0.8500 C   0  0  0  0  0  0  0  0  0  0  0  0
   -3.9970    1.9660    0.8170 C   0  0  0  0  0  0  0  0  0  0  0  0
   -3.5200    0.7650    0.3620 C   0  0  0  0  0  0  0  0  0  0  0  0
   -2.2390    0.4130    0.2960 O   0  0  0  0  0  0  0  0  0  0  0  0
   -1.0060    0.8940    0.4160 C   0  0  0  0  0  0  0  0  0  0  0  0
   -0.6620    2.2190    0.5480 C   0  0  0  0  0  0  0  0  0  0  0  0
    0.6540    2.6810    0.6730 C   0  0  0  0  0  0  0  0  0  0  0  0
    1.6660    1.7460    0.6630 C   0  0  0  0  0  0  0  0  0  0  0  0
    1.3920    0.4090    0.5350 C   0  0  0  0  0  0  0  0  0  0  0  0
    2.4980   -0.5450    0.5690 C   0  0  0  0  0  0  0  0  0  0  0  0
    2.5010   -1.5460    1.5410 C   0  0  0  0  0  0  0  0  0  0  0  0
    3.5350   -2.4510    1.6790 C   0  0  0  0  0  0  0  0  0  0  0  0
    4.6330   -2.3870    0.8280 C   0  0  0  0  0  0  0  0  0  0  0  0
    4.6390   -1.4050   -0.1350 C   0  0  0  0  0  0  0  0  0  0  0  0
    5.6880   -1.3500   -0.9730 N   0  0  0  0  0  0  0  0  0  0  0  0
    5.7230   -0.3990   -1.9580 C   0  0  0  0  0  0  0  0  0  0  0  0
    6.6860   -0.3100   -2.7670 O   0  0  0  0  0  0  0  0  0  0  0  0
    4.7000    0.4850   -2.0880 C   0  0  0  0  0  0  0  0  0  0  0  0
    4.7080    1.3750   -2.9920 O   0  0  0  0  0  0  0  0  0  0  0  0
    3.6420    0.4150   -1.2270 N   0  0  0  0  0  0  0  0  0  0  0  0
    3.5960   -0.5100   -0.2580 C   0  0  0  0  0  0  0  0  0  0  0  0
    0.0900    0.0160    0.4170 C   0  0  0  0  0  0  0  0  0  0  0  0
   -0.2480   -1.7010    0.2820 Cl  0  0  0  0  0  0  0  0  0  0  0  0
  1  2  2  0
  2  3  1  0
  3  4  1  0
  4  5  2  0
  4  9  1  0
  5  6  1  0
  6  7  2  0
  7  8  1  0
  8  9  2  0
  9 10  1  0
 10 11  1  0
 11 12  2  0
 11 28  1  0
 12 13  1  0
 13 14  2  0
 14 15  1  0
 15 16  1  0
 15 28  2  0
 16 17  2  0
 16 27  1  0
 17 18  1  0
 18 19  2  0
 19 20  1  0
 20 21  1  0
 20 27  2  0
 21 22  1  0
 22 23  2  0
 22 24  1  0
 24 25  2  0
 24 26  1  0
 26 27  1  0
 28 29  1  0
M  END
