
     RDKit          3D

 28 31  0  0  0  0  0  0  0  0999 V2000
   -2.2370    5.0770    1.2080 C   0  0  0  0  0  0  0  0  0  0  0  0
   -3.0370    3.9300    0.7720 C   0  0  0  0  0  0  0  0  0  0  0  0
   -4.7810    4.1790    0.6180 Cl  0  0  0  0  0  0  0  0  0  0  0  0
   -2.4910    2.7790    0.5080 C   0  0  0  0  0  0  0  0  0  0  0  0
   -1.1200    2.4300    0.5850 C   0  0  0  0  0  0  0  0  0  0  0  0
   -0.1570    3.1490    0.9180 O   0  0  0  0  0  0  0  0  0  0  0  0
   -0.9950    1.0980    0.2150 C   0  0  0  0  0  0  0  0  0  0  0  0
    0.0000    0.1170    0.0600 C   0  0  0  0  0  0  0  0  0  0  0  0
    1.2890    0.5430    0.3510 N   0  0  0  0  0  0  0  0  0  0  0  0
    2.4290   -0.2920    0.2550 C   0  0  0  0  0  0  0  0  0  0  0  0
    2.3730   -1.4850   -0.0990 O   0  0  0  0  0  0  0  0  0  0  0  0
    3.7960    0.2250    0.5830 C   0  0  0  0  0  0  0  0  0  0  0  0
    4.8140   -0.8660    0.3970 C   0  0  0  0  0  0  0  0  0  0  0  0
    6.1680   -0.4020    0.7080 C   0  0  0  0  0  0  0  0  0  0  0  0
    7.2950   -1.2580    0.6040 N   0  0  0  0  0  0  0  0  0  0  0  0
    6.3570    0.7840    1.0780 O   0  0  0  0  0  0  0  0  0  0  0  0
   -0.4090   -1.1340   -0.3560 C   0  0  0  0  0  0  0  0  0  0  0  0
   -1.7420   -1.4830   -0.6300 C   0  0  0  0  0  0  0  0  0  0  0  0
   -2.1810   -2.7780   -1.0620 C   0  0  0  0  0  0  0  0  0  0  0  0
   -1.5920   -3.5560   -2.0380 C   0  0  0  0  0  0  0  0  0  0  0  0
   -2.3250   -4.7410   -2.1520 C   0  0  0  0  0  0  0  0  0  0  0  0
   -3.2940   -4.6680   -1.2910 O   0  0  0  0  0  0  0  0  0  0  0  0
   -3.2530   -3.5370   -0.6280 C   0  0  0  0  0  0  0  0  0  0  0  0
   -2.7180   -0.5030   -0.4720 C   0  0  0  0  0  0  0  0  0  0  0  0
   -4.0480   -0.3190   -0.5920 N   0  0  0  0  0  0  0  0  0  0  0  0
   -4.3680    0.9820   -0.2560 C   0  0  0  0  0  0  0  0  0  0  0  0
   -3.2040    1.6650    0.0930 C   0  0  0  0  0  0  0  0  0  0  0  0
   -2.2550    0.7050   -0.0620 C   0  0  0  0  0  0  0  0  0  0  0  0
  1  2  1  0
  2  3  1  0
  2  4  2  3
  4  5  1  0
  4 27  1  0
  5  6  2  0
  5  7  1  0
  7  8  2  0
  7 28  1  0
  8  9  1  0
  8 17  1  0
  9 10  1  0
 10 11  2  0
 10 12  1  0
 12 13  1  0
 13 14  1  0
 14 15  1  0
 14 16  2  0
 17 18  2  0
 18 19  1  0
 18 24  1  0
 19 20  1  0
 19 23  2  0
 20 21  2  0
 21 22  1  0
 22 23  1  0
 24 25  1  0
 24 28  2  0
 25 26  1  0
 26 27  2  0
 27 28  1  0
M  END
