
     RDKit          3D

 29 32  0  0  0  0  0  0  0  0999 V2000
   -0.3600    3.3170   -2.0130 O   0  0  0  0  0  0  0  0  0  0  0  0
   -0.9870    2.4550   -1.3780 C   0  0  0  0  0  0  0  0  0  0  0  0
   -2.3990    2.3400   -1.2970 N   0  0  0  0  0  0  0  0  0  0  0  0
   -3.0100    1.2860   -0.5260 C   0  0  0  0  0  0  0  0  0  0  0  0
   -4.1820    1.4670    0.0110 C   0  0  0  0  0  0  0  0  0  0  0  0
   -4.9380    0.5230    0.8160 C   0  0  0  0  0  0  0  0  0  0  0  0
   -4.5070   -0.2430    1.8660 C   0  0  0  0  0  0  0  0  0  0  0  0
   -5.5820   -0.9800    2.3050 C   0  0  0  0  0  0  0  0  0  0  0  0
   -6.6480   -0.6340    1.4980 C   0  0  0  0  0  0  0  0  0  0  0  0
   -6.2350    0.2420    0.6460 O   0  0  0  0  0  0  0  0  0  0  0  0
   -2.2220    0.0290   -0.4420 C   0  0  1  0  0  0  0  0  0  0  0  0
   -2.0290   -0.4690   -1.8520 C   0  0  0  0  0  0  0  0  0  0  0  0
   -1.2360   -1.7520   -1.9060 C   0  0  0  0  0  0  0  0  0  0  0  0
   -1.8320   -2.7800   -1.2180 O   0  0  0  0  0  0  0  0  0  0  0  0
   -0.9220    0.4530    0.1110 N   0  0  0  0  0  0  0  0  0  0  0  0
   -0.2170    1.4300   -0.6180 C   0  0  0  0  0  0  0  0  0  0  0  0
    1.0880    1.4820   -0.6550 C   0  0  0  0  0  0  0  0  0  0  0  0
    1.9290    0.5430    0.0350 C   0  0  0  0  0  0  0  0  0  0  0  0
    1.4240   -0.3850    0.6980 O   0  0  0  0  0  0  0  0  0  0  0  0
    3.3830    0.6480   -0.0230 C   0  0  0  0  0  0  0  0  0  0  0  0
    4.2410    1.5150   -0.6190 C   0  0  0  0  0  0  0  0  0  0  0  0
    3.7730    2.9180   -1.5680 Cl  0  0  0  0  0  0  0  0  0  0  0  0
    5.5470    1.1710   -0.3910 N   0  0  0  0  0  0  0  0  0  0  0  0
    5.5190    0.0680    0.3630 C   0  0  0  0  0  0  0  0  0  0  0  0
    6.5640   -0.6950    0.8750 C   0  0  0  0  0  0  0  0  0  0  0  0
    6.3460   -1.8310    1.6490 C   0  0  0  0  0  0  0  0  0  0  0  0
    5.0490   -2.1730    1.8890 C   0  0  0  0  0  0  0  0  0  0  0  0
    3.9900   -1.4190    1.3830 C   0  0  0  0  0  0  0  0  0  0  0  0
    4.2110   -0.2950    0.6170 C   0  0  0  0  0  0  0  0  0  0  0  0
  1  2  2  0
  2  3  1  0
  2 16  1  0
  3  4  1  0
  4  5  2  3
  4 11  1  0
  5  6  1  0
  6  7  2  0
  6 10  1  0
  7  8  1  0
  8  9  2  0
  9 10  1  0
 11 12  1  6
 11 15  1  0
 12 13  1  0
 13 14  1  0
 15 16  1  0
 16 17  2  3
 17 18  1  0
 18 19  2  0
 18 20  1  0
 20 21  2  0
 20 29  1  0
 21 22  1  0
 21 23  1  0
 23 24  1  0
 24 25  2  0
 24 29  1  0
 25 26  1  0
 26 27  2  0
 27 28  1  0
 28 29  2  0
M  END
