
     RDKit          3D

 29 32  0  0  0  0  0  0  0  0999 V2000
   -5.0050    3.7910   -0.1390 N   0  0  0  0  0  0  0  0  0  0  0  0
   -4.5980    2.4250   -0.1510 C   0  0  0  0  0  0  0  0  0  0  0  0
   -3.3170    2.0950   -0.6300 C   0  0  0  0  0  0  0  0  0  0  0  0
   -2.8300    0.8240   -0.6850 C   0  0  0  0  0  0  0  0  0  0  0  0
   -1.5540    0.4550   -1.1330 N   0  0  0  0  0  0  0  0  0  0  0  0
   -0.5940    1.3360   -1.6720 C   0  0  0  0  0  0  0  0  0  0  0  0
   -0.8340    2.5500   -1.8050 O   0  0  0  0  0  0  0  0  0  0  0  0
    0.7790    0.8040   -2.1130 C   0  0  0  0  0  0  0  0  0  0  0  0
    0.9190   -0.4200   -1.5820 O   0  0  0  0  0  0  0  0  0  0  0  0
    1.0970   -0.6130   -0.2650 C   0  0  0  0  0  0  0  0  0  0  0  0
    2.4550   -0.3800    0.2450 C   0  0  2  0  0  0  0  0  0  0  0  0
    3.1780    0.8070   -0.3170 C   0  0  0  0  0  0  0  0  0  0  0  0
    4.5960    0.4660    0.1490 C   0  0  0  0  0  0  0  0  0  0  0  0
    5.6790    1.1880    0.5280 C   0  0  0  0  0  0  0  0  0  0  0  0
    6.8480    0.5080    0.8600 C   0  0  0  0  0  0  0  0  0  0  0  0
    8.2730    1.3760    1.3540 Cl  0  0  0  0  0  0  0  0  0  0  0  0
    6.8870   -0.8730    0.7980 C   0  0  0  0  0  0  0  0  0  0  0  0
    8.0620   -1.5700    1.1290 N   0  0  0  0  0  0  0  0  0  0  0  0
    5.7690   -1.6160    0.4070 C   0  0  0  0  0  0  0  0  0  0  0  0
    4.6460   -0.9200    0.0910 C   0  0  0  0  0  0  0  0  0  0  0  0
    3.3670   -1.3920   -0.3310 O   0  0  0  0  0  0  0  0  0  0  0  0
   -3.6810   -0.1960   -0.2310 C   0  0  0  0  0  0  0  0  0  0  0  0
   -4.9560    0.1000    0.2500 C   0  0  0  0  0  0  0  0  0  0  0  0
   -5.3990    1.4040    0.2840 C   0  0  0  0  0  0  0  0  0  0  0  0
   -5.8230   -0.9690    0.7320 C   0  0  0  0  0  0  0  0  0  0  0  0
   -7.0490   -0.8120    0.8080 O   0  0  0  0  0  0  0  0  0  0  0  0
   -5.1410   -2.2460    1.1210 C   0  0  0  0  0  0  0  0  0  0  0  0
   -4.2430   -2.6180   -0.0260 C   0  0  0  0  0  0  0  0  0  0  0  0
   -3.2000   -1.5820   -0.2890 C   0  0  0  0  0  0  0  0  0  0  0  0
  1  2  1  0
  2  3  2  0
  2 24  1  0
  3  4  1  0
  4  5  1  0
  4 22  2  0
  5  6  1  0
  6  7  2  0
  6  8  1  0
  8  9  1  0
  9 10  1  0
 11 10  1  6
 11 12  1  0
 11 21  1  0
 12 13  1  0
 13 14  2  0
 13 20  1  0
 14 15  1  0
 15 16  1  0
 15 17  2  0
 17 18  1  0
 17 19  1  0
 19 20  2  0
 20 21  1  0
 22 23  1  0
 22 29  1  0
 23 24  2  0
 23 25  1  0
 25 26  2  0
 25 27  1  0
 27 28  1  0
 28 29  1  0
M  END
