
     RDKit          3D

 31 34  0  0  0  0  0  0  0  0999 V2000
   -6.4810   -1.0600   -0.5730 C   0  0  0  0  0  0  0  0  0  0  0  0
   -5.3740   -1.1320   -1.4190 O   0  0  0  0  0  0  0  0  0  0  0  0
   -4.0630   -0.9490   -1.0410 C   0  0  0  0  0  0  0  0  0  0  0  0
   -3.7610   -0.6670    0.2850 C   0  0  0  0  0  0  0  0  0  0  0  0
   -2.4840   -0.4790    0.7060 C   0  0  0  0  0  0  0  0  0  0  0  0
   -2.1930   -0.2060    1.9930 O   0  0  0  0  0  0  0  0  0  0  0  0
   -2.9600   -0.0470    3.1220 C   0  0  0  0  0  0  0  0  0  0  0  0
   -3.9430    1.0430    3.1130 C   0  0  0  0  0  0  0  0  0  0  0  0
   -3.6750    2.3820    3.1410 C   0  0  0  0  0  0  0  0  0  0  0  0
   -4.8810    3.0470    3.1210 C   0  0  0  0  0  0  0  0  0  0  0  0
   -5.8440    2.0670    3.0820 C   0  0  0  0  0  0  0  0  0  0  0  0
   -5.2380    0.9060    3.0780 O   0  0  0  0  0  0  0  0  0  0  0  0
   -1.4300   -0.5690   -0.2170 C   0  0  0  0  0  0  0  0  0  0  0  0
   -0.1010   -0.3690    0.2460 N   0  0  0  0  0  0  0  0  0  0  0  0
    1.0610   -0.4140   -0.5080 C   0  0  0  0  0  0  0  0  0  0  0  0
    1.0480   -0.6450   -1.7180 O   0  0  0  0  0  0  0  0  0  0  0  0
    2.3720   -0.1930    0.0730 N   0  0  0  0  0  0  0  0  0  0  0  0
    3.5430   -0.2460   -0.7250 C   0  0  0  0  0  0  0  0  0  0  0  0
    3.4530   -0.5030   -2.0410 N   0  0  0  0  0  0  0  0  0  0  0  0
    4.5640   -0.5570   -2.8240 C   0  0  0  0  0  0  0  0  0  0  0  0
    4.4930   -0.7970   -4.0530 O   0  0  0  0  0  0  0  0  0  0  0  0
    5.8110   -0.3500   -2.2900 C   0  0  0  0  0  0  0  0  0  0  0  0
    6.9570   -0.3970   -3.0530 C   0  0  0  0  0  0  0  0  0  0  0  0
    8.1920   -0.1840   -2.4840 C   0  0  0  0  0  0  0  0  0  0  0  0
    8.2480    0.0780   -1.1270 C   0  0  0  0  0  0  0  0  0  0  0  0
    7.1190    0.1300   -0.3460 C   0  0  0  0  0  0  0  0  0  0  0  0
    5.8870   -0.0830   -0.9190 C   0  0  0  0  0  0  0  0  0  0  0  0
    4.7400   -0.0430   -0.1920 N   0  0  0  0  0  0  0  0  0  0  0  0
   -1.7500   -0.8480   -1.5210 C   0  0  0  0  0  0  0  0  0  0  0  0
   -3.0480   -1.0420   -1.9610 C   0  0  0  0  0  0  0  0  0  0  0  0
   -3.3030   -1.3180   -3.2800 F   0  0  0  0  0  0  0  0  0  0  0  0
  1  2  1  0
  2  3  1  0
  3  4  2  0
  3 30  1  0
  4  5  1  0
  5  6  1  0
  5 13  2  0
  6  7  1  0
  7  8  1  0
  8  9  2  0
  8 12  1  0
  9 10  1  0
 10 11  2  0
 11 12  1  0
 13 14  1  0
 13 29  1  0
 14 15  1  0
 15 16  2  0
 15 17  1  0
 17 18  1  0
 18 19  2  0
 18 28  1  0
 19 20  1  0
 20 21  2  0
 20 22  1  0
 22 23  2  0
 22 27  1  0
 23 24  1  0
 24 25  2  0
 25 26  1  0
 26 27  2  0
 27 28  1  0
 29 30  2  0
 30 31  1  0
M  END
