
     RDKit          3D

 30 33  0  0  0  0  0  0  0  0999 V2000
    5.1450   -2.3780   -0.0970 C   0  0  0  0  0  0  0  0  0  0  0  0
    3.7460   -2.3640   -0.0820 O   0  0  0  0  0  0  0  0  0  0  0  0
    2.9940   -1.2240   -0.0430 C   0  0  0  0  0  0  0  0  0  0  0  0
    3.5860    0.0180   -0.0130 C   0  0  0  0  0  0  0  0  0  0  0  0
    2.8330    1.1890    0.0280 C   0  0  0  0  0  0  0  0  0  0  0  0
    3.5970    2.7290    0.0640 S   0  0  2  0  0  0  0  0  0  0  0  0
    2.9130    3.3590    1.6960 O   0  0  0  0  0  0  0  0  0  0  0  0
    3.2500    3.6950   -0.9430 O   0  0  0  0  0  0  0  0  0  0  0  0
    5.1260    2.5550    0.5360 O   0  0  0  0  0  0  0  0  0  0  0  0
    1.4610    1.0890    0.0380 C   0  0  0  0  0  0  0  0  0  0  0  0
    0.7240    2.2730    0.0790 C   0  0  0  0  0  0  0  0  0  0  0  0
   -0.6440    2.1730    0.0900 C   0  0  0  0  0  0  0  0  0  0  0  0
   -1.2930    0.9620    0.0620 C   0  0  0  0  0  0  0  0  0  0  0  0
   -2.6960    0.9600    0.0760 C   0  0  0  0  0  0  0  0  0  0  0  0
   -3.5010    2.3960    0.1250 S   0  0  2  0  0  0  0  0  0  0  0  0
   -5.3700    1.5710    0.1200 O   0  0  0  0  0  0  0  0  0  0  0  0
   -3.6090    3.3650   -0.6100 O   0  0  0  0  0  0  0  0  0  0  0  0
   -3.7270    2.7060    1.9210 O   0  0  0  0  0  0  0  0  0  0  0  0
   -3.2530   -0.2920    0.0460 C   0  0  0  0  0  0  0  0  0  0  0  0
   -2.5190   -1.4760    0.0050 C   0  0  0  0  0  0  0  0  0  0  0  0
   -3.3390   -3.0320   -0.0310 S   0  0  1  0  0  0  0  0  0  0  0  0
   -2.9790   -3.9230    1.1630 O   0  0  0  0  0  0  0  0  0  0  0  0
   -4.9970   -2.6050    0.0820 O   0  0  0  0  0  0  0  0  0  0  0  0
   -3.1090   -3.6860   -1.4680 O   0  0  0  0  0  0  0  0  0  0  0  0
   -1.1420   -1.4470   -0.0080 C   0  0  0  0  0  0  0  0  0  0  0  0
   -0.3560   -2.5850   -0.0480 C   0  0  0  0  0  0  0  0  0  0  0  0
    1.0140   -2.5450   -0.0600 C   0  0  0  0  0  0  0  0  0  0  0  0
    1.6190   -1.2990   -0.0310 C   0  0  0  0  0  0  0  0  0  0  0  0
    0.8460   -0.1510    0.0090 C   0  0  0  0  0  0  0  0  0  0  0  0
   -0.5440   -0.1910    0.0220 C   0  0  0  0  0  0  0  0  0  0  0  0
  1  2  1  0
  2  3  1  0
  3  4  2  0
  3 28  1  0
  4  5  1  0
  5  6  1  0
  5 10  2  0
  6  7  1  1
  6  8  1  0
  6  9  1  0
 10 11  1  0
 10 29  1  0
 11 12  2  0
 12 13  1  0
 13 14  2  0
 13 30  1  0
 14 15  1  0
 14 19  1  0
 15 16  1  6
 15 17  1  0
 15 18  1  0
 19 20  2  0
 20 21  1  0
 20 25  1  0
 21 22  1  1
 21 23  1  0
 21 24  1  0
 25 26  2  0
 25 30  1  0
 26 27  1  0
 27 28  2  0
 28 29  1  0
 29 30  2  0
M  END
