
     RDKit          3D

 29 30  0  0  0  0  0  0  0  0999 V2000
    2.8010   -0.2430    1.1370 O   0  0  0  0  0  0  0  0  0  0  0  0
    2.0500   -0.2590    0.1300 C   0  0  0  0  0  0  0  0  0  0  0  0
    2.5870   -0.7650   -1.0850 N   0  0  0  0  0  0  0  0  0  0  0  0
    3.9020   -1.2490   -1.2380 C   0  0  0  0  0  0  0  0  0  0  0  0
    4.6470   -1.2260   -0.2100 O   0  0  0  0  0  0  0  0  0  0  0  0
    4.4030   -1.7400   -2.4480 O   0  0  0  0  0  0  0  0  0  0  0  0
    6.0690   -2.3020   -2.4520 P   0  0  0  0  0  0  0  0  0  0  0  0
    7.1900   -1.0680   -2.0980 O   0  0  0  0  0  0  0  0  0  0  0  0
    6.1950   -3.6870   -1.4510 O   0  0  0  0  0  0  0  0  0  0  0  0
    0.7560    0.2140    0.2700 O   0  0  0  0  0  0  0  0  0  0  0  0
    0.2550    0.7060    1.4770 C   0  0  0  0  0  0  0  0  0  0  0  0
    0.9840    0.7430    2.5360 N   0  0  0  0  0  0  0  0  0  0  0  0
    0.2750    1.2720    3.6150 O   0  0  0  0  0  0  0  0  0  0  0  0
   -0.7480    2.1110    3.0340 C   0  0  1  0  0  0  0  0  0  0  0  0
    0.0770    3.6780    2.5330 P   0  0  0  0  0  0  0  0  0  0  0  0
    1.6020    3.2770    1.7670 O   0  0  0  0  0  0  0  0  0  0  0  0
   -0.8470    4.5650    1.3650 O   0  0  0  0  0  0  0  0  0  0  0  0
   -1.0560    1.2380    1.8200 C   0  0  1  0  0  0  0  0  0  0  0  0
   -1.6980    1.9290    0.8310 O   0  0  0  0  0  0  0  0  0  0  0  0
   -2.8660    1.3740    0.6140 O   0  0  0  0  0  0  0  0  0  0  0  0
   -2.8530    0.2510   -0.1710 C   0  0  1  0  0  0  0  0  0  0  0  0
   -3.6330   -0.9000    0.4560 C   0  0  0  0  0  0  0  0  0  0  0  0
   -3.1660   -2.1740   -0.0640 N   0  0  0  0  0  0  0  0  0  0  0  0
   -3.0200   -2.4530   -1.4700 C   0  0  0  0  0  0  0  0  0  0  0  0
   -2.7560   -3.6560   -1.7180 O   0  0  0  0  0  0  0  0  0  0  0  0
   -3.1350   -1.5500   -2.6100 C   0  0  0  0  0  0  0  0  0  0  0  0
   -3.1850   -2.0930   -3.7430 O   0  0  0  0  0  0  0  0  0  0  0  0
   -3.1930   -0.1650   -2.5380 O   0  0  0  0  0  0  0  0  0  0  0  0
   -3.6280    0.6020   -1.4500 C   0  0  0  0  0  0  0  0  0  0  0  0
  1  2  2  0
  2  3  1  0
  2 10  1  0
  3  4  1  0
  4  5  2  0
  4  6  1  0
  6  7  1  0
  7  8  1  0
  7  9  1  0
 10 11  1  0
 11 12  2  0
 11 18  1  0
 12 13  1  0
 13 14  1  0
 14 15  1  6
 14 18  1  0
 15 16  1  0
 15 17  1  0
 18 19  1  6
 19 20  1  0
 21 20  1  1
 21 22  1  0
 21 29  1  0
 22 23  1  0
 23 24  1  0
 24 25  2  0
 24 26  1  0
 26 27  2  0
 26 28  1  0
 28 29  1  0
M  END
