
     RDKit          3D

 29 30  0  0  0  0  0  0  0  0999 V2000
   -8.6030   -0.1840    0.1200 O   0  0  0  0  0  0  0  0  0  0  0  0
   -7.3290   -0.2570    0.1400 C   0  0  0  0  0  0  0  0  0  0  0  0
   -6.7390   -1.0600   -0.7720 C   0  0  0  0  0  0  0  0  0  0  0  0
   -5.3360   -1.1160   -0.7280 C   0  0  0  0  0  0  0  0  0  0  0  0
   -4.6530   -0.4100    0.1750 N   0  0  0  0  0  0  0  0  0  0  0  0
   -3.2190   -0.3750    0.0160 C   0  0  2  0  0  0  0  0  0  0  0  0
   -2.4920    0.1650    1.0690 O   0  0  0  0  0  0  0  0  0  0  0  0
   -1.3570    0.5280    0.4270 C   0  0  2  0  0  0  0  0  0  0  0  0
   -0.1220    0.9300    1.1090 C   0  0  0  0  0  0  0  0  0  0  0  0
    0.4270   -0.1040    1.8620 O   0  0  0  0  0  0  0  0  0  0  0  0
    1.7740   -0.5770    1.0300 P   0  0  0  0  0  0  0  0  0  0  0  0
    1.8710   -0.1900   -0.5970 O   0  0  0  0  0  0  0  0  0  0  0  0
    2.7210   -1.7990    1.5830 O   0  0  0  0  0  0  0  0  0  0  0  0
    2.8180    0.4990    1.4470 N   0  0  0  0  0  0  0  0  0  0  0  0
    4.1720    0.8390    0.6100 P   0  0  0  0  0  0  0  0  0  0  0  0
    4.3160    2.3420    1.2720 O   0  0  0  0  0  0  0  0  0  0  0  0
    4.9390   -0.4410    1.3190 O   0  0  0  0  0  0  0  0  0  0  0  0
    5.4510    1.0880   -0.1790 O   0  0  0  0  0  0  0  0  0  0  0  0
    6.3090    0.0330   -1.0610 P   0  0  0  0  0  0  0  0  0  0  0  0
    5.3840   -1.1430   -0.7810 O   0  0  0  0  0  0  0  0  0  0  0  0
    7.5700   -0.8490   -0.3650 O   0  0  0  0  0  0  0  0  0  0  0  0
    6.1970   -0.0590   -2.7060 O   0  0  0  0  0  0  0  0  0  0  0  0
   -1.8020    1.4430   -0.6590 C   0  0  1  0  0  0  0  0  0  0  0  0
   -0.9820    1.3330   -1.7910 O   0  0  0  0  0  0  0  0  0  0  0  0
   -3.0980    0.7920   -1.0420 C   0  0  1  0  0  0  0  0  0  0  0  0
   -3.1230    0.2080   -2.2790 O   0  0  0  0  0  0  0  0  0  0  0  0
   -5.2600    0.3610    1.0590 C   0  0  0  0  0  0  0  0  0  0  0  0
   -4.6530    1.0100    1.9090 O   0  0  0  0  0  0  0  0  0  0  0  0
   -6.6410    0.4600    1.0610 N   0  0  0  0  0  0  0  0  0  0  0  0
  1  2  2  0
  2  3  1  0
  2 29  1  0
  3  4  2  0
  4  5  1  0
  6  5  1  1
  5 27  1  0
  6  7  1  0
  6 25  1  0
  7  8  1  0
  8  9  1  1
  8 23  1  0
  9 10  1  0
 10 11  1  0
 11 12  1  0
 11 13  1  0
 11 14  1  0
 14 15  1  0
 15 16  1  0
 15 17  1  0
 15 18  1  0
 18 19  1  0
 19 20  1  0
 19 21  1  0
 19 22  1  0
 23 24  1  6
 23 25  1  0
 25 26  1  6
 27 28  2  0
 27 29  1  0
M  END
