
     RDKit          3D

 29 30  0  0  0  0  0  0  0  0999 V2000
   -5.9430    1.0310   -1.0630 O   0  0  0  0  0  0  0  0  0  0  0  0
   -4.7660    0.7840   -0.6980 C   0  0  0  0  0  0  0  0  0  0  0  0
   -3.9490    1.8580   -0.4070 O   0  0  0  0  0  0  0  0  0  0  0  0
   -4.3320   -0.6050   -0.6010 C   0  0  0  0  0  0  0  0  0  0  0  0
   -3.0390   -0.8250   -0.2280 O   0  0  0  0  0  0  0  0  0  0  0  0
   -2.0550   -0.3360   -1.0360 C   0  0  0  0  0  0  0  0  0  0  0  0
   -0.7200   -0.7370   -0.3820 C   0  0  1  0  0  0  0  0  0  0  0  0
   -0.7240   -0.1330    0.9040 N   0  0  0  0  0  0  0  0  0  0  0  0
   -0.3840    1.2290    1.0990 C   0  0  0  0  0  0  0  0  0  0  0  0
   -0.9530    1.9180    2.0140 O   0  0  0  0  0  0  0  0  0  0  0  0
    0.6260    1.9610    0.2920 C   0  0  0  0  0  0  0  0  0  0  0  0
    1.7820    2.8630    1.4400 P   0  0  0  0  0  0  0  0  0  0  0  0
    1.2930    4.4960    1.6970 O   0  0  0  0  0  0  0  0  0  0  0  0
    1.3240    5.1670    0.5650 O   0  0  0  0  0  0  0  0  0  0  0  0
    3.4030    2.8840    0.7650 O   0  0  0  0  0  0  0  0  0  0  0  0
    3.9040    1.7040    0.9360 O   0  0  0  0  0  0  0  0  0  0  0  0
    4.4860    1.1690   -0.1130 O   0  0  0  0  0  0  0  0  0  0  0  0
    3.9620    0.3360   -1.0650 C   0  0  0  0  0  0  0  0  0  0  0  0
    4.2950    0.5900   -2.2810 O   0  0  0  0  0  0  0  0  0  0  0  0
    3.0940   -0.7660   -0.8200 N   0  0  0  0  0  0  0  0  0  0  0  0
    3.1460   -1.6520    0.2930 C   0  0  0  0  0  0  0  0  0  0  0  0
    2.0550   -1.5040    1.2800 C   0  0  0  0  0  0  0  0  0  0  0  0
    2.1420   -0.5550    2.0970 O   0  0  0  0  0  0  0  0  0  0  0  0
    0.9450   -2.3120    1.3890 O   0  0  0  0  0  0  0  0  0  0  0  0
    0.1770   -2.9050    0.4510 C   0  0  0  0  0  0  0  0  0  0  0  0
   -0.5880   -2.2020   -0.3650 C   0  0  0  0  0  0  0  0  0  0  0  0
   -1.2390   -3.1320   -1.2010 O   0  0  0  0  0  0  0  0  0  0  0  0
   -0.5170   -4.2350   -1.1870 O   0  0  0  0  0  0  0  0  0  0  0  0
   -0.0550   -4.2680    0.0630 N   0  0  0  0  0  0  0  0  0  0  0  0
  1  2  2  0
  2  3  1  0
  2  4  1  0
  4  5  1  0
  5  6  1  0
  7  6  1  1
  7  8  1  0
  7 26  1  0
  8  9  1  0
  9 10  2  0
  9 11  1  0
 11 12  1  0
 12 13  1  0
 12 15  1  0
 13 14  1  0
 15 16  1  0
 16 17  1  0
 17 18  1  0
 18 19  2  0
 18 20  1  0
 20 21  1  0
 21 22  1  0
 22 23  2  0
 22 24  1  0
 24 25  1  0
 25 26  2  0
 25 29  1  0
 26 27  1  0
 27 28  1  0
 28 29  1  0
M  END
