
     RDKit          3D

 29 30  0  0  0  0  0  0  0  0999 V2000
    1.4880    0.2450    2.4100 N   0  0  0  0  0  0  0  0  0  0  0  0
    0.7360    0.2770    1.1690 C   0  0  0  0  0  0  0  0  0  0  0  0
    1.1240   -0.2920    0.0410 C   0  0  0  0  0  0  0  0  0  0  0  0
    2.2940   -1.0110   -0.1730 O   0  0  0  0  0  0  0  0  0  0  0  0
    3.5550   -0.3460   -0.0650 C   0  0  0  0  0  0  0  0  0  0  0  0
    4.6130   -1.3960   -0.3530 C   0  0  0  0  0  0  0  0  0  0  0  0
    6.3190   -0.6730   -0.2480 P   0  0  0  0  0  0  0  0  0  0  0  0
    6.3770    0.6290    0.9040 O   0  0  0  0  0  0  0  0  0  0  0  0
    6.8890   -0.1510   -1.8020 O   0  0  0  0  0  0  0  0  0  0  0  0
    7.5410    1.0020   -1.7130 O   0  0  0  0  0  0  0  0  0  0  0  0
    0.1350   -0.0490   -0.9420 N   0  0  0  0  0  0  0  0  0  0  0  0
   -0.2300    0.0300   -2.2540 O   0  0  0  0  0  0  0  0  0  0  0  0
   -1.4230    0.7810   -2.3620 C   0  0  0  0  0  0  0  0  0  0  0  0
   -2.0630    1.0670   -3.4130 O   0  0  0  0  0  0  0  0  0  0  0  0
   -1.7870    1.1690   -1.0390 N   0  0  0  0  0  0  0  0  0  0  0  0
   -2.6860    2.2350   -0.6500 C   0  0  0  0  0  0  0  0  0  0  0  0
   -4.0940    1.7530   -0.5330 C   0  0  0  0  0  0  0  0  0  0  0  0
   -4.9820    2.7590   -0.1610 O   0  0  0  0  0  0  0  0  0  0  0  0
   -4.8910    3.4610    1.0260 C   0  0  0  0  0  0  0  0  0  0  0  0
   -3.9830    3.2140    1.8390 O   0  0  0  0  0  0  0  0  0  0  0  0
   -5.8010    4.4600    1.3580 O   0  0  0  0  0  0  0  0  0  0  0  0
   -1.0720    0.2800   -0.1830 C   0  0  1  0  0  0  0  0  0  0  0  0
   -1.7670   -0.8190    0.2290 O   0  0  0  0  0  0  0  0  0  0  0  0
   -2.1950   -1.6030   -0.7020 O   0  0  0  0  0  0  0  0  0  0  0  0
   -1.6350   -2.8700   -0.6850 C   0  0  0  0  0  0  0  0  0  0  0  0
   -1.9510   -3.7850    0.8820 P   0  0  0  0  0  0  0  0  0  0  0  0
   -2.4530   -5.4260    0.5760 O   0  0  0  0  0  0  0  0  0  0  0  0
   -3.0850   -3.0100    1.9080 O   0  0  0  0  0  0  0  0  0  0  0  0
   -0.4750    0.8840    0.9450 O   0  0  0  0  0  0  0  0  0  0  0  0
  1  2  1  0
  2  3  2  0
  2 29  1  0
  3  4  1  0
  3 11  1  0
  4  5  1  0
  5  6  1  0
  6  7  1  0
  7  8  1  0
  7  9  1  0
  9 10  1  0
 11 12  1  0
 11 22  1  0
 12 13  1  0
 13 14  2  0
 13 15  1  0
 15 16  1  0
 15 22  1  0
 16 17  1  0
 17 18  1  0
 18 19  1  0
 19 20  2  0
 19 21  1  0
 22 23  1  1
 22 29  1  0
 23 24  1  0
 24 25  1  0
 25 26  1  0
 26 27  1  0
 26 28  1  0
M  END
