
     RDKit          3D

 29 29  0  0  0  0  0  0  0  0999 V2000
   -0.1000   -1.7960   -1.9050 N   0  0  0  0  0  0  0  0  0  0  0  0
    0.3750   -0.9620   -1.0440 C   0  0  0  0  0  0  0  0  0  0  0  0
    1.5340   -0.4420   -1.0380 O   0  0  0  0  0  0  0  0  0  0  0  0
    1.6820    0.3780    0.0200 C   0  0  0  0  0  0  0  0  0  0  0  0
    2.9220    1.1340    0.3550 C   0  0  0  0  0  0  0  0  0  0  0  0
    2.9000    1.9460    1.2860 O   0  0  0  0  0  0  0  0  0  0  0  0
    4.0430    0.8290   -0.4190 N   0  0  0  0  0  0  0  0  0  0  0  0
    5.3060    1.1660   -0.3780 O   0  0  0  0  0  0  0  0  0  0  0  0
    5.8110    1.3790    0.8950 C   0  0  0  0  0  0  0  0  0  0  0  0
    6.9070    0.2740    1.1120 C   0  0  0  0  0  0  0  0  0  0  0  0
    8.1510    0.3380   -0.1970 P   0  0  0  0  0  0  0  0  0  0  0  0
    8.8970    1.8580   -0.4320 O   0  0  0  0  0  0  0  0  0  0  0  0
    9.3030   -0.9340    0.0110 O   0  0  0  0  0  0  0  0  0  0  0  0
    0.4850    0.3230    0.6750 C   0  0  0  0  0  0  0  0  0  0  0  0
   -0.3360   -0.5060    0.0250 N   0  0  0  0  0  0  0  0  0  0  0  0
   -1.5980   -0.8930    0.3570 O   0  0  0  0  0  0  0  0  0  0  0  0
   -2.5800   -0.1350    0.7540 O   0  0  0  0  0  0  0  0  0  0  0  0
   -3.7940   -0.7770    0.2770 C   0  0  1  0  0  0  0  0  0  0  0  0
   -4.3470   -1.4880    1.4600 C   0  0  0  0  0  0  0  0  0  0  0  0
   -5.7980   -2.5020    1.0630 P   0  0  0  0  0  0  0  0  0  0  0  0
   -6.9270   -1.7060    0.0820 O   0  0  0  0  0  0  0  0  0  0  0  0
   -5.2010   -3.9400    0.2310 O   0  0  0  0  0  0  0  0  0  0  0  0
   -4.5610    0.3960   -0.2340 C   0  0  0  0  0  0  0  0  0  0  0  0
   -3.9570    1.4440   -0.6100 O   0  0  0  0  0  0  0  0  0  0  0  0
   -5.9350    0.4450   -0.3450 O   0  0  0  0  0  0  0  0  0  0  0  0
   -6.6430    1.4970   -0.8430 C   0  0  0  0  0  0  0  0  0  0  0  0
   -6.0890    2.5090   -1.2990 O   0  0  0  0  0  0  0  0  0  0  0  0
   -8.0700    1.5260   -0.9020 O   0  0  0  0  0  0  0  0  0  0  0  0
   -8.7290    2.5660   -1.4040 O   0  0  0  0  0  0  0  0  0  0  0  0
  1  2  2  0
  2  3  1  0
  2 15  1  0
  3  4  1  0
  4  5  1  0
  4 14  2  0
  5  6  2  0
  5  7  1  0
  7  8  1  0
  8  9  1  0
  9 10  1  0
 10 11  1  0
 11 12  1  0
 11 13  1  0
 14 15  1  0
 15 16  1  0
 16 17  1  0
 17 18  1  0
 18 19  1  1
 18 23  1  0
 19 20  1  0
 20 21  1  0
 20 22  1  0
 23 24  2  0
 23 25  1  0
 25 26  1  0
 26 27  2  0
 26 28  1  0
 28 29  1  0
M  END
