
     RDKit          3D

 29 29  0  0  0  0  0  0  0  0999 V2000
    4.5130    0.8600    1.9510 O   0  0  0  0  0  0  0  0  0  0  0  0
    4.7570    0.3660    0.8300 C   0  0  0  0  0  0  0  0  0  0  0  0
    5.8450    0.8490    0.1410 O   0  0  0  0  0  0  0  0  0  0  0  0
    6.6290    1.8170    0.6380 O   0  0  0  0  0  0  0  0  0  0  0  0
    7.7900    1.7530    0.0560 O   0  0  0  0  0  0  0  0  0  0  0  0
    8.1840    2.9120   -0.3680 O   0  0  0  0  0  0  0  0  0  0  0  0
    3.8830   -0.6820    0.3240 C   0  0  0  0  0  0  0  0  0  0  0  0
    4.0980   -1.2340   -0.8520 C   0  0  0  0  0  0  0  0  0  0  0  0
    3.2650   -2.2220   -1.3160 O   0  0  0  0  0  0  0  0  0  0  0  0
    2.7790   -1.1190    1.1040 N   0  0  0  0  0  0  0  0  0  0  0  0
    1.3950   -0.9350    0.6830 C   0  0  0  0  0  0  0  0  0  0  0  0
    1.2680    0.1170   -0.0620 N   0  0  0  0  0  0  0  0  0  0  0  0
    0.1920    0.6410   -0.6480 O   0  0  0  0  0  0  0  0  0  0  0  0
   -0.7510    1.5230   -0.1540 C   0  0  0  0  0  0  0  0  0  0  0  0
   -2.1570    0.9340   -0.3510 C   0  0  2  0  0  0  0  0  0  0  0  0
   -3.1260    1.7700    0.4260 C   0  0  0  0  0  0  0  0  0  0  0  0
   -3.7960    1.3650    1.3950 O   0  0  0  0  0  0  0  0  0  0  0  0
   -3.2700    3.1250    0.0010 N   0  0  0  0  0  0  0  0  0  0  0  0
   -4.1100    3.9480    0.6320 O   0  0  0  0  0  0  0  0  0  0  0  0
   -3.6040    5.1720    0.6070 O   0  0  0  0  0  0  0  0  0  0  0  0
   -2.1290   -0.3520    0.1140 O   0  0  0  0  0  0  0  0  0  0  0  0
   -3.3300   -0.9820    0.2540 C   0  0  0  0  0  0  0  0  0  0  0  0
   -3.4510   -2.3210   -0.3340 C   0  0  0  0  0  0  0  0  0  0  0  0
   -4.9600   -2.9900   -0.4420 P   0  0  0  0  0  0  0  0  0  0  0  0
   -6.3270   -2.1190    0.1290 O   0  0  0  0  0  0  0  0  0  0  0  0
   -2.3730   -3.0080   -0.7840 O   0  0  0  0  0  0  0  0  0  0  0  0
   -1.0100   -2.6210   -0.7500 C   0  0  0  0  0  0  0  0  0  0  0  0
   -0.4330   -2.7100    0.6130 C   0  0  0  0  0  0  0  0  0  0  0  0
    0.4470   -1.7860    1.0650 O   0  0  0  0  0  0  0  0  0  0  0  0
  1  2  2  0
  2  3  1  0
  2  7  1  0
  3  4  1  0
  4  5  1  0
  5  6  1  0
  7  8  2  3
  7 10  1  0
  8  9  1  0
 10 11  1  0
 11 12  2  0
 11 29  1  0
 12 13  1  0
 13 14  1  0
 14 15  1  0
 15 16  1  1
 15 21  1  0
 16 17  2  0
 16 18  1  0
 18 19  1  0
 19 20  1  0
 21 22  1  0
 22 23  1  0
 23 24  2  3
 23 26  1  0
 24 25  1  0
 26 27  1  0
 27 28  1  0
 28 29  1  0
M  END
