
     RDKit          3D

 29 29  0  0  0  0  0  0  0  0999 V2000
    6.2680    3.1700    0.1960 C   0  0  0  0  0  0  0  0  0  0  0  0
    5.8430    1.8150    0.4390 N   0  0  0  0  0  0  0  0  0  0  0  0
    4.6620    1.3240   -0.2080 C   0  0  0  0  0  0  0  0  0  0  0  0
    3.9530    2.0070   -0.9900 O   0  0  0  0  0  0  0  0  0  0  0  0
    4.2810    0.0380    0.0320 O   0  0  0  0  0  0  0  0  0  0  0  0
    3.3040   -0.6510   -0.4140 O   0  0  0  0  0  0  0  0  0  0  0  0
    2.0830   -0.5850    0.1020 N   0  0  0  0  0  0  0  0  0  0  0  0
    0.9150   -0.5810   -0.7120 C   0  0  0  0  0  0  0  0  0  0  0  0
    1.1530   -0.6290   -1.9720 O   0  0  0  0  0  0  0  0  0  0  0  0
   -0.4940   -0.5310   -0.2950 C   0  0  2  0  0  0  0  0  0  0  0  0
   -0.9850   -1.8920    0.0140 N   0  0  0  0  0  0  0  0  0  0  0  0
   -1.9980   -2.6670   -0.6530 C   0  0  0  0  0  0  0  0  0  0  0  0
   -1.9980   -3.9920    0.0270 C   0  0  2  0  0  0  0  0  0  0  0  0
   -3.0310   -4.1020    0.9680 O   0  0  0  0  0  0  0  0  0  0  0  0
   -0.6610   -4.1090    0.7190 C   0  0  0  0  0  0  0  0  0  0  0  0
   -0.4450   -2.6530    1.0800 C   0  0  0  0  0  0  0  0  0  0  0  0
    0.1070   -2.2650    2.1300 O   0  0  0  0  0  0  0  0  0  0  0  0
   -1.4830    0.1150   -1.7500 P   0  0  0  0  0  0  0  0  0  0  0  0
   -3.0660    0.5930   -1.3460 O   0  0  0  0  0  0  0  0  0  0  0  0
   -1.4050   -0.9750   -3.0910 O   0  0  0  0  0  0  0  0  0  0  0  0
   -0.8720    0.4880    1.1540 P   0  0  0  0  0  0  0  0  0  0  0  0
   -2.1250   -0.0900    2.1160 O   0  0  0  0  0  0  0  0  0  0  0  0
   -0.4290    2.0800    1.2080 O   0  0  0  0  0  0  0  0  0  0  0  0
   -0.9290    2.9710    0.4130 O   0  0  0  0  0  0  0  0  0  0  0  0
   -2.2810    3.2750    0.3410 C   0  0  0  0  0  0  0  0  0  0  0  0
   -3.0540    2.6260    1.0950 O   0  0  0  0  0  0  0  0  0  0  0  0
   -2.7430    4.2700   -0.5430 O   0  0  0  0  0  0  0  0  0  0  0  0
   -4.0940    4.5410   -0.5820 C   0  0  0  0  0  0  0  0  0  0  0  0
   -4.8620    3.8870    0.1730 O   0  0  0  0  0  0  0  0  0  0  0  0
  1  2  1  0
  2  3  1  0
  3  4  2  0
  3  5  1  0
  5  6  1  0
  6  7  1  0
  7  8  1  0
  8  9  2  0
  8 10  1  0
 10 11  1  0
 10 18  1  6
 10 21  1  0
 11 12  1  0
 11 16  1  0
 12 13  1  0
 13 14  1  1
 13 15  1  0
 15 16  1  0
 16 17  2  0
 18 19  1  0
 18 20  1  0
 21 22  1  0
 21 23  1  0
 23 24  1  0
 24 25  1  0
 25 26  2  0
 25 27  1  0
 27 28  1  0
 28 29  2  0
M  END
