
     RDKit          3D

 29 29  0  0  0  0  0  0  0  0999 V2000
   -1.0960    1.2320   -0.4300 O   0  0  0  0  0  0  0  0  0  0  0  0
   -1.3440    1.1390    0.7920 C   0  0  0  0  0  0  0  0  0  0  0  0
   -2.7530    0.9070    1.2060 C   0  0  0  0  0  0  0  0  0  0  0  0
   -3.5610    0.8370    0.0570 O   0  0  0  0  0  0  0  0  0  0  0  0
   -4.9360    0.6250    0.1610 C   0  0  0  0  0  0  0  0  0  0  0  0
   -5.4030    0.5010    1.3200 O   0  0  0  0  0  0  0  0  0  0  0  0
   -5.8060    0.5430   -0.9390 N   0  0  0  0  0  0  0  0  0  0  0  0
   -7.2030    0.3260   -0.8120 C   0  0  0  0  0  0  0  0  0  0  0  0
   -7.6500    0.2050    0.3590 O   0  0  0  0  0  0  0  0  0  0  0  0
   -8.0830    0.2460   -1.9720 C   0  0  0  0  0  0  0  0  0  0  0  0
   -7.6210    0.3680   -3.1280 O   0  0  0  0  0  0  0  0  0  0  0  0
   -9.4330    0.0350   -1.8180 O   0  0  0  0  0  0  0  0  0  0  0  0
  -10.3050   -0.0510   -2.8290 O   0  0  0  0  0  0  0  0  0  0  0  0
   -0.3750    1.2420    1.7540 O   0  0  0  0  0  0  0  0  0  0  0  0
    0.9820    1.4400    1.5900 C   0  0  0  0  0  0  0  0  0  0  0  0
    1.6840    0.3100    0.9590 C   0  0  1  0  0  0  0  0  0  0  0  0
    3.1130    0.5760    0.8750 O   0  0  0  0  0  0  0  0  0  0  0  0
    3.9750   -0.3280    0.3230 C   0  0  0  0  0  0  0  0  0  0  0  0
    3.5320   -1.4150   -0.1260 O   0  0  0  0  0  0  0  0  0  0  0  0
    5.3780   -0.1230    0.2150 N   0  0  0  0  0  0  0  0  0  0  0  0
    6.2360   -1.1480   -0.3940 C   0  0  0  0  0  0  0  0  0  0  0  0
    7.9920   -0.6290   -0.4050 P   0  0  0  0  0  0  0  0  0  0  0  0
    8.8640   -1.5790   -1.5460 O   0  0  0  0  0  0  0  0  0  0  0  0
    8.2140    1.0580   -0.6110 O   0  0  0  0  0  0  0  0  0  0  0  0
    1.5690   -0.9820    1.7540 C   0  0  0  0  0  0  0  0  0  0  0  0
    0.8320   -1.9010    0.9320 N   0  0  0  0  0  0  0  0  0  0  0  0
    0.5660   -1.2890   -0.2710 O   0  0  0  0  0  0  0  0  0  0  0  0
    1.3060   -0.1140   -0.3780 C   0  0  0  0  0  0  0  0  0  0  0  0
    1.6020    0.4810   -1.4620 O   0  0  0  0  0  0  0  0  0  0  0  0
  1  2  2  0
  2  3  1  0
  2 14  1  0
  3  4  1  0
  4  5  1  0
  5  6  2  0
  5  7  1  0
  7  8  1  0
  8  9  2  0
  8 10  1  0
 10 11  2  0
 10 12  1  0
 12 13  1  0
 14 15  1  0
 16 15  1  1
 16 17  1  0
 16 25  1  0
 16 28  1  0
 17 18  1  0
 18 19  2  0
 18 20  1  0
 20 21  1  0
 21 22  1  0
 22 23  1  0
 22 24  1  0
 25 26  1  0
 26 27  1  0
 27 28  1  0
 28 29  2  0
M  END
