
     RDKit          3D

 29 31  0  0  0  0  0  0  0  0999 V2000
   -6.1780    1.9450    0.2700 O   0  0  0  0  0  0  0  0  0  0  0  0
   -6.6180    0.7840    0.0760 C   0  0  0  0  0  0  0  0  0  0  0  0
   -7.9540    0.5610    0.3240 O   0  0  0  0  0  0  0  0  0  0  0  0
   -5.7480   -0.2090   -0.3730 O   0  0  0  0  0  0  0  0  0  0  0  0
   -4.4190    0.0990   -0.5970 C   0  0  0  0  0  0  0  0  0  0  0  0
   -4.0480    1.2830   -0.3820 O   0  0  0  0  0  0  0  0  0  0  0  0
   -3.4760   -0.8120   -1.0430 O   0  0  0  0  0  0  0  0  0  0  0  0
   -2.2130   -0.4110   -1.2280 O   0  0  0  0  0  0  0  0  0  0  0  0
   -1.5280   -0.7150   -0.0560 C   0  0  0  0  0  0  0  0  0  0  0  0
   -0.0440   -0.2770   -0.1940 C   0  0  1  0  0  0  0  0  0  0  0  0
   -0.1120    1.1760   -0.4430 C   0  0  0  0  0  0  0  0  0  0  0  0
    0.3170    1.9780    0.4020 O   0  0  0  0  0  0  0  0  0  0  0  0
   -0.6550    1.6390   -1.6190 O   0  0  0  0  0  0  0  0  0  0  0  0
    0.5490   -0.6310    1.0390 N   0  0  0  0  0  0  0  0  0  0  0  0
    1.9530   -0.7290    1.1340 C   0  0  2  0  0  0  0  0  0  0  0  0
    2.2160   -1.1120    2.6140 C   0  0  0  0  0  0  0  0  0  0  0  0
    1.9280    0.1430    3.2020 O   0  0  0  0  0  0  0  0  0  0  0  0
    2.4980    1.0680    2.4050 O   0  0  0  0  0  0  0  0  0  0  0  0
    2.7020    0.5460    1.1400 C   0  0  0  0  0  0  0  0  0  0  0  0
    3.3990    1.0470    0.1520 C   0  0  0  0  0  0  0  0  0  0  0  0
    3.6500    0.5700   -1.1590 N   0  0  0  0  0  0  0  0  0  0  0  0
    4.3940    1.3630   -1.8400 C   0  0  0  0  0  0  0  0  0  0  0  0
    4.7090    2.4670   -1.0120 N   0  0  0  0  0  0  0  0  0  0  0  0
    4.1000    2.2650    0.1960 O   0  0  0  0  0  0  0  0  0  0  0  0
    2.6970   -1.9960    0.0120 P   0  0  0  0  0  0  0  0  0  0  0  0
    2.0780   -3.5560    0.4440 O   0  0  0  0  0  0  0  0  0  0  0  0
    2.2260   -1.6380   -1.5930 O   0  0  0  0  0  0  0  0  0  0  0  0
    0.5930   -1.1630   -1.6630 P   0  0  0  0  0  0  0  0  0  0  0  0
   -0.4610   -2.4230   -2.2120 O   0  0  0  0  0  0  0  0  0  0  0  0
  1  2  2  0
  2  3  1  0
  2  4  1  0
  4  5  1  0
  5  6  2  0
  5  7  1  0
  7  8  1  0
  8  9  1  0
 10  9  1  1
 10 11  1  0
 10 14  1  0
 10 28  1  0
 11 12  2  0
 11 13  1  0
 14 15  1  0
 15 16  1  1
 15 19  1  0
 15 25  1  0
 16 17  1  0
 17 18  1  0
 18 19  1  0
 19 20  2  3
 20 21  1  0
 20 24  1  0
 21 22  2  0
 22 23  1  0
 23 24  1  0
 25 26  1  0
 25 27  1  0
 27 28  1  0
 28 29  1  0
M  END
