
     RDKit          3D

 13 13  0  0  0  0  0  0  0  0999 V2000
    4.6400   -0.2030   -0.2500 C   0  0  0  0  0  0  0  0  0  0  0  0
    3.4940   -0.9290   -0.5200 O   0  0  0  0  0  0  0  0  0  0  0  0
    2.6480   -1.0600    0.5460 C   0  0  0  0  0  0  0  0  0  0  0  0
    2.1300    0.2220    1.0940 C   0  0  0  0  0  0  0  0  0  0  0  0
    1.4170    0.9840    0.2020 O   0  0  0  0  0  0  0  0  0  0  0  0
    0.2990    0.4010   -0.3260 C   0  0  0  0  0  0  0  0  0  0  0  0
   -0.7210    0.0200    0.7410 C   0  0  1  0  0  0  0  0  0  0  0  0
   -1.0820    1.1670    1.3950 O   0  0  0  0  0  0  0  0  0  0  0  0
   -2.3270    1.5650    0.9960 C   0  0  0  0  0  0  0  0  0  0  0  0
   -2.7330    0.7240   -0.1970 C   0  0  2  0  0  0  0  0  0  0  0  0
   -4.1610    0.4990   -0.2440 N   0  0  0  0  0  0  0  0  0  0  0  0
   -1.9750   -0.5510    0.1110 C   0  0  1  0  0  0  0  0  0  0  0  0
   -1.6940   -1.3190   -1.0770 N   0  0  0  0  0  0  0  0  0  0  0  0
  1  2  1  0
  2  3  1  0
  3  4  1  0
  4  5  1  0
  5  6  1  0
  7  6  1  6
  7  8  1  0
  7 12  1  0
  8  9  1  0
  9 10  1  0
 10 11  1  1
 10 12  1  0
 12 13  1  6
M  CHG  1  13   1
M  END
