
     RDKit          3D

 14 14  0  0  0  0  0  0  0  0999 V2000
    4.1860   -0.1830    0.6030 C   0  0  0  0  0  0  0  0  0  0  0  0
    3.7220    0.0650   -0.8370 C   0  0  2  0  0  0  0  0  0  0  0  0
    4.6140    0.9890   -1.3720 O   0  0  0  0  0  0  0  0  0  0  0  0
    2.3810    0.6860   -0.8000 C   0  0  0  0  0  0  0  0  0  0  0  0
    2.2330    1.8580   -1.2170 O   0  0  0  0  0  0  0  0  0  0  0  0
    1.2260    0.0160   -0.3080 N   0  0  0  0  0  0  0  0  0  0  0  0
   -0.0630    0.5980   -0.2660 C   0  0  0  0  0  0  0  0  0  0  0  0
   -0.1950    1.7710   -0.6870 O   0  0  0  0  0  0  0  0  0  0  0  0
   -1.2320   -0.1120    0.2440 C   0  0  2  0  0  0  0  0  0  0  0  0
   -1.6510   -1.2630   -0.5660 C   0  0  0  0  0  0  0  0  0  0  0  0
   -2.9760   -1.3240   -0.4800 C   0  0  0  0  0  0  0  0  0  0  0  0
   -3.3900   -0.1880    0.4010 C   0  0  2  0  0  0  0  0  0  0  0  0
   -4.6170    0.4240   -0.0360 N   0  0  0  0  0  0  0  0  0  0  0  0
   -2.3460    0.7200    0.1540 O   0  0  0  0  0  0  0  0  0  0  0  0
  2  1  1  1
  2  3  1  0
  2  4  1  0
  4  5  2  0
  4  6  1  0
  6  7  1  0
  7  8  2  0
  9  7  1  6
  9 10  1  0
  9 14  1  0
 10 11  2  0
 11 12  1  0
 12 13  1  6
 12 14  1  0
M  CHG  1  13   1
M  END
