
     RDKit          3D

 14 14  0  0  0  0  0  0  0  0999 V2000
    2.4500   -1.2280    1.3940 C   0  0  0  0  0  0  0  0  0  0  0  0
    1.2270   -0.6280    0.8840 N   0  0  0  0  0  0  0  0  0  0  0  0
    1.0950    0.6530    0.2330 C   0  0  0  0  0  0  0  0  0  0  0  0
    2.0540    1.3520   -0.2160 N   0  0  0  0  0  0  0  0  0  0  0  0
   -0.3670    0.8960    0.2420 C   0  0  1  0  0  0  0  0  0  0  0  0
   -0.7000    1.1750    1.5760 O   0  0  0  0  0  0  0  0  0  0  0  0
   -0.8400    1.9710   -0.6480 C   0  0  0  0  0  0  0  0  0  0  0  0
   -0.5830    1.8540   -1.9810 O   0  0  0  0  0  0  0  0  0  0  0  0
   -0.8660   -0.4940   -0.0780 C   0  0  1  0  0  0  0  0  0  0  0  0
   -2.3400   -0.6490    0.1600 C   0  0  0  0  0  0  0  0  0  0  0  0
   -0.3970   -1.0190   -1.3890 C   0  0  0  0  0  0  0  0  0  0  0  0
   -0.9410   -2.3190   -1.5370 O   0  0  0  0  0  0  0  0  0  0  0  0
   -0.0700   -1.2550    0.9620 C   0  0  0  0  0  0  0  0  0  0  0  0
   -0.4550   -2.1880    1.6940 O   0  0  0  0  0  0  0  0  0  0  0  0
  1  2  1  0
  2  3  1  0
  2 13  1  0
  3  4  2  0
  3  5  1  0
  5  6  1  1
  5  7  1  0
  5  9  1  0
  7  8  1  0
  9 10  1  1
  9 11  1  0
  9 13  1  0
 11 12  1  0
 13 14  2  0
M  CHG  1   4   1
M  END
