
     RDKit          3D

 13 14  0  0  0  0  0  0  0  0999 V2000
   -2.0640    2.1080   -0.0510 N   0  0  0  0  0  0  0  0  0  0  0  0
   -1.6380    1.1290    0.9040 C   0  0  0  0  0  0  0  0  0  0  0  0
   -1.1600   -0.1060    0.2140 C   0  0  2  0  0  0  0  0  0  0  0  0
   -0.7280   -1.1100    1.0470 O   0  0  0  0  0  0  0  0  0  0  0  0
   -0.6930   -2.2910    0.3090 C   0  0  0  0  0  0  0  0  0  0  0  0
   -0.7930   -2.0980   -1.1650 C   0  0  0  0  0  0  0  0  0  0  0  0
   -0.1200   -1.0130   -1.6620 O   0  0  0  0  0  0  0  0  0  0  0  0
   -0.1490    0.1060   -0.8530 C   0  0  2  0  0  0  0  0  0  0  0  0
    1.2220    0.3760   -0.3890 C   0  0  0  0  0  0  0  0  0  0  0  0
    1.6630    0.4280    0.8530 C   0  0  0  0  0  0  0  0  0  0  0  0
    3.1040    0.7320    0.7710 C   0  0  0  0  0  0  0  0  0  0  0  0
    3.4440    0.3720   -0.5810 N   0  0  0  0  0  0  0  0  0  0  0  0
    2.2800    0.6240   -1.2710 O   0  0  0  0  0  0  0  0  0  0  0  0
  1  2  1  0
  3  2  1  1
  3  4  1  0
  3  8  1  0
  4  5  1  0
  5  6  1  0
  6  7  1  0
  7  8  1  0
  8  9  1  1
  9 10  2  0
  9 13  1  0
 10 11  1  0
 11 12  1  0
 12 13  1  0
M  CHG  1   1   1
M  END
