
     RDKit          3D

 22 22  0  0  0  0  0  0  0  0999 V2000
   -0.5990    0.7730    2.6250 C   0  0  0  0  0  0  0  0  0  0  0  0
   -1.0220    1.0050    1.2190 C   0  0  0  0  0  0  0  0  0  0  0  0
   -0.4800    0.0600    0.2060 C   0  0  1  0  0  0  0  0  0  0  0  0
    0.9480   -0.0040    0.0610 N   0  0  0  0  0  0  0  0  0  0  0  0
    1.6890    1.1850   -0.0570 C   0  0  1  0  0  0  0  0  0  0  0  0
    2.0080    1.8780    1.2730 C   0  0  0  0  0  0  0  0  0  0  0  0
    3.0350    0.8250   -0.5960 C   0  0  0  0  0  0  0  0  0  0  0  0
    3.8420    1.7370   -0.9550 O   0  0  0  0  0  0  0  0  0  0  0  0
    3.5030   -0.4990   -0.7450 N   0  0  0  0  0  0  0  0  0  0  0  0
    4.8100   -0.8680   -1.2650 C   0  0  0  0  0  0  0  0  0  0  0  0
    5.8790   -0.3000   -0.3660 C   0  0  0  0  0  0  0  0  0  0  0  0
    7.1510   -0.6420   -0.8400 O   0  0  0  0  0  0  0  0  0  0  0  0
   -0.8920   -1.3880    0.4840 C   0  0  0  0  0  0  0  0  0  0  0  0
   -2.3610   -1.5750    0.5790 C   0  0  0  0  0  0  0  0  0  0  0  0
   -3.1280   -1.0820   -0.6250 C   0  0  1  0  0  0  0  0  0  0  0  0
   -4.5010   -0.7400   -0.1180 C   0  0  0  0  0  0  0  0  0  0  0  0
   -5.4470   -0.2460   -1.1030 C   0  0  0  0  0  0  0  0  0  0  0  0
   -6.7480    0.1190   -0.6700 N   0  0  0  0  0  0  0  0  0  0  0  0
   -5.1770   -0.1230   -2.3160 O   0  0  0  0  0  0  0  0  0  0  0  0
   -2.4650    0.0090   -1.2930 N   0  0  0  0  0  0  0  0  0  0  0  0
   -1.1250    0.3780   -1.0840 C   0  0  0  0  0  0  0  0  0  0  0  0
   -0.4810    0.9650   -1.9630 O   0  0  0  0  0  0  0  0  0  0  0  0
  1  2  1  0
  3  2  1  1
  3  4  1  0
  3 13  1  0
  3 21  1  0
  4  5  1  0
  5  6  1  1
  5  7  1  0
  7  8  2  0
  7  9  1  0
  9 10  1  0
 10 11  1  0
 11 12  1  0
 13 14  1  0
 14 15  1  0
 15 16  1  1
 15 20  1  0
 16 17  1  0
 17 18  1  0
 17 19  2  0
 20 21  1  0
 21 22  2  0
M  CHG  1   4   1
M  END
