
     RDKit          3D

 23 23  0  0  0  0  0  0  0  0999 V2000
   -3.0000   -1.1900    2.3130 C   0  0  0  0  0  0  0  0  0  0  0  0
   -2.8410   -1.5130    1.0490 C   0  0  0  0  0  0  0  0  0  0  0  0
   -3.4860   -2.7070    0.6900 O   0  0  0  0  0  0  0  0  0  0  0  0
   -2.0670   -0.6860    0.1680 C   0  0  0  0  0  0  0  0  0  0  0  0
   -1.9390   -1.0060   -1.1010 C   0  0  0  0  0  0  0  0  0  0  0  0
   -2.4670   -2.1260   -1.8610 C   0  0  0  0  0  0  0  0  0  0  0  0
   -3.3140   -1.5200   -2.9240 N   0  0  0  0  0  0  0  0  0  0  0  0
   -1.3360    0.5190    0.6970 C   0  0  1  0  0  0  0  0  0  0  0  0
   -0.1520    0.2190    1.5250 C   0  0  0  0  0  0  0  0  0  0  0  0
    0.8930   -0.5320    0.8730 N   0  0  2  0  0  0  0  0  0  0  0  0
    1.5980   -1.2380    1.9320 C   0  0  0  0  0  0  0  0  0  0  0  0
    2.6810   -2.1440    1.3910 C   0  0  0  0  0  0  0  0  0  0  0  0
    3.6330   -1.3590    0.5180 C   0  0  0  0  0  0  0  0  0  0  0  0
    3.2470    0.1020    0.5260 C   0  0  1  0  0  0  0  0  0  0  0  0
    4.1100    0.8010   -0.4580 C   0  0  0  0  0  0  0  0  0  0  0  0
    3.9490    2.2080   -0.6500 N   0  0  0  0  0  0  0  0  0  0  0  0
    4.9920    0.1880   -1.1420 O   0  0  0  0  0  0  0  0  0  0  0  0
    1.8050    0.3140    0.1340 C   0  0  0  0  0  0  0  0  0  0  0  0
   -1.0690    1.4840   -0.3580 N   0  0  0  0  0  0  0  0  0  0  0  0
   -1.7540    2.7230   -0.4260 C   0  0  0  0  0  0  0  0  0  0  0  0
   -2.6000    2.9690    0.4490 O   0  0  0  0  0  0  0  0  0  0  0  0
   -1.4870    3.7210   -1.5060 C   0  0  0  0  0  0  0  0  0  0  0  0
   -0.5210    3.2820   -2.3870 O   0  0  0  0  0  0  0  0  0  0  0  0
  1  2  2  0
  2  3  1  0
  2  4  1  0
  4  5  2  3
  4  8  1  0
  5  6  1  0
  6  7  1  0
  8  9  1  6
  8 19  1  0
 10  9  1  1
 10 11  1  0
 10 18  1  0
 11 12  1  0
 12 13  1  0
 13 14  1  0
 14 15  1  6
 14 18  1  0
 15 16  1  0
 15 17  2  0
 19 20  1  0
 20 21  2  0
 20 22  1  0
 22 23  1  0
M  CHG  1  10   1
M  END
