
     RDKit          3D

 23 23  0  0  0  0  0  0  0  0999 V2000
   -6.2340    2.4760   -0.3000 C   0  0  0  0  0  0  0  0  0  0  0  0
   -4.8190    2.1470   -0.7320 C   0  0  0  0  0  0  0  0  0  0  0  0
   -4.6990    0.6210   -0.8190 C   0  0  2  0  0  0  0  0  0  0  0  0
   -4.9860    0.0110    0.5200 C   0  0  0  0  0  0  0  0  0  0  0  0
   -4.1440   -1.1800    0.8440 C   0  0  1  0  0  0  0  0  0  0  0  0
   -4.6250   -2.4350    0.2270 C   0  0  0  0  0  0  0  0  0  0  0  0
   -4.7280   -2.5560   -1.1730 N   0  0  0  0  0  0  0  0  0  0  0  0
   -4.9540   -3.4240    0.9600 O   0  0  0  0  0  0  0  0  0  0  0  0
   -2.6950   -0.9950    0.4600 C   0  0  0  0  0  0  0  0  0  0  0  0
   -2.5440    0.3480   -0.2620 C   0  0  1  0  0  0  0  0  0  0  0  0
   -1.1240    0.4180   -0.8050 C   0  0  0  0  0  0  0  0  0  0  0  0
   -0.2610    0.4250    0.3100 O   0  0  0  0  0  0  0  0  0  0  0  0
    1.1330    0.4840    0.1140 C   0  0  0  0  0  0  0  0  0  0  0  0
    1.5940    0.5310   -1.0520 O   0  0  0  0  0  0  0  0  0  0  0  0
    2.0350    0.4940    1.1980 N   0  0  0  0  0  0  0  0  0  0  0  0
    3.4750    0.5500    1.0960 C   0  0  0  0  0  0  0  0  0  0  0  0
    3.9540   -0.6540    0.3480 C   0  0  0  0  0  0  0  0  0  0  0  0
    5.4550   -0.6940    0.1940 C   0  0  1  0  0  0  0  0  0  0  0  0
    6.0900   -0.7140    1.5440 C   0  0  0  0  0  0  0  0  0  0  0  0
    5.7480   -1.9010   -0.4570 O   0  0  0  0  0  0  0  0  0  0  0  0
    5.8700    0.4820   -0.6620 C   0  0  0  0  0  0  0  0  0  0  0  0
    7.2950    0.4560   -0.9430 N   0  0  0  0  0  0  0  0  0  0  0  0
   -3.4380    0.3380   -1.3080 O   0  0  0  0  0  0  0  0  0  0  0  0
  1  2  1  0
  3  2  1  1
  3  4  1  0
  3 23  1  0
  4  5  1  0
  5  6  1  6
  5  9  1  0
  6  7  1  0
  6  8  2  0
  9 10  1  0
 10 11  1  6
 10 23  1  0
 11 12  1  0
 12 13  1  0
 13 14  2  0
 13 15  1  0
 15 16  1  0
 16 17  1  0
 17 18  1  0
 18 19  1  1
 18 20  1  0
 18 21  1  0
 21 22  1  0
M  CHG  1  22   1
M  END
