
     RDKit          3D

 13 13  0  0  0  0  0  0  0  0999 V2000
   -2.7260    1.1290    0.0250 C   0  0  0  0  0  0  0  0  0  0  0  0
   -2.7840   -0.2570   -0.2850 N   0  0  0  0  0  0  0  0  0  0  0  0
   -1.7570   -1.0680    0.3350 C   0  0  0  0  0  0  0  0  0  0  0  0
   -0.3900   -0.6160    0.0840 C   0  0  0  0  0  0  0  0  0  0  0  0
    0.6020   -1.2000    0.8760 C   0  0  0  0  0  0  0  0  0  0  0  0
    1.9150   -0.8490    0.7490 C   0  0  0  0  0  0  0  0  0  0  0  0
    2.2940    0.1040   -0.1740 C   0  0  0  0  0  0  0  0  0  0  0  0
    3.7280    0.4810   -0.2420 C   0  0  2  0  0  0  0  0  0  0  0  0
    4.4900   -0.6570   -0.2100 F   0  0  0  0  0  0  0  0  0  0  0  0
    3.9780    1.3200    0.8500 F   0  0  0  0  0  0  0  0  0  0  0  0
    3.9870    1.2280   -1.3980 F   0  0  0  0  0  0  0  0  0  0  0  0
    1.3310    0.7000   -0.9760 C   0  0  0  0  0  0  0  0  0  0  0  0
    0.0090    0.3250   -0.8240 C   0  0  0  0  0  0  0  0  0  0  0  0
  1  2  1  0
  2  3  1  0
  3  4  1  0
  4  5  2  0
  4 13  1  0
  5  6  1  0
  6  7  2  0
  7  8  1  0
  7 12  1  0
  8  9  1  1
  8 10  1  0
  8 11  1  0
 12 13  2  0
M  CHG  1   2   1
M  END
