
     RDKit          3D

 23 23  0  0  0  0  0  0  0  0999 V2000
   -4.5990   -2.4780   -0.5470 C   0  0  0  0  0  0  0  0  0  0  0  0
   -3.2390   -2.1890    0.0310 C   0  0  0  0  0  0  0  0  0  0  0  0
   -3.1350   -0.7020    0.2440 C   0  0  1  0  0  0  0  0  0  0  0  0
   -4.2530   -0.1950    1.1010 C   0  0  0  0  0  0  0  0  0  0  0  0
   -1.8280   -0.4100    1.0280 C   0  0  0  0  0  0  0  0  0  0  0  0
   -1.0450    0.1860    0.0450 N   0  0  0  0  0  0  0  0  0  0  0  0
    0.2590    0.6410    0.4410 C   0  0  2  0  0  0  0  0  0  0  0  0
    0.6500    1.7240   -0.5420 C   0  0  0  0  0  0  0  0  0  0  0  0
    1.7250    2.6640   -0.0380 C   0  0  0  0  0  0  0  0  0  0  0  0
    0.9410    4.0270    0.1730 C   0  0  0  0  0  0  0  0  0  0  0  0
    1.8100    5.0120    0.5520 O   0  0  0  0  0  0  0  0  0  0  0  0
    1.1600   -0.5650    0.2190 C   0  0  2  0  0  0  0  0  0  0  0  0
    0.7400   -1.7090    1.0980 N   0  0  0  0  0  0  0  0  0  0  0  0
    2.5460   -0.6330    0.0790 C   0  0  2  0  0  0  0  0  0  0  0  0
    2.9850   -1.2040   -1.3520 C   0  0  0  0  0  0  0  0  0  0  0  0
    4.3380   -0.8130   -1.3190 O   0  0  0  0  0  0  0  0  0  0  0  0
    4.7220    0.0020   -2.2750 N   0  0  0  0  0  0  0  0  0  0  0  0
    3.2390   -1.1140    1.0940 O   0  0  0  0  0  0  0  0  0  0  0  0
    4.5300   -1.4590    1.0840 C   0  0  0  0  0  0  0  0  0  0  0  0
    4.5910   -2.6140    0.1460 O   0  0  0  0  0  0  0  0  0  0  0  0
   -1.4390   -0.0360   -1.2450 C   0  0  0  0  0  0  0  0  0  0  0  0
   -2.9850   -0.0180   -1.0880 C   0  0  2  0  0  0  0  0  0  0  0  0
   -3.3610    1.3580   -0.9730 N   0  0  0  0  0  0  0  0  0  0  0  0
  1  2  1  0
  2  3  1  0
  3  4  1  1
  3  5  1  0
  3 22  1  0
  5  6  1  0
  6  7  1  0
  6 21  1  0
  7  8  1  6
  7 12  1  0
  8  9  1  0
  9 10  1  0
 10 11  1  0
 12 13  1  1
 12 14  1  0
 14 15  1  6
 14 18  1  0
 15 16  1  0
 16 17  1  0
 18 19  1  0
 19 20  1  0
 21 22  1  0
 22 23  1  1
M  CHG  1  23   1
M  END
