
     RDKit          3D

 13 13  0  0  0  0  0  0  0  0999 V2000
   -0.9680   -1.8750   -0.2040 C   0  0  0  0  0  0  0  0  0  0  0  0
   -0.7470   -0.6110   -0.0170 C   0  0  0  0  0  0  0  0  0  0  0  0
   -1.8660    0.1760    0.4700 N   0  0  0  0  0  0  0  0  0  0  0  0
   -2.9790    0.1440   -0.1580 C   0  0  0  0  0  0  0  0  0  0  0  0
   -4.1550    0.9370    0.3060 C   0  0  0  0  0  0  0  0  0  0  0  0
    0.5530    0.0770   -0.2280 C   0  0  0  0  0  0  0  0  0  0  0  0
    0.4170    1.3250   -0.7380 N   0  0  0  0  0  0  0  0  0  0  0  0
    1.3650    2.1540   -1.0100 O   0  0  0  0  0  0  0  0  0  0  0  0
    2.9050    1.6310   -0.6980 P   0  0  0  0  0  0  0  0  0  0  0  0
    4.3040    2.6320   -0.5800 O   0  0  0  0  0  0  0  0  0  0  0  0
    2.9600    0.0700   -0.0650 N   0  0  0  0  0  0  0  0  0  0  0  0
    1.7380   -0.5230    0.0930 C   0  0  0  0  0  0  0  0  0  0  0  0
    1.7930   -1.9050    0.7020 C   0  0  0  0  0  0  0  0  0  0  0  0
  1  2  2  0
  2  3  1  0
  2  6  1  0
  3  4  2  3
  4  5  1  0
  6  7  1  0
  6 12  2  0
  7  8  1  0
  8  9  1  0
  9 10  1  0
  9 11  1  0
 11 12  1  0
 12 13  1  0
M  END
