
     RDKit          3D

 13 14  0  0  0  0  0  0  0  0999 V2000
   -1.7220   -1.1250   -1.1150 C   0  0  0  0  0  0  0  0  0  0  0  0
   -1.1220   -0.2120   -0.0160 C   0  0  2  0  0  0  0  0  0  0  0  0
   -2.1660    0.8730    0.1590 C   0  0  0  0  0  0  0  0  0  0  0  0
   -2.0740    1.5720   -1.1970 C   0  0  0  0  0  0  0  0  0  0  0  0
   -0.8390    1.4000   -1.6170 C   0  0  0  0  0  0  0  0  0  0  0  0
   -0.0460    0.6170   -0.6250 C   0  0  0  0  0  0  0  0  0  0  0  0
    1.1750    0.6810   -0.2840 N   0  0  0  0  0  0  0  0  0  0  0  0
    1.8300    0.0260    0.7340 N   0  0  0  0  0  0  0  0  0  0  0  0
    3.2380    0.1560    1.0480 C   0  0  0  0  0  0  0  0  0  0  0  0
    4.0550   -0.2460   -0.0770 N   0  0  0  0  0  0  0  0  0  0  0  0
    0.7300   -1.0610    1.6920 P   0  0  0  0  0  0  0  0  0  0  0  0
   -0.8380   -1.0200    1.0970 C   0  0  0  0  0  0  0  0  0  0  0  0
   -1.8280   -1.7750    1.7040 O   0  0  0  0  0  0  0  0  0  0  0  0
  2  1  1  6
  2  3  1  0
  2  6  1  0
  2 12  1  0
  3  4  1  0
  4  5  2  0
  5  6  1  0
  6  7  2  0
  7  8  1  0
  8  9  1  0
  8 11  1  0
  9 10  1  0
 11 12  2  0
 12 13  1  0
M  END
