
     RDKit          3D

 11 10  0  0  0  0  0  0  0  0999 V2000
   -1.3900    0.5790    1.3220 O   0  0  0  0  0  0  0  0  0  0  0  0
   -1.9320    0.0630    0.3220 C   0  0  0  0  0  0  0  0  0  0  0  0
   -3.4160   -0.2930    0.4920 C   0  0  0  0  0  0  0  0  0  0  0  0
   -4.0690    0.8990    0.0290 O   0  0  0  0  0  0  0  0  0  0  0  0
   -1.2740   -0.1410   -0.7960 O   0  0  0  0  0  0  0  0  0  0  0  0
   -0.0850    0.2570   -0.9670 O   0  0  0  0  0  0  0  0  0  0  0  0
    1.0040   -0.3390   -0.5880 C   0  0  0  0  0  0  0  0  0  0  0  0
    2.3160    0.3390   -1.0630 C   0  0  0  0  0  0  0  0  0  0  0  0
    3.2970   -0.5640   -0.8420 O   0  0  0  0  0  0  0  0  0  0  0  0
    3.8160   -0.8000    0.2570 O   0  0  0  0  0  0  0  0  0  0  0  0
    3.4320   -0.0820    1.2870 O   0  0  0  0  0  0  0  0  0  0  0  0
  1  2  2  0
  2  3  1  0
  2  5  1  0
  3  4  1  0
  5  6  1  0
  6  7  1  0
  7  8  1  0
  8  9  1  0
  9 10  1  0
 10 11  1  0
M  END
