
     RDKit          3D

 13 14  0  0  0  0  0  0  0  0999 V2000
   -0.3710   -1.5040    1.7020 C   0  0  0  0  0  0  0  0  0  0  0  0
   -0.8510   -0.6280    0.5930 C   0  0  0  0  0  0  0  0  0  0  0  0
   -2.0620   -0.1230    0.7110 C   0  0  0  0  0  0  0  0  0  0  0  0
   -2.6240    0.9500   -0.6690 P   0  0  0  0  0  0  0  0  0  0  0  0
   -3.6510    2.2090   -0.0040 O   0  0  0  0  0  0  0  0  0  0  0  0
   -1.2020    1.6350   -1.3350 O   0  0  0  0  0  0  0  0  0  0  0  0
   -0.0920    0.8950   -1.2770 C   0  0  1  0  0  0  0  0  0  0  0  0
    0.9390    1.6890   -0.6580 O   0  0  0  0  0  0  0  0  0  0  0  0
    1.9240    0.7770   -0.2530 C   0  0  0  0  0  0  0  0  0  0  0  0
    3.2590    1.1830    0.0210 N   0  0  0  0  0  0  0  0  0  0  0  0
    1.4480   -0.4430   -0.1690 C   0  0  0  0  0  0  0  0  0  0  0  0
   -0.0100   -0.3610   -0.5550 C   0  0  1  0  0  0  0  0  0  0  0  0
   -0.1940   -1.4940   -1.4840 N   0  0  0  0  0  0  0  0  0  0  0  0
  1  2  1  0
  2  3  2  0
  2 12  1  0
  3  4  1  0
  4  5  1  0
  4  6  1  0
  7  6  1  1
  7  8  1  0
  7 12  1  0
  8  9  1  0
  9 10  1  0
  9 11  2  0
 11 12  1  0
 12 13  1  6
M  END
