
     RDKit          3D

 11 10  0  0  0  0  0  0  0  0999 V2000
    3.0270    1.0860    1.0130 O   0  0  0  0  0  0  0  0  0  0  0  0
    2.3770    0.1720    0.4450 C   0  0  0  0  0  0  0  0  0  0  0  0
    2.9890   -1.0130    0.0630 O   0  0  0  0  0  0  0  0  0  0  0  0
    0.9150    0.3370    0.1640 C   0  0  2  0  0  0  0  0  0  0  0  0
    0.5160    1.5910    0.6290 O   0  0  0  0  0  0  0  0  0  0  0  0
    0.0570    2.2890   -0.3630 O   0  0  0  0  0  0  0  0  0  0  0  0
    0.2390   -0.6090    0.9080 O   0  0  0  0  0  0  0  0  0  0  0  0
   -0.5430   -1.4320    0.1220 C   0  0  0  0  0  0  0  0  0  0  0  0
   -1.6170   -0.6590   -0.6010 C   0  0  0  0  0  0  0  0  0  0  0  0
   -2.4020   -0.0530    0.3780 O   0  0  0  0  0  0  0  0  0  0  0  0
   -3.3770    0.6540   -0.1280 O   0  0  0  0  0  0  0  0  0  0  0  0
  1  2  2  0
  2  3  1  0
  2  4  1  0
  4  5  1  1
  4  7  1  0
  5  6  1  0
  7  8  1  0
  8  9  1  0
  9 10  1  0
 10 11  1  0
M  END
