
     RDKit          3D

 11 10  0  0  0  0  0  0  0  0999 V2000
    1.5250   -0.1800   -1.9810 O   0  0  0  0  0  0  0  0  0  0  0  0
    2.2110   -0.0730   -0.9450 C   0  0  0  0  0  0  0  0  0  0  0  0
    3.4720    0.5330   -1.0720 O   0  0  0  0  0  0  0  0  0  0  0  0
    1.8170   -0.5070    0.3040 O   0  0  0  0  0  0  0  0  0  0  0  0
    0.5670   -1.1170    0.4920 C   0  0  0  0  0  0  0  0  0  0  0  0
   -0.5510   -0.1750    0.1270 C   0  0  2  0  0  0  0  0  0  0  0  0
   -0.5340    1.0580    1.0250 C   0  0  0  0  0  0  0  0  0  0  0  0
    0.6780    1.7280    0.8710 O   0  0  0  0  0  0  0  0  0  0  0  0
   -1.7890   -0.8020    0.3260 O   0  0  0  0  0  0  0  0  0  0  0  0
   -2.4630   -0.8160   -0.7980 O   0  0  0  0  0  0  0  0  0  0  0  0
   -3.7530   -0.6010   -0.5460 O   0  0  0  0  0  0  0  0  0  0  0  0
  1  2  2  0
  2  3  1  0
  2  4  1  0
  4  5  1  0
  6  5  1  1
  6  7  1  0
  6  9  1  0
  7  8  1  0
  9 10  1  0
 10 11  1  0
M  END
