
     RDKit          3D

 11 11  0  0  0  0  0  0  0  0999 V2000
    3.4160    0.7360    0.8760 C   0  0  0  0  0  0  0  0  0  0  0  0
    2.7260    0.4690   -0.3340 O   0  0  0  0  0  0  0  0  0  0  0  0
    1.5120   -0.1970   -0.3570 C   0  0  0  0  0  0  0  0  0  0  0  0
    1.0450   -0.5600    0.7580 O   0  0  0  0  0  0  0  0  0  0  0  0
    0.7850   -0.4790   -1.6270 C   0  0  0  0  0  0  0  0  0  0  0  0
   -0.4020   -1.1580   -1.3560 O   0  0  0  0  0  0  0  0  0  0  0  0
   -1.4270   -0.6530   -0.5590 C   0  0  0  0  0  0  0  0  0  0  0  0
   -1.8250   -1.0530    0.6350 C   0  0  0  0  0  0  0  0  0  0  0  0
   -2.9570   -0.2170    1.1040 C   0  0  0  0  0  0  0  0  0  0  0  0
   -3.1360    0.7030    0.0060 N   0  0  0  0  0  0  0  0  0  0  0  0
   -2.2820    0.4680   -0.9330 C   0  0  0  0  0  0  0  0  0  0  0  0
  1  2  1  0
  2  3  1  0
  3  4  2  0
  3  5  1  0
  5  6  1  0
  6  7  1  0
  7  8  2  0
  7 11  1  0
  8  9  1  0
  9 10  1  0
 10 11  2  0
M  END
