
     RDKit          3D

 10 10  0  0  0  0  0  0  0  0999 V2000
    3.7300    0.1430    0.1150 C   0  0  0  0  0  0  0  0  0  0  0  0
    2.3640    0.1760   -0.2770 O   0  0  0  0  0  0  0  0  0  0  0  0
    1.3990   -0.6220    0.3220 C   0  0  0  0  0  0  0  0  0  0  0  0
    1.7590   -1.3860    1.2300 O   0  0  0  0  0  0  0  0  0  0  0  0
    0.0020   -0.5030   -0.1690 C   0  0  2  0  0  0  0  0  0  0  0  0
   -0.4420    0.9230    0.0870 C   0  0  0  0  0  0  0  0  0  0  0  0
   -1.7650    1.1900   -0.4200 N   0  0  0  0  0  0  0  0  0  0  0  0
   -2.6660    0.2510    0.2610 C   0  0  0  0  0  0  0  0  0  0  0  0
   -2.1410   -1.1510   -0.0050 C   0  0  0  0  0  0  0  0  0  0  0  0
   -0.8680   -1.3370    0.4930 O   0  0  0  0  0  0  0  0  0  0  0  0
  1  2  1  0
  2  3  1  0
  3  4  2  0
  5  3  1  1
  5  6  1  0
  5 10  1  0
  6  7  1  0
  7  8  1  0
  8  9  1  0
  9 10  1  0
M  END
