
     RDKit          3D

 11 11  0  0  0  0  0  0  0  0999 V2000
    4.0880    0.3790   -0.0310 C   0  0  0  0  0  0  0  0  0  0  0  0
    2.7640   -0.2910    0.1170 C   0  0  0  0  0  0  0  0  0  0  0  0
    2.5550   -1.3580   -0.4940 O   0  0  0  0  0  0  0  0  0  0  0  0
    1.7910    0.2670    0.9170 O   0  0  0  0  0  0  0  0  0  0  0  0
    0.5180   -0.2940    1.1120 C   0  0  0  0  0  0  0  0  0  0  0  0
   -0.2910   -0.4260   -0.1580 C   0  0  1  0  0  0  0  0  0  0  0  0
   -1.5670   -1.1550    0.1020 C   0  0  0  0  0  0  0  0  0  0  0  0
   -2.6600   -0.3470    0.5430 N   0  0  0  0  0  0  0  0  0  0  0  0
   -2.6310    1.0080    0.0580 C   0  0  0  0  0  0  0  0  0  0  0  0
   -1.7570    1.0010   -1.1940 C   0  0  0  0  0  0  0  0  0  0  0  0
   -0.4500    0.8410   -0.6860 O   0  0  0  0  0  0  0  0  0  0  0  0
  1  2  1  0
  2  3  2  0
  2  4  1  0
  4  5  1  0
  6  5  1  1
  6  7  1  0
  6 11  1  0
  7  8  1  0
  8  9  1  0
  9 10  1  0
 10 11  1  0
M  END
