
     RDKit          3D

 11 11  0  0  0  0  0  0  0  0999 V2000
   -0.8020   -2.1780   -0.5380 C   0  0  0  0  0  0  0  0  0  0  0  0
   -1.0210   -0.8790    0.1270 C   0  0  2  0  0  0  0  0  0  0  0  0
   -2.2580   -0.2530   -0.4640 C   0  0  0  0  0  0  0  0  0  0  0  0
   -3.0660   -0.8860   -1.1630 O   0  0  0  0  0  0  0  0  0  0  0  0
   -2.4410    1.0810   -0.1780 O   0  0  0  0  0  0  0  0  0  0  0  0
   -1.5010    1.9290    0.3980 C   0  0  0  0  0  0  0  0  0  0  0  0
   -0.1710    1.3000    0.6770 C   0  0  0  0  0  0  0  0  0  0  0  0
    0.0510    0.0340    0.1300 N   0  0  0  0  0  0  0  0  0  0  0  0
    1.1650   -0.1950   -0.6960 C   0  0  0  0  0  0  0  0  0  0  0  0
    2.5130   -0.1380    0.0180 C   0  0  0  0  0  0  0  0  0  0  0  0
    2.7090    1.1040    0.5890 O   0  0  0  0  0  0  0  0  0  0  0  0
  2  1  1  6
  2  3  1  0
  2  8  1  0
  3  4  2  0
  3  5  1  0
  5  6  1  0
  6  7  1  0
  7  8  1  0
  8  9  1  0
  9 10  1  0
 10 11  1  0
M  END
