
     RDKit          3D

 11 11  0  0  0  0  0  0  0  0999 V2000
   -2.9650   -0.1160    1.0470 C   0  0  0  0  0  0  0  0  0  0  0  0
   -1.7010    0.2240    0.3520 C   0  0  1  0  0  0  0  0  0  0  0  0
   -0.6140   -0.8380    0.4650 C   0  0  0  0  0  0  0  0  0  0  0  0
    0.6150   -0.1210    0.0800 N   0  0  0  0  0  0  0  0  0  0  0  0
    1.7630   -0.9630    0.2410 C   0  0  0  0  0  0  0  0  0  0  0  0
    2.9870   -0.1220    0.1980 C   0  0  0  0  0  0  0  0  0  0  0  0
    4.1340   -0.6340    0.3920 O   0  0  0  0  0  0  0  0  0  0  0  0
    2.9190    1.2290   -0.0490 O   0  0  0  0  0  0  0  0  0  0  0  0
    0.4760    0.2800   -1.3170 C   0  0  0  0  0  0  0  0  0  0  0  0
   -0.7860    1.0340   -1.5680 C   0  0  0  0  0  0  0  0  0  0  0  0
   -1.9070    0.4220   -0.9940 O   0  0  0  0  0  0  0  0  0  0  0  0
  2  1  1  1
  2  3  1  0
  2 11  1  0
  3  4  1  0
  4  5  1  0
  4  9  1  0
  5  6  1  0
  6  7  2  0
  6  8  1  0
  9 10  1  0
 10 11  1  0
M  END
