
     RDKit          3D

 11 11  0  0  0  0  0  0  0  0999 V2000
    3.7020    0.1770   -0.9970 C   0  0  0  0  0  0  0  0  0  0  0  0
    2.2600    0.2070   -0.7300 N   0  0  0  0  0  0  0  0  0  0  0  0
    1.7860    0.6410    0.5260 C   0  0  0  0  0  0  0  0  0  0  0  0
    2.7540    0.9740    1.3370 O   0  0  0  0  0  0  0  0  0  0  0  0
    0.4300    0.7390    0.9500 C   0  0  0  0  0  0  0  0  0  0  0  0
   -0.6800    0.4990    0.3570 C   0  0  0  0  0  0  0  0  0  0  0  0
   -0.8170    0.0240   -1.0370 C   0  0  0  0  0  0  0  0  0  0  0  0
   -2.1980    0.0530   -1.3750 O   0  0  0  0  0  0  0  0  0  0  0  0
   -2.9070   -0.8340   -0.5730 C   0  0  0  0  0  0  0  0  0  0  0  0
   -2.8570   -0.4050    0.8780 C   0  0  0  0  0  0  0  0  0  0  0  0
   -1.9400    0.6670    0.9930 O   0  0  0  0  0  0  0  0  0  0  0  0
  1  2  1  0
  2  3  1  0
  3  4  2  0
  3  5  1  0
  5  6  2  3
  6  7  1  0
  6 11  1  0
  7  8  1  0
  8  9  1  0
  9 10  1  0
 10 11  1  0
M  END
