
     RDKit          3D

 11 11  0  0  0  0  0  0  0  0999 V2000
    3.9940    1.1770   -1.0520 C   0  0  0  0  0  0  0  0  0  0  0  0
    3.2490    0.1300   -0.2700 C   0  0  0  0  0  0  0  0  0  0  0  0
    1.8570    0.4530   -0.3260 O   0  0  0  0  0  0  0  0  0  0  0  0
    0.9240   -0.3570    0.3210 C   0  0  0  0  0  0  0  0  0  0  0  0
    1.3480   -1.3610    0.9410 O   0  0  0  0  0  0  0  0  0  0  0  0
   -0.5120   -0.0750    0.2970 C   0  0  2  0  0  0  0  0  0  0  0  0
   -1.2110   -1.0920    1.0540 N   0  0  0  0  0  0  0  0  0  0  0  0
   -2.5900   -0.6670    1.1760 C   0  0  0  0  0  0  0  0  0  0  0  0
   -3.1590   -0.5330   -0.2240 C   0  0  0  0  0  0  0  0  0  0  0  0
   -2.3030    0.5050   -0.9370 C   0  0  0  0  0  0  0  0  0  0  0  0
   -1.0140   -0.0240   -1.0130 O   0  0  0  0  0  0  0  0  0  0  0  0
  1  2  1  0
  2  3  1  0
  3  4  1  0
  4  5  2  0
  6  4  1  6
  6  7  1  0
  6 11  1  0
  7  8  1  0
  8  9  1  0
  9 10  1  0
 10 11  1  0
M  END
