
     RDKit          3D

 10 10  0  0  0  0  0  0  0  0999 V2000
    3.4630    0.4620   -0.1040 C   0  0  0  0  0  0  0  0  0  0  0  0
    2.0440    0.5730   -0.2050 O   0  0  0  0  0  0  0  0  0  0  0  0
    1.1980   -0.4170    0.2790 C   0  0  0  0  0  0  0  0  0  0  0  0
    1.7540   -1.4130    0.8090 O   0  0  0  0  0  0  0  0  0  0  0  0
   -0.2640   -0.3120    0.1790 C   0  0  0  0  0  0  0  0  0  0  0  0
   -0.9840    0.6570   -0.3430 C   0  0  0  0  0  0  0  0  0  0  0  0
   -0.4610    1.8000   -0.9160 O   0  0  0  0  0  0  0  0  0  0  0  0
   -2.4320    0.3680   -0.2390 C   0  0  0  0  0  0  0  0  0  0  0  0
   -2.4840   -1.0490    0.0510 N   0  0  0  0  0  0  0  0  0  0  0  0
   -1.2030   -1.3330    0.6760 C   0  0  0  0  0  0  0  0  0  0  0  0
  1  2  1  0
  2  3  1  0
  3  4  2  0
  3  5  1  0
  5  6  2  0
  5 10  1  0
  6  7  1  0
  6  8  1  0
  8  9  1  0
  9 10  1  0
M  END
