
     RDKit          3D

 11 11  0  0  0  0  0  0  0  0999 V2000
   -2.9920    0.9960   -0.4070 C   0  0  0  0  0  0  0  0  0  0  0  0
   -2.2830   -0.1630    0.2360 C   0  0  0  0  0  0  0  0  0  0  0  0
   -0.9200   -0.3400   -0.2480 N   0  0  0  0  0  0  0  0  0  0  0  0
   -0.5030   -1.6550    0.2990 C   0  0  0  0  0  0  0  0  0  0  0  0
    0.9390   -1.9160   -0.0370 C   0  0  0  0  0  0  0  0  0  0  0  0
    1.7760   -0.9190    0.4320 O   0  0  0  0  0  0  0  0  0  0  0  0
    1.3750    0.3240   -0.1140 C   0  0  2  0  0  0  0  0  0  0  0  0
    1.2300    0.2850   -1.4810 O   0  0  0  0  0  0  0  0  0  0  0  0
    2.3490    1.3690    0.3840 C   0  0  0  0  0  0  0  0  0  0  0  0
    3.6630    1.1030    0.0070 O   0  0  0  0  0  0  0  0  0  0  0  0
   -0.0100    0.5900    0.4650 C   0  0  0  0  0  0  0  0  0  0  0  0
  1  2  1  0
  2  3  1  0
  3  4  1  0
  3 11  1  0
  4  5  1  0
  5  6  1  0
  6  7  1  0
  7  8  1  6
  7  9  1  0
  7 11  1  0
  9 10  1  0
M  END
