
     RDKit          3D

 17 18  0  0  0  0  0  0  0  0999 V2000
   -4.3820   -0.0360   -0.0400 C   0  0  0  0  0  0  0  0  0  0  0  0
   -2.9560    0.2930    0.3570 C   0  0  2  0  0  0  0  0  0  0  0  0
   -2.8070    1.6760    0.1340 O   0  0  0  0  0  0  0  0  0  0  0  0
   -1.9520   -0.4040   -0.5180 C   0  0  2  0  0  0  0  0  0  0  0  0
   -1.9610   -1.7710   -0.4210 O   0  0  0  0  0  0  0  0  0  0  0  0
   -0.5970    0.2200   -0.2530 C   0  0  1  0  0  0  0  0  0  0  0  0
   -0.1620    0.0860    1.1580 C   0  0  0  0  0  0  0  0  0  0  0  0
    1.1140    0.7430    1.3230 N   0  0  0  0  0  0  0  0  0  0  0  0
    2.1340    0.3010    0.4160 C   0  0  0  0  0  0  0  0  0  0  0  0
    3.3820    0.3190    0.6640 N   0  0  0  0  0  0  0  0  0  0  0  0
    4.3480   -0.1380   -0.2830 C   0  0  0  0  0  0  0  0  0  0  0  0
    5.7000   -0.0600    0.1280 N   0  0  0  0  0  0  0  0  0  0  0  0
    4.0410   -0.5980   -1.4460 N   0  0  0  0  0  0  0  0  0  0  0  0
    2.6770   -0.6570   -1.8180 C   0  0  0  0  0  0  0  0  0  0  0  0
    2.2770   -1.0900   -2.9330 O   0  0  0  0  0  0  0  0  0  0  0  0
    1.6450   -0.2010   -0.8870 C   0  0  0  0  0  0  0  0  0  0  0  0
    0.4020   -0.2290   -1.1630 N   0  0  0  0  0  0  0  0  0  0  0  0
  2  1  1  6
  2  3  1  0
  2  4  1  0
  4  5  1  1
  4  6  1  0
  6  7  1  1
  6 17  1  0
  7  8  1  0
  8  9  1  0
  9 10  2  0
  9 16  1  0
 10 11  1  0
 11 12  1  0
 11 13  2  0
 13 14  1  0
 14 15  2  0
 14 16  1  0
 16 17  2  0
M  END
