
     RDKit          3D

 17 19  0  0  0  0  0  0  0  0999 V2000
   -2.4380   -1.5270   -1.3650 C   0  0  0  0  0  0  0  0  0  0  0  0
   -3.0740   -0.4780   -0.5580 C   0  0  0  0  0  0  0  0  0  0  0  0
   -4.3910   -0.3480   -0.3920 C   0  0  0  0  0  0  0  0  0  0  0  0
   -4.6580    0.8430    0.4970 C   0  0  0  0  0  0  0  0  0  0  0  0
   -3.4120    1.6960    0.2650 C   0  0  0  0  0  0  0  0  0  0  0  0
   -2.3890    0.5770    0.1790 C   0  0  0  0  0  0  0  0  0  0  0  0
   -1.2090    0.6350    0.6970 C   0  0  0  0  0  0  0  0  0  0  0  0
   -0.2260   -0.4530    0.6480 C   0  0  0  0  0  0  0  0  0  0  0  0
   -0.4140   -1.7590    0.8950 N   0  0  0  0  0  0  0  0  0  0  0  0
    0.7130   -2.4220    0.7320 N   0  0  0  0  0  0  0  0  0  0  0  0
    1.6650   -1.5470    0.3730 C   0  0  0  0  0  0  0  0  0  0  0  0
    1.1030   -0.3020    0.3130 C   0  0  0  0  0  0  0  0  0  0  0  0
    1.8420    0.9250   -0.0480 C   0  0  0  0  0  0  0  0  0  0  0  0
    3.2770    0.7480    0.0700 N   0  0  2  0  0  0  0  0  0  0  0  0
    3.9050    1.8240   -0.6710 C   0  0  0  0  0  0  0  0  0  0  0  0
    3.7100   -0.4980   -0.5490 C   0  0  0  0  0  0  0  0  0  0  0  0
    3.1070   -1.7160    0.0620 C   0  0  0  0  0  0  0  0  0  0  0  0
  1  2  1  0
  2  3  2  0
  2  6  1  0
  3  4  1  0
  4  5  1  0
  5  6  1  0
  6  7  2  3
  7  8  1  0
  8  9  1  0
  8 12  2  0
  9 10  1  0
 10 11  2  0
 11 12  1  0
 11 17  1  0
 12 13  1  0
 13 14  1  0
 14 15  1  6
 14 16  1  0
 16 17  1  0
M  CHG  1  14   1
M  END
