
     RDKit          3D

 27 27  0  0  0  0  0  0  0  0999 V2000
   -5.9200    1.3790   -1.6370 C   0  0  0  0  0  0  0  0  0  0  0  0
   -6.1430    1.1670   -0.3700 C   0  0  0  0  0  0  0  0  0  0  0  0
   -5.1970    0.7080    0.6030 C   0  0  0  0  0  0  0  0  0  0  0  0
   -5.6170    0.5180    1.8700 C   0  0  0  0  0  0  0  0  0  0  0  0
   -7.0220    0.7820    2.2260 C   0  0  0  0  0  0  0  0  0  0  0  0
   -3.7760    0.4030    0.3150 C   0  0  2  0  0  0  0  0  0  0  0  0
   -3.0870   -0.2270    1.5140 C   0  0  0  0  0  0  0  0  0  0  0  0
   -2.9680    1.5960   -0.0730 C   0  0  0  0  0  0  0  0  0  0  0  0
   -1.5940    1.1710   -0.3290 N   0  0  0  0  0  0  0  0  0  0  0  0
   -1.2240    0.2470   -1.3360 C   0  0  0  0  0  0  0  0  0  0  0  0
   -2.0780   -0.2630   -2.0790 O   0  0  0  0  0  0  0  0  0  0  0  0
    0.2120   -0.1500   -1.5430 C   0  0  0  0  0  0  0  0  0  0  0  0
    0.3410   -1.1250   -2.6510 C   0  0  0  0  0  0  0  0  0  0  0  0
    1.7480   -1.5150   -2.9140 C   0  0  0  0  0  0  0  0  0  0  0  0
    2.5090   -2.1800   -1.8300 C   0  0  1  0  0  0  0  0  0  0  0  0
    3.9060   -2.4900   -2.3680 C   0  0  0  0  0  0  0  0  0  0  0  0
    4.7160   -1.3850   -2.4220 O   0  0  0  0  0  0  0  0  0  0  0  0
    4.5130   -0.5010   -1.3690 C   0  0  0  0  0  0  0  0  0  0  0  0
    3.8660   -1.2980   -0.2550 C   0  0  1  0  0  0  0  0  0  0  0  0
    3.9770   -0.6020    1.0530 C   0  0  0  0  0  0  0  0  0  0  0  0
    2.9680   -0.2890    1.7360 O   0  0  0  0  0  0  0  0  0  0  0  0
    5.2530   -0.2810    1.5480 N   0  0  0  0  0  0  0  0  0  0  0  0
    5.4730    0.3940    2.8090 C   0  0  0  0  0  0  0  0  0  0  0  0
    4.8260    1.7300    2.8390 C   0  0  0  0  0  0  0  0  0  0  0  0
    4.1100    2.1850    1.7180 N   0  0  0  0  0  0  0  0  0  0  0  0
    4.9370    2.4210    3.8700 O   0  0  0  0  0  0  0  0  0  0  0  0
    2.5670   -1.5500   -0.6180 O   0  0  0  0  0  0  0  0  0  0  0  0
  1  2  2  0
  2  3  1  0
  3  4  2  3
  3  6  1  0
  4  5  1  0
  6  7  1  1
  6  8  1  0
  8  9  1  0
  9 10  1  0
 10 11  2  0
 10 12  1  0
 12 13  1  0
 13 14  1  0
 15 14  1  6
 15 16  1  0
 15 27  1  0
 16 17  1  0
 17 18  1  0
 18 19  1  0
 19 20  1  1
 19 27  1  0
 20 21  2  0
 20 22  1  0
 22 23  1  0
 23 24  1  0
 24 25  1  0
 24 26  2  0
M  END
