
     RDKit          3D

 17 18  0  0  0  0  0  0  0  0999 V2000
   -3.1540   -2.2390   -0.5980 C   0  0  0  0  0  0  0  0  0  0  0  0
   -2.6490   -0.8840   -0.5300 N   0  0  0  0  0  0  0  0  0  0  0  0
   -3.6880    0.1120   -0.3050 C   0  0  0  0  0  0  0  0  0  0  0  0
   -3.2780    1.1550    0.6520 C   0  0  0  0  0  0  0  0  0  0  0  0
   -2.3340    2.2340    0.1100 C   0  0  0  0  0  0  0  0  0  0  0  0
   -0.9800    1.6270   -0.0880 C   0  0  0  0  0  0  0  0  0  0  0  0
   -0.0560    2.1340    0.7070 C   0  0  0  0  0  0  0  0  0  0  0  0
    1.3860    1.8210    0.8410 C   0  0  0  0  0  0  0  0  0  0  0  0
    2.3940    1.6700    0.0890 C   0  0  0  0  0  0  0  0  0  0  0  0
    3.8400    1.3600    0.1130 C   0  0  0  0  0  0  0  0  0  0  0  0
    4.0370   -0.1140    0.0230 N   0  0  0  0  0  0  0  0  0  0  0  0
    2.9370   -0.8620    0.5950 C   0  0  0  0  0  0  0  0  0  0  0  0
    1.9020   -1.3530   -0.3780 C   0  0  0  0  0  0  0  0  0  0  0  0
    0.7780   -2.1530    0.1990 C   0  0  0  0  0  0  0  0  0  0  0  0
   -0.5370   -1.9270   -0.3720 N   0  0  0  0  0  0  0  0  0  0  0  0
   -1.1940   -0.7270   -0.6930 C   0  0  0  0  0  0  0  0  0  0  0  0
   -0.7390    0.4860   -1.0540 C   0  0  0  0  0  0  0  0  0  0  0  0
  1  2  1  0
  2  3  1  0
  2 16  1  0
  3  4  1  0
  4  5  1  0
  5  6  1  0
  6  7  2  0
  6 17  1  0
  7  8  1  0
  8  9  2  0
  9 10  1  0
 10 11  1  0
 11 12  1  0
 12 13  1  0
 13 14  1  0
 14 15  1  0
 15 16  1  0
 16 17  2  0
M  CHG  1  11   1
M  END
