
     RDKit          3D

 17 18  0  0  0  0  0  0  0  0999 V2000
   -4.6970   -0.3810    1.2720 C   0  0  0  0  0  0  0  0  0  0  0  0
   -3.4120   -0.1000    1.3080 C   0  0  0  0  0  0  0  0  0  0  0  0
   -2.7490    0.0900    2.5800 C   0  0  0  0  0  0  0  0  0  0  0  0
   -1.4700    0.3740    2.5720 C   0  0  0  0  0  0  0  0  0  0  0  0
   -0.6940    0.5060    1.3280 C   0  0  0  0  0  0  0  0  0  0  0  0
   -1.2350    0.3460    0.1210 C   0  0  0  0  0  0  0  0  0  0  0  0
   -0.4900    0.4680   -1.1150 C   0  0  0  0  0  0  0  0  0  0  0  0
    0.8790    0.6360   -1.1720 N   0  0  0  0  0  0  0  0  0  0  0  0
    1.8070   -0.3830   -0.9550 C   0  0  2  0  0  0  0  0  0  0  0  0
    1.9040   -1.0630    0.3270 C   0  0  0  0  0  0  0  0  0  0  0  0
    2.9730   -0.9760    1.1160 C   0  0  0  0  0  0  0  0  0  0  0  0
    4.1890   -0.1700    0.7670 C   0  0  0  0  0  0  0  0  0  0  0  0
    3.7750    0.8280   -0.2170 N   0  0  0  0  0  0  0  0  0  0  0  0
    3.1980    0.1410   -1.3300 C   0  0  0  0  0  0  0  0  0  0  0  0
   -2.6490    0.0270    0.0330 C   0  0  0  0  0  0  0  0  0  0  0  0
   -3.2710   -0.1610   -1.0040 N   0  0  0  0  0  0  0  0  0  0  0  0
   -3.2330   -0.2070   -2.3750 C   0  0  0  0  0  0  0  0  0  0  0  0
  1  2  2  0
  2  3  1  0
  2 15  1  0
  3  4  2  0
  4  5  1  0
  5  6  2  0
  6  7  1  0
  6 15  1  0
  7  8  1  0
  9  8  1  1
  9 10  1  0
  9 14  1  0
 10 11  2  0
 11 12  1  0
 12 13  1  0
 13 14  1  0
 15 16  2  3
 16 17  1  0
M  CHG  1  13   1
M  END
