
     RDKit          3D

 17 18  0  0  0  0  0  0  0  0999 V2000
    1.9510    3.2980   -0.0090 C   0  0  0  0  0  0  0  0  0  0  0  0
    1.0230    2.3890   -0.7120 C   0  0  0  0  0  0  0  0  0  0  0  0
    1.0800    1.1010   -0.6680 C   0  0  0  0  0  0  0  0  0  0  0  0
    0.0640    0.3990   -1.4380 N   0  0  0  0  0  0  0  0  0  0  0  0
   -1.3090    0.7030   -1.1490 C   0  0  2  0  0  0  0  0  0  0  0  0
   -1.5510    0.3580    0.3100 C   0  0  0  0  0  0  0  0  0  0  0  0
   -2.2660   -0.9520    0.2240 C   0  0  1  0  0  0  0  0  0  0  0  0
   -3.0230   -1.2940    1.4840 C   0  0  0  0  0  0  0  0  0  0  0  0
   -3.1130   -0.8150   -0.9200 N   0  0  0  0  0  0  0  0  0  0  0  0
   -4.2980   -0.0470   -0.6980 C   0  0  0  0  0  0  0  0  0  0  0  0
   -2.2520   -0.1980   -1.9040 C   0  0  0  0  0  0  0  0  0  0  0  0
    2.0150    0.2650    0.0470 C   0  0  0  0  0  0  0  0  0  0  0  0
    2.0090   -1.0730    0.0390 C   0  0  0  0  0  0  0  0  0  0  0  0
    3.0860   -1.5760    0.8630 C   0  0  0  0  0  0  0  0  0  0  0  0
    3.3800   -3.0180    1.0840 C   0  0  0  0  0  0  0  0  0  0  0  0
    3.7110   -0.5720    1.3470 N   0  0  0  0  0  0  0  0  0  0  0  0
    3.1220    0.6910    0.9010 C   0  0  0  0  0  0  0  0  0  0  0  0
  1  2  1  0
  2  3  2  3
  3  4  1  0
  3 12  1  0
  5  4  1  6
  5  6  1  0
  5 11  1  0
  6  7  1  0
  7  8  1  1
  7  9  1  0
  9 10  1  0
  9 11  1  0
 12 13  2  0
 12 17  1  0
 13 14  1  0
 14 15  1  0
 14 16  2  0
 16 17  1  0
M  CHG  1  16   1
M  END
