
     RDKit          3D

 17 19  0  0  0  0  0  0  0  0999 V2000
    3.5040    0.3320    1.9840 C   0  0  0  0  0  0  0  0  0  0  0  0
    3.4560    0.6650    0.5310 C   0  0  0  0  0  0  0  0  0  0  0  0
    4.4820    1.1680   -0.1780 N   0  0  0  0  0  0  0  0  0  0  0  0
    4.0760    1.3380   -1.4390 C   0  0  0  0  0  0  0  0  0  0  0  0
    2.7820    0.9370   -1.5180 N   0  0  0  0  0  0  0  0  0  0  0  0
    2.3820    0.5200   -0.3220 C   0  0  0  0  0  0  0  0  0  0  0  0
    1.0700   -0.0140    0.1320 C   0  0  0  0  0  0  0  0  0  0  0  0
    0.1150   -0.0630   -0.9600 N   0  0  1  0  0  0  0  0  0  0  0  0
   -0.3330   -1.4170   -1.1080 C   0  0  0  0  0  0  0  0  0  0  0  0
   -1.1860   -1.8780    0.0530 C   0  0  0  0  0  0  0  0  0  0  0  0
   -2.3520   -0.9720    0.1280 C   0  0  0  0  0  0  0  0  0  0  0  0
   -3.5430   -1.4520    0.6050 C   0  0  0  0  0  0  0  0  0  0  0  0
   -4.6660   -0.6180    0.6890 C   0  0  0  0  0  0  0  0  0  0  0  0
   -4.5180    0.6880    0.2740 C   0  0  0  0  0  0  0  0  0  0  0  0
   -3.3040    1.1400   -0.2030 C   0  0  0  0  0  0  0  0  0  0  0  0
   -2.1910    0.3280   -0.2890 C   0  0  0  0  0  0  0  0  0  0  0  0
   -0.9460    0.8960   -0.8070 C   0  0  0  0  0  0  0  0  0  0  0  0
  1  2  1  0
  2  3  1  0
  2  6  2  0
  3  4  1  0
  4  5  2  0
  5  6  1  0
  6  7  1  0
  8  7  1  1
  8  9  1  0
  8 17  1  0
  9 10  1  0
 10 11  1  0
 11 12  2  0
 11 16  1  0
 12 13  1  0
 13 14  2  0
 14 15  1  0
 15 16  2  0
 16 17  1  0
M  CHG  1   8   1
M  END
