
     RDKit          3D

 17 19  0  0  0  0  0  0  0  0999 V2000
   -3.3820    3.7670    1.1150 C   0  0  0  0  0  0  0  0  0  0  0  0
   -2.4700    3.1040    1.7700 C   0  0  0  0  0  0  0  0  0  0  0  0
   -2.0990    3.5060    3.1490 C   0  0  0  0  0  0  0  0  0  0  0  0
   -1.8090    1.9610    1.1470 C   0  0  0  0  0  0  0  0  0  0  0  0
   -0.8810    1.2980    1.8350 C   0  0  0  0  0  0  0  0  0  0  0  0
   -0.2100    0.1570    1.2350 C   0  0  0  0  0  0  0  0  0  0  0  0
   -0.5330   -0.2010    0.0230 C   0  0  0  0  0  0  0  0  0  0  0  0
    0.1120   -1.3120   -0.5780 N   0  0  0  0  0  0  0  0  0  0  0  0
   -0.3960   -2.3000   -1.5020 C   0  0  0  0  0  0  0  0  0  0  0  0
    0.8630   -2.5940   -2.3260 C   0  0  0  0  0  0  0  0  0  0  0  0
    1.9200   -2.3750   -1.3090 C   0  0  0  0  0  0  0  0  0  0  0  0
    3.3170   -2.8850   -1.3370 C   0  0  2  0  0  0  0  0  0  0  0  0
    4.2180   -2.5080   -0.1420 C   0  0  0  0  0  0  0  0  0  0  0  0
    4.4380   -1.9290   -1.4970 C   0  0  0  0  0  0  0  0  0  0  0  0
    1.4500   -1.6520   -0.3500 N   0  0  0  0  0  0  0  0  0  0  0  0
   -1.5480    0.5060   -0.7550 C   0  0  0  0  0  0  0  0  0  0  0  0
   -2.1920    1.6180   -0.1590 N   0  0  0  0  0  0  0  0  0  0  0  0
  1  2  2  0
  2  3  1  0
  2  4  1  0
  4  5  2  0
  4 17  1  0
  5  6  1  0
  6  7  2  0
  7  8  1  0
  7 16  1  0
  8  9  1  0
  8 15  1  0
  9 10  1  0
 10 11  1  0
 12 11  1  1
 11 15  2  0
 12 13  1  0
 12 14  1  0
 13 14  1  0
 16 17  1  0
M  CHG  1  17   1
M  END
