
     RDKit          3D

 17 18  0  0  0  0  0  0  0  0999 V2000
    4.4090   -1.4640    1.3180 C   0  0  0  0  0  0  0  0  0  0  0  0
    3.4830   -0.8650    0.2640 C   0  0  0  0  0  0  0  0  0  0  0  0
    3.2230    0.5620    0.5630 C   0  0  0  0  0  0  0  0  0  0  0  0
    4.4200    1.4390    0.6510 C   0  0  0  0  0  0  0  0  0  0  0  0
    2.0040    0.9890    0.7370 C   0  0  0  0  0  0  0  0  0  0  0  0
    0.8230    0.2210    0.6710 N   0  0  0  0  0  0  0  0  0  0  0  0
    0.0960    0.0940    1.9040 C   0  0  0  0  0  0  0  0  0  0  0  0
   -1.0670   -0.8610    1.6890 C   0  0  0  0  0  0  0  0  0  0  0  0
   -2.1440   -0.2740    0.8500 C   0  0  0  0  0  0  0  0  0  0  0  0
   -1.9910   -0.5000   -0.6370 C   0  0  1  0  0  0  0  0  0  0  0  0
   -3.2720   -0.0200   -1.2410 C   0  0  0  0  0  0  0  0  0  0  0  0
   -4.1860   -0.7270   -1.9220 N   0  0  0  0  0  0  0  0  0  0  0  0
   -5.2150    0.0570   -2.3090 C   0  0  0  0  0  0  0  0  0  0  0  0
   -4.9300    1.3250   -1.8440 C   0  0  0  0  0  0  0  0  0  0  0  0
   -3.7710    1.2430   -1.2160 N   0  0  0  0  0  0  0  0  0  0  0  0
   -0.8090    0.3060   -1.1470 C   0  0  0  0  0  0  0  0  0  0  0  0
    0.4820   -0.3310   -0.6110 C   0  0  0  0  0  0  0  0  0  0  0  0
  1  2  1  0
  2  3  1  0
  3  4  1  0
  3  5  2  3
  5  6  1  0
  6  7  1  0
  6 17  1  0
  7  8  1  0
  8  9  1  0
  9 10  1  0
 10 11  1  6
 10 16  1  0
 11 12  1  0
 11 15  2  0
 12 13  1  0
 13 14  2  0
 14 15  1  0
 16 17  1  0
M  CHG  1  15   1
M  END
