
     RDKit          3D

 17 19  0  0  0  0  0  0  0  0999 V2000
    5.0770    0.3710   -0.6250 C   0  0  0  0  0  0  0  0  0  0  0  0
    4.2320    1.2980   -0.3090 C   0  0  0  0  0  0  0  0  0  0  0  0
    2.9460    0.8970    0.2780 C   0  0  0  0  0  0  0  0  0  0  0  0
    1.9000    1.6140    0.6990 N   0  0  0  0  0  0  0  0  0  0  0  0
    0.9480    0.8210    1.1660 C   0  0  0  0  0  0  0  0  0  0  0  0
   -0.3400    1.3180    1.7160 C   0  0  0  0  0  0  0  0  0  0  0  0
   -1.3240    1.4350    0.5820 C   0  0  0  0  0  0  0  0  0  0  0  0
   -1.5040    0.1270   -0.0080 N   0  0  2  0  0  0  0  0  0  0  0  0
   -2.2270    0.2620   -1.2540 C   0  0  0  0  0  0  0  0  0  0  0  0
   -3.6800    0.6110   -1.0380 C   0  0  0  0  0  0  0  0  0  0  0  0
   -4.3660   -0.3730   -0.1190 C   0  0  0  0  0  0  0  0  0  0  0  0
   -3.3850   -1.4120    0.3780 C   0  0  0  0  0  0  0  0  0  0  0  0
   -2.1620   -0.7310    0.9380 C   0  0  0  0  0  0  0  0  0  0  0  0
    1.4000   -0.4350    1.0390 N   0  0  0  0  0  0  0  0  0  0  0  0
    2.6550   -0.4180    0.4830 C   0  0  0  0  0  0  0  0  0  0  0  0
    3.5980   -1.4800    0.1240 C   0  0  0  0  0  0  0  0  0  0  0  0
    4.8630   -1.0490   -0.4470 C   0  0  0  0  0  0  0  0  0  0  0  0
  1  2  2  0
  1 17  1  0
  2  3  1  0
  3  4  1  0
  3 15  2  0
  4  5  2  0
  5  6  1  0
  5 14  1  0
  6  7  1  0
  8  7  1  1
  8  9  1  0
  8 13  1  0
  9 10  1  0
 10 11  1  0
 11 12  1  0
 12 13  1  0
 14 15  1  0
 15 16  1  0
 16 17  1  0
M  CHG  1   8   1
M  END
