
     RDKit          3D

 17 18  0  0  0  0  0  0  0  0999 V2000
    4.1080   -1.3650   -0.7170 C   0  0  0  0  0  0  0  0  0  0  0  0
    3.8070   -0.0710   -0.6150 C   0  0  0  0  0  0  0  0  0  0  0  0
    4.9030    0.9200   -0.8120 C   0  0  0  0  0  0  0  0  0  0  0  0
    2.5020    0.3810   -0.3320 N   0  0  0  0  0  0  0  0  0  0  0  0
    1.6170    0.6700   -1.4700 C   0  0  0  0  0  0  0  0  0  0  0  0
    0.3550    1.3800   -0.9620 C   0  0  0  0  0  0  0  0  0  0  0  0
   -0.2480    0.7250    0.1250 N   0  0  0  0  0  0  0  0  0  0  0  0
   -1.6280    0.4710    0.0670 C   0  0  2  0  0  0  0  0  0  0  0  0
   -2.0480   -0.3480    1.2490 C   0  0  0  0  0  0  0  0  0  0  0  0
   -3.5010   -0.6280    1.3480 C   0  0  0  0  0  0  0  0  0  0  0  0
   -4.3470   -0.0540    0.2690 C   0  0  0  0  0  0  0  0  0  0  0  0
   -4.2850   -0.7700   -0.9820 N   0  0  0  0  0  0  0  0  0  0  0  0
   -2.9380   -1.2750   -1.1740 C   0  0  0  0  0  0  0  0  0  0  0  0
   -2.0290   -0.0760   -1.2590 C   0  0  0  0  0  0  0  0  0  0  0  0
    0.5590   -0.0700    0.9590 C   0  0  0  0  0  0  0  0  0  0  0  0
    1.9490    0.5880    0.9720 C   0  0  1  0  0  0  0  0  0  0  0  0
    2.7830    0.1090    2.1010 C   0  0  0  0  0  0  0  0  0  0  0  0
  1  2  2  0
  2  3  1  0
  2  4  1  0
  4  5  1  0
  4 16  1  0
  5  6  1  0
  6  7  1  0
  8  7  1  6
  7 15  1  0
  8  9  1  0
  8 14  1  0
  9 10  1  0
 10 11  1  0
 11 12  1  0
 12 13  1  0
 13 14  1  0
 15 16  1  0
 16 17  1  1
M  CHG  1  12   1
M  END
