
     RDKit          3D

 23 25  0  0  0  0  0  0  0  0999 V2000
   -4.9730    0.1620    2.0860 C   0  0  0  0  0  0  0  0  0  0  0  0
   -3.8800    0.2770    1.0550 C   0  0  1  0  0  0  0  0  0  0  0  0
   -3.0200   -0.8220    1.0950 O   0  0  0  0  0  0  0  0  0  0  0  0
   -1.7120   -0.4450    0.7050 C   0  0  0  0  0  0  0  0  0  0  0  0
   -1.7210   -0.0320   -0.7250 C   0  0  2  0  0  0  0  0  0  0  0  0
   -0.4410   -0.1180   -1.3770 N   0  0  0  0  0  0  0  0  0  0  0  0
    0.6720   -0.1940   -0.4900 C   0  0  0  0  0  0  0  0  0  0  0  0
    1.4090   -1.5080   -0.5460 C   0  0  1  0  0  0  0  0  0  0  0  0
    1.9990   -1.7940   -1.9020 C   0  0  0  0  0  0  0  0  0  0  0  0
    2.8320   -0.7140   -2.2350 O   0  0  0  0  0  0  0  0  0  0  0  0
    3.7620   -0.3040   -1.2870 C   0  0  0  0  0  0  0  0  0  0  0  0
    4.8530    0.4660   -1.5920 C   0  0  0  0  0  0  0  0  0  0  0  0
    5.7620    0.8600   -0.6350 C   0  0  0  0  0  0  0  0  0  0  0  0
    5.6200    0.4970    0.6890 C   0  0  0  0  0  0  0  0  0  0  0  0
    6.5410    0.8890    1.6910 N   0  0  0  0  0  0  0  0  0  0  0  0
    4.5060   -0.2890    0.9980 C   0  0  0  0  0  0  0  0  0  0  0  0
    4.3450   -0.6670    2.3340 O   0  0  0  0  0  0  0  0  0  0  0  0
    3.6030   -0.6770    0.0310 C   0  0  0  0  0  0  0  0  0  0  0  0
    2.4880   -1.4700    0.3710 O   0  0  0  0  0  0  0  0  0  0  0  0
   -2.3550    1.3380   -0.8750 C   0  0  0  0  0  0  0  0  0  0  0  0
   -3.7050    1.2890   -1.1150 O   0  0  0  0  0  0  0  0  0  0  0  0
   -4.4010    0.3860   -0.3500 C   0  0  2  0  0  0  0  0  0  0  0  0
   -5.8700    0.8080   -0.3830 C   0  0  0  0  0  0  0  0  0  0  0  0
  2  1  1  1
  2  3  1  0
  2 22  1  0
  3  4  1  0
  4  5  1  0
  5  6  1  1
  5 20  1  0
  6  7  1  0
  8  7  1  6
  8  9  1  0
  8 19  1  0
  9 10  1  0
 10 11  1  0
 11 12  2  0
 11 18  1  0
 12 13  1  0
 13 14  2  0
 14 15  1  0
 14 16  1  0
 16 17  1  0
 16 18  2  0
 18 19  1  0
 20 21  1  0
 21 22  1  0
 22 23  1  1
M  CHG  1   6   1
M  END
