
     RDKit          3D

 23 25  0  0  0  0  0  0  0  0999 V2000
    5.0900    1.7270    0.6240 N   0  0  0  0  0  0  0  0  0  0  0  0
    3.9730    0.8240    0.8300 C   0  0  1  0  0  0  0  0  0  0  0  0
    2.7220    1.5100    0.5330 C   0  0  0  0  0  0  0  0  0  0  0  0
    1.6310    0.8410    0.1760 C   0  0  0  0  0  0  0  0  0  0  0  0
    0.5280    1.5980   -0.0730 O   0  0  0  0  0  0  0  0  0  0  0  0
    1.5700   -0.5920    0.0230 C   0  0  0  0  0  0  0  0  0  0  0  0
    0.5160   -1.3010   -0.1670 C   0  0  0  0  0  0  0  0  0  0  0  0
   -0.8760   -1.1450   -0.2810 C   0  0  0  0  0  0  0  0  0  0  0  0
   -1.6890   -2.1790   -0.6580 C   0  0  0  0  0  0  0  0  0  0  0  0
   -1.2850   -3.4730   -0.9680 C   0  0  0  0  0  0  0  0  0  0  0  0
   -2.1940   -4.3490   -1.3060 O   0  0  0  0  0  0  0  0  0  0  0  0
   -0.0330   -4.0540   -0.9930 O   0  0  0  0  0  0  0  0  0  0  0  0
   -3.1440   -1.7670   -0.7580 C   0  0  0  0  0  0  0  0  0  0  0  0
   -3.2440   -0.4390   -1.4710 C   0  0  0  0  0  0  0  0  0  0  0  0
   -2.4950    0.6300   -0.7490 C   0  0  1  0  0  0  0  0  0  0  0  0
   -3.4040    1.5120    0.0730 C   0  0  0  0  0  0  0  0  0  0  0  0
   -2.5750    1.8380    1.2750 C   0  0  2  0  0  0  0  0  0  0  0  0
   -1.8390    2.9960    1.1500 O   0  0  0  0  0  0  0  0  0  0  0  0
   -1.6960    0.6140    1.5090 C   0  0  0  0  0  0  0  0  0  0  0  0
   -1.6100    0.0060    0.2040 N   0  0  0  0  0  0  0  0  0  0  0  0
    2.8980   -1.2630    0.2950 C   0  0  0  0  0  0  0  0  0  0  0  0
    2.9240   -2.4080    0.7290 O   0  0  0  0  0  0  0  0  0  0  0  0
    4.0930   -0.4100   -0.0120 C   0  0  0  0  0  0  0  0  0  0  0  0
  2  1  1  6
  2  3  1  0
  2 23  1  0
  3  4  2  0
  4  5  1  0
  4  6  1  0
  6  7  2  3
  6 21  1  0
  7  8  1  0
  8  9  2  0
  8 20  1  0
  9 10  1  0
  9 13  1  0
 10 11  2  0
 10 12  1  0
 13 14  1  0
 15 14  1  1
 15 16  1  0
 15 20  1  0
 16 17  1  0
 17 18  1  6
 17 19  1  0
 19 20  1  0
 21 22  2  0
 21 23  1  0
M  CHG  1   1   1
M  END
