
     RDKit          3D

 23 25  0  0  0  0  0  0  0  0999 V2000
   -6.5650   -1.3850    0.7640 O   0  0  0  0  0  0  0  0  0  0  0  0
   -5.2620   -0.9720    1.0030 C   0  0  0  0  0  0  0  0  0  0  0  0
   -4.3840   -1.0800   -0.2290 C   0  0  1  0  0  0  0  0  0  0  0  0
   -4.9400   -0.2750   -1.2060 O   0  0  0  0  0  0  0  0  0  0  0  0
   -3.0020   -0.6290    0.1820 C   0  0  0  0  0  0  0  0  0  0  0  0
   -2.0640   -0.6280   -0.9050 N   0  0  0  0  0  0  0  0  0  0  0  0
   -0.8100   -0.1160   -0.3870 C   0  0  1  0  0  0  0  0  0  0  0  0
    0.3670   -0.5710   -1.2130 C   0  0  0  0  0  0  0  0  0  0  0  0
    1.5960   -0.0630   -0.4920 C   0  0  0  0  0  0  0  0  0  0  0  0
    2.5360   -0.9230   -0.2700 C   0  0  0  0  0  0  0  0  0  0  0  0
    3.8200   -0.8160    0.3720 C   0  0  0  0  0  0  0  0  0  0  0  0
    4.7210   -1.8160    0.5380 C   0  0  0  0  0  0  0  0  0  0  0  0
    5.9170   -1.3350    1.2370 C   0  0  2  0  0  0  0  0  0  0  0  0
    6.1190   -1.9670    2.4620 O   0  0  0  0  0  0  0  0  0  0  0  0
    5.6340    0.0350    1.4630 N   0  0  0  0  0  0  0  0  0  0  0  0
    4.4610    0.3280    0.9800 C   0  0  0  0  0  0  0  0  0  0  0  0
    1.6450    1.3500   -0.0950 C   0  0  1  0  0  0  0  0  0  0  0  0
    2.5700    1.9790   -0.9560 O   0  0  0  0  0  0  0  0  0  0  0  0
    0.3360    2.0370   -0.3470 C   0  0  0  0  0  0  0  0  0  0  0  0
    0.0590    3.3630   -0.4770 C   0  0  0  0  0  0  0  0  0  0  0  0
   -1.3110    3.4810   -0.6990 C   0  0  0  0  0  0  0  0  0  0  0  0
   -1.8030    2.2660   -0.6970 O   0  0  0  0  0  0  0  0  0  0  0  0
   -0.8520    1.3700   -0.4900 C   0  0  0  0  0  0  0  0  0  0  0  0
  1  2  1  0
  2  3  1  0
  3  4  1  6
  3  5  1  0
  5  6  1  0
  7  6  1  6
  7  8  1  0
  7 23  1  0
  8  9  1  0
  9 10  2  3
  9 17  1  0
 10 11  1  0
 11 12  2  0
 11 16  1  0
 12 13  1  0
 13 14  1  1
 13 15  1  0
 15 16  2  0
 17 18  1  6
 17 19  1  0
 19 20  1  0
 19 23  2  0
 20 21  2  0
 21 22  1  0
 22 23  1  0
M  CHG  1   6   1
M  END
