
     RDKit          3D

 23 24  0  0  0  0  0  0  0  0999 V2000
   -1.0450   -1.9760   -1.6400 C   0  0  0  0  0  0  0  0  0  0  0  0
   -0.1160   -1.9120   -0.7040 C   0  0  0  0  0  0  0  0  0  0  0  0
    0.7630   -3.0630   -0.6000 N   0  0  0  0  0  0  0  0  0  0  0  0
    1.8700   -2.9840    0.2950 C   0  0  0  0  0  0  0  0  0  0  0  0
    2.1460   -1.9190    0.9890 C   0  0  0  0  0  0  0  0  0  0  0  0
    3.3230   -2.1190    1.8450 C   0  0  0  0  0  0  0  0  0  0  0  0
    3.8640   -1.2980    2.6450 O   0  0  0  0  0  0  0  0  0  0  0  0
    3.7200   -3.4210    1.5870 O   0  0  0  0  0  0  0  0  0  0  0  0
    2.9010   -4.0090    0.6320 C   0  0  0  0  0  0  0  0  0  0  0  0
    1.4580   -0.6160    0.7640 C   0  0  1  0  0  0  0  0  0  0  0  0
    2.2530    0.2530    0.0090 O   0  0  0  0  0  0  0  0  0  0  0  0
    2.7350    1.4220    0.5290 C   0  0  0  0  0  0  0  0  0  0  0  0
    2.4530    1.7150    1.7130 O   0  0  0  0  0  0  0  0  0  0  0  0
    3.5900    2.3650   -0.2720 C   0  0  0  0  0  0  0  0  0  0  0  0
    3.7600    1.7580   -1.6420 C   0  0  0  0  0  0  0  0  0  0  0  0
    2.5070    1.6180   -2.2020 O   0  0  0  0  0  0  0  0  0  0  0  0
    0.1240   -0.7680    0.1120 C   0  0  0  0  0  0  0  0  0  0  0  0
   -0.7690    0.0750    0.4640 C   0  0  0  0  0  0  0  0  0  0  0  0
   -2.1730    0.1090    0.1790 C   0  0  0  0  0  0  0  0  0  0  0  0
   -2.8970    1.1500    0.6630 C   0  0  0  0  0  0  0  0  0  0  0  0
   -4.3410    1.2170    0.3910 C   0  0  1  0  0  0  0  0  0  0  0  0
   -4.9860    2.2350    1.2940 C   0  0  0  0  0  0  0  0  0  0  0  0
   -4.5940    1.4780   -1.0140 N   0  0  0  0  0  0  0  0  0  0  0  0
  1  2  2  0
  2  3  1  0
  2 17  1  0
  3  4  1  0
  4  5  2  0
  4  9  1  0
  5  6  1  0
  5 10  1  0
  6  7  2  0
  6  8  1  0
  8  9  1  0
 10 11  1  6
 10 17  1  0
 11 12  1  0
 12 13  2  0
 12 14  1  0
 14 15  1  0
 15 16  1  0
 17 18  2  3
 18 19  1  0
 19 20  2  3
 20 21  1  0
 21 22  1  1
 21 23  1  0
M  CHG  1  23   1
M  END
