
     RDKit          3D

 23 25  0  0  0  0  0  0  0  0999 V2000
    1.0550   -1.9580   -0.0080 N   0  0  0  0  0  0  0  0  0  0  0  0
    0.8000   -0.6230   -0.4710 C   0  0  2  0  0  0  0  0  0  0  0  0
   -0.5670   -0.3960   -1.0460 C   0  0  0  0  0  0  0  0  0  0  0  0
   -1.5930   -0.6150   -0.1610 N   0  0  0  0  0  0  0  0  0  0  0  0
   -1.9860   -1.8640    0.3170 C   0  0  0  0  0  0  0  0  0  0  0  0
   -2.1460   -1.7930    1.8430 C   0  0  0  0  0  0  0  0  0  0  0  0
   -2.9930   -0.7420    2.1930 O   0  0  0  0  0  0  0  0  0  0  0  0
   -2.4160    0.4540    1.7660 C   0  0  0  0  0  0  0  0  0  0  0  0
   -2.4780    0.4140    0.2340 C   0  0  1  0  0  0  0  0  0  0  0  0
   -2.2330    1.7740   -0.3500 C   0  0  0  0  0  0  0  0  0  0  0  0
   -2.9770    1.9240   -1.6600 C   0  0  0  0  0  0  0  0  0  0  0  0
   -4.3370    2.1040   -1.3220 O   0  0  0  0  0  0  0  0  0  0  0  0
   -4.7090    1.3530   -0.2230 C   0  0  0  0  0  0  0  0  0  0  0  0
   -3.9420    0.0740   -0.0740 C   0  0  0  0  0  0  0  0  0  0  0  0
    1.8660   -0.0930   -1.4140 C   0  0  1  0  0  0  0  0  0  0  0  0
    1.4060    1.2060   -1.7710 O   0  0  0  0  0  0  0  0  0  0  0  0
    3.1900    0.0140   -0.7640 C   0  0  0  0  0  0  0  0  0  0  0  0
    4.1970    0.8080   -1.3340 C   0  0  0  0  0  0  0  0  0  0  0  0
    5.2900    0.7080   -0.5140 C   0  0  0  0  0  0  0  0  0  0  0  0
    4.9290   -0.1310    0.5190 C   0  0  0  0  0  0  0  0  0  0  0  0
    5.8510   -0.5000    1.6350 C   0  0  0  0  0  0  0  0  0  0  0  0
    5.7470    0.4410    2.6820 O   0  0  0  0  0  0  0  0  0  0  0  0
    3.7020   -0.4970    0.3130 O   0  0  0  0  0  0  0  0  0  0  0  0
  2  1  1  6
  2  3  1  0
  2 15  1  0
  3  4  1  0
  4  5  1  0
  4  9  1  0
  5  6  1  0
  6  7  1  0
  7  8  1  0
  9  8  1  1
  9 10  1  0
  9 14  1  0
 10 11  1  0
 11 12  1  0
 12 13  1  0
 13 14  1  0
 15 16  1  1
 15 17  1  0
 17 18  2  0
 17 23  1  0
 18 19  1  0
 19 20  2  0
 20 21  1  0
 20 23  1  0
 21 22  1  0
M  CHG  1   1   1
M  END
