
     RDKit          3D

 23 24  0  0  0  0  0  0  0  0999 V2000
    6.8720    0.0240   -1.9930 C   0  0  0  0  0  0  0  0  0  0  0  0
    7.2320   -0.3400   -0.5610 C   0  0  0  0  0  0  0  0  0  0  0  0
    6.2390   -1.3420   -0.0810 C   0  0  0  0  0  0  0  0  0  0  0  0
    4.9290   -0.8150   -0.1190 O   0  0  0  0  0  0  0  0  0  0  0  0
    4.5170    0.2900    0.5880 C   0  0  0  0  0  0  0  0  0  0  0  0
    5.3050    0.9090    1.3280 O   0  0  0  0  0  0  0  0  0  0  0  0
    3.1200    0.7550    0.4730 C   0  0  0  0  0  0  0  0  0  0  0  0
    2.3800    0.2730    1.6800 C   0  0  0  0  0  0  0  0  0  0  0  0
    0.9920    0.6820    1.6640 N   0  0  0  0  0  0  0  0  0  0  0  0
    0.0530    0.3270    0.6650 C   0  0  0  0  0  0  0  0  0  0  0  0
    0.4490   -0.4010   -0.2800 O   0  0  0  0  0  0  0  0  0  0  0  0
   -1.3550    0.7970    0.7280 C   0  0  1  0  0  0  0  0  0  0  0  0
   -1.5080    1.5770    1.8720 O   0  0  0  0  0  0  0  0  0  0  0  0
   -1.5910    1.6180   -0.5120 C   0  0  0  0  0  0  0  0  0  0  0  0
   -3.0260    1.9240   -0.7640 C   0  0  0  0  0  0  0  0  0  0  0  0
   -3.9510    1.1950    0.1580 C   0  0  0  0  0  0  0  0  0  0  0  0
   -3.5700   -0.2540    0.1680 C   0  0  2  0  0  0  0  0  0  0  0  0
   -2.2420   -0.4150    0.8110 C   0  0  0  0  0  0  0  0  0  0  0  0
   -3.6640   -0.8680   -1.1340 N   0  0  0  0  0  0  0  0  0  0  0  0
   -5.0890   -0.8570   -1.3890 C   0  0  0  0  0  0  0  0  0  0  0  0
   -5.6620   -1.3070   -0.0500 C   0  0  0  0  0  0  0  0  0  0  0  0
   -4.5760   -1.0880    0.9660 C   0  0  1  0  0  0  0  0  0  0  0  0
   -3.9340   -2.2730    1.3300 O   0  0  0  0  0  0  0  0  0  0  0  0
  1  2  1  0
  2  3  1  0
  3  4  1  0
  4  5  1  0
  5  6  2  0
  5  7  1  0
  7  8  1  0
  8  9  1  0
  9 10  1  0
 10 11  2  0
 10 12  1  0
 12 13  1  1
 12 14  1  0
 12 18  1  0
 14 15  1  0
 15 16  1  0
 17 16  1  6
 17 18  1  0
 17 19  1  0
 17 22  1  0
 19 20  1  0
 20 21  1  0
 21 22  1  0
 22 23  1  6
M  CHG  1  19   1
M  END
