
     RDKit          3D

 23 24  0  0  0  0  0  0  0  0999 V2000
   -2.9500    0.7620    1.6130 C   0  0  0  0  0  0  0  0  0  0  0  0
   -3.1860    0.0860    0.5510 C   0  0  0  0  0  0  0  0  0  0  0  0
   -4.6030    0.0100    0.2620 O   0  0  0  0  0  0  0  0  0  0  0  0
   -2.3330   -0.5820   -0.3620 C   0  0  0  0  0  0  0  0  0  0  0  0
   -3.0280   -1.2130   -1.3990 C   0  0  0  0  0  0  0  0  0  0  0  0
   -2.4590   -1.9960   -2.5180 C   0  0  0  0  0  0  0  0  0  0  0  0
   -1.1350   -2.3390   -2.2970 O   0  0  0  0  0  0  0  0  0  0  0  0
   -0.9060   -2.9620   -1.0890 C   0  0  0  0  0  0  0  0  0  0  0  0
   -0.6060   -2.1020    0.0130 N   0  0  0  0  0  0  0  0  0  0  0  0
   -0.8820   -0.6950   -0.3350 C   0  0  2  0  0  0  0  0  0  0  0  0
   -0.0250    0.2520    0.3980 C   0  0  2  0  0  0  0  0  0  0  0  0
   -0.2200    1.5710   -0.0830 N   0  0  0  0  0  0  0  0  0  0  0  0
   -0.0420    2.6670    0.7880 C   0  0  0  0  0  0  0  0  0  0  0  0
   -0.8710    3.8720    0.3080 C   0  0  0  0  0  0  0  0  0  0  0  0
   -2.2150    3.6070    0.2570 O   0  0  0  0  0  0  0  0  0  0  0  0
    1.4580   -0.1840    0.3040 C   0  0  1  0  0  0  0  0  0  0  0  0
    1.9770   -0.1550   -1.1020 C   0  0  0  0  0  0  0  0  0  0  0  0
    3.4490   -0.5980   -1.1510 C   0  0  0  0  0  0  0  0  0  0  0  0
    3.8490   -0.5470   -2.5090 O   0  0  0  0  0  0  0  0  0  0  0  0
    2.3010    0.6810    1.2010 C   0  0  0  0  0  0  0  0  0  0  0  0
    3.1540   -0.2920    2.0210 C   0  0  0  0  0  0  0  0  0  0  0  0
    2.5420   -1.5980    1.6840 C   0  0  0  0  0  0  0  0  0  0  0  0
    1.5600   -1.4730    0.7660 O   0  0  0  0  0  0  0  0  0  0  0  0
  1  2  2  0
  2  3  1  0
  2  4  1  0
  4  5  2  0
  4 10  1  0
  5  6  1  0
  6  7  1  0
  7  8  1  0
  8  9  1  0
 10  9  1  1
 10 11  1  0
 11 12  1  6
 11 16  1  0
 12 13  1  0
 13 14  1  0
 14 15  1  0
 16 17  1  6
 16 20  1  0
 16 23  1  0
 17 18  1  0
 18 19  1  0
 20 21  1  0
 21 22  1  0
 22 23  1  0
M  CHG  1  12   1
M  END
