
     RDKit          3D

  9  8  0  0  0  0  0  0  0  0999 V2000
   -2.6830    1.3560    0.4510 N   0  0  0  0  0  0  0  0  0  0  0  0
   -2.9280    0.0280    0.5160 O   0  0  0  0  0  0  0  0  0  0  0  0
   -2.1500   -0.5590   -0.3510 O   0  0  0  0  0  0  0  0  0  0  0  0
   -0.6900   -1.0050    0.5120 P   0  0  0  0  0  0  0  0  0  0  0  0
   -0.7200   -2.7240    0.7090 O   0  0  0  0  0  0  0  0  0  0  0  0
    0.6340   -0.6220   -0.5390 O   0  0  0  0  0  0  0  0  0  0  0  0
    1.3220    0.4140   -0.1160 O   0  0  0  0  0  0  0  0  0  0  0  0
    2.9560    0.1810   -0.7070 P   0  0  0  0  0  0  0  0  0  0  0  0
    3.9820    1.1600    0.3040 O   0  0  0  0  0  0  0  0  0  0  0  0
  1  2  1  0
  2  3  1  0
  3  4  1  0
  4  5  1  0
  4  6  1  0
  6  7  1  0
  7  8  1  0
  8  9  1  0
M  END
