
     RDKit          3D

  9  8  0  0  0  0  0  0  0  0999 V2000
    3.1500   -0.4830   -0.3140 N   0  0  0  0  0  0  0  0  0  0  0  0
    2.5190   -1.3160    0.4830 O   0  0  0  0  0  0  0  0  0  0  0  0
    1.2390   -1.2890    0.4850 O   0  0  0  0  0  0  0  0  0  0  0  0
    0.5080    0.1340   -0.0870 P   0  0  0  0  0  0  0  0  0  0  0  0
    0.7530    1.4920    0.9670 O   0  0  0  0  0  0  0  0  0  0  0  0
   -1.6460   -0.1930   -0.3680 P   0  0  0  0  0  0  0  0  0  0  0  0
   -2.0910   -1.8210    0.0310 O   0  0  0  0  0  0  0  0  0  0  0  0
   -2.5560    0.8980    0.6200 O   0  0  0  0  0  0  0  0  0  0  0  0
   -3.3670    1.6150   -0.1200 O   0  0  0  0  0  0  0  0  0  0  0  0
  1  2  1  0
  2  3  1  0
  3  4  1  0
  4  5  1  0
  4  6  1  0
  6  7  1  0
  6  8  1  0
  8  9  1  0
M  END
