
     RDKit          3D

  9  9  0  0  0  0  0  0  0  0999 V2000
    1.8860    2.0160    0.2560 O   0  0  0  0  0  0  0  0  0  0  0  0
    0.5660    0.9270    0.1330 P   0  0  0  0  0  0  0  0  0  0  0  0
   -1.0590    1.4420    0.0850 O   0  0  0  0  0  0  0  0  0  0  0  0
   -2.1190    0.6570    0.2660 N   0  0  0  0  0  0  0  0  0  0  0  0
   -2.2170   -0.5520   -0.0340 O   0  0  0  0  0  0  0  0  0  0  0  0
   -1.7100   -1.6330   -0.3320 O   0  0  0  0  0  0  0  0  0  0  0  0
   -0.4740   -2.0630   -0.1610 O   0  0  0  0  0  0  0  0  0  0  0  0
    0.8500   -1.0740   -0.5540 P   0  0  0  0  0  0  0  0  0  0  0  0
    2.4890   -1.5980   -0.3670 O   0  0  0  0  0  0  0  0  0  0  0  0
  1  2  1  0
  2  3  1  0
  2  8  1  0
  3  4  1  0
  4  5  1  0
  5  6  1  0
  6  7  1  0
  7  8  1  0
  8  9  1  0
M  END
