
     RDKit          3D

  9  9  0  0  0  0  0  0  0  0999 V2000
   -3.1830   -0.1170    0.0380 O   0  0  0  0  0  0  0  0  0  0  0  0
   -2.0880    0.6860    0.2130 N   0  0  0  0  0  0  0  0  0  0  0  0
   -1.2690    0.2020    1.1450 O   0  0  0  0  0  0  0  0  0  0  0  0
    0.0150   -0.5170    0.6680 P   0  0  0  0  0  0  0  0  0  0  0  0
    0.4790   -1.9890   -0.3300 O   0  0  0  0  0  0  0  0  0  0  0  0
    1.5060   -1.8640   -0.8030 O   0  0  0  0  0  0  0  0  0  0  0  0
    2.3710   -1.0790   -0.8520 O   0  0  0  0  0  0  0  0  0  0  0  0
    1.9940    0.3790    0.0940 P   0  0  0  0  0  0  0  0  0  0  0  0
    2.1750    2.0150   -0.2510 O   0  0  0  0  0  0  0  0  0  0  0  0
  1  2  1  0
  2  3  1  0
  3  4  1  0
  4  5  1  0
  4  8  1  0
  5  6  1  0
  6  7  1  0
  7  8  1  0
  8  9  1  0
M  END
