
     RDKit          3D

  9  8  0  0  0  0  0  0  0  0999 V2000
   -2.3470   -1.4530   -0.7700 O   0  0  0  0  0  0  0  0  0  0  0  0
   -2.5080   -1.2770    0.5210 O   0  0  0  0  0  0  0  0  0  0  0  0
   -1.0050   -0.6390    1.1400 P   0  0  0  0  0  0  0  0  0  0  0  0
   -1.4490    0.4710    2.4290 O   0  0  0  0  0  0  0  0  0  0  0  0
   -0.1140    0.2970   -0.0600 N   0  0  0  0  0  0  0  0  0  0  0  0
    0.4640   -0.3980   -1.0200 O   0  0  0  0  0  0  0  0  0  0  0  0
    2.1520    0.0300   -1.1360 P   0  0  0  0  0  0  0  0  0  0  0  0
    2.9770   -0.8830    0.1020 O   0  0  0  0  0  0  0  0  0  0  0  0
    2.3060    1.7430   -0.8460 O   0  0  0  0  0  0  0  0  0  0  0  0
  1  2  1  0
  2  3  1  0
  3  4  1  0
  3  5  1  0
  5  6  1  0
  6  7  1  0
  7  8  1  0
  7  9  1  0
M  END
