
     RDKit          3D

  9  8  0  0  0  0  0  0  0  0999 V2000
    4.1130   -0.1740   -0.2690 O   0  0  0  0  0  0  0  0  0  0  0  0
    2.7670    0.0930    0.8190 P   0  0  0  0  0  0  0  0  0  0  0  0
    1.4120   -0.9200    0.1730 N   0  0  0  0  0  0  0  0  0  0  0  0
    0.3000   -0.5780    0.8410 O   0  0  0  0  0  0  0  0  0  0  0  0
   -0.1600    0.5300    0.2700 O   0  0  0  0  0  0  0  0  0  0  0  0
   -0.9630    0.1180   -0.7000 O   0  0  0  0  0  0  0  0  0  0  0  0
   -2.4600    0.9480   -0.5080 P   0  0  0  0  0  0  0  0  0  0  0  0
   -3.6660    0.4530   -1.6180 O   0  0  0  0  0  0  0  0  0  0  0  0
   -2.9830    0.9560    1.1290 O   0  0  0  0  0  0  0  0  0  0  0  0
  1  2  1  0
  2  3  1  0
  3  4  1  0
  4  5  1  0
  5  6  1  0
  6  7  1  0
  7  8  1  0
  7  9  1  0
M  END
