
     RDKit          3D

 18 20  0  0  0  0  0  0  0  0999 V2000
    5.3310    0.7170   -0.4750 N   0  0  0  0  0  0  0  0  0  0  0  0
    4.0570    0.1020   -0.3770 C   0  0  0  0  0  0  0  0  0  0  0  0
    3.8400   -1.2530   -0.3540 C   0  0  0  0  0  0  0  0  0  0  0  0
    2.5160   -1.4560   -0.2540 N   0  0  0  0  0  0  0  0  0  0  0  0
    1.8710   -0.2650   -0.2110 C   0  0  0  0  0  0  0  0  0  0  0  0
    0.4340   -0.0380   -0.1050 C   0  0  0  0  0  0  0  0  0  0  0  0
   -0.0740    1.2330   -0.0730 C   0  0  0  0  0  0  0  0  0  0  0  0
   -1.4300    1.4290    0.0280 C   0  0  0  0  0  0  0  0  0  0  0  0
   -2.2610    0.3300    0.0960 C   0  0  0  0  0  0  0  0  0  0  0  0
   -3.6190    0.5420    0.1960 C   0  0  0  0  0  0  0  0  0  0  0  0
   -4.2090    1.8350    0.2340 N   0  0  0  0  0  0  0  0  0  0  0  0
   -4.4230   -0.5240    0.2620 N   0  0  0  0  0  0  0  0  0  0  0  0
   -3.9420   -1.7780    0.2320 C   0  0  0  0  0  0  0  0  0  0  0  0
   -4.8100   -2.8190    0.3020 F   0  0  0  0  0  0  0  0  0  0  0  0
   -2.5850   -2.0370    0.1310 C   0  0  0  0  0  0  0  0  0  0  0  0
   -1.7340   -0.9570    0.0620 C   0  0  0  0  0  0  0  0  0  0  0  0
   -0.4050   -1.0770   -0.0370 N   0  0  0  0  0  0  0  0  0  0  0  0
    2.8300    0.7210   -0.2880 C   0  0  0  0  0  0  0  0  0  0  0  0
  1  2  1  0
  2  3  2  0
  2 18  1  0
  3  4  1  0
  4  5  1  0
  5  6  1  0
  5 18  2  0
  6  7  2  0
  6 17  1  0
  7  8  1  0
  8  9  2  0
  9 10  1  0
  9 16  1  0
 10 11  1  0
 10 12  2  0
 12 13  1  0
 13 14  1  0
 13 15  2  0
 15 16  1  0
 16 17  2  0
M  END
