
     RDKit          3D

 17 18  0  0  0  0  0  0  0  0999 V2000
   -0.3880   -2.9080    4.2500 C   0  0  0  0  0  0  0  0  0  0  0  0
   -0.2620   -2.2800    2.9040 C   0  0  0  0  0  0  0  0  0  0  0  0
   -0.2710   -0.9800    2.7490 C   0  0  0  0  0  0  0  0  0  0  0  0
   -0.1430   -0.4060    1.3920 C   0  0  0  0  0  0  0  0  0  0  0  0
   -0.1590    0.9140    1.2950 C   0  0  0  0  0  0  0  0  0  0  0  0
   -0.3020    1.7310    2.5500 C   0  0  0  0  0  0  0  0  0  0  0  0
   -0.0460    1.4940    0.0270 N   0  0  0  0  0  0  0  0  0  0  0  0
    0.0730    0.7800   -1.0540 C   0  0  0  0  0  0  0  0  0  0  0  0
    0.2040    1.1390   -2.4690 C   0  0  0  0  0  0  0  0  0  0  0  0
    0.3510    2.3680   -2.9470 C   0  0  0  0  0  0  0  0  0  0  0  0
    0.4720    2.5940   -4.4130 C   0  0  0  0  0  0  0  0  0  0  0  0
    0.4030    3.7290   -1.8670 Cl  0  0  0  0  0  0  0  0  0  0  0  0
    0.1400   -0.0790   -3.2950 C   0  0  0  0  0  0  0  0  0  0  0  0
    0.2450   -1.1870   -2.3390 C   0  0  0  0  0  0  0  0  0  0  0  0
    0.4270   -2.4210   -2.6000 O   0  0  0  0  0  0  0  0  0  0  0  0
    0.1010   -0.6320   -1.0090 N   0  0  0  0  0  0  0  0  0  0  0  0
   -0.0080   -1.3220    0.2520 C   0  0  0  0  0  0  0  0  0  0  0  0
  1  2  1  0
  2  3  2  3
  3  4  1  0
  4  5  2  0
  4 17  1  0
  5  6  1  0
  5  7  1  0
  7  8  2  0
  8  9  1  0
  8 16  1  0
  9 10  2  3
  9 13  1  0
 10 11  1  0
 10 12  1  0
 13 14  1  0
 14 15  2  0
 14 16  1  0
 16 17  1  0
M  END
