
     RDKit          3D

 17 19  0  0  0  0  0  0  0  0999 V2000
   -2.4690    2.0380   -0.0680 C   0  0  0  0  0  0  0  0  0  0  0  0
   -1.4320    0.9810   -0.0300 C   0  0  0  0  0  0  0  0  0  0  0  0
   -0.1020    1.3730   -0.0690 O   0  0  0  0  0  0  0  0  0  0  0  0
    0.9430    0.4690   -0.0400 C   0  0  0  0  0  0  0  0  0  0  0  0
    2.2530    0.8730   -0.0790 C   0  0  0  0  0  0  0  0  0  0  0  0
    2.5010    2.3380   -0.1560 C   0  0  0  0  0  0  0  0  0  0  0  0
    3.2290   -0.0670   -0.0460 C   0  0  0  0  0  0  0  0  0  0  0  0
    2.9220   -1.4050    0.0250 C   0  0  0  0  0  0  0  0  0  0  0  0
    4.1740   -2.6320    0.0680 Cl  0  0  0  0  0  0  0  0  0  0  0  0
    1.6160   -1.8210    0.0650 C   0  0  0  0  0  0  0  0  0  0  0  0
    1.2630   -3.1200    0.1350 N   0  0  0  0  0  0  0  0  0  0  0  0
   -0.0040   -3.5000    0.1730 N   0  0  0  0  0  0  0  0  0  0  0  0
   -1.0140   -2.6210    0.1440 C   0  0  0  0  0  0  0  0  0  0  0  0
   -0.6860   -1.2840    0.0720 C   0  0  0  0  0  0  0  0  0  0  0  0
   -1.7550   -0.3000    0.0380 C   0  0  0  0  0  0  0  0  0  0  0  0
   -3.1600   -0.6830    0.0780 C   0  0  0  0  0  0  0  0  0  0  0  0
    0.6160   -0.8790    0.0320 C   0  0  0  0  0  0  0  0  0  0  0  0
  1  2  1  0
  2  3  1  0
  2 15  2  0
  3  4  1  0
  4  5  1  0
  4 17  2  0
  5  6  1  0
  5  7  2  0
  7  8  1  0
  8  9  1  0
  8 10  2  0
 10 11  1  0
 10 17  1  0
 11 12  2  0
 12 13  1  0
 13 14  2  0
 14 15  1  0
 14 17  1  0
 15 16  1  0
M  END
