
     RDKit          3D

 17 19  0  0  0  0  0  0  0  0999 V2000
   -0.1540    1.1750    1.6380 O   0  0  0  0  0  0  0  0  0  0  0  0
    0.2880    0.4930    0.6890 C   0  0  0  0  0  0  0  0  0  0  0  0
    1.6850    0.3530    0.5950 C   0  0  0  0  0  0  0  0  0  0  0  0
    2.4670    0.9340    1.4960 N   0  0  0  0  0  0  0  0  0  0  0  0
    3.8150    0.8030    1.4130 C   0  0  0  0  0  0  0  0  0  0  0  0
    4.3950    0.0650    0.3930 C   0  0  0  0  0  0  0  0  0  0  0  0
    6.1300   -0.0560    0.3530 Cl  0  0  0  0  0  0  0  0  0  0  0  0
    3.6080   -0.5480   -0.5540 C   0  0  0  0  0  0  0  0  0  0  0  0
    2.2310   -0.3810   -0.4220 C   0  0  0  0  0  0  0  0  0  0  0  0
    1.3770   -0.9560   -1.3200 C   0  0  0  0  0  0  0  0  0  0  0  0
    0.0290   -0.7860   -1.1800 C   0  0  0  0  0  0  0  0  0  0  0  0
   -0.5550   -0.0610   -0.1770 N   0  0  0  0  0  0  0  0  0  0  0  0
   -1.9750    0.0570   -0.1180 C   0  0  0  0  0  0  0  0  0  0  0  0
   -2.6930    0.7040    0.7600 C   0  0  0  0  0  0  0  0  0  0  0  0
   -4.1280    0.5510    0.4260 C   0  0  0  0  0  0  0  0  0  0  0  0
   -4.1230   -0.2850   -0.7810 C   0  0  0  0  0  0  0  0  0  0  0  0
   -2.8830   -0.5760   -1.1040 C   0  0  0  0  0  0  0  0  0  0  0  0
  1  2  2  0
  2  3  1  0
  2 12  1  0
  3  4  2  0
  3  9  1  0
  4  5  1  0
  5  6  2  0
  6  7  1  0
  6  8  1  0
  8  9  2  0
  9 10  1  0
 10 11  2  0
 11 12  1  0
 12 13  1  0
 13 14  2  0
 13 17  1  0
 14 15  1  0
 15 16  1  0
 16 17  2  0
M  END
