
     RDKit          3D

 17 19  0  0  0  0  0  0  0  0999 V2000
   -0.5910    2.6960    0.8710 C   0  0  0  0  0  0  0  0  0  0  0  0
   -1.0740    1.4950    0.1840 N   0  0  0  0  0  0  0  0  0  0  0  0
   -2.3280    1.0180    0.2820 C   0  0  0  0  0  0  0  0  0  0  0  0
   -3.2940    1.4770    0.9450 O   0  0  0  0  0  0  0  0  0  0  0  0
   -2.4090   -0.1270   -0.5040 C   0  0  0  0  0  0  0  0  0  0  0  0
   -1.1500   -0.2740   -1.0470 C   0  0  0  0  0  0  0  0  0  0  0  0
   -0.3480    0.7280   -0.6130 N   0  0  0  0  0  0  0  0  0  0  0  0
    1.0470    0.9830   -0.9120 C   0  0  0  0  0  0  0  0  0  0  0  0
    1.9850    0.3610    0.0220 C   0  0  0  0  0  0  0  0  0  0  0  0
    2.8670    1.0010    0.7720 C   0  0  0  0  0  0  0  0  0  0  0  0
    3.6390    0.0180    1.5900 C   0  0  0  0  0  0  0  0  0  0  0  0
    3.0520   -1.2880    1.1830 C   0  0  0  0  0  0  0  0  0  0  0  0
    3.6010   -2.8130    1.8520 Cl  0  0  0  0  0  0  0  0  0  0  0  0
    2.1050   -1.0650    0.2820 C   0  0  0  0  0  0  0  0  0  0  0  0
   -1.1180   -1.4590   -1.9070 C   0  0  0  0  0  0  0  0  0  0  0  0
   -2.3640   -2.2290   -1.5380 C   0  0  0  0  0  0  0  0  0  0  0  0
   -3.3230   -1.2090   -0.9540 C   0  0  0  0  0  0  0  0  0  0  0  0
  1  2  1  0
  2  3  1  0
  2  7  1  0
  3  4  2  0
  3  5  1  0
  5  6  2  0
  5 17  1  0
  6  7  1  0
  6 15  1  0
  7  8  1  0
  8  9  1  0
  9 10  2  0
  9 14  1  0
 10 11  1  0
 11 12  1  0
 12 13  1  0
 12 14  2  0
 15 16  1  0
 16 17  1  0
M  END
