
     RDKit          3D

 17 19  0  0  0  0  0  0  0  0999 V2000
    3.3770   -0.6630   -0.5110 C   0  0  0  0  0  0  0  0  0  0  0  0
    2.6520   -0.3650    0.7700 C   0  0  0  0  0  0  0  0  0  0  0  0
    1.2460   -0.2160    0.4800 N   0  0  0  0  0  0  0  0  0  0  0  0
    0.4510   -1.2740    0.5230 C   0  0  0  0  0  0  0  0  0  0  0  0
    0.8750   -2.4220    0.8090 O   0  0  0  0  0  0  0  0  0  0  0  0
   -0.8830   -1.1470    0.2500 C   0  0  0  0  0  0  0  0  0  0  0  0
   -1.7580   -2.2310    0.2820 C   0  0  0  0  0  0  0  0  0  0  0  0
   -3.1050   -2.0950    0.0050 C   0  0  0  0  0  0  0  0  0  0  0  0
   -3.6280   -0.8590   -0.3160 C   0  0  0  0  0  0  0  0  0  0  0  0
   -5.3400   -0.6670   -0.6710 Cl  0  0  0  0  0  0  0  0  0  0  0  0
   -2.7650    0.2170   -0.3490 C   0  0  0  0  0  0  0  0  0  0  0  0
   -1.4180    0.0800   -0.0720 C   0  0  0  0  0  0  0  0  0  0  0  0
   -0.5730    1.1380   -0.1050 N   0  0  0  0  0  0  0  0  0  0  0  0
   -0.8390    2.4290   -0.3880 C   0  0  0  0  0  0  0  0  0  0  0  0
    0.3470    3.1160   -0.2900 C   0  0  0  0  0  0  0  0  0  0  0  0
    1.3490    2.2320    0.0580 C   0  0  0  0  0  0  0  0  0  0  0  0
    0.7320    0.9840    0.1670 C   0  0  0  0  0  0  0  0  0  0  0  0
  1  2  1  0
  2  3  1  0
  3  4  1  0
  3 17  1  0
  4  5  2  0
  4  6  1  0
  6  7  2  0
  6 12  1  0
  7  8  1  0
  8  9  2  0
  9 10  1  0
  9 11  1  0
 11 12  2  0
 12 13  1  0
 13 14  1  0
 13 17  1  0
 14 15  2  0
 15 16  1  0
 16 17  2  0
M  END
