
     RDKit          3D

 17 19  0  0  0  0  0  0  0  0999 V2000
   -4.4800    0.6250   -0.2020 C   0  0  0  0  0  0  0  0  0  0  0  0
   -3.1030    0.9660   -0.5900 C   0  0  0  0  0  0  0  0  0  0  0  0
   -2.8980    1.8780   -1.4130 O   0  0  0  0  0  0  0  0  0  0  0  0
   -2.0110    0.2690   -0.0380 N   0  0  0  0  0  0  0  0  0  0  0  0
   -2.1920   -0.7230    0.8540 C   0  0  0  0  0  0  0  0  0  0  0  0
   -1.1680   -1.4370    1.4250 C   0  0  0  0  0  0  0  0  0  0  0  0
    0.1320   -1.1380    1.0800 C   0  0  0  0  0  0  0  0  0  0  0  0
    1.3260   -1.6120    1.4270 N   0  0  0  0  0  0  0  0  0  0  0  0
    2.2760   -0.9110    0.7450 C   0  0  0  0  0  0  0  0  0  0  0  0
    3.6510   -1.0470    0.7810 C   0  0  0  0  0  0  0  0  0  0  0  0
    4.3980   -0.1960   -0.0200 C   0  0  0  0  0  0  0  0  0  0  0  0
    3.8230    0.7590   -0.8340 C   0  0  0  0  0  0  0  0  0  0  0  0
    4.7710    1.8310   -1.8440 Cl  0  0  0  0  0  0  0  0  0  0  0  0
    2.4530    0.8770   -0.8540 C   0  0  0  0  0  0  0  0  0  0  0  0
    1.6800    0.0410   -0.0630 C   0  0  0  0  0  0  0  0  0  0  0  0
    0.3170   -0.0550    0.1060 C   0  0  0  0  0  0  0  0  0  0  0  0
   -0.7660    0.6000   -0.4100 C   0  0  0  0  0  0  0  0  0  0  0  0
  1  2  1  0
  2  3  2  0
  2  4  1  0
  4  5  1  0
  4 17  1  0
  5  6  2  0
  6  7  1  0
  7  8  2  0
  7 16  1  0
  8  9  1  0
  9 10  2  0
  9 15  1  0
 10 11  1  0
 11 12  2  0
 12 13  1  0
 12 14  1  0
 14 15  2  0
 15 16  1  0
 16 17  2  0
M  END
