
     RDKit          3D

 15 16  0  0  0  0  0  0  0  0999 V2000
   -3.0000    2.5240    1.3540 O   0  0  0  0  0  0  0  0  0  0  0  0
   -2.8450    1.1820    0.9940 C   0  0  0  0  0  0  0  0  0  0  0  0
   -2.4580    1.1590   -0.4630 C   0  0  0  0  0  0  0  0  0  0  0  0
   -2.2640   -0.1730   -0.9740 N   0  0  0  0  0  0  0  0  0  0  0  0
   -3.2060   -0.9510   -1.5320 C   0  0  0  0  0  0  0  0  0  0  0  0
   -2.5910   -2.1010   -1.8630 N   0  0  0  0  0  0  0  0  0  0  0  0
   -1.3120   -2.0510   -1.5270 N   0  0  0  0  0  0  0  0  0  0  0  0
   -1.0850   -0.8550   -0.9690 C   0  0  0  0  0  0  0  0  0  0  0  0
    0.1620   -0.3190   -0.4370 C   0  0  0  0  0  0  0  0  0  0  0  0
    1.2610   -1.0430   -0.4700 C   0  0  0  0  0  0  0  0  0  0  0  0
    2.5360   -0.5680    0.0440 C   0  0  0  0  0  0  0  0  0  0  0  0
    3.7390   -1.2140    0.0690 C   0  0  0  0  0  0  0  0  0  0  0  0
    4.6490   -0.3730    0.6470 C   0  0  0  0  0  0  0  0  0  0  0  0
    3.9900    0.8030    0.9770 C   0  0  0  0  0  0  0  0  0  0  0  0
    2.7130    0.6390    0.5940 N   0  0  0  0  0  0  0  0  0  0  0  0
  1  2  1  0
  2  3  1  0
  3  4  1  0
  4  5  1  0
  4  8  1  0
  5  6  2  0
  6  7  1  0
  7  8  2  0
  8  9  1  0
  9 10  2  3
 10 11  1  0
 11 12  2  0
 11 15  1  0
 12 13  1  0
 13 14  2  0
 14 15  1  0
M  END
