
     RDKit          3D

 15 16  0  0  0  0  0  0  0  0999 V2000
   -4.0210    1.6060   -0.6190 C   0  0  0  0  0  0  0  0  0  0  0  0
   -3.1340    0.4200   -0.4150 C   0  0  0  0  0  0  0  0  0  0  0  0
   -3.2110   -0.7920   -1.0950 C   0  0  0  0  0  0  0  0  0  0  0  0
   -2.2180   -1.5450   -0.5770 N   0  0  0  0  0  0  0  0  0  0  0  0
   -1.5500   -0.8770    0.3620 C   0  0  0  0  0  0  0  0  0  0  0  0
   -0.4080   -1.3960    1.1320 C   0  0  0  0  0  0  0  0  0  0  0  0
    0.8930   -1.1100    0.4630 C   0  0  0  0  0  0  0  0  0  0  0  0
    1.6200    0.0400    0.6990 C   0  0  0  0  0  0  0  0  0  0  0  0
    2.8220    0.3110    0.0850 C   0  0  0  0  0  0  0  0  0  0  0  0
    3.5790    1.5760    0.3720 C   0  0  0  0  0  0  0  0  0  0  0  0
    3.2990   -0.6020   -0.7850 N   0  0  0  0  0  0  0  0  0  0  0  0
    2.6080   -1.7320   -1.0310 C   0  0  0  0  0  0  0  0  0  0  0  0
    3.0810   -2.5680   -1.8520 O   0  0  0  0  0  0  0  0  0  0  0  0
    1.4220   -1.9840   -0.4170 N   0  0  0  0  0  0  0  0  0  0  0  0
   -2.1130    0.3370    0.4650 N   0  0  0  0  0  0  0  0  0  0  0  0
  1  2  1  0
  2  3  2  0
  2 15  1  0
  3  4  1  0
  4  5  2  0
  5  6  1  0
  5 15  1  0
  6  7  1  0
  7  8  1  0
  7 14  2  0
  8  9  2  0
  9 10  1  0
  9 11  1  0
 11 12  1  0
 12 13  2  0
 12 14  1  0
M  END
