
     RDKit          3D

 14 15  0  0  0  0  0  0  0  0999 V2000
   -0.4610    3.1830   -0.8630 O   0  0  0  0  0  0  0  0  0  0  0  0
   -0.5280    1.9420   -0.5490 C   0  0  0  0  0  0  0  0  0  0  0  0
   -1.7120    1.1990   -0.4540 N   0  0  0  0  0  0  0  0  0  0  0  0
   -1.3410   -0.1530   -0.0760 C   0  0  0  0  0  0  0  0  0  0  0  0
   -2.2150   -1.1000    0.0960 C   0  0  0  0  0  0  0  0  0  0  0  0
   -1.8170   -2.8640    0.5830 Br  0  0  0  0  0  0  0  0  0  0  0  0
    0.1130   -0.2500    0.0680 C   0  0  0  0  0  0  0  0  0  0  0  0
    1.1540   -1.0120    0.3500 C   0  0  0  0  0  0  0  0  0  0  0  0
    1.1440   -2.8370    0.8190 Br  0  0  0  0  0  0  0  0  0  0  0  0
    2.3530   -0.1520    0.2270 C   0  0  2  0  0  0  0  0  0  0  0  0
    3.5850   -0.8120   -1.1100 Br  0  0  0  0  0  0  0  0  0  0  0  0
    3.2270   -0.0670    1.9680 Br  0  0  0  0  0  0  0  0  0  0  0  0
    1.8780    1.1480   -0.1470 N   0  0  0  0  0  0  0  0  0  0  0  0
    0.6150    1.1060   -0.2400 C   0  0  0  0  0  0  0  0  0  0  0  0
  1  2  2  0
  2  3  1  0
  2 14  1  0
  3  4  1  0
  4  5  2  3
  4  7  1  0
  5  6  1  0
  7  8  2  0
  7 14  1  0
  8  9  1  0
  8 10  1  0
 10 11  1  6
 10 12  1  0
 10 13  1  0
 13 14  2  0
M  END
