
     RDKit          3D

 15 16  0  0  0  0  0  0  0  0999 V2000
    4.6650   -0.6060   -0.0040 C   0  0  0  0  0  0  0  0  0  0  0  0
    3.1810   -0.8950   -0.0590 C   0  0  0  0  0  0  0  0  0  0  0  0
    2.3970    0.3120    0.0730 N   0  0  0  0  0  0  0  0  0  0  0  0
    0.9810    0.3020    0.0520 C   0  0  0  0  0  0  0  0  0  0  0  0
    0.3650   -0.8930   -0.0980 N   0  0  0  0  0  0  0  0  0  0  0  0
   -0.9740   -1.0080   -0.1310 C   0  0  0  0  0  0  0  0  0  0  0  0
   -1.5670   -2.3350   -0.2960 C   0  0  0  0  0  0  0  0  0  0  0  0
   -1.6980    0.1680   -0.0020 C   0  0  0  0  0  0  0  0  0  0  0  0
   -3.0600    0.1050   -0.0280 C   0  0  0  0  0  0  0  0  0  0  0  0
   -3.8290    1.2410    0.0960 C   0  0  0  0  0  0  0  0  0  0  0  0
   -3.1590    2.4410    0.2470 C   0  0  0  0  0  0  0  0  0  0  0  0
   -3.8380    3.5100    0.3640 O   0  0  0  0  0  0  0  0  0  0  0  0
   -1.8140    2.5110    0.2740 N   0  0  0  0  0  0  0  0  0  0  0  0
   -1.0660    1.3950    0.1520 C   0  0  0  0  0  0  0  0  0  0  0  0
    0.2830    1.4430    0.1770 N   0  0  0  0  0  0  0  0  0  0  0  0
  1  2  1  0
  2  3  1  0
  3  4  1  0
  4  5  2  0
  4 15  1  0
  5  6  1  0
  6  7  1  0
  6  8  2  0
  8  9  1  0
  8 14  1  0
  9 10  2  0
 10 11  1  0
 11 12  2  0
 11 13  1  0
 13 14  1  0
 14 15  2  0
M  END
