
     RDKit          3D

 15 16  0  0  0  0  0  0  0  0999 V2000
   -1.5990    0.4490   -1.5900 C   0  0  0  0  0  0  0  0  0  0  0  0
   -1.8340    0.8330   -0.3460 C   0  0  0  0  0  0  0  0  0  0  0  0
   -2.6690    2.0350   -0.0820 C   0  0  0  0  0  0  0  0  0  0  0  0
   -1.2780    0.0850    0.8120 C   0  0  0  0  0  0  0  0  0  0  0  0
   -0.4860   -1.0600    0.4220 N   0  0  0  0  0  0  0  0  0  0  0  0
   -1.0140   -2.3190    0.2880 C   0  0  0  0  0  0  0  0  0  0  0  0
   -2.3770   -2.6590    0.4970 N   0  0  0  0  0  0  0  0  0  0  0  0
    0.0160   -3.0900   -0.0670 N   0  0  0  0  0  0  0  0  0  0  0  0
    1.1160   -2.3740   -0.1530 N   0  0  0  0  0  0  0  0  0  0  0  0
    0.8250   -1.0620    0.1560 C   0  0  0  0  0  0  0  0  0  0  0  0
    1.8150    0.0240    0.1180 C   0  0  0  0  0  0  0  0  0  0  0  0
    1.6510    1.3030    0.2640 C   0  0  0  0  0  0  0  0  0  0  0  0
    2.8830    1.9360    0.1500 O   0  0  0  0  0  0  0  0  0  0  0  0
    3.7960    1.0670   -0.5310 C   0  0  0  0  0  0  0  0  0  0  0  0
    3.2730   -0.2790   -0.1170 C   0  0  0  0  0  0  0  0  0  0  0  0
  1  2  2  0
  2  3  1  0
  2  4  1  0
  4  5  1  0
  5  6  1  0
  5 10  1  0
  6  7  1  0
  6  8  2  0
  8  9  1  0
  9 10  2  0
 10 11  1  0
 11 12  2  0
 11 15  1  0
 12 13  1  0
 13 14  1  0
 14 15  1  0
M  END
