
     RDKit          3D

 15 16  0  0  0  0  0  0  0  0999 V2000
   -2.8640   -0.4300    2.4110 C   0  0  0  0  0  0  0  0  0  0  0  0
   -1.4370   -0.3950    1.9630 C   0  0  0  0  0  0  0  0  0  0  0  0
   -1.2470    0.2330    0.6200 C   0  0  2  0  0  0  0  0  0  0  0  0
   -1.9690   -0.4460   -0.4910 C   0  0  0  0  0  0  0  0  0  0  0  0
   -1.6780    0.2960   -1.7720 C   0  0  0  0  0  0  0  0  0  0  0  0
   -0.7970    1.4910   -1.6190 C   0  0  0  0  0  0  0  0  0  0  0  0
    0.4130    1.2600   -0.7560 C   0  0  0  0  0  0  0  0  0  0  0  0
    0.1570    0.2990    0.3000 N   0  0  0  0  0  0  0  0  0  0  0  0
    0.7350   -0.9460   -0.0710 C   0  0  0  0  0  0  0  0  0  0  0  0
    2.1950   -0.7900   -0.2330 C   0  0  0  0  0  0  0  0  0  0  0  0
    3.0950   -1.6320   -0.7860 N   0  0  0  0  0  0  0  0  0  0  0  0
    4.3230   -1.0940   -0.7180 N   0  0  0  0  0  0  0  0  0  0  0  0
    4.2070    0.0980   -0.1180 C   0  0  0  0  0  0  0  0  0  0  0  0
    5.1520    0.8790    0.1130 O   0  0  0  0  0  0  0  0  0  0  0  0
    2.9060    0.2700    0.1710 N   0  0  0  0  0  0  0  0  0  0  0  0
  1  2  1  0
  3  2  1  1
  3  4  1  0
  3  8  1  0
  4  5  1  0
  5  6  1  0
  6  7  1  0
  7  8  1  0
  8  9  1  0
  9 10  1  0
 10 11  2  0
 10 15  1  0
 11 12  1  0
 12 13  1  0
 13 14  2  0
 13 15  1  0
M  END
