
     RDKit          3D

 23 24  0  0  0  0  0  0  0  0999 V2000
   -4.4220    2.8010    1.6740 C   0  0  0  0  0  0  0  0  0  0  0  0
   -4.1350    2.1700    0.4450 O   0  0  0  0  0  0  0  0  0  0  0  0
   -3.0420    1.2930    0.3280 C   0  0  0  0  0  0  0  0  0  0  0  0
   -2.2240    1.0220    1.3970 C   0  0  0  0  0  0  0  0  0  0  0  0
   -1.1340    0.1560    1.3020 C   0  0  0  0  0  0  0  0  0  0  0  0
   -0.3040   -0.0980    2.4220 N   0  0  0  0  0  0  0  0  0  0  0  0
   -0.9290   -0.4200    0.0450 C   0  0  0  0  0  0  0  0  0  0  0  0
    0.2480   -1.3260   -0.0690 C   0  0  2  0  0  0  0  0  0  0  0  0
    0.1340   -2.4130    0.7650 O   0  0  0  0  0  0  0  0  0  0  0  0
    1.5160   -0.5890    0.1050 C   0  0  0  0  0  0  0  0  0  0  0  0
    1.6490    0.6880   -0.3880 C   0  0  0  0  0  0  0  0  0  0  0  0
    2.7800    1.4060   -0.2430 N   0  0  0  0  0  0  0  0  0  0  0  0
    3.8450    0.9030    0.3980 C   0  0  0  0  0  0  0  0  0  0  0  0
    4.9790    1.6710    0.5220 O   0  0  0  0  0  0  0  0  0  0  0  0
    5.0870    2.9850    0.0090 C   0  0  0  0  0  0  0  0  0  0  0  0
    3.7710   -0.3680    0.9130 C   0  0  0  0  0  0  0  0  0  0  0  0
    2.5900   -1.1230    0.7630 C   0  0  0  0  0  0  0  0  0  0  0  0
    2.5130   -2.4820    1.3060 C   0  0  0  0  0  0  0  0  0  0  0  0
   -1.7270   -0.1730   -1.0470 C   0  0  0  0  0  0  0  0  0  0  0  0
   -1.5150   -0.8130   -2.3650 C   0  0  0  0  0  0  0  0  0  0  0  0
   -2.1100   -2.2010   -2.3210 C   0  0  0  0  0  0  0  0  0  0  0  0
   -3.5000   -2.1150   -2.0530 O   0  0  0  0  0  0  0  0  0  0  0  0
   -2.8140    0.7090   -0.9010 C   0  0  0  0  0  0  0  0  0  0  0  0
  1  2  1  0
  2  3  1  0
  3  4  2  0
  3 23  1  0
  4  5  1  0
  5  6  1  0
  5  7  2  0
  7  8  1  0
  7 19  1  0
  8  9  1  1
  8 10  1  0
 10 11  2  0
 10 17  1  0
 11 12  1  0
 12 13  2  0
 13 14  1  0
 13 16  1  0
 14 15  1  0
 16 17  2  0
 17 18  1  0
 19 20  1  0
 19 23  2  0
 20 21  1  0
 21 22  1  0
M  END
