
     RDKit          3D

 28 30  0  0  0  0  0  0  0  0999 V2000
   -6.2770   -1.0030    1.2360 C   0  0  0  0  0  0  0  0  0  0  0  0
   -5.3430   -0.1220    0.4600 C   0  0  0  0  0  0  0  0  0  0  0  0
   -4.1100   -0.5160    0.2940 C   0  0  0  0  0  0  0  0  0  0  0  0
   -3.6350   -1.7500    0.8270 N   0  0  0  0  0  0  0  0  0  0  0  0
   -3.1920    0.3270   -0.4560 C   0  0  0  0  0  0  0  0  0  0  0  0
   -1.8150   -0.0920   -0.6530 N   0  0  0  0  0  0  0  0  0  0  0  0
   -1.1130   -0.4950    0.3220 N   0  0  0  0  0  0  0  0  0  0  0  0
    0.2320   -0.9160    0.1960 C   0  0  0  0  0  0  0  0  0  0  0  0
    0.8140   -1.7300    1.1390 C   0  0  0  0  0  0  0  0  0  0  0  0
    2.1220   -2.1300    0.9990 C   0  0  0  0  0  0  0  0  0  0  0  0
    2.9170   -1.7400   -0.0830 C   0  0  0  0  0  0  0  0  0  0  0  0
    4.5430   -2.2960   -0.2490 S   0  0  1  0  0  0  0  0  0  0  0  0
    4.5760   -3.7970   -0.0250 O   0  0  0  0  0  0  0  0  0  0  0  0
    4.9630   -2.0340   -1.6880 O   0  0  0  0  0  0  0  0  0  0  0  0
    5.5840   -1.5270    0.8520 N   0  0  0  0  0  0  0  0  0  0  0  0
    5.8580   -0.1610    0.8950 C   0  0  0  0  0  0  0  0  0  0  0  0
    5.3640    0.7500    0.0140 C   0  0  0  0  0  0  0  0  0  0  0  0
    5.6830    2.0930    0.0820 C   0  0  0  0  0  0  0  0  0  0  0  0
    6.5300    2.5060    1.0790 C   0  0  0  0  0  0  0  0  0  0  0  0
    7.0380    1.5920    1.9780 C   0  0  0  0  0  0  0  0  0  0  0  0
    6.6960    0.3090    1.8650 N   0  0  0  0  0  0  0  0  0  0  0  0
    2.3170   -0.9300   -1.0080 C   0  0  0  0  0  0  0  0  0  0  0  0
    0.9860   -0.5120   -0.8840 C   0  0  0  0  0  0  0  0  0  0  0  0
   -3.5550    1.4780   -0.9780 C   0  0  0  0  0  0  0  0  0  0  0  0
   -4.8970    2.0060   -0.8520 C   0  0  1  0  0  0  0  0  0  0  0  0
   -5.4940    2.4050   -2.1980 C   0  0  0  0  0  0  0  0  0  0  0  0
   -5.7950    1.1380   -0.0950 C   0  0  0  0  0  0  0  0  0  0  0  0
   -7.0170    1.4510    0.1130 O   0  0  0  0  0  0  0  0  0  0  0  0
  1  2  1  0
  2  3  2  0
  2 27  1  0
  3  4  1  0
  3  5  1  0
  5  6  1  0
  5 24  2  0
  6  7  2  3
  7  8  1  0
  8  9  2  0
  8 23  1  0
  9 10  1  0
 10 11  2  0
 11 12  1  0
 11 22  1  0
 12 13  2  0
 12 14  2  0
 12 15  1  1
 15 16  1  0
 16 17  2  0
 16 21  1  0
 17 18  1  0
 18 19  2  0
 19 20  1  0
 20 21  2  0
 22 23  2  0
 24 25  1  0
 25 26  1  6
 25 27  1  0
 27 28  2  0
M  END
