
     RDKit          3D

 18 19  0  0  0  0  0  0  0  0999 V2000
   -2.5760   -0.1990   -1.3530 C   0  0  0  0  0  0  0  0  0  0  0  0
   -1.9610    0.8030   -0.4020 C   0  0  2  0  0  0  0  0  0  0  0  0
   -2.7360    0.9790    0.8550 C   0  0  0  0  0  0  0  0  0  0  0  0
   -1.9700    2.0320   -1.0660 O   0  0  0  0  0  0  0  0  0  0  0  0
   -0.5170    0.4870   -0.1450 C   0  0  0  0  0  0  0  0  0  0  0  0
    0.5730    1.2190   -0.4690 N   0  0  0  0  0  0  0  0  0  0  0  0
    1.6680    0.6140   -0.0750 N   0  0  0  0  0  0  0  0  0  0  0  0
    3.0080    1.1350   -0.2700 C   0  0  1  0  0  0  0  0  0  0  0  0
    3.5120    0.8430   -1.5960 N   0  0  0  0  0  0  0  0  0  0  0  0
    3.0110    2.5230   -0.1330 O   0  0  0  0  0  0  0  0  0  0  0  0
    1.3830   -0.5510    0.5310 C   0  0  0  0  0  0  0  0  0  0  0  0
    2.0950   -1.5380    1.1040 N   0  0  0  0  0  0  0  0  0  0  0  0
    1.5010   -2.6170    1.6450 C   0  0  0  0  0  0  0  0  0  0  0  0
    2.2090   -3.5360    2.1810 O   0  0  0  0  0  0  0  0  0  0  0  0
    0.1620   -2.7170    1.6140 N   0  0  0  0  0  0  0  0  0  0  0  0
   -0.5810   -1.7430    1.0450 C   0  0  0  0  0  0  0  0  0  0  0  0
   -1.9730   -1.8140    0.9950 O   0  0  0  0  0  0  0  0  0  0  0  0
   -0.0100   -0.6300    0.4860 C   0  0  0  0  0  0  0  0  0  0  0  0
  2  1  1  6
  2  3  1  0
  2  4  1  0
  2  5  1  0
  5  6  2  0
  5 18  1  0
  6  7  1  0
  7  8  1  0
  7 11  1  0
  8  9  1  6
  8 10  1  0
 11 12  1  0
 11 18  2  0
 12 13  1  0
 13 14  2  0
 13 15  1  0
 15 16  2  0
 16 17  1  0
 16 18  1  0
M  END
