
     RDKit          3D

 18 19  0  0  0  0  0  0  0  0999 V2000
   -0.2770    2.2080   -0.1220 N   0  0  0  0  0  0  0  0  0  0  0  0
   -1.0890    1.0560   -0.1520 C   0  0  0  0  0  0  0  0  0  0  0  0
   -0.5250   -0.0990   -0.6330 C   0  0  0  0  0  0  0  0  0  0  0  0
    0.7610   -0.0020   -1.0640 O   0  0  0  0  0  0  0  0  0  0  0  0
    1.8920   -0.1880   -0.3200 C   0  0  0  0  0  0  0  0  0  0  0  0
    3.1430   -0.0580   -0.8860 C   0  0  0  0  0  0  0  0  0  0  0  0
    4.2880   -0.2540   -0.1020 C   0  0  0  0  0  0  0  0  0  0  0  0
    4.1890   -0.5690    1.2010 N   0  0  0  0  0  0  0  0  0  0  0  0
    2.9890   -0.6930    1.7410 N   0  0  0  0  0  0  0  0  0  0  0  0
    1.8430   -0.5120    1.0190 C   0  0  0  0  0  0  0  0  0  0  0  0
   -1.0950   -1.3430   -0.7360 C   0  0  0  0  0  0  0  0  0  0  0  0
   -0.5210   -2.2270   -1.4090 O   0  0  0  0  0  0  0  0  0  0  0  0
   -2.2660   -1.7340   -0.1580 N   0  0  0  0  0  0  0  0  0  0  0  0
   -3.2560   -0.9460    0.3040 C   0  0  0  0  0  0  0  0  0  0  0  0
   -4.2920   -1.5550    0.7370 O   0  0  0  0  0  0  0  0  0  0  0  0
   -3.3850    0.3870    0.4080 N   0  0  0  0  0  0  0  0  0  0  0  0
   -2.3830    1.2940    0.3330 C   0  0  0  0  0  0  0  0  0  0  0  0
   -2.6560    2.4510    0.7400 O   0  0  0  0  0  0  0  0  0  0  0  0
  1  2  1  0
  2  3  2  0
  2 17  1  0
  3  4  1  0
  3 11  1  0
  4  5  1  0
  5  6  2  0
  5 10  1  0
  6  7  1  0
  7  8  2  0
  8  9  1  0
  9 10  2  0
 11 12  2  0
 11 13  1  0
 13 14  1  0
 14 15  2  0
 14 16  1  0
 16 17  1  0
 17 18  2  0
M  END
