
     RDKit          3D

 18 19  0  0  0  0  0  0  0  0999 V2000
   -0.2600   -0.3270   -2.2790 N   0  0  0  0  0  0  0  0  0  0  0  0
    0.6170   -0.2940   -1.1610 C   0  0  0  0  0  0  0  0  0  0  0  0
    0.2460    0.2080   -0.0340 N   0  0  0  0  0  0  0  0  0  0  0  0
   -1.0540    0.7560    0.1590 C   0  0  0  0  0  0  0  0  0  0  0  0
   -1.2040    1.9820   -0.0390 O   0  0  0  0  0  0  0  0  0  0  0  0
   -2.1770   -0.0020    0.5600 N   0  0  0  0  0  0  0  0  0  0  0  0
   -3.4870    0.5930    0.7470 C   0  0  1  0  0  0  0  0  0  0  0  0
   -4.6200   -0.1310    0.0660 C   0  0  0  0  0  0  0  0  0  0  0  0
   -5.3960    0.1380    1.2150 O   0  0  0  0  0  0  0  0  0  0  0  0
   -4.2160    0.1880    1.9900 C   0  0  0  0  0  0  0  0  0  0  0  0
    1.9350   -0.8150   -1.2490 N   0  0  0  0  0  0  0  0  0  0  0  0
    2.8910   -0.3370   -0.3140 C   0  0  0  0  0  0  0  0  0  0  0  0
    3.3540    0.8990   -0.2730 C   0  0  0  0  0  0  0  0  0  0  0  0
    4.3550    1.3640    0.7200 C   0  0  0  0  0  0  0  0  0  0  0  0
    4.7690    0.3740    1.6160 O   0  0  0  0  0  0  0  0  0  0  0  0
    4.2860   -0.8940    1.5630 N   0  0  0  0  0  0  0  0  0  0  0  0
    3.4040   -1.2750    0.6770 C   0  0  0  0  0  0  0  0  0  0  0  0
    2.9970   -2.5990    0.7370 O   0  0  0  0  0  0  0  0  0  0  0  0
  1  2  1  0
  2  3  2  3
  2 11  1  0
  3  4  1  0
  4  5  2  0
  4  6  1  0
  7  6  1  1
  7  8  1  0
  7 10  1  0
  8  9  1  0
  9 10  1  0
 11 12  1  0
 12 13  2  0
 12 17  1  0
 13 14  1  0
 14 15  1  0
 15 16  1  0
 16 17  2  0
 17 18  1  0
M  END
