
     RDKit          3D

 18 19  0  0  0  0  0  0  0  0999 V2000
    0.1770   -0.9300   -1.0530 C   0  0  0  0  0  0  0  0  0  0  0  0
    0.7730   -0.5200    0.2560 C   0  0  2  0  0  0  0  0  0  0  0  0
    2.1870   -0.8900    0.2950 C   0  0  0  0  0  0  0  0  0  0  0  0
    3.1570   -0.6480   -0.6760 N   0  0  0  0  0  0  0  0  0  0  0  0
    2.6280   -1.5190    1.3290 O   0  0  0  0  0  0  0  0  0  0  0  0
    0.1970   -1.1710    1.3920 O   0  0  0  0  0  0  0  0  0  0  0  0
   -0.8640   -1.9530    1.1910 C   0  0  0  0  0  0  0  0  0  0  0  0
   -1.9950   -1.0690    0.7330 C   0  0  0  0  0  0  0  0  0  0  0  0
   -1.9830    0.2050    0.4890 C   0  0  0  0  0  0  0  0  0  0  0  0
   -0.9420    1.1290    0.5660 N   0  0  0  0  0  0  0  0  0  0  0  0
    0.3510    0.8690    0.4420 C   0  0  0  0  0  0  0  0  0  0  0  0
    0.9080    2.1220    0.6220 N   0  0  0  0  0  0  0  0  0  0  0  0
    1.7850    2.5550   -0.4180 C   0  0  0  0  0  0  0  0  0  0  0  0
    2.5610    3.6730   -0.3810 N   0  0  0  0  0  0  0  0  0  0  0  0
    1.7370    1.7450   -1.4040 O   0  0  0  0  0  0  0  0  0  0  0  0
   -3.2910    0.6080    0.0760 O   0  0  0  0  0  0  0  0  0  0  0  0
   -3.8830   -0.5770   -0.5030 C   0  0  0  0  0  0  0  0  0  0  0  0
   -3.2980   -1.5620    0.4160 N   0  0  0  0  0  0  0  0  0  0  0  0
  2  1  1  6
  2  3  1  0
  2  6  1  0
  2 11  1  0
  3  4  1  0
  3  5  2  0
  6  7  1  0
  7  8  1  0
  8  9  2  0
  8 18  1  0
  9 10  1  0
  9 16  1  0
 10 11  2  0
 11 12  1  0
 12 13  1  0
 13 14  1  0
 13 15  2  0
 16 17  1  0
 17 18  1  0
M  END
