
     RDKit          3D

 10 10  0  0  0  0  0  0  0  0999 V2000
   -2.5070   -0.6830    0.2240 C   0  0  0  0  0  0  0  0  0  0  0  0
   -1.1910    0.5660    0.3950 P   0  0  0  0  0  0  0  0  0  0  0  0
   -0.9470    1.1580    2.1290 C   0  0  0  0  0  0  0  0  0  0  0  0
    0.3610    0.1230   -0.4210 C   0  0  0  0  0  0  0  0  0  0  0  0
    0.8570    0.9310   -1.4120 C   0  0  0  0  0  0  0  0  0  0  0  0
    2.0340    0.5740   -2.0150 C   0  0  0  0  0  0  0  0  0  0  0  0
    2.7090   -0.4970   -1.6950 O   0  0  0  0  0  0  0  0  0  0  0  0
    2.2480   -1.2760   -0.7530 C   0  0  0  0  0  0  0  0  0  0  0  0
    2.8960   -2.3310   -0.4260 O   0  0  0  0  0  0  0  0  0  0  0  0
    1.0730   -1.0030   -0.0870 C   0  0  0  0  0  0  0  0  0  0  0  0
  1  2  1  0
  2  3  1  0
  2  4  1  0
  4  5  1  0
  4 10  2  0
  5  6  2  0
  6  7  1  0
  7  8  1  0
  8  9  2  0
  8 10  1  0
M  END
