
     RDKit          3D

 22 25  0  0  0  0  0  0  0  0999 V2000
    5.9400    0.4520    0.7710 N   0  0  0  0  0  0  0  0  0  0  0  0
    4.7230    0.7360    0.0910 C   0  0  0  0  0  0  0  0  0  0  0  0
    4.6490    1.7560   -0.7820 N   0  0  0  0  0  0  0  0  0  0  0  0
    3.5040    2.0470   -1.4410 C   0  0  0  0  0  0  0  0  0  0  0  0
    2.4050    1.3100   -1.2300 N   0  0  0  0  0  0  0  0  0  0  0  0
    2.3870    0.2580   -0.3640 C   0  0  0  0  0  0  0  0  0  0  0  0
    3.5740   -0.0040    0.2850 C   0  0  0  0  0  0  0  0  0  0  0  0
    3.3280   -1.0870    1.0940 C   0  0  0  0  0  0  0  0  0  0  0  0
    2.0060   -1.4370    0.9030 C   0  0  0  0  0  0  0  0  0  0  0  0
    1.4400   -0.6160    0.0160 N   0  0  0  0  0  0  0  0  0  0  0  0
    0.0880   -0.5900   -0.4990 C   0  0  2  0  0  0  0  0  0  0  0  0
   -0.3850    0.7280   -0.5370 O   0  0  0  0  0  0  0  0  0  0  0  0
   -1.7300    0.5370   -0.7030 C   0  0  2  0  0  0  0  0  0  0  0  0
   -2.5740    1.7520   -0.4070 C   0  0  0  0  0  0  0  0  0  0  0  0
   -3.8040    1.2800    0.0510 O   0  0  0  0  0  0  0  0  0  0  0  0
   -4.3940   -0.0240   -0.4880 P   0  0  0  0  0  0  0  0  0  0  0  0
   -5.1160   -1.2190   -1.1420 O   0  0  0  0  0  0  0  0  0  0  0  0
   -4.1780    0.5620   -2.0430 O   0  0  0  0  0  0  0  0  0  0  0  0
   -3.2470   -0.9550    0.1790 O   0  0  0  0  0  0  0  0  0  0  0  0
   -2.0370   -0.4100    0.4720 C   0  0  1  0  0  0  0  0  0  0  0  0
   -0.8730   -1.3060    0.4520 C   0  0  1  0  0  0  0  0  0  0  0  0
   -1.1260   -2.6040    0.0460 O   0  0  0  0  0  0  0  0  0  0  0  0
  1  2  1  0
  2  3  2  0
  2  7  1  0
  3  4  1  0
  4  5  2  0
  5  6  1  0
  6  7  2  0
  6 10  1  0
  7  8  1  0
  8  9  2  0
  9 10  1  0
 11 10  1  1
 11 12  1  0
 11 21  1  0
 12 13  1  0
 13 14  1  1
 13 20  1  0
 14 15  1  0
 15 16  1  0
 16 17  1  0
 16 18  1  0
 16 19  1  0
 20 19  1  6
 20 21  1  0
 21 22  1  6
M  END
