
     RDKit          3D

 14 13  0  0  0  0  0  0  0  0999 V2000
   -4.6820   -0.9130    0.4900 C   0  0  0  0  0  0  0  0  0  0  0  0
   -3.2170   -0.0620   -0.2900 P   0  0  0  0  0  0  0  0  0  0  0  0
   -3.0130    1.6490    0.4210 C   0  0  0  0  0  0  0  0  0  0  0  0
   -1.8200   -1.0420    0.0230 O   0  0  0  0  0  0  0  0  0  0  0  0
   -0.8280   -0.3610    0.5090 O   0  0  0  0  0  0  0  0  0  0  0  0
    0.3960   -0.8130    0.0190 C   0  0  2  0  0  0  0  0  0  0  0  0
    0.3460   -0.6480   -1.4940 C   0  0  0  0  0  0  0  0  0  0  0  0
    0.5430   -2.1870    0.3630 N   0  0  0  0  0  0  0  0  0  0  0  0
    1.4710   -0.0230    0.5780 N   0  0  0  0  0  0  0  0  0  0  0  0
    1.3240    1.6970    0.1710 P   0  0  0  0  0  0  0  0  0  0  0  0
    2.6140    2.7310    0.1050 C   0  0  0  0  0  0  0  0  0  0  0  0
    3.9470    2.3430    0.3650 N   0  0  0  0  0  0  0  0  0  0  0  0
    3.0630   -0.6590    0.1420 P   0  0  0  0  0  0  0  0  0  0  0  0
    3.3930   -2.1930    0.8790 O   0  0  0  0  0  0  0  0  0  0  0  0
  1  2  1  0
  2  3  1  0
  2  4  1  0
  4  5  1  0
  5  6  1  0
  6  7  1  6
  6  8  1  0
  6  9  1  0
  9 10  1  0
  9 13  1  0
 10 11  2  3
 11 12  1  0
 13 14  1  0
M  END
