
     RDKit          3D

 15 14  0  0  0  0  0  0  0  0999 V2000
   -1.1060    0.4040   -2.4060 C   0  0  0  0  0  0  0  0  0  0  0  0
   -0.5410   -0.0830   -1.1880 N   0  0  0  0  0  0  0  0  0  0  0  0
   -1.0850   -0.8660   -0.3520 C   0  0  0  0  0  0  0  0  0  0  0  0
   -0.3290   -1.2100    0.7830 O   0  0  0  0  0  0  0  0  0  0  0  0
    0.7690   -0.4800    1.1790 C   0  0  0  0  0  0  0  0  0  0  0  0
    1.6340   -1.0150    2.1810 N   0  0  0  0  0  0  0  0  0  0  0  0
    0.9650    0.6620    0.6180 N   0  0  0  0  0  0  0  0  0  0  0  0
    2.0630    1.5130    0.9370 C   0  0  0  0  0  0  0  0  0  0  0  0
    3.3500    1.0450    0.6010 N   0  0  0  0  0  0  0  0  0  0  0  0
    1.9220    2.6800    1.5140 C   0  0  0  0  0  0  0  0  0  0  0  0
    3.3870    3.6870    1.8790 P   0  0  0  0  0  0  0  0  0  0  0  0
   -2.7510   -1.5770   -0.4950 P   0  0  0  0  0  0  0  0  0  0  0  0
   -4.1970   -0.1910   -1.3580 P   0  0  0  0  0  0  0  0  0  0  0  0
   -2.7590   -3.5260   -1.4660 P   0  0  0  0  0  0  0  0  0  0  0  0
   -3.3740   -4.7830   -0.4430 O   0  0  0  0  0  0  0  0  0  0  0  0
  1  2  1  0
  2  3  2  3
  3  4  1  0
  3 12  1  0
  4  5  1  0
  5  6  1  0
  5  7  2  3
  7  8  1  0
  8  9  1  0
  8 10  2  3
 10 11  1  0
 12 13  1  0
 12 14  1  0
 14 15  1  0
M  END
