
     RDKit          3D

 15 15  0  0  0  0  0  0  0  0999 V2000
    5.1020   -0.2920    0.0260 N   0  0  0  0  0  0  0  0  0  0  0  0
    4.0440    0.6220    0.1470 C   0  0  0  0  0  0  0  0  0  0  0  0
    2.9830    0.4540   -0.5490 N   0  0  0  0  0  0  0  0  0  0  0  0
    2.9090   -0.6180   -1.3960 O   0  0  0  0  0  0  0  0  0  0  0  0
    1.7360   -1.3370   -1.4180 N   0  0  0  0  0  0  0  0  0  0  0  0
    0.4240   -0.2540   -1.2650 P   0  0  0  0  0  0  0  0  0  0  0  0
    0.3140    1.9960   -1.0520 P   0  0  0  0  0  0  0  0  0  0  0  0
   -1.3760    2.1950   -0.3520 C   0  0  0  0  0  0  0  0  0  0  0  0
   -2.0810    1.1220   -0.1460 C   0  0  0  0  0  0  0  0  0  0  0  0
   -3.7110    1.2480    0.5240 P   0  0  0  0  0  0  0  0  0  0  0  0
   -4.3710    2.7660    0.9050 O   0  0  0  0  0  0  0  0  0  0  0  0
   -1.5800   -0.4520   -0.4680 P   0  0  0  0  0  0  0  0  0  0  0  0
   -2.3080   -2.1180   -0.2140 C   0  0  0  0  0  0  0  0  0  0  0  0
   -3.6300   -2.3310    0.3110 N   0  0  0  0  0  0  0  0  0  0  0  0
   -1.6400   -3.1130   -0.5050 O   0  0  0  0  0  0  0  0  0  0  0  0
  1  2  1  0
  2  3  2  3
  3  4  1  0
  4  5  1  0
  5  6  1  0
  6  7  1  0
  6 12  1  0
  7  8  2  0
  8  9  1  0
  9 10  2  3
  9 12  1  0
 10 11  1  0
 12 13  1  0
 13 14  1  0
 13 15  2  0
M  END
