
     RDKit          3D

 15 15  0  0  0  0  0  0  0  0999 V2000
   -3.4750    1.3460   -0.7490 C   0  0  0  0  0  0  0  0  0  0  0  0
   -2.6590    0.2900   -0.0490 C   0  0  0  0  0  0  0  0  0  0  0  0
   -3.3500   -0.6200    0.7510 N   0  0  0  0  0  0  0  0  0  0  0  0
   -1.3460    0.2260   -0.1840 C   0  0  0  0  0  0  0  0  0  0  0  0
   -0.6070    1.0510   -0.9260 O   0  0  0  0  0  0  0  0  0  0  0  0
    0.5680    0.7380   -1.4830 C   0  0  0  0  0  0  0  0  0  0  0  0
    1.3040   -0.7600   -0.6590 P   0  0  0  0  0  0  0  0  0  0  0  0
    2.7970   -0.3450    0.2990 C   0  0  0  0  0  0  0  0  0  0  0  0
    2.9330   -0.6430    1.6390 O   0  0  0  0  0  0  0  0  0  0  0  0
    3.7580    0.2470   -0.3010 N   0  0  0  0  0  0  0  0  0  0  0  0
    4.9190    0.5850    0.3910 N   0  0  0  0  0  0  0  0  0  0  0  0
   -0.3870   -1.0140    0.6390 S   0  0  1  0  0  0  0  0  0  0  0  0
   -0.0580   -0.6290    2.0280 O   0  0  0  0  0  0  0  0  0  0  0  0
   -1.0050   -2.4160    0.4840 C   0  0  0  0  0  0  0  0  0  0  0  0
   -1.3910   -3.5690    0.3150 O   0  0  0  0  0  0  0  0  0  0  0  0
  1  2  1  0
  2  3  1  0
  2  4  2  3
  4  5  1  0
  4 12  1  0
  5  6  1  0
  6  7  1  0
  7  8  1  0
 12  7  1  6
  8  9  1  0
  8 10  2  3
 10 11  1  0
 12 13  2  0
 12 14  2  0
 14 15  2  0
M  END
