
     RDKit          3D

 14 13  0  0  0  0  0  0  0  0999 V2000
   -0.8030   -1.2260   -1.8390 C   0  0  0  0  0  0  0  0  0  0  0  0
   -0.5720   -0.1080   -1.0820 O   0  0  0  0  0  0  0  0  0  0  0  0
   -0.6870   -0.2520    0.2740 C   0  0  2  0  0  0  0  0  0  0  0  0
   -2.0070   -0.6720    0.6360 N   0  0  0  0  0  0  0  0  0  0  0  0
   -2.1600   -0.8090    2.0270 N   0  0  0  0  0  0  0  0  0  0  0  0
   -0.2020    1.3480    1.0710 P   0  0  0  0  0  0  0  0  0  0  0  0
   -1.3400    2.9570    1.1170 P   0  0  0  0  0  0  0  0  0  0  0  0
   -2.9610    3.0860    0.4080 N   0  0  0  0  0  0  0  0  0  0  0  0
    0.3190   -1.2780    0.7030 C   0  0  0  0  0  0  0  0  0  0  0  0
   -0.0120   -2.2990    1.2740 O   0  0  0  0  0  0  0  0  0  0  0  0
    2.0920   -1.0030    0.3680 P   0  0  0  0  0  0  0  0  0  0  0  0
    2.6940   -0.6490   -1.1170 C   0  0  0  0  0  0  0  0  0  0  0  0
    4.0540   -0.4570   -1.2790 O   0  0  0  0  0  0  0  0  0  0  0  0
    4.8760    0.5990   -0.1310 P   0  0  0  0  0  0  0  0  0  0  0  0
  1  2  1  0
  2  3  1  0
  3  4  1  6
  3  6  1  0
  3  9  1  0
  4  5  1  0
  6  7  2  3
  7  8  1  0
  9 10  2  0
  9 11  1  0
 11 12  2  3
 12 13  1  0
 13 14  1  0
M  END
