
     RDKit          3D

 14 14  0  0  0  0  0  0  0  0999 V2000
   -3.3500    1.3800   -0.7040 C   0  0  0  0  0  0  0  0  0  0  0  0
   -3.0410    0.2750   -0.0700 C   0  0  0  0  0  0  0  0  0  0  0  0
   -2.1840    0.3240    0.9970 O   0  0  0  0  0  0  0  0  0  0  0  0
   -1.0140    1.1200    1.0360 C   0  0  0  0  0  0  0  0  0  0  0  0
    0.0880    0.6020   -0.3330 P   0  0  0  0  0  0  0  0  0  0  0  0
    0.1200   -1.1120   -0.5720 O   0  0  0  0  0  0  0  0  0  0  0  0
    1.0400   -1.7550    0.2150 C   0  0  0  0  0  0  0  0  0  0  0  0
    2.3270   -1.1610    0.2730 N   0  0  0  0  0  0  0  0  0  0  0  0
    2.4930   -0.0010   -0.5700 C   0  0  2  0  0  0  0  0  0  0  0  0
    3.8800    0.3240   -0.7400 N   0  0  0  0  0  0  0  0  0  0  0  0
    4.5360    0.6100    0.4550 N   0  0  0  0  0  0  0  0  0  0  0  0
    1.7420    1.0760   -0.0820 O   0  0  0  0  0  0  0  0  0  0  0  0
   -3.7260   -1.3330   -0.5750 P   0  0  0  0  0  0  0  0  0  0  0  0
   -5.2100   -1.1640   -1.4350 O   0  0  0  0  0  0  0  0  0  0  0  0
  1  2  2  0
  2  3  1  0
  2 13  1  0
  3  4  1  0
  4  5  1  0
  5  6  1  0
  5 12  1  0
  6  7  1  0
  7  8  1  0
  8  9  1  0
  9 10  1  1
  9 12  1  0
 10 11  1  0
 13 14  1  0
M  END
