
     RDKit          3D

 13 13  0  0  0  0  0  0  0  0999 V2000
   -2.6450   -0.9850    0.0470 C   0  0  0  0  0  0  0  0  0  0  0  0
   -1.5080   -0.4750    0.7420 N   0  0  0  0  0  0  0  0  0  0  0  0
   -0.4370    0.2540    0.0890 C   0  0  0  0  0  0  0  0  0  0  0  0
   -0.6560    1.6070    0.0560 C   0  0  0  0  0  0  0  0  0  0  0  0
   -1.8270    2.1840    0.6180 O   0  0  0  0  0  0  0  0  0  0  0  0
    0.4480    2.7520   -0.6610 P   0  0  0  0  0  0  0  0  0  0  0  0
    0.3710    4.4640   -0.3880 O   0  0  0  0  0  0  0  0  0  0  0  0
    2.0640    1.5940   -1.3960 P   0  0  0  0  0  0  0  0  0  0  0  0
    1.7440   -0.0660   -1.0410 C   0  0  0  0  0  0  0  0  0  0  0  0
    0.6130   -0.4620   -0.3930 C   0  0  0  0  0  0  0  0  0  0  0  0
    0.5470   -1.7790   -0.2120 N   0  0  0  0  0  0  0  0  0  0  0  0
    1.4850   -2.6520   -0.6170 O   0  0  0  0  0  0  0  0  0  0  0  0
    2.4870   -3.1040    0.2190 N   0  0  0  0  0  0  0  0  0  0  0  0
  1  2  1  0
  2  3  1  0
  3  4  2  0
  3 10  1  0
  4  5  1  0
  4  6  1  0
  6  7  1  0
  6  8  1  0
  8  9  2  0
  9 10  1  0
 10 11  2  3
 11 12  1  0
 12 13  1  0
M  END
