
     RDKit          3D

 26 28  0  0  0  0  0  0  0  0999 V2000
   -6.7400   -0.6690   -2.3270 N   0  0  0  0  0  0  0  0  0  0  0  0
   -5.8560   -0.6650   -1.2160 C   0  0  0  0  0  0  0  0  0  0  0  0
   -6.1750   -1.4310   -0.1590 N   0  0  0  0  0  0  0  0  0  0  0  0
   -5.3520   -1.4540    0.9250 C   0  0  0  0  0  0  0  0  0  0  0  0
   -4.2550   -0.7060    0.8840 N   0  0  0  0  0  0  0  0  0  0  0  0
   -3.8850    0.0680   -0.1240 C   0  0  0  0  0  0  0  0  0  0  0  0
   -4.7250    0.0950   -1.2360 C   0  0  0  0  0  0  0  0  0  0  0  0
   -4.1290    0.9380   -2.0900 N   0  0  0  0  0  0  0  0  0  0  0  0
   -2.9980    1.4070   -1.5550 C   0  0  0  0  0  0  0  0  0  0  0  0
   -2.8460    0.8600   -0.3230 N   0  0  0  0  0  0  0  0  0  0  0  0
   -1.7010    1.1840    0.5000 C   0  0  2  0  0  0  0  0  0  0  0  0
   -0.5130    0.9570   -0.1880 O   0  0  0  0  0  0  0  0  0  0  0  0
    0.2540    0.0490    0.5070 C   0  0  2  0  0  0  0  0  0  0  0  0
    1.1100   -0.7970   -0.4000 C   0  0  0  0  0  0  0  0  0  0  0  0
    2.1980    0.3590   -1.3050 S   0  0  0  0  0  0  0  0  0  0  0  0
    3.3660    1.1490   -0.1360 C   0  0  0  0  0  0  0  0  0  0  0  0
    4.2820    0.0720    0.3670 C   0  0  0  0  0  0  0  0  0  0  0  0
    5.0030   -0.5630   -0.7950 C   0  0  2  0  0  0  0  0  0  0  0  0
    5.8940   -1.6260   -0.3010 N   0  0  0  0  0  0  0  0  0  0  0  0
    5.7910    0.4580   -1.5150 C   0  0  0  0  0  0  0  0  0  0  0  0
    7.0510    0.3940   -1.4440 O   0  0  0  0  0  0  0  0  0  0  0  0
    5.2840    1.4920   -2.2750 O   0  0  0  0  0  0  0  0  0  0  0  0
   -0.7720   -0.7600    1.2690 C   0  0  1  0  0  0  0  0  0  0  0  0
   -0.2570   -1.5080    2.2870 O   0  0  0  0  0  0  0  0  0  0  0  0
   -1.6210    0.4200    1.7770 C   0  0  1  0  0  0  0  0  0  0  0  0
   -0.7520    1.1310    2.6370 O   0  0  0  0  0  0  0  0  0  0  0  0
  1  2  1  0
  2  3  2  0
  2  7  1  0
  3  4  1  0
  4  5  2  0
  5  6  1  0
  6  7  2  0
  6 10  1  0
  7  8  1  0
  8  9  2  0
  9 10  1  0
 11 10  1  6
 11 12  1  0
 11 25  1  0
 12 13  1  0
 13 14  1  6
 13 23  1  0
 14 15  1  0
 15 16  1  0
 16 17  1  0
 17 18  1  0
 18 19  1  1
 18 20  1  0
 20 21  2  0
 20 22  1  0
 23 24  1  1
 23 25  1  0
 25 26  1  1
M  END
