
     RDKit          3D

 11 12  0  0  0  0  0  0  0  0999 V2000
   -1.9030   -2.4300    0.1320 O   0  0  0  0  0  0  0  0  0  0  0  0
   -1.6100   -1.2090    0.0060 C   0  0  0  0  0  0  0  0  0  0  0  0
   -2.4120   -0.1500   -0.1960 N   0  0  0  0  0  0  0  0  0  0  0  0
   -1.7100    0.9680   -0.2730 N   0  0  0  0  0  0  0  0  0  0  0  0
   -0.4000    0.6820   -0.1200 C   0  0  0  0  0  0  0  0  0  0  0  0
    0.7500    1.4420   -0.1120 C   0  0  0  0  0  0  0  0  0  0  0  0
    2.0030    0.8940    0.0680 C   0  0  0  0  0  0  0  0  0  0  0  0
    2.0760   -0.4740    0.2440 C   0  0  0  0  0  0  0  0  0  0  0  0
    3.6150   -1.2320    0.4750 Cl  0  0  0  0  0  0  0  0  0  0  0  0
    0.9250   -1.2360    0.2360 C   0  0  0  0  0  0  0  0  0  0  0  0
   -0.3300   -0.6870    0.0560 C   0  0  0  0  0  0  0  0  0  0  0  0
  1  2  2  0
  2  3  1  0
  2 11  1  0
  3  4  1  0
  4  5  1  0
  5  6  2  0
  5 11  1  0
  6  7  1  0
  7  8  2  0
  8  9  1  0
  8 10  1  0
 10 11  2  0
M  END
