
     RDKit          3D

 11 12  0  0  0  0  0  0  0  0999 V2000
   -2.2750   -1.1830   -0.1700 N   0  0  0  0  0  0  0  0  0  0  0  0
   -1.1320   -0.3300   -0.0670 C   0  0  0  0  0  0  0  0  0  0  0  0
   -1.2310    1.0420    0.0320 C   0  0  0  0  0  0  0  0  0  0  0  0
   -0.1220    1.8690    0.1320 C   0  0  0  0  0  0  0  0  0  0  0  0
   -0.3130    3.6040    0.2540 Cl  0  0  0  0  0  0  0  0  0  0  0  0
    1.1400    1.3090    0.1340 C   0  0  0  0  0  0  0  0  0  0  0  0
    1.2780   -0.0610    0.0370 C   0  0  0  0  0  0  0  0  0  0  0  0
    2.3600   -0.9230    0.0110 C   0  0  0  0  0  0  0  0  0  0  0  0
    1.8180   -2.1490   -0.0990 N   0  0  0  0  0  0  0  0  0  0  0  0
    0.5290   -2.1010   -0.1410 O   0  0  0  0  0  0  0  0  0  0  0  0
    0.1620   -0.8650   -0.0620 C   0  0  0  0  0  0  0  0  0  0  0  0
  1  2  1  0
  2  3  2  0
  2 11  1  0
  3  4  1  0
  4  5  1  0
  4  6  2  0
  6  7  1  0
  7  8  1  0
  7 11  2  0
  8  9  2  0
  9 10  1  0
 10 11  1  0
M  END
