
     RDKit          3D

 11 12  0  0  0  0  0  0  0  0999 V2000
   -1.7770   -1.5380   -0.2680 N   0  0  0  0  0  0  0  0  0  0  0  0
   -0.9750   -0.3720   -0.1370 C   0  0  0  0  0  0  0  0  0  0  0  0
   -1.5440    0.8840   -0.1760 C   0  0  0  0  0  0  0  0  0  0  0  0
   -0.7890    2.0380   -0.0510 C   0  0  0  0  0  0  0  0  0  0  0  0
    0.5370    1.8900    0.1110 N   0  0  0  0  0  0  0  0  0  0  0  0
    1.1700    0.7220    0.1610 C   0  0  0  0  0  0  0  0  0  0  0  0
    2.4930    0.3080    0.3160 C   0  0  0  0  0  0  0  0  0  0  0  0
    3.8120    1.4400    0.5100 Cl  0  0  0  0  0  0  0  0  0  0  0  0
    2.4760   -0.9820    0.2800 O   0  0  0  0  0  0  0  0  0  0  0  0
    1.2820   -1.4760    0.1180 C   0  0  0  0  0  0  0  0  0  0  0  0
    0.3930   -0.4250    0.0330 C   0  0  0  0  0  0  0  0  0  0  0  0
  1  2  1  0
  2  3  2  0
  2 11  1  0
  3  4  1  0
  4  5  2  0
  5  6  1  0
  6  7  2  0
  6 11  1  0
  7  8  1  0
  7  9  1  0
  9 10  1  0
 10 11  2  0
M  END
