
     RDKit          3D

 11 12  0  0  0  0  0  0  0  0999 V2000
    3.7090    0.1630    0.1210 O   0  0  0  0  0  0  0  0  0  0  0  0
    2.4470    0.1200    0.0810 C   0  0  0  0  0  0  0  0  0  0  0  0
    1.6050    1.1610    0.1990 N   0  0  0  0  0  0  0  0  0  0  0  0
    0.3370    0.7250    0.1070 C   0  0  0  0  0  0  0  0  0  0  0  0
   -0.9060    1.3460    0.1570 C   0  0  0  0  0  0  0  0  0  0  0  0
   -2.0650    0.6090    0.0270 C   0  0  0  0  0  0  0  0  0  0  0  0
   -2.0340   -0.7580   -0.1560 C   0  0  0  0  0  0  0  0  0  0  0  0
   -3.5450   -1.6540   -0.3170 Cl  0  0  0  0  0  0  0  0  0  0  0  0
   -0.8120   -1.3780   -0.2070 C   0  0  0  0  0  0  0  0  0  0  0  0
    0.3660   -0.6410   -0.0770 C   0  0  0  0  0  0  0  0  0  0  0  0
    1.6740   -0.9680   -0.0860 N   0  0  0  0  0  0  0  0  0  0  0  0
  1  2  2  0
  2  3  1  0
  2 11  1  0
  3  4  1  0
  4  5  2  0
  4 10  1  0
  5  6  1  0
  6  7  2  0
  7  8  1  0
  7  9  1  0
  9 10  2  0
 10 11  1  0
M  END
