
     RDKit          3D

 11 12  0  0  0  0  0  0  0  0999 V2000
   -0.9550    2.3420   -0.1720 O   0  0  0  0  0  0  0  0  0  0  0  0
   -0.9060    0.9600   -0.0610 C   0  0  0  0  0  0  0  0  0  0  0  0
   -2.0470    0.1950    0.0230 C   0  0  0  0  0  0  0  0  0  0  0  0
   -1.8980   -1.1700    0.1310 C   0  0  0  0  0  0  0  0  0  0  0  0
   -0.7130   -1.7990    0.1600 N   0  0  0  0  0  0  0  0  0  0  0  0
    0.4160   -1.0760    0.0800 C   0  0  0  0  0  0  0  0  0  0  0  0
    1.7560   -1.4610    0.0850 C   0  0  0  0  0  0  0  0  0  0  0  0
    2.4600   -0.3240   -0.0200 N   0  0  0  0  0  0  0  0  0  0  0  0
    1.6340    0.7340   -0.0910 C   0  0  0  0  0  0  0  0  0  0  0  0
    2.0370    2.4180   -0.2350 Cl  0  0  0  0  0  0  0  0  0  0  0  0
    0.3030    0.2950   -0.0300 C   0  0  0  0  0  0  0  0  0  0  0  0
  1  2  1  0
  2  3  2  0
  2 11  1  0
  3  4  1  0
  4  5  2  0
  5  6  1  0
  6  7  2  0
  6 11  1  0
  7  8  1  0
  8  9  1  0
  9 10  1  0
  9 11  2  0
M  END
