
     RDKit          3D

 30 32  0  0  0  0  0  0  0  0999 V2000
   -0.3320   -1.8800    2.0570 C   0  0  0  0  0  0  0  0  0  0  0  0
   -0.2370   -2.1780    0.6000 C   0  0  2  0  0  0  0  0  0  0  0  0
    0.9920   -3.0760    0.4020 C   0  0  0  0  0  0  0  0  0  0  0  0
    2.0800   -2.1400   -0.0080 C   0  0  1  0  0  0  0  0  0  0  0  0
    2.8750   -2.7740   -0.9540 O   0  0  0  0  0  0  0  0  0  0  0  0
    1.3400   -0.9880   -0.5840 C   0  0  0  0  0  0  0  0  0  0  0  0
    1.8670    0.0270   -1.3880 O   0  0  0  0  0  0  0  0  0  0  0  0
    2.5060    1.1250   -0.8980 C   0  0  0  0  0  0  0  0  0  0  0  0
    2.6490    1.2580    0.4670 C   0  0  0  0  0  0  0  0  0  0  0  0
    3.2860    2.3460    1.0360 C   0  0  0  0  0  0  0  0  0  0  0  0
    3.4030    2.4320    2.4080 O   0  0  0  0  0  0  0  0  0  0  0  0
    3.7800    3.3060    0.1820 C   0  0  0  0  0  0  0  0  0  0  0  0
    4.4160    4.3930    0.7330 O   0  0  0  0  0  0  0  0  0  0  0  0
    3.6530    3.2030   -1.2040 C   0  0  0  0  0  0  0  0  0  0  0  0
    3.0100    2.1010   -1.7270 C   0  0  0  0  0  0  0  0  0  0  0  0
    2.8550    1.9470   -3.1040 O   0  0  0  0  0  0  0  0  0  0  0  0
    0.0620   -1.0090   -0.2480 C   0  0  0  0  0  0  0  0  0  0  0  0
   -1.0430   -0.0790   -0.5830 C   0  0  2  0  0  0  0  0  0  0  0  0
   -1.2010    0.9220    0.5690 C   0  0  0  0  0  0  0  0  0  0  0  0
   -2.3060    1.8620    0.2480 C   0  0  0  0  0  0  0  0  0  0  0  0
   -3.3540    1.9350    1.0460 C   0  0  0  0  0  0  0  0  0  0  0  0
   -3.4270    1.1340    2.1870 O   0  0  0  0  0  0  0  0  0  0  0  0
   -2.2350    2.7110   -0.9560 C   0  0  0  0  0  0  0  0  0  0  0  0
   -3.3760    3.4880   -1.0250 O   0  0  0  0  0  0  0  0  0  0  0  0
   -2.3100   -0.7440   -0.9520 C   0  0  0  0  0  0  0  0  0  0  0  0
   -2.6000   -2.0320   -0.2610 C   0  0  1  0  0  0  0  0  0  0  0  0
   -3.4380   -2.7890   -1.1050 O   0  0  0  0  0  0  0  0  0  0  0  0
   -1.4440   -2.8720    0.0920 C   0  0  2  0  0  0  0  0  0  0  0  0
   -1.8590   -3.7810    1.0960 O   0  0  0  0  0  0  0  0  0  0  0  0
   -1.0830   -3.6950   -0.9990 O   0  0  0  0  0  0  0  0  0  0  0  0
  2  1  1  1
  2  3  1  0
  2 17  1  0
  2 28  1  0
  3  4  1  0
  4  5  1  6
  4  6  1  0
  6  7  1  0
  6 17  2  0
  7  8  1  0
  8  9  2  0
  8 15  1  0
  9 10  1  0
 10 11  1  0
 10 12  2  0
 12 13  1  0
 12 14  1  0
 14 15  2  0
 15 16  1  0
 17 18  1  0
 18 19  1  1
 18 25  1  0
 19 20  1  0
 20 21  2  3
 20 23  1  0
 21 22  1  0
 23 24  1  0
 25 26  1  0
 26 27  1  6
 26 28  1  0
 28 29  1  1
 28 30  1  0
M  END
