
     RDKit          3D

 31 34  0  0  0  0  0  0  0  0999 V2000
   -4.5180   -0.5200    2.7670 C   0  0  0  0  0  0  0  0  0  0  0  0
   -5.4900   -1.3950    2.0530 C   0  0  0  0  0  0  0  0  0  0  0  0
   -6.8280   -1.3480    2.2630 N   0  0  0  0  0  0  0  0  0  0  0  0
   -7.4010   -2.2300    1.4790 N   0  0  0  0  0  0  0  0  0  0  0  0
   -6.4910   -2.8720    0.7440 C   0  0  0  0  0  0  0  0  0  0  0  0
   -6.7970   -3.9290   -0.2430 C   0  0  0  0  0  0  0  0  0  0  0  0
   -5.2350   -2.3480    1.0990 C   0  0  0  0  0  0  0  0  0  0  0  0
   -4.0060   -2.8160    0.5140 C   0  0  0  0  0  0  0  0  0  0  0  0
   -4.0830   -3.6570   -0.4550 O   0  0  0  0  0  0  0  0  0  0  0  0
   -2.7300   -2.4200    0.9280 N   0  0  0  0  0  0  0  0  0  0  0  0
   -1.5390   -2.9140    0.3100 C   0  0  0  0  0  0  0  0  0  0  0  0
   -0.6670   -2.2570   -0.3440 C   0  0  0  0  0  0  0  0  0  0  0  0
   -0.6280   -0.8370   -0.6570 N   0  0  0  0  0  0  0  0  0  0  0  0
   -1.5850   -0.0210   -0.4270 C   0  0  0  0  0  0  0  0  0  0  0  0
   -1.5250    1.3480   -0.6920 C   0  0  0  0  0  0  0  0  0  0  0  0
    0.1880    1.4240   -1.3770 S   0  0  0  0  0  0  0  0  0  0  0  0
    0.5370   -0.3400   -1.2030 C   0  0  0  0  0  0  0  0  0  0  0  0
    1.6840   -0.9450   -1.5450 N   0  0  0  0  0  0  0  0  0  0  0  0
    2.7210   -0.1680   -2.0900 C   0  0  0  0  0  0  0  0  0  0  0  0
    3.2160   -0.5040   -3.1940 O   0  0  0  0  0  0  0  0  0  0  0  0
    3.2340    1.0150   -1.4080 C   0  0  0  0  0  0  0  0  0  0  0  0
    4.2470    1.8590   -1.8470 C   0  0  0  0  0  0  0  0  0  0  0  0
    4.4050    2.8420   -0.8990 C   0  0  0  0  0  0  0  0  0  0  0  0
    5.3790    3.9640   -0.9500 C   0  0  0  0  0  0  0  0  0  0  0  0
    6.6920    3.6130   -0.3650 C   0  0  0  0  0  0  0  0  0  0  0  0
    7.8350    3.6460   -1.0350 C   0  0  0  0  0  0  0  0  0  0  0  0
    8.8890    3.2340   -0.1100 C   0  0  0  0  0  0  0  0  0  0  0  0
    8.2800    3.0020    1.0180 C   0  0  0  0  0  0  0  0  0  0  0  0
    6.9690    3.1850    0.9990 C   0  0  0  0  0  0  0  0  0  0  0  0
    3.5410    2.5970    0.0420 O   0  0  0  0  0  0  0  0  0  0  0  0
    2.8430    1.5350   -0.2280 N   0  0  0  0  0  0  0  0  0  0  0  0
  1  2  1  0
  2  3  2  0
  2  7  1  0
  3  4  1  0
  4  5  1  0
  5  6  1  0
  5  7  2  0
  7  8  1  0
  8  9  2  0
  8 10  1  0
 10 11  1  0
 11 12  2  3
 12 13  1  0
 13 14  1  0
 13 17  1  0
 14 15  2  0
 15 16  1  0
 16 17  1  0
 17 18  2  3
 18 19  1  0
 19 20  2  0
 19 21  1  0
 21 22  1  0
 21 31  2  0
 22 23  2  0
 23 24  1  0
 23 30  1  0
 24 25  1  0
 25 26  2  0
 25 29  1  0
 26 27  1  0
 27 28  2  0
 28 29  2  0
 30 31  1  0
M  END
