
     RDKit          3D

 30 31  0  0  0  0  0  0  0  0999 V2000
    5.2910   -0.8950   -0.1530 C   0  0  0  0  0  0  0  0  0  0  0  0
    4.3300    0.2410   -0.2660 C   0  0  1  0  0  0  0  0  0  0  0  0
    4.8650    1.2020   -1.3050 C   0  0  0  0  0  0  0  0  0  0  0  0
    2.9630   -0.2690   -0.6660 C   0  0  0  0  0  0  0  0  0  0  0  0
    1.9900    0.4520    0.1720 C   0  0  0  0  0  0  0  0  0  0  0  0
    0.6660    0.2850    0.1180 C   0  0  0  0  0  0  0  0  0  0  0  0
    0.0590   -0.6460   -0.7950 C   0  0  0  0  0  0  0  0  0  0  0  0
    0.9610   -1.3660   -1.5960 O   0  0  0  0  0  0  0  0  0  0  0  0
   -1.1890   -0.8990   -0.9710 C   0  0  0  0  0  0  0  0  0  0  0  0
   -1.5180   -1.8740   -1.9290 O   0  0  0  0  0  0  0  0  0  0  0  0
   -2.5810   -2.7800   -2.0170 C   0  0  2  0  0  0  0  0  0  0  0  0
   -3.4680   -2.2470   -2.9820 O   0  0  0  0  0  0  0  0  0  0  0  0
   -3.2550   -3.0330   -0.7550 C   0  0  0  0  0  0  0  0  0  0  0  0
   -3.6830   -4.4640   -0.5690 C   0  0  0  0  0  0  0  0  0  0  0  0
   -4.3150   -4.6260    0.6470 O   0  0  0  0  0  0  0  0  0  0  0  0
   -3.5800   -2.2620    0.2810 C   0  0  0  0  0  0  0  0  0  0  0  0
   -3.2840   -0.8360    0.3620 C   0  0  0  0  0  0  0  0  0  0  0  0
   -2.2240   -0.1720   -0.1840 C   0  0  0  0  0  0  0  0  0  0  0  0
   -2.1080    1.1020   -0.0340 O   0  0  0  0  0  0  0  0  0  0  0  0
   -1.9890    2.3960    0.1190 C   0  0  0  0  0  0  0  0  0  0  0  0
   -2.8820    3.2100   -0.6050 O   0  0  0  0  0  0  0  0  0  0  0  0
   -4.1950    2.9480   -0.2730 C   0  0  0  0  0  0  0  0  0  0  0  0
   -4.5060    3.1770    1.1810 C   0  0  0  0  0  0  0  0  0  0  0  0
   -4.2700    4.4910    1.5530 O   0  0  0  0  0  0  0  0  0  0  0  0
    2.6890    1.3870    1.0850 C   0  0  0  0  0  0  0  0  0  0  0  0
    4.1530    1.0170    1.0190 C   0  0  2  0  0  0  0  0  0  0  0  0
    4.8830    2.1940    0.9790 O   0  0  0  0  0  0  0  0  0  0  0  0
    4.5270    0.2410    2.2080 C   0  0  0  0  0  0  0  0  0  0  0  0
    4.0220   -0.8720    2.4980 O   0  0  0  0  0  0  0  0  0  0  0  0
    5.4860    0.7370    3.0760 O   0  0  0  0  0  0  0  0  0  0  0  0
  2  1  1  1
  2  3  1  0
  2  4  1  0
  2 26  1  0
  4  5  1  0
  5  6  2  3
  5 25  1  0
  6  7  1  0
  7  8  1  0
  7  9  2  3
  9 10  1  0
  9 18  1  0
 10 11  1  0
 11 12  1  6
 11 13  1  0
 13 14  1  0
 13 16  2  0
 14 15  1  0
 16 17  1  0
 17 18  2  0
 18 19  1  0
 19 20  1  0
 20 21  1  0
 21 22  1  0
 22 23  1  0
 23 24  1  0
 25 26  1  0
 26 27  1  6
 26 28  1  0
 28 29  2  0
 28 30  1  0
M  END
