
     RDKit          3D

 31 34  0  0  0  0  0  0  0  0999 V2000
    7.2060   -2.3430   -0.3580 C   0  0  0  0  0  0  0  0  0  0  0  0
    5.6680   -2.5440   -0.6460 C   0  0  0  0  0  0  0  0  0  0  0  0
    5.3900   -1.1720   -0.4200 O   0  0  0  0  0  0  0  0  0  0  0  0
    4.3040   -0.7800    0.2970 C   0  0  0  0  0  0  0  0  0  0  0  0
    3.4090   -1.5770    0.6930 O   0  0  0  0  0  0  0  0  0  0  0  0
    4.0540    0.6400    0.5460 C   0  0  0  0  0  0  0  0  0  0  0  0
    5.1260    1.3120    1.1390 N   0  0  0  0  0  0  0  0  0  0  0  0
    4.8480    2.5880    1.2570 C   0  0  0  0  0  0  0  0  0  0  0  0
    3.6050    2.8140    0.7380 C   0  0  0  0  0  0  0  0  0  0  0  0
    3.1150    1.5310    0.2880 C   0  0  0  0  0  0  0  0  0  0  0  0
    1.8990    1.5410   -0.5230 C   0  0  0  0  0  0  0  0  0  0  0  0
    1.8000    2.4640   -1.5250 N   0  0  0  0  0  0  0  0  0  0  0  0
    0.6690    2.7410   -2.1450 C   0  0  0  0  0  0  0  0  0  0  0  0
   -0.3560    1.9690   -1.7990 N   0  0  0  0  0  0  0  0  0  0  0  0
   -0.3420    1.0510   -0.8570 C   0  0  0  0  0  0  0  0  0  0  0  0
   -1.3910    0.2070   -0.5530 N   0  0  0  0  0  0  0  0  0  0  0  0
   -2.1290   -0.1070   -1.8240 C   0  0  0  0  0  0  0  0  0  0  0  0
   -1.8930   -0.4670    0.5910 C   0  0  0  0  0  0  0  0  0  0  0  0
   -2.8480    0.0410    1.4910 C   0  0  0  0  0  0  0  0  0  0  0  0
   -4.2280   -0.5360    1.6780 C   0  0  0  0  0  0  0  0  0  0  0  0
   -4.7390   -1.2320    0.4730 C   0  0  0  0  0  0  0  0  0  0  0  0
   -5.9060   -0.6300    0.1780 C   0  0  0  0  0  0  0  0  0  0  0  0
   -6.8460   -0.7620   -0.9800 C   0  0  0  0  0  0  0  0  0  0  0  0
   -6.1630   -1.9070   -2.2350 S   0  0  0  0  0  0  0  0  0  0  0  0
   -4.6930   -2.5670   -1.4150 C   0  0  0  0  0  0  0  0  0  0  0  0
   -4.2070   -2.1840   -0.2890 C   0  0  0  0  0  0  0  0  0  0  0  0
   -4.7120    0.0530    2.8190 N   0  0  0  0  0  0  0  0  0  0  0  0
   -3.7850    0.9300    3.1890 O   0  0  0  0  0  0  0  0  0  0  0  0
   -2.7800    0.9420    2.5390 C   0  0  0  0  0  0  0  0  0  0  0  0
   -1.5740    1.8190    2.7760 C   0  0  0  0  0  0  0  0  0  0  0  0
    0.8640    0.8550   -0.1320 N   0  0  0  0  0  0  0  0  0  0  0  0
  1  2  1  0
  2  3  1  0
  3  4  1  0
  4  5  2  0
  4  6  1  0
  6  7  1  0
  6 10  2  0
  7  8  1  0
  8  9  2  0
  9 10  1  0
 10 11  1  0
 11 12  2  0
 11 31  1  0
 12 13  1  0
 13 14  2  0
 14 15  1  0
 15 16  1  0
 15 31  2  0
 16 17  1  0
 16 18  1  0
 18 19  1  0
 19 20  1  0
 19 29  2  0
 20 21  1  0
 20 27  2  0
 21 22  2  0
 21 26  1  0
 22 23  1  0
 23 24  1  0
 24 25  1  0
 25 26  2  0
 27 28  1  0
 28 29  1  0
 29 30  1  0
M  END
