
     RDKit          3D

 31 35  0  0  0  0  0  0  0  0999 V2000
    3.9660   -2.4740   -2.1290 C   0  0  0  0  0  0  0  0  0  0  0  0
    4.6570   -1.5990   -1.2920 O   0  0  0  0  0  0  0  0  0  0  0  0
    4.1320   -0.7590   -0.3350 C   0  0  0  0  0  0  0  0  0  0  0  0
    2.7670   -0.6860   -0.0850 C   0  0  0  0  0  0  0  0  0  0  0  0
    2.2450    0.1520    0.8720 C   0  0  0  0  0  0  0  0  0  0  0  0
    0.8610    0.2830    1.1580 N   0  0  0  0  0  0  0  0  0  0  0  0
   -0.1790   -0.1060    0.2720 C   0  0  0  0  0  0  0  0  0  0  0  0
   -0.0660   -0.5990   -0.9720 N   0  0  0  0  0  0  0  0  0  0  0  0
   -1.2740   -0.8500   -1.5000 C   0  0  0  0  0  0  0  0  0  0  0  0
   -1.7190   -1.3460   -2.7190 C   0  0  0  0  0  0  0  0  0  0  0  0
   -3.0790   -1.4760   -2.9400 C   0  0  0  0  0  0  0  0  0  0  0  0
   -3.9920   -1.1230   -1.9750 C   0  0  0  0  0  0  0  0  0  0  0  0
   -3.5260   -0.6340   -0.7720 C   0  0  0  0  0  0  0  0  0  0  0  0
   -4.4930   -0.3180    0.2460 C   0  0  0  0  0  0  0  0  0  0  0  0
   -4.3120   -0.8890    1.5040 C   0  0  0  0  0  0  0  0  0  0  0  0
   -5.2310   -0.6490    2.4920 C   0  0  0  0  0  0  0  0  0  0  0  0
   -6.3460    0.1440    2.2990 C   0  0  0  0  0  0  0  0  0  0  0  0
   -6.4940    0.6990    1.0300 C   0  0  0  0  0  0  0  0  0  0  0  0
   -7.4720    1.5180    0.5400 N   0  0  0  0  0  0  0  0  0  0  0  0
   -7.1620    1.7830   -0.7370 C   0  0  0  0  0  0  0  0  0  0  0  0
   -6.0090    1.1570   -1.0870 N   0  0  0  0  0  0  0  0  0  0  0  0
   -5.5910    0.4820    0.0100 C   0  0  0  0  0  0  0  0  0  0  0  0
   -2.1710   -0.4900   -0.5210 C   0  0  0  0  0  0  0  0  0  0  0  0
   -1.4780   -0.0620    0.4960 O   0  0  0  0  0  0  0  0  0  0  0  0
    3.1770    0.9270    1.5800 C   0  0  0  0  0  0  0  0  0  0  0  0
    4.5320    0.8670    1.3450 C   0  0  0  0  0  0  0  0  0  0  0  0
    5.4500    1.6290    2.0390 O   0  0  0  0  0  0  0  0  0  0  0  0
    5.2130    2.5530    3.0420 C   0  0  0  0  0  0  0  0  0  0  0  0
    5.0360    0.0250    0.3850 C   0  0  0  0  0  0  0  0  0  0  0  0
    6.3900   -0.0800    0.1050 O   0  0  0  0  0  0  0  0  0  0  0  0
    6.9450    0.7650   -0.8790 C   0  0  0  0  0  0  0  0  0  0  0  0
  1  2  1  0
  2  3  1  0
  3  4  2  0
  3 29  1  0
  4  5  1  0
  5  6  1  0
  5 25  2  0
  6  7  1  0
  7  8  2  0
  7 24  1  0
  8  9  1  0
  9 10  2  0
  9 23  1  0
 10 11  1  0
 11 12  2  0
 12 13  1  0
 13 14  1  0
 13 23  2  0
 14 15  2  0
 14 22  1  0
 15 16  1  0
 16 17  2  0
 17 18  1  0
 18 19  1  0
 18 22  2  0
 19 20  2  0
 20 21  1  0
 21 22  1  0
 23 24  1  0
 25 26  1  0
 26 27  1  0
 26 29  2  0
 27 28  1  0
 29 30  1  0
 30 31  1  0
M  END
