
     RDKit          3D

 30 32  0  0  0  0  0  0  0  0999 V2000
    6.2890    3.6000   -0.1680 C   0  0  0  0  0  0  0  0  0  0  0  0
    5.5120    2.7420   -0.7700 C   0  0  0  0  0  0  0  0  0  0  0  0
    4.5210    1.9890    0.0300 C   0  0  0  0  0  0  0  0  0  0  0  0
    3.7310    1.1260   -0.5640 C   0  0  0  0  0  0  0  0  0  0  0  0
    2.7200    0.3150    0.0510 C   0  0  0  0  0  0  0  0  0  0  0  0
    1.9890   -0.5240   -0.6830 C   0  0  0  0  0  0  0  0  0  0  0  0
    0.9360   -1.4020   -0.2010 C   0  0  0  0  0  0  0  0  0  0  0  0
   -0.0570   -1.4470   -1.2970 C   0  0  2  0  0  0  0  0  0  0  0  0
   -0.9760   -0.4020   -1.0760 O   0  0  0  0  0  0  0  0  0  0  0  0
   -1.5480   -0.5930    0.1080 O   0  0  0  0  0  0  0  0  0  0  0  0
   -2.5870    0.1880    0.5920 C   0  0  0  0  0  0  0  0  0  0  0  0
   -3.0870    1.2190   -0.1490 C   0  0  0  0  0  0  0  0  0  0  0  0
   -4.1150    1.9720    0.3600 C   0  0  0  0  0  0  0  0  0  0  0  0
   -4.6640    1.7180    1.6020 C   0  0  0  0  0  0  0  0  0  0  0  0
   -4.1430    0.6760    2.3250 C   0  0  0  0  0  0  0  0  0  0  0  0
   -3.1140   -0.0860    1.8290 C   0  0  0  0  0  0  0  0  0  0  0  0
   -2.6010   -1.1470    2.5920 O   0  0  0  0  0  0  0  0  0  0  0  0
   -5.6860    2.6530    1.8310 O   0  0  0  0  0  0  0  0  0  0  0  0
   -6.0700    3.0760    0.5150 C   0  0  0  0  0  0  0  0  0  0  0  0
   -4.8120    3.0680   -0.1630 O   0  0  0  0  0  0  0  0  0  0  0  0
   -0.7560   -2.7330   -1.5450 C   0  0  1  0  0  0  0  0  0  0  0  0
   -1.5850   -2.5260   -2.6800 O   0  0  0  0  0  0  0  0  0  0  0  0
    0.1520   -3.7180   -2.0340 O   0  0  0  0  0  0  0  0  0  0  0  0
   -1.6140   -3.2870   -0.4730 C   0  0  0  0  0  0  0  0  0  0  0  0
   -0.9310   -3.6120    0.8250 C   0  0  0  0  0  0  0  0  0  0  0  0
    0.8050   -1.1020   -2.5180 C   0  0  1  0  0  0  0  0  0  0  0  0
    0.2220   -0.1520   -3.3170 O   0  0  0  0  0  0  0  0  0  0  0  0
    2.0780   -0.7310   -2.0400 O   0  0  0  0  0  0  0  0  0  0  0  0
    4.4350    2.2220    1.4880 C   0  0  0  0  0  0  0  0  0  0  0  0
    5.6550    1.9160    2.1010 O   0  0  0  0  0  0  0  0  0  0  0  0
  1  2  2  0
  2  3  1  0
  3  4  2  3
  3 29  1  0
  4  5  1  0
  5  6  2  3
  6  7  1  0
  6 28  1  0
  7  8  1  0
  8  9  1  1
  8 21  1  0
  8 26  1  0
  9 10  1  0
 10 11  1  0
 11 12  2  0
 11 16  1  0
 12 13  1  0
 13 14  2  0
 13 20  1  0
 14 15  1  0
 14 18  1  0
 15 16  2  0
 16 17  1  0
 18 19  1  0
 19 20  1  0
 21 22  1  6
 21 23  1  0
 21 24  1  0
 24 25  1  0
 26 27  1  1
 26 28  1  0
 29 30  1  0
M  END
