
     RDKit          3D

 31 34  0  0  0  0  0  0  0  0999 V2000
   -6.4300   -2.5320   -2.6140 C   0  0  0  0  0  0  0  0  0  0  0  0
   -5.4610   -1.6620   -1.9000 C   0  0  0  0  0  0  0  0  0  0  0  0
   -5.8440   -0.8270   -0.9030 C   0  0  0  0  0  0  0  0  0  0  0  0
   -7.2710   -0.8520   -0.5870 C   0  0  0  0  0  0  0  0  0  0  0  0
   -4.7640   -0.0990   -0.2770 C   0  0  0  0  0  0  0  0  0  0  0  0
   -3.4710   -0.4750   -0.5160 N   0  0  0  0  0  0  0  0  0  0  0  0
   -2.3910    0.1130   -0.0170 C   0  0  0  0  0  0  0  0  0  0  0  0
   -1.1170   -0.3390   -0.3170 O   0  0  0  0  0  0  0  0  0  0  0  0
   -0.0250    0.3390    0.2530 C   0  0  0  0  0  0  0  0  0  0  0  0
    1.2680   -0.2700   -0.1660 C   0  0  0  0  0  0  0  0  0  0  0  0
    1.1920   -1.2490   -0.9330 O   0  0  0  0  0  0  0  0  0  0  0  0
    2.5120    0.2100    0.2620 N   0  0  0  0  0  0  0  0  0  0  0  0
    3.7720   -0.3630   -0.1300 C   0  0  0  0  0  0  0  0  0  0  0  0
    3.8850   -1.4210   -0.9550 C   0  0  0  0  0  0  0  0  0  0  0  0
    5.6760   -1.6470   -1.0440 S   0  0  0  0  0  0  0  0  0  0  0  0
    6.0030   -0.2330    0.0820 C   0  0  0  0  0  0  0  0  0  0  0  0
    7.3660    0.0850    0.4050 N   0  0  0  0  0  0  0  0  0  0  0  0
    8.5140   -0.5060   -0.0570 C   0  0  0  0  0  0  0  0  0  0  0  0
    9.6730   -0.4280    0.7240 C   0  0  0  0  0  0  0  0  0  0  0  0
   10.8670   -0.9760    0.3130 C   0  0  0  0  0  0  0  0  0  0  0  0
   10.9490   -1.6220   -0.8950 C   0  0  0  0  0  0  0  0  0  0  0  0
    9.8390   -1.6950   -1.6410 N   0  0  0  0  0  0  0  0  0  0  0  0
    8.6430   -1.1540   -1.2440 C   0  0  0  0  0  0  0  0  0  0  0  0
    4.9040    0.1340    0.3160 N   0  0  0  0  0  0  0  0  0  0  0  0
   -2.6000    1.1810    0.8050 N   0  0  0  0  0  0  0  0  0  0  0  0
   -3.8230    1.6150    1.0910 C   0  0  0  0  0  0  0  0  0  0  0  0
   -4.9460    0.9630    0.5370 C   0  0  0  0  0  0  0  0  0  0  0  0
   -6.2140    1.6300    0.8960 C   0  0  0  0  0  0  0  0  0  0  0  0
   -6.3570    1.7200    2.2870 O   0  0  0  0  0  0  0  0  0  0  0  0
   -5.2500    2.2230    2.9120 C   0  0  0  0  0  0  0  0  0  0  0  0
   -4.1690    2.7410    1.9850 C   0  0  0  0  0  0  0  0  0  0  0  0
  1  2  1  0
  2  3  2  3
  3  4  1  0
  3  5  1  0
  5  6  2  0
  5 27  1  0
  6  7  1  0
  7  8  1  0
  7 25  2  0
  8  9  1  0
  9 10  1  0
 10 11  2  0
 10 12  1  0
 12 13  1  0
 13 14  2  0
 13 24  1  0
 14 15  1  0
 15 16  1  0
 16 17  1  0
 16 24  2  0
 17 18  1  0
 18 19  2  0
 18 23  1  0
 19 20  1  0
 20 21  2  0
 21 22  1  0
 22 23  2  0
 25 26  1  0
 26 27  2  0
 26 31  1  0
 27 28  1  0
 28 29  1  0
 29 30  1  0
 30 31  1  0
M  END
