
     RDKit          3D

 31 34  0  0  0  0  0  0  0  0999 V2000
   -6.0720   -3.0520   -0.9130 C   0  0  0  0  0  0  0  0  0  0  0  0
   -5.0340   -2.7350    0.1200 C   0  0  1  0  0  0  0  0  0  0  0  0
   -4.9350   -3.9360    1.0400 C   0  0  0  0  0  0  0  0  0  0  0  0
   -3.7850   -2.4740   -0.3680 O   0  0  0  0  0  0  0  0  0  0  0  0
   -3.2410   -1.2630   -0.0170 C   0  0  0  0  0  0  0  0  0  0  0  0
   -1.8980   -1.1770   -0.6430 C   0  0  0  0  0  0  0  0  0  0  0  0
   -1.3590   -2.1380   -1.4070 N   0  0  0  0  0  0  0  0  0  0  0  0
   -0.1490   -2.0840   -1.9850 C   0  0  0  0  0  0  0  0  0  0  0  0
    0.5990   -0.9860   -1.7960 N   0  0  0  0  0  0  0  0  0  0  0  0
    0.1170    0.0270   -1.0340 C   0  0  0  0  0  0  0  0  0  0  0  0
    0.8880    1.1760   -0.8330 N   0  0  0  0  0  0  0  0  0  0  0  0
    2.1370    1.3050   -0.8650 C   0  0  0  0  0  0  0  0  0  0  0  0
    2.9460    2.5150   -0.6530 C   0  0  0  0  0  0  0  0  0  0  0  0
    4.1760    2.4140   -1.3980 N   0  0  0  0  0  0  0  0  0  0  0  0
    4.7350    1.1160   -1.3890 C   0  0  0  0  0  0  0  0  0  0  0  0
    5.9450    0.7560   -1.4960 N   0  0  0  0  0  0  0  0  0  0  0  0
    6.4250   -0.5880   -1.4750 C   0  0  0  0  0  0  0  0  0  0  0  0
    6.7100   -0.9990   -0.0840 C   0  0  0  0  0  0  0  0  0  0  0  0
    7.9230   -1.3780    0.3150 C   0  0  0  0  0  0  0  0  0  0  0  0
    8.9710   -1.3840   -0.6410 N   0  0  0  0  0  0  0  0  0  0  0  0
    3.3320    0.0180   -1.1860 S   0  0  0  0  0  0  0  0  0  0  0  0
   -1.1300   -0.0540   -0.4520 C   0  0  0  0  0  0  0  0  0  0  0  0
   -1.6450    1.0340    0.3660 C   0  0  0  0  0  0  0  0  0  0  0  0
   -1.5850    1.0190    1.7400 C   0  0  0  0  0  0  0  0  0  0  0  0
   -2.0910    2.0840    2.4360 C   0  0  0  0  0  0  0  0  0  0  0  0
   -2.6610    3.1720    1.7800 C   0  0  0  0  0  0  0  0  0  0  0  0
   -2.7300    3.2050    0.4050 C   0  0  0  0  0  0  0  0  0  0  0  0
   -2.2140    2.1250   -0.2720 C   0  0  0  0  0  0  0  0  0  0  0  0
   -3.3410    4.3950   -0.0000 O   0  0  0  0  0  0  0  0  0  0  0  0
   -3.8270    5.0610    1.1480 C   0  0  0  0  0  0  0  0  0  0  0  0
   -3.2360    4.3560    2.2250 O   0  0  0  0  0  0  0  0  0  0  0  0
  2  1  1  6
  2  3  1  0
  2  4  1  0
  4  5  1  0
  5  6  1  0
  6  7  2  0
  6 22  1  0
  7  8  1  0
  8  9  2  0
  9 10  1  0
 10 11  1  0
 10 22  2  0
 11 12  2  3
 12 13  1  0
 12 21  1  0
 13 14  1  0
 14 15  1  0
 15 16  2  3
 15 21  1  0
 16 17  1  0
 17 18  1  0
 18 19  2  3
 19 20  1  0
 22 23  1  0
 23 24  2  0
 23 28  1  0
 24 25  1  0
 25 26  2  0
 26 27  1  0
 26 31  1  0
 27 28  2  0
 27 29  1  0
 29 30  1  0
 30 31  1  0
M  END
