
     RDKit          3D

 16 15  0  0  0  0  0  0  0  0999 V2000
    4.0200    1.6210    0.0710 C   0  0  0  0  0  0  0  0  0  0  0  0
    3.6510    0.1990   -0.2480 C   0  0  2  0  0  0  0  0  0  0  0  0
    4.2380   -0.7330    0.7970 C   0  0  0  0  0  0  0  0  0  0  0  0
    4.1460   -0.1710   -1.4970 O   0  0  0  0  0  0  0  0  0  0  0  0
    2.1410    0.0810   -0.2520 C   0  0  0  0  0  0  0  0  0  0  0  0
    1.8210   -1.2270   -0.5250 O   0  0  0  0  0  0  0  0  0  0  0  0
    0.4100   -1.3610   -0.5340 C   0  0  0  0  0  0  0  0  0  0  0  0
   -0.0600   -0.5290   -1.5070 O   0  0  0  0  0  0  0  0  0  0  0  0
   -1.4230   -0.5090   -1.6940 C   0  0  0  0  0  0  0  0  0  0  0  0
   -2.1260   -0.0560   -0.4680 C   0  0  1  0  0  0  0  0  0  0  0  0
   -1.5950    1.2810   -0.0130 C   0  0  0  0  0  0  0  0  0  0  0  0
   -2.2060    1.6040    1.2510 N   0  0  0  0  0  0  0  0  0  0  0  0
   -3.5170   -0.0220   -0.6250 O   0  0  0  0  0  0  0  0  0  0  0  0
   -4.1930   -0.8450    0.2320 C   0  0  2  0  0  0  0  0  0  0  0  0
   -5.0260   -1.7250   -0.4720 O   0  0  0  0  0  0  0  0  0  0  0  0
   -5.0460   -0.0480    1.0110 O   0  0  0  0  0  0  0  0  0  0  0  0
  2  1  1  1
  2  3  1  0
  2  4  1  0
  2  5  1  0
  5  6  1  0
  6  7  1  0
  7  8  1  0
  8  9  1  0
 10  9  1  6
 10 11  1  0
 10 13  1  0
 11 12  1  0
 13 14  1  0
 14 15  1  6
 14 16  1  0
M  CHG  1  12   1
M  END
