
     RDKit          3D

 16 15  0  0  0  0  0  0  0  0999 V2000
   -0.1760    1.2360   -2.3920 C   0  0  0  0  0  0  0  0  0  0  0  0
   -0.0710    1.2720   -0.8760 C   0  0  2  0  0  0  0  0  0  0  0  0
   -0.3210    2.7060   -0.4730 C   0  0  0  0  0  0  0  0  0  0  0  0
    1.2180    0.8650   -0.5300 O   0  0  0  0  0  0  0  0  0  0  0  0
    1.6760    0.7760    0.7760 C   0  0  0  0  0  0  0  0  0  0  0  0
    0.8820    1.0780    1.6900 O   0  0  0  0  0  0  0  0  0  0  0  0
    3.0580    0.3380    1.1040 C   0  0  2  0  0  0  0  0  0  0  0  0
    3.7720    0.0510   -0.0570 O   0  0  0  0  0  0  0  0  0  0  0  0
    3.0480   -0.8980    1.9860 C   0  0  0  0  0  0  0  0  0  0  0  0
    2.4250   -2.0150    1.3130 N   0  0  0  0  0  0  0  0  0  0  0  0
   -1.1200    0.3500   -0.3640 C   0  0  0  0  0  0  0  0  0  0  0  0
   -0.7380   -0.6510    0.2970 O   0  0  0  0  0  0  0  0  0  0  0  0
   -2.4600    0.5070   -0.5560 O   0  0  0  0  0  0  0  0  0  0  0  0
   -3.4630   -0.3440   -0.0850 C   0  0  0  0  0  0  0  0  0  0  0  0
   -3.3440   -1.7550   -0.6030 C   0  0  0  0  0  0  0  0  0  0  0  0
   -4.3750   -2.5410   -0.0910 O   0  0  0  0  0  0  0  0  0  0  0  0
  2  1  1  6
  2  3  1  0
  2  4  1  0
  2 11  1  0
  4  5  1  0
  5  6  2  0
  5  7  1  0
  7  8  1  6
  7  9  1  0
  9 10  1  0
 11 12  2  0
 11 13  1  0
 13 14  1  0
 14 15  1  0
 15 16  1  0
M  CHG  1  10   1
M  END
