
     RDKit          3D

 16 15  0  0  0  0  0  0  0  0999 V2000
    4.9540    0.9890    0.1390 C   0  0  0  0  0  0  0  0  0  0  0  0
    3.8360    1.7260    0.4170 O   0  0  0  0  0  0  0  0  0  0  0  0
    2.6710    1.1490   -0.0380 C   0  0  0  0  0  0  0  0  0  0  0  0
    2.4530   -0.2020    0.5900 C   0  0  0  0  0  0  0  0  0  0  0  0
    1.3010   -0.7590    0.1310 O   0  0  0  0  0  0  0  0  0  0  0  0
    0.1240   -0.0750    0.3680 C   0  0  0  0  0  0  0  0  0  0  0  0
   -0.9640   -0.9850   -0.2380 C   0  0  1  0  0  0  0  0  0  0  0  0
   -0.6750   -1.1180   -1.5740 O   0  0  0  0  0  0  0  0  0  0  0  0
   -0.8370   -2.2930    0.4650 C   0  0  0  0  0  0  0  0  0  0  0  0
   -1.7140   -3.3200   -0.0390 N   0  0  0  0  0  0  0  0  0  0  0  0
   -2.3340   -0.4070   -0.0260 C   0  0  1  0  0  0  0  0  0  0  0  0
   -2.6050   -0.2820    1.3370 O   0  0  0  0  0  0  0  0  0  0  0  0
   -2.5690    0.8540   -0.7290 C   0  0  0  0  0  0  0  0  0  0  0  0
   -2.3670    0.8970   -1.9750 O   0  0  0  0  0  0  0  0  0  0  0  0
   -3.0030    2.0220   -0.1310 O   0  0  0  0  0  0  0  0  0  0  0  0
   -3.2140    3.2200   -0.8660 C   0  0  0  0  0  0  0  0  0  0  0  0
  1  2  1  0
  2  3  1  0
  3  4  1  0
  4  5  1  0
  5  6  1  0
  6  7  1  0
  7  8  1  6
  7  9  1  0
  7 11  1  0
  9 10  1  0
 11 12  1  1
 11 13  1  0
 13 14  2  0
 13 15  1  0
 15 16  1  0
M  CHG  1  10   1
M  END
