
     RDKit          3D

 16 15  0  0  0  0  0  0  0  0999 V2000
   -1.8400   -2.6040    1.1800 C   0  0  0  0  0  0  0  0  0  0  0  0
   -1.8320   -1.8580   -0.1270 C   0  0  1  0  0  0  0  0  0  0  0  0
   -3.1510   -1.9830   -0.7470 N   0  0  0  0  0  0  0  0  0  0  0  0
   -1.4940   -0.3750    0.0800 C   0  0  1  0  0  0  0  0  0  0  0  0
   -2.4580    0.1440    0.8960 O   0  0  0  0  0  0  0  0  0  0  0  0
   -3.2680    1.0870    0.3380 C   0  0  0  0  0  0  0  0  0  0  0  0
   -2.5420    2.3110   -0.1590 C   0  0  0  0  0  0  0  0  0  0  0  0
   -3.4330    3.2290   -0.7130 O   0  0  0  0  0  0  0  0  0  0  0  0
   -0.2260   -0.3540    0.6480 O   0  0  0  0  0  0  0  0  0  0  0  0
    0.6760    0.2120   -0.2530 C   0  0  0  0  0  0  0  0  0  0  0  0
    2.0660    0.2350    0.3680 C   0  0  0  0  0  0  0  0  0  0  0  0
    2.9390    0.8010   -0.5470 O   0  0  0  0  0  0  0  0  0  0  0  0
    4.2360    0.8720   -0.0840 C   0  0  2  0  0  0  0  0  0  0  0  0
    4.7970   -0.5020    0.2190 C   0  0  0  0  0  0  0  0  0  0  0  0
    4.3530    1.6320    1.0680 O   0  0  0  0  0  0  0  0  0  0  0  0
    5.0290    1.4490   -1.0750 O   0  0  0  0  0  0  0  0  0  0  0  0
  2  1  1  1
  2  3  1  0
  2  4  1  0
  4  5  1  1
  4  9  1  0
  5  6  1  0
  6  7  1  0
  7  8  1  0
  9 10  1  0
 10 11  1  0
 11 12  1  0
 12 13  1  0
 13 14  1  1
 13 15  1  0
 13 16  1  0
M  CHG  1   3   1
M  END
