
     RDKit          3D

 16 15  0  0  0  0  0  0  0  0999 V2000
    4.7470    1.4380   -1.3030 C   0  0  0  0  0  0  0  0  0  0  0  0
    3.5100    0.7740   -1.1150 O   0  0  0  0  0  0  0  0  0  0  0  0
    2.5710    0.6100   -2.0920 C   0  0  0  0  0  0  0  0  0  0  0  0
    2.8600    1.0990   -3.2370 O   0  0  0  0  0  0  0  0  0  0  0  0
    1.2640   -0.0680   -1.9740 C   0  0  0  0  0  0  0  0  0  0  0  0
    0.9770   -0.5440   -0.7220 O   0  0  0  0  0  0  0  0  0  0  0  0
    0.8900    0.4180    0.2570 C   0  0  0  0  0  0  0  0  0  0  0  0
    0.5650   -0.1980    1.6120 C   0  0  2  0  0  0  0  0  0  0  0  0
    1.5890   -1.1370    2.0000 N   0  0  0  0  0  0  0  0  0  0  0  0
   -0.7960   -0.8850    1.4750 C   0  0  0  0  0  0  0  0  0  0  0  0
   -1.6970    0.1100    1.1010 O   0  0  0  0  0  0  0  0  0  0  0  0
   -2.9880   -0.3870    0.9400 C   0  0  1  0  0  0  0  0  0  0  0  0
   -3.9070    0.1980    1.7780 O   0  0  0  0  0  0  0  0  0  0  0  0
   -3.4210   -0.2640   -0.4670 C   0  0  0  0  0  0  0  0  0  0  0  0
   -4.6850    0.4140   -0.7880 C   0  0  0  0  0  0  0  0  0  0  0  0
   -2.7420   -0.7210   -1.3830 O   0  0  0  0  0  0  0  0  0  0  0  0
  1  2  1  0
  2  3  1  0
  3  4  2  0
  3  5  1  0
  5  6  1  0
  6  7  1  0
  7  8  1  0
  8  9  1  6
  8 10  1  0
 10 11  1  0
 11 12  1  0
 12 13  1  1
 12 14  1  0
 14 15  1  0
 14 16  2  0
M  CHG  1   9   1
M  END
