
     RDKit          3D

 21 22  0  0  0  0  0  0  0  0999 V2000
    0.2780   -1.4280   -1.7930 O   0  0  0  0  0  0  0  0  0  0  0  0
    0.3180   -0.8490   -0.6550 C   0  0  0  0  0  0  0  0  0  0  0  0
    1.5590   -0.3970   -0.2550 O   0  0  0  0  0  0  0  0  0  0  0  0
    2.7030   -0.5770   -1.0720 C   0  0  0  0  0  0  0  0  0  0  0  0
    3.8850    0.0150   -0.3670 C   0  0  0  0  0  0  0  0  0  0  0  0
    5.0490   -0.1370   -1.1360 O   0  0  0  0  0  0  0  0  0  0  0  0
    6.4050    0.5430   -0.3270 P   0  0  0  0  0  0  0  0  0  0  0  0
    6.8930   -0.4600    1.0050 O   0  0  0  0  0  0  0  0  0  0  0  0
    6.0960    2.1690    0.1890 O   0  0  0  0  0  0  0  0  0  0  0  0
   -0.8590   -0.6990    0.1150 N   0  0  0  0  0  0  0  0  0  0  0  0
   -0.7850   -0.0410    1.3960 C   0  0  0  0  0  0  0  0  0  0  0  0
   -1.7370    1.1290    1.3640 C   0  0  0  0  0  0  0  0  0  0  0  0
   -3.1200    0.6480    1.0110 C   0  0  1  0  0  0  0  0  0  0  0  0
   -4.0330    1.6540    1.0340 O   0  0  0  0  0  0  0  0  0  0  0  0
   -5.1470    1.4980    0.4250 O   0  0  0  0  0  0  0  0  0  0  0  0
   -5.5130    0.2260    0.1500 N   0  0  0  0  0  0  0  0  0  0  0  0
   -4.5240   -0.5780   -0.4640 C   0  0  0  0  0  0  0  0  0  0  0  0
   -4.7990   -1.6150   -1.0810 O   0  0  0  0  0  0  0  0  0  0  0  0
   -3.1380   -0.0950   -0.3210 C   0  0  1  0  0  0  0  0  0  0  0  0
   -2.9280    0.8170   -1.3820 O   0  0  0  0  0  0  0  0  0  0  0  0
   -2.1150   -1.1900   -0.3590 C   0  0  0  0  0  0  0  0  0  0  0  0
  1  2  2  0
  2  3  1  0
  2 10  1  0
  3  4  1  0
  4  5  1  0
  5  6  1  0
  6  7  1  0
  7  8  1  0
  7  9  1  0
 10 11  1  0
 10 21  1  0
 11 12  1  0
 13 12  1  6
 13 14  1  0
 13 19  1  0
 14 15  1  0
 15 16  1  0
 16 17  1  0
 17 18  2  0
 17 19  1  0
 19 20  1  6
 19 21  1  0
M  END
