
     RDKit          3D

 20 21  0  0  0  0  0  0  0  0999 V2000
   -4.8460    2.1130    1.8000 O   0  0  0  0  0  0  0  0  0  0  0  0
   -4.4260    1.3160    0.9060 C   0  0  0  0  0  0  0  0  0  0  0  0
   -5.1400    0.9240   -0.2540 N   0  0  0  0  0  0  0  0  0  0  0  0
   -4.2800    0.0130   -0.9730 C   0  0  0  0  0  0  0  0  0  0  0  0
   -3.3620   -0.4850    0.1230 C   0  0  1  0  0  0  0  0  0  0  0  0
   -2.0820   -0.9980   -0.4290 C   0  0  0  0  0  0  0  0  0  0  0  0
   -2.1030   -2.0270   -1.1450 O   0  0  0  0  0  0  0  0  0  0  0  0
   -0.8540   -0.4110   -0.2040 O   0  0  0  0  0  0  0  0  0  0  0  0
    0.3580   -0.8720   -0.7080 C   0  0  1  0  0  0  0  0  0  0  0  0
    1.0350    0.0810   -1.6230 C   0  0  0  0  0  0  0  0  0  0  0  0
    0.5340    0.7230   -2.5080 O   0  0  0  0  0  0  0  0  0  0  0  0
    2.4730    0.1190   -1.2650 C   0  0  0  0  0  0  0  0  0  0  0  0
    2.6030   -0.6370   -0.0330 N   0  0  0  0  0  0  0  0  0  0  0  0
    3.8530   -0.7300    0.6950 C   0  0  0  0  0  0  0  0  0  0  0  0
    4.0290    0.6140    1.9350 P   0  0  0  0  0  0  0  0  0  0  0  0
    5.5320    1.4710    1.7060 O   0  0  0  0  0  0  0  0  0  0  0  0
    2.6770    1.6850    1.9550 O   0  0  0  0  0  0  0  0  0  0  0  0
    1.3580   -1.2260    0.3000 C   0  0  0  0  0  0  0  0  0  0  0  0
    1.1750   -1.9410    1.3160 O   0  0  0  0  0  0  0  0  0  0  0  0
   -3.1710    0.6730    0.9020 O   0  0  0  0  0  0  0  0  0  0  0  0
  1  2  2  0
  2  3  1  0
  2 20  1  0
  3  4  1  0
  4  5  1  0
  5  6  1  6
  5 20  1  0
  6  7  2  0
  6  8  1  0
  9  8  1  1
  9 10  1  0
  9 18  1  0
 10 11  2  0
 10 12  1  0
 12 13  1  0
 13 14  1  0
 13 18  1  0
 14 15  1  0
 15 16  1  0
 15 17  1  0
 18 19  2  0
M  END
