
     RDKit          3D

 20 21  0  0  0  0  0  0  0  0999 V2000
   -4.3480   -2.2670    2.2990 O   0  0  0  0  0  0  0  0  0  0  0  0
   -4.0040   -1.5890    1.3150 C   0  0  0  0  0  0  0  0  0  0  0  0
   -3.6500   -0.1440    1.3970 C   0  0  0  0  0  0  0  0  0  0  0  0
   -3.1770    0.1180   -0.0250 C   0  0  2  0  0  0  0  0  0  0  0  0
   -3.9980   -0.8520   -0.8100 C   0  0  0  0  0  0  0  0  0  0  0  0
   -3.8870   -2.0330   -0.0020 O   0  0  0  0  0  0  0  0  0  0  0  0
   -1.8160   -0.0670   -0.1730 O   0  0  0  0  0  0  0  0  0  0  0  0
   -1.2670    1.1130    0.3630 C   0  0  1  0  0  0  0  0  0  0  0  0
    0.0730    1.3670   -0.2090 C   0  0  0  0  0  0  0  0  0  0  0  0
    0.2580    2.3820   -0.9210 O   0  0  0  0  0  0  0  0  0  0  0  0
    1.1730    0.5010    0.0170 N   0  0  0  0  0  0  0  0  0  0  0  0
    2.4910    0.7580   -0.5500 C   0  0  0  0  0  0  0  0  0  0  0  0
    3.4710   -0.3230   -0.1500 C   0  0  0  0  0  0  0  0  0  0  0  0
    4.7110   -0.0530   -0.7020 O   0  0  0  0  0  0  0  0  0  0  0  0
    5.8930   -1.2350   -0.2980 P   0  0  0  0  0  0  0  0  0  0  0  0
    6.7330   -0.8590    1.1620 O   0  0  0  0  0  0  0  0  0  0  0  0
    5.2630   -2.8390   -0.3030 O   0  0  0  0  0  0  0  0  0  0  0  0
   -2.1530    2.1780   -0.0550 N   0  0  0  0  0  0  0  0  0  0  0  0
   -3.3710    1.5220   -0.4230 C   0  0  0  0  0  0  0  0  0  0  0  0
   -4.3900    2.0310   -0.9680 O   0  0  0  0  0  0  0  0  0  0  0  0
  1  2  2  0
  2  3  1  0
  2  6  1  0
  4  3  1  1
  4  5  1  0
  4  7  1  0
  4 19  1  0
  5  6  1  0
  7  8  1  0
  8  9  1  6
  8 18  1  0
  9 10  2  0
  9 11  1  0
 11 12  1  0
 12 13  1  0
 13 14  1  0
 14 15  1  0
 15 16  1  0
 15 17  1  0
 18 19  1  0
 19 20  2  0
M  END
