
     RDKit          3D

 20 20  0  0  0  0  0  0  0  0999 V2000
   -1.5460   -1.4720   -1.1170 N   0  0  0  0  0  0  0  0  0  0  0  0
   -2.5650   -0.5520   -0.5910 C   0  0  2  0  0  0  0  0  0  0  0  0
   -3.1190    0.3190   -1.6590 C   0  0  0  0  0  0  0  0  0  0  0  0
   -4.4370    0.6900   -1.4760 O   0  0  0  0  0  0  0  0  0  0  0  0
   -5.0020    0.5780    0.1190 P   0  0  0  0  0  0  0  0  0  0  0  0
   -5.6240   -0.9630    0.5510 O   0  0  0  0  0  0  0  0  0  0  0  0
   -3.8980    1.1420    1.3100 O   0  0  0  0  0  0  0  0  0  0  0  0
   -2.6690    1.4810    0.8110 C   0  0  0  0  0  0  0  0  0  0  0  0
   -1.9000    0.2060    0.5360 C   0  0  1  0  0  0  0  0  0  0  0  0
   -1.9320   -0.6140    1.6560 O   0  0  0  0  0  0  0  0  0  0  0  0
   -0.5170    0.5750    0.2160 C   0  0  0  0  0  0  0  0  0  0  0  0
   -0.1960    1.3120   -0.7510 O   0  0  0  0  0  0  0  0  0  0  0  0
    0.5410    0.0800    1.0370 N   0  0  0  0  0  0  0  0  0  0  0  0
    1.9360    0.3810    0.8120 C   0  0  0  0  0  0  0  0  0  0  0  0
    2.4050   -0.0990   -0.5410 C   0  0  0  0  0  0  0  0  0  0  0  0
    3.8550    0.2100   -0.7780 C   0  0  0  0  0  0  0  0  0  0  0  0
    4.6980   -0.4010    0.1820 O   0  0  0  0  0  0  0  0  0  0  0  0
    6.0590   -0.1870    0.0650 C   0  0  0  0  0  0  0  0  0  0  0  0
    6.5040    0.5260   -0.8670 O   0  0  0  0  0  0  0  0  0  0  0  0
    6.9780   -0.7340    0.9490 O   0  0  0  0  0  0  0  0  0  0  0  0
  2  1  1  6
  2  3  1  0
  2  9  1  0
  3  4  1  0
  4  5  1  0
  5  6  1  0
  5  7  1  0
  7  8  1  0
  8  9  1  0
  9 10  1  1
  9 11  1  0
 11 12  2  0
 11 13  1  0
 13 14  1  0
 14 15  1  0
 15 16  1  0
 16 17  1  0
 17 18  1  0
 18 19  2  0
 18 20  1  0
M  END
