
     RDKit          3D

 21 21  0  0  0  0  0  0  0  0999 V2000
    0.9560   -1.6760    0.0060 O   0  0  0  0  0  0  0  0  0  0  0  0
    1.0780   -0.5240    0.5120 C   0  0  0  0  0  0  0  0  0  0  0  0
    2.3460    0.0740    0.7260 N   0  0  0  0  0  0  0  0  0  0  0  0
    3.5440   -0.5340    0.3120 C   0  0  0  0  0  0  0  0  0  0  0  0
    3.7580   -0.6060   -1.2160 C   0  0  0  0  0  0  0  0  0  0  0  0
    5.0110   -1.2820   -1.3400 O   0  0  0  0  0  0  0  0  0  0  0  0
    6.1950   -0.0510   -1.8990 P   0  0  0  0  0  0  0  0  0  0  0  0
    7.2690    0.1790   -0.4580 O   0  0  0  0  0  0  0  0  0  0  0  0
    5.3550    1.4820   -2.0400 O   0  0  0  0  0  0  0  0  0  0  0  0
   -0.1250    0.1210    0.8590 N   0  0  0  0  0  0  0  0  0  0  0  0
   -1.4030   -0.5860    0.6880 C   0  0  2  0  0  0  0  0  0  0  0  0
   -1.5670   -0.9790   -0.7350 C   0  0  0  0  0  0  0  0  0  0  0  0
   -2.6870   -0.8320   -1.4070 O   0  0  0  0  0  0  0  0  0  0  0  0
   -3.9170   -1.0060   -0.8960 C   0  0  0  0  0  0  0  0  0  0  0  0
   -4.3930    0.4090   -0.5060 C   0  0  1  0  0  0  0  0  0  0  0  0
   -4.5690    1.0800   -1.7250 O   0  0  0  0  0  0  0  0  0  0  0  0
   -5.5300    0.3750    0.2870 O   0  0  0  0  0  0  0  0  0  0  0  0
   -5.8240    1.6380    0.5480 O   0  0  0  0  0  0  0  0  0  0  0  0
   -3.2270    0.9730    0.1960 C   0  0  0  0  0  0  0  0  0  0  0  0
   -2.8580    2.1000   -0.0900 O   0  0  0  0  0  0  0  0  0  0  0  0
   -2.4360    0.2980    1.2560 C   0  0  0  0  0  0  0  0  0  0  0  0
  1  2  2  0
  2  3  1  0
  2 10  1  0
  3  4  1  0
  4  5  1  0
  5  6  1  0
  6  7  1  0
  7  8  1  0
  7  9  1  0
 11 10  1  6
 11 12  1  0
 11 21  1  0
 12 13  1  0
 13 14  1  0
 14 15  1  0
 15 16  1  6
 15 17  1  0
 15 19  1  0
 17 18  1  0
 19 20  2  0
 19 21  1  0
M  END
