
     RDKit          3D

 20 21  0  0  0  0  0  0  0  0999 V2000
   -1.9660    1.8230   -1.0380 O   0  0  0  0  0  0  0  0  0  0  0  0
   -2.4900    0.7870   -0.6070 C   0  0  0  0  0  0  0  0  0  0  0  0
   -3.5910    0.1190   -1.2660 N   0  0  0  0  0  0  0  0  0  0  0  0
   -4.2690   -0.8440   -0.3960 C   0  0  0  0  0  0  0  0  0  0  0  0
   -4.3990   -0.2270    0.9630 C   0  0  2  0  0  0  0  0  0  0  0  0
   -5.0700    1.0060    0.8790 O   0  0  0  0  0  0  0  0  0  0  0  0
   -3.0660   -0.0550    1.6150 C   0  0  0  0  0  0  0  0  0  0  0  0
   -2.0140    0.1990    0.6010 N   0  0  0  0  0  0  0  0  0  0  0  0
   -0.7100   -0.0730    0.9270 C   0  0  0  0  0  0  0  0  0  0  0  0
   -0.5060   -0.3970    2.1720 O   0  0  0  0  0  0  0  0  0  0  0  0
    0.4760   -0.0620    0.1080 C   0  0  0  0  0  0  0  0  0  0  0  0
    0.5830    0.1590   -1.1700 C   0  0  0  0  0  0  0  0  0  0  0  0
    1.9420    0.0750   -1.5540 O   0  0  0  0  0  0  0  0  0  0  0  0
    2.5630   -0.6500   -0.5270 C   0  0  1  0  0  0  0  0  0  0  0  0
    3.9690   -0.1660   -0.3280 C   0  0  0  0  0  0  0  0  0  0  0  0
    3.9670    1.1850    0.0140 O   0  0  0  0  0  0  0  0  0  0  0  0
    5.5800    1.7660    0.2480 P   0  0  0  0  0  0  0  0  0  0  0  0
    6.4100    1.7360   -1.2940 O   0  0  0  0  0  0  0  0  0  0  0  0
    6.3750    0.6600    1.3400 O   0  0  0  0  0  0  0  0  0  0  0  0
    1.7910   -0.3120    0.6340 O   0  0  0  0  0  0  0  0  0  0  0  0
  1  2  2  0
  2  3  1  0
  2  8  1  0
  3  4  1  0
  4  5  1  0
  5  6  1  6
  5  7  1  0
  7  8  1  0
  8  9  1  0
  9 10  2  0
  9 11  1  0
 11 12  2  0
 11 20  1  0
 12 13  1  0
 13 14  1  0
 14 15  1  1
 14 20  1  0
 15 16  1  0
 16 17  1  0
 17 18  1  0
 17 19  1  0
M  END
