
     RDKit          3D

 20 21  0  0  0  0  0  0  0  0999 V2000
   -1.3340    1.6420   -0.3890 N   0  0  0  0  0  0  0  0  0  0  0  0
   -2.2240    0.7240    0.1860 C   0  0  2  0  0  0  0  0  0  0  0  0
   -1.6680   -0.4690    0.8690 C   0  0  0  0  0  0  0  0  0  0  0  0
   -0.4590   -0.9170    0.9500 C   0  0  0  0  0  0  0  0  0  0  0  0
    0.7670   -0.3620    0.3690 C   0  0  0  0  0  0  0  0  0  0  0  0
    0.8690    0.6610   -0.3240 O   0  0  0  0  0  0  0  0  0  0  0  0
    2.0180   -1.0460    0.6020 N   0  0  0  0  0  0  0  0  0  0  0  0
    3.2590   -0.5260    0.0420 C   0  0  0  0  0  0  0  0  0  0  0  0
    3.1220   -0.4990   -1.3270 O   0  0  0  0  0  0  0  0  0  0  0  0
    4.5090    0.0930   -2.1460 P   0  0  0  0  0  0  0  0  0  0  0  0
    5.9290   -0.8390   -1.8190 O   0  0  0  0  0  0  0  0  0  0  0  0
    4.7570    1.7790   -1.9520 O   0  0  0  0  0  0  0  0  0  0  0  0
   -0.4950   -2.1740    1.7850 C   0  0  0  0  0  0  0  0  0  0  0  0
   -1.8200   -2.3750    2.1020 O   0  0  0  0  0  0  0  0  0  0  0  0
   -2.6080   -1.3790    1.6040 C   0  0  0  0  0  0  0  0  0  0  0  0
   -3.8410   -1.2660    1.7400 O   0  0  0  0  0  0  0  0  0  0  0  0
   -3.1910    0.2070   -0.8930 C   0  0  0  0  0  0  0  0  0  0  0  0
   -4.4310    0.6130   -0.4470 O   0  0  0  0  0  0  0  0  0  0  0  0
   -4.1210    1.8110    0.2090 C   0  0  0  0  0  0  0  0  0  0  0  0
   -3.1320    1.3750    1.0760 O   0  0  0  0  0  0  0  0  0  0  0  0
  2  1  1  6
  2  3  1  0
  2 17  1  0
  2 20  1  0
  3  4  2  0
  3 15  1  0
  4  5  1  0
  4 13  1  0
  5  6  2  0
  5  7  1  0
  7  8  1  0
  8  9  1  0
  9 10  1  0
 10 11  1  0
 10 12  1  0
 13 14  1  0
 14 15  1  0
 15 16  2  0
 17 18  1  0
 18 19  1  0
 19 20  1  0
M  END
