
     RDKit          3D

 27 29  0  0  0  0  0  0  0  0999 V2000
    6.8130   -0.9050   -2.5200 N   0  0  0  0  0  0  0  0  0  0  0  0
    5.4280   -0.9720   -2.2140 C   0  0  0  0  0  0  0  0  0  0  0  0
    4.5020   -1.5570   -2.9920 N   0  0  0  0  0  0  0  0  0  0  0  0
    3.1940   -1.5990   -2.6650 C   0  0  0  0  0  0  0  0  0  0  0  0
    2.7450   -1.0490   -1.5250 N   0  0  0  0  0  0  0  0  0  0  0  0
    3.6180   -0.4470   -0.7000 C   0  0  0  0  0  0  0  0  0  0  0  0
    4.9730   -0.4050   -1.0410 C   0  0  0  0  0  0  0  0  0  0  0  0
    5.5680    0.2430   -0.0460 N   0  0  0  0  0  0  0  0  0  0  0  0
    4.6440    0.5880    0.8660 C   0  0  0  0  0  0  0  0  0  0  0  0
    3.4250    0.1700    0.4820 N   0  0  0  0  0  0  0  0  0  0  0  0
    2.2310    0.3860    1.2460 C   0  0  2  0  0  0  0  0  0  0  0  0
    1.1290   -0.2610    0.7210 O   0  0  0  0  0  0  0  0  0  0  0  0
    0.0860    0.2570    1.5250 C   0  0  2  0  0  0  0  0  0  0  0  0
   -1.1960   -0.0840    0.8650 C   0  0  0  0  0  0  0  0  0  0  0  0
   -2.3200    0.3340    1.4950 O   0  0  0  0  0  0  0  0  0  0  0  0
   -3.7700    0.0000    0.8470 P   0  0  0  0  0  0  0  0  0  0  0  0
   -4.1800    1.4730    0.7790 O   0  0  0  0  0  0  0  0  0  0  0  0
   -5.0500   -0.4490    1.7460 O   0  0  0  0  0  0  0  0  0  0  0  0
   -3.9640   -0.0450   -0.8560 O   0  0  0  0  0  0  0  0  0  0  0  0
   -5.1750   -1.0280   -1.2580 P   0  0  0  0  0  0  0  0  0  0  0  0
   -6.4520   -1.2860   -0.1950 O   0  0  0  0  0  0  0  0  0  0  0  0
   -5.0770   -1.9850   -2.6220 O   0  0  0  0  0  0  0  0  0  0  0  0
   -5.9840    0.0170   -2.0140 O   0  0  0  0  0  0  0  0  0  0  0  0
    0.3480    1.7160    1.6790 C   0  0  1  0  0  0  0  0  0  0  0  0
    0.3120    2.0720    3.0440 O   0  0  0  0  0  0  0  0  0  0  0  0
    1.7840    1.8480    1.1620 C   0  0  1  0  0  0  0  0  0  0  0  0
    2.5480    2.6710    1.9620 O   0  0  0  0  0  0  0  0  0  0  0  0
  1  2  1  0
  2  3  2  0
  2  7  1  0
  3  4  1  0
  4  5  2  0
  5  6  1  0
  6  7  2  0
  6 10  1  0
  7  8  1  0
  8  9  2  0
  9 10  1  0
 11 10  1  6
 11 12  1  0
 11 26  1  0
 12 13  1  0
 13 14  1  6
 13 24  1  0
 14 15  1  0
 15 16  1  0
 16 17  1  0
 16 18  1  0
 16 19  1  0
 19 20  1  0
 20 21  1  0
 20 22  1  0
 20 23  1  0
 24 25  1  1
 24 26  1  0
 26 27  1  1
M  END
