
     RDKit          3D

 13 13  0  0  0  0  0  0  0  0999 V2000
    1.5530    0.9450    0.6650 C   0  0  0  0  0  0  0  0  0  0  0  0
    0.9770    0.0450   -0.0690 C   0  0  0  0  0  0  0  0  0  0  0  0
    1.6380   -0.4510   -1.2140 N   0  0  0  0  0  0  0  0  0  0  0  0
    2.4450    0.2550   -1.9310 C   0  0  0  0  0  0  0  0  0  0  0  0
    3.1380   -0.2500   -3.1220 C   0  0  0  0  0  0  0  0  0  0  0  0
   -0.3480   -0.4510    0.2380 C   0  0  0  0  0  0  0  0  0  0  0  0
   -0.4870   -1.7910    0.1320 N   0  0  0  0  0  0  0  0  0  0  0  0
   -1.5610   -2.4740    0.3340 O   0  0  0  0  0  0  0  0  0  0  0  0
   -2.9000   -1.6050    0.7690 P   0  0  0  0  0  0  0  0  0  0  0  0
   -4.3900   -2.2480    1.3610 O   0  0  0  0  0  0  0  0  0  0  0  0
   -2.6230    0.0630    0.8730 N   0  0  0  0  0  0  0  0  0  0  0  0
   -1.3360    0.4320    0.5830 C   0  0  0  0  0  0  0  0  0  0  0  0
   -1.1410    1.9290    0.6410 C   0  0  0  0  0  0  0  0  0  0  0  0
  1  2  2  0
  2  3  1  0
  2  6  1  0
  3  4  2  3
  4  5  1  0
  6  7  1  0
  6 12  2  0
  7  8  1  0
  8  9  1  0
  9 10  1  0
  9 11  1  0
 11 12  1  0
 12 13  1  0
M  END
