
     RDKit          3D

 28 30  0  0  0  0  0  0  0  0999 V2000
   -6.6710    1.7690   -0.7390 N   0  0  0  0  0  0  0  0  0  0  0  0
   -5.9740    0.9270    0.1650 C   0  0  0  0  0  0  0  0  0  0  0  0
   -4.6870    0.6180   -0.0720 N   0  0  0  0  0  0  0  0  0  0  0  0
   -3.9610   -0.1800    0.7480 C   0  0  0  0  0  0  0  0  0  0  0  0
   -4.6010   -0.6850    1.8750 C   0  0  0  0  0  0  0  0  0  0  0  0
   -3.6580   -1.4320    2.4980 N   0  0  0  0  0  0  0  0  0  0  0  0
   -2.5080   -1.3870    1.7950 C   0  0  0  0  0  0  0  0  0  0  0  0
   -2.6890   -0.6210    0.7210 N   0  0  0  0  0  0  0  0  0  0  0  0
   -1.7420   -0.2930   -0.3030 C   0  0  2  0  0  0  0  0  0  0  0  0
   -0.8410   -1.2870   -0.5770 O   0  0  0  0  0  0  0  0  0  0  0  0
    0.3240   -0.7390   -1.0470 C   0  0  2  0  0  0  0  0  0  0  0  0
    1.5020   -1.1450   -0.2000 C   0  0  0  0  0  0  0  0  0  0  0  0
    2.6170   -0.5310   -0.7740 O   0  0  0  0  0  0  0  0  0  0  0  0
    3.9740   -0.8120   -0.0550 P   0  0  0  0  0  0  0  0  0  0  0  0
    3.3640   -0.1550    1.3270 O   0  0  0  0  0  0  0  0  0  0  0  0
    3.7610   -2.4420   -0.2540 O   0  0  0  0  0  0  0  0  0  0  0  0
    5.3160   -1.0070    0.6220 O   0  0  0  0  0  0  0  0  0  0  0  0
    6.6440   -0.0940    0.5320 P   0  0  0  0  0  0  0  0  0  0  0  0
    6.0050    0.9790   -0.3410 O   0  0  0  0  0  0  0  0  0  0  0  0
    7.1140    0.9320    1.7370 O   0  0  0  0  0  0  0  0  0  0  0  0
    7.7820   -0.3390   -0.7020 O   0  0  0  0  0  0  0  0  0  0  0  0
    0.1490    0.7650   -1.0780 C   0  0  1  0  0  0  0  0  0  0  0  0
   -0.4730    1.1980   -2.2380 O   0  0  0  0  0  0  0  0  0  0  0  0
   -0.8790    0.8990    0.0560 C   0  0  1  0  0  0  0  0  0  0  0  0
   -1.5600    2.1000   -0.0190 O   0  0  0  0  0  0  0  0  0  0  0  0
   -5.9210   -0.3720    2.1250 C   0  0  0  0  0  0  0  0  0  0  0  0
   -6.4920   -0.8410    3.1570 O   0  0  0  0  0  0  0  0  0  0  0  0
   -6.5880    0.4250    1.2720 N   0  0  0  0  0  0  0  0  0  0  0  0
  1  2  1  0
  2  3  1  0
  2 28  2  0
  3  4  1  0
  4  5  2  0
  4  8  1  0
  5  6  1  0
  5 26  1  0
  6  7  2  0
  7  8  1  0
  9  8  1  1
  9 10  1  0
  9 24  1  0
 10 11  1  0
 11 12  1  1
 11 22  1  0
 12 13  1  0
 13 14  1  0
 14 15  1  0
 14 16  1  0
 14 17  1  0
 17 18  1  0
 18 19  1  0
 18 20  1  0
 18 21  1  0
 22 23  1  6
 22 24  1  0
 24 25  1  6
 26 27  2  0
 26 28  1  0
M  CHG  1  28   1
M  END
