
     RDKit          3D

 11 11  0  0  0  0  0  0  0  0999 V2000
    3.5680    0.6810   -0.1270 O   0  0  0  0  0  0  0  0  0  0  0  0
    3.7080   -0.5550   -0.4980 O   0  0  0  0  0  0  0  0  0  0  0  0
    2.6110   -1.2430   -0.1960 O   0  0  0  0  0  0  0  0  0  0  0  0
    1.5810   -0.6480   -0.7480 O   0  0  0  0  0  0  0  0  0  0  0  0
    0.5060   -0.6360    0.1320 C   0  0  2  0  0  0  0  0  0  0  0  0
   -0.6830   -1.3850   -0.3980 C   0  0  0  0  0  0  0  0  0  0  0  0
   -1.6300   -0.6120   -1.0050 O   0  0  0  0  0  0  0  0  0  0  0  0
   -2.2880    0.2690   -0.1900 C   0  0  0  0  0  0  0  0  0  0  0  0
   -1.5930    1.6250   -0.1940 C   0  0  0  0  0  0  0  0  0  0  0  0
   -0.2550    1.3620   -0.5690 O   0  0  0  0  0  0  0  0  0  0  0  0
    0.2410    0.6840    0.4460 O   0  0  0  0  0  0  0  0  0  0  0  0
  1  2  1  0
  2  3  1  0
  3  4  1  0
  5  4  1  6
  5  6  1  0
  5 11  1  0
  6  7  1  0
  7  8  1  0
  8  9  1  0
  9 10  1  0
 10 11  1  0
M  END
