
     RDKit          3D

 11 10  0  0  0  0  0  0  0  0999 V2000
    2.4310    1.3130   -1.0230 C   0  0  0  0  0  0  0  0  0  0  0  0
    2.5660    0.5740    0.1200 O   0  0  0  0  0  0  0  0  0  0  0  0
    1.4290    0.4280    0.8650 C   0  0  0  0  0  0  0  0  0  0  0  0
    0.3030   -0.2530    0.1230 C   0  0  1  0  0  0  0  0  0  0  0  0
    0.6800   -1.5410   -0.2870 O   0  0  0  0  0  0  0  0  0  0  0  0
    0.4750   -1.6570   -1.5720 O   0  0  0  0  0  0  0  0  0  0  0  0
   -0.7450   -0.4110    1.0230 O   0  0  0  0  0  0  0  0  0  0  0  0
   -1.8280    0.1850    0.5730 O   0  0  0  0  0  0  0  0  0  0  0  0
   -3.0290   -0.5060    0.4890 C   0  0  0  0  0  0  0  0  0  0  0  0
   -3.0780   -1.6940    0.8420 O   0  0  0  0  0  0  0  0  0  0  0  0
   -4.1740    0.1170    0.0160 O   0  0  0  0  0  0  0  0  0  0  0  0
  1  2  1  0
  2  3  1  0
  4  3  1  1
  4  5  1  0
  4  7  1  0
  5  6  1  0
  7  8  1  0
  8  9  1  0
  9 10  2  0
  9 11  1  0
M  END
