
     RDKit          3D

 11 10  0  0  0  0  0  0  0  0999 V2000
   -3.6070   -0.5550   -0.7230 O   0  0  0  0  0  0  0  0  0  0  0  0
   -2.4930   -0.8420   -0.2210 C   0  0  0  0  0  0  0  0  0  0  0  0
   -2.1200   -2.1790   -0.1000 O   0  0  0  0  0  0  0  0  0  0  0  0
   -1.5530    0.2130    0.2520 C   0  0  2  0  0  0  0  0  0  0  0  0
   -2.1090    1.4690    0.0440 O   0  0  0  0  0  0  0  0  0  0  0  0
   -2.1900    2.1290    1.1630 O   0  0  0  0  0  0  0  0  0  0  0  0
   -0.3890    0.1470   -0.5020 O   0  0  0  0  0  0  0  0  0  0  0  0
    0.7500   -0.0370    0.2600 C   0  0  0  0  0  0  0  0  0  0  0  0
    1.9190   -0.0840   -0.7320 C   0  0  0  0  0  0  0  0  0  0  0  0
    3.0740   -0.2670   -0.0100 O   0  0  0  0  0  0  0  0  0  0  0  0
    4.1020   -0.3120   -0.8430 O   0  0  0  0  0  0  0  0  0  0  0  0
  1  2  2  0
  2  3  1  0
  2  4  1  0
  4  5  1  6
  4  7  1  0
  5  6  1  0
  7  8  1  0
  8  9  1  0
  9 10  1  0
 10 11  1  0
M  END
