
     RDKit          3D

 13 14  0  0  0  0  0  0  0  0999 V2000
    3.9830    0.3660    0.1800 C   0  0  0  0  0  0  0  0  0  0  0  0
    2.7680   -0.5390    0.2410 C   0  0  0  0  0  0  0  0  0  0  0  0
    1.6750    0.2450   -0.1640 O   0  0  0  0  0  0  0  0  0  0  0  0
    0.5940   -0.5400   -0.1150 N   0  0  0  0  0  0  0  0  0  0  0  0
    0.6680   -1.9230   -0.1380 N   0  0  0  0  0  0  0  0  0  0  0  0
   -0.2260   -2.5190    0.6380 O   0  0  0  0  0  0  0  0  0  0  0  0
   -1.5410   -2.2340    0.3650 C   0  0  0  0  0  0  0  0  0  0  0  0
   -1.7960   -0.8780    0.0140 N   0  0  0  0  0  0  0  0  0  0  0  0
   -2.9720   -0.1220   -0.3360 C   0  0  0  0  0  0  0  0  0  0  0  0
   -2.6110    1.2680    0.0800 C   0  0  0  0  0  0  0  0  0  0  0  0
   -1.1330    1.2740   -0.0060 C   0  0  0  0  0  0  0  0  0  0  0  0
   -0.2430    2.4650   -0.0510 C   0  0  0  0  0  0  0  0  0  0  0  0
   -0.7130    0.0430   -0.0370 C   0  0  0  0  0  0  0  0  0  0  0  0
  1  2  1  0
  2  3  1  0
  3  4  1  0
  4  5  1  0
  4 13  1  0
  5  6  1  0
  6  7  1  0
  7  8  1  0
  8  9  1  0
  8 13  1  0
  9 10  1  0
 10 11  1  0
 11 12  1  0
 11 13  2  0
M  END
