
     RDKit          3D

 27 29  0  0  0  0  0  0  0  0999 V2000
    1.5680   -3.0310    0.1500 C   0  0  0  0  0  0  0  0  0  0  0  0
    0.2160   -2.4330    0.2600 C   0  0  0  0  0  0  0  0  0  0  0  0
   -0.8330   -3.1430    0.7080 N   0  0  0  0  0  0  0  0  0  0  0  0
   -2.0680   -2.6500    0.7970 C   0  0  0  0  0  0  0  0  0  0  0  0
   -3.1150   -3.3940    1.2530 C   0  0  0  0  0  0  0  0  0  0  0  0
   -4.3800   -2.8670    1.3360 C   0  0  0  0  0  0  0  0  0  0  0  0
   -4.5840   -1.5590    0.9460 C   0  0  0  0  0  0  0  0  0  0  0  0
   -3.5240   -0.7860    0.4770 C   0  0  0  0  0  0  0  0  0  0  0  0
   -2.2620   -1.3510    0.4080 C   0  0  0  0  0  0  0  0  0  0  0  0
   -1.2120   -0.5530   -0.0680 C   0  0  0  0  0  0  0  0  0  0  0  0
   -1.5070    0.8090   -0.4440 C   0  0  0  0  0  0  0  0  0  0  0  0
   -2.1240    1.1440   -1.6370 C   0  0  0  0  0  0  0  0  0  0  0  0
   -2.3880    2.4680   -1.9010 C   0  0  0  0  0  0  0  0  0  0  0  0
   -2.0610    3.4830   -1.0230 C   0  0  0  0  0  0  0  0  0  0  0  0
   -2.3930    5.1640   -1.3520 Cl  0  0  0  0  0  0  0  0  0  0  0  0
   -1.4470    3.1600    0.1660 C   0  0  0  0  0  0  0  0  0  0  0  0
   -1.1760    1.8160    0.4410 C   0  0  0  0  0  0  0  0  0  0  0  0
    0.0380   -1.0930   -0.1440 C   0  0  0  0  0  0  0  0  0  0  0  0
    1.1650   -0.2590   -0.6000 C   0  0  2  0  0  0  0  0  0  0  0  0
    1.5490    0.7450    0.2590 O   0  0  0  0  0  0  0  0  0  0  0  0
    2.8370    0.8740    0.6130 C   0  0  2  0  0  0  0  0  0  0  0  0
    2.9080    2.1100    1.5410 C   0  0  0  0  0  0  0  0  0  0  0  0
    3.7520    1.2290   -0.5710 C   0  0  0  0  0  0  0  0  0  0  0  0
    3.5100   -0.2180    1.3510 C   0  0  0  0  0  0  0  0  0  0  0  0
    0.8120    0.3750   -1.9480 C   0  0  0  0  0  0  0  0  0  0  0  0
    0.9400    1.5910   -2.1590 O   0  0  0  0  0  0  0  0  0  0  0  0
    0.3360   -0.4430   -2.9540 O   0  0  0  0  0  0  0  0  0  0  0  0
  1  2  1  0
  2  3  2  0
  2 18  1  0
  3  4  1  0
  4  5  2  0
  4  9  1  0
  5  6  1  0
  6  7  2  0
  7  8  1  0
  8  9  2  0
  9 10  1  0
 10 11  1  0
 10 18  2  0
 11 12  2  0
 11 17  1  0
 12 13  1  0
 13 14  2  0
 14 15  1  0
 14 16  1  0
 16 17  2  0
 18 19  1  0
 19 20  1  1
 19 25  1  0
 20 21  1  0
 21 22  1  1
 21 23  1  0
 21 24  1  0
 25 26  2  0
 25 27  1  0
M  END
