
     RDKit          3D

 27 29  0  0  0  0  0  0  0  0999 V2000
   -4.2200    2.3530    2.0190 C   0  0  0  0  0  0  0  0  0  0  0  0
   -3.2730    1.5330    2.3120 C   0  0  0  0  0  0  0  0  0  0  0  0
   -2.9160    0.2570    1.7250 C   0  0  0  0  0  0  0  0  0  0  0  0
   -1.8270   -0.3930    2.1910 C   0  0  0  0  0  0  0  0  0  0  0  0
   -1.0290    0.2320    3.2930 C   0  0  0  0  0  0  0  0  0  0  0  0
   -3.6470   -0.2940    0.6080 C   0  0  0  0  0  0  0  0  0  0  0  0
   -5.0200   -0.1090    0.4940 C   0  0  0  0  0  0  0  0  0  0  0  0
   -5.6790   -0.5460   -0.6350 C   0  0  0  0  0  0  0  0  0  0  0  0
   -7.4290   -0.2890   -0.7470 Cl  0  0  0  0  0  0  0  0  0  0  0  0
   -4.9990   -1.1690   -1.6530 C   0  0  0  0  0  0  0  0  0  0  0  0
   -5.7540   -1.6330   -2.8680 C   0  0  0  0  0  0  0  0  0  0  0  0
   -3.6570   -1.3400   -1.5140 C   0  0  0  0  0  0  0  0  0  0  0  0
   -2.9480   -0.9220   -0.4130 C   0  0  0  0  0  0  0  0  0  0  0  0
   -1.5910   -1.1030   -0.3000 O   0  0  0  0  0  0  0  0  0  0  0  0
   -0.6460   -0.2020   -0.7280 C   0  0  0  0  0  0  0  0  0  0  0  0
   -1.0680    0.8690   -1.2650 O   0  0  0  0  0  0  0  0  0  0  0  0
    0.8070   -0.3960   -0.6060 C   0  0  0  0  0  0  0  0  0  0  0  0
    1.5240    0.7210   -1.1460 O   0  0  0  0  0  0  0  0  0  0  0  0
    2.9290    0.7260   -1.1230 C   0  0  0  0  0  0  0  0  0  0  0  0
    3.5620    1.8270   -1.6560 C   0  0  0  0  0  0  0  0  0  0  0  0
    4.9410    1.8490   -1.6420 C   0  0  0  0  0  0  0  0  0  0  0  0
    5.6500    0.7890   -1.1060 C   0  0  0  0  0  0  0  0  0  0  0  0
    5.0010   -0.3030   -0.5770 C   0  0  0  0  0  0  0  0  0  0  0  0
    3.6240   -0.3310   -0.5880 C   0  0  0  0  0  0  0  0  0  0  0  0
    6.0440   -1.2620   -0.0840 C   0  0  0  0  0  0  0  0  0  0  0  0
    7.3240   -0.4850   -0.1080 C   0  0  0  0  0  0  0  0  0  0  0  0
    7.0680    0.6310   -1.0020 N   0  0  0  0  0  0  0  0  0  0  0  0
  1  2  2  0
  2  3  1  0
  3  4  2  3
  3  6  1  0
  4  5  1  0
  6  7  2  0
  6 13  1  0
  7  8  1  0
  8  9  1  0
  8 10  2  0
 10 11  1  0
 10 12  1  0
 12 13  2  0
 13 14  1  0
 14 15  1  0
 15 16  2  0
 15 17  1  0
 17 18  1  0
 18 19  1  0
 19 20  2  0
 19 24  1  0
 20 21  1  0
 21 22  2  0
 22 23  1  0
 22 27  1  0
 23 24  2  0
 23 25  1  0
 25 26  1  0
 26 27  1  0
M  END
