
     RDKit          3D

 27 29  0  0  0  0  0  0  0  0999 V2000
    7.7730   -1.4650   -0.6000 C   0  0  0  0  0  0  0  0  0  0  0  0
    6.4080   -1.0900   -0.5860 O   0  0  0  0  0  0  0  0  0  0  0  0
    5.3660   -1.9550   -0.7770 C   0  0  0  0  0  0  0  0  0  0  0  0
    5.6860   -3.1800   -0.9810 O   0  0  0  0  0  0  0  0  0  0  0  0
    3.9640   -1.5870   -0.7650 C   0  0  0  0  0  0  0  0  0  0  0  0
    3.6450   -0.3100   -0.5500 C   0  0  0  0  0  0  0  0  0  0  0  0
    2.2220    0.0170   -0.5480 C   0  0  0  0  0  0  0  0  0  0  0  0
    1.8040    1.0760    0.1000 C   0  0  0  0  0  0  0  0  0  0  0  0
    0.4290    1.5100    0.1830 C   0  0  0  0  0  0  0  0  0  0  0  0
   -0.5080    0.6930   -0.5110 N   0  0  0  0  0  0  0  0  0  0  0  0
   -1.9200    1.0100   -0.4680 C   0  0  0  0  0  0  0  0  0  0  0  0
   -2.7840    0.4980    0.4610 C   0  0  0  0  0  0  0  0  0  0  0  0
   -2.3050   -0.4510    1.4690 C   0  0  1  0  0  0  0  0  0  0  0  0
   -3.3610   -0.7580    2.5200 C   0  0  0  0  0  0  0  0  0  0  0  0
   -4.1920   -1.9530    2.2070 C   0  0  0  0  0  0  0  0  0  0  0  0
   -4.3750   -2.2750    0.7650 C   0  0  0  0  0  0  0  0  0  0  0  0
   -3.1650   -2.0850   -0.0970 C   0  0  0  0  0  0  0  0  0  0  0  0
   -2.0020   -1.7910    0.8220 C   0  0  0  0  0  0  0  0  0  0  0  0
   -4.1010    0.9170    0.3740 C   0  0  0  0  0  0  0  0  0  0  0  0
   -4.5200    1.8010   -0.5940 C   0  0  0  0  0  0  0  0  0  0  0  0
   -3.6270    2.2990   -1.5170 C   0  0  0  0  0  0  0  0  0  0  0  0
   -4.1410    3.4340   -2.7690 Cl  0  0  0  0  0  0  0  0  0  0  0  0
   -2.3050    1.9080   -1.4670 C   0  0  0  0  0  0  0  0  0  0  0  0
   -1.3400    2.4410   -2.4570 C   0  0  0  0  0  0  0  0  0  0  0  0
    2.9060    1.8590    0.7760 C   0  0  0  0  0  0  0  0  0  0  0  0
    3.9990    1.9550   -0.0660 O   0  0  0  0  0  0  0  0  0  0  0  0
    4.6080    0.7610   -0.3230 C   0  0  0  0  0  0  0  0  0  0  0  0
  1  2  1  0
  2  3  1  0
  3  4  2  0
  3  5  1  0
  5  6  2  3
  6  7  1  0
  6 27  1  0
  7  8  2  0
  8  9  1  0
  8 25  1  0
  9 10  1  0
 10 11  1  0
 11 12  1  0
 11 23  2  0
 13 12  1  6
 12 19  2  0
 13 14  1  0
 13 18  1  0
 14 15  1  0
 15 16  1  0
 16 17  1  0
 17 18  1  0
 19 20  1  0
 20 21  2  0
 21 22  1  0
 21 23  1  0
 23 24  1  0
 25 26  1  0
 26 27  1  0
M  END
