
     RDKit          3D

 27 29  0  0  0  0  0  0  0  0999 V2000
   -5.1270    3.7030    1.8720 C   0  0  0  0  0  0  0  0  0  0  0  0
   -4.0710    2.6810    1.5230 C   0  0  0  0  0  0  0  0  0  0  0  0
   -3.2370    2.9760    0.5540 C   0  0  0  0  0  0  0  0  0  0  0  0
   -2.2370    1.6440    0.4580 C   0  0  0  0  0  0  0  0  0  0  0  0
   -1.4250    1.6830   -0.4170 C   0  0  0  0  0  0  0  0  0  0  0  0
   -0.9580    2.5130   -1.5030 C   0  0  0  0  0  0  0  0  0  0  0  0
    0.0450    2.2140   -2.3420 C   0  0  0  0  0  0  0  0  0  0  0  0
    1.0230    0.7820   -2.3440 Cl  0  0  0  0  0  0  0  0  0  0  0  0
    0.2440    3.2780   -3.3150 C   0  0  0  0  0  0  0  0  0  0  0  0
   -0.5910    4.2480   -3.1330 C   0  0  0  0  0  0  0  0  0  0  0  0
   -1.4110    3.8010   -1.9520 C   0  0  0  0  0  0  0  0  0  0  0  0
   -2.3120    4.5900   -1.5740 O   0  0  0  0  0  0  0  0  0  0  0  0
   -0.5660    0.3560   -0.2850 C   0  0  0  0  0  0  0  0  0  0  0  0
   -1.0370   -0.7550   -0.9150 C   0  0  0  0  0  0  0  0  0  0  0  0
   -0.3280   -1.9620   -0.7940 C   0  0  0  0  0  0  0  0  0  0  0  0
    0.8290   -1.9630   -0.0360 C   0  0  0  0  0  0  0  0  0  0  0  0
    1.5620   -3.1890    0.0790 N   0  0  0  0  0  0  0  0  0  0  0  0
    2.9000   -3.3340    0.4940 C   0  0  0  0  0  0  0  0  0  0  0  0
    3.5870   -2.3350    0.8040 O   0  0  0  0  0  0  0  0  0  0  0  0
    3.5430   -4.6510    0.5840 C   0  0  0  0  0  0  0  0  0  0  0  0
    3.1400   -5.8690    0.0850 C   0  0  0  0  0  0  0  0  0  0  0  0
    4.0820   -6.8150    0.4410 C   0  0  0  0  0  0  0  0  0  0  0  0
    5.0070   -6.1980    1.1200 O   0  0  0  0  0  0  0  0  0  0  0  0
    4.7500   -4.9320    1.2390 C   0  0  0  0  0  0  0  0  0  0  0  0
    1.2740   -0.8280    0.5860 C   0  0  0  0  0  0  0  0  0  0  0  0
    0.5550    0.3850    0.4610 C   0  0  0  0  0  0  0  0  0  0  0  0
    1.0020    1.6340    1.1380 C   0  0  0  0  0  0  0  0  0  0  0  0
  1  2  1  0
  2  3  2  3
  3  4  1  0
  4  5  2  3
  5  6  1  0
  5 13  1  0
  6  7  2  0
  6 11  1  0
  7  8  1  0
  7  9  1  0
  9 10  2  0
 10 11  1  0
 11 12  2  0
 13 14  2  0
 13 26  1  0
 14 15  1  0
 15 16  2  0
 16 17  1  0
 16 25  1  0
 17 18  1  0
 18 19  2  0
 18 20  1  0
 20 21  1  0
 20 24  2  0
 21 22  2  0
 22 23  1  0
 23 24  1  0
 25 26  2  0
 26 27  1  0
M  END
