
     RDKit          3D

 27 28  0  0  0  0  0  0  0  0999 V2000
   -4.1180    4.3440   -1.9070 C   0  0  0  0  0  0  0  0  0  0  0  0
   -3.3490    3.3250   -1.5380 C   0  0  0  0  0  0  0  0  0  0  0  0
   -3.7630    1.7500   -2.1190 Cl  0  0  0  0  0  0  0  0  0  0  0  0
   -2.2180    3.5420   -0.6750 C   0  0  0  0  0  0  0  0  0  0  0  0
   -1.3540    2.6600   -0.2160 C   0  0  0  0  0  0  0  0  0  0  0  0
   -0.2850    3.1910    0.6630 C   0  0  0  0  0  0  0  0  0  0  0  0
    1.0020    2.4610    0.6600 C   0  0  0  0  0  0  0  0  0  0  0  0
    0.8390    1.0710    0.0700 C   0  0  0  0  0  0  0  0  0  0  0  0
    1.8820    0.4330   -0.3800 C   0  0  0  0  0  0  0  0  0  0  0  0
    2.0550   -0.8320   -0.9860 C   0  0  0  0  0  0  0  0  0  0  0  0
    1.1130   -1.6040   -1.2570 O   0  0  0  0  0  0  0  0  0  0  0  0
    3.4140   -1.3720   -1.3670 C   0  0  0  0  0  0  0  0  0  0  0  0
    4.5150   -0.4550   -0.9130 C   0  0  2  0  0  0  0  0  0  0  0  0
    5.8310   -1.1090   -1.3650 C   0  0  0  0  0  0  0  0  0  0  0  0
    4.5730   -0.4420    0.5790 C   0  0  0  0  0  0  0  0  0  0  0  0
    5.5710    0.3820    1.3190 C   0  0  0  0  0  0  0  0  0  0  0  0
    3.7800   -1.1250    1.1990 O   0  0  0  0  0  0  0  0  0  0  0  0
   -0.4270    0.4510    0.0520 N   0  0  0  0  0  0  0  0  0  0  0  0
   -0.6620   -0.7740    0.6660 C   0  0  0  0  0  0  0  0  0  0  0  0
    0.3040   -1.2930    1.3580 O   0  0  0  0  0  0  0  0  0  0  0  0
   -1.8510   -1.6140    0.6720 C   0  0  2  0  0  0  0  0  0  0  0  0
   -2.4920   -1.9590   -0.6180 C   0  0  0  0  0  0  0  0  0  0  0  0
   -3.3130   -3.2350   -0.3470 C   0  0  0  0  0  0  0  0  0  0  0  0
   -4.2240   -3.1140    0.8190 C   0  0  0  0  0  0  0  0  0  0  0  0
   -3.6310   -2.4790    2.0480 C   0  0  0  0  0  0  0  0  0  0  0  0
   -2.9230   -1.1730    1.6390 C   0  0  0  0  0  0  0  0  0  0  0  0
   -1.5030    1.2250   -0.5930 C   0  0  0  0  0  0  0  0  0  0  0  0
  1  2  2  0
  2  3  1  0
  2  4  1  0
  4  5  2  3
  5  6  1  0
  5 27  1  0
  6  7  1  0
  7  8  1  0
  8  9  2  3
  8 18  1  0
  9 10  1  0
 10 11  2  0
 10 12  1  0
 12 13  1  0
 13 14  1  6
 13 15  1  0
 15 16  1  0
 15 17  2  0
 18 19  1  0
 18 27  1  0
 19 20  2  0
 21 19  1  6
 21 22  1  0
 21 26  1  0
 22 23  1  0
 23 24  1  0
 24 25  1  0
 25 26  1  0
M  END
