
     RDKit          3D

 27 29  0  0  0  0  0  0  0  0999 V2000
    5.1050   -0.2210    1.3400 C   0  0  0  0  0  0  0  0  0  0  0  0
    5.0210    0.3300   -0.0240 C   0  0  0  0  0  0  0  0  0  0  0  0
    5.5280    1.5350   -0.3160 O   0  0  0  0  0  0  0  0  0  0  0  0
    5.5050    2.0700   -1.5010 C   0  0  0  0  0  0  0  0  0  0  0  0
    4.9360    1.4070   -2.5880 C   0  0  0  0  0  0  0  0  0  0  0  0
    4.4060    0.1670   -2.3170 C   0  0  0  0  0  0  0  0  0  0  0  0
    3.8740   -0.5020   -3.2360 O   0  0  0  0  0  0  0  0  0  0  0  0
    4.4310   -0.3910   -1.0510 C   0  0  0  0  0  0  0  0  0  0  0  0
    3.7010   -1.6210   -0.8230 C   0  0  0  0  0  0  0  0  0  0  0  0
    2.2300   -1.6030   -0.8390 C   0  0  0  0  0  0  0  0  0  0  0  0
    1.5600   -0.6520    0.0300 C   0  0  0  0  0  0  0  0  0  0  0  0
    2.0720    0.2940    0.6440 O   0  0  0  0  0  0  0  0  0  0  0  0
    0.1130   -0.7670    0.2470 N   0  0  0  0  0  0  0  0  0  0  0  0
   -0.5870    0.1550    1.0770 C   0  0  2  0  0  0  0  0  0  0  0  0
   -0.9120   -0.4520    2.4390 C   0  0  0  0  0  0  0  0  0  0  0  0
   -1.6320   -1.7510    2.3490 C   0  0  0  0  0  0  0  0  0  0  0  0
   -2.7370   -1.7440    1.3150 C   0  0  0  0  0  0  0  0  0  0  0  0
   -2.8880   -0.4660    0.6070 C   0  0  0  0  0  0  0  0  0  0  0  0
   -4.1250   -0.1930    0.0330 C   0  0  0  0  0  0  0  0  0  0  0  0
   -5.2170   -1.1870    0.1780 C   0  0  0  0  0  0  0  0  0  0  0  0
   -4.3030    0.9910   -0.6490 C   0  0  0  0  0  0  0  0  0  0  0  0
   -5.6100    1.2840   -1.2690 C   0  0  0  0  0  0  0  0  0  0  0  0
   -3.2770    1.9340   -0.7840 C   0  0  0  0  0  0  0  0  0  0  0  0
   -3.5600    3.4290   -1.6720 Cl  0  0  0  0  0  0  0  0  0  0  0  0
   -2.0580    1.6660   -0.2180 C   0  0  0  0  0  0  0  0  0  0  0  0
   -0.9260    2.6320   -0.3320 C   0  0  0  0  0  0  0  0  0  0  0  0
   -1.8910    0.4820    0.4590 C   0  0  0  0  0  0  0  0  0  0  0  0
  1  2  1  0
  2  3  1  0
  2  8  2  0
  3  4  1  0
  4  5  2  0
  5  6  1  0
  6  7  2  0
  6  8  1  0
  8  9  1  0
  9 10  1  0
 10 11  1  0
 11 12  2  0
 11 13  1  0
 14 13  1  6
 14 15  1  0
 14 27  1  0
 15 16  1  0
 16 17  1  0
 17 18  1  0
 18 19  2  0
 18 27  1  0
 19 20  1  0
 19 21  1  0
 21 22  1  0
 21 23  2  0
 23 24  1  0
 23 25  1  0
 25 26  1  0
 25 27  2  0
M  END
