
     RDKit          3D

 27 29  0  0  0  0  0  0  0  0999 V2000
    2.9230   -2.6300   -0.7660 C   0  0  0  0  0  0  0  0  0  0  0  0
    1.5180   -2.2420   -0.6260 C   0  0  0  0  0  0  0  0  0  0  0  0
    0.6660   -3.1960   -0.7580 O   0  0  0  0  0  0  0  0  0  0  0  0
    0.9770   -0.9280   -0.3580 C   0  0  0  0  0  0  0  0  0  0  0  0
   -0.4100   -0.7640   -0.1830 C   0  0  0  0  0  0  0  0  0  0  0  0
   -1.0180    0.4110    0.1060 C   0  0  0  0  0  0  0  0  0  0  0  0
   -2.4110    0.6380    0.2710 N   0  0  0  0  0  0  0  0  0  0  0  0
   -3.4040   -0.2120   -0.1740 C   0  0  0  0  0  0  0  0  0  0  0  0
   -3.0090   -1.2850   -0.7830 O   0  0  0  0  0  0  0  0  0  0  0  0
   -4.8530   -0.0420   -0.0360 C   0  0  0  0  0  0  0  0  0  0  0  0
   -5.8080   -1.0550   -0.2460 C   0  0  0  0  0  0  0  0  0  0  0  0
   -7.0580   -0.5390   -0.0020 C   0  0  0  0  0  0  0  0  0  0  0  0
   -8.3770   -1.2670   -0.1030 C   0  0  0  0  0  0  0  0  0  0  0  0
   -6.8850    0.7070    0.3350 O   0  0  0  0  0  0  0  0  0  0  0  0
   -5.5820    1.0350    0.3230 C   0  0  0  0  0  0  0  0  0  0  0  0
   -5.0810    2.4070    0.6660 C   0  0  0  0  0  0  0  0  0  0  0  0
   -0.1670    1.5230    0.2330 C   0  0  0  0  0  0  0  0  0  0  0  0
    1.1750    1.3920    0.0690 C   0  0  0  0  0  0  0  0  0  0  0  0
    1.7960    0.1650   -0.2330 C   0  0  0  0  0  0  0  0  0  0  0  0
    3.2240    0.1310   -0.4460 C   0  0  0  0  0  0  0  0  0  0  0  0
    4.0430    0.6380    0.4500 C   0  0  0  0  0  0  0  0  0  0  0  0
    3.3720    1.3510    1.9000 Cl  0  0  0  0  0  0  0  0  0  0  0  0
    5.5050    0.6170    0.2470 C   0  0  0  0  0  0  0  0  0  0  0  0
    6.3800    1.1060    1.1020 C   0  0  0  0  0  0  0  0  0  0  0  0
    7.7260    0.8890    0.5300 C   0  0  0  0  0  0  0  0  0  0  0  0
    7.4480    0.2120   -0.7550 C   0  0  0  0  0  0  0  0  0  0  0  0
    6.1510    0.0500   -0.9270 C   0  0  0  0  0  0  0  0  0  0  0  0
  1  2  1  0
  2  3  2  0
  2  4  1  0
  4  5  2  0
  4 19  1  0
  5  6  1  0
  6  7  1  0
  6 17  2  0
  7  8  1  0
  8  9  2  0
  8 10  1  0
 10 11  1  0
 10 15  2  0
 11 12  2  0
 12 13  1  0
 12 14  1  0
 14 15  1  0
 15 16  1  0
 17 18  1  0
 18 19  2  0
 19 20  1  0
 20 21  2  3
 21 22  1  0
 21 23  1  0
 23 24  2  0
 23 27  1  0
 24 25  1  0
 25 26  1  0
 26 27  2  0
M  END
