
     RDKit          3D

 27 29  0  0  0  0  0  0  0  0999 V2000
    4.2500   -1.9410   -0.1480 C   0  0  0  0  0  0  0  0  0  0  0  0
    3.3860   -0.8290    0.4720 C   0  0  0  0  0  0  0  0  0  0  0  0
    2.4150   -1.2400    1.1980 C   0  0  0  0  0  0  0  0  0  0  0  0
    1.3810   -0.5390    1.9660 C   0  0  0  0  0  0  0  0  0  0  0  0
    0.0900   -0.8350    1.5300 O   0  0  0  0  0  0  0  0  0  0  0  0
   -0.4910   -2.0660    1.5490 C   0  0  0  0  0  0  0  0  0  0  0  0
    0.2840   -2.9910    2.0330 O   0  0  0  0  0  0  0  0  0  0  0  0
   -1.7830   -2.4930    1.1220 C   0  0  0  0  0  0  0  0  0  0  0  0
   -2.7830   -1.8120    0.6540 C   0  0  0  0  0  0  0  0  0  0  0  0
   -4.0880   -2.4730    0.2260 C   0  0  0  0  0  0  0  0  0  0  0  0
   -4.6350   -1.7710   -0.8680 N   0  0  0  0  0  0  0  0  0  0  0  0
   -3.8210   -0.8170   -1.5440 C   0  0  1  0  0  0  0  0  0  0  0  0
   -4.6480   -0.0990   -2.5790 C   0  0  0  0  0  0  0  0  0  0  0  0
   -3.2800    0.1830   -0.6020 C   0  0  0  0  0  0  0  0  0  0  0  0
   -3.2740    1.5260   -0.7370 C   0  0  0  0  0  0  0  0  0  0  0  0
   -2.7720    2.3540    0.2870 C   0  0  0  0  0  0  0  0  0  0  0  0
   -2.7690    4.0890    0.0990 Cl  0  0  0  0  0  0  0  0  0  0  0  0
   -2.2710    1.7970    1.4660 C   0  0  0  0  0  0  0  0  0  0  0  0
   -2.2810    0.4230    1.5950 C   0  0  0  0  0  0  0  0  0  0  0  0
   -2.7690   -0.3600    0.5880 C   0  0  0  0  0  0  0  0  0  0  0  0
    3.7060    0.5140    0.0660 C   0  0  0  0  0  0  0  0  0  0  0  0
    2.8990    1.5960    0.1400 C   0  0  0  0  0  0  0  0  0  0  0  0
    3.2840    2.9030   -0.2130 C   0  0  0  0  0  0  0  0  0  0  0  0
    4.5650    3.0850   -0.6650 C   0  0  0  0  0  0  0  0  0  0  0  0
    4.9870    4.3520   -1.0240 O   0  0  0  0  0  0  0  0  0  0  0  0
    5.4340    2.0300   -0.7670 C   0  0  0  0  0  0  0  0  0  0  0  0
    5.0150    0.7860   -0.4120 C   0  0  0  0  0  0  0  0  0  0  0  0
  1  2  1  0
  2  3  2  3
  2 21  1  0
  3  4  1  0
  4  5  1  0
  5  6  1  0
  6  7  2  0
  6  8  1  0
  8  9  2  3
  9 10  1  0
  9 20  1  0
 10 11  1  0
 11 12  1  0
 12 13  1  6
 12 14  1  0
 14 15  2  0
 14 20  1  0
 15 16  1  0
 16 17  1  0
 16 18  2  0
 18 19  1  0
 19 20  2  0
 21 22  2  0
 21 27  1  0
 22 23  1  0
 23 24  2  0
 24 25  1  0
 24 26  1  0
 26 27  2  0
M  END
