
     RDKit          3D

 27 29  0  0  0  0  0  0  0  0999 V2000
    5.8710    1.0210    0.5040 C   0  0  0  0  0  0  0  0  0  0  0  0
    4.9970    0.4360   -0.5800 C   0  0  0  0  0  0  0  0  0  0  0  0
    3.8490    1.2650   -0.9470 C   0  0  0  0  0  0  0  0  0  0  0  0
    2.5700    1.1010   -0.7790 C   0  0  0  0  0  0  0  0  0  0  0  0
    1.6880    2.2010   -1.3220 C   0  0  0  0  0  0  0  0  0  0  0  0
    0.7090    2.9510   -0.0480 Cl  0  0  0  0  0  0  0  0  0  0  0  0
    1.8910    0.0530   -0.0210 C   0  0  0  0  0  0  0  0  0  0  0  0
    2.5010   -0.7770    0.8890 C   0  0  0  0  0  0  0  0  0  0  0  0
    1.8630   -1.7930    1.5390 N   0  0  0  0  0  0  0  0  0  0  0  0
    0.5760   -2.0580    1.3360 C   0  0  0  0  0  0  0  0  0  0  0  0
   -0.0880   -1.2590    0.4380 C   0  0  0  0  0  0  0  0  0  0  0  0
    0.5410   -0.2140   -0.2410 C   0  0  0  0  0  0  0  0  0  0  0  0
   -0.0980    0.4840   -1.0470 O   0  0  0  0  0  0  0  0  0  0  0  0
   -1.5300   -1.5350    0.1940 C   0  0  2  0  0  0  0  0  0  0  0  0
   -2.2180   -0.3880   -0.4240 C   0  0  0  0  0  0  0  0  0  0  0  0
   -2.5680   -0.4600   -1.7550 C   0  0  0  0  0  0  0  0  0  0  0  0
   -3.2050    0.5670   -2.4260 C   0  0  0  0  0  0  0  0  0  0  0  0
   -3.5140    1.7200   -1.7610 C   0  0  0  0  0  0  0  0  0  0  0  0
   -4.1960    2.8350   -2.4550 C   0  0  0  0  0  0  0  0  0  0  0  0
   -3.1720    1.8110   -0.4290 C   0  0  0  0  0  0  0  0  0  0  0  0
   -2.5370    0.7800    0.2300 C   0  0  0  0  0  0  0  0  0  0  0  0
   -2.2050   -1.8850    1.4650 C   0  0  0  0  0  0  0  0  0  0  0  0
   -3.5470   -1.4490    1.8240 C   0  0  0  0  0  0  0  0  0  0  0  0
   -4.0580   -1.7850    2.9140 O   0  0  0  0  0  0  0  0  0  0  0  0
   -1.5150   -2.6610    2.3200 C   0  0  0  0  0  0  0  0  0  0  0  0
   -2.1510   -2.9900    3.5180 O   0  0  0  0  0  0  0  0  0  0  0  0
   -0.1480   -3.1610    2.0340 C   0  0  0  0  0  0  0  0  0  0  0  0
  1  2  1  0
  2  3  1  0
  3  4  2  3
  4  5  1  0
  4  7  1  0
  5  6  1  0
  7  8  2  0
  7 12  1  0
  8  9  1  0
  9 10  1  0
 10 11  2  0
 10 27  1  0
 11 12  1  0
 11 14  1  0
 12 13  2  0
 14 15  1  1
 14 22  1  0
 15 16  2  0
 15 21  1  0
 16 17  1  0
 17 18  2  0
 18 19  1  0
 18 20  1  0
 20 21  2  0
 22 23  1  0
 22 25  2  0
 23 24  2  0
 25 26  1  0
 25 27  1  0
M  END
