
     RDKit          3D

 12 13  0  0  0  0  0  0  0  0999 V2000
    1.9060    0.6790   -1.1120 C   0  0  0  0  0  0  0  0  0  0  0  0
    1.7190   -0.2320    0.0190 C   0  0  0  0  0  0  0  0  0  0  0  0
    0.5220   -0.5630    0.6010 C   0  0  0  0  0  0  0  0  0  0  0  0
   -0.8410   -0.1430    0.3000 C   0  0  0  0  0  0  0  0  0  0  0  0
   -1.9940   -0.5600    0.9790 C   0  0  0  0  0  0  0  0  0  0  0  0
   -3.0960    0.0390    0.4220 C   0  0  0  0  0  0  0  0  0  0  0  0
   -2.6410    0.8200   -0.5920 C   0  0  0  0  0  0  0  0  0  0  0  0
   -1.3010    0.6890   -0.6370 N   0  0  0  0  0  0  0  0  0  0  0  0
    0.8530   -1.4280    1.5970 N   0  0  0  0  0  0  0  0  0  0  0  0
    2.1380   -1.5900    1.5990 O   0  0  0  0  0  0  0  0  0  0  0  0
    2.7100   -0.9050    0.6830 N   0  0  0  0  0  0  0  0  0  0  0  0
    4.0580   -0.8490    0.4110 O   0  0  0  0  0  0  0  0  0  0  0  0
  1  2  1  0
  2  3  1  0
  2 11  2  0
  3  4  1  0
  3  9  2  0
  4  5  2  0
  4  8  1  0
  5  6  1  0
  6  7  2  0
  7  8  1  0
  9 10  1  0
 10 11  1  0
 11 12  1  0
M  CHG  2  11   1  12  -1
M  END
