
     RDKit          3D

 26 29  0  0  0  0  0  0  0  0999 V2000
   -1.7210   -4.1770   -0.1760 C   0  0  0  0  0  0  0  0  0  0  0  0
   -2.0510   -3.1370    0.8150 N   0  0  2  0  0  0  0  0  0  0  0  0
   -3.2230   -2.4890    0.3730 C   0  0  0  0  0  0  0  0  0  0  0  0
   -3.4090   -1.0830    0.8030 C   0  0  0  0  0  0  0  0  0  0  0  0
   -2.2040   -0.3150    0.3620 C   0  0  0  0  0  0  0  0  0  0  0  0
   -1.9330    0.8980   -0.1800 C   0  0  0  0  0  0  0  0  0  0  0  0
   -0.5620    0.9730   -0.3420 C   0  0  0  0  0  0  0  0  0  0  0  0
    0.0110   -0.1720    0.0900 N   0  0  0  0  0  0  0  0  0  0  0  0
    1.4040   -0.4640    0.0820 C   0  0  0  0  0  0  0  0  0  0  0  0
    2.3170    0.3410    0.7720 C   0  0  0  0  0  0  0  0  0  0  0  0
    3.6560    0.0860    0.7820 C   0  0  0  0  0  0  0  0  0  0  0  0
    4.1840   -0.9920    0.1030 C   0  0  0  0  0  0  0  0  0  0  0  0
    5.6150   -1.2650    0.1130 C   0  0  0  0  0  0  0  0  0  0  0  0
    6.2160   -2.3550   -0.5620 N   0  0  0  0  0  0  0  0  0  0  0  0
    6.3570   -0.4890    0.7580 O   0  0  0  0  0  0  0  0  0  0  0  0
    3.2890   -1.8010   -0.5870 C   0  0  0  0  0  0  0  0  0  0  0  0
    1.9370   -1.5320   -0.5890 C   0  0  0  0  0  0  0  0  0  0  0  0
   -0.9940   -0.9570    0.5200 C   0  0  0  0  0  0  0  0  0  0  0  0
   -0.9220   -2.3170    1.0920 C   0  0  0  0  0  0  0  0  0  0  0  0
   -0.0380    2.2430   -0.9330 C   0  0  0  0  0  0  0  0  0  0  0  0
   -0.8980    3.4250   -0.5390 C   0  0  2  0  0  0  0  0  0  0  0  0
   -0.2440    4.6610   -1.1040 C   0  0  0  0  0  0  0  0  0  0  0  0
   -0.9650    3.5770    0.9630 C   0  0  0  0  0  0  0  0  0  0  0  0
   -2.2950    3.2570   -1.0650 C   0  0  0  0  0  0  0  0  0  0  0  0
   -2.8330    1.9830   -0.5560 C   0  0  0  0  0  0  0  0  0  0  0  0
   -4.0810    1.8310   -0.4440 O   0  0  0  0  0  0  0  0  0  0  0  0
  2  1  1  6
  2  3  1  0
  2 19  1  0
  3  4  1  0
  4  5  1  0
  5  6  1  0
  5 18  2  0
  6  7  2  0
  6 25  1  0
  7  8  1  0
  7 20  1  0
  8  9  1  0
  8 18  1  0
  9 10  2  0
  9 17  1  0
 10 11  1  0
 11 12  2  0
 12 13  1  0
 12 16  1  0
 13 14  1  0
 13 15  2  0
 16 17  2  0
 18 19  1  0
 20 21  1  0
 21 22  1  6
 21 23  1  0
 21 24  1  0
 24 25  1  0
 25 26  2  0
M  CHG  1   2   1
M  END
