
     RDKit          3D

 12 12  0  0  0  0  0  0  0  0999 V2000
   -1.4440   -2.0770    0.3810 C   0  0  0  0  0  0  0  0  0  0  0  0
   -1.4420   -0.8950   -0.0900 C   0  0  0  0  0  0  0  0  0  0  0  0
   -0.4230    0.0880   -0.1900 C   0  0  0  0  0  0  0  0  0  0  0  0
   -0.7600    1.2970   -0.7590 C   0  0  0  0  0  0  0  0  0  0  0  0
   -2.0810    1.5090   -1.2130 N   0  0  0  0  0  0  0  0  0  0  0  0
   -2.4260    1.0400   -2.3060 O   0  0  0  0  0  0  0  0  0  0  0  0
   -2.9720    2.2180   -0.4660 O   0  0  0  0  0  0  0  0  0  0  0  0
    0.9590   -0.0480    0.2660 C   0  0  0  0  0  0  0  0  0  0  0  0
    1.6280   -1.1200    0.7850 C   0  0  0  0  0  0  0  0  0  0  0  0
    2.9020   -0.7310    1.0800 N   0  0  0  0  0  0  0  0  0  0  0  0
    3.0030    0.5460    0.7480 C   0  0  0  0  0  0  0  0  0  0  0  0
    1.8380    0.9830    0.2520 N   0  0  0  0  0  0  0  0  0  0  0  0
  1  2  2  0
  2  3  1  0
  3  4  2  3
  3  8  1  0
  4  5  1  0
  5  6  2  0
  5  7  1  0
  8  9  2  0
  8 12  1  0
  9 10  1  0
 10 11  2  0
 11 12  1  0
M  CHG  2   5   1   7  -1
M  END
