
     RDKit          3D

 12 13  0  0  0  0  0  0  0  0999 V2000
    4.2600   -0.4060   -0.6480 O   0  0  0  0  0  0  0  0  0  0  0  0
    3.4710    0.0340    0.1980 N   0  0  0  0  0  0  0  0  0  0  0  0
    3.9880    0.5930    1.3320 O   0  0  0  0  0  0  0  0  0  0  0  0
    2.0720   -0.0540   -0.0330 C   0  0  0  0  0  0  0  0  0  0  0  0
    1.5840   -0.6100   -1.1600 N   0  0  0  0  0  0  0  0  0  0  0  0
    0.2770   -0.7210   -1.4340 C   0  0  0  0  0  0  0  0  0  0  0  0
   -0.6650   -0.2510   -0.5340 C   0  0  0  0  0  0  0  0  0  0  0  0
   -0.1730    0.3200    0.6230 C   0  0  0  0  0  0  0  0  0  0  0  0
    1.1550    0.4020    0.8390 N   0  0  0  0  0  0  0  0  0  0  0  0
   -1.3480    0.7270    1.3880 C   0  0  0  0  0  0  0  0  0  0  0  0
   -2.4650    0.4330    0.7580 C   0  0  0  0  0  0  0  0  0  0  0  0
   -2.1510   -0.2200   -0.5310 C   0  0  0  0  0  0  0  0  0  0  0  0
  1  2  2  0
  2  3  1  0
  2  4  1  0
  4  5  2  0
  4  9  1  0
  5  6  1  0
  6  7  2  0
  7  8  1  0
  7 12  1  0
  8  9  2  0
  8 10  1  0
 10 11  2  0
 11 12  1  0
M  CHG  2   2   1   3  -1
M  END
