
     RDKit          3D

 12 13  0  0  0  0  0  0  0  0999 V2000
    1.3940   -2.1160    1.1480 O   0  0  0  0  0  0  0  0  0  0  0  0
    1.8770   -0.9480    0.5920 N   0  0  0  0  0  0  0  0  0  0  0  0
    3.1440   -0.6050    0.4990 O   0  0  0  0  0  0  0  0  0  0  0  0
    3.2470    0.5640   -0.0800 C   0  0  0  0  0  0  0  0  0  0  0  0
    1.9840    1.0100   -0.3820 C   0  0  0  0  0  0  0  0  0  0  0  0
    1.1170    0.0070    0.0660 C   0  0  0  0  0  0  0  0  0  0  0  0
   -0.3380    0.1240   -0.0830 C   0  0  0  0  0  0  0  0  0  0  0  0
   -1.2320   -0.8340    0.3410 C   0  0  0  0  0  0  0  0  0  0  0  0
   -2.6020   -0.6890    0.1830 C   0  0  0  0  0  0  0  0  0  0  0  0
   -3.0900    0.4490   -0.4180 C   0  0  0  0  0  0  0  0  0  0  0  0
   -2.1900    1.3630   -0.8200 N   0  0  0  0  0  0  0  0  0  0  0  0
   -0.8880    1.2130   -0.6630 N   0  0  0  0  0  0  0  0  0  0  0  0
  1  2  1  0
  2  3  1  0
  2  6  2  0
  3  4  1  0
  4  5  2  0
  5  6  1  0
  6  7  1  0
  7  8  2  0
  7 12  1  0
  8  9  1  0
  9 10  2  0
 10 11  1  0
 11 12  2  0
M  CHG  2   1  -1   2   1
M  END
