
     RDKit          3D

 12 13  0  0  0  0  0  0  0  0999 V2000
    2.6210   -0.6100   -0.2630 C   0  0  0  0  0  0  0  0  0  0  0  0
    1.4220    0.2610   -0.1070 C   0  0  0  0  0  0  0  0  0  0  0  0
    1.3790    1.6030   -0.0180 N   0  0  0  0  0  0  0  0  0  0  0  0
    0.0890    2.0110    0.1160 C   0  0  0  0  0  0  0  0  0  0  0  0
   -0.7450    0.9080    0.1150 C   0  0  0  0  0  0  0  0  0  0  0  0
   -2.0830    0.7380    0.2160 N   0  0  0  0  0  0  0  0  0  0  0  0
   -2.6360   -0.4900    0.1840 C   0  0  0  0  0  0  0  0  0  0  0  0
   -3.8960   -0.6450    0.2790 O   0  0  0  0  0  0  0  0  0  0  0  0
   -1.8120   -1.5470    0.0480 N   0  0  0  0  0  0  0  0  0  0  0  0
   -0.4730   -1.4270   -0.0560 C   0  0  0  0  0  0  0  0  0  0  0  0
    0.2920   -2.4090   -0.1830 O   0  0  0  0  0  0  0  0  0  0  0  0
    0.1040   -0.1730   -0.0240 C   0  0  0  0  0  0  0  0  0  0  0  0
  1  2  1  0
  2  3  1  0
  2 12  2  0
  3  4  1  0
  4  5  2  0
  5  6  1  0
  5 12  1  0
  6  7  1  0
  7  8  2  0
  7  9  1  0
  9 10  1  0
 10 11  2  0
 10 12  1  0
M  END
