
     RDKit          3D

 12 13  0  0  0  0  0  0  0  0999 V2000
    4.5690   -0.6530    0.1240 O   0  0  0  0  0  0  0  0  0  0  0  0
    3.6210    0.2620    0.5300 C   0  0  0  0  0  0  0  0  0  0  0  0
    2.2630   -0.1950    0.1290 C   0  0  0  0  0  0  0  0  0  0  0  0
    1.9040   -1.3150   -0.5310 N   0  0  0  0  0  0  0  0  0  0  0  0
    0.6080   -1.3360   -0.6830 O   0  0  0  0  0  0  0  0  0  0  0  0
    0.0750   -0.2690   -0.1490 C   0  0  0  0  0  0  0  0  0  0  0  0
   -1.3540    0.0390   -0.1320 C   0  0  0  0  0  0  0  0  0  0  0  0
   -2.2930   -0.7210   -0.6550 C   0  0  0  0  0  0  0  0  0  0  0  0
   -3.5840   -0.0510   -0.4230 C   0  0  0  0  0  0  0  0  0  0  0  0
   -3.2340    1.1840    0.3000 C   0  0  0  0  0  0  0  0  0  0  0  0
   -1.9660    1.1970    0.4450 N   0  0  0  0  0  0  0  0  0  0  0  0
    1.0860    0.4450    0.3570 N   0  0  0  0  0  0  0  0  0  0  0  0
  1  2  1  0
  2  3  1  0
  3  4  2  0
  3 12  1  0
  4  5  1  0
  5  6  1  0
  6  7  1  0
  6 12  2  0
  7  8  2  0
  7 11  1  0
  8  9  1  0
  9 10  1  0
 10 11  2  0
M  END
