
     RDKit          3D

 32 34  0  0  0  0  0  0  0  0999 V2000
    4.8550    1.0420    3.2540 C   0  0  0  0  0  0  0  0  0  0  0  0
    4.6750    1.4320    1.8020 C   0  0  0  0  0  0  0  0  0  0  0  0
    3.8200    0.4700    1.0720 C   0  0  0  0  0  0  0  0  0  0  0  0
    2.6890    0.9100    0.5130 C   0  0  0  0  0  0  0  0  0  0  0  0
    1.7980    0.0280   -0.2200 C   0  0  0  0  0  0  0  0  0  0  0  0
    2.3410   -1.4030   -0.2480 C   0  0  0  0  0  0  0  0  0  0  0  0
    0.6730    0.3140   -0.8360 C   0  0  0  0  0  0  0  0  0  0  0  0
   -0.0020   -0.7800   -1.4660 N   0  0  0  0  0  0  0  0  0  0  0  0
   -1.3020   -1.3540   -1.2860 C   0  0  0  0  0  0  0  0  0  0  0  0
   -1.7640   -2.0020   -0.1860 C   0  0  0  0  0  0  0  0  0  0  0  0
   -3.1620   -2.4200   -0.4660 C   0  0  0  0  0  0  0  0  0  0  0  0
   -3.9670   -3.0610    0.3040 O   0  0  0  0  0  0  0  0  0  0  0  0
   -3.4680   -1.9650   -1.8110 C   0  0  0  0  0  0  0  0  0  0  0  0
   -4.6510   -2.1190   -2.5510 C   0  0  0  0  0  0  0  0  0  0  0  0
   -4.6940   -1.6150   -3.8130 C   0  0  0  0  0  0  0  0  0  0  0  0
   -3.6100   -0.9670   -4.3610 C   0  0  0  0  0  0  0  0  0  0  0  0
   -2.4890   -0.8450   -3.5990 C   0  0  0  0  0  0  0  0  0  0  0  0
   -2.3670   -1.3350   -2.2970 C   0  0  0  0  0  0  0  0  0  0  0  0
   -1.0570   -2.2840    1.0710 C   0  0  0  0  0  0  0  0  0  0  0  0
   -0.9870   -3.8500    1.2610 C   0  0  0  0  0  0  0  0  0  0  0  0
   -0.5320   -1.5980    2.0450 C   0  0  0  0  0  0  0  0  0  0  0  0
   -0.2960   -0.2730    2.5360 C   0  0  0  0  0  0  0  0  0  0  0  0
    0.7940    0.1290    3.0270 O   0  0  0  0  0  0  0  0  0  0  0  0
   -1.3090    0.8790    2.5540 C   0  0  0  0  0  0  0  0  0  0  0  0
   -1.7760    0.9060    1.1700 C   0  0  0  0  0  0  0  0  0  0  0  0
   -1.9160    1.9990    0.2840 C   0  0  0  0  0  0  0  0  0  0  0  0
   -3.4150    2.9430    0.4610 Cl  0  0  0  0  0  0  0  0  0  0  0  0
   -0.9930    2.2820   -0.6070 C   0  0  0  0  0  0  0  0  0  0  0  0
   -1.4280    3.7150   -1.6070 Cl  0  0  0  0  0  0  0  0  0  0  0  0
    0.2710    1.6930   -0.8850 N   0  0  0  0  0  0  0  0  0  0  0  0
    1.2210    2.7400   -1.4160 C   0  0  0  0  0  0  0  0  0  0  0  0
    1.4720    3.8550   -0.4830 C   0  0  0  0  0  0  0  0  0  0  0  0
  1  2  1  0
  2  3  1  0
  3  4  2  3
  4  5  1  0
  5  6  1  0
  5  7  2  3
  7  8  1  0
  7 30  1  0
  8  9  1  0
  9 10  2  0
  9 18  1  0
 10 11  1  0
 10 19  1  0
 11 12  2  0
 11 13  1  0
 13 14  2  0
 13 18  1  0
 14 15  1  0
 15 16  2  0
 16 17  1  0
 17 18  2  0
 19 20  1  0
 19 21  2  0
 21 22  1  0
 22 23  2  0
 22 24  1  0
 24 25  1  0
 25 26  1  0
 26 27  1  0
 26 28  2  0
 28 29  1  0
 28 30  1  0
 30 31  1  0
 31 32  1  0
M  END
