
     RDKit          3D

 45 50  0  0  0  0  0  0  0  0999 V2000
    7.2800    0.5690    2.6390 C   0  0  0  0  0  0  0  0  0  0  0  0
    7.5790    0.7480    1.3030 O   0  0  0  0  0  0  0  0  0  0  0  0
    7.0530   -0.2160    0.4680 C   0  0  2  0  0  0  0  0  0  0  0  0
    8.1610   -1.0230   -0.1870 C   0  0  0  0  0  0  0  0  0  0  0  0
    8.8860   -1.6070    0.8470 O   0  0  0  0  0  0  0  0  0  0  0  0
    6.1760    0.4540   -0.5340 C   0  0  1  0  0  0  0  0  0  0  0  0
    5.4330   -0.4390   -1.4690 C   0  0  0  0  0  0  0  0  0  0  0  0
    4.2220    0.4090   -1.7660 C   0  0  0  0  0  0  0  0  0  0  0  0
    3.4290    0.2920   -2.8340 F   0  0  0  0  0  0  0  0  0  0  0  0
    4.0860    1.2910   -0.7740 C   0  0  0  0  0  0  0  0  0  0  0  0
    3.0400    2.3320   -0.6270 C   0  0  0  0  0  0  0  0  0  0  0  0
    2.2920    2.1130    0.5850 O   0  0  0  0  0  0  0  0  0  0  0  0
    1.5940    0.8860    0.6600 C   0  0  0  0  0  0  0  0  0  0  0  0
    1.6990    0.1400   -0.3090 O   0  0  0  0  0  0  0  0  0  0  0  0
    0.8090    0.5670    1.8330 C   0  0  1  0  0  0  0  0  0  0  0  0
   -0.1230    1.7270    2.2080 C   0  0  0  0  0  0  0  0  0  0  0  0
   -0.0890   -0.9770    1.7640 S   0  0  0  0  0  0  0  0  0  0  0  0
   -1.3640   -1.0080    0.5040 C   0  0  0  0  0  0  0  0  0  0  0  0
   -2.5550   -0.3900    0.8100 N   0  0  0  0  0  0  0  0  0  0  0  0
   -3.5750   -0.3220   -0.0490 C   0  0  0  0  0  0  0  0  0  0  0  0
   -4.8400    0.3310    0.2660 C   0  0  0  0  0  0  0  0  0  0  0  0
   -5.4770    0.0630    1.4800 C   0  0  0  0  0  0  0  0  0  0  0  0
   -6.6780    0.6780    1.8210 C   0  0  0  0  0  0  0  0  0  0  0  0
   -7.1070    1.5170    0.8750 C   0  0  0  0  0  0  0  0  0  0  0  0
   -6.6290    1.8770   -0.3180 C   0  0  0  0  0  0  0  0  0  0  0  0
   -5.4210    1.2390   -0.6300 C   0  0  0  0  0  0  0  0  0  0  0  0
   -7.5760    2.7730   -0.8820 N   0  0  0  0  0  0  0  0  0  0  0  0
   -8.8550    2.4420   -0.1150 C   0  0  0  0  0  0  0  0  0  0  0  0
   -8.3700    2.1880    1.2710 C   0  0  1  0  0  0  0  0  0  0  0  0
   -8.8760    1.2040    2.0710 O   0  0  0  0  0  0  0  0  0  0  0  0
   -7.7340    0.7180    2.8580 C   0  0  0  0  0  0  0  0  0  0  0  0
   -3.3660   -0.9130   -1.2730 C   0  0  0  0  0  0  0  0  0  0  0  0
   -4.4120   -0.8460   -2.1570 F   0  0  0  0  0  0  0  0  0  0  0  0
   -2.1980   -1.5400   -1.6130 C   0  0  0  0  0  0  0  0  0  0  0  0
   -2.0190   -2.1430   -2.8920 N   0  0  0  0  0  0  0  0  0  0  0  0
   -1.1210   -1.6100   -0.6960 C   0  0  0  0  0  0  0  0  0  0  0  0
    0.0380   -2.3980   -1.0680 C   0  0  0  0  0  0  0  0  0  0  0  0
    0.1810   -2.6730   -2.4020 N   0  0  0  0  0  0  0  0  0  0  0  0
    1.2170   -3.3730   -2.8870 C   0  0  0  0  0  0  0  0  0  0  0  0
    1.3340   -3.6190   -4.1280 O   0  0  0  0  0  0  0  0  0  0  0  0
    2.1640   -3.8330   -2.0600 N   0  0  0  0  0  0  0  0  0  0  0  0
    2.0700   -3.5900   -0.7430 C   0  0  0  0  0  0  0  0  0  0  0  0
    2.9500   -4.0170    0.0330 O   0  0  0  0  0  0  0  0  0  0  0  0
    0.9970   -2.8740   -0.2940 N   0  0  0  0  0  0  0  0  0  0  0  0
    5.1140    1.1080    0.1660 O   0  0  0  0  0  0  0  0  0  0  0  0
  1  2  1  0
  2  3  1  0
  3  4  1  6
  3  6  1  0
  4  5  1  0
  6  7  1  6
  6 45  1  0
  7  8  1  0
  8  9  1  0
  8 10  2  0
 10 11  1  0
 10 45  1  0
 11 12  1  0
 12 13  1  0
 13 14  2  0
 13 15  1  0
 15 16  1  6
 15 17  1  0
 17 18  1  0
 18 19  2  0
 18 36  1  0
 19 20  1  0
 20 21  1  0
 20 32  2  0
 21 22  2  0
 21 26  1  0
 22 23  1  0
 23 24  2  0
 23 31  1  0
 24 25  1  0
 24 29  1  0
 25 26  2  0
 25 27  1  0
 27 28  1  0
 29 28  1  6
 29 30  1  0
 30 31  1  0
 32 33  1  0
 32 34  1  0
 34 35  1  0
 34 36  2  0
 36 37  1  0
 37 38  2  0
 37 44  1  0
 38 39  1  0
 39 40  2  0
 39 41  1  0
 41 42  1  0
 42 43  2  0
 42 44  1  0
M  CHG  1  27   1
M  END
