
     RDKit          3D

 45 50  0  0  0  0  0  0  0  0999 V2000
   -4.8680   -0.9820   -2.4320 O   0  0  0  0  0  0  0  0  0  0  0  0
   -3.9740   -1.1150   -1.5100 C   0  0  0  0  0  0  0  0  0  0  0  0
   -4.5010   -0.8160   -0.1710 C   0  0  0  0  0  0  0  0  0  0  0  0
   -5.3440    0.3490   -0.0920 N   0  0  0  0  0  0  0  0  0  0  0  0
   -5.8210    0.6390    1.2750 C   0  0  0  0  0  0  0  0  0  0  0  0
   -7.0860   -0.0740    1.5100 C   0  0  0  0  0  0  0  0  0  0  0  0
   -8.3070    0.5560    1.4990 C   0  0  0  0  0  0  0  0  0  0  0  0
   -9.4330   -0.1970    1.7260 C   0  0  0  0  0  0  0  0  0  0  0  0
   -9.3200   -1.5340    1.9530 C   0  0  0  0  0  0  0  0  0  0  0  0
  -10.4050   -2.3260    2.1830 F   0  0  0  0  0  0  0  0  0  0  0  0
   -8.0860   -2.1290    1.9570 C   0  0  0  0  0  0  0  0  0  0  0  0
   -6.9720   -1.4150    1.7380 N   0  0  0  0  0  0  0  0  0  0  0  0
   -5.7490    1.1960   -1.1420 C   0  0  0  0  0  0  0  0  0  0  0  0
   -6.9310    1.6850   -0.9810 O   0  0  0  0  0  0  0  0  0  0  0  0
   -5.0820    1.5790   -2.3030 N   0  0  0  0  0  0  0  0  0  0  0  0
   -3.7190    2.0450   -2.4510 C   0  0  0  0  0  0  0  0  0  0  0  0
   -3.1510    2.6710   -1.2490 C   0  0  1  0  0  0  0  0  0  0  0  0
   -4.2150    3.1940   -0.4910 O   0  0  0  0  0  0  0  0  0  0  0  0
   -2.2840    1.8330   -0.3710 C   0  0  0  0  0  0  0  0  0  0  0  0
   -1.3480    1.0350   -0.9390 O   0  0  0  0  0  0  0  0  0  0  0  0
   -0.7910   -0.1960   -0.8830 C   0  0  0  0  0  0  0  0  0  0  0  0
    0.4960   -0.3290   -0.3740 C   0  0  0  0  0  0  0  0  0  0  0  0
    1.2100   -1.5110   -0.2510 C   0  0  0  0  0  0  0  0  0  0  0  0
    2.4500   -1.6760    0.2290 O   0  0  0  0  0  0  0  0  0  0  0  0
    3.4910   -1.0060    0.7150 C   0  0  0  0  0  0  0  0  0  0  0  0
    4.2610   -0.0430   -0.1520 C   0  0  2  0  0  0  0  0  0  0  0  0
    3.4880    0.9890   -0.6170 O   0  0  0  0  0  0  0  0  0  0  0  0
    4.7920   -0.7830   -1.3690 C   0  0  0  0  0  0  0  0  0  0  0  0
    5.8010   -1.8430   -1.0220 C   0  0  0  0  0  0  0  0  0  0  0  0
    6.8650   -1.1800   -0.2550 N   0  0  0  0  0  0  0  0  0  0  0  0
    8.0890   -1.5690    0.3370 C   0  0  0  0  0  0  0  0  0  0  0  0
    8.5430   -2.7360    0.2910 O   0  0  0  0  0  0  0  0  0  0  0  0
    8.6480   -0.3850    0.9600 C   0  0  0  0  0  0  0  0  0  0  0  0
    7.8820    0.6630    0.7980 C   0  0  0  0  0  0  0  0  0  0  0  0
    8.3330    1.8600    1.3630 N   0  0  0  0  0  0  0  0  0  0  0  0
    9.2690    1.7150    2.4610 C   0  0  0  0  0  0  0  0  0  0  0  0
   10.0480    0.1550    1.9010 S   0  0  0  0  0  0  0  0  0  0  0  0
   11.1610    0.4710    0.8980 O   0  0  0  0  0  0  0  0  0  0  0  0
    6.6960    0.2160    0.0020 C   0  0  2  0  0  0  0  0  0  0  0  0
    5.4000    0.5440    0.6650 C   0  0  0  0  0  0  0  0  0  0  0  0
    0.5710   -2.6750   -0.6790 C   0  0  0  0  0  0  0  0  0  0  0  0
   -0.6850   -2.5830   -1.1820 C   0  0  0  0  0  0  0  0  0  0  0  0
   -1.2240   -3.7910   -1.6000 F   0  0  0  0  0  0  0  0  0  0  0  0
   -1.4080   -1.3780   -1.3060 C   0  0  0  0  0  0  0  0  0  0  0  0
   -2.6810   -1.5110   -1.8690 N   0  0  0  0  0  0  0  0  0  0  0  0
  1  2  2  0
  2  3  1  0
  2 45  1  0
  3  4  1  0
  4  5  1  0
  4 13  1  0
  5  6  1  0
  6  7  2  0
  6 12  1  0
  7  8  1  0
  8  9  2  0
  9 10  1  0
  9 11  1  0
 11 12  2  0
 13 14  2  0
 13 15  1  0
 15 16  1  0
 16 17  1  0
 17 18  1  1
 17 19  1  0
 19 20  1  0
 20 21  1  0
 21 22  2  0
 21 44  1  0
 22 23  1  0
 23 24  1  0
 23 41  2  0
 24 25  1  0
 25 26  1  0
 26 27  1  6
 26 28  1  0
 26 40  1  0
 28 29  1  0
 29 30  1  0
 30 31  1  0
 30 39  1  0
 31 32  2  0
 31 33  1  0
 33 34  2  0
 33 37  1  0
 34 35  1  0
 34 39  1  0
 35 36  1  0
 37 36  1  6
 37 38  2  0
 39 40  1  1
 41 42  1  0
 42 43  1  0
 42 44  2  0
 44 45  1  0
M  END
