
     RDKit          3D

 32 36  0  0  0  0  0  0  0  0999 V2000
    3.1710    1.3030    2.2530 C   0  0  0  0  0  0  0  0  0  0  0  0
    3.6570   -0.0820    1.9510 C   0  0  2  0  0  0  0  0  0  0  0  0
    4.8810   -0.4810    2.7300 C   0  0  0  0  0  0  0  0  0  0  0  0
    3.8900   -0.2920    0.5230 N   0  0  0  0  0  0  0  0  0  0  0  0
    2.8210   -0.2230   -0.4010 C   0  0  0  0  0  0  0  0  0  0  0  0
    1.5140   -0.0280    0.0840 C   0  0  0  0  0  0  0  0  0  0  0  0
    0.4390    0.0340   -0.7390 C   0  0  0  0  0  0  0  0  0  0  0  0
   -0.9030    0.2330   -0.2660 N   0  0  0  0  0  0  0  0  0  0  0  0
   -1.3730    1.4570    0.0340 C   0  0  0  0  0  0  0  0  0  0  0  0
   -2.6730    1.2600    0.4480 C   0  0  0  0  0  0  0  0  0  0  0  0
   -2.9860   -0.0990    0.3940 C   0  0  0  0  0  0  0  0  0  0  0  0
   -1.8370   -0.7090   -0.0620 C   0  0  0  0  0  0  0  0  0  0  0  0
   -1.7830   -2.1840   -0.2520 C   0  0  0  0  0  0  0  0  0  0  0  0
   -2.8820   -2.8720    0.5080 C   0  0  1  0  0  0  0  0  0  0  0  0
   -2.9390   -4.3080   -0.0110 C   0  0  0  0  0  0  0  0  0  0  0  0
   -2.6630   -2.8490    2.0040 C   0  0  0  0  0  0  0  0  0  0  0  0
   -4.2420   -2.2690    0.2420 C   0  0  0  0  0  0  0  0  0  0  0  0
   -4.1970   -0.8590    0.7120 C   0  0  0  0  0  0  0  0  0  0  0  0
   -5.1190   -0.3100    1.3470 O   0  0  0  0  0  0  0  0  0  0  0  0
   -3.5230    2.4130    0.8670 C   0  0  0  0  0  0  0  0  0  0  0  0
   -2.9880    3.6380    0.1930 C   0  0  0  0  0  0  0  0  0  0  0  0
   -1.5960    3.7990    0.5660 N   0  0  1  0  0  0  0  0  0  0  0  0
   -1.4360    3.9010    1.9970 C   0  0  0  0  0  0  0  0  0  0  0  0
   -0.7400    2.8220   -0.0190 C   0  0  0  0  0  0  0  0  0  0  0  0
    0.6110   -0.0950   -2.0920 C   0  0  0  0  0  0  0  0  0  0  0  0
    1.8760   -0.2890   -2.6200 C   0  0  0  0  0  0  0  0  0  0  0  0
    2.9590   -0.3490   -1.7620 C   0  0  0  0  0  0  0  0  0  0  0  0
    4.2710   -0.5470   -2.3510 C   0  0  0  0  0  0  0  0  0  0  0  0
    5.3200   -0.6160   -1.6700 O   0  0  0  0  0  0  0  0  0  0  0  0
    4.3390   -0.6650   -3.7830 N   0  0  0  0  0  0  0  0  0  0  0  0
    3.1890   -1.1040   -4.5490 C   0  0  0  0  0  0  0  0  0  0  0  0
    1.9370   -0.4150   -4.0950 C   0  0  0  0  0  0  0  0  0  0  0  0
  2  1  1  6
  2  3  1  0
  2  4  1  0
  4  5  1  0
  5  6  2  0
  5 27  1  0
  6  7  1  0
  7  8  1  0
  7 25  2  0
  8  9  1  0
  8 12  1  0
  9 10  2  0
  9 24  1  0
 10 11  1  0
 10 20  1  0
 11 12  2  0
 11 18  1  0
 12 13  1  0
 13 14  1  0
 14 15  1  6
 14 16  1  0
 14 17  1  0
 17 18  1  0
 18 19  2  0
 20 21  1  0
 21 22  1  0
 22 23  1  1
 22 24  1  0
 25 26  1  0
 26 27  2  0
 26 32  1  0
 27 28  1  0
 28 29  2  0
 28 30  1  0
 30 31  1  0
 31 32  1  0
M  CHG  1  22   1
M  END
