
     RDKit          3D

 32 35  0  0  0  0  0  0  0  0999 V2000
    0.7420   -2.6730    2.7620 C   0  0  0  0  0  0  0  0  0  0  0  0
    1.7890   -1.6540    2.5040 C   0  0  0  0  0  0  0  0  0  0  0  0
    2.9650   -1.6200    3.2070 C   0  0  0  0  0  0  0  0  0  0  0  0
    3.8910   -0.6460    2.9270 C   0  0  0  0  0  0  0  0  0  0  0  0
    5.1250   -0.6280    3.7060 C   0  0  0  0  0  0  0  0  0  0  0  0
    5.5000   -1.4770    4.6740 N   0  0  0  0  0  0  0  0  0  0  0  0
    6.7050   -1.0620    5.1640 C   0  0  0  0  0  0  0  0  0  0  0  0
    7.0400    0.0380    4.4790 N   0  0  0  0  0  0  0  0  0  0  0  0
    6.0780    0.3040    3.5890 N   0  0  0  0  0  0  0  0  0  0  0  0
    3.6230    0.2510    1.9700 N   0  0  0  0  0  0  0  0  0  0  0  0
    2.4780    0.2280    1.2730 C   0  0  0  0  0  0  0  0  0  0  0  0
    2.2280    1.1540    0.2380 N   0  0  0  0  0  0  0  0  0  0  0  0
    1.0050    1.1700   -0.5300 C   0  0  0  0  0  0  0  0  0  0  0  0
   -0.1590    1.6550    0.2720 C   0  0  0  0  0  0  0  0  0  0  0  0
    0.0130    1.9920    1.4810 O   0  0  0  0  0  0  0  0  0  0  0  0
   -1.4360    1.7490   -0.2870 N   0  0  0  0  0  0  0  0  0  0  0  0
   -2.5490    2.2590    0.4650 C   0  0  0  0  0  0  0  0  0  0  0  0
   -3.5830    2.8680   -0.4310 C   0  0  0  0  0  0  0  0  0  0  0  0
   -4.7590    3.0360    0.0040 O   0  0  0  0  0  0  0  0  0  0  0  0
   -3.2030    3.2340   -1.7420 N   0  0  0  0  0  0  0  0  0  0  0  0
   -2.3250    2.5340   -2.3730 C   0  0  0  0  0  0  0  0  0  0  0  0
   -1.9450    2.9040   -3.6930 N   0  0  0  0  0  0  0  0  0  0  0  0
   -1.7100    1.3320   -1.6760 C   0  0  2  0  0  0  0  0  0  0  0  0
   -2.6490    0.1770   -1.7130 C   0  0  0  0  0  0  0  0  0  0  0  0
   -2.9290   -0.2600   -3.0980 C   0  0  1  0  0  0  0  0  0  0  0  0
   -1.7990   -0.7420   -3.8960 C   0  0  0  0  0  0  0  0  0  0  0  0
   -0.5950   -0.4700   -3.8100 O   0  0  0  0  0  0  0  0  0  0  0  0
   -2.3880   -1.6190   -4.8250 O   0  0  0  0  0  0  0  0  0  0  0  0
   -3.7040   -1.8020   -4.4840 N   0  0  0  0  0  0  0  0  0  0  0  0
   -3.8180   -1.4290   -3.1510 N   0  0  0  0  0  0  0  0  0  0  0  0
   -3.3240   -2.5080   -2.3280 C   0  0  0  0  0  0  0  0  0  0  0  0
    1.5730   -0.7250    1.5490 N   0  0  0  0  0  0  0  0  0  0  0  0
  1  2  1  0
  2  3  2  0
  2 32  1  0
  3  4  1  0
  4  5  1  0
  4 10  2  0
  5  6  1  0
  5  9  2  0
  6  7  2  0
  7  8  1  0
  8  9  1  0
 10 11  1  0
 11 12  1  0
 11 32  2  0
 12 13  1  0
 13 14  1  0
 14 15  2  0
 14 16  1  0
 16 17  1  0
 16 23  1  0
 17 18  1  0
 18 19  2  0
 18 20  1  0
 20 21  2  0
 21 22  1  0
 21 23  1  0
 23 24  1  1
 25 24  1  1
 25 26  1  0
 25 30  1  0
 26 27  2  0
 26 28  1  0
 28 29  1  0
 29 30  1  0
 30 31  1  0
M  END
