
     RDKit          3D

 32 36  0  0  0  0  0  0  0  0999 V2000
   -7.2620   -0.9230   -1.5250 C   0  0  0  0  0  0  0  0  0  0  0  0
   -6.1400   -0.5800   -0.6240 C   0  0  0  0  0  0  0  0  0  0  0  0
   -6.3180   -0.0790    0.5860 C   0  0  0  0  0  0  0  0  0  0  0  0
   -5.2210    0.2470    1.4470 N   0  0  0  0  0  0  0  0  0  0  0  0
   -5.3640    0.1930    2.8710 C   0  0  0  0  0  0  0  0  0  0  0  0
   -6.4990    0.2090    3.3600 O   0  0  0  0  0  0  0  0  0  0  0  0
   -4.1450    0.1200    3.7150 C   0  0  0  0  0  0  0  0  0  0  0  0
   -4.2180    0.0700    4.9510 O   0  0  0  0  0  0  0  0  0  0  0  0
   -2.9340    0.1140    2.9700 N   0  0  0  0  0  0  0  0  0  0  0  0
   -2.9010    0.8720    1.7480 C   0  0  1  0  0  0  0  0  0  0  0  0
   -1.5510    0.7820    1.1150 C   0  0  0  0  0  0  0  0  0  0  0  0
   -0.6350    0.1100    1.6550 O   0  0  0  0  0  0  0  0  0  0  0  0
   -1.2670    1.4430   -0.0980 N   0  0  0  0  0  0  0  0  0  0  0  0
    0.0000    1.3910   -0.7420 C   0  0  0  0  0  0  0  0  0  0  0  0
    0.1790    2.0530   -1.8960 N   0  0  0  0  0  0  0  0  0  0  0  0
    1.3720    2.0320   -2.5480 C   0  0  0  0  0  0  0  0  0  0  0  0
    2.3800    1.3280   -2.0100 N   0  0  0  0  0  0  0  0  0  0  0  0
    2.2590    0.6510   -0.8660 C   0  0  0  0  0  0  0  0  0  0  0  0
    3.3130   -0.1000   -0.2800 N   0  0  0  0  0  0  0  0  0  0  0  0
    4.6000   -0.1970   -0.8670 C   0  0  0  0  0  0  0  0  0  0  0  0
    5.6450   -0.9090   -0.3360 N   0  0  0  0  0  0  0  0  0  0  0  0
    6.7190   -0.8030   -1.1220 C   0  0  0  0  0  0  0  0  0  0  0  0
    8.0690   -1.4430   -0.8820 C   0  0  2  0  0  0  0  0  0  0  0  0
    8.1890   -2.5880    0.0320 C   0  0  0  0  0  0  0  0  0  0  0  0
    8.5500   -1.2240    0.5480 C   0  0  0  0  0  0  0  0  0  0  0  0
    6.3740   -0.0270   -2.1550 N   0  0  0  0  0  0  0  0  0  0  0  0
    5.0880    0.3360   -1.9920 N   0  0  0  0  0  0  0  0  0  0  0  0
    1.0410    0.7050   -0.2530 N   0  0  0  0  0  0  0  0  0  0  0  0
   -3.9910    0.6180    0.7820 C   0  0  1  0  0  0  0  0  0  0  0  0
   -3.7260   -0.4610   -0.2050 C   0  0  0  0  0  0  0  0  0  0  0  0
   -2.6240   -1.0350   -0.2690 O   0  0  0  0  0  0  0  0  0  0  0  0
   -4.8100   -0.7920   -1.0690 N   0  0  0  0  0  0  0  0  0  0  0  0
  1  2  1  0
  2  3  2  0
  2 32  1  0
  3  4  1  0
  4  5  1  0
  4 29  1  0
  5  6  2  0
  5  7  1  0
  7  8  2  0
  7  9  1  0
  9 10  1  0
 10 11  1  6
 10 29  1  0
 11 12  2  0
 11 13  1  0
 13 14  1  0
 14 15  2  0
 14 28  1  0
 15 16  1  0
 16 17  2  0
 17 18  1  0
 18 19  1  0
 18 28  2  0
 19 20  1  0
 20 21  2  0
 20 27  1  0
 21 22  1  0
 23 22  1  1
 22 26  2  0
 23 24  1  0
 23 25  1  0
 24 25  1  0
 26 27  1  0
 29 30  1  6
 30 31  2  0
 30 32  1  0
M  END
