
     RDKit          3D

 32 35  0  0  0  0  0  0  0  0999 V2000
   -1.1820   -4.4890    0.9000 C   0  0  0  0  0  0  0  0  0  0  0  0
   -0.4240   -3.7260    1.9340 C   0  0  0  0  0  0  0  0  0  0  0  0
    0.0750   -2.3750    1.4960 C   0  0  1  0  0  0  0  0  0  0  0  0
    0.9670   -2.4200    0.3700 N   0  0  0  0  0  0  0  0  0  0  0  0
    2.2700   -1.8280    0.4290 C   0  0  0  0  0  0  0  0  0  0  0  0
    2.6090   -1.2700    1.4930 O   0  0  0  0  0  0  0  0  0  0  0  0
    3.1820   -1.8470   -0.6540 N   0  0  0  0  0  0  0  0  0  0  0  0
    4.5020   -1.2550   -0.6140 C   0  0  0  0  0  0  0  0  0  0  0  0
    4.4620    0.2270   -0.3420 C   0  0  1  0  0  0  0  0  0  0  0  0
    5.8290    0.7080   -0.3250 N   0  0  0  0  0  0  0  0  0  0  0  0
    6.0350    2.1200   -0.3780 C   0  0  0  0  0  0  0  0  0  0  0  0
    5.1490    2.9350   -0.9050 C   0  0  0  0  0  0  0  0  0  0  0  0
    5.9570    4.1430   -0.6370 C   0  0  0  0  0  0  0  0  0  0  0  0
    6.8810    3.2090   -0.0770 N   0  0  0  0  0  0  0  0  0  0  0  0
    3.9690    2.3610   -1.4260 O   0  0  0  0  0  0  0  0  0  0  0  0
    3.7530    0.9930   -1.3830 C   0  0  0  0  0  0  0  0  0  0  0  0
    2.9860    0.4830   -2.2090 O   0  0  0  0  0  0  0  0  0  0  0  0
   -0.9490   -1.3220    1.4910 C   0  0  0  0  0  0  0  0  0  0  0  0
   -1.1210   -0.4190    2.5230 N   0  0  0  0  0  0  0  0  0  0  0  0
   -2.1070    0.3930    2.2810 N   0  0  0  0  0  0  0  0  0  0  0  0
   -2.6430    0.0580    1.0530 C   0  0  0  0  0  0  0  0  0  0  0  0
   -3.7600    0.7380    0.4380 C   0  0  0  0  0  0  0  0  0  0  0  0
   -4.4220    0.4560   -0.8370 C   0  0  0  0  0  0  0  0  0  0  0  0
   -4.2660    1.7560    1.1130 N   0  0  0  0  0  0  0  0  0  0  0  0
   -5.3390    2.5320    0.6860 C   0  0  0  0  0  0  0  0  0  0  0  0
   -5.4050    3.2510   -0.4420 N   0  0  0  0  0  0  0  0  0  0  0  0
   -6.6000    3.8630   -0.5030 C   0  0  0  0  0  0  0  0  0  0  0  0
   -7.0020    4.6130   -1.4160 O   0  0  0  0  0  0  0  0  0  0  0  0
   -7.2500    3.4970    0.6120 N   0  0  0  0  0  0  0  0  0  0  0  0
   -6.5020    2.7030    1.3250 N   0  0  0  0  0  0  0  0  0  0  0  0
   -1.9100   -0.9860    0.6140 N   0  0  0  0  0  0  0  0  0  0  0  0
   -2.1420   -1.6690   -0.6410 C   0  0  0  0  0  0  0  0  0  0  0  0
  1  2  1  0
  3  2  1  6
  3  4  1  0
  3 18  1  0
  4  5  1  0
  5  6  2  0
  5  7  1  0
  7  8  1  0
  9  8  1  6
  9 10  1  0
  9 16  1  0
 10 11  1  0
 11 12  2  0
 11 14  1  0
 12 13  1  0
 12 15  1  0
 13 14  1  0
 15 16  1  0
 16 17  2  0
 18 19  2  0
 18 31  1  0
 19 20  1  0
 20 21  2  0
 21 22  1  0
 21 31  1  0
 22 23  1  0
 22 24  2  3
 24 25  1  0
 25 26  2  0
 25 30  1  0
 26 27  1  0
 27 28  2  0
 27 29  1  0
 29 30  1  0
 31 32  1  0
M  END
