
     RDKit          3D

 31 34  0  0  0  0  0  0  0  0999 V2000
   -8.1100   -1.8420    1.0020 C   0  0  0  0  0  0  0  0  0  0  0  0
   -7.1910   -2.1020   -0.1770 C   0  0  0  0  0  0  0  0  0  0  0  0
   -6.2040   -1.0490   -0.2160 N   0  0  0  0  0  0  0  0  0  0  0  0
   -6.4370    0.0740   -0.9170 C   0  0  0  0  0  0  0  0  0  0  0  0
   -7.5420    0.1520   -1.5230 O   0  0  0  0  0  0  0  0  0  0  0  0
   -5.5310    1.0770   -0.9720 N   0  0  0  0  0  0  0  0  0  0  0  0
   -4.3510    1.0170   -0.3370 C   0  0  0  0  0  0  0  0  0  0  0  0
   -4.0820   -0.1260    0.3920 C   0  0  0  0  0  0  0  0  0  0  0  0
   -5.0190   -1.1270    0.4310 C   0  0  0  0  0  0  0  0  0  0  0  0
   -4.7630   -2.1600    1.0960 O   0  0  0  0  0  0  0  0  0  0  0  0
   -2.8000   -0.1810    1.0770 C   0  0  0  0  0  0  0  0  0  0  0  0
   -2.5080   -1.1980    1.7530 O   0  0  0  0  0  0  0  0  0  0  0  0
   -1.8360    0.9240    0.9990 C   0  0  0  0  0  0  0  0  0  0  0  0
   -0.7180    0.9200    1.5730 N   0  0  0  0  0  0  0  0  0  0  0  0
    0.2200    1.9930    1.4990 C   0  0  1  0  0  0  0  0  0  0  0  0
    1.4870    1.4590    0.8620 C   0  0  0  0  0  0  0  0  0  0  0  0
    1.8070    0.2200    0.9380 N   0  0  0  0  0  0  0  0  0  0  0  0
    2.9750   -0.2550    0.3490 N   0  0  0  0  0  0  0  0  0  0  0  0
    4.2020    0.4100    0.5550 C   0  0  0  0  0  0  0  0  0  0  0  0
    4.1850    1.4350    1.2840 O   0  0  0  0  0  0  0  0  0  0  0  0
    5.4830   -0.0120   -0.0230 C   0  0  1  0  0  0  0  0  0  0  0  0
    5.8190   -1.4300    0.4580 C   0  0  0  0  0  0  0  0  0  0  0  0
    7.2200   -1.6300    0.1380 N   0  0  0  0  0  0  0  0  0  0  0  0
    7.6470   -1.2650   -1.0460 C   0  0  0  0  0  0  0  0  0  0  0  0
    9.0060   -1.4330   -1.4220 N   0  0  0  0  0  0  0  0  0  0  0  0
    6.7060   -0.6890   -1.9540 N   0  0  0  0  0  0  0  0  0  0  0  0
    5.4720   -0.0610   -1.5220 C   0  0  0  0  0  0  0  0  0  0  0  0
   -0.2040    3.0950    0.7120 N   0  0  0  0  0  0  0  0  0  0  0  0
   -1.3120    3.1690    0.1060 C   0  0  0  0  0  0  0  0  0  0  0  0
   -2.2710    2.0750    0.1800 C   0  0  0  0  0  0  0  0  0  0  0  0
   -3.4130    2.0900   -0.4110 N   0  0  0  0  0  0  0  0  0  0  0  0
  1  2  1  0
  2  3  1  0
  3  4  1  0
  3  9  1  0
  4  5  2  0
  4  6  1  0
  6  7  1  0
  7  8  2  0
  7 31  1  0
  8  9  1  0
  8 11  1  0
  9 10  2  0
 11 12  2  0
 11 13  1  0
 13 14  2  0
 13 30  1  0
 14 15  1  0
 15 16  1  6
 15 28  1  0
 16 17  2  3
 17 18  1  0
 18 19  1  0
 19 20  2  0
 21 19  1  1
 21 22  1  0
 21 27  1  0
 22 23  1  0
 23 24  2  0
 24 25  1  0
 24 26  1  0
 26 27  1  0
 28 29  2  0
 29 30  1  0
 30 31  2  0
M  END
