
     RDKit          3D

 32 36  0  0  0  0  0  0  0  0999 V2000
   -3.8900   -1.7330   -1.3250 C   0  0  0  0  0  0  0  0  0  0  0  0
   -3.1470   -0.5200   -1.4620 O   0  0  0  0  0  0  0  0  0  0  0  0
   -3.1280    0.3950   -0.4080 C   0  0  0  0  0  0  0  0  0  0  0  0
   -2.1820    0.4110    0.5410 C   0  0  0  0  0  0  0  0  0  0  0  0
   -0.9950   -0.3820    0.6100 C   0  0  0  0  0  0  0  0  0  0  0  0
   -0.1910   -0.3320    1.5960 O   0  0  0  0  0  0  0  0  0  0  0  0
   -0.5890   -1.2670   -0.3320 N   0  0  0  0  0  0  0  0  0  0  0  0
    0.6020   -2.0370   -0.2620 C   0  0  0  0  0  0  0  0  0  0  0  0
    0.5200   -2.9010   -1.2150 N   0  0  0  0  0  0  0  0  0  0  0  0
    1.6180   -3.7150   -1.2500 N   0  0  0  0  0  0  0  0  0  0  0  0
    2.4520   -3.4720   -0.3950 C   0  0  0  0  0  0  0  0  0  0  0  0
    3.7200   -3.7930    0.1980 C   0  0  0  0  0  0  0  0  0  0  0  0
    4.3380   -4.8330   -0.1070 O   0  0  0  0  0  0  0  0  0  0  0  0
    4.2680   -2.8550    1.1780 N   0  0  0  0  0  0  0  0  0  0  0  0
    3.9370   -1.4890    1.1130 N   0  0  0  0  0  0  0  0  0  0  0  0
    2.9720   -1.2390    0.0600 C   0  0  2  0  0  0  0  0  0  0  0  0
    2.6090    0.1020   -0.1200 N   0  0  0  0  0  0  0  0  0  0  0  0
    3.6490    1.0410   -0.4380 C   0  0  0  0  0  0  0  0  0  0  0  0
    3.4810    2.4030   -0.6420 C   0  0  0  0  0  0  0  0  0  0  0  0
    4.7040    2.9690   -0.9310 C   0  0  0  0  0  0  0  0  0  0  0  0
    5.5850    1.9620   -0.9010 N   0  0  0  0  0  0  0  0  0  0  0  0
    4.9660    0.8330   -0.6120 N   0  0  0  0  0  0  0  0  0  0  0  0
    1.8620   -2.2370    0.3240 C   0  0  1  0  0  0  0  0  0  0  0  0
   -2.2920    1.3750    1.5510 C   0  0  0  0  0  0  0  0  0  0  0  0
   -3.3310    2.2560    1.5430 C   0  0  0  0  0  0  0  0  0  0  0  0
   -4.2980    2.2410    0.5700 C   0  0  0  0  0  0  0  0  0  0  0  0
   -5.3360    3.1020    0.5400 N   0  0  0  0  0  0  0  0  0  0  0  0
   -6.2710    3.0670   -0.4260 C   0  0  0  0  0  0  0  0  0  0  0  0
   -7.2250    3.8870   -0.4210 O   0  0  0  0  0  0  0  0  0  0  0  0
   -6.1320    2.1220   -1.3800 N   0  0  0  0  0  0  0  0  0  0  0  0
   -5.1290    1.2550   -1.3900 N   0  0  0  0  0  0  0  0  0  0  0  0
   -4.2020    1.3010   -0.4220 C   0  0  0  0  0  0  0  0  0  0  0  0
  1  2  1  0
  2  3  1  0
  3  4  2  0
  3 32  1  0
  4  5  1  0
  4 24  1  0
  5  6  2  0
  5  7  1  0
  7  8  1  0
  8  9  2  0
 23  8  1  6
  9 10  1  0
 10 11  2  0
 11 12  1  0
 11 23  1  0
 12 13  2  0
 12 14  1  0
 14 15  1  0
 15 16  1  0
 16 17  1  1
 16 23  1  0
 17 18  1  0
 18 19  1  0
 18 22  2  0
 19 20  2  0
 20 21  1  0
 21 22  1  0
 24 25  2  0
 25 26  1  0
 26 27  1  0
 26 32  2  0
 27 28  1  0
 28 29  2  0
 28 30  1  0
 30 31  2  0
 31 32  1  0
M  END
