
     RDKit          3D

 32 36  0  0  0  0  0  0  0  0999 V2000
    0.8750    0.3840    4.2510 N   0  0  0  0  0  0  0  0  0  0  0  0
    0.4440    0.3790    2.8780 C   0  0  0  0  0  0  0  0  0  0  0  0
   -0.8640    0.4120    2.6300 N   0  0  0  0  0  0  0  0  0  0  0  0
   -1.3480    0.4100    1.4150 N   0  0  0  0  0  0  0  0  0  0  0  0
   -0.5320    0.3740    0.3480 C   0  0  0  0  0  0  0  0  0  0  0  0
   -1.1170    0.3750   -0.9400 N   0  0  0  0  0  0  0  0  0  0  0  0
   -2.5500    0.4120   -1.1120 C   0  0  2  0  0  0  0  0  0  0  0  0
   -3.1740    1.6330   -0.4970 C   0  0  0  0  0  0  0  0  0  0  0  0
   -4.3460    1.4070    0.3520 C   0  0  0  0  0  0  0  0  0  0  0  0
   -5.1750    0.3690    0.0550 O   0  0  0  0  0  0  0  0  0  0  0  0
   -4.7170   -0.5820   -0.7840 C   0  0  2  0  0  0  0  0  0  0  0  0
   -5.0600   -0.2410   -2.2060 C   0  0  0  0  0  0  0  0  0  0  0  0
   -6.4720   -0.1690   -2.2540 O   0  0  0  0  0  0  0  0  0  0  0  0
   -5.1960   -1.8650   -0.5400 O   0  0  0  0  0  0  0  0  0  0  0  0
   -4.3730   -2.7160   -1.2690 C   0  0  0  0  0  0  0  0  0  0  0  0
   -3.0000   -2.0560   -1.3380 C   0  0  0  0  0  0  0  0  0  0  0  0
   -3.2370   -0.7940   -0.5530 C   0  0  1  0  0  0  0  0  0  0  0  0
    0.8230    0.3400    0.5740 C   0  0  0  0  0  0  0  0  0  0  0  0
    1.7490    0.3010   -0.4980 N   0  0  0  0  0  0  0  0  0  0  0  0
    3.1520    0.2650   -0.2880 C   0  0  0  0  0  0  0  0  0  0  0  0
    4.0230    0.2280   -1.3060 N   0  0  0  0  0  0  0  0  0  0  0  0
    5.3540    0.1930   -1.1540 C   0  0  0  0  0  0  0  0  0  0  0  0
    6.2440    0.1550   -2.2600 N   0  0  0  0  0  0  0  0  0  0  0  0
    5.8710    0.1950    0.1190 C   0  0  0  0  0  0  0  0  0  0  0  0
    7.2390    0.1600    0.3390 C   0  0  0  0  0  0  0  0  0  0  0  0
    7.6920    0.1640    1.5880 N   0  0  0  0  0  0  0  0  0  0  0  0
    6.8340    0.2000    2.6270 C   0  0  0  0  0  0  0  0  0  0  0  0
    7.3590    0.2010    3.7820 O   0  0  0  0  0  0  0  0  0  0  0  0
    5.5150    0.2340    2.4450 N   0  0  0  0  0  0  0  0  0  0  0  0
    5.0080    0.2320    1.1880 C   0  0  0  0  0  0  0  0  0  0  0  0
    3.6820    0.2660    0.9650 N   0  0  0  0  0  0  0  0  0  0  0  0
    1.2980    0.3430    1.8550 N   0  0  0  0  0  0  0  0  0  0  0  0
  1  2  1  0
  2  3  2  0
  2 32  1  0
  3  4  1  0
  4  5  2  0
  5  6  1  0
  5 18  1  0
  7  6  1  1
  7  8  1  0
  7 17  1  0
  8  9  1  0
  9 10  1  0
 10 11  1  0
 11 12  1  6
 11 14  1  0
 11 17  1  0
 12 13  1  0
 14 15  1  0
 15 16  1  0
 17 16  1  6
 18 19  1  0
 18 32  2  0
 19 20  1  0
 20 21  2  0
 20 31  1  0
 21 22  1  0
 22 23  1  0
 22 24  2  0
 24 25  1  0
 24 30  1  0
 25 26  2  0
 26 27  1  0
 27 28  2  0
 27 29  1  0
 29 30  1  0
 30 31  2  0
M  END
