
     RDKit          3D

 32 35  0  0  0  0  0  0  0  0999 V2000
    8.5460   -1.5660    0.6880 C   0  0  0  0  0  0  0  0  0  0  0  0
    7.9320   -0.1980    0.6720 C   0  0  0  0  0  0  0  0  0  0  0  0
    7.5360    0.3440    1.7430 O   0  0  0  0  0  0  0  0  0  0  0  0
    7.8090    0.4660   -0.5770 N   0  0  0  0  0  0  0  0  0  0  0  0
    7.2280    1.7790   -0.6510 C   0  0  0  0  0  0  0  0  0  0  0  0
    5.7460    1.6610   -0.5130 C   0  0  0  0  0  0  0  0  0  0  0  0
    4.8330    2.6310   -0.5680 N   0  0  0  0  0  0  0  0  0  0  0  0
    3.6070    2.1270   -0.3990 N   0  0  0  0  0  0  0  0  0  0  0  0
    3.7520    0.8240   -0.2350 C   0  0  0  0  0  0  0  0  0  0  0  0
    2.7750   -0.1960   -0.0160 N   0  0  0  0  0  0  0  0  0  0  0  0
    1.3820    0.0410    0.0670 C   0  0  0  0  0  0  0  0  0  0  0  0
    0.9470    1.1920   -0.0550 O   0  0  0  0  0  0  0  0  0  0  0  0
    0.4460   -1.0330    0.2910 N   0  0  0  0  0  0  0  0  0  0  0  0
   -0.9490   -0.7750    0.3700 C   0  0  0  0  0  0  0  0  0  0  0  0
   -1.6170    0.3830    0.2630 N   0  0  0  0  0  0  0  0  0  0  0  0
   -2.9180    0.1970    0.3950 N   0  0  0  0  0  0  0  0  0  0  0  0
   -3.9760    1.2180    0.3380 C   0  0  1  0  0  0  0  0  0  0  0  0
   -3.4640    2.5610    0.7570 C   0  0  0  0  0  0  0  0  0  0  0  0
   -4.6610    3.5040    0.7770 C   0  0  0  0  0  0  0  0  0  0  0  0
   -5.2220    3.5740   -0.5530 N   0  0  0  0  0  0  0  0  0  0  0  0
   -5.6820    2.2830   -1.0270 C   0  0  1  0  0  0  0  0  0  0  0  0
   -6.2390    2.4650   -2.4180 C   0  0  0  0  0  0  0  0  0  0  0  0
   -4.4830    1.3600   -1.0950 C   0  0  0  0  0  0  0  0  0  0  0  0
   -3.0860   -1.0970    0.5900 N   0  0  0  0  0  0  0  0  0  0  0  0
   -1.9140   -1.7320    0.5830 C   0  0  0  0  0  0  0  0  0  0  0  0
   -1.6490   -3.1340    0.7580 N   0  0  0  0  0  0  0  0  0  0  0  0
   -2.6900   -4.0700    0.9740 C   0  0  0  0  0  0  0  0  0  0  0  0
   -3.8660   -3.5880    1.0030 O   0  0  0  0  0  0  0  0  0  0  0  0
   -2.4370   -5.5320    1.1590 C   0  0  1  0  0  0  0  0  0  0  0  0
   -1.2890   -6.2040    0.6430 C   0  0  0  0  0  0  0  0  0  0  0  0
   -1.4320   -5.8980    2.0790 O   0  0  0  0  0  0  0  0  0  0  0  0
    5.0750    0.5180   -0.3040 N   0  0  0  0  0  0  0  0  0  0  0  0
  1  2  1  0
  2  3  2  0
  2  4  1  0
  4  5  1  0
  5  6  1  0
  6  7  2  0
  6 32  1  0
  7  8  1  0
  8  9  1  0
  9 10  1  0
  9 32  2  0
 10 11  1  0
 11 12  2  0
 11 13  1  0
 13 14  1  0
 14 15  2  0
 14 25  1  0
 15 16  1  0
 17 16  1  6
 16 24  1  0
 17 18  1  0
 17 23  1  0
 18 19  1  0
 19 20  1  0
 20 21  1  0
 21 22  1  6
 21 23  1  0
 24 25  2  0
 25 26  1  0
 26 27  1  0
 27 28  2  0
 29 27  1  6
 29 30  1  0
 29 31  1  0
 30 31  1  0
M  END
