
     RDKit          3D

 32 34  0  0  0  0  0  0  0  0999 V2000
    6.9500    4.9280    0.9000 N   0  0  0  0  0  0  0  0  0  0  0  0
    5.7850    4.1450    0.7510 C   0  0  0  0  0  0  0  0  0  0  0  0
    4.6450    4.6630    0.5950 O   0  0  0  0  0  0  0  0  0  0  0  0
    5.9170    2.6710    0.7790 C   0  0  0  0  0  0  0  0  0  0  0  0
    4.6430    2.0090    0.6120 N   0  0  0  0  0  0  0  0  0  0  0  0
    4.6280    0.5630    0.6180 C   0  0  0  0  0  0  0  0  0  0  0  0
    5.7190    0.0240    0.7690 O   0  0  0  0  0  0  0  0  0  0  0  0
    3.4550   -0.1690    0.4630 N   0  0  0  0  0  0  0  0  0  0  0  0
    3.1980   -1.5200    0.4350 C   0  0  0  0  0  0  0  0  0  0  0  0
    4.0300   -2.5190    0.5540 C   0  0  0  0  0  0  0  0  0  0  0  0
    5.4170   -2.4480    0.7420 N   0  0  0  0  0  0  0  0  0  0  0  0
    3.5050   -3.9490    0.4970 C   0  0  0  0  0  0  0  0  0  0  0  0
    2.2600   -4.0710    1.1690 N   0  0  0  0  0  0  0  0  0  0  0  0
    1.7940   -5.3150    1.6390 C   0  0  0  0  0  0  0  0  0  0  0  0
    2.4950   -6.3390    1.4580 O   0  0  0  0  0  0  0  0  0  0  0  0
    1.4420   -2.8940    1.3790 C   0  0  0  0  0  0  0  0  0  0  0  0
    1.7570   -1.9610    0.2360 C   0  0  1  0  0  0  0  0  0  0  0  0
    0.8230   -0.8230    0.0640 C   0  0  0  0  0  0  0  0  0  0  0  0
   -0.5970   -1.3570   -0.1350 C   0  0  0  0  0  0  0  0  0  0  0  0
   -1.5430   -0.2050   -0.3330 C   0  0  0  0  0  0  0  0  0  0  0  0
   -1.0960    0.9370   -0.3110 O   0  0  0  0  0  0  0  0  0  0  0  0
   -2.8980   -0.4890   -0.5330 N   0  0  0  0  0  0  0  0  0  0  0  0
   -3.9090    0.4500   -0.7370 C   0  0  0  0  0  0  0  0  0  0  0  0
   -3.6800    1.7650   -0.9880 C   0  0  0  0  0  0  0  0  0  0  0  0
   -4.7090    2.6860   -1.1710 C   0  0  0  0  0  0  0  0  0  0  0  0
   -6.0060    2.2750   -1.1000 C   0  0  0  0  0  0  0  0  0  0  0  0
   -6.2640    0.9510   -0.8490 C   0  0  0  0  0  0  0  0  0  0  0  0
   -5.2450    0.0410   -0.6680 C   0  0  0  0  0  0  0  0  0  0  0  0
   -7.6150    0.5140   -0.7750 N   0  0  0  0  0  0  0  0  0  0  0  0
   -8.6460    1.3550   -1.3360 C   0  0  0  0  0  0  0  0  0  0  0  0
   -8.3920    2.8200   -1.0190 C   0  0  0  0  0  0  0  0  0  0  0  0
   -7.0390    3.1640   -1.2770 O   0  0  0  0  0  0  0  0  0  0  0  0
  1  2  1  0
  2  3  2  0
  2  4  1  0
  4  5  1  0
  5  6  1  0
  6  7  2  0
  6  8  1  0
  8  9  1  0
  9 10  2  0
  9 17  1  0
 10 11  1  0
 10 12  1  0
 12 13  1  0
 13 14  1  0
 13 16  1  0
 14 15  2  0
 16 17  1  0
 17 18  1  1
 18 19  1  0
 19 20  1  0
 20 21  2  0
 20 22  1  0
 22 23  1  0
 23 24  2  0
 23 28  1  0
 24 25  1  0
 25 26  2  0
 26 27  1  0
 26 32  1  0
 27 28  2  0
 27 29  1  0
 29 30  1  0
 30 31  1  0
 31 32  1  0
M  END
