
     RDKit          3D

 28 30  0  0  0  0  0  0  0  0999 V2000
   -4.9300   -2.3630    0.0390 C   0  0  0  0  0  0  0  0  0  0  0  0
   -4.6170   -0.9310   -0.2500 C   0  0  0  0  0  0  0  0  0  0  0  0
   -3.3250   -0.5100   -0.7340 C   0  0  0  0  0  0  0  0  0  0  0  0
   -2.0550   -0.6140   -0.0110 C   0  0  1  0  0  0  0  0  0  0  0  0
   -1.7340   -2.0530    0.2810 C   0  0  0  0  0  0  0  0  0  0  0  0
   -1.2500   -2.8070   -0.9280 C   0  0  2  0  0  0  0  0  0  0  0  0
   -0.6170   -4.0960   -0.4250 C   0  0  0  0  0  0  0  0  0  0  0  0
   -0.2470   -2.0250   -1.7450 C   0  0  0  0  0  0  0  0  0  0  0  0
    0.2330   -0.8640   -0.8180 C   0  0  1  0  0  0  0  0  0  0  0  0
    1.6040   -0.4490   -1.2130 C   0  0  1  0  0  0  0  0  0  0  0  0
    2.4250   -1.7830   -1.1260 C   0  0  0  0  0  0  0  0  0  0  0  0
    1.8540    0.0630   -2.5570 C   0  0  0  0  0  0  0  0  0  0  0  0
    2.2760    0.3030   -0.0530 C   0  0  1  0  0  0  0  0  0  0  0  0
    2.3180   -0.6460    1.0140 O   0  0  0  0  0  0  0  0  0  0  0  0
    2.5950    0.0910    2.1620 C   0  0  0  0  0  0  0  0  0  0  0  0
    4.0690    0.4030    2.1410 C   0  0  0  0  0  0  0  0  0  0  0  0
    4.6680    0.2700    0.7490 C   0  0  0  0  0  0  0  0  0  0  0  0
    3.6930    0.6890   -0.3310 C   0  0  2  0  0  0  0  0  0  0  0  0
    3.7110    2.2320   -0.2820 C   0  0  0  0  0  0  0  0  0  0  0  0
    5.0730    2.7820   -0.5430 C   0  0  0  0  0  0  0  0  0  0  0  0
   -0.9130    0.0550   -0.8270 C   0  0  2  0  0  0  0  0  0  0  0  0
   -0.8210    1.4990   -0.6740 C   0  0  1  0  0  0  0  0  0  0  0  0
   -1.7010    2.3020   -1.6640 C   0  0  0  0  0  0  0  0  0  0  0  0
   -1.1110    2.0910    0.6690 C   0  0  0  0  0  0  0  0  0  0  0  0
   -2.1540    1.4510    1.4910 C   0  0  1  0  0  0  0  0  0  0  0  0
   -1.7760    1.7460    2.9730 C   0  0  0  0  0  0  0  0  0  0  0  0
   -3.5300    2.0200    1.4060 C   0  0  0  0  0  0  0  0  0  0  0  0
   -2.0230   -0.0040    1.3710 C   0  0  0  0  0  0  0  0  0  0  0  0
  1  2  1  0
  2  3  1  0
  4  3  1  6
  4  5  1  0
  4 21  1  0
  4 28  1  0
  5  6  1  0
  6  7  1  1
  6  8  1  0
  9  8  1  6
  9 10  1  0
  9 21  1  0
 10 11  1  6
 10 12  1  0
 10 13  1  0
 13 14  1  1
 13 18  1  0
 14 15  1  0
 15 16  1  0
 16 17  1  0
 17 18  1  0
 18 19  1  1
 19 20  1  0
 21 22  1  1
 22 23  1  6
 22 24  1  0
 24 25  1  0
 25 26  1  1
 25 27  1  0
 25 28  1  0
M  END
