
     RDKit          3D

 28 31  0  0  0  0  0  0  0  0999 V2000
   -2.8960    0.2760   -4.3140 C   0  0  0  0  0  0  0  0  0  0  0  0
   -2.3610    0.1560   -2.9330 C   0  0  0  0  0  0  0  0  0  0  0  0
   -1.0830   -0.2000   -2.5600 C   0  0  0  0  0  0  0  0  0  0  0  0
   -0.9720   -0.2000   -1.2210 N   0  0  0  0  0  0  0  0  0  0  0  0
    0.2330   -0.5240   -0.4940 C   0  0  0  0  0  0  0  0  0  0  0  0
    0.5300   -1.8070   -0.1920 C   0  0  0  0  0  0  0  0  0  0  0  0
    1.7080   -2.1090    0.5160 C   0  0  0  0  0  0  0  0  0  0  0  0
    2.5360   -1.0710    0.8870 C   0  0  0  0  0  0  0  0  0  0  0  0
    2.2730    0.2670    0.5960 C   0  0  0  0  0  0  0  0  0  0  0  0
    3.1480    1.3890    0.9400 C   0  0  0  0  0  0  0  0  0  0  0  0
    4.3080    1.6170    0.0350 C   0  0  2  0  0  0  0  0  0  0  0  0
    5.0800    2.8150    0.5750 C   0  0  0  0  0  0  0  0  0  0  0  0
    3.7120    2.1310   -1.2970 C   0  0  0  0  0  0  0  0  0  0  0  0
    1.0920    0.4730   -0.1030 C   0  0  0  0  0  0  0  0  0  0  0  0
    3.7190   -1.3700    1.6540 C   0  0  0  0  0  0  0  0  0  0  0  0
    4.5160   -0.5140    2.0300 O   0  0  0  0  0  0  0  0  0  0  0  0
    3.9790   -2.7470    2.0000 N   0  0  0  0  0  0  0  0  0  0  0  0
    2.7870   -3.5920    2.1340 C   0  0  0  0  0  0  0  0  0  0  0  0
    2.0520   -3.5040    0.8290 C   0  0  0  0  0  0  0  0  0  0  0  0
   -2.1730    0.1540   -0.7240 C   0  0  0  0  0  0  0  0  0  0  0  0
   -3.0690    0.3860   -1.7580 C   0  0  0  0  0  0  0  0  0  0  0  0
   -4.4420    0.7860   -1.4800 C   0  0  0  0  0  0  0  0  0  0  0  0
   -5.3130    0.6830   -2.3780 O   0  0  0  0  0  0  0  0  0  0  0  0
   -4.7400    1.3050   -0.1230 C   0  0  0  0  0  0  0  0  0  0  0  0
   -4.0470    0.4120    0.8720 C   0  0  2  0  0  0  0  0  0  0  0  0
   -4.6930   -0.9590    0.7760 C   0  0  0  0  0  0  0  0  0  0  0  0
   -4.2820    0.9140    2.2990 C   0  0  0  0  0  0  0  0  0  0  0  0
   -2.5730    0.3020    0.6890 C   0  0  0  0  0  0  0  0  0  0  0  0
  1  2  1  0
  2  3  2  0
  2 21  1  0
  3  4  1  0
  4  5  1  0
  4 20  1  0
  5  6  2  0
  5 14  1  0
  6  7  1  0
  7  8  2  0
  7 19  1  0
  8  9  1  0
  8 15  1  0
  9 10  1  0
  9 14  2  0
 10 11  1  0
 11 12  1  1
 11 13  1  0
 15 16  2  0
 15 17  1  0
 17 18  1  0
 18 19  1  0
 20 21  2  0
 20 28  1  0
 21 22  1  0
 22 23  2  0
 22 24  1  0
 24 25  1  0
 25 26  1  1
 25 27  1  0
 25 28  1  0
M  END
