
     RDKit          3D

 28 31  0  0  0  0  0  0  0  0999 V2000
   -4.8440   -2.0000    0.3490 C   0  0  0  0  0  0  0  0  0  0  0  0
   -4.2740   -1.4810   -0.9290 C   0  0  1  0  0  0  0  0  0  0  0  0
   -5.3390   -1.1010   -1.8930 C   0  0  0  0  0  0  0  0  0  0  0  0
   -5.3040    0.3750   -2.1430 C   0  0  0  0  0  0  0  0  0  0  0  0
   -3.9880    0.7300   -2.7720 C   0  0  0  0  0  0  0  0  0  0  0  0
   -2.8140    0.0760   -2.0760 C   0  0  0  0  0  0  0  0  0  0  0  0
   -3.2720   -0.3430   -0.6920 C   0  0  2  0  0  0  0  0  0  0  0  0
   -2.1430   -0.8550    0.1710 C   0  0  0  0  0  0  0  0  0  0  0  0
   -1.0900    0.1360    0.4890 C   0  0  1  0  0  0  0  0  0  0  0  0
   -1.5600    1.3400    1.2270 C   0  0  0  0  0  0  0  0  0  0  0  0
   -0.4620    2.2890    1.5700 C   0  0  0  0  0  0  0  0  0  0  0  0
    0.7930    1.9320    0.8170 C   0  0  0  0  0  0  0  0  0  0  0  0
    1.2950    0.5230    1.1720 C   0  0  1  0  0  0  0  0  0  0  0  0
    2.2270    0.1860    0.0030 C   0  0  1  0  0  0  0  0  0  0  0  0
    2.1570    1.0950   -1.1820 C   0  0  0  0  0  0  0  0  0  0  0  0
    3.2860    0.7010   -2.1240 C   0  0  2  0  0  0  0  0  0  0  0  0
    2.8350    0.9940   -3.5720 C   0  0  0  0  0  0  0  0  0  0  0  0
    3.7160   -0.7110   -2.0830 C   0  0  0  0  0  0  0  0  0  0  0  0
    4.7500   -1.0530   -1.0570 C   0  0  0  0  0  0  0  0  0  0  0  0
    4.3110   -0.9780    0.3650 C   0  0  0  0  0  0  0  0  0  0  0  0
    3.6190    0.3340    0.5540 C   0  0  2  0  0  0  0  0  0  0  0  0
    3.5190    0.8190    1.7900 O   0  0  0  0  0  0  0  0  0  0  0  0
    2.2170    0.5750    2.3100 C   0  0  2  0  0  0  0  0  0  0  0  0
    2.3900   -0.5700    3.2250 C   0  0  0  0  0  0  0  0  0  0  0  0
    2.0640    1.7450    3.2900 C   0  0  0  0  0  0  0  0  0  0  0  0
    0.1360   -0.4140    1.2010 C   0  0  1  0  0  0  0  0  0  0  0  0
   -0.3900   -0.6980    2.6150 C   0  0  0  0  0  0  0  0  0  0  0  0
    0.3850   -1.7840    0.6220 C   0  0  0  0  0  0  0  0  0  0  0  0
  2  1  1  1
  2  3  1  0
  2  7  1  0
  3  4  1  0
  4  5  1  0
  5  6  1  0
  6  7  1  0
  7  8  1  1
  9  8  1  1
  9 10  1  0
  9 26  1  0
 10 11  1  0
 11 12  1  0
 13 12  1  6
 13 14  1  0
 13 23  1  0
 13 26  1  0
 14 15  1  6
 14 21  1  0
 15 16  1  0
 16 17  1  6
 16 18  1  0
 18 19  1  0
 19 20  1  0
 21 20  1  1
 21 22  1  0
 22 23  1  0
 23 24  1  1
 23 25  1  0
 26 27  1  1
 26 28  1  0
M  END
