
     RDKit          3D

 28 30  0  0  0  0  0  0  0  0999 V2000
   -2.5850   -0.5380   -4.7990 C   0  0  0  0  0  0  0  0  0  0  0  0
   -2.8090   -0.5750   -3.5170 C   0  0  0  0  0  0  0  0  0  0  0  0
   -4.0500    0.0110   -2.8470 C   0  0  0  0  0  0  0  0  0  0  0  0
   -3.4630    0.6050   -1.6760 C   0  0  1  0  0  0  0  0  0  0  0  0
   -4.2780    0.7120   -0.4020 C   0  0  0  0  0  0  0  0  0  0  0  0
   -3.2280    0.9890    0.6740 C   0  0  2  0  0  0  0  0  0  0  0  0
   -3.8620    1.9840    1.6610 C   0  0  0  0  0  0  0  0  0  0  0  0
   -4.2560    3.2710    1.0140 C   0  0  0  0  0  0  0  0  0  0  0  0
   -2.0210    1.6570    0.1360 C   0  0  0  0  0  0  0  0  0  0  0  0
   -1.2360    0.8190   -0.9300 C   0  0  1  0  0  0  0  0  0  0  0  0
   -1.0600    1.7810   -2.1050 C   0  0  0  0  0  0  0  0  0  0  0  0
    0.0710    0.5280   -0.3370 C   0  0  0  0  0  0  0  0  0  0  0  0
    1.1080   -0.2000   -1.0710 C   0  0  0  0  0  0  0  0  0  0  0  0
    2.3910   -0.3600   -0.3200 C   0  0  0  0  0  0  0  0  0  0  0  0
    3.3320   -0.7560   -0.9950 O   0  0  0  0  0  0  0  0  0  0  0  0
    2.6020   -0.0960    1.1050 C   0  0  1  0  0  0  0  0  0  0  0  0
    1.8240   -1.0460    1.9870 C   0  0  0  0  0  0  0  0  0  0  0  0
    2.7100   -2.0160    2.7430 C   0  0  2  0  0  0  0  0  0  0  0  0
    1.7980   -2.8360    3.6560 C   0  0  0  0  0  0  0  0  0  0  0  0
    3.7200   -1.3530    3.6220 C   0  0  0  0  0  0  0  0  0  0  0  0
    4.2660   -0.1230    2.9740 C   0  0  0  0  0  0  0  0  0  0  0  0
    4.0610   -0.2010    1.4710 C   0  0  2  0  0  0  0  0  0  0  0  0
    4.8420    0.9510    0.8270 C   0  0  0  0  0  0  0  0  0  0  0  0
    6.3080    0.8280    1.2080 C   0  0  0  0  0  0  0  0  0  0  0  0
   -2.2010   -0.2210   -1.3120 C   0  0  2  0  0  0  0  0  0  0  0  0
   -2.0490   -1.1400   -2.3890 C   0  0  0  0  0  0  0  0  0  0  0  0
   -1.4370   -2.3000   -2.5080 C   0  0  0  0  0  0  0  0  0  0  0  0
   -1.4020   -3.1670   -3.6950 C   0  0  0  0  0  0  0  0  0  0  0  0
  1  2  2  0
  2  3  1  0
  2 26  1  0
  4  3  1  6
  4  5  1  0
  4 25  1  0
  5  6  1  0
  6  7  1  1
  6  9  1  0
  7  8  1  0
  9 10  1  0
 10 11  1  6
 10 12  1  0
 10 25  1  0
 12 13  1  0
 13 14  1  0
 14 15  2  0
 16 14  1  6
 16 17  1  0
 16 22  1  0
 17 18  1  0
 18 19  1  1
 18 20  1  0
 20 21  1  0
 21 22  1  0
 22 23  1  6
 23 24  1  0
 25 26  1  6
 26 27  2  3
 27 28  1  0
M  END
