
     RDKit          3D

 28 31  0  0  0  0  0  0  0  0999 V2000
   -5.0070    2.4670    3.0720 C   0  0  0  0  0  0  0  0  0  0  0  0
   -3.9090    2.1780    2.0160 C   0  0  0  0  0  0  0  0  0  0  0  0
   -3.3600    0.8500    2.3630 C   0  0  0  0  0  0  0  0  0  0  0  0
   -2.2660    0.2670    1.5890 C   0  0  0  0  0  0  0  0  0  0  0  0
   -2.4120   -0.0240    0.1390 C   0  0  2  0  0  0  0  0  0  0  0  0
   -2.6820    1.2030   -0.6560 C   0  0  0  0  0  0  0  0  0  0  0  0
   -3.3830   -1.1380   -0.2000 C   0  0  1  0  0  0  0  0  0  0  0  0
   -4.3840   -0.8260   -1.2960 C   0  0  0  0  0  0  0  0  0  0  0  0
   -4.8500   -2.1800   -1.7820 C   0  0  0  0  0  0  0  0  0  0  0  0
   -3.8600   -2.9550   -2.2250 C   0  0  0  0  0  0  0  0  0  0  0  0
   -2.4910   -2.3130   -2.1460 C   0  0  0  0  0  0  0  0  0  0  0  0
   -2.2490   -1.9890   -0.7150 C   0  0  1  0  0  0  0  0  0  0  0  0
   -1.2980   -0.9330   -0.3320 C   0  0  1  0  0  0  0  0  0  0  0  0
   -0.3660   -0.4570   -1.3770 C   0  0  2  0  0  0  0  0  0  0  0  0
    0.5970   -1.5440   -1.7220 C   0  0  0  0  0  0  0  0  0  0  0  0
    0.7200   -1.9920   -2.8400 O   0  0  0  0  0  0  0  0  0  0  0  0
    1.4460   -2.1040   -0.6530 C   0  0  0  0  0  0  0  0  0  0  0  0
    2.2140   -0.9420   -0.0750 C   0  0  0  0  0  0  0  0  0  0  0  0
    3.4920   -1.0730    0.1210 C   0  0  0  0  0  0  0  0  0  0  0  0
    4.4570   -0.1030    0.6660 C   0  0  2  0  0  0  0  0  0  0  0  0
    5.7820   -0.8290    1.0020 C   0  0  0  0  0  0  0  0  0  0  0  0
    3.9650    0.4190    1.9940 C   0  0  0  0  0  0  0  0  0  0  0  0
    4.7530    1.0540   -0.2510 C   0  0  1  0  0  0  0  0  0  0  0  0
    5.7230    2.1060    0.2140 C   0  0  0  0  0  0  0  0  0  0  0  0
    6.1590    1.1240   -0.7860 C   0  0  0  0  0  0  0  0  0  0  0  0
    1.4350    0.2630    0.2250 C   0  0  0  0  0  0  0  0  0  0  0  0
    0.4900    0.6970   -0.8720 C   0  0  1  0  0  0  0  0  0  0  0  0
    1.3090    1.1800   -2.0420 C   0  0  0  0  0  0  0  0  0  0  0  0
  1  2  1  0
  2  3  1  0
  3  4  1  0
  4  5  1  0
  5  6  1  6
  5  7  1  0
  5 13  1  0
  7  8  1  6
  7 12  1  0
  8  9  1  0
  9 10  2  0
 10 11  1  0
 12 11  1  6
 12 13  1  0
 13 14  1  6
 14 15  1  1
 14 27  1  0
 15 16  2  0
 15 17  1  0
 17 18  1  0
 18 19  2  3
 18 26  1  0
 19 20  1  0
 20 21  1  1
 20 22  1  0
 20 23  1  0
 23 24  1  1
 23 25  1  0
 24 25  1  0
 26 27  1  0
 27 28  1  6
M  END
