
     RDKit          3D

 28 32  0  0  0  0  0  0  0  0999 V2000
   -6.4330    2.2390    0.9730 C   0  0  0  0  0  0  0  0  0  0  0  0
   -5.4660    1.3380    1.6800 C   0  0  0  0  0  0  0  0  0  0  0  0
   -4.8460    0.3130    0.7710 C   0  0  2  0  0  0  0  0  0  0  0  0
   -5.9270   -0.5620    0.1690 C   0  0  0  0  0  0  0  0  0  0  0  0
   -3.9210   -0.5580    1.5720 C   0  0  0  0  0  0  0  0  0  0  0  0
   -2.9260   -1.1630    0.5410 C   0  0  0  0  0  0  0  0  0  0  0  0
   -1.8980   -0.1740    0.3330 C   0  0  1  0  0  0  0  0  0  0  0  0
   -0.8330   -0.2270   -0.6120 C   0  0  0  0  0  0  0  0  0  0  0  0
   -0.6170   -1.0930   -1.5760 C   0  0  0  0  0  0  0  0  0  0  0  0
   -1.5560   -2.1820   -1.7690 C   0  0  0  0  0  0  0  0  0  0  0  0
    0.6020   -0.8810   -2.4090 C   0  0  2  0  0  0  0  0  0  0  0  0
    0.7880   -2.0070   -3.4040 C   0  0  0  0  0  0  0  0  0  0  0  0
    1.7700   -0.8790   -1.4240 C   0  0  2  0  0  0  0  0  0  0  0  0
    1.8640   -2.1570   -0.6600 C   0  0  0  0  0  0  0  0  0  0  0  0
    2.4510   -1.9520    0.7200 C   0  0  1  0  0  0  0  0  0  0  0  0
    3.8520   -1.4100    0.5630 C   0  0  0  0  0  0  0  0  0  0  0  0
    3.6480    0.0590    0.8610 C   0  0  1  0  0  0  0  0  0  0  0  0
    4.4420    0.9260   -0.0460 C   0  0  2  0  0  0  0  0  0  0  0  0
    5.9210    0.5650    0.1600 C   0  0  0  0  0  0  0  0  0  0  0  0
    6.1960    1.1540    1.5300 C   0  0  0  0  0  0  0  0  0  0  0  0
    5.2140    2.2780    1.7090 C   0  0  0  0  0  0  0  0  0  0  0  0
    4.4260    2.3530    0.3990 C   0  0  0  0  0  0  0  0  0  0  0  0
    2.1790    0.2210    0.8010 C   0  0  2  0  0  0  0  0  0  0  0  0
    1.7030   -0.9670    1.3550 O   0  0  0  0  0  0  0  0  0  0  0  0
    1.6090    0.3480   -0.5840 C   0  0  2  0  0  0  0  0  0  0  0  0
    0.2110    0.8680   -0.5040 C   0  0  0  0  0  0  0  0  0  0  0  0
   -2.6150    1.1780    0.1230 C   0  0  0  0  0  0  0  0  0  0  0  0
   -4.0520    0.9140   -0.3500 C   0  0  0  0  0  0  0  0  0  0  0  0
  1  2  1  0
  2  3  1  0
  3  4  1  6
  3  5  1  0
  3 28  1  0
  5  6  1  0
  6  7  1  0
  7  8  1  6
  7 27  1  0
  8  9  2  0
  8 26  1  0
  9 10  1  0
  9 11  1  0
 11 12  1  6
 11 13  1  0
 13 14  1  1
 13 25  1  0
 15 14  1  6
 15 16  1  0
 15 24  1  0
 17 16  1  6
 17 18  1  0
 17 23  1  0
 18 19  1  1
 18 22  1  0
 19 20  1  0
 20 21  1  0
 21 22  1  0
 23 24  1  6
 23 25  1  0
 25 26  1  1
 27 28  1  0
M  END
