
     RDKit          3D

 28 31  0  0  0  0  0  0  0  0999 V2000
   -3.4630   -0.2810    3.4140 C   0  0  0  0  0  0  0  0  0  0  0  0
   -3.2840   -0.7190    1.9550 C   0  0  2  0  0  0  0  0  0  0  0  0
   -2.5210   -2.0110    1.9880 C   0  0  0  0  0  0  0  0  0  0  0  0
   -2.1670   -2.4680    0.5870 C   0  0  2  0  0  0  0  0  0  0  0  0
   -3.4010   -2.8420   -0.2000 C   0  0  0  0  0  0  0  0  0  0  0  0
   -1.4290   -3.7960    0.8070 C   0  0  0  0  0  0  0  0  0  0  0  0
   -1.2830   -1.4710   -0.0290 C   0  0  2  0  0  0  0  0  0  0  0  0
    0.1290   -1.7630    0.4280 C   0  0  0  0  0  0  0  0  0  0  0  0
    1.0680   -1.0510   -0.5580 C   0  0  0  0  0  0  0  0  0  0  0  0
    0.8210    0.4110   -0.3390 C   0  0  2  0  0  0  0  0  0  0  0  0
    2.0780    0.9650    0.3210 C   0  0  0  0  0  0  0  0  0  0  0  0
    3.2060    0.7320   -0.6220 C   0  0  0  0  0  0  0  0  0  0  0  0
    2.9940    0.2060   -1.6980 O   0  0  0  0  0  0  0  0  0  0  0  0
    4.6020    1.1170   -0.3060 C   0  0  1  0  0  0  0  0  0  0  0  0
    5.1180    0.4280    0.9360 C   0  0  0  0  0  0  0  0  0  0  0  0
    6.6330    0.5570    0.7320 C   0  0  0  0  0  0  0  0  0  0  0  0
    6.7630    0.0900   -0.7020 C   0  0  0  0  0  0  0  0  0  0  0  0
    5.5090    0.5570   -1.3740 C   0  0  0  0  0  0  0  0  0  0  0  0
   -0.3320    0.6780    0.5710 C   0  0  0  0  0  0  0  0  0  0  0  0
   -1.6370   -0.0090    0.1260 C   0  0  1  0  0  0  0  0  0  0  0  0
   -1.9290    0.5340   -1.2260 C   0  0  1  0  0  0  0  0  0  0  0  0
   -3.0450   -0.1220   -1.9940 C   0  0  0  0  0  0  0  0  0  0  0  0
   -2.0160    1.9840   -1.4300 C   0  0  0  0  0  0  0  0  0  0  0  0
   -2.2470    2.9440   -0.5900 C   0  0  0  0  0  0  0  0  0  0  0  0
   -2.2290    4.2480   -1.2910 C   0  0  0  0  0  0  0  0  0  0  0  0
   -1.9450    3.8960   -2.6900 C   0  0  0  0  0  0  0  0  0  0  0  0
   -1.8240    2.6150   -2.7740 C   0  0  0  0  0  0  0  0  0  0  0  0
   -2.6860    0.3310    1.1020 C   0  0  0  0  0  0  0  0  0  0  0  0
  2  1  1  1
  2  3  1  0
  2 28  1  0
  3  4  1  0
  4  5  1  6
  4  6  1  0
  4  7  1  0
  7  8  1  1
  7 20  1  0
  8  9  1  0
  9 10  1  0
 10 11  1  1
 10 19  1  0
 11 12  1  0
 12 13  2  0
 14 12  1  6
 14 15  1  0
 14 18  1  0
 15 16  1  0
 16 17  1  0
 17 18  1  0
 20 19  1  1
 20 21  1  0
 20 28  1  0
 21 22  1  1
 21 23  1  0
 23 24  2  0
 23 27  1  0
 24 25  1  0
 25 26  1  0
 26 27  2  0
M  END
