
     RDKit          3D

 41 44  0  0  0  0  0  0  0  0999 V2000
   -6.3050    6.6680    1.0910 C   0  0  0  0  0  0  0  0  0  0  0  0
   -4.8470    6.4860    1.3590 C   0  0  0  0  0  0  0  0  0  0  0  0
   -4.0940    7.4810    1.9420 C   0  0  0  0  0  0  0  0  0  0  0  0
   -2.7370    7.2770    2.1790 C   0  0  0  0  0  0  0  0  0  0  0  0
   -1.9570    8.3760    2.8060 C   0  0  0  0  0  0  0  0  0  0  0  0
   -2.1620    6.0730    1.8240 C   0  0  0  0  0  0  0  0  0  0  0  0
   -2.8880    5.0630    1.2400 C   0  0  0  0  0  0  0  0  0  0  0  0
   -2.2530    3.7670    0.8730 C   0  0  0  0  0  0  0  0  0  0  0  0
   -2.8020    3.1750   -0.0510 O   0  0  0  0  0  0  0  0  0  0  0  0
   -1.1400    3.2700    1.5160 N   0  0  0  0  0  0  0  0  0  0  0  0
   -0.3570    2.1040    1.3690 C   0  0  0  0  0  0  0  0  0  0  0  0
    1.0120    1.8000    2.5240 S   0  0  0  0  0  0  0  0  0  0  0  0
    1.5430    0.2930    1.7980 C   0  0  0  0  0  0  0  0  0  0  0  0
    2.6530   -0.5680    2.2770 C   0  0  0  0  0  0  0  0  0  0  0  0
    3.2880   -0.2380    3.3100 O   0  0  0  0  0  0  0  0  0  0  0  0
    3.0440   -1.7430    1.6420 N   0  0  0  0  0  0  0  0  0  0  0  0
    4.0700   -2.6340    2.0340 C   0  0  1  0  0  0  0  0  0  0  0  0
    3.7780   -4.0770    2.0270 C   0  0  0  0  0  0  0  0  0  0  0  0
    3.6090   -4.8040    0.4230 S   0  0  2  0  0  0  0  0  0  0  0  0
    2.1700   -4.8970   -0.0140 O   0  0  0  0  0  0  0  0  0  0  0  0
    4.2610   -6.1620    0.4180 O   0  0  0  0  0  0  0  0  0  0  0  0
    4.3990   -3.7140   -0.7310 C   0  0  0  0  0  0  0  0  0  0  0  0
    5.4730   -2.9950   -0.0170 C   0  0  0  0  0  0  0  0  0  0  0  0
    6.6960   -2.8220   -0.6750 C   0  0  0  0  0  0  0  0  0  0  0  0
    7.7640   -2.1610   -0.1170 C   0  0  0  0  0  0  0  0  0  0  0  0
    8.9800   -2.0250   -0.8430 N   0  0  0  0  0  0  0  0  0  0  0  0
    7.6320   -1.6340    1.1650 C   0  0  0  0  0  0  0  0  0  0  0  0
    6.4170   -1.8090    1.8130 C   0  0  0  0  0  0  0  0  0  0  0  0
    5.3520   -2.4700    1.2520 C   0  0  0  0  0  0  0  0  0  0  0  0
    0.6790    0.1140    0.7550 C   0  0  0  0  0  0  0  0  0  0  0  0
   -0.2840    1.0210    0.5300 C   0  0  0  0  0  0  0  0  0  0  0  0
   -1.2770    0.8600   -0.6100 C   0  0  0  0  0  0  0  0  0  0  0  0
   -1.0410   -0.3450   -1.3850 N   0  0  0  0  0  0  0  0  0  0  0  0
   -2.3750   -0.9060   -1.7370 C   0  0  2  0  0  0  0  0  0  0  0  0
   -2.9940   -1.4730   -0.4740 C   0  0  0  0  0  0  0  0  0  0  0  0
   -2.1710   -2.0590   -2.6860 C   0  0  0  0  0  0  0  0  0  0  0  0
   -3.5320   -2.6320   -3.0310 C   0  0  0  0  0  0  0  0  0  0  0  0
   -3.4100   -3.7560   -3.9430 N   0  0  0  0  0  0  0  0  0  0  0  0
   -4.7350   -4.2760   -4.1890 C   0  0  0  0  0  0  0  0  0  0  0  0
   -2.5680   -4.7990   -3.4520 C   0  0  0  0  0  0  0  0  0  0  0  0
   -4.2220    5.2910    1.0190 C   0  0  0  0  0  0  0  0  0  0  0  0
  1  2  1  0
  2  3  2  0
  2 41  1  0
  3  4  1  0
  4  5  1  0
  4  6  2  0
  6  7  1  0
  7  8  1  0
  7 41  2  0
  8  9  2  0
  8 10  1  0
 10 11  1  0
 11 12  1  0
 11 31  2  0
 12 13  1  0
 13 14  1  0
 13 30  2  0
 14 15  2  0
 14 16  1  0
 17 16  1  6
 17 18  1  0
 17 29  1  0
 19 18  1  1
 19 20  2  0
 19 21  2  0
 19 22  1  0
 22 23  1  0
 23 24  2  0
 23 29  1  0
 24 25  1  0
 25 26  1  0
 25 27  2  0
 27 28  1  0
 28 29  2  0
 30 31  1  0
 31 32  1  0
 32 33  1  0
 33 34  1  0
 34 35  1  1
 34 36  1  0
 36 37  1  0
 37 38  1  0
 38 39  1  0
 38 40  1  0
M  CHG  1  33   1
M  END
