
     RDKit          3D

 41 45  0  0  0  0  0  0  0  0999 V2000
    6.9190   -4.3610    0.6150 C   0  0  0  0  0  0  0  0  0  0  0  0
    5.7960   -3.7020    0.4930 C   0  0  0  0  0  0  0  0  0  0  0  0
    4.6580   -4.3310    0.0160 O   0  0  0  0  0  0  0  0  0  0  0  0
    3.4770   -3.7760   -0.3420 C   0  0  0  0  0  0  0  0  0  0  0  0
    3.2030   -2.4270    0.2780 C   0  0  0  0  0  0  0  0  0  0  0  0
    1.9890   -1.8170    0.3280 C   0  0  0  0  0  0  0  0  0  0  0  0
    1.8650   -0.5800    0.8060 C   0  0  0  0  0  0  0  0  0  0  0  0
    0.7960    0.3680    1.0110 C   0  0  0  0  0  0  0  0  0  0  0  0
    0.6400    1.2580   -0.1150 N   0  0  0  0  0  0  0  0  0  0  0  0
    1.5060    2.4460   -0.1530 C   0  0  0  0  0  0  0  0  0  0  0  0
    0.7650    3.6880    0.1330 C   0  0  0  0  0  0  0  0  0  0  0  0
    1.2970    4.6160    0.9850 C   0  0  0  0  0  0  0  0  0  0  0  0
    0.5880    5.7800    1.1790 C   0  0  0  0  0  0  0  0  0  0  0  0
    1.0580    6.8770    2.0750 C   0  0  0  0  0  0  0  0  0  0  0  0
   -0.0400    7.6750    2.4690 O   0  0  0  0  0  0  0  0  0  0  0  0
   -0.6160    5.9780    0.5240 C   0  0  0  0  0  0  0  0  0  0  0  0
   -1.1030    5.0070   -0.3220 C   0  0  0  0  0  0  0  0  0  0  0  0
   -0.4110    3.8850   -0.5040 N   0  0  0  0  0  0  0  0  0  0  0  0
   -0.2460    1.0230   -1.1960 C   0  0  0  0  0  0  0  0  0  0  0  0
   -0.3260    1.9280   -2.0950 O   0  0  0  0  0  0  0  0  0  0  0  0
   -1.0800   -0.1570   -1.3370 C   0  0  1  0  0  0  0  0  0  0  0  0
   -2.2550   -0.0790   -0.4170 N   0  0  0  0  0  0  0  0  0  0  0  0
   -3.1950   -1.1080   -0.5550 C   0  0  0  0  0  0  0  0  0  0  0  0
   -3.0420   -1.9890   -1.4430 O   0  0  0  0  0  0  0  0  0  0  0  0
   -4.3500   -1.2200    0.2650 N   0  0  0  0  0  0  0  0  0  0  0  0
   -5.3430   -2.2510    0.0220 C   0  0  2  0  0  0  0  0  0  0  0  0
   -6.7290   -1.7300    0.1890 C   0  0  0  0  0  0  0  0  0  0  0  0
   -6.8830   -1.8220    1.7130 C   0  0  0  0  0  0  0  0  0  0  0  0
   -6.3620   -3.2360    1.9660 C   0  0  0  0  0  0  0  0  0  0  0  0
   -5.2400   -3.4240    0.9610 C   0  0  0  0  0  0  0  0  0  0  0  0
   -1.8690    0.1370   -2.6540 C   0  0  0  0  0  0  0  0  0  0  0  0
   -1.9320   -0.4400   -3.8140 C   0  0  0  0  0  0  0  0  0  0  0  0
   -2.7430    0.0890   -4.7780 C   0  0  0  0  0  0  0  0  0  0  0  0
   -3.4490    1.1960   -4.5010 C   0  0  0  0  0  0  0  0  0  0  0  0
   -2.9500    1.5320   -2.7460 S   0  0  0  0  0  0  0  0  0  0  0  0
    3.6220   -0.1680    1.2600 S   0  0  0  0  0  0  0  0  0  0  0  0
    4.2710   -1.7210    0.7390 C   0  0  0  0  0  0  0  0  0  0  0  0
    5.6900   -2.3190    0.8790 C   0  0  0  0  0  0  0  0  0  0  0  0
    6.5560   -1.3730    0.9360 C   0  0  0  0  0  0  0  0  0  0  0  0
    7.9150   -1.1710    0.6370 C   0  0  0  0  0  0  0  0  0  0  0  0
    8.6980   -1.9480   -0.1450 N   0  0  0  0  0  0  0  0  0  0  0  0
  1  2  2  0
  2  3  1  0
  2 38  1  0
  3  4  1  0
  4  5  1  0
  5  6  1  0
  5 37  2  0
  6  7  2  0
  7  8  1  0
  7 36  1  0
  8  9  1  0
  9 10  1  0
  9 19  1  0
 10 11  1  0
 11 12  2  0
 11 18  1  0
 12 13  1  0
 13 14  1  0
 13 16  2  0
 14 15  1  0
 16 17  1  0
 17 18  2  0
 19 20  2  0
 19 21  1  0
 21 22  1  1
 21 31  1  0
 22 23  1  0
 23 24  2  0
 23 25  1  0
 26 25  1  1
 26 27  1  0
 26 30  1  0
 27 28  1  0
 28 29  1  0
 29 30  1  0
 31 32  2  0
 31 35  1  0
 32 33  1  0
 33 34  2  0
 34 35  1  0
 36 37  1  0
 37 38  1  0
 38 39  2  3
 39 40  1  0
 40 41  2  0
M  CHG  1  41   1
M  END
