
     RDKit          3D

 40 43  0  0  0  0  0  0  0  0999 V2000
   -5.8450   -3.0970   -0.8030 C   0  0  0  0  0  0  0  0  0  0  0  0
   -4.8750   -4.0240   -0.1810 C   0  0  0  0  0  0  0  0  0  0  0  0
   -3.8460   -3.5630    0.4980 C   0  0  0  0  0  0  0  0  0  0  0  0
   -3.5620   -2.1270    0.7040 C   0  0  0  0  0  0  0  0  0  0  0  0
   -2.2110   -1.7160    0.1460 C   0  0  1  0  0  0  0  0  0  0  0  0
   -2.0650   -1.9300   -1.2510 N   0  0  0  0  0  0  0  0  0  0  0  0
   -1.6070   -3.1910   -1.6860 C   0  0  0  0  0  0  0  0  0  0  0  0
   -0.2040   -3.5730   -1.3240 C   0  0  1  0  0  0  0  0  0  0  0  0
    0.8090   -2.6620   -1.8240 C   0  0  0  0  0  0  0  0  0  0  0  0
    1.8470   -2.2260   -1.0770 C   0  0  0  0  0  0  0  0  0  0  0  0
    2.9650   -1.1350   -1.8610 S   0  0  1  0  0  0  0  0  0  0  0  0
    4.3570   -1.4750   -1.5210 O   0  0  0  0  0  0  0  0  0  0  0  0
    2.8690   -1.4440   -3.4010 O   0  0  0  0  0  0  0  0  0  0  0  0
    2.4820    0.4800   -1.6400 N   0  0  0  0  0  0  0  0  0  0  0  0
    3.1150    1.5280   -0.9840 C   0  0  0  0  0  0  0  0  0  0  0  0
    2.4620    2.3910   -0.1090 C   0  0  0  0  0  0  0  0  0  0  0  0
    3.1030    3.4240    0.5410 C   0  0  0  0  0  0  0  0  0  0  0  0
    4.4550    3.6360    0.3320 C   0  0  0  0  0  0  0  0  0  0  0  0
    5.1390    4.7550    1.0410 C   0  0  0  0  0  0  0  0  0  0  0  0
    5.1260    2.7950   -0.5300 C   0  0  0  0  0  0  0  0  0  0  0  0
    4.4810    1.7660   -1.1760 C   0  0  0  0  0  0  0  0  0  0  0  0
    2.0300   -2.6480    0.2960 C   0  0  0  0  0  0  0  0  0  0  0  0
    3.0330   -2.2430    1.2310 C   0  0  0  0  0  0  0  0  0  0  0  0
    4.1230   -1.2970    1.1730 C   0  0  0  0  0  0  0  0  0  0  0  0
    2.9730   -2.8370    2.4020 O   0  0  0  0  0  0  0  0  0  0  0  0
    1.1040   -3.5080    0.8020 C   0  0  0  0  0  0  0  0  0  0  0  0
    1.2080   -3.9820    2.1520 N   0  0  0  0  0  0  0  0  0  0  0  0
    0.0210   -3.9150    0.0330 N   0  0  0  0  0  0  0  0  0  0  0  0
   -2.0610   -0.1950    0.3510 C   0  0  0  0  0  0  0  0  0  0  0  0
   -1.5510    0.6250    0.9680 N   0  0  0  0  0  0  0  0  0  0  0  0
   -1.6680    1.9360    0.8710 C   0  0  0  0  0  0  0  0  0  0  0  0
   -2.5050    2.3810   -0.0860 C   0  0  0  0  0  0  0  0  0  0  0  0
   -3.0920    0.8430   -0.8140 S   0  0  0  0  0  0  0  0  0  0  0  0
   -2.8010    3.6500   -0.3960 C   0  0  0  0  0  0  0  0  0  0  0  0
   -3.7570    3.9630   -1.4950 C   0  0  0  0  0  0  0  0  0  0  0  0
   -2.1600    4.7120    0.3690 C   0  0  0  0  0  0  0  0  0  0  0  0
   -2.4310    5.8940    0.0720 O   0  0  0  0  0  0  0  0  0  0  0  0
   -1.2380    4.3120    1.4400 C   0  0  0  0  0  0  0  0  0  0  0  0
   -1.0490    2.8630    1.6130 C   0  0  0  0  0  0  0  0  0  0  0  0
   -0.0830    2.4670    2.7120 C   0  0  0  0  0  0  0  0  0  0  0  0
  1  2  1  0
  2  3  2  3
  3  4  1  0
  5  4  1  6
  5  6  1  0
  5 29  1  0
  6  7  1  0
  8  7  1  1
  8  9  1  0
  8 28  1  0
  9 10  2  0
 10 11  1  0
 10 22  1  0
 11 12  2  0
 11 13  2  0
 11 14  1  6
 14 15  1  0
 15 16  2  0
 15 21  1  0
 16 17  1  0
 17 18  2  0
 18 19  1  0
 18 20  1  0
 20 21  2  0
 22 23  1  0
 22 26  2  0
 23 24  1  0
 23 25  2  0
 26 27  1  0
 26 28  1  0
 29 30  2  0
 29 33  1  0
 30 31  1  0
 31 32  1  0
 31 39  2  0
 32 33  1  0
 32 34  2  0
 34 35  1  0
 34 36  1  0
 36 37  2  0
 36 38  1  0
 38 39  1  0
 39 40  1  0
M  CHG  1   6   1
M  END
