
     RDKit          3D

 41 45  0  0  0  0  0  0  0  0999 V2000
    2.4770    1.5060   -2.8830 C   0  0  0  0  0  0  0  0  0  0  0  0
    2.7750    0.4150   -1.9770 C   0  0  0  0  0  0  0  0  0  0  0  0
    1.8690   -0.0260   -1.0130 C   0  0  0  0  0  0  0  0  0  0  0  0
    0.5620    0.5310   -0.9520 C   0  0  0  0  0  0  0  0  0  0  0  0
    0.4740    1.6950   -1.5910 O   0  0  0  0  0  0  0  0  0  0  0  0
   -0.6230    0.1010   -0.3640 N   0  0  0  0  0  0  0  0  0  0  0  0
   -1.8010    1.0060   -0.3370 C   0  0  0  0  0  0  0  0  0  0  0  0
   -1.7840    1.9150    0.8130 C   0  0  0  0  0  0  0  0  0  0  0  0
   -0.8400    1.8930    1.6250 O   0  0  0  0  0  0  0  0  0  0  0  0
   -2.8470    2.8280    1.0100 N   0  0  0  0  0  0  0  0  0  0  0  0
   -2.8690    3.7440    2.1340 C   0  0  0  0  0  0  0  0  0  0  0  0
   -1.6860    4.6760    2.1450 C   0  0  1  0  0  0  0  0  0  0  0  0
   -1.8120    5.6910    1.0140 C   0  0  0  0  0  0  0  0  0  0  0  0
   -2.7990    6.6790    1.6250 C   0  0  0  0  0  0  0  0  0  0  0  0
   -2.8910    6.2730    3.0020 N   0  0  0  0  0  0  0  0  0  0  0  0
   -1.8170    5.5010    3.2600 O   0  0  0  0  0  0  0  0  0  0  0  0
   -0.9090   -1.2530    0.0550 C   0  0  1  0  0  0  0  0  0  0  0  0
   -0.9610   -1.3070    1.5360 C   0  0  0  0  0  0  0  0  0  0  0  0
   -2.6590   -0.8100    2.0420 S   0  0  0  0  0  0  0  0  0  0  0  0
   -3.6500   -2.0120    1.1730 C   0  0  0  0  0  0  0  0  0  0  0  0
   -3.2350   -2.3380   -0.0160 C   0  0  0  0  0  0  0  0  0  0  0  0
   -4.0580   -3.3400   -0.7370 C   0  0  0  0  0  0  0  0  0  0  0  0
   -5.1200   -3.8650   -0.2350 C   0  0  0  0  0  0  0  0  0  0  0  0
   -5.9380   -4.8970   -1.0200 C   0  0  0  0  0  0  0  0  0  0  0  0
   -5.3140   -5.1060   -2.2800 N   0  0  0  0  0  0  0  0  0  0  0  0
   -5.6340   -3.5300    1.1120 C   0  0  0  0  0  0  0  0  0  0  0  0
   -4.8450   -2.5370    1.8520 C   0  0  0  0  0  0  0  0  0  0  0  0
   -2.0810   -1.8160   -0.6940 C   0  0  0  0  0  0  0  0  0  0  0  0
    2.2340   -1.0650   -0.2100 N   0  0  0  0  0  0  0  0  0  0  0  0
    3.4480   -1.6520   -0.3570 C   0  0  0  0  0  0  0  0  0  0  0  0
    3.7480   -2.6130    0.4040 O   0  0  0  0  0  0  0  0  0  0  0  0
    4.3780   -1.2570   -1.2930 C   0  0  0  0  0  0  0  0  0  0  0  0
    5.9610   -2.0680   -1.4400 S   0  0  0  0  0  0  0  0  0  0  0  0
    7.1880   -1.3120   -0.3990 C   0  0  0  0  0  0  0  0  0  0  0  0
    8.4580   -1.8310   -0.4070 C   0  0  0  0  0  0  0  0  0  0  0  0
    9.4280   -1.2620    0.3920 C   0  0  0  0  0  0  0  0  0  0  0  0
    9.1740   -0.1820    1.2070 C   0  0  0  0  0  0  0  0  0  0  0  0
    7.8880    0.3100    1.1860 C   0  0  0  0  0  0  0  0  0  0  0  0
    6.8950   -0.2350    0.4000 C   0  0  0  0  0  0  0  0  0  0  0  0
    3.9970   -0.2020   -2.0970 C   0  0  0  0  0  0  0  0  0  0  0  0
    4.9600    0.2590   -3.1140 C   0  0  0  0  0  0  0  0  0  0  0  0
  1  2  1  0
  2  3  2  0
  2 40  1  0
  3  4  1  0
  3 29  1  0
  4  5  2  0
  4  6  1  0
  6  7  1  0
 17  6  1  1
  7  8  1  0
  8  9  2  0
  8 10  1  0
 10 11  1  0
 12 11  1  6
 12 13  1  0
 12 16  1  0
 13 14  1  0
 14 15  1  0
 15 16  1  0
 17 18  1  0
 17 28  1  0
 18 19  1  0
 19 20  1  0
 20 21  2  0
 20 27  1  0
 21 22  1  0
 21 28  1  0
 22 23  2  0
 23 24  1  0
 23 26  1  0
 24 25  1  0
 26 27  1  0
 29 30  1  0
 30 31  2  0
 30 32  1  0
 32 33  1  0
 32 40  2  0
 33 34  1  0
 34 35  2  0
 34 39  1  0
 35 36  1  0
 36 37  2  0
 37 38  1  0
 38 39  2  0
 40 41  1  0
M  CHG  1  25   1
M  END
