
     RDKit          3D

 41 45  0  0  0  0  0  0  0  0999 V2000
   -6.5140   -5.1900   -1.1790 C   0  0  0  0  0  0  0  0  0  0  0  0
   -6.1370   -3.7620   -0.9100 C   0  0  0  0  0  0  0  0  0  0  0  0
   -4.8460   -3.4860   -0.4990 C   0  0  0  0  0  0  0  0  0  0  0  0
   -4.4300   -2.1820   -0.2080 C   0  0  0  0  0  0  0  0  0  0  0  0
   -3.0860   -2.0170    0.2830 C   0  0  0  0  0  0  0  0  0  0  0  0
   -2.1510   -2.4590   -0.4590 O   0  0  0  0  0  0  0  0  0  0  0  0
   -2.7310   -1.4200    1.5140 N   0  0  0  0  0  0  0  0  0  0  0  0
   -1.3330   -1.3080    1.8910 C   0  0  0  0  0  0  0  0  0  0  0  0
   -0.5520   -0.3730    0.9960 C   0  0  2  0  0  0  0  0  0  0  0  0
    0.8870   -0.4190    1.5080 C   0  0  0  0  0  0  0  0  0  0  0  0
    1.7940    0.4850    0.7510 C   0  0  0  0  0  0  0  0  0  0  0  0
    1.9080    0.2400   -0.6440 N   0  0  0  0  0  0  0  0  0  0  0  0
    2.5690   -0.9760   -1.0160 C   0  0  0  0  0  0  0  0  0  0  0  0
    4.0140   -0.9460   -0.7890 C   0  0  0  0  0  0  0  0  0  0  0  0
    4.8340    0.1130   -1.1020 C   0  0  0  0  0  0  0  0  0  0  0  0
    6.1620    0.0280   -0.8490 C   0  0  0  0  0  0  0  0  0  0  0  0
    6.7780   -1.1030   -0.2730 C   0  0  0  0  0  0  0  0  0  0  0  0
    5.9340   -2.1420    0.0240 C   0  0  0  0  0  0  0  0  0  0  0  0
    4.5810   -2.0890   -0.2180 C   0  0  0  0  0  0  0  0  0  0  0  0
    7.0090   -3.4310    0.7080 S   0  0  0  0  0  0  0  0  0  0  0  0
    8.5490   -2.7530   -0.0580 C   0  0  0  0  0  0  0  0  0  0  0  0
    8.1800   -1.2920    0.0530 C   0  0  1  0  0  0  0  0  0  0  0  0
    9.0350   -0.4880   -0.8970 C   0  0  0  0  0  0  0  0  0  0  0  0
   -1.0790    0.9810    1.2750 N   0  0  0  0  0  0  0  0  0  0  0  0
   -1.4350    1.8710    0.2610 C   0  0  0  0  0  0  0  0  0  0  0  0
   -1.3230    1.5460   -0.9530 O   0  0  0  0  0  0  0  0  0  0  0  0
   -1.9490    3.2200    0.5700 C   0  0  0  0  0  0  0  0  0  0  0  0
   -2.8360    3.4750    1.5830 C   0  0  0  0  0  0  0  0  0  0  0  0
   -3.2780    4.7730    1.8290 C   0  0  0  0  0  0  0  0  0  0  0  0
   -2.8030    5.7920    1.0360 C   0  0  0  0  0  0  0  0  0  0  0  0
   -1.9060    5.5540    0.0080 C   0  0  0  0  0  0  0  0  0  0  0  0
   -1.3450    6.9000   -0.9540 S   0  0  1  0  0  0  0  0  0  0  0  0
    0.1680    6.9930   -0.7580 O   0  0  0  0  0  0  0  0  0  0  0  0
   -1.6040    6.5930   -2.3960 O   0  0  0  0  0  0  0  0  0  0  0  0
   -1.4950    4.2690   -0.2060 C   0  0  0  0  0  0  0  0  0  0  0  0
   -5.3290   -1.1600   -0.3370 C   0  0  0  0  0  0  0  0  0  0  0  0
   -5.2330    0.1850   -0.1470 N   0  0  0  0  0  0  0  0  0  0  0  0
   -6.3800    0.7520   -0.4150 N   0  0  0  0  0  0  0  0  0  0  0  0
   -7.2710   -0.2000   -0.7910 C   0  0  0  0  0  0  0  0  0  0  0  0
   -6.6440   -1.4140   -0.7530 C   0  0  0  0  0  0  0  0  0  0  0  0
   -7.0160   -2.7280   -1.0320 C   0  0  0  0  0  0  0  0  0  0  0  0
  1  2  1  0
  2  3  2  0
  2 41  1  0
  3  4  1  0
  4  5  1  0
  4 36  2  0
  5  6  2  0
  5  7  1  0
  7  8  1  0
  9  8  1  1
  9 10  1  0
  9 24  1  0
 10 11  1  0
 11 12  1  0
 12 13  1  0
 13 14  1  0
 14 15  2  0
 14 19  1  0
 15 16  1  0
 16 17  2  0
 17 18  1  0
 17 22  1  0
 18 19  2  0
 18 20  1  0
 20 21  1  0
 21 22  1  0
 22 23  1  6
 24 25  1  0
 25 26  2  0
 25 27  1  0
 27 28  2  0
 27 35  1  0
 28 29  1  0
 29 30  2  0
 30 31  1  0
 32 31  1  1
 31 35  2  0
 32 33  2  0
 32 34  2  0
 36 37  1  0
 36 40  1  0
 37 38  1  0
 38 39  2  0
 39 40  1  0
 40 41  2  0
M  CHG  1  12   1
M  END
