
     RDKit          3D

 41 45  0  0  0  0  0  0  0  0999 V2000
   -3.1250    3.3720    3.3200 N   0  0  0  0  0  0  0  0  0  0  0  0
   -2.9080    3.1040    1.9240 C   0  0  0  0  0  0  0  0  0  0  0  0
   -2.4590    1.6730    1.7080 C   0  0  0  0  0  0  0  0  0  0  0  0
   -1.4300    1.1040    2.5010 N   0  0  0  0  0  0  0  0  0  0  0  0
   -0.2290    0.5220    1.9960 C   0  0  0  0  0  0  0  0  0  0  0  0
    0.7820    1.4970    1.5120 C   0  0  0  0  0  0  0  0  0  0  0  0
    0.7850    2.8610    1.5250 C   0  0  0  0  0  0  0  0  0  0  0  0
    1.9750    3.3200    0.9850 C   0  0  0  0  0  0  0  0  0  0  0  0
    2.3590    4.7170    0.8230 C   0  0  0  0  0  0  0  0  0  0  0  0
    1.5050    5.7150    1.2230 C   0  0  0  0  0  0  0  0  0  0  0  0
    1.8550    7.0410    1.0760 C   0  0  0  0  0  0  0  0  0  0  0  0
    3.0780    7.3970    0.5200 C   0  0  0  0  0  0  0  0  0  0  0  0
    3.9250    6.3780    0.1230 C   0  0  0  0  0  0  0  0  0  0  0  0
    3.5630    5.0600    0.2760 C   0  0  0  0  0  0  0  0  0  0  0  0
    2.6790    2.2030    0.6500 N   0  0  0  0  0  0  0  0  0  0  0  0
    2.0020    1.1020    0.9490 C   0  0  0  0  0  0  0  0  0  0  0  0
    2.4010   -0.2980    0.7480 C   0  0  0  0  0  0  0  0  0  0  0  0
    3.6910   -0.3930    0.1600 N   0  0  0  0  0  0  0  0  0  0  0  0
    4.3250   -1.6370   -0.1620 C   0  0  0  0  0  0  0  0  0  0  0  0
    3.6430   -2.8010    0.0970 C   0  0  0  0  0  0  0  0  0  0  0  0
    4.2760   -3.9960   -0.2220 C   0  0  0  0  0  0  0  0  0  0  0  0
    5.5210   -4.0240   -0.7690 C   0  0  0  0  0  0  0  0  0  0  0  0
    6.2040   -2.8690   -1.0280 C   0  0  0  0  0  0  0  0  0  0  0  0
    5.5610   -1.6780   -0.7050 C   0  0  0  0  0  0  0  0  0  0  0  0
    7.5250   -3.0440   -1.6210 C   0  0  0  0  0  0  0  0  0  0  0  0
    8.0890   -4.3800   -1.2840 C   0  0  0  0  0  0  0  0  0  0  0  0
    6.5570   -5.3420   -1.2550 S   0  0  1  0  0  0  0  0  0  0  0  0
    6.6380   -6.4310   -0.2600 O   0  0  0  0  0  0  0  0  0  0  0  0
    6.2220   -5.8270   -2.6370 O   0  0  0  0  0  0  0  0  0  0  0  0
   -3.0120    0.9690    0.7930 N   0  0  0  0  0  0  0  0  0  0  0  0
   -2.7710   -0.3780    0.4090 C   0  0  0  0  0  0  0  0  0  0  0  0
   -4.0800   -0.8710   -0.2660 C   0  0  1  0  0  0  0  0  0  0  0  0
   -4.3490   -0.0010   -1.4440 C   0  0  0  0  0  0  0  0  0  0  0  0
   -4.9690   -0.7470   -2.6050 C   0  0  0  0  0  0  0  0  0  0  0  0
   -6.2740   -1.4030   -2.2120 C   0  0  0  0  0  0  0  0  0  0  0  0
   -6.1150   -2.8360   -1.8120 C   0  0  2  0  0  0  0  0  0  0  0  0
   -7.7360   -3.5490   -1.6660 S   0  0  1  0  0  0  0  0  0  0  0  0
   -8.1500   -3.6600   -0.2190 O   0  0  0  0  0  0  0  0  0  0  0  0
   -8.7740   -2.6850   -2.3420 O   0  0  0  0  0  0  0  0  0  0  0  0
   -5.4450   -2.8870   -0.4560 C   0  0  0  0  0  0  0  0  0  0  0  0
   -4.0370   -2.3350   -0.5500 C   0  0  0  0  0  0  0  0  0  0  0  0
  1  2  1  0
  2  3  1  0
  3  4  1  0
  3 30  2  3
  4  5  1  0
  5  6  1  0
  6  7  1  0
  6 16  2  0
  7  8  2  0
  8  9  1  0
  8 15  1  0
  9 10  2  0
  9 14  1  0
 10 11  1  0
 11 12  2  0
 12 13  1  0
 13 14  2  0
 15 16  1  0
 16 17  1  0
 17 18  1  0
 18 19  1  0
 19 20  2  0
 19 24  1  0
 20 21  1  0
 21 22  2  0
 22 23  1  0
 22 27  1  0
 23 24  2  0
 23 25  1  0
 25 26  1  0
 27 26  1  6
 27 28  2  0
 27 29  2  0
 30 31  1  0
 32 31  1  6
 32 33  1  0
 32 41  1  0
 33 34  1  0
 34 35  1  0
 36 35  1  1
 37 36  1  1
 36 40  1  0
 37 38  2  0
 37 39  2  0
 40 41  1  0
M  CHG  1  30   1
M  END
