
     RDKit          3D

 41 45  0  0  0  0  0  0  0  0999 V2000
    2.6580   -0.2710   -2.4170 C   0  0  0  0  0  0  0  0  0  0  0  0
    1.8010    0.8560   -2.2970 N   0  0  0  0  0  0  0  0  0  0  0  0
    1.7270    1.4620   -1.0120 C   0  0  0  0  0  0  0  0  0  0  0  0
    0.9260    0.6350   -0.0260 C   0  0  0  0  0  0  0  0  0  0  0  0
    1.5500   -0.3230    0.8170 C   0  0  0  0  0  0  0  0  0  0  0  0
    2.8520   -0.4930    0.8450 C   0  0  0  0  0  0  0  0  0  0  0  0
    3.4870   -1.5230    1.7530 C   0  0  0  0  0  0  0  0  0  0  0  0
    4.3830   -2.6810    0.6700 S   0  0  0  0  0  0  0  0  0  0  0  0
    5.7720   -1.8290   -0.1480 C   0  0  0  0  0  0  0  0  0  0  0  0
    6.7710   -1.4490    0.9260 C   0  0  0  0  0  0  0  0  0  0  0  0
    7.9410   -0.7400    0.3340 C   0  0  0  0  0  0  0  0  0  0  0  0
    7.9880    0.6400    0.1820 C   0  0  0  0  0  0  0  0  0  0  0  0
    9.2020    0.9220   -0.3890 C   0  0  0  0  0  0  0  0  0  0  0  0
    9.7480    2.1390   -0.7490 C   0  0  0  0  0  0  0  0  0  0  0  0
   11.0130    2.1290   -1.3150 C   0  0  0  0  0  0  0  0  0  0  0  0
   11.7280    0.9610   -1.5240 C   0  0  0  0  0  0  0  0  0  0  0  0
   11.1510   -0.2230   -1.1530 C   0  0  0  0  0  0  0  0  0  0  0  0
    9.8820   -0.2650   -0.5810 C   0  0  0  0  0  0  0  0  0  0  0  0
    9.0840   -1.2550   -0.1290 N   0  0  0  0  0  0  0  0  0  0  0  0
   -0.3880    0.8110   -0.0120 C   0  0  0  0  0  0  0  0  0  0  0  0
   -1.2090    1.9770   -1.1120 S   0  0  0  0  0  0  0  0  0  0  0  0
   -2.8540    1.6510   -0.5180 C   0  0  0  0  0  0  0  0  0  0  0  0
   -4.1780    1.9660   -0.6460 N   0  0  0  0  0  0  0  0  0  0  0  0
   -4.8620    1.2260    0.2370 C   0  0  0  0  0  0  0  0  0  0  0  0
   -6.3050    1.2540    0.4300 C   0  0  0  0  0  0  0  0  0  0  0  0
   -7.0080    2.0310   -0.2780 O   0  0  0  0  0  0  0  0  0  0  0  0
   -6.9630    0.4720    1.3510 O   0  0  0  0  0  0  0  0  0  0  0  0
   -8.3220    0.4140    1.6070 C   0  0  0  0  0  0  0  0  0  0  0  0
   -9.1740   -0.0500    0.4960 C   0  0  0  0  0  0  0  0  0  0  0  0
   -8.6970   -0.4660   -0.7270 C   0  0  0  0  0  0  0  0  0  0  0  0
   -9.5600   -0.9060   -1.7180 C   0  0  0  0  0  0  0  0  0  0  0  0
  -10.9240   -0.9580   -1.5540 C   0  0  0  0  0  0  0  0  0  0  0  0
  -11.7640   -1.4150   -2.5970 N   0  0  0  0  0  0  0  0  0  0  0  0
  -11.4050   -0.5420   -0.3310 C   0  0  0  0  0  0  0  0  0  0  0  0
  -10.5630   -0.1000    0.6690 C   0  0  0  0  0  0  0  0  0  0  0  0
  -11.0740    0.3150    1.9000 O   0  0  0  0  0  0  0  0  0  0  0  0
   -3.9310    0.4560    0.9030 C   0  0  0  0  0  0  0  0  0  0  0  0
   -4.3460   -0.4930    1.9640 C   0  0  0  0  0  0  0  0  0  0  0  0
   -2.6580    0.7280    0.4220 N   0  0  0  0  0  0  0  0  0  0  0  0
   -1.4350    0.3080    0.6760 C   0  0  0  0  0  0  0  0  0  0  0  0
   -1.1720   -0.6000    1.5910 O   0  0  0  0  0  0  0  0  0  0  0  0
  1  2  1  0
  2  3  1  0
  3  4  1  0
  4  5  1  0
  4 20  2  3
  5  6  2  3
  6  7  1  0
  7  8  1  0
  8  9  1  0
  9 10  1  0
 10 11  1  0
 11 12  2  0
 11 19  1  0
 12 13  1  0
 13 14  2  0
 13 18  1  0
 14 15  1  0
 15 16  2  0
 16 17  1  0
 17 18  2  0
 18 19  1  0
 20 21  1  0
 20 40  1  0
 21 22  1  0
 22 23  2  0
 22 39  1  0
 23 24  1  0
 24 25  1  0
 24 37  2  0
 25 26  2  0
 25 27  1  0
 27 28  1  0
 28 29  1  0
 29 30  2  0
 29 35  1  0
 30 31  1  0
 31 32  2  0
 32 33  1  0
 32 34  1  0
 34 35  2  0
 35 36  1  0
 37 38  1  0
 37 39  1  0
 39 40  1  0
 40 41  2  0
M  CHG  1   2   1
M  END
