
     RDKit          3D

 31 32  0  0  0  0  0  0  0  0999 V2000
    8.0640    0.5770    1.6430 C   0  0  0  0  0  0  0  0  0  0  0  0
    6.7470   -0.1990    1.5600 C   0  0  2  0  0  0  0  0  0  0  0  0
    7.1480   -1.6650    1.5440 C   0  0  0  0  0  0  0  0  0  0  0  0
    6.0920    0.1980    0.2710 C   0  0  0  0  0  0  0  0  0  0  0  0
    4.7970   -0.4430    0.0170 C   0  0  0  0  0  0  0  0  0  0  0  0
    4.2210   -1.3100    0.9140 C   0  0  0  0  0  0  0  0  0  0  0  0
    3.0000   -1.8740    0.5930 C   0  0  0  0  0  0  0  0  0  0  0  0
    2.3860   -1.5660   -0.6000 C   0  0  0  0  0  0  0  0  0  0  0  0
    1.2620   -2.0860   -0.8940 O   0  0  0  0  0  0  0  0  0  0  0  0
    2.9840   -0.7100   -1.4540 N   0  0  0  0  0  0  0  0  0  0  0  0
    2.3110   -0.4230   -2.6720 C   0  0  0  0  0  0  0  0  0  0  0  0
    2.8200   -1.1760   -4.0250 S   0  0  0  0  0  0  0  0  0  0  0  0
    0.9540    0.7040   -2.8020 S   0  0  0  0  0  0  0  0  0  0  0  0
    0.5390    1.4340   -1.1820 C   0  0  0  0  0  0  0  0  0  0  0  0
   -0.6110    2.3930   -1.3140 C   0  0  1  0  0  0  0  0  0  0  0  0
   -0.1770    3.3820   -2.2330 O   0  0  0  0  0  0  0  0  0  0  0  0
   -1.8850    1.8170   -1.8010 C   0  0  0  0  0  0  0  0  0  0  0  0
   -2.4810    0.8060   -0.9510 N   0  0  0  0  0  0  0  0  0  0  0  0
   -2.2270   -0.6080   -1.1290 C   0  0  0  0  0  0  0  0  0  0  0  0
   -3.1010   -1.2700   -2.1050 C   0  0  0  0  0  0  0  0  0  0  0  0
   -2.9170   -2.6630   -2.3130 N   0  0  0  0  0  0  0  0  0  0  0  0
   -3.9940   -0.7000   -2.7660 O   0  0  0  0  0  0  0  0  0  0  0  0
   -3.3640    1.2460    0.0740 C   0  0  0  0  0  0  0  0  0  0  0  0
   -3.5570    2.5110    0.1550 O   0  0  0  0  0  0  0  0  0  0  0  0
   -4.0590    0.3660    1.0350 C   0  0  2  0  0  0  0  0  0  0  0  0
   -5.1770   -0.3770    0.3090 C   0  0  0  0  0  0  0  0  0  0  0  0
   -6.3650   -0.3520    1.2350 C   0  0  2  0  0  0  0  0  0  0  0  0
   -7.3570    0.5490    0.6500 N   0  0  0  0  0  0  0  0  0  0  0  0
   -5.8250    0.2290    2.5040 C   0  0  0  0  0  0  0  0  0  0  0  0
   -4.7880    1.1370    2.0360 N   0  0  0  0  0  0  0  0  0  0  0  0
    4.1450   -0.1840   -1.1300 N   0  0  0  0  0  0  0  0  0  0  0  0
  2  1  1  6
  2  3  1  0
  2  4  1  0
  4  5  1  0
  5  6  1  0
  5 31  2  0
  6  7  2  0
  7  8  1  0
  8  9  2  0
  8 10  1  0
 10 11  1  0
 10 31  1  0
 11 12  2  0
 11 13  1  0
 13 14  1  0
 14 15  1  0
 15 16  1  6
 15 17  1  0
 17 18  1  0
 18 19  1  0
 18 23  1  0
 19 20  1  0
 20 21  1  0
 20 22  2  0
 23 24  2  0
 25 23  1  6
 25 26  1  0
 25 30  1  0
 26 27  1  0
 27 28  1  6
 27 29  1  0
 29 30  1  0
M  CHG  1  28   1
M  END
