
     RDKit          3D

 30 32  0  0  0  0  0  0  0  0999 V2000
   -6.6920   -0.5270   -2.2840 C   0  0  0  0  0  0  0  0  0  0  0  0
   -5.8970   -0.6050   -0.9600 C   0  0  0  0  0  0  0  0  0  0  0  0
   -4.9290    0.3340   -1.0560 O   0  0  0  0  0  0  0  0  0  0  0  0
   -4.0560    0.4810    0.0200 C   0  0  2  0  0  0  0  0  0  0  0  0
   -4.8360    0.9270    1.1990 C   0  0  0  0  0  0  0  0  0  0  0  0
   -4.3250    1.0720    2.5070 N   0  0  0  0  0  0  0  0  0  0  0  0
   -6.0640    1.2050    1.0430 O   0  0  0  0  0  0  0  0  0  0  0  0
   -3.1440    1.6100   -0.3800 C   0  0  0  0  0  0  0  0  0  0  0  0
   -1.7550    1.5510    0.1170 C   0  0  1  0  0  0  0  0  0  0  0  0
   -1.3910    2.8270    0.8920 C   0  0  0  0  0  0  0  0  0  0  0  0
   -1.4020    0.4080    0.9970 C   0  0  0  0  0  0  0  0  0  0  0  0
   -2.0010   -0.9040    0.6460 C   0  0  2  0  0  0  0  0  0  0  0  0
   -1.1660   -1.6720   -0.3620 C   0  0  0  0  0  0  0  0  0  0  0  0
    0.1830   -1.9590    0.1260 C   0  0  0  0  0  0  0  0  0  0  0  0
    0.2660   -2.6250    1.2220 O   0  0  0  0  0  0  0  0  0  0  0  0
    1.3930   -1.5840   -0.4730 N   0  0  0  0  0  0  0  0  0  0  0  0
    1.5210   -0.8230   -1.6940 C   0  0  0  0  0  0  0  0  0  0  0  0
    2.1920    0.4920   -1.2720 C   0  0  0  0  0  0  0  0  0  0  0  0
    3.4700    0.1750   -0.5860 C   0  0  0  0  0  0  0  0  0  0  0  0
    4.5620    0.7610   -0.9630 C   0  0  0  0  0  0  0  0  0  0  0  0
    5.8680    0.5440   -0.3920 C   0  0  0  0  0  0  0  0  0  0  0  0
    6.4790    1.5580    0.2730 N   0  0  0  0  0  0  0  0  0  0  0  0
    7.7020    1.4000    0.7760 C   0  0  0  0  0  0  0  0  0  0  0  0
    8.4000    0.2160    0.6500 C   0  0  0  0  0  0  0  0  0  0  0  0
    7.7860   -0.8130   -0.0220 C   0  0  0  0  0  0  0  0  0  0  0  0
    6.5210   -0.6440   -0.5420 C   0  0  0  0  0  0  0  0  0  0  0  0
    5.8660   -2.0050   -1.4350 Cl  0  0  0  0  0  0  0  0  0  0  0  0
    3.4410   -0.7540    0.5540 C   0  0  0  0  0  0  0  0  0  0  0  0
    2.6460   -1.9790    0.1740 C   0  0  0  0  0  0  0  0  0  0  0  0
   -3.3950   -0.8340    0.2170 C   0  0  0  0  0  0  0  0  0  0  0  0
  1  2  1  0
  2  3  1  0
  4  3  1  6
  4  5  1  0
  4  8  1  0
  4 30  1  0
  5  6  1  0
  5  7  2  0
  8  9  1  0
  9 10  1  1
  9 11  1  0
 11 12  1  0
 12 13  1  6
 12 30  1  0
 13 14  1  0
 14 15  2  0
 14 16  1  0
 16 17  1  0
 16 29  1  0
 17 18  1  0
 18 19  1  0
 19 20  2  3
 19 28  1  0
 20 21  1  0
 21 22  2  0
 21 26  1  0
 22 23  1  0
 23 24  2  0
 24 25  1  0
 25 26  2  0
 26 27  1  0
 28 29  1  0
M  END
