
     RDKit          3D

 31 32  0  0  0  0  0  0  0  0999 V2000
   -6.6910    2.8370   -0.7270 C   0  0  0  0  0  0  0  0  0  0  0  0
   -5.9610    1.4960   -0.6710 C   0  0  0  0  0  0  0  0  0  0  0  0
   -4.7710    1.5980   -1.5740 C   0  0  0  0  0  0  0  0  0  0  0  0
   -3.9140    0.4030   -1.6920 C   0  0  0  0  0  0  0  0  0  0  0  0
   -3.2470   -0.1380   -0.4990 C   0  0  1  0  0  0  0  0  0  0  0  0
   -2.3570    0.7220    0.1890 N   0  0  0  0  0  0  0  0  0  0  0  0
   -1.0430    0.2420    0.4260 C   0  0  1  0  0  0  0  0  0  0  0  0
   -1.0420   -1.0400    1.2330 C   0  0  0  0  0  0  0  0  0  0  0  0
    0.2760   -1.7790    1.0770 C   0  0  0  0  0  0  0  0  0  0  0  0
    1.2900   -0.7350    0.9570 N   0  0  0  0  0  0  0  0  0  0  0  0
    2.2470   -0.4790    1.9710 C   0  0  0  0  0  0  0  0  0  0  0  0
    3.4860   -0.8990    1.9450 C   0  0  0  0  0  0  0  0  0  0  0  0
    4.0860   -1.8520    0.5950 S   0  0  2  0  0  0  0  0  0  0  0  0
    2.9310   -2.6680    0.0900 O   0  0  0  0  0  0  0  0  0  0  0  0
    5.0550   -2.8360    1.1880 O   0  0  0  0  0  0  0  0  0  0  0  0
    4.7150   -0.9540   -0.6760 N   0  0  0  0  0  0  0  0  0  0  0  0
    5.8300   -0.1270   -0.4620 C   0  0  2  0  0  0  0  0  0  0  0  0
    6.1730    0.5050   -1.8270 C   0  0  0  0  0  0  0  0  0  0  0  0
    7.0830   -0.8770   -0.0530 C   0  0  0  0  0  0  0  0  0  0  0  0
    8.2050    0.5530    0.2410 S   0  0  0  0  0  0  0  0  0  0  0  0
    6.9330    1.8740    0.2350 C   0  0  0  0  0  0  0  0  0  0  0  0
    5.6730    1.0220    0.4740 C   0  0  1  0  0  0  0  0  0  0  0  0
    4.5670    1.8450    0.0730 N   0  0  0  0  0  0  0  0  0  0  0  0
    1.2830    0.0520   -0.2570 C   0  0  0  0  0  0  0  0  0  0  0  0
   -0.1710    0.0580   -0.7630 C   0  0  0  0  0  0  0  0  0  0  0  0
   -4.2360   -0.6880    0.4560 C   0  0  0  0  0  0  0  0  0  0  0  0
   -4.1320   -0.4340    1.7070 O   0  0  0  0  0  0  0  0  0  0  0  0
   -5.3360   -1.5080    0.0720 N   0  0  0  0  0  0  0  0  0  0  0  0
   -6.2740   -2.0180    1.0390 C   0  0  0  0  0  0  0  0  0  0  0  0
   -7.3630   -2.8340    0.6300 N   0  0  0  0  0  0  0  0  0  0  0  0
   -6.0730   -1.7040    2.2380 O   0  0  0  0  0  0  0  0  0  0  0  0
  1  2  1  0
  2  3  1  0
  3  4  1  0
  5  4  1  6
  5  6  1  0
  5 26  1  0
  7  6  1  6
  7  8  1  0
  7 25  1  0
  8  9  1  0
  9 10  1  0
 10 11  1  0
 10 24  1  0
 11 12  2  3
 12 13  1  0
 13 14  2  0
 13 15  2  0
 13 16  1  6
 16 17  1  0
 17 18  1  6
 17 19  1  0
 17 22  1  0
 19 20  1  0
 20 21  1  0
 21 22  1  0
 22 23  1  6
 24 25  1  0
 26 27  2  0
 26 28  1  0
 28 29  1  0
 29 30  1  0
 29 31  2  0
M  CHG  1   6   1
M  END
