
     RDKit          3D

 30 31  0  0  0  0  0  0  0  0999 V2000
   -4.3140   -1.8650   -1.9180 C   0  0  0  0  0  0  0  0  0  0  0  0
   -4.8770   -0.7410   -0.9620 C   0  0  0  0  0  0  0  0  0  0  0  0
   -3.9790   -0.0350   -0.4160 C   0  0  0  0  0  0  0  0  0  0  0  0
   -3.9990    1.0720    0.5120 C   0  0  0  0  0  0  0  0  0  0  0  0
   -2.9210    0.7720    1.5840 C   0  0  0  0  0  0  0  0  0  0  0  0
   -1.5860    0.7940    0.8830 C   0  0  0  0  0  0  0  0  0  0  0  0
   -1.5210    1.2710   -0.2610 O   0  0  0  0  0  0  0  0  0  0  0  0
   -0.4800    0.2580    1.5980 N   0  0  0  0  0  0  0  0  0  0  0  0
    0.8040    0.2310    1.0600 C   0  0  0  0  0  0  0  0  0  0  0  0
    1.1860    0.7800   -0.1000 C   0  0  0  0  0  0  0  0  0  0  0  0
    2.5190    0.6850   -0.4980 C   0  0  0  0  0  0  0  0  0  0  0  0
    3.4820    0.0470    0.2440 C   0  0  0  0  0  0  0  0  0  0  0  0
    4.8300   -0.0180   -0.1910 N   0  0  0  0  0  0  0  0  0  0  0  0
    5.0410   -1.0090   -1.2330 C   0  0  0  0  0  0  0  0  0  0  0  0
    5.6640   -2.2160   -0.6050 C   0  0  0  0  0  0  0  0  0  0  0  0
    6.7330   -1.7140    0.3580 C   0  0  0  0  0  0  0  0  0  0  0  0
    7.6180   -0.6860   -0.3090 C   0  0  0  0  0  0  0  0  0  0  0  0
    7.1290    0.7180   -0.1830 C   0  0  2  0  0  0  0  0  0  0  0  0
    8.1560    1.6190    0.4900 C   0  0  0  0  0  0  0  0  0  0  0  0
    9.6690    1.6660   -0.4380 Cl  0  0  0  0  0  0  0  0  0  0  0  0
    5.7760    0.8700    0.4380 C   0  0  0  0  0  0  0  0  0  0  0  0
    3.0720   -0.4940    1.4010 N   0  0  0  0  0  0  0  0  0  0  0  0
    1.7880   -0.4190    1.8180 C   0  0  0  0  0  0  0  0  0  0  0  0
    1.4790   -0.9530    2.9170 O   0  0  0  0  0  0  0  0  0  0  0  0
   -6.3090   -0.6790   -0.9340 C   0  0  0  0  0  0  0  0  0  0  0  0
   -6.9420   -1.6170   -1.6310 O   0  0  0  0  0  0  0  0  0  0  0  0
   -7.1990    0.2370   -0.2740 C   0  0  1  0  0  0  0  0  0  0  0  0
   -8.6500   -0.1600   -0.7250 C   0  0  0  0  0  0  0  0  0  0  0  0
   -7.2470    0.2000    1.2120 C   0  0  0  0  0  0  0  0  0  0  0  0
   -6.9610    1.6500   -0.7650 C   0  0  0  0  0  0  0  0  0  0  0  0
  1  2  1  0
  2  3  2  3
  2 25  1  0
  3  4  1  0
  4  5  1  0
  5  6  1  0
  6  7  2  0
  6  8  1  0
  8  9  1  0
  9 10  2  0
  9 23  1  0
 10 11  1  0
 11 12  2  0
 12 13  1  0
 12 22  1  0
 13 14  1  0
 13 21  1  0
 14 15  1  0
 15 16  1  0
 16 17  1  0
 17 18  1  0
 18 19  1  1
 18 21  1  0
 19 20  1  0
 22 23  1  0
 23 24  2  0
 25 26  2  0
 25 27  1  0
 27 28  1  6
 27 29  1  0
 27 30  1  0
M  END
