
     RDKit          3D

 29 33  0  0  0  0  0  0  0  0999 V2000
   -3.4900    1.4060   -3.8030 C   0  0  0  0  0  0  0  0  0  0  0  0
   -2.7930    1.0900   -2.5230 C   0  0  0  0  0  0  0  0  0  0  0  0
   -1.4700    1.2750   -2.2120 C   0  0  0  0  0  0  0  0  0  0  0  0
   -1.2770    0.8350   -0.9270 N   0  0  0  0  0  0  0  0  0  0  0  0
    0.0160    0.9000   -0.3690 C   0  0  0  0  0  0  0  0  0  0  0  0
    0.3550    1.8410    0.5240 C   0  0  0  0  0  0  0  0  0  0  0  0
    1.6380    1.8450    1.0500 C   0  0  0  0  0  0  0  0  0  0  0  0
    2.5510    0.8780    0.6510 C   0  0  0  0  0  0  0  0  0  0  0  0
    2.2500   -0.1270   -0.2790 C   0  0  0  0  0  0  0  0  0  0  0  0
    3.2070   -1.1790   -0.5330 C   0  0  1  0  0  0  0  0  0  0  0  0
    4.0960   -1.1310   -1.7470 C   0  0  0  0  0  0  0  0  0  0  0  0
    5.1970   -2.1180   -1.4170 C   0  0  0  0  0  0  0  0  0  0  0  0
    4.7300   -2.9750   -0.2670 C   0  0  0  0  0  0  0  0  0  0  0  0
    3.5460   -2.2670    0.3890 C   0  0  0  0  0  0  0  0  0  0  0  0
    0.9340   -0.0690   -0.7780 C   0  0  0  0  0  0  0  0  0  0  0  0
    3.8610    0.9310    1.2690 C   0  0  0  0  0  0  0  0  0  0  0  0
    4.7080    0.0680    0.8880 O   0  0  0  0  0  0  0  0  0  0  0  0
    4.2200    1.8980    2.2470 N   0  0  0  0  0  0  0  0  0  0  0  0
    3.1890    2.7710    2.8240 C   0  0  0  0  0  0  0  0  0  0  0  0
    2.0380    2.9880    1.9160 C   0  0  0  0  0  0  0  0  0  0  0  0
   -2.4470    0.3880   -0.4550 C   0  0  0  0  0  0  0  0  0  0  0  0
   -3.4180    0.5340   -1.4310 C   0  0  0  0  0  0  0  0  0  0  0  0
   -4.7630    0.1070   -1.1520 C   0  0  0  0  0  0  0  0  0  0  0  0
   -5.5180   -0.2470   -2.0880 O   0  0  0  0  0  0  0  0  0  0  0  0
   -5.2120    0.1070    0.2840 C   0  0  0  0  0  0  0  0  0  0  0  0
   -4.1560   -0.6960    1.0150 C   0  0  1  0  0  0  0  0  0  0  0  0
   -4.5530   -0.7170    2.4690 C   0  0  0  0  0  0  0  0  0  0  0  0
   -4.3230   -2.1280    0.5090 C   0  0  0  0  0  0  0  0  0  0  0  0
   -2.7760   -0.1820    0.8700 C   0  0  0  0  0  0  0  0  0  0  0  0
  1  2  1  0
  2  3  2  0
  2 22  1  0
  3  4  1  0
  4  5  1  0
  4 21  1  0
  5  6  2  0
  5 15  1  0
  6  7  1  0
  7  8  2  0
  7 20  1  0
  8  9  1  0
  8 16  1  0
 10  9  1  1
  9 15  2  0
 10 11  1  0
 10 14  1  0
 11 12  1  0
 12 13  1  0
 13 14  1  0
 16 17  2  0
 16 18  1  0
 18 19  1  0
 19 20  1  0
 21 22  2  0
 21 29  1  0
 22 23  1  0
 23 24  2  0
 23 25  1  0
 25 26  1  0
 26 27  1  1
 26 28  1  0
 26 29  1  0
M  END
