
     RDKit          3D

 31 33  0  0  0  0  0  0  0  0999 V2000
    5.8880   -2.0990    1.6030 C   0  0  0  0  0  0  0  0  0  0  0  0
    6.4920   -1.3150    0.5670 N   0  0  0  0  0  0  0  0  0  0  0  0
    6.8570   -0.0300    1.1220 C   0  0  0  0  0  0  0  0  0  0  0  0
    5.7330    0.9640    1.0790 C   0  0  1  0  0  0  0  0  0  0  0  0
    5.2380    1.2470   -0.3470 C   0  0  0  0  0  0  0  0  0  0  0  0
    4.3570    0.5690    0.7000 C   0  0  2  0  0  0  0  0  0  0  0  0
    3.2040    1.2520    1.1960 N   0  0  0  0  0  0  0  0  0  0  0  0
    2.0050    0.5850    1.5440 C   0  0  0  0  0  0  0  0  0  0  0  0
    1.9410   -0.6570    1.4170 O   0  0  0  0  0  0  0  0  0  0  0  0
    0.8450    1.2550    2.0400 N   0  0  0  0  0  0  0  0  0  0  0  0
   -0.3480    0.5620    2.3830 C   0  0  1  0  0  0  0  0  0  0  0  0
   -0.6780    0.7090    3.8740 C   0  0  0  0  0  0  0  0  0  0  0  0
   -1.5530    1.0200    1.6460 C   0  0  0  0  0  0  0  0  0  0  0  0
   -1.4980    0.8540    0.2330 N   0  0  0  0  0  0  0  0  0  0  0  0
   -0.6590    1.4800   -0.7010 C   0  0  0  0  0  0  0  0  0  0  0  0
    0.1800    2.3210   -0.3130 O   0  0  0  0  0  0  0  0  0  0  0  0
   -0.6720    1.2260   -2.1690 C   0  0  0  0  0  0  0  0  0  0  0  0
   -1.6800    0.3050   -2.6080 N   0  0  0  0  0  0  0  0  0  0  0  0
   -3.0640    0.5360   -2.4840 C   0  0  0  0  0  0  0  0  0  0  0  0
   -3.4770    1.5990   -1.9760 O   0  0  0  0  0  0  0  0  0  0  0  0
   -4.0380   -0.5190   -2.9750 C   0  0  0  0  0  0  0  0  0  0  0  0
   -3.7190   -1.1790   -4.1910 C   0  0  0  0  0  0  0  0  0  0  0  0
   -5.1100   -2.3040   -4.3660 S   0  0  0  0  0  0  0  0  0  0  0  0
   -5.9810   -1.8390   -2.8710 C   0  0  0  0  0  0  0  0  0  0  0  0
   -5.1670   -0.8780   -2.3600 C   0  0  0  0  0  0  0  0  0  0  0  0
   -5.6870   -0.2180   -1.0980 C   0  0  0  0  0  0  0  0  0  0  0  0
   -6.7570   -0.8770   -0.4270 C   0  0  0  0  0  0  0  0  0  0  0  0
   -7.0590   -0.4770    1.1770 S   0  0  0  0  0  0  0  0  0  0  0  0
   -7.5900   -1.8620   -0.9960 N   0  0  0  0  0  0  0  0  0  0  0  0
   -7.1800   -2.3600   -2.2610 C   0  0  0  0  0  0  0  0  0  0  0  0
   -7.8280   -3.2440   -2.8740 O   0  0  0  0  0  0  0  0  0  0  0  0
  1  2  1  0
  2  3  1  0
  4  3  1  6
  4  5  1  0
  4  6  1  0
  5  6  1  0
  6  7  1  1
  7  8  1  0
  8  9  2  0
  8 10  1  0
 10 11  1  0
 11 12  1  1
 11 13  1  0
 13 14  1  0
 14 15  1  0
 15 16  2  0
 15 17  1  0
 17 18  1  0
 18 19  1  0
 19 20  2  0
 19 21  1  0
 21 22  2  0
 21 25  1  0
 22 23  1  0
 23 24  1  0
 24 25  2  0
 24 30  1  0
 25 26  1  0
 26 27  1  0
 27 28  2  0
 27 29  1  0
 29 30  1  0
 30 31  2  0
M  CHG  1   2   1
M  END
