
     RDKit          3D

 31 34  0  0  0  0  0  0  0  0999 V2000
    7.0560   -1.6340    1.7460 C   0  0  0  0  0  0  0  0  0  0  0  0
    6.0110   -0.7900    1.6050 C   0  0  0  0  0  0  0  0  0  0  0  0
    4.7840   -1.0600    0.9120 C   0  0  0  0  0  0  0  0  0  0  0  0
    3.8790   -0.1120    0.8810 C   0  0  0  0  0  0  0  0  0  0  0  0
    2.5300   -0.1920    0.2100 C   0  0  0  0  0  0  0  0  0  0  0  0
    2.3520    0.7930   -0.8930 C   0  0  2  0  0  0  0  0  0  0  0  0
    0.9840    0.6950   -1.5800 C   0  0  0  0  0  0  0  0  0  0  0  0
    0.7760   -0.5850   -2.1530 N   0  0  0  0  0  0  0  0  0  0  0  0
   -0.6720   -0.8600   -2.9590 S   0  0  2  0  0  0  0  0  0  0  0  0
   -0.6240   -2.2310   -3.6050 O   0  0  0  0  0  0  0  0  0  0  0  0
   -0.8160    0.1030   -4.1500 O   0  0  0  0  0  0  0  0  0  0  0  0
   -2.1520   -0.7360   -2.0530 C   0  0  2  0  0  0  0  0  0  0  0  0
   -2.5830    0.6770   -1.7070 C   0  0  0  0  0  0  0  0  0  0  0  0
   -4.0110    0.6440   -1.1760 C   0  0  0  0  0  0  0  0  0  0  0  0
   -4.0670   -0.3220   -0.0860 N   0  0  0  0  0  0  0  0  0  0  0  0
   -4.9460   -0.3700    1.0690 C   0  0  0  0  0  0  0  0  0  0  0  0
   -6.0090    0.4030    1.1960 C   0  0  0  0  0  0  0  0  0  0  0  0
   -6.8670    0.3260    2.3700 C   0  0  0  0  0  0  0  0  0  0  0  0
   -8.0180    1.1470    2.5280 N   0  0  0  0  0  0  0  0  0  0  0  0
   -6.5900   -0.4890    3.2770 O   0  0  0  0  0  0  0  0  0  0  0  0
   -4.4190   -1.4000    1.9960 C   0  0  0  0  0  0  0  0  0  0  0  0
   -3.5150   -2.1570    1.1590 N   0  0  0  0  0  0  0  0  0  0  0  0
   -3.1910   -1.4070   -0.0400 C   0  0  0  0  0  0  0  0  0  0  0  0
   -2.2900   -1.6260   -0.9410 N   0  0  0  0  0  0  0  0  0  0  0  0
    3.5130    0.8770   -1.8510 C   0  0  0  0  0  0  0  0  0  0  0  0
    3.7840    2.2960   -1.4160 C   0  0  0  0  0  0  0  0  0  0  0  0
    2.5820    2.2360   -0.5280 C   0  0  0  0  0  0  0  0  0  0  0  0
    4.5250    1.2600    1.7870 S   0  0  0  0  0  0  0  0  0  0  0  0
    3.7460    1.5270    3.0570 O   0  0  0  0  0  0  0  0  0  0  0  0
    6.0890    0.5390    2.1970 C   0  0  0  0  0  0  0  0  0  0  0  0
    7.0600    1.0800    2.8650 N   0  0  0  0  0  0  0  0  0  0  0  0
  1  2  2  0
  2  3  1  0
  2 30  1  0
  3  4  2  0
  4  5  1  0
 28  4  1  6
  6  5  1  1
  6  7  1  0
  6 25  1  0
  6 27  1  0
  7  8  1  0
  9  8  1  1
  9 10  2  0
  9 11  2  0
  9 12  1  0
 12 13  1  1
 12 24  1  0
 13 14  1  0
 14 15  1  0
 15 16  1  0
 15 23  1  0
 16 17  2  3
 16 21  1  0
 17 18  1  0
 18 19  1  0
 18 20  2  0
 21 22  1  0
 22 23  1  0
 23 24  2  0
 25 26  1  0
 26 27  1  0
 28 29  2  0
 28 30  1  0
 30 31  2  0
M  CHG  1  24   1
M  END
