
     RDKit          3D

 31 32  0  0  0  0  0  0  0  0999 V2000
    7.4840    0.4710    3.1410 C   0  0  0  0  0  0  0  0  0  0  0  0
    6.1220   -0.1820    3.1740 C   0  0  0  0  0  0  0  0  0  0  0  0
    5.3250    0.2330    2.0130 N   0  0  0  0  0  0  0  0  0  0  0  0
    4.9060    1.6000    2.1270 C   0  0  0  0  0  0  0  0  0  0  0  0
    3.4250    1.6310    1.7000 C   0  0  2  0  0  0  0  0  0  0  0  0
    2.7870    0.7620    2.5550 O   0  0  0  0  0  0  0  0  0  0  0  0
    3.3430    1.3660    0.2490 C   0  0  0  0  0  0  0  0  0  0  0  0
    1.9750    1.3450   -0.2940 N   0  0  0  0  0  0  0  0  0  0  0  0
    1.0080    0.3890    0.0580 C   0  0  0  0  0  0  0  0  0  0  0  0
    1.3870   -0.4880    0.8730 O   0  0  0  0  0  0  0  0  0  0  0  0
   -0.3920    0.3670   -0.4660 C   0  0  0  0  0  0  0  0  0  0  0  0
   -0.8530    1.2580   -1.2730 C   0  0  0  0  0  0  0  0  0  0  0  0
   -2.0820    1.5690   -1.9690 C   0  0  0  0  0  0  0  0  0  0  0  0
   -1.8620    2.2700   -3.3550 C   0  0  0  0  0  0  0  0  0  0  0  0
   -1.1870    3.4620   -3.1040 O   0  0  0  0  0  0  0  0  0  0  0  0
   -1.9660    4.2630   -2.2530 C   0  0  0  0  0  0  0  0  0  0  0  0
   -3.3320    1.3600   -1.6460 C   0  0  0  0  0  0  0  0  0  0  0  0
   -4.0330    0.7890   -0.5740 N   0  0  0  0  0  0  0  0  0  0  0  0
   -4.3890   -0.5470   -0.2690 C   0  0  0  0  0  0  0  0  0  0  0  0
   -4.9550   -0.7630    0.8710 O   0  0  0  0  0  0  0  0  0  0  0  0
   -4.1880   -1.7560   -1.1140 C   0  0  2  0  0  0  0  0  0  0  0  0
   -5.3810   -1.9740   -1.9510 N   0  0  0  0  0  0  0  0  0  0  0  0
   -4.0810   -2.9390   -0.2460 C   0  0  0  0  0  0  0  0  0  0  0  0
   -5.0270   -3.4110    0.5760 C   0  0  0  0  0  0  0  0  0  0  0  0
   -4.5180   -4.6200    1.2700 C   0  0  0  0  0  0  0  0  0  0  0  0
   -3.1840   -4.7720    0.7430 N   0  0  0  0  0  0  0  0  0  0  0  0
   -2.9530   -3.8150   -0.1110 C   0  0  0  0  0  0  0  0  0  0  0  0
   -1.7150   -3.6570   -0.8330 N   0  0  0  0  0  0  0  0  0  0  0  0
   -1.1300   -2.3770   -1.0310 C   0  0  0  0  0  0  0  0  0  0  0  0
   -0.3480   -2.1300   -2.4680 S   0  0  0  0  0  0  0  0  0  0  0  0
   -1.2170   -1.0780    0.1940 S   0  0  0  0  0  0  0  0  0  0  0  0
  1  2  1  0
  2  3  1  0
  3  4  1  0
  4  5  1  0
  5  6  1  1
  5  7  1  0
  7  8  1  0
  8  9  1  0
  9 10  2  0
  9 11  1  0
 11 12  2  0
 11 31  1  0
 12 13  1  0
 13 14  1  0
 13 17  2  0
 14 15  1  0
 15 16  1  0
 17 18  1  0
 18 19  1  0
 19 20  2  0
 19 21  1  0
 21 22  1  6
 21 23  1  0
 23 24  2  0
 23 27  1  0
 24 25  1  0
 25 26  1  0
 26 27  2  0
 27 28  1  0
 28 29  1  0
 29 30  2  0
 29 31  1  0
M  CHG  1   3   1
M  END
