
     RDKit          3D

 31 33  0  0  0  0  0  0  0  0999 V2000
   -5.7070    2.4800   -1.9770 C   0  0  0  0  0  0  0  0  0  0  0  0
   -5.1170    1.2350   -1.5720 N   0  0  0  0  0  0  0  0  0  0  0  0
   -4.6000    1.3130   -0.2030 C   0  0  1  0  0  0  0  0  0  0  0  0
   -5.6590    1.5720    0.7970 C   0  0  0  0  0  0  0  0  0  0  0  0
   -6.6750    0.5450    1.0360 C   0  0  0  0  0  0  0  0  0  0  0  0
   -6.3280   -0.8790    0.8670 C   0  0  0  0  0  0  0  0  0  0  0  0
   -5.6560   -1.5200    2.0630 C   0  0  0  0  0  0  0  0  0  0  0  0
   -4.3280   -0.9380    2.4090 C   0  0  0  0  0  0  0  0  0  0  0  0
   -3.5490   -0.7960    1.1160 C   0  0  0  0  0  0  0  0  0  0  0  0
   -2.5850   -1.6280    0.8520 N   0  0  0  0  0  0  0  0  0  0  0  0
   -1.8690   -1.6660   -0.1150 C   0  0  0  0  0  0  0  0  0  0  0  0
   -0.7830   -2.3980   -0.6870 N   0  0  0  0  0  0  0  0  0  0  0  0
   -0.0820   -2.0020   -2.2050 S   0  0  1  0  0  0  0  0  0  0  0  0
    0.4240   -3.2680   -2.8190 O   0  0  0  0  0  0  0  0  0  0  0  0
   -1.1280   -1.3300   -3.0450 O   0  0  0  0  0  0  0  0  0  0  0  0
    1.2390   -0.8960   -1.8960 N   0  0  0  0  0  0  0  0  0  0  0  0
    2.4020   -1.7030   -1.7190 C   0  0  0  0  0  0  0  0  0  0  0  0
    3.6050   -0.8660   -1.4530 C   0  0  0  0  0  0  0  0  0  0  0  0
    3.4110   -0.0610   -0.1970 C   0  0  0  0  0  0  0  0  0  0  0  0
    4.6370    0.7100   -0.0080 N   0  0  0  0  0  0  0  0  0  0  0  0
    4.9680    2.0050   -0.4780 C   0  0  0  0  0  0  0  0  0  0  0  0
    4.3310    2.6140   -1.3690 O   0  0  0  0  0  0  0  0  0  0  0  0
    6.1830    2.4600    0.2860 C   0  0  0  0  0  0  0  0  0  0  0  0
    6.1650    1.5190    1.4080 N   0  0  0  0  0  0  0  0  0  0  0  0
    5.7930    0.2640    0.7350 C   0  0  1  0  0  0  0  0  0  0  0  0
    5.4840   -0.7870    1.7570 C   0  0  0  0  0  0  0  0  0  0  0  0
    6.9160   -0.1200   -0.1350 C   0  0  0  0  0  0  0  0  0  0  0  0
    6.8680   -0.0420   -1.5440 N   0  0  0  0  0  0  0  0  0  0  0  0
    7.9710   -0.5380    0.4040 O   0  0  0  0  0  0  0  0  0  0  0  0
   -2.5600   -0.1970   -1.0840 S   0  0  0  0  0  0  0  0  0  0  0  0
   -3.7740    0.1720    0.1470 C   0  0  0  0  0  0  0  0  0  0  0  0
  1  2  1  0
  3  2  1  6
  3  4  1  0
  3 31  1  0
  4  5  1  0
  5  6  1  0
  6  7  1  0
  7  8  1  0
  8  9  1  0
  9 10  1  0
  9 31  2  0
 10 11  2  0
 11 12  1  0
 11 30  1  0
 13 12  1  1
 13 14  2  0
 13 15  2  0
 13 16  1  0
 16 17  1  0
 17 18  1  0
 18 19  1  0
 19 20  1  0
 20 21  1  0
 20 25  1  0
 21 22  2  0
 21 23  1  0
 23 24  1  0
 24 25  1  0
 25 26  1  1
 25 27  1  0
 27 28  1  0
 27 29  2  0
 30 31  1  0
M  CHG  1  24   1
M  END
