
     RDKit          3D

 26 29  0  0  0  0  0  0  0  0999 V2000
   -6.2170   -1.5150    0.3420 C   0  0  0  0  0  0  0  0  0  0  0  0
   -4.7460   -1.5400    0.6920 C   0  0  0  0  0  0  0  0  0  0  0  0
   -4.1200   -2.2990    1.5810 N   0  0  0  0  0  0  0  0  0  0  0  0
   -2.8000   -2.0260    1.6040 C   0  0  0  0  0  0  0  0  0  0  0  0
   -1.7260   -2.4970    2.3090 C   0  0  0  0  0  0  0  0  0  0  0  0
   -0.4790   -1.9770    2.0730 C   0  0  0  0  0  0  0  0  0  0  0  0
   -0.2950   -0.9710    1.1160 C   0  0  0  0  0  0  0  0  0  0  0  0
    1.0890   -0.4470    0.8930 C   0  0  0  0  0  0  0  0  0  0  0  0
    2.1420   -0.0590    0.7420 C   0  0  0  0  0  0  0  0  0  0  0  0
    3.5270    0.4640    0.5640 C   0  0  2  0  0  0  0  0  0  0  0  0
    3.7660    1.3560    1.6010 O   0  0  0  0  0  0  0  0  0  0  0  0
    3.7110    1.1750   -0.7250 C   0  0  0  0  0  0  0  0  0  0  0  0
    4.9260    0.7110   -1.4980 C   0  0  0  0  0  0  0  0  0  0  0  0
    6.1470    0.5580   -0.6500 C   0  0  0  0  0  0  0  0  0  0  0  0
    5.9000   -0.1280    0.6690 C   0  0  0  0  0  0  0  0  0  0  0  0
    4.5190   -0.6840    0.7060 C   0  0  0  0  0  0  0  0  0  0  0  0
   -1.3390   -0.4940    0.4120 C   0  0  0  0  0  0  0  0  0  0  0  0
   -2.6140   -1.0210    0.6490 C   0  0  0  0  0  0  0  0  0  0  0  0
   -3.7990   -0.7520    0.1200 N   0  0  0  0  0  0  0  0  0  0  0  0
   -4.0810    0.2150   -0.8750 C   0  0  0  0  0  0  0  0  0  0  0  0
   -5.2750    0.1500   -1.5190 N   0  0  0  0  0  0  0  0  0  0  0  0
   -5.5690    1.0510   -2.4370 C   0  0  0  0  0  0  0  0  0  0  0  0
   -4.7270    2.0560   -2.7790 N   0  0  0  0  0  0  0  0  0  0  0  0
   -3.5120    2.1460   -2.1420 C   0  0  0  0  0  0  0  0  0  0  0  0
   -2.6450    3.1950   -2.4960 N   0  0  0  0  0  0  0  0  0  0  0  0
   -3.2690    1.2150   -1.2300 N   0  0  0  0  0  0  0  0  0  0  0  0
  1  2  1  0
  2  3  2  0
  2 19  1  0
  3  4  1  0
  4  5  2  0
  4 18  1  0
  5  6  1  0
  6  7  2  0
  7  8  1  0
  7 17  1  0
  8  9  3  0
  9 10  1  0
 10 11  1  1
 10 12  1  0
 10 16  1  0
 12 13  1  0
 13 14  1  0
 14 15  1  0
 15 16  1  0
 17 18  2  0
 18 19  1  0
 19 20  1  0
 20 21  2  0
 20 26  1  0
 21 22  1  0
 22 23  2  0
 23 24  1  0
 24 25  1  0
 24 26  2  0
M  END
