
     RDKit          3D

 28 29  0  0  0  0  0  0  0  0999 V2000
   -3.8900    4.2060   -1.6110 N   0  0  0  0  0  0  0  0  0  0  0  0
   -3.2860    3.1410   -0.8150 C   0  0  0  0  0  0  0  0  0  0  0  0
   -2.1880    2.7310   -1.3210 O   0  0  0  0  0  0  0  0  0  0  0  0
   -3.8540    2.6410    0.3960 C   0  0  2  0  0  0  0  0  0  0  0  0
   -3.0040    1.8590    1.1240 O   0  0  0  0  0  0  0  0  0  0  0  0
   -2.7410    0.6200    0.5250 C   0  0  2  0  0  0  0  0  0  0  0  0
   -1.3550    0.2960    0.8490 C   0  0  0  0  0  0  0  0  0  0  0  0
   -0.4850    0.6510    1.4830 O   0  0  0  0  0  0  0  0  0  0  0  0
   -0.8970   -1.1470   -0.0740 N   0  0  0  0  0  0  0  0  0  0  0  0
    0.4280   -1.2130    0.3100 C   0  0  0  0  0  0  0  0  0  0  0  0
    1.0320   -0.2610    0.7940 O   0  0  0  0  0  0  0  0  0  0  0  0
    1.2830   -2.3290    0.1990 N   0  0  0  0  0  0  0  0  0  0  0  0
    1.3110   -3.6090   -0.1690 C   0  0  0  0  0  0  0  0  0  0  0  0
    0.2910   -4.1270   -0.5880 O   0  0  0  0  0  0  0  0  0  0  0  0
    2.5740   -4.4180   -0.0680 C   0  0  0  0  0  0  0  0  0  0  0  0
    3.6070   -3.5060    0.4300 O   0  0  0  0  0  0  0  0  0  0  0  0
    4.1590   -2.5750   -0.4800 C   0  0  0  0  0  0  0  0  0  0  0  0
    3.7750   -2.6710   -1.6590 O   0  0  0  0  0  0  0  0  0  0  0  0
    5.1210   -1.5640    0.0060 C   0  0  0  0  0  0  0  0  0  0  0  0
    5.7550   -0.6680   -0.7190 C   0  0  0  0  0  0  0  0  0  0  0  0
    6.7540    0.2530    0.4980 S   0  0  0  0  0  0  0  0  0  0  0  0
    6.5440    1.7510    0.1770 O   0  0  0  0  0  0  0  0  0  0  0  0
    5.5510   -0.1690    1.8360 C   0  0  0  0  0  0  0  0  0  0  0  0
    5.4070   -1.5220    1.3750 O   0  0  0  0  0  0  0  0  0  0  0  0
   -3.0710    0.4850   -0.7650 O   0  0  0  0  0  0  0  0  0  0  0  0
   -4.3210    0.8510   -1.1440 C   0  0  0  0  0  0  0  0  0  0  0  0
   -5.0030    1.6670   -0.0760 C   0  0  1  0  0  0  0  0  0  0  0  0
   -5.3700    0.8430    0.9590 O   0  0  0  0  0  0  0  0  0  0  0  0
  1  2  1  0
  2  3  2  0
  4  2  1  6
  4  5  1  0
  4 27  1  0
  5  6  1  0
  6  7  1  6
  6 25  1  0
  7  8  2  0
  7  9  1  0
  9 10  1  0
 10 11  2  0
 10 12  1  0
 12 13  1  0
 13 14  2  0
 13 15  1  0
 15 16  1  0
 16 17  1  0
 17 18  2  0
 17 19  1  0
 19 20  2  0
 19 24  1  0
 20 21  1  0
 21 22  2  0
 21 23  1  1
 23 24  1  0
 25 26  1  0
 26 27  1  0
 27 28  1  1
M  END
