
     RDKit          3D

 26 30  0  0  0  0  0  0  0  0999 V2000
    6.3910    3.4290    0.5910 O   0  0  0  0  0  0  0  0  0  0  0  0
    5.6840    2.3320    0.0660 C   0  0  0  0  0  0  0  0  0  0  0  0
    4.7310    1.6880    0.6180 N   0  0  0  0  0  0  0  0  0  0  0  0
    4.2780    0.6440   -0.2340 C   0  0  0  0  0  0  0  0  0  0  0  0
    3.2160   -0.2620    0.0970 N   0  0  0  0  0  0  0  0  0  0  0  0
    3.2560   -0.9890    1.3280 C   0  0  0  0  0  0  0  0  0  0  0  0
    2.0270   -0.6780    2.1020 C   0  0  0  0  0  0  0  0  0  0  0  0
    0.7830   -0.5220    1.3350 C   0  0  0  0  0  0  0  0  0  0  0  0
    0.8360   -0.8610   -0.1180 C   0  0  1  0  0  0  0  0  0  0  0  0
    0.7060   -2.3440   -0.2730 C   0  0  0  0  0  0  0  0  0  0  0  0
   -0.6900   -2.8630   -0.2620 C   0  0  0  0  0  0  0  0  0  0  0  0
   -1.5340   -2.1310   -1.3150 C   0  0  0  0  0  0  0  0  0  0  0  0
   -1.5120   -0.7540   -0.8650 N   0  0  0  0  0  0  0  0  0  0  0  0
   -2.7460   -0.1310   -0.5060 C   0  0  0  0  0  0  0  0  0  0  0  0
   -2.8840    1.1500   -0.0690 N   0  0  0  0  0  0  0  0  0  0  0  0
   -4.1690    1.4200    0.1800 C   0  0  0  0  0  0  0  0  0  0  0  0
   -4.8480    2.5540    0.6370 C   0  0  0  0  0  0  0  0  0  0  0  0
   -6.2170    2.5380    0.8030 C   0  0  0  0  0  0  0  0  0  0  0  0
   -6.8900    1.3750    0.5050 C   0  0  0  0  0  0  0  0  0  0  0  0
   -6.2470    0.2430    0.0530 C   0  0  0  0  0  0  0  0  0  0  0  0
   -4.8660    0.2740   -0.1090 C   0  0  0  0  0  0  0  0  0  0  0  0
   -3.9810   -0.6470   -0.5220 N   0  0  0  0  0  0  0  0  0  0  0  0
   -0.2670   -0.0790   -0.7970 C   0  0  0  0  0  0  0  0  0  0  0  0
    2.1210   -0.4420   -0.7970 C   0  0  0  0  0  0  0  0  0  0  0  0
    4.9740    0.6610   -1.3210 N   0  0  0  0  0  0  0  0  0  0  0  0
    5.9350    1.7170   -1.2630 C   0  0  0  0  0  0  0  0  0  0  0  0
  1  2  1  0
  2  3  2  0
  2 26  1  0
  3  4  1  0
  4  5  1  0
  4 25  2  0
  5  6  1  0
  5 24  1  0
  6  7  1  0
  7  8  1  0
  9  8  1  1
  9 10  1  0
  9 23  1  0
  9 24  1  0
 10 11  1  0
 11 12  1  0
 12 13  1  0
 13 14  1  0
 13 23  1  0
 14 15  2  0
 14 22  1  0
 15 16  1  0
 16 17  2  0
 16 21  1  0
 17 18  1  0
 18 19  2  0
 19 20  1  0
 20 21  2  0
 21 22  1  0
 25 26  1  0
M  END
