
     RDKit          3D

 25 28  0  0  0  0  0  0  0  0999 V2000
   -3.6690   -2.0320    0.0780 C   0  0  0  0  0  0  0  0  0  0  0  0
   -2.8000   -1.4130    1.1820 C   0  0  2  0  0  0  0  0  0  0  0  0
   -3.0760    0.0780    1.2700 C   0  0  0  0  0  0  0  0  0  0  0  0
   -2.8270    0.6880   -0.0890 C   0  0  0  0  0  0  0  0  0  0  0  0
   -3.8930    1.2610   -0.6810 C   0  0  0  0  0  0  0  0  0  0  0  0
   -5.1480    1.3580   -0.0290 N   0  0  0  0  0  0  0  0  0  0  0  0
   -3.7680    1.7790   -1.9760 C   0  0  0  0  0  0  0  0  0  0  0  0
   -2.5480    1.6890   -2.6270 C   0  0  0  0  0  0  0  0  0  0  0  0
   -1.4290    1.1010   -2.0360 C   0  0  0  0  0  0  0  0  0  0  0  0
   -1.6030    0.6230   -0.7870 C   0  0  0  0  0  0  0  0  0  0  0  0
   -0.3980    0.0840   -0.2410 N   0  0  0  0  0  0  0  0  0  0  0  0
   -0.3600   -1.0120    0.5650 C   0  0  0  0  0  0  0  0  0  0  0  0
    0.8890   -1.3950    0.9700 N   0  0  0  0  0  0  0  0  0  0  0  0
    1.9780   -0.7190    0.5860 C   0  0  0  0  0  0  0  0  0  0  0  0
    3.1250   -1.1320    1.0010 N   0  0  0  0  0  0  0  0  0  0  0  0
    4.3590   -0.5390    0.6910 C   0  0  0  0  0  0  0  0  0  0  0  0
    4.8380   -0.4280   -0.5970 C   0  0  0  0  0  0  0  0  0  0  0  0
    6.0590    0.1640   -0.8550 C   0  0  0  0  0  0  0  0  0  0  0  0
    6.8460    0.6640    0.1570 C   0  0  0  0  0  0  0  0  0  0  0  0
    6.3750    0.5570    1.4560 C   0  0  0  0  0  0  0  0  0  0  0  0
    5.1400   -0.0410    1.7100 C   0  0  0  0  0  0  0  0  0  0  0  0
    1.8660    0.3640   -0.2150 N   0  0  0  0  0  0  0  0  0  0  0  0
    0.6530    0.7910   -0.6470 C   0  0  0  0  0  0  0  0  0  0  0  0
    0.5390    1.7860   -1.3680 O   0  0  0  0  0  0  0  0  0  0  0  0
   -1.4130   -1.8680    1.1350 C   0  0  0  0  0  0  0  0  0  0  0  0
  2  1  1  6
  2  3  1  0
  2 25  1  0
  3  4  1  0
  4  5  2  0
  4 10  1  0
  5  6  1  0
  5  7  1  0
  7  8  2  0
  8  9  1  0
  9 10  2  0
 10 11  1  0
 11 12  1  0
 11 23  1  0
 12 13  2  0
 12 25  1  0
 13 14  1  0
 14 15  2  3
 14 22  1  0
 15 16  1  0
 16 17  2  0
 16 21  1  0
 17 18  1  0
 18 19  2  0
 19 20  1  0
 20 21  2  0
 22 23  1  0
 23 24  2  0
M  END
