
     RDKit          3D

 26 28  0  0  0  0  0  0  0  0999 V2000
    7.2820    0.3400    2.0160 C   0  0  0  0  0  0  0  0  0  0  0  0
    6.1040    0.1540    1.3750 C   0  0  0  0  0  0  0  0  0  0  0  0
    6.1850   -0.4740    0.0930 C   0  0  0  0  0  0  0  0  0  0  0  0
    6.2400   -0.9940   -0.9410 N   0  0  0  0  0  0  0  0  0  0  0  0
    4.8770    0.5930    2.0120 C   0  0  0  0  0  0  0  0  0  0  0  0
    3.6940    0.4660    1.4910 C   0  0  0  0  0  0  0  0  0  0  0  0
    3.3700   -0.0920    0.2690 N   0  0  0  0  0  0  0  0  0  0  0  0
    2.9510   -1.4890    0.2080 C   0  0  0  0  0  0  0  0  0  0  0  0
    1.8230   -1.6420   -0.8020 C   0  0  0  0  0  0  0  0  0  0  0  0
    1.1630   -0.3880   -1.0540 N   0  0  0  0  0  0  0  0  0  0  0  0
   -0.2690   -0.3370   -0.9720 C   0  0  0  0  0  0  0  0  0  0  0  0
   -0.9100    0.5590   -0.3390 N   0  0  0  0  0  0  0  0  0  0  0  0
   -2.3110    0.5980   -0.2660 C   0  0  0  0  0  0  0  0  0  0  0  0
   -2.9530    1.7190    0.0200 N   0  0  0  0  0  0  0  0  0  0  0  0
   -4.3660    1.6660    0.0730 C   0  0  0  0  0  0  0  0  0  0  0  0
   -5.1990    1.8720   -1.0020 C   0  0  0  0  0  0  0  0  0  0  0  0
   -6.5750    1.8140   -0.9050 C   0  0  0  0  0  0  0  0  0  0  0  0
   -7.1690    1.5400    0.3080 C   0  0  0  0  0  0  0  0  0  0  0  0
   -6.3370    1.3330    1.3930 C   0  0  0  0  0  0  0  0  0  0  0  0
   -4.9600    1.3910    1.2960 C   0  0  0  0  0  0  0  0  0  0  0  0
   -4.1800    1.1740    2.4130 O   0  0  0  0  0  0  0  0  0  0  0  0
   -3.0640   -0.6470   -0.5150 C   0  0  0  0  0  0  0  0  0  0  0  0
   -2.2230   -1.7510   -0.8110 N   0  0  0  0  0  0  0  0  0  0  0  0
   -1.0930   -1.3810   -1.6450 C   0  0  0  0  0  0  0  0  0  0  0  0
    1.8990    0.7870   -1.3790 C   0  0  0  0  0  0  0  0  0  0  0  0
    3.3630    0.5780   -1.0230 C   0  0  0  0  0  0  0  0  0  0  0  0
  1  2  2  0
  2  3  1  0
  2  5  1  0
  3  4  3  0
  5  6  2  3
  6  7  1  0
  7  8  1  0
  7 26  1  0
  8  9  1  0
  9 10  1  0
 10 11  1  0
 10 25  1  0
 11 12  2  0
 11 24  1  0
 12 13  1  0
 13 14  2  3
 13 22  1  0
 14 15  1  0
 15 16  2  0
 15 20  1  0
 16 17  1  0
 17 18  2  0
 18 19  1  0
 19 20  2  0
 20 21  1  0
 22 23  1  0
 23 24  1  0
 25 26  1  0
M  END
