
     RDKit          3D

 26 29  0  0  0  0  0  0  0  0999 V2000
   -1.6740    2.5480   -1.1770 C   0  0  0  0  0  0  0  0  0  0  0  0
   -1.2100    1.6260   -0.0880 C   0  0  0  0  0  0  0  0  0  0  0  0
   -0.1940    0.7060   -0.3310 C   0  0  0  0  0  0  0  0  0  0  0  0
    0.2450   -0.1510    0.6610 C   0  0  0  0  0  0  0  0  0  0  0  0
    1.2740   -1.1010    0.4530 N   0  0  0  0  0  0  0  0  0  0  0  0
    2.5080   -0.6290   -0.0960 C   0  0  0  0  0  0  0  0  0  0  0  0
    2.7260    0.5880    0.1320 O   0  0  0  0  0  0  0  0  0  0  0  0
    3.5210   -1.4000   -0.8790 C   0  0  2  0  0  0  0  0  0  0  0  0
    3.1290   -1.3950   -2.3290 C   0  0  0  0  0  0  0  0  0  0  0  0
    2.2020   -2.2680   -2.8500 C   0  0  0  0  0  0  0  0  0  0  0  0
    1.8290   -2.2750   -4.1730 C   0  0  0  0  0  0  0  0  0  0  0  0
    2.4140   -1.3710   -4.9820 N   0  0  0  0  0  0  0  0  0  0  0  0
    3.3220   -0.4960   -4.5350 C   0  0  0  0  0  0  0  0  0  0  0  0
    3.7030   -0.4780   -3.2190 C   0  0  0  0  0  0  0  0  0  0  0  0
    3.7490   -2.7130   -0.3790 N   0  0  0  0  0  0  0  0  0  0  0  0
    3.0970   -3.5700    0.2480 N   0  0  0  0  0  0  0  0  0  0  0  0
    1.7960   -3.5040    0.7060 N   0  0  0  0  0  0  0  0  0  0  0  0
    1.0400   -2.4670    0.7890 C   0  0  0  0  0  0  0  0  0  0  0  0
   -0.2620   -2.7420    1.3130 N   0  0  0  0  0  0  0  0  0  0  0  0
   -0.3720   -0.0450    1.8930 C   0  0  0  0  0  0  0  0  0  0  0  0
   -1.3790    0.8650    2.1360 C   0  0  0  0  0  0  0  0  0  0  0  0
   -1.8170    1.7220    1.1430 C   0  0  0  0  0  0  0  0  0  0  0  0
   -2.8890    2.7140    1.3460 C   0  0  0  0  0  0  0  0  0  0  0  0
   -3.8580    2.3380    2.4160 C   0  0  0  0  0  0  0  0  0  0  0  0
   -3.5100    1.1400    3.2250 C   0  0  0  0  0  0  0  0  0  0  0  0
   -2.0420    0.9780    3.4640 C   0  0  0  0  0  0  0  0  0  0  0  0
  1  2  1  0
  2  3  2  0
  2 22  1  0
  3  4  1  0
  4  5  1  0
  4 20  2  0
  5  6  1  0
  5 18  1  0
  6  7  2  0
  6  8  1  0
  8  9  1  6
  8 15  1  0
  9 10  2  0
  9 14  1  0
 10 11  1  0
 11 12  2  0
 12 13  1  0
 13 14  2  0
 15 16  2  0
 16 17  1  0
 17 18  2  0
 18 19  1  0
 20 21  1  0
 21 22  2  0
 21 26  1  0
 22 23  1  0
 23 24  1  0
 24 25  1  0
 25 26  1  0
M  END
