
     RDKit          3D

 26 29  0  0  0  0  0  0  0  0999 V2000
    4.3710    4.1970    2.4500 N   0  0  0  0  0  0  0  0  0  0  0  0
    4.5390    3.0340    2.3720 C   0  0  0  0  0  0  0  0  0  0  0  0
    4.7670    1.6050    2.2830 C   0  0  0  0  0  0  0  0  0  0  0  0
    3.6090    0.9880    1.6560 N   0  0  0  0  0  0  0  0  0  0  0  0
    3.2620    1.1880    0.2860 C   0  0  0  0  0  0  0  0  0  0  0  0
    3.9700    1.9730   -0.4250 N   0  0  0  0  0  0  0  0  0  0  0  0
    2.1540    0.5520   -0.3120 N   0  0  0  0  0  0  0  0  0  0  0  0
    2.1550    0.0040   -1.5980 C   0  0  0  0  0  0  0  0  0  0  0  0
    3.2590    0.0460   -2.4260 C   0  0  0  0  0  0  0  0  0  0  0  0
    3.2320   -0.4700   -3.6960 N   0  0  0  0  0  0  0  0  0  0  0  0
    2.1420   -1.0390   -4.1990 C   0  0  0  0  0  0  0  0  0  0  0  0
    1.0360   -1.0960   -3.4020 C   0  0  0  0  0  0  0  0  0  0  0  0
    1.0150   -0.5840   -2.0970 C   0  0  0  0  0  0  0  0  0  0  0  0
   -0.1650   -0.7060   -1.2660 C   0  0  0  0  0  0  0  0  0  0  0  0
   -0.1500   -1.3430   -0.0420 C   0  0  0  0  0  0  0  0  0  0  0  0
   -1.2640   -1.4390    0.7320 N   0  0  0  0  0  0  0  0  0  0  0  0
   -2.4480   -0.9290    0.3720 C   0  0  0  0  0  0  0  0  0  0  0  0
   -2.5290   -0.2750   -0.8520 C   0  0  0  0  0  0  0  0  0  0  0  0
   -1.3950   -0.1810   -1.6330 C   0  0  0  0  0  0  0  0  0  0  0  0
   -3.7730    0.1230   -0.9630 O   0  0  0  0  0  0  0  0  0  0  0  0
   -4.4940   -0.2170    0.0760 C   0  0  0  0  0  0  0  0  0  0  0  0
   -5.8210   -0.0250    0.4070 C   0  0  0  0  0  0  0  0  0  0  0  0
   -6.2950   -0.5150    1.6080 C   0  0  0  0  0  0  0  0  0  0  0  0
   -5.5110   -1.1890    2.4970 C   0  0  0  0  0  0  0  0  0  0  0  0
   -4.1860   -1.3910    2.1860 C   0  0  0  0  0  0  0  0  0  0  0  0
   -3.6860   -0.9030    0.9760 C   0  0  0  0  0  0  0  0  0  0  0  0
  1  2  3  0
  2  3  1  0
  3  4  1  0
  4  5  1  0
  5  6  2  0
  5  7  1  0
  7  8  1  0
  8  9  2  0
  8 13  1  0
  9 10  1  0
 10 11  2  0
 11 12  1  0
 12 13  2  0
 13 14  1  0
 14 15  2  0
 14 19  1  0
 15 16  1  0
 16 17  2  0
 17 18  1  0
 17 26  1  0
 18 19  2  0
 18 20  1  0
 20 21  1  0
 21 22  2  0
 21 26  1  0
 22 23  1  0
 23 24  2  0
 24 25  1  0
 25 26  2  0
M  END
