
     RDKit          3D

 26 29  0  0  0  0  0  0  0  0999 V2000
   -4.1370    0.5200   -1.9570 C   0  0  0  0  0  0  0  0  0  0  0  0
   -3.7680   -0.8910   -1.5510 C   0  0  1  0  0  0  0  0  0  0  0  0
   -4.9890   -1.6050   -1.0700 C   0  0  0  0  0  0  0  0  0  0  0  0
   -3.0960   -1.5940   -2.6960 C   0  0  0  0  0  0  0  0  0  0  0  0
   -2.7520   -0.8420   -0.4320 C   0  0  0  0  0  0  0  0  0  0  0  0
   -1.5810   -0.2600   -0.6300 N   0  0  0  0  0  0  0  0  0  0  0  0
   -0.6010   -0.1740    0.3520 C   0  0  0  0  0  0  0  0  0  0  0  0
    0.6160    0.4880    0.0010 C   0  0  0  0  0  0  0  0  0  0  0  0
    1.8430    0.1860    0.2430 C   0  0  0  0  0  0  0  0  0  0  0  0
    2.9930    1.0030   -0.1930 C   0  0  0  0  0  0  0  0  0  0  0  0
    2.8530    2.1540   -0.9140 C   0  0  0  0  0  0  0  0  0  0  0  0
    3.9620    2.9200   -1.3130 C   0  0  0  0  0  0  0  0  0  0  0  0
    5.2210    2.5010   -0.9700 C   0  0  0  0  0  0  0  0  0  0  0  0
    6.5090    2.9970   -1.1900 C   0  0  0  0  0  0  0  0  0  0  0  0
    7.3730    2.1570   -0.6120 N   0  0  0  0  0  0  0  0  0  0  0  0
    6.7400    1.1590   -0.0380 N   0  0  0  0  0  0  0  0  0  0  0  0
    5.4180    1.3370   -0.2380 C   0  0  0  0  0  0  0  0  0  0  0  0
    4.2870    0.6310    0.1240 C   0  0  0  0  0  0  0  0  0  0  0  0
   -0.8620   -0.7070    1.5810 C   0  0  0  0  0  0  0  0  0  0  0  0
   -2.1090   -1.3230    1.7620 C   0  0  0  0  0  0  0  0  0  0  0  0
   -3.0310   -1.3810    0.7610 N   0  0  0  0  0  0  0  0  0  0  0  0
   -2.4020   -1.9110    3.0200 N   0  0  0  0  0  0  0  0  0  0  0  0
   -1.6930   -1.6380    4.2250 C   0  0  0  0  0  0  0  0  0  0  0  0
   -0.4300   -1.0140    4.0020 N   0  0  0  0  0  0  0  0  0  0  0  0
    0.0260   -0.5290    2.7250 C   0  0  0  0  0  0  0  0  0  0  0  0
    1.1480    0.0270    2.6590 O   0  0  0  0  0  0  0  0  0  0  0  0
  2  1  1  6
  2  3  1  0
  2  4  1  0
  2  5  1  0
  5  6  2  0
  5 21  1  0
  6  7  1  0
  7  8  1  0
  7 19  2  0
  8  9  2  3
  9 10  1  0
 10 11  2  0
 10 18  1  0
 11 12  1  0
 12 13  2  0
 13 14  1  0
 13 17  1  0
 14 15  2  0
 15 16  1  0
 16 17  1  0
 17 18  2  0
 19 20  1  0
 19 25  1  0
 20 21  2  0
 20 22  1  0
 22 23  1  0
 23 24  1  0
 24 25  1  0
 25 26  2  0
M  END
