
     RDKit          3D

 10 10  0  0  0  0  0  0  0  0999 V2000
    3.7920    1.0260    0.1440 N   0  0  0  0  0  0  0  0  0  0  0  0
    2.0610    0.8380    0.2020 S   0  0  0  0  0  0  0  0  0  0  0  0
    1.5770   -0.8780    0.1410 C   0  0  0  0  0  0  0  0  0  0  0  0
    0.3290   -1.2420    0.0660 C   0  0  0  0  0  0  0  0  0  0  0  0
   -0.0360   -2.6160    0.0180 N   0  0  0  0  0  0  0  0  0  0  0  0
   -0.7550   -0.2220    0.0270 C   0  0  0  0  0  0  0  0  0  0  0  0
   -2.0020   -0.4400   -0.0460 N   0  0  0  0  0  0  0  0  0  0  0  0
   -2.7650    0.7690   -0.0640 C   0  0  0  0  0  0  0  0  0  0  0  0
   -1.7550    1.8060    0.3670 C   0  0  0  0  0  0  0  0  0  0  0  0
   -0.5440    1.1390    0.0650 O   0  0  0  0  0  0  0  0  0  0  0  0
  1  2  1  0
  2  3  1  0
  3  4  2  3
  4  5  1  0
  4  6  1  0
  6  7  2  0
  6 10  1  0
  7  8  1  0
  8  9  1  0
  9 10  1  0
M  END
