
     RDKit          3D

 10 10  0  0  0  0  0  0  0  0999 V2000
   -3.7980   -0.6590    0.4900 N   0  0  0  0  0  0  0  0  0  0  0  0
   -2.9470   -0.1820   -0.5330 C   0  0  0  0  0  0  0  0  0  0  0  0
   -3.2520   -0.1340   -1.7420 O   0  0  0  0  0  0  0  0  0  0  0  0
   -1.5830    0.3000   -0.1240 C   0  0  0  0  0  0  0  0  0  0  0  0
   -0.3690   -0.7510   -0.9250 S   0  0  0  0  0  0  0  0  0  0  0  0
    1.2900   -0.3150   -0.5340 C   0  0  0  0  0  0  0  0  0  0  0  0
    2.3590   -0.8730   -0.9750 N   0  0  0  0  0  0  0  0  0  0  0  0
    3.5050   -0.2300   -0.4230 C   0  0  0  0  0  0  0  0  0  0  0  0
    3.1420    0.7230    0.3570 N   0  0  0  0  0  0  0  0  0  0  0  0
    1.7200    0.7700    0.3680 C   0  0  0  0  0  0  0  0  0  0  0  0
  1  2  1  0
  2  3  2  0
  2  4  1  0
  4  5  1  0
  5  6  1  0
  6  7  2  0
  6 10  1  0
  7  8  1  0
  8  9  2  0
  9 10  1  0
M  CHG  1   9   1
M  END
