
     RDKit          3D

  9  9  0  0  0  0  0  0  0  0999 V2000
    2.9970   -0.1780   -0.0480 N   0  0  0  0  0  0  0  0  0  0  0  0
    1.6970    0.4550   -0.1820 C   0  0  0  0  0  0  0  0  0  0  0  0
    0.6470   -0.5940    0.0780 C   0  0  0  0  0  0  0  0  0  0  0  0
   -0.6740   -0.0660   -0.0180 N   0  0  0  0  0  0  0  0  0  0  0  0
   -1.8970   -0.8360    0.1580 C   0  0  0  0  0  0  0  0  0  0  0  0
   -2.9120    0.1820    0.6270 C   0  0  0  0  0  0  0  0  0  0  0  0
   -2.4070    1.4430    0.1720 O   0  0  0  0  0  0  0  0  0  0  0  0
   -1.1030    1.2560   -0.2860 C   0  0  0  0  0  0  0  0  0  0  0  0
   -0.2550    2.4430   -1.0170 S   0  0  0  0  0  0  0  0  0  0  0  0
  1  2  1  0
  2  3  1  0
  3  4  1  0
  4  5  1  0
  4  8  1  0
  5  6  1  0
  6  7  1  0
  7  8  1  0
  8  9  2  0
M  CHG  1   1   1
M  END
