
     RDKit          3D

 10 10  0  0  0  0  0  0  0  0999 V2000
   -2.2950    1.7070   -0.3930 N   0  0  0  0  0  0  0  0  0  0  0  0
   -2.0000    0.3410   -0.2620 N   0  0  0  0  0  0  0  0  0  0  0  0
   -2.9630   -0.5890   -0.2330 C   0  0  0  0  0  0  0  0  0  0  0  0
   -2.3490   -1.8100   -0.0980 C   0  0  0  0  0  0  0  0  0  0  0  0
   -1.0340   -1.5700   -0.0500 N   0  0  0  0  0  0  0  0  0  0  0  0
   -0.8130   -0.2600   -0.1500 C   0  0  0  0  0  0  0  0  0  0  0  0
    0.7680    0.6110   -0.1420 S   0  0  0  0  0  0  0  0  0  0  0  0
    2.0640   -0.6470    0.0320 C   0  0  0  0  0  0  0  0  0  0  0  0
    3.4410   -0.0370    0.0520 C   0  0  0  0  0  0  0  0  0  0  0  0
    3.6200    0.6500   -1.1680 O   0  0  0  0  0  0  0  0  0  0  0  0
  1  2  1  0
  2  3  1  0
  2  6  1  0
  3  4  2  0
  4  5  1  0
  5  6  2  0
  6  7  1  0
  7  8  1  0
  8  9  1  0
  9 10  1  0
M  CHG  1   1   1
M  END
