
     RDKit          3D

 10 10  0  0  0  0  0  0  0  0999 V2000
    1.6160   -1.6870   -0.6450 N   0  0  0  0  0  0  0  0  0  0  0  0
    1.3920   -0.5010   -0.1780 C   0  0  0  0  0  0  0  0  0  0  0  0
    2.0910    0.0180    1.0380 C   0  0  0  0  0  0  0  0  0  0  0  0
    2.3440    1.7570    0.4940 S   0  0  0  0  0  0  0  0  0  0  0  0
    1.0140    1.7710   -0.7200 C   0  0  0  0  0  0  0  0  0  0  0  0
    0.7090    2.7940   -1.3760 O   0  0  0  0  0  0  0  0  0  0  0  0
    0.4880    0.4580   -0.7140 N   0  0  0  0  0  0  0  0  0  0  0  0
   -0.8310    0.1320   -1.2080 C   0  0  0  0  0  0  0  0  0  0  0  0
   -1.9060    0.2090   -0.1690 C   0  0  0  0  0  0  0  0  0  0  0  0
   -1.7040   -0.6760    0.9400 N   0  0  0  0  0  0  0  0  0  0  0  0
  1  2  2  0
  2  3  1  0
  2  7  1  0
  3  4  1  0
  4  5  1  0
  5  6  2  0
  5  7  1  0
  7  8  1  0
  8  9  1  0
  9 10  1  0
M  CHG  1  10   1
M  END
