
     RDKit          3D

 10 10  0  0  0  0  0  0  0  0999 V2000
   -1.5180   -0.8490    1.0850 C   0  0  0  0  0  0  0  0  0  0  0  0
   -1.5340   -0.2770   -0.3090 C   0  0  0  0  0  0  0  0  0  0  0  0
   -0.6000    0.8790   -0.3230 N   0  0  0  0  0  0  0  0  0  0  0  0
    0.6390    0.7470   -0.6030 C   0  0  0  0  0  0  0  0  0  0  0  0
    1.4040   -0.5080   -0.9420 C   0  0  0  0  0  0  0  0  0  0  0  0
    2.1160   -0.9290    0.2490 N   0  0  0  0  0  0  0  0  0  0  0  0
    1.4320    1.9150   -0.5900 N   0  0  0  0  0  0  0  0  0  0  0  0
    0.2160    3.2090   -0.1360 S   0  0  0  0  0  0  0  0  0  0  0  0
   -1.1100    2.0960   -0.0290 C   0  0  0  0  0  0  0  0  0  0  0  0
   -2.3000    2.4170    0.2700 O   0  0  0  0  0  0  0  0  0  0  0  0
  1  2  1  0
  2  3  1  0
  3  4  1  0
  3  9  1  0
  4  5  1  0
  4  7  2  0
  5  6  1  0
  7  8  1  0
  8  9  1  0
  9 10  2  0
M  CHG  1   6   1
M  END
