
     RDKit          3D

 29 31  0  0  0  0  0  0  0  0999 V2000
    8.1450    1.3250   -1.2130 C   0  0  0  0  0  0  0  0  0  0  0  0
    8.3530    0.2880   -0.4570 C   0  0  0  0  0  0  0  0  0  0  0  0
    7.2940   -0.4660    0.2000 C   0  0  0  0  0  0  0  0  0  0  0  0
    5.9500   -0.0340   -0.0210 N   0  0  0  0  0  0  0  0  0  0  0  0
    4.8970   -0.7490    0.6380 C   0  0  0  0  0  0  0  0  0  0  0  0
    5.1680   -1.6990    1.3780 O   0  0  0  0  0  0  0  0  0  0  0  0
    3.5090   -0.3160    0.4010 C   0  0  0  0  0  0  0  0  0  0  0  0
    2.5860   -1.1720    1.2470 C   0  0  0  0  0  0  0  0  0  0  0  0
    1.1640   -0.8530    1.0580 C   0  0  0  0  0  0  0  0  0  0  0  0
    0.4270   -1.5930    0.3600 O   0  0  0  0  0  0  0  0  0  0  0  0
    0.6050    0.2590    1.6340 O   0  0  0  0  0  0  0  0  0  0  0  0
   -0.7700    0.4980    1.4180 C   0  0  0  0  0  0  0  0  0  0  0  0
   -1.1790    1.1390    0.3580 C   0  0  0  0  0  0  0  0  0  0  0  0
   -2.5770    1.4660    0.0030 C   0  0  1  0  0  0  0  0  0  0  0  0
   -2.7800    1.1360   -1.4250 C   0  0  0  0  0  0  0  0  0  0  0  0
   -1.8550    0.8270   -2.1210 O   0  0  0  0  0  0  0  0  0  0  0  0
   -4.1630    1.2020   -1.9570 C   0  0  1  0  0  0  0  0  0  0  0  0
   -4.1910    0.8760   -3.3020 O   0  0  0  0  0  0  0  0  0  0  0  0
   -4.9170    0.1860   -1.1320 C   0  0  0  0  0  0  0  0  0  0  0  0
   -5.8540   -0.6510   -1.5620 C   0  0  0  0  0  0  0  0  0  0  0  0
   -6.3320   -0.7610   -2.8740 O   0  0  0  0  0  0  0  0  0  0  0  0
   -6.2670   -1.4180   -0.3890 C   0  0  0  0  0  0  0  0  0  0  0  0
   -5.4320   -0.8880    0.7290 C   0  0  0  0  0  0  0  0  0  0  0  0
   -5.5590   -1.4880    2.3600 Cl  0  0  0  0  0  0  0  0  0  0  0  0
   -4.6320    0.0700    0.2640 C   0  0  0  0  0  0  0  0  0  0  0  0
   -3.5970    0.9380    0.9410 C   0  0  1  0  0  0  0  0  0  0  0  0
   -3.0360    0.2580    2.1090 C   0  0  0  0  0  0  0  0  0  0  0  0
   -1.7640    0.0300    2.3640 C   0  0  0  0  0  0  0  0  0  0  0  0
   -1.2760   -0.8290    3.8370 Cl  0  0  0  0  0  0  0  0  0  0  0  0
  1  2  2  0
  2  3  1  0
  3  4  1  0
  4  5  1  0
  5  6  2  0
  5  7  1  0
  7  8  1  0
  8  9  1  0
  9 10  2  0
  9 11  1  0
 11 12  1  0
 12 13  2  0
 12 28  1  0
 14 13  1  1
 14 15  1  0
 14 26  1  0
 15 16  2  0
 15 17  1  0
 17 18  1  6
 17 19  1  0
 19 20  2  0
 19 25  1  0
 20 21  1  0
 20 22  1  0
 22 23  1  0
 23 24  1  0
 23 25  2  0
 25 26  1  0
 26 27  1  1
 27 28  2  0
 28 29  1  0
M  END
