
     RDKit          3D

 30 32  0  0  0  0  0  0  0  0999 V2000
    6.4390    1.4730    3.4370 C   0  0  0  0  0  0  0  0  0  0  0  0
    5.7180    0.8780    2.2710 C   0  0  0  0  0  0  0  0  0  0  0  0
    4.3870    1.0780    1.9250 C   0  0  0  0  0  0  0  0  0  0  0  0
    4.1340    0.3410    0.7810 C   0  0  0  0  0  0  0  0  0  0  0  0
    2.9260    0.2200    0.0430 N   0  0  0  0  0  0  0  0  0  0  0  0
    2.4130    1.4080   -0.6240 C   0  0  0  0  0  0  0  0  0  0  0  0
    2.2290   -1.0120   -0.0520 C   0  0  0  0  0  0  0  0  0  0  0  0
    2.6470   -2.0370    0.5470 O   0  0  0  0  0  0  0  0  0  0  0  0
    1.0260   -1.1390   -0.8350 C   0  0  0  0  0  0  0  0  0  0  0  0
    1.1680   -1.5010   -2.1800 C   0  0  0  0  0  0  0  0  0  0  0  0
    2.5170   -1.7320   -2.7060 C   0  0  0  0  0  0  0  0  0  0  0  0
    0.1280   -1.6280   -2.9340 O   0  0  0  0  0  0  0  0  0  0  0  0
   -1.0990   -1.4240   -2.4780 C   0  0  0  0  0  0  0  0  0  0  0  0
   -2.0610   -1.5690   -3.2810 O   0  0  0  0  0  0  0  0  0  0  0  0
   -1.3070   -1.0650   -1.1650 C   0  0  0  0  0  0  0  0  0  0  0  0
   -2.6720   -0.8420   -0.7240 N   0  0  0  0  0  0  0  0  0  0  0  0
   -3.1680    0.4710   -0.8350 C   0  0  0  0  0  0  0  0  0  0  0  0
   -2.3450    1.3580   -1.3170 O   0  0  0  0  0  0  0  0  0  0  0  0
   -4.4690    0.9300   -0.4750 C   0  0  0  0  0  0  0  0  0  0  0  0
   -4.9020    2.6610   -0.6650 S   0  0  0  0  0  0  0  0  0  0  0  0
   -6.5700    2.5260   -0.0680 C   0  0  0  0  0  0  0  0  0  0  0  0
   -6.6940    1.1650    0.2400 C   0  0  0  0  0  0  0  0  0  0  0  0
   -8.0200    0.6400    0.8050 C   0  0  0  0  0  0  0  0  0  0  0  0
   -5.6300    0.3890    0.0270 C   0  0  0  0  0  0  0  0  0  0  0  0
   -5.6500   -1.1160    0.3100 C   0  0  0  0  0  0  0  0  0  0  0  0
   -0.2360   -0.9220   -0.3370 C   0  0  0  0  0  0  0  0  0  0  0  0
   -0.4120   -0.5440    1.0720 C   0  0  0  0  0  0  0  0  0  0  0  0
    5.3410   -0.2760    0.4910 C   0  0  0  0  0  0  0  0  0  0  0  0
    5.6210   -1.1820   -0.6370 C   0  0  0  0  0  0  0  0  0  0  0  0
    6.2250    0.0760    1.3950 O   0  0  0  0  0  0  0  0  0  0  0  0
  1  2  1  0
  2  3  2  0
  2 30  1  0
  3  4  1  0
  4  5  1  0
  4 28  2  0
  5  6  1  0
  5  7  1  0
  7  8  2  0
  7  9  1  0
  9 10  2  0
  9 26  1  0
 10 11  1  0
 10 12  1  0
 12 13  1  0
 13 14  2  0
 13 15  1  0
 15 16  1  0
 15 26  2  0
 16 17  1  0
 17 18  2  0
 17 19  1  0
 19 20  1  0
 19 24  2  0
 20 21  1  0
 21 22  2  0
 22 23  1  0
 22 24  1  0
 24 25  1  0
 26 27  1  0
 28 29  1  0
 28 30  1  0
M  END
