
     RDKit          3D

 31 33  0  0  0  0  0  0  0  0999 V2000
   -7.7240   -0.5720   -1.6590 C   0  0  0  0  0  0  0  0  0  0  0  0
   -7.5830    0.0510   -0.3830 C   0  0  0  0  0  0  0  0  0  0  0  0
   -9.0330    0.2060    0.1260 O   0  0  0  0  0  0  0  0  0  0  0  0
   -8.9600    0.8190    1.3510 C   0  0  0  0  0  0  0  0  0  0  0  0
   -8.0730    1.2160    2.0290 N   0  0  0  0  0  0  0  0  0  0  0  0
   -6.6280    1.1000    1.5900 C   0  0  0  0  0  0  0  0  0  0  0  0
   -6.6000    0.4760    0.3460 C   0  0  0  0  0  0  0  0  0  0  0  0
   -5.1600    0.2920   -0.0690 N   0  0  0  0  0  0  0  0  0  0  0  0
   -4.7080    0.9570   -1.1600 C   0  0  0  0  0  0  0  0  0  0  0  0
   -5.5470    1.7620   -1.7720 O   0  0  0  0  0  0  0  0  0  0  0  0
   -3.4020    0.9060   -1.7870 C   0  0  0  0  0  0  0  0  0  0  0  0
   -2.7110   -0.8030   -1.9430 S   0  0  0  0  0  0  0  0  0  0  0  0
   -1.4100   -0.8840   -0.7180 C   0  0  0  0  0  0  0  0  0  0  0  0
   -0.2720   -0.1490   -1.0550 C   0  0  0  0  0  0  0  0  0  0  0  0
    0.7120    0.0630   -0.1290 C   0  0  0  0  0  0  0  0  0  0  0  0
    1.9010    0.7790   -0.5210 C   0  0  0  0  0  0  0  0  0  0  0  0
    2.3980    0.8300   -1.5830 O   0  0  0  0  0  0  0  0  0  0  0  0
    2.5220    1.5140    0.5370 O   0  0  0  0  0  0  0  0  0  0  0  0
    3.6610    2.2410    0.2860 C   0  0  0  0  0  0  0  0  0  0  0  0
    4.7890    1.5930    0.2110 C   0  0  0  0  0  0  0  0  0  0  0  0
    6.0480    0.8710    0.1020 C   0  0  0  0  0  0  0  0  0  0  0  0
    7.3070    0.1500    0.0170 C   0  0  0  0  0  0  0  0  0  0  0  0
    7.4480   -0.7850   -0.9110 C   0  0  0  0  0  0  0  0  0  0  0  0
    8.7490   -1.3400   -0.7990 C   0  0  0  0  0  0  0  0  0  0  0  0
    9.2600   -0.5700    0.2970 C   0  0  0  0  0  0  0  0  0  0  0  0
   10.5700   -0.6110    0.9170 C   0  0  0  0  0  0  0  0  0  0  0  0
    8.3040    0.2760    0.7100 O   0  0  0  0  0  0  0  0  0  0  0  0
    0.6000   -0.4600    1.1480 C   0  0  0  0  0  0  0  0  0  0  0  0
   -0.4900   -1.1780    1.4650 C   0  0  0  0  0  0  0  0  0  0  0  0
   -1.4980   -1.3850    0.5100 C   0  0  0  0  0  0  0  0  0  0  0  0
   -2.5640   -2.3090    0.8960 C   0  0  0  0  0  0  0  0  0  0  0  0
  1  2  2  0
  2  3  1  0
  2  7  1  0
  3  4  1  0
  4  5  2  0
  5  6  1  0
  6  7  2  0
  7  8  1  0
  8  9  1  0
  9 10  2  0
  9 11  1  0
 11 12  1  0
 12 13  1  0
 13 14  2  0
 13 30  1  0
 14 15  1  0
 15 16  1  0
 15 28  2  0
 16 17  2  0
 16 18  1  0
 18 19  1  0
 19 20  1  0
 20 21  3  0
 21 22  1  0
 22 23  2  0
 22 27  1  0
 23 24  1  0
 24 25  2  0
 25 26  1  0
 25 27  1  0
 28 29  1  0
 29 30  2  0
 30 31  1  0
M  END
