
     RDKit          3D

 31 33  0  0  0  0  0  0  0  0999 V2000
   -3.6790    2.9720    1.9170 C   0  0  0  0  0  0  0  0  0  0  0  0
   -2.2620    3.2860    1.5690 C   0  0  2  0  0  0  0  0  0  0  0  0
   -1.5800    4.0110    2.7060 C   0  0  0  0  0  0  0  0  0  0  0  0
   -2.2320    4.1910    0.3600 C   0  0  0  0  0  0  0  0  0  0  0  0
   -1.5530    2.0830    1.3480 O   0  0  0  0  0  0  0  0  0  0  0  0
   -0.2240    2.0490    1.0100 C   0  0  0  0  0  0  0  0  0  0  0  0
    0.3690    3.1580    0.9000 O   0  0  0  0  0  0  0  0  0  0  0  0
    0.5100    0.8100    0.7810 C   0  0  0  0  0  0  0  0  0  0  0  0
    1.7930    0.8540    0.4590 C   0  0  0  0  0  0  0  0  0  0  0  0
    2.5400   -0.3510    0.2280 C   0  0  0  0  0  0  0  0  0  0  0  0
    3.8410   -0.4040   -0.1030 C   0  0  0  0  0  0  0  0  0  0  0  0
    4.6420    0.7990   -0.2620 C   0  0  0  0  0  0  0  0  0  0  0  0
    4.3560    2.0500   -0.1450 N   0  0  0  0  0  0  0  0  0  0  0  0
    6.2690    0.1430   -0.6970 S   0  0  0  0  0  0  0  0  0  0  0  0
    5.7980   -1.5630   -0.6400 C   0  0  0  0  0  0  0  0  0  0  0  0
    4.5450   -1.6380   -0.3250 C   0  0  0  0  0  0  0  0  0  0  0  0
    4.0110   -3.0670   -0.2380 C   0  0  0  0  0  0  0  0  0  0  0  0
    4.5090   -3.8400   -1.3670 C   0  0  0  0  0  0  0  0  0  0  0  0
    3.7690   -4.5880   -2.0260 O   0  0  0  0  0  0  0  0  0  0  0  0
    5.8780   -3.7230   -1.7080 N   0  0  0  0  0  0  0  0  0  0  0  0
    6.6590   -2.7640   -0.9010 C   0  0  0  0  0  0  0  0  0  0  0  0
   -0.0860   -0.4280    0.8870 O   0  0  0  0  0  0  0  0  0  0  0  0
   -1.2540   -0.7990    0.2650 C   0  0  0  0  0  0  0  0  0  0  0  0
   -1.9270   -1.7570    0.8860 C   0  0  0  0  0  0  0  0  0  0  0  0
   -3.1990   -2.4510    0.5890 C   0  0  0  0  0  0  0  0  0  0  0  0
   -3.8910   -2.5080   -0.5600 C   0  0  0  0  0  0  0  0  0  0  0  0
   -5.0510   -3.2750   -0.4140 O   0  0  0  0  0  0  0  0  0  0  0  0
   -3.6900   -1.9440   -1.9190 C   0  0  0  0  0  0  0  0  0  0  0  0
   -3.8430   -0.4620   -1.9970 C   0  0  0  0  0  0  0  0  0  0  0  0
   -3.0170    0.3290   -1.0460 C   0  0  0  0  0  0  0  0  0  0  0  0
   -1.5550   -0.0510   -1.0050 C   0  0  0  0  0  0  0  0  0  0  0  0
  2  1  1  1
  2  3  1  0
  2  4  1  0
  2  5  1  0
  5  6  1  0
  6  7  2  0
  6  8  1  0
  8  9  2  3
  8 22  1  0
  9 10  1  0
 10 11  2  3
 11 12  1  0
 11 16  1  0
 12 13  2  0
 12 14  1  0
 14 15  1  0
 15 16  2  0
 15 21  1  0
 16 17  1  0
 17 18  1  0
 18 19  2  0
 18 20  1  0
 20 21  1  0
 22 23  1  0
 23 24  2  0
 23 31  1  0
 24 25  1  0
 25 26  2  0
 26 27  1  0
 26 28  1  0
 28 29  1  0
 29 30  1  0
 30 31  1  0
M  END
