
     RDKit          3D

 29 30  0  0  0  0  0  0  0  0999 V2000
   -5.3010   -0.9110    2.9250 C   0  0  0  0  0  0  0  0  0  0  0  0
   -4.1010   -1.6300    3.4520 C   0  0  0  0  0  0  0  0  0  0  0  0
   -2.8820   -0.9870    3.2360 O   0  0  0  0  0  0  0  0  0  0  0  0
   -2.3520   -0.6610    1.9890 C   0  0  0  0  0  0  0  0  0  0  0  0
   -1.1330   -0.0260    1.9560 C   0  0  0  0  0  0  0  0  0  0  0  0
   -0.5470    0.3270    0.7720 C   0  0  0  0  0  0  0  0  0  0  0  0
    0.6650    0.9580    0.7500 O   0  0  0  0  0  0  0  0  0  0  0  0
    1.3260    1.2530    1.9730 C   0  0  0  0  0  0  0  0  0  0  0  0
    2.6460    1.9450    1.7180 C   0  0  0  0  0  0  0  0  0  0  0  0
    3.4330    1.1030    0.9640 O   0  0  0  0  0  0  0  0  0  0  0  0
    4.6820    1.6500    0.6730 C   0  0  2  0  0  0  0  0  0  0  0  0
    4.7730    1.8270   -0.6810 O   0  0  0  0  0  0  0  0  0  0  0  0
    4.7890    0.6810   -1.4330 C   0  0  0  0  0  0  0  0  0  0  0  0
    5.7970   -0.2420   -0.8780 C   0  0  0  0  0  0  0  0  0  0  0  0
    6.7300   -0.7730   -1.6330 C   0  0  0  0  0  0  0  0  0  0  0  0
    6.7820   -0.4680   -2.9940 O   0  0  0  0  0  0  0  0  0  0  0  0
    5.7300   -0.5540    0.5640 C   0  0  0  0  0  0  0  0  0  0  0  0
    5.7970    0.8060    1.2650 C   0  0  1  0  0  0  0  0  0  0  0  0
    7.0100    1.3800    0.8410 O   0  0  0  0  0  0  0  0  0  0  0  0
   -1.2080    0.0290   -0.3840 C   0  0  0  0  0  0  0  0  0  0  0  0
   -2.4520   -0.6170   -0.3880 C   0  0  0  0  0  0  0  0  0  0  0  0
   -3.0950   -0.9160   -1.6720 C   0  0  0  0  0  0  0  0  0  0  0  0
   -2.1220   -1.5490   -2.9970 Cl  0  0  0  0  0  0  0  0  0  0  0  0
   -4.3740   -0.7410   -1.9050 C   0  0  0  0  0  0  0  0  0  0  0  0
   -5.4050   -0.1170   -0.6460 Cl  0  0  0  0  0  0  0  0  0  0  0  0
   -5.0030   -1.0510   -3.2110 C   0  0  0  0  0  0  0  0  0  0  0  0
   -5.6470    0.1830   -3.8150 C   0  0  0  0  0  0  0  0  0  0  0  0
   -6.2370   -0.2060   -5.0820 N   0  0  0  0  0  0  0  0  0  0  0  0
   -2.9960   -0.9490    0.8170 C   0  0  0  0  0  0  0  0  0  0  0  0
  1  2  1  0
  2  3  1  0
  3  4  1  0
  4  5  2  0
  4 29  1  0
  5  6  1  0
  6  7  1  0
  6 20  2  0
  7  8  1  0
  8  9  1  0
  9 10  1  0
 11 10  1  6
 11 12  1  0
 11 18  1  0
 12 13  1  0
 13 14  1  0
 14 15  2  3
 14 17  1  0
 15 16  1  0
 17 18  1  0
 18 19  1  6
 20 21  1  0
 21 22  1  0
 21 29  2  0
 22 23  1  0
 22 24  2  3
 24 25  1  0
 24 26  1  0
 26 27  1  0
 27 28  1  0
M  END
