
     RDKit          3D

 31 33  0  0  0  0  0  0  0  0999 V2000
    1.4390    2.1250   -1.2600 C   0  0  0  0  0  0  0  0  0  0  0  0
    0.8520    1.3330   -2.0640 C   0  0  0  0  0  0  0  0  0  0  0  0
   -0.1710    0.3640   -1.9090 C   0  0  0  0  0  0  0  0  0  0  0  0
   -0.4790   -0.2310   -3.1190 C   0  0  0  0  0  0  0  0  0  0  0  0
   -1.3920   -1.2390   -3.5810 C   0  0  0  0  0  0  0  0  0  0  0  0
   -2.5640   -1.7300   -3.1910 C   0  0  0  0  0  0  0  0  0  0  0  0
   -3.4030   -1.3850   -2.0560 C   0  0  0  0  0  0  0  0  0  0  0  0
   -3.1400   -0.8570   -0.8680 C   0  0  0  0  0  0  0  0  0  0  0  0
   -1.8920   -0.3970   -0.1930 C   0  0  0  0  0  0  0  0  0  0  0  0
   -1.9570   -0.6080    1.2450 C   0  0  0  0  0  0  0  0  0  0  0  0
   -0.7150    0.0910   -0.6090 C   0  0  0  0  0  0  0  0  0  0  0  0
    0.1540    0.3970    0.5090 C   0  0  0  0  0  0  0  0  0  0  0  0
   -0.1210    1.3560    1.4080 C   0  0  0  0  0  0  0  0  0  0  0  0
   -1.1070    2.4320    1.5220 C   0  0  0  0  0  0  0  0  0  0  0  0
   -1.1290    3.1650    2.5660 O   0  0  0  0  0  0  0  0  0  0  0  0
   -2.0790    2.7620    0.5450 N   0  0  0  0  0  0  0  0  0  0  0  0
   -3.0170    3.8590    0.7870 C   0  0  0  0  0  0  0  0  0  0  0  0
   -3.9440    3.9950   -0.4290 C   0  0  0  0  0  0  0  0  0  0  0  0
    1.1140    1.1920    2.6750 S   0  0  0  0  0  0  0  0  0  0  0  0
    1.9390   -0.1920    1.8710 C   0  0  0  0  0  0  0  0  0  0  0  0
    3.0970   -0.8490    2.4100 N   0  0  0  0  0  0  0  0  0  0  0  0
    4.4840   -0.6570    2.0830 C   0  0  0  0  0  0  0  0  0  0  0  0
    5.0460   -2.0680    2.3150 C   0  0  0  0  0  0  0  0  0  0  0  0
    4.2730   -2.4860    3.4260 O   0  0  0  0  0  0  0  0  0  0  0  0
    3.0320   -1.8490    3.4120 C   0  0  0  0  0  0  0  0  0  0  0  0
    2.0330   -2.0970    4.1370 O   0  0  0  0  0  0  0  0  0  0  0  0
    1.2420   -0.4030    0.7720 C   0  0  0  0  0  0  0  0  0  0  0  0
    1.6680   -1.5070   -0.1270 C   0  0  0  0  0  0  0  0  0  0  0  0
    2.4900   -1.2250   -1.0290 O   0  0  0  0  0  0  0  0  0  0  0  0
    1.2100   -2.7880   -0.0110 O   0  0  0  0  0  0  0  0  0  0  0  0
    1.6190   -3.8430   -0.8710 C   0  0  0  0  0  0  0  0  0  0  0  0
  1  2  2  0
  2  3  1  0
  3  4  2  0
  3 11  1  0
  4  5  1  0
  5  6  2  0
  6  7  1  0
  7  8  2  0
  8  9  1  0
  9 10  1  0
  9 11  2  0
 11 12  1  0
 12 13  2  0
 12 27  1  0
 13 14  1  0
 13 19  1  0
 14 15  2  0
 14 16  1  0
 16 17  1  0
 17 18  1  0
 19 20  1  0
 20 21  1  0
 20 27  2  0
 21 22  1  0
 21 25  1  0
 22 23  1  0
 23 24  1  0
 24 25  1  0
 25 26  2  0
 27 28  1  0
 28 29  2  0
 28 30  1  0
 30 31  1  0
M  END
