
     RDKit          3D

 34 38  0  0  0  0  0  0  0  0999 V2000
   -8.3380    1.5720    1.1680 C   0  0  0  0  0  0  0  0  0  0  0  0
   -7.2940    0.7320    0.5100 C   0  0  0  0  0  0  0  0  0  0  0  0
   -7.7110   -0.2420   -0.3870 C   0  0  0  0  0  0  0  0  0  0  0  0
   -6.7850   -1.0340   -1.0150 C   0  0  0  0  0  0  0  0  0  0  0  0
   -7.2120   -2.0850   -1.9820 C   0  0  0  0  0  0  0  0  0  0  0  0
   -5.4360   -0.8250   -0.7210 C   0  0  0  0  0  0  0  0  0  0  0  0
   -5.0110    0.1240    0.1560 C   0  0  0  0  0  0  0  0  0  0  0  0
   -5.9620    0.9260    0.7910 C   0  0  0  0  0  0  0  0  0  0  0  0
   -5.5040    1.9620    1.7460 C   0  0  0  0  0  0  0  0  0  0  0  0
   -3.5140    0.0870    0.2570 C   0  0  0  0  0  0  0  0  0  0  0  0
   -2.5290    0.7280    0.9170 C   0  0  0  0  0  0  0  0  0  0  0  0
   -1.2500    0.3840    0.7340 C   0  0  0  0  0  0  0  0  0  0  0  0
   -0.0160    0.8880    1.2680 C   0  0  0  0  0  0  0  0  0  0  0  0
    1.1560    0.5230    0.7990 C   0  0  0  0  0  0  0  0  0  0  0  0
    1.3920   -0.4200   -0.2960 C   0  0  0  0  0  0  0  0  0  0  0  0
    2.8760   -0.5650   -0.4840 C   0  0  0  0  0  0  0  0  0  0  0  0
    3.5240    0.2490    0.5600 C   0  0  1  0  0  0  0  0  0  0  0  0
    4.1790   -0.7460    1.5460 C   0  0  0  0  0  0  0  0  0  0  0  0
    4.4810    1.1840    0.1790 O   0  0  0  0  0  0  0  0  0  0  0  0
    5.6040    0.8490   -0.5180 C   0  0  0  0  0  0  0  0  0  0  0  0
    6.7000    0.3660    0.2050 C   0  0  0  0  0  0  0  0  0  0  0  0
    7.8460    0.0200   -0.4510 C   0  0  0  0  0  0  0  0  0  0  0  0
    8.9460   -0.4840    0.3440 C   0  0  0  0  0  0  0  0  0  0  0  0
    8.7610   -0.9270    1.6610 N   0  0  0  0  0  0  0  0  0  0  0  0
   10.0890   -0.5230   -0.1720 O   0  0  0  0  0  0  0  0  0  0  0  0
    7.9690    0.1290   -1.8340 C   0  0  0  0  0  0  0  0  0  0  0  0
    6.8850    0.6030   -2.5140 C   0  0  0  0  0  0  0  0  0  0  0  0
    5.6970    0.9700   -1.8880 C   0  0  0  0  0  0  0  0  0  0  0  0
    4.6370    1.4570   -2.6620 O   0  0  0  0  0  0  0  0  0  0  0  0
    2.4460    1.0200    1.2990 C   0  0  0  0  0  0  0  0  0  0  0  0
   -1.3510   -0.9920   -0.4940 S   0  0  0  0  0  0  0  0  0  0  0  0
   -3.1430   -0.9200   -0.6000 C   0  0  0  0  0  0  0  0  0  0  0  0
   -4.2950   -1.5490   -1.2780 C   0  0  2  0  0  0  0  0  0  0  0  0
   -4.2070   -1.4330   -2.6670 O   0  0  0  0  0  0  0  0  0  0  0  0
  1  2  1  0
  2  3  2  0
  2  8  1  0
  3  4  1  0
  4  5  1  0
  4  6  2  0
  6  7  1  0
  6 33  1  0
  7  8  2  0
  7 10  1  0
  8  9  1  0
 10 11  1  0
 10 32  2  0
 11 12  2  0
 12 13  1  0
 12 31  1  0
 13 14  2  3
 14 15  1  0
 14 30  1  0
 15 16  1  0
 16 17  1  0
 17 18  1  1
 17 19  1  0
 17 30  1  0
 19 20  1  0
 20 21  2  0
 20 28  1  0
 21 22  1  0
 22 23  1  0
 22 26  2  0
 23 24  1  0
 23 25  2  0
 26 27  1  0
 27 28  2  0
 28 29  1  0
 31 32  1  0
 32 33  1  0
 33 34  1  6
M  END
