
     RDKit          3D

 34 38  0  0  0  0  0  0  0  0999 V2000
   -1.2020    5.0600    0.5880 Cl  0  0  0  0  0  0  0  0  0  0  0  0
   -1.8650    3.4190    0.4130 C   0  0  1  0  0  0  0  0  0  0  0  0
   -1.6520    2.6170    1.6720 C   0  0  0  0  0  0  0  0  0  0  0  0
   -2.1960    1.2820    1.5170 N   0  0  0  0  0  0  0  0  0  0  0  0
   -3.4070    0.8910    1.8000 N   0  0  0  0  0  0  0  0  0  0  0  0
   -3.5780   -0.4170    1.5360 C   0  0  0  0  0  0  0  0  0  0  0  0
   -2.3850   -0.8920    1.0480 C   0  0  0  0  0  0  0  0  0  0  0  0
   -1.9660   -2.1630    0.6090 C   0  0  0  0  0  0  0  0  0  0  0  0
   -2.9170   -3.1980    0.6680 N   0  0  0  0  0  0  0  0  0  0  0  0
   -2.7300   -4.5400    0.2720 C   0  0  0  0  0  0  0  0  0  0  0  0
   -3.6760   -5.4890    0.6470 C   0  0  0  0  0  0  0  0  0  0  0  0
   -3.4990   -6.7840    0.2500 C   0  0  0  0  0  0  0  0  0  0  0  0
   -2.4050   -7.1430   -0.5070 C   0  0  0  0  0  0  0  0  0  0  0  0
   -1.4700   -6.2040   -0.8780 C   0  0  0  0  0  0  0  0  0  0  0  0
   -1.6330   -4.8830   -0.4840 C   0  0  0  0  0  0  0  0  0  0  0  0
   -0.7030   -2.2290    0.1990 N   0  0  0  0  0  0  0  0  0  0  0  0
    0.1410   -1.1850    0.1890 C   0  0  0  0  0  0  0  0  0  0  0  0
    1.8090   -1.4420   -0.3940 S   0  0  0  0  0  0  0  0  0  0  0  0
    2.7440    0.1090   -0.3090 C   0  0  0  0  0  0  0  0  0  0  0  0
    4.1590   -0.0990   -0.8010 C   0  0  0  0  0  0  0  0  0  0  0  0
    4.8880    1.1350   -0.7290 N   0  0  2  0  0  0  0  0  0  0  0  0
    5.9270    1.2110   -1.7580 C   0  0  0  0  0  0  0  0  0  0  0  0
    7.2160    0.6340   -1.2300 C   0  0  0  0  0  0  0  0  0  0  0  0
    7.8070    1.4190   -0.2670 O   0  0  0  0  0  0  0  0  0  0  0  0
    6.8220    2.1190    0.4050 C   0  0  0  0  0  0  0  0  0  0  0  0
    5.5430    1.3220    0.5500 C   0  0  0  0  0  0  0  0  0  0  0  0
   -0.2760    0.0360    0.6160 N   0  0  0  0  0  0  0  0  0  0  0  0
   -1.5350    0.1900    1.0460 C   0  0  0  0  0  0  0  0  0  0  0  0
   -3.2640    3.5130    0.0070 C   0  0  0  0  0  0  0  0  0  0  0  0
   -3.6320    3.0090   -1.2240 C   0  0  0  0  0  0  0  0  0  0  0  0
   -4.9350    3.0650   -1.6680 C   0  0  0  0  0  0  0  0  0  0  0  0
   -5.8640    3.6470   -0.8310 C   0  0  0  0  0  0  0  0  0  0  0  0
   -5.5020    4.1560    0.4070 C   0  0  0  0  0  0  0  0  0  0  0  0
   -4.2030    4.1020    0.8540 C   0  0  0  0  0  0  0  0  0  0  0  0
  2  1  1  1
  2  3  1  0
  2 29  1  0
  3  4  1  0
  4  5  1  0
  4 28  1  0
  5  6  2  0
  6  7  1  0
  7  8  2  0
  7 28  1  0
  8  9  1  0
  8 16  1  0
  9 10  1  0
 10 11  2  0
 10 15  1  0
 11 12  1  0
 12 13  2  0
 13 14  1  0
 14 15  2  0
 16 17  2  0
 17 18  1  0
 17 27  1  0
 18 19  1  0
 19 20  1  0
 21 20  1  1
 21 22  1  0
 21 26  1  0
 22 23  1  0
 23 24  1  0
 24 25  1  0
 25 26  1  0
 27 28  2  0
 29 30  2  0
 29 34  1  0
 30 31  1  0
 31 32  2  0
 32 33  1  0
 33 34  2  0
M  CHG  1  21   1
M  END
