
     RDKit          3D

 35 39  0  0  0  0  0  0  0  0999 V2000
   -0.8170    2.1740   -1.5670 O   0  0  0  0  0  0  0  0  0  0  0  0
   -0.2520    2.5390   -0.4560 C   0  0  0  0  0  0  0  0  0  0  0  0
    1.4500    2.7970   -0.5360 S   0  0  0  0  0  0  0  0  0  0  0  0
    2.4520    2.8370    0.8990 C   0  0  0  0  0  0  0  0  0  0  0  0
    2.6620    1.4820    1.5960 C   0  0  1  0  0  0  0  0  0  0  0  0
    1.4000    1.0210    1.9270 O   0  0  0  0  0  0  0  0  0  0  0  0
    3.4080    0.5220    0.7490 C   0  0  0  0  0  0  0  0  0  0  0  0
    3.8320    0.8500   -0.5320 C   0  0  0  0  0  0  0  0  0  0  0  0
    4.5000   -0.0670   -1.2840 C   0  0  0  0  0  0  0  0  0  0  0  0
    4.7430   -1.3170   -0.7500 C   0  0  0  0  0  0  0  0  0  0  0  0
    4.3320   -1.6620    0.5200 C   0  0  0  0  0  0  0  0  0  0  0  0
    4.6010   -2.9270    1.0350 C   0  0  0  0  0  0  0  0  0  0  0  0
    4.1820   -3.2290    2.3120 C   0  0  0  0  0  0  0  0  0  0  0  0
    3.5060   -2.3170    3.0930 C   0  0  0  0  0  0  0  0  0  0  0  0
    3.2290   -1.0480    2.5910 C   0  0  0  0  0  0  0  0  0  0  0  0
    3.6450   -0.7390    1.3120 C   0  0  0  0  0  0  0  0  0  0  0  0
    5.4690   -2.2330   -1.6510 C   0  0  0  0  0  0  0  0  0  0  0  0
    6.7530   -1.5330   -2.0270 C   0  0  0  0  0  0  0  0  0  0  0  0
    6.4560   -0.2220   -2.6830 C   0  0  0  0  0  0  0  0  0  0  0  0
    5.0050    0.1800   -2.6750 C   0  0  0  0  0  0  0  0  0  0  0  0
   -1.1630    2.6650    0.6900 C   0  0  0  0  0  0  0  0  0  0  0  0
   -0.9010    3.0600    1.9230 N   0  0  0  0  0  0  0  0  0  0  0  0
   -2.0080    3.0170    2.6640 C   0  0  0  0  0  0  0  0  0  0  0  0
   -3.0510    2.5800    1.9030 C   0  0  0  0  0  0  0  0  0  0  0  0
   -2.5460    2.3440    0.6300 C   0  0  0  0  0  0  0  0  0  0  0  0
   -3.1660    1.9110   -0.4760 O   0  0  0  0  0  0  0  0  0  0  0  0
   -4.2410    1.4930   -1.0980 C   0  0  0  0  0  0  0  0  0  0  0  0
   -4.9070    0.1620   -0.7170 C   0  0  1  0  0  0  0  0  0  0  0  0
   -5.3260    0.2130    0.7190 C   0  0  0  0  0  0  0  0  0  0  0  0
   -6.2150    1.2480    0.9810 O   0  0  0  0  0  0  0  0  0  0  0  0
   -6.0940   -0.0600   -1.5980 C   0  0  0  0  0  0  0  0  0  0  0  0
   -6.8230   -1.3140   -1.2230 C   0  0  0  0  0  0  0  0  0  0  0  0
   -5.8850   -2.4900   -1.1820 C   0  0  0  0  0  0  0  0  0  0  0  0
   -4.5410   -2.1020   -1.7390 C   0  0  0  0  0  0  0  0  0  0  0  0
   -3.9170   -0.9720   -0.9600 C   0  0  0  0  0  0  0  0  0  0  0  0
  1  2  2  0
  2  3  1  0
  2 21  1  0
  3  4  1  0
  4  5  1  0
  5  6  1  6
  5  7  1  0
  7  8  2  0
  7 16  1  0
  8  9  1  0
  9 10  2  0
  9 20  1  0
 10 11  1  0
 10 17  1  0
 11 12  2  0
 11 16  1  0
 12 13  1  0
 13 14  2  0
 14 15  1  0
 15 16  2  0
 17 18  1  0
 18 19  1  0
 19 20  1  0
 21 22  1  0
 21 25  2  0
 22 23  1  0
 23 24  2  0
 24 25  1  0
 25 26  1  0
 26 27  1  0
 28 27  1  6
 28 29  1  0
 28 31  1  0
 28 35  1  0
 29 30  1  0
 31 32  1  0
 32 33  1  0
 33 34  1  0
 34 35  1  0
M  END
