
     RDKit          3D

 34 38  0  0  0  0  0  0  0  0999 V2000
    4.8440   -0.4380   -1.3220 N   0  0  0  0  0  0  0  0  0  0  0  0
    3.6250   -0.2090   -0.6090 C   0  0  0  0  0  0  0  0  0  0  0  0
    2.9200    0.9670   -0.8250 C   0  0  0  0  0  0  0  0  0  0  0  0
    1.7330    1.1690   -0.1170 C   0  0  0  0  0  0  0  0  0  0  0  0
    1.2480    0.2440    0.7770 C   0  0  0  0  0  0  0  0  0  0  0  0
    0.0380    0.4840    1.4780 N   0  0  0  0  0  0  0  0  0  0  0  0
    0.0120    0.8020    2.8000 C   0  0  0  0  0  0  0  0  0  0  0  0
   -1.3150    0.9550    3.1390 C   0  0  0  0  0  0  0  0  0  0  0  0
   -2.0390    0.7300    2.0320 N   0  0  0  0  0  0  0  0  0  0  0  0
   -1.2150    0.4370    0.9940 C   0  0  0  0  0  0  0  0  0  0  0  0
   -1.5550    0.1230   -0.3720 C   0  0  0  0  0  0  0  0  0  0  0  0
   -1.7150   -1.1460   -0.8930 C   0  0  0  0  0  0  0  0  0  0  0  0
   -1.5940   -2.4510   -0.2600 C   0  0  0  0  0  0  0  0  0  0  0  0
   -0.5210   -3.2940   -0.5680 C   0  0  0  0  0  0  0  0  0  0  0  0
   -0.3820   -4.5370    0.0120 C   0  0  0  0  0  0  0  0  0  0  0  0
   -1.2990   -4.9870    0.9160 C   0  0  0  0  0  0  0  0  0  0  0  0
   -1.1980   -6.1950    1.5050 F   0  0  0  0  0  0  0  0  0  0  0  0
   -2.3790   -4.1770    1.2480 C   0  0  0  0  0  0  0  0  0  0  0  0
   -2.4940   -2.9440    0.6560 C   0  0  0  0  0  0  0  0  0  0  0  0
   -3.8690   -1.9520    1.0870 Cl  0  0  0  0  0  0  0  0  0  0  0  0
   -2.0300   -0.9250   -2.1940 N   0  0  0  0  0  0  0  0  0  0  0  0
   -2.0580    0.3380   -2.4380 O   0  0  0  0  0  0  0  0  0  0  0  0
   -1.7790    1.0580   -1.3790 C   0  0  0  0  0  0  0  0  0  0  0  0
   -1.7190    2.5270   -1.2860 C   0  0  0  0  0  0  0  0  0  0  0  0
   -2.5880    3.1910   -0.4360 C   0  0  0  0  0  0  0  0  0  0  0  0
   -2.5210    4.5470   -0.3640 C   0  0  0  0  0  0  0  0  0  0  0  0
   -1.6130    5.2360   -1.1180 C   0  0  0  0  0  0  0  0  0  0  0  0
   -1.5950    6.5860   -1.0040 F   0  0  0  0  0  0  0  0  0  0  0  0
   -0.7330    4.6020   -1.9750 C   0  0  0  0  0  0  0  0  0  0  0  0
   -0.8040    3.2240   -2.0450 C   0  0  0  0  0  0  0  0  0  0  0  0
    1.9940   -0.9230    0.9590 C   0  0  0  0  0  0  0  0  0  0  0  0
    3.1630   -1.1520    0.2810 C   0  0  0  0  0  0  0  0  0  0  0  0
    3.9600   -2.3590    0.4520 C   0  0  0  0  0  0  0  0  0  0  0  0
    5.0210   -2.5370   -0.1820 O   0  0  0  0  0  0  0  0  0  0  0  0
  1  2  1  0
  2  3  2  0
  2 32  1  0
  3  4  1  0
  4  5  2  0
  5  6  1  0
  5 31  1  0
  6  7  1  0
  6 10  1  0
  7  8  2  0
  8  9  1  0
  9 10  2  0
 10 11  1  0
 11 12  1  0
 11 23  2  0
 12 13  1  0
 12 21  2  0
 13 14  2  0
 13 19  1  0
 14 15  1  0
 15 16  2  0
 16 17  1  0
 16 18  1  0
 18 19  2  0
 19 20  1  0
 21 22  1  0
 22 23  1  0
 23 24  1  0
 24 25  2  0
 24 30  1  0
 25 26  1  0
 26 27  2  0
 27 28  1  0
 27 29  1  0
 29 30  2  0
 31 32  2  0
 32 33  1  0
 33 34  2  0
M  END
