
     RDKit          3D

 34 38  0  0  0  0  0  0  0  0999 V2000
   -4.8190    1.3080    1.1850 C   0  0  0  0  0  0  0  0  0  0  0  0
   -5.0990    0.1180    0.4610 N   0  0  0  0  0  0  0  0  0  0  0  0
   -4.0050   -0.7880    0.2310 C   0  0  0  0  0  0  0  0  0  0  0  0
   -2.7220   -0.1640    0.1700 C   0  0  0  0  0  0  0  0  0  0  0  0
   -2.5490    1.0780    0.3070 O   0  0  0  0  0  0  0  0  0  0  0  0
   -1.5210   -0.8830   -0.0490 N   0  0  0  0  0  0  0  0  0  0  0  0
   -0.2210   -0.2930   -0.1260 C   0  0  0  0  0  0  0  0  0  0  0  0
    0.8430   -1.1340    0.1690 C   0  0  0  0  0  0  0  0  0  0  0  0
    2.1500   -0.6880    0.1120 C   0  0  0  0  0  0  0  0  0  0  0  0
    2.4710    0.6000   -0.2350 C   0  0  0  0  0  0  0  0  0  0  0  0
    3.6760    1.0840   -0.3060 O   0  0  0  0  0  0  0  0  0  0  0  0
    4.9670    0.9310   -0.1880 C   0  0  0  0  0  0  0  0  0  0  0  0
    5.7850    2.0530   -0.4780 C   0  0  0  0  0  0  0  0  0  0  0  0
    7.1460    2.0200   -0.3910 C   0  0  0  0  0  0  0  0  0  0  0  0
    7.7850    0.8800   -0.0140 C   0  0  0  0  0  0  0  0  0  0  0  0
    7.0560   -0.2460    0.2830 C   0  0  0  0  0  0  0  0  0  0  0  0
    5.6690   -0.1870    0.1860 C   0  0  0  0  0  0  0  0  0  0  0  0
    8.0590   -1.2760    0.6480 C   0  0  0  0  0  0  0  0  0  0  0  0
    9.2800   -0.8570   -0.0360 N   0  0  0  0  0  0  0  0  0  0  0  0
    9.2330    0.5850    0.1570 C   0  0  1  0  0  0  0  0  0  0  0  0
    9.9930    1.2330   -0.8110 F   0  0  0  0  0  0  0  0  0  0  0  0
    9.7000    0.9580    1.4020 F   0  0  0  0  0  0  0  0  0  0  0  0
    1.3640    1.4200   -0.5260 C   0  0  0  0  0  0  0  0  0  0  0  0
    0.0700    0.9790   -0.4700 C   0  0  0  0  0  0  0  0  0  0  0  0
   -4.1590   -2.0670    0.0790 C   0  0  0  0  0  0  0  0  0  0  0  0
   -5.3750   -2.9290    0.0910 C   0  0  0  0  0  0  0  0  0  0  0  0
   -6.6180   -2.5570   -0.0160 N   0  0  0  0  0  0  0  0  0  0  0  0
   -7.1490   -1.2450   -0.1710 C   0  0  0  0  0  0  0  0  0  0  0  0
   -8.4670   -1.2350   -0.5710 C   0  0  0  0  0  0  0  0  0  0  0  0
   -9.0620   -0.0010   -0.7410 C   0  0  0  0  0  0  0  0  0  0  0  0
  -10.7560   -0.0240   -1.2550 Cl  0  0  0  0  0  0  0  0  0  0  0  0
   -8.3990    1.1870   -0.5300 C   0  0  0  0  0  0  0  0  0  0  0  0
   -7.0940    1.1790   -0.1340 C   0  0  0  0  0  0  0  0  0  0  0  0
   -6.4720   -0.0390    0.0440 C   0  0  0  0  0  0  0  0  0  0  0  0
  1  2  1  0
  2  3  1  0
  2 34  1  0
  3  4  1  0
  3 25  2  0
  4  5  2  0
  4  6  1  0
  6  7  1  0
  7  8  2  0
  7 24  1  0
  8  9  1  0
  9 10  2  0
 10 11  1  0
 10 23  1  0
 11 12  1  0
 12 13  2  0
 12 17  1  0
 13 14  1  0
 14 15  2  0
 15 16  1  0
 15 20  1  0
 16 17  2  0
 16 18  1  0
 18 19  1  0
 19 20  1  0
 20 21  1  6
 20 22  1  0
 23 24  2  0
 25 26  1  0
 26 27  2  0
 27 28  1  0
 28 29  2  0
 28 34  1  0
 29 30  1  0
 30 31  1  0
 30 32  2  0
 32 33  1  0
 33 34  2  0
M  END
