
     RDKit          3D

 26 29  0  0  0  0  0  0  0  0999 V2000
   -3.7260   -2.3200    1.7070 C   0  0  0  0  0  0  0  0  0  0  0  0
   -3.1350   -1.1990    0.9270 C   0  0  0  0  0  0  0  0  0  0  0  0
   -1.7710   -1.1630    0.6080 C   0  0  0  0  0  0  0  0  0  0  0  0
   -1.1930   -0.1390   -0.1120 C   0  0  0  0  0  0  0  0  0  0  0  0
    0.2110   -0.1360   -0.4320 C   0  0  0  0  0  0  0  0  0  0  0  0
    1.0050   -1.1130   -0.0150 C   0  0  0  0  0  0  0  0  0  0  0  0
    2.4450   -1.1540   -0.3160 C   0  0  0  0  0  0  0  0  0  0  0  0
    3.1260   -2.1860    0.1550 C   0  0  0  0  0  0  0  0  0  0  0  0
    4.5760   -2.2820   -0.1160 C   0  0  0  0  0  0  0  0  0  0  0  0
    5.1690   -0.9240   -0.0670 C   0  0  0  0  0  0  0  0  0  0  0  0
    6.4010   -0.7000    0.4370 N   0  0  0  0  0  0  0  0  0  0  0  0
    6.9300    0.5410    0.4760 C   0  0  0  0  0  0  0  0  0  0  0  0
    6.2590    1.6520    0.0090 C   0  0  0  0  0  0  0  0  0  0  0  0
    4.9960    1.4560   -0.5130 C   0  0  0  0  0  0  0  0  0  0  0  0
    4.4770    0.1650   -0.5390 C   0  0  0  0  0  0  0  0  0  0  0  0
    3.0980   -0.0890   -1.1020 C   0  0  0  0  0  0  0  0  0  0  0  0
   -2.0390    0.8740   -0.5140 C   0  0  0  0  0  0  0  0  0  0  0  0
   -1.5190    2.0330   -1.2680 C   0  0  0  0  0  0  0  0  0  0  0  0
   -3.4060    0.8880   -0.2250 C   0  0  0  0  0  0  0  0  0  0  0  0
   -3.9350   -0.1760    0.5080 C   0  0  0  0  0  0  0  0  0  0  0  0
   -5.3450   -0.1210    0.7890 C   0  0  0  0  0  0  0  0  0  0  0  0
   -5.8760   -1.0840    1.4030 O   0  0  0  0  0  0  0  0  0  0  0  0
   -6.2140    0.9970    0.4010 C   0  0  0  0  0  0  0  0  0  0  0  0
   -5.4740    2.2790    0.1160 C   0  0  0  0  0  0  0  0  0  0  0  0
   -4.2880    1.9530   -0.6730 C   0  0  0  0  0  0  0  0  0  0  0  0
   -4.0210    2.5650   -1.7150 O   0  0  0  0  0  0  0  0  0  0  0  0
  1  2  1  0
  2  3  2  0
  2 20  1  0
  3  4  1  0
  4  5  1  0
  4 17  2  0
  5  6  2  3
  6  7  1  0
  7  8  2  0
  7 16  1  0
  8  9  1  0
  9 10  1  0
 10 11  2  0
 10 15  1  0
 11 12  1  0
 12 13  2  0
 13 14  1  0
 14 15  2  0
 15 16  1  0
 17 18  1  0
 17 19  1  0
 19 20  2  0
 19 25  1  0
 20 21  1  0
 21 22  2  0
 21 23  1  0
 23 24  1  0
 24 25  1  0
 25 26  2  0
M  CHG  1  11   1
M  END
