
     RDKit          3D

 26 29  0  0  0  0  0  0  0  0999 V2000
    8.0980   -1.5230    0.0710 C   0  0  0  0  0  0  0  0  0  0  0  0
    6.6400   -1.2570    0.1740 C   0  0  0  0  0  0  0  0  0  0  0  0
    5.7840   -2.1070    0.8300 C   0  0  0  0  0  0  0  0  0  0  0  0
    4.4270   -1.8110    0.8960 C   0  0  0  0  0  0  0  0  0  0  0  0
    3.8550   -0.6890    0.3330 C   0  0  0  0  0  0  0  0  0  0  0  0
    2.4070   -0.3940    0.4040 C   0  0  2  0  0  0  0  0  0  0  0  0
    1.6110   -1.2750    1.3050 C   0  0  0  0  0  0  0  0  0  0  0  0
    0.1330   -1.0590    0.9430 C   0  0  0  0  0  0  0  0  0  0  0  0
   -0.0790    0.3230    0.5410 N   0  0  2  0  0  0  0  0  0  0  0  0
   -1.4620    0.6840    0.6220 C   0  0  0  0  0  0  0  0  0  0  0  0
   -2.1650    0.8960   -0.6760 C   0  0  0  0  0  0  0  0  0  0  0  0
   -3.5050    1.2120   -0.4940 O   0  0  0  0  0  0  0  0  0  0  0  0
   -4.5290    0.4640    0.0270 C   0  0  0  0  0  0  0  0  0  0  0  0
   -4.4250   -0.8340    0.4690 C   0  0  0  0  0  0  0  0  0  0  0  0
   -5.5280   -1.5210    0.9840 C   0  0  0  0  0  0  0  0  0  0  0  0
   -6.7550   -0.9100    1.0610 C   0  0  0  0  0  0  0  0  0  0  0  0
   -6.8880    0.3930    0.6230 C   0  0  0  0  0  0  0  0  0  0  0  0
   -5.8040    1.0520    0.1230 C   0  0  0  0  0  0  0  0  0  0  0  0
   -6.2610    2.4150   -0.2580 C   0  0  0  0  0  0  0  0  0  0  0  0
   -7.7500    2.2080   -0.4240 C   0  0  0  0  0  0  0  0  0  0  0  0
   -8.0120    1.2380    0.5900 O   0  0  0  0  0  0  0  0  0  0  0  0
    0.4990    0.6310   -0.7240 C   0  0  0  0  0  0  0  0  0  0  0  0
    1.7030   -0.3130   -0.9200 C   0  0  0  0  0  0  0  0  0  0  0  0
    4.7380    0.1570   -0.3250 C   0  0  0  0  0  0  0  0  0  0  0  0
    4.2880    1.3950   -0.9560 C   0  0  0  0  0  0  0  0  0  0  0  0
    6.0900   -0.1290   -0.3960 C   0  0  0  0  0  0  0  0  0  0  0  0
  1  2  1  0
  2  3  2  0
  2 26  1  0
  3  4  1  0
  4  5  2  0
  6  5  1  6
  5 24  1  0
  6  7  1  0
  6 23  1  0
  7  8  1  0
  8  9  1  0
  9 10  1  6
  9 22  1  0
 10 11  1  0
 11 12  1  0
 12 13  1  0
 13 14  2  0
 13 18  1  0
 14 15  1  0
 15 16  2  0
 16 17  1  0
 17 18  2  0
 17 21  1  0
 18 19  1  0
 19 20  1  0
 20 21  1  0
 22 23  1  0
 24 25  1  0
 24 26  2  0
M  CHG  1   9   1
M  END
