
     RDKit          3D

 26 28  0  0  0  0  0  0  0  0999 V2000
   -4.8840   -3.9370    0.0220 C   0  0  0  0  0  0  0  0  0  0  0  0
   -4.0420   -3.0050   -0.6660 C   0  0  0  0  0  0  0  0  0  0  0  0
   -3.8320   -1.6660   -0.1220 C   0  0  0  0  0  0  0  0  0  0  0  0
   -4.6040   -1.6240    1.1270 C   0  0  0  0  0  0  0  0  0  0  0  0
   -3.0620   -0.7870   -0.8960 C   0  0  0  0  0  0  0  0  0  0  0  0
   -1.7970   -0.1060   -0.5880 C   0  0  0  0  0  0  0  0  0  0  0  0
   -0.5560   -0.6370   -0.6490 C   0  0  0  0  0  0  0  0  0  0  0  0
   -0.3740   -2.0880   -0.7120 C   0  0  0  0  0  0  0  0  0  0  0  0
    0.6720    0.0900   -0.4870 C   0  0  0  0  0  0  0  0  0  0  0  0
    1.8560   -0.6730   -0.8660 C   0  0  0  0  0  0  0  0  0  0  0  0
    2.9780   -0.9800   -0.1490 N   0  0  1  0  0  0  0  0  0  0  0  0
    3.2960   -2.4040   -0.6620 C   0  0  0  0  0  0  0  0  0  0  0  0
    4.2640   -0.3910   -0.1250 C   0  0  2  0  0  0  0  0  0  0  0  0
    5.2250   -1.4880    0.4020 C   0  0  0  0  0  0  0  0  0  0  0  0
    5.9240   -0.8270    1.5740 C   0  0  0  0  0  0  0  0  0  0  0  0
    5.7150    0.5120    1.4040 O   0  0  0  0  0  0  0  0  0  0  0  0
    4.4180    0.6620    0.9550 C   0  0  0  0  0  0  0  0  0  0  0  0
    0.5570    1.4350   -0.2370 C   0  0  0  0  0  0  0  0  0  0  0  0
    1.4150    2.3940   -0.0620 O   0  0  0  0  0  0  0  0  0  0  0  0
    0.8030    3.5720    0.1360 C   0  0  0  0  0  0  0  0  0  0  0  0
   -0.5520    3.4320    0.1040 C   0  0  0  0  0  0  0  0  0  0  0  0
   -1.5950    4.4480    0.2950 C   0  0  0  0  0  0  0  0  0  0  0  0
   -1.0480    5.8330    0.0450 C   0  0  0  0  0  0  0  0  0  0  0  0
   -0.7080    2.0500   -0.1430 C   0  0  0  0  0  0  0  0  0  0  0  0
   -1.8290    1.2740   -0.3150 C   0  0  0  0  0  0  0  0  0  0  0  0
   -3.1300    1.9180   -0.0990 C   0  0  0  0  0  0  0  0  0  0  0  0
  1  2  1  0
  2  3  2  3
  3  4  1  0
  3  5  1  0
  5  6  1  0
  6  7  2  0
  6 25  1  0
  7  8  1  0
  7  9  1  0
  9 10  1  0
  9 18  2  0
 10 11  1  0
 11 12  1  6
 11 13  1  0
 13 14  1  1
 13 17  1  0
 14 15  1  0
 15 16  1  0
 16 17  1  0
 18 19  1  0
 18 24  1  0
 19 20  1  0
 20 21  2  0
 21 22  1  0
 21 24  1  0
 22 23  1  0
 24 25  2  0
 25 26  1  0
M  CHG  1  11   1
M  END
