
     RDKit          3D

 26 29  0  0  0  0  0  0  0  0999 V2000
   -3.3320    1.8410   -0.3950 O   0  0  0  0  0  0  0  0  0  0  0  0
   -2.9750    0.7700    0.0720 C   0  0  0  0  0  0  0  0  0  0  0  0
   -3.7520   -0.3450    0.4270 C   0  0  0  0  0  0  0  0  0  0  0  0
   -5.0310   -0.6320    0.4030 C   0  0  0  0  0  0  0  0  0  0  0  0
   -5.4880   -1.9080    0.8530 O   0  0  0  0  0  0  0  0  0  0  0  0
   -6.8400   -1.9950    0.7070 C   0  0  0  0  0  0  0  0  0  0  0  0
   -7.3080   -0.7110    0.1900 C   0  0  0  0  0  0  0  0  0  0  0  0
   -8.5750   -0.2420   -0.1090 C   0  0  0  0  0  0  0  0  0  0  0  0
   -8.7250    1.0280   -0.6000 C   0  0  0  0  0  0  0  0  0  0  0  0
   -7.6330    1.8300   -0.7950 C   0  0  0  0  0  0  0  0  0  0  0  0
   -6.3690    1.3710   -0.5000 C   0  0  0  0  0  0  0  0  0  0  0  0
   -6.1880    0.0970   -0.0040 C   0  0  0  0  0  0  0  0  0  0  0  0
   -1.4710    0.6430    0.2940 C   0  0  0  0  0  0  0  0  0  0  0  0
   -0.9660   -0.2880   -0.8100 C   0  0  0  0  0  0  0  0  0  0  0  0
    0.4960   -0.4100   -0.5820 C   0  0  0  0  0  0  0  0  0  0  0  0
    1.0830   -1.3680    0.2120 C   0  0  0  0  0  0  0  0  0  0  0  0
    2.4640   -1.4140    0.3850 C   0  0  0  0  0  0  0  0  0  0  0  0
    3.2870   -0.4770   -0.2530 C   0  0  0  0  0  0  0  0  0  0  0  0
    4.7080   -0.5920   -0.0240 C   0  0  0  0  0  0  0  0  0  0  0  0
    5.5560    0.4880   -0.3440 N   0  0  1  0  0  0  0  0  0  0  0  0
    6.1280    1.0820    0.8530 C   0  0  0  0  0  0  0  0  0  0  0  0
    7.5840    0.7620    0.8930 C   0  0  0  0  0  0  0  0  0  0  0  0
    7.6550   -0.4560   -0.0300 C   0  0  0  0  0  0  0  0  0  0  0  0
    6.6980   -0.0360   -1.1130 C   0  0  0  0  0  0  0  0  0  0  0  0
    2.7000    0.4650   -1.0370 C   0  0  0  0  0  0  0  0  0  0  0  0
    1.3060    0.5080   -1.2080 C   0  0  0  0  0  0  0  0  0  0  0  0
  1  2  2  0
  2  3  1  0
  2 13  1  0
  3  4  2  3
  4  5  1  0
  4 12  1  0
  5  6  1  0
  6  7  1  0
  7  8  2  0
  7 12  1  0
  8  9  1  0
  9 10  2  0
 10 11  1  0
 11 12  2  0
 13 14  1  0
 14 15  1  0
 15 16  2  0
 15 26  1  0
 16 17  1  0
 17 18  2  0
 18 19  1  0
 18 25  1  0
 20 19  1  1
 20 21  1  0
 20 24  1  0
 21 22  1  0
 22 23  1  0
 23 24  1  0
 25 26  2  0
M  CHG  1  20   1
M  END
