
     RDKit          3D

 26 28  0  0  0  0  0  0  0  0999 V2000
    6.1860   -1.4460   -2.3690 C   0  0  0  0  0  0  0  0  0  0  0  0
    5.2350   -1.3130   -1.2220 C   0  0  0  0  0  0  0  0  0  0  0  0
    4.6380   -0.1120   -0.9190 C   0  0  0  0  0  0  0  0  0  0  0  0
    3.7540   -0.0020    0.1540 C   0  0  0  0  0  0  0  0  0  0  0  0
    3.4470   -1.0890    0.9450 C   0  0  0  0  0  0  0  0  0  0  0  0
    2.5020   -0.9630    2.0820 C   0  0  0  0  0  0  0  0  0  0  0  0
    1.8090    0.2470    2.0690 O   0  0  0  0  0  0  0  0  0  0  0  0
    0.9710    0.6770    1.0500 C   0  0  0  0  0  0  0  0  0  0  0  0
    0.8190   -0.0750    0.0600 O   0  0  0  0  0  0  0  0  0  0  0  0
    0.2850    1.9900    1.1450 C   0  0  0  0  0  0  0  0  0  0  0  0
    0.4760    2.7440    2.2040 C   0  0  0  0  0  0  0  0  0  0  0  0
   -0.1720    4.0290    2.3390 C   0  0  0  0  0  0  0  0  0  0  0  0
   -0.9710    4.4780    1.4040 C   0  0  0  0  0  0  0  0  0  0  0  0
   -1.2450    3.7040    0.1860 C   0  0  0  0  0  0  0  0  0  0  0  0
   -0.5810    2.3850    0.0410 C   0  0  2  0  0  0  0  0  0  0  0  0
   -1.6300    1.3310   -0.2400 C   0  0  0  0  0  0  0  0  0  0  0  0
   -2.5690    0.9890    0.7110 C   0  0  0  0  0  0  0  0  0  0  0  0
   -3.5290    0.0280    0.4610 C   0  0  0  0  0  0  0  0  0  0  0  0
   -3.5920   -0.6320   -0.7470 C   0  0  0  0  0  0  0  0  0  0  0  0
   -4.5820   -1.6300   -1.0170 N   0  0  2  0  0  0  0  0  0  0  0  0
   -5.4560   -1.8150    0.1300 C   0  0  0  0  0  0  0  0  0  0  0  0
   -3.9850   -2.9040   -1.3690 C   0  0  0  0  0  0  0  0  0  0  0  0
   -2.6570   -0.2960   -1.7000 C   0  0  0  0  0  0  0  0  0  0  0  0
   -1.6980    0.6670   -1.4450 C   0  0  0  0  0  0  0  0  0  0  0  0
    4.0580   -2.2830    0.6230 C   0  0  0  0  0  0  0  0  0  0  0  0
    4.9300   -2.3970   -0.4320 C   0  0  0  0  0  0  0  0  0  0  0  0
  1  2  1  0
  2  3  2  0
  2 26  1  0
  3  4  1  0
  4  5  2  0
  5  6  1  0
  5 25  1  0
  6  7  1  0
  7  8  1  0
  8  9  2  0
  8 10  1  0
 10 11  2  0
 10 15  1  0
 11 12  1  0
 12 13  2  0
 13 14  1  0
 14 15  1  0
 15 16  1  1
 16 17  2  0
 16 24  1  0
 17 18  1  0
 18 19  2  0
 19 20  1  0
 19 23  1  0
 20 21  1  1
 20 22  1  0
 23 24  2  0
 25 26  2  0
M  CHG  1  20   1
M  END
