
     RDKit          3D

 26 28  0  0  0  0  0  0  0  0999 V2000
    7.4120    1.7960    1.0160 C   0  0  0  0  0  0  0  0  0  0  0  0
    6.2940    0.8900    0.6230 C   0  0  0  0  0  0  0  0  0  0  0  0
    5.3910    1.4750   -0.4430 C   0  0  0  0  0  0  0  0  0  0  0  0
    4.3280    0.4200   -0.7050 C   0  0  0  0  0  0  0  0  0  0  0  0
    3.0890    0.7180   -0.5250 C   0  0  0  0  0  0  0  0  0  0  0  0
    1.8650   -0.0040   -0.6690 C   0  0  0  0  0  0  0  0  0  0  0  0
    0.6710    0.7000   -0.4590 C   0  0  0  0  0  0  0  0  0  0  0  0
   -0.5880    0.1130   -0.5570 C   0  0  0  0  0  0  0  0  0  0  0  0
   -1.8020    0.9280   -0.2530 C   0  0  0  0  0  0  0  0  0  0  0  0
   -2.2350    0.8770    1.1730 C   0  0  0  0  0  0  0  0  0  0  0  0
   -3.4780    1.7090    1.3700 C   0  0  0  0  0  0  0  0  0  0  0  0
   -4.6680    1.0190    1.2030 C   0  0  0  0  0  0  0  0  0  0  0  0
   -5.8570    1.7170    1.3680 C   0  0  0  0  0  0  0  0  0  0  0  0
   -5.8250    3.0270    1.6810 N   0  0  0  0  0  0  0  0  0  0  0  0
   -4.6600    3.6810    1.8390 C   0  0  0  0  0  0  0  0  0  0  0  0
   -3.4360    3.0400    1.6870 C   0  0  0  0  0  0  0  0  0  0  0  0
   -0.6920   -1.2130   -0.8750 C   0  0  0  0  0  0  0  0  0  0  0  0
   -1.9510   -1.9430   -1.0700 C   0  0  1  0  0  0  0  0  0  0  0  0
   -2.6440   -1.4120   -2.3400 C   0  0  0  0  0  0  0  0  0  0  0  0
   -1.6270   -3.2780   -1.3850 O   0  0  0  0  0  0  0  0  0  0  0  0
   -1.8710   -4.0300   -0.2630 C   0  0  0  0  0  0  0  0  0  0  0  0
   -3.0150   -3.2950    0.3800 C   0  0  0  0  0  0  0  0  0  0  0  0
   -2.8150   -2.0000   -0.0220 O   0  0  0  0  0  0  0  0  0  0  0  0
    0.4950   -1.9000   -1.0790 C   0  0  0  0  0  0  0  0  0  0  0  0
    1.7460   -1.3180   -0.9800 C   0  0  0  0  0  0  0  0  0  0  0  0
    2.9320   -2.1660   -1.2000 C   0  0  0  0  0  0  0  0  0  0  0  0
  1  2  1  0
  2  3  1  0
  3  4  1  0
  4  5  2  3
  5  6  1  0
  6  7  2  0
  6 25  1  0
  7  8  1  0
  8  9  1  0
  8 17  2  0
  9 10  1  0
 10 11  1  0
 11 12  2  0
 11 16  1  0
 12 13  1  0
 13 14  2  0
 14 15  1  0
 15 16  2  0
 17 18  1  0
 17 24  1  0
 18 19  1  6
 18 20  1  0
 18 23  1  0
 20 21  1  0
 21 22  1  0
 22 23  1  0
 24 25  2  0
 25 26  1  0
M  CHG  1  14   1
M  END
