
     RDKit          3D

 26 29  0  0  0  0  0  0  0  0999 V2000
   -1.4320    4.5200    0.5460 C   0  0  0  0  0  0  0  0  0  0  0  0
   -2.1670    3.2360    0.3670 C   0  0  0  0  0  0  0  0  0  0  0  0
   -3.5380    3.2060    0.3020 C   0  0  0  0  0  0  0  0  0  0  0  0
   -4.2190    2.0420    0.1280 C   0  0  0  0  0  0  0  0  0  0  0  0
   -3.5020    0.8760    0.0140 C   0  0  0  0  0  0  0  0  0  0  0  0
   -2.0980    0.8350    0.0720 C   0  0  0  0  0  0  0  0  0  0  0  0
   -1.3950   -0.4740   -0.0410 C   0  0  2  0  0  0  0  0  0  0  0  0
   -0.0270   -0.3070   -0.0010 O   0  0  0  0  0  0  0  0  0  0  0  0
    0.8350    0.3320   -0.8540 C   0  0  0  0  0  0  0  0  0  0  0  0
    0.3400    0.8580   -1.8670 O   0  0  0  0  0  0  0  0  0  0  0  0
    2.2850    0.3650   -0.5380 C   0  0  0  0  0  0  0  0  0  0  0  0
    2.6950   -0.2180    0.6550 C   0  0  0  0  0  0  0  0  0  0  0  0
    3.9840   -0.2710    1.0580 C   0  0  0  0  0  0  0  0  0  0  0  0
    4.9580    0.2740    0.2620 C   0  0  0  0  0  0  0  0  0  0  0  0
    4.5800    0.8710   -0.9480 C   0  0  0  0  0  0  0  0  0  0  0  0
    3.2420    0.9130   -1.3400 C   0  0  0  0  0  0  0  0  0  0  0  0
    5.8020    1.3470   -1.5580 C   0  0  0  0  0  0  0  0  0  0  0  0
    6.8550    1.0640   -0.7840 C   0  0  0  0  0  0  0  0  0  0  0  0
    6.4370    0.3660    0.4300 C   0  0  0  0  0  0  0  0  0  0  0  0
   -1.8490   -1.1390   -1.3130 C   0  0  0  0  0  0  0  0  0  0  0  0
   -2.7350   -2.3010   -1.2170 C   0  0  0  0  0  0  0  0  0  0  0  0
   -2.7210   -3.1070   -0.0520 N   0  0  1  0  0  0  0  0  0  0  0  0
   -2.7020   -4.5320   -0.3020 C   0  0  0  0  0  0  0  0  0  0  0  0
   -1.6460   -2.7920    0.8640 C   0  0  0  0  0  0  0  0  0  0  0  0
   -1.7290   -1.3100    1.2070 C   0  0  0  0  0  0  0  0  0  0  0  0
   -1.4720    2.0460    0.2510 C   0  0  0  0  0  0  0  0  0  0  0  0
  1  2  1  0
  2  3  2  0
  2 26  1  0
  3  4  1  0
  4  5  2  0
  5  6  1  0
  6  7  1  0
  6 26  2  0
  7  8  1  6
  7 20  1  0
  7 25  1  0
  8  9  1  0
  9 10  2  0
  9 11  1  0
 11 12  2  0
 11 16  1  0
 12 13  1  0
 13 14  2  0
 14 15  1  0
 14 19  1  0
 15 16  2  0
 15 17  1  0
 17 18  2  0
 18 19  1  0
 20 21  1  0
 21 22  1  0
 22 23  1  6
 22 24  1  0
 24 25  1  0
M  CHG  1  22   1
M  END
