
     RDKit          3D

 25 28  0  0  0  0  0  0  0  0999 V2000
   -1.5400    0.1150   -3.5530 C   0  0  0  0  0  0  0  0  0  0  0  0
   -1.1070    1.0960   -2.4890 C   0  0  0  0  0  0  0  0  0  0  0  0
   -0.2950    0.4750   -1.4220 C   0  0  0  0  0  0  0  0  0  0  0  0
    1.0000    0.5860   -1.2620 O   0  0  0  0  0  0  0  0  0  0  0  0
    1.4660   -0.0570   -0.2490 C   0  0  0  0  0  0  0  0  0  0  0  0
    2.8540   -0.1600    0.2350 C   0  0  0  0  0  0  0  0  0  0  0  0
    3.1780   -0.8870    1.3420 C   0  0  0  0  0  0  0  0  0  0  0  0
    4.4930   -0.9770    1.7880 C   0  0  0  0  0  0  0  0  0  0  0  0
    5.4930   -0.3180    1.0980 C   0  0  0  0  0  0  0  0  0  0  0  0
    6.8560   -0.2020    1.2620 C   0  0  0  0  0  0  0  0  0  0  0  0
    7.3120    0.5990    0.2380 C   0  0  0  0  0  0  0  0  0  0  0  0
    8.7380    1.0130   -0.0040 C   0  0  0  0  0  0  0  0  0  0  0  0
    6.2990    0.9410   -0.4920 O   0  0  0  0  0  0  0  0  0  0  0  0
    5.1840    0.4280   -0.0350 C   0  0  0  0  0  0  0  0  0  0  0  0
    3.8550    0.4930   -0.4490 C   0  0  0  0  0  0  0  0  0  0  0  0
    0.3910   -0.6620    0.3360 C   0  0  0  0  0  0  0  0  0  0  0  0
   -0.7390   -0.3350   -0.3960 C   0  0  0  0  0  0  0  0  0  0  0  0
   -2.0390   -0.7760   -0.0890 N   0  0  1  0  0  0  0  0  0  0  0  0
   -1.9250   -1.6490    1.0770 C   0  0  0  0  0  0  0  0  0  0  0  0
   -3.0520    0.2210    0.0700 C   0  0  2  0  0  0  0  0  0  0  0  0
   -3.7300    0.2420    1.4060 C   0  0  0  0  0  0  0  0  0  0  0  0
   -4.9880   -0.5320    1.3690 C   0  0  0  0  0  0  0  0  0  0  0  0
   -6.0510    0.3520    0.6900 C   0  0  0  0  0  0  0  0  0  0  0  0
   -5.4180    0.8350   -0.5650 C   0  0  0  0  0  0  0  0  0  0  0  0
   -4.1480    0.1140   -0.9450 C   0  0  0  0  0  0  0  0  0  0  0  0
  1  2  1  0
  2  3  1  0
  3  4  1  0
  3 17  2  0
  4  5  1  0
  5  6  1  0
  5 16  2  0
  6  7  2  0
  6 15  1  0
  7  8  1  0
  8  9  2  0
  9 10  1  0
  9 14  1  0
 10 11  2  0
 11 12  1  0
 11 13  1  0
 13 14  1  0
 14 15  2  0
 16 17  1  0
 17 18  1  0
 18 19  1  1
 18 20  1  0
 20 21  1  1
 20 25  1  0
 21 22  1  0
 22 23  1  0
 23 24  1  0
 24 25  1  0
M  CHG  1  18   1
M  END
