
     RDKit          3D

 26 29  0  0  0  0  0  0  0  0999 V2000
    5.3560    2.8680   -0.6450 C   0  0  0  0  0  0  0  0  0  0  0  0
    4.8840    1.8650   -1.6860 C   0  0  0  0  0  0  0  0  0  0  0  0
    3.4530    1.4340   -1.4070 C   0  0  0  0  0  0  0  0  0  0  0  0
    3.3410    0.8180   -0.0990 N   0  0  0  0  0  0  0  0  0  0  0  0
    2.0500    0.2510    0.1600 C   0  0  0  0  0  0  0  0  0  0  0  0
    2.0930   -1.1960    0.5340 C   0  0  2  0  0  0  0  0  0  0  0  0
    2.6870   -2.0270   -0.5720 C   0  0  0  0  0  0  0  0  0  0  0  0
    3.1550   -3.3440    0.0600 C   0  0  0  0  0  0  0  0  0  0  0  0
    2.1210   -3.8210    1.0310 C   0  0  0  0  0  0  0  0  0  0  0  0
    0.7490   -3.2300    0.8090 C   0  0  0  0  0  0  0  0  0  0  0  0
    0.7660   -1.7190    1.0120 C   0  0  2  0  0  0  0  0  0  0  0  0
   -0.4020   -1.1200    0.3290 C   0  0  0  0  0  0  0  0  0  0  0  0
   -1.3400   -0.4170    1.0010 C   0  0  0  0  0  0  0  0  0  0  0  0
   -1.4960   -0.0610    2.4280 C   0  0  0  0  0  0  0  0  0  0  0  0
   -2.3490    1.1670    2.5810 C   0  0  0  0  0  0  0  0  0  0  0  0
   -3.5270    1.0660    1.7780 O   0  0  0  0  0  0  0  0  0  0  0  0
   -3.4040    0.7450    0.4100 C   0  0  0  0  0  0  0  0  0  0  0  0
   -4.3880    1.1770   -0.5700 C   0  0  0  0  0  0  0  0  0  0  0  0
   -4.2270    1.6780   -1.8310 C   0  0  0  0  0  0  0  0  0  0  0  0
   -5.5010    1.9210   -2.3170 C   0  0  0  0  0  0  0  0  0  0  0  0
   -6.3860    1.5630   -1.3410 C   0  0  0  0  0  0  0  0  0  0  0  0
   -7.8900    1.6460   -1.4060 C   0  0  0  0  0  0  0  0  0  0  0  0
   -5.6860    1.1280   -0.3240 O   0  0  0  0  0  0  0  0  0  0  0  0
   -2.3610    0.0400    0.0580 C   0  0  0  0  0  0  0  0  0  0  0  0
   -1.9450   -0.4550   -1.2250 C   0  0  0  0  0  0  0  0  0  0  0  0
   -0.7980   -1.1320   -1.0540 C   0  0  0  0  0  0  0  0  0  0  0  0
  1  2  1  0
  2  3  1  0
  3  4  1  0
  4  5  1  0
  6  5  1  6
  6  7  1  0
  6 11  1  0
  7  8  1  0
  8  9  1  0
  9 10  1  0
 10 11  1  0
 11 12  1  6
 12 13  2  0
 12 26  1  0
 13 14  1  0
 13 24  1  0
 14 15  1  0
 15 16  1  0
 16 17  1  0
 17 18  1  0
 17 24  2  0
 18 19  2  0
 18 23  1  0
 19 20  1  0
 20 21  2  0
 21 22  1  0
 21 23  1  0
 24 25  1  0
 25 26  2  0
M  CHG  1   4   1
M  END
