
     RDKit          3D

 26 28  0  0  0  0  0  0  0  0999 V2000
    5.6250   -1.7910   -0.7290 C   0  0  0  0  0  0  0  0  0  0  0  0
    4.8030   -2.4140    0.3170 C   0  0  0  0  0  0  0  0  0  0  0  0
    3.4520   -2.3160    0.4750 C   0  0  0  0  0  0  0  0  0  0  0  0
    2.9430   -3.0740    1.6410 C   0  0  0  0  0  0  0  0  0  0  0  0
    2.5880   -1.5760   -0.4530 C   0  0  0  0  0  0  0  0  0  0  0  0
    1.6310   -0.5720   -0.0800 C   0  0  0  0  0  0  0  0  0  0  0  0
    0.3400   -0.9240    0.3260 C   0  0  0  0  0  0  0  0  0  0  0  0
   -0.0410   -2.3250    0.5560 C   0  0  0  0  0  0  0  0  0  0  0  0
   -0.6680    0.0590    0.5870 C   0  0  0  0  0  0  0  0  0  0  0  0
   -1.9760   -0.4250    1.0250 C   0  0  0  0  0  0  0  0  0  0  0  0
   -3.0160   -0.2140    0.0040 N   0  0  1  0  0  0  0  0  0  0  0  0
   -2.5890   -0.8480   -1.2280 C   0  0  0  0  0  0  0  0  0  0  0  0
   -4.1530   -0.9540    0.4670 C   0  0  2  0  0  0  0  0  0  0  0  0
   -5.1570   -1.3820   -0.5300 C   0  0  0  0  0  0  0  0  0  0  0  0
   -6.3060   -0.4090   -0.2700 C   0  0  0  0  0  0  0  0  0  0  0  0
   -6.3120   -0.3970    1.1240 O   0  0  0  0  0  0  0  0  0  0  0  0
   -4.9850   -0.1150    1.4240 C   0  0  0  0  0  0  0  0  0  0  0  0
   -0.2930    1.3590    0.4400 C   0  0  0  0  0  0  0  0  0  0  0  0
   -1.0290    2.4570    0.6380 O   0  0  0  0  0  0  0  0  0  0  0  0
   -0.3170    3.5110    0.4060 C   0  0  0  0  0  0  0  0  0  0  0  0
    0.9760    3.1400    0.0320 C   0  0  0  0  0  0  0  0  0  0  0  0
    2.1050    4.0290   -0.2570 C   0  0  0  0  0  0  0  0  0  0  0  0
    1.7530    5.4300    0.2810 C   0  0  0  0  0  0  0  0  0  0  0  0
    0.9960    1.7480    0.0480 C   0  0  0  0  0  0  0  0  0  0  0  0
    1.9340    0.7630   -0.2090 C   0  0  0  0  0  0  0  0  0  0  0  0
    3.2330    1.2510   -0.7000 C   0  0  0  0  0  0  0  0  0  0  0  0
  1  2  1  0
  2  3  2  3
  3  4  1  0
  3  5  1  0
  5  6  1  0
  6  7  2  0
  6 25  1  0
  7  8  1  0
  7  9  1  0
  9 10  1  0
  9 18  2  0
 10 11  1  0
 11 12  1  6
 11 13  1  0
 13 14  1  6
 13 17  1  0
 14 15  1  0
 15 16  1  0
 16 17  1  0
 18 19  1  0
 18 24  1  0
 19 20  1  0
 20 21  2  0
 21 22  1  0
 21 24  1  0
 22 23  1  0
 24 25  2  0
 25 26  1  0
M  CHG  1  11   1
M  END
