
     RDKit          3D

 28 31  0  0  0  0  0  0  0  0999 V2000
    5.9130   -2.5920   -2.0880 C   0  0  0  0  0  0  0  0  0  0  0  0
    6.2050   -1.3740   -1.4060 O   0  0  0  0  0  0  0  0  0  0  0  0
    5.1850   -0.7080   -0.7330 C   0  0  0  0  0  0  0  0  0  0  0  0
    3.8830   -1.1760   -0.6920 C   0  0  0  0  0  0  0  0  0  0  0  0
    2.8940   -0.4920   -0.0160 C   0  0  0  0  0  0  0  0  0  0  0  0
    1.6190   -0.9180    0.0440 N   0  0  0  0  0  0  0  0  0  0  0  0
    0.6480   -0.2600    0.7000 C   0  0  0  0  0  0  0  0  0  0  0  0
   -0.6830   -0.7310    0.7450 N   0  0  0  0  0  0  0  0  0  0  0  0
   -1.7150   -0.0290    1.4500 C   0  0  0  0  0  0  0  0  0  0  0  0
   -2.9100    0.2590    0.5440 C   0  0  0  0  0  0  0  0  0  0  0  0
   -3.2660   -0.9570   -0.1490 N   0  0  0  0  0  0  0  0  0  0  0  0
   -4.3070   -0.9900   -1.0710 C   0  0  0  0  0  0  0  0  0  0  0  0
   -4.5680   -2.1090   -1.6580 O   0  0  0  0  0  0  0  0  0  0  0  0
   -5.1290    0.1740   -1.4210 C   0  0  1  0  0  0  0  0  0  0  0  0
   -6.5750   -0.1250   -1.1210 C   0  0  0  0  0  0  0  0  0  0  0  0
   -6.8740    0.7290    0.0770 C   0  0  0  0  0  0  0  0  0  0  0  0
   -5.9120    1.8780   -0.1670 C   0  0  0  0  0  0  0  0  0  0  0  0
   -4.7880    1.2730   -0.7200 O   0  0  0  0  0  0  0  0  0  0  0  0
   -2.5260   -2.2070    0.1100 C   0  0  0  0  0  0  0  0  0  0  0  0
   -1.0300   -1.9560    0.0650 C   0  0  0  0  0  0  0  0  0  0  0  0
    1.0050    0.8900    1.3240 N   0  0  0  0  0  0  0  0  0  0  0  0
    2.2490    1.3750    1.3080 C   0  0  0  0  0  0  0  0  0  0  0  0
    2.5190    2.5830    1.9890 N   0  0  0  0  0  0  0  0  0  0  0  0
    3.2350    0.6900    0.6320 C   0  0  0  0  0  0  0  0  0  0  0  0
    4.5410    1.1420    0.5800 C   0  0  0  0  0  0  0  0  0  0  0  0
    5.5370    0.4660   -0.0930 C   0  0  0  0  0  0  0  0  0  0  0  0
    6.8510    0.9300   -0.1400 O   0  0  0  0  0  0  0  0  0  0  0  0
    7.1640    2.1450    0.5350 C   0  0  0  0  0  0  0  0  0  0  0  0
  1  2  1  0
  2  3  1  0
  3  4  2  0
  3 26  1  0
  4  5  1  0
  5  6  2  0
  5 24  1  0
  6  7  1  0
  7  8  1  0
  7 21  2  0
  8  9  1  0
  8 20  1  0
  9 10  1  0
 10 11  1  0
 11 12  1  0
 11 19  1  0
 12 13  2  0
 14 12  1  1
 14 15  1  0
 14 18  1  0
 15 16  1  0
 16 17  1  0
 17 18  1  0
 19 20  1  0
 21 22  1  0
 22 23  1  0
 22 24  2  0
 24 25  1  0
 25 26  2  0
 26 27  1  0
 27 28  1  0
M  END
