
     RDKit          3D

 26 29  0  0  0  0  0  0  0  0999 V2000
   -2.6070    2.1250    2.0920 C   0  0  0  0  0  0  0  0  0  0  0  0
   -3.4130    0.8470    2.0180 C   0  0  0  0  0  0  0  0  0  0  0  0
   -4.3910    0.9020    0.8840 C   0  0  0  0  0  0  0  0  0  0  0  0
   -3.8920    1.0820   -0.4160 N   0  0  0  0  0  0  0  0  0  0  0  0
   -2.4930    0.8130   -0.6670 C   0  0  0  0  0  0  0  0  0  0  0  0
   -2.2820   -0.3600   -1.5610 C   0  0  2  0  0  0  0  0  0  0  0  0
   -2.9040   -1.6240   -0.9180 C   0  0  0  0  0  0  0  0  0  0  0  0
   -3.2680   -2.5400   -2.0820 C   0  0  0  0  0  0  0  0  0  0  0  0
   -2.1990   -2.3860   -3.1450 C   0  0  0  0  0  0  0  0  0  0  0  0
   -0.8840   -2.1610   -2.3610 C   0  0  0  0  0  0  0  0  0  0  0  0
   -0.9170   -0.6900   -2.0090 C   0  0  2  0  0  0  0  0  0  0  0  0
    0.2390   -0.1880   -1.2870 C   0  0  0  0  0  0  0  0  0  0  0  0
    1.1980   -0.8260   -0.6170 C   0  0  0  0  0  0  0  0  0  0  0  0
    1.4230   -2.2550   -0.3700 C   0  0  0  0  0  0  0  0  0  0  0  0
    2.8410   -2.5490    0.1120 C   0  0  0  0  0  0  0  0  0  0  0  0
    3.3890   -1.5800    0.9310 O   0  0  0  0  0  0  0  0  0  0  0  0
    3.2170   -0.2120    0.6510 C   0  0  0  0  0  0  0  0  0  0  0  0
    4.1890    0.7690    1.1720 C   0  0  0  0  0  0  0  0  0  0  0  0
    4.7200    1.8680    0.5370 C   0  0  0  0  0  0  0  0  0  0  0  0
    5.5920    2.4960    1.4220 C   0  0  0  0  0  0  0  0  0  0  0  0
    5.5400    1.7280    2.5650 C   0  0  0  0  0  0  0  0  0  0  0  0
    6.3270    2.0160    3.8190 C   0  0  0  0  0  0  0  0  0  0  0  0
    4.7070    0.7370    2.3590 O   0  0  0  0  0  0  0  0  0  0  0  0
    2.1740    0.1150   -0.0800 C   0  0  0  0  0  0  0  0  0  0  0  0
    1.7110    1.4060   -0.5000 C   0  0  0  0  0  0  0  0  0  0  0  0
    0.6030    1.2230   -1.1910 C   0  0  0  0  0  0  0  0  0  0  0  0
  1  2  1  0
  2  3  1  0
  3  4  1  0
  4  5  1  0
  6  5  1  1
  6  7  1  0
  6 11  1  0
  7  8  1  0
  8  9  1  0
  9 10  1  0
 10 11  1  0
 11 12  1  1
 12 13  2  0
 12 26  1  0
 13 14  1  0
 13 24  1  0
 14 15  1  0
 15 16  1  0
 16 17  1  0
 17 18  1  0
 17 24  2  0
 18 19  2  0
 18 23  1  0
 19 20  1  0
 20 21  2  0
 21 22  1  0
 21 23  1  0
 24 25  1  0
 25 26  2  0
M  CHG  1   4   1
M  END
