
     RDKit          3D

 26 28  0  0  0  0  0  0  0  0999 V2000
    5.8530    3.9370    0.5070 C   0  0  0  0  0  0  0  0  0  0  0  0
    5.0300    2.6900    0.5910 C   0  0  0  0  0  0  0  0  0  0  0  0
    3.6000    2.9680    0.9940 C   0  0  0  0  0  0  0  0  0  0  0  0
    2.9370    1.5750    1.0220 C   0  0  0  0  0  0  0  0  0  0  0  0
    1.9220    1.3560    0.2540 C   0  0  0  0  0  0  0  0  0  0  0  0
    1.1250    0.1870    0.0720 C   0  0  0  0  0  0  0  0  0  0  0  0
    0.0100    0.3150   -0.7460 C   0  0  0  0  0  0  0  0  0  0  0  0
   -0.8730   -0.6930   -1.0510 C   0  0  0  0  0  0  0  0  0  0  0  0
   -2.0610   -0.4170   -1.8600 C   0  0  0  0  0  0  0  0  0  0  0  0
   -3.2840   -0.0170   -1.0570 C   0  0  0  0  0  0  0  0  0  0  0  0
   -2.9830    1.2490   -0.2810 C   0  0  0  0  0  0  0  0  0  0  0  0
   -2.4640    1.2460    0.9710 C   0  0  0  0  0  0  0  0  0  0  0  0
   -2.1980    2.4200    1.6430 C   0  0  0  0  0  0  0  0  0  0  0  0
   -2.4520    3.6320    1.0630 N   0  0  0  0  0  0  0  0  0  0  0  0
   -2.9660    3.6210   -0.1790 C   0  0  0  0  0  0  0  0  0  0  0  0
   -3.2450    2.4560   -0.8840 C   0  0  0  0  0  0  0  0  0  0  0  0
   -0.6620   -1.9320   -0.5250 C   0  0  0  0  0  0  0  0  0  0  0  0
   -1.4500   -3.1220   -0.7900 C   0  0  2  0  0  0  0  0  0  0  0  0
   -1.2790   -3.4640   -2.2810 C   0  0  0  0  0  0  0  0  0  0  0  0
   -2.7550   -3.1820   -0.5190 O   0  0  0  0  0  0  0  0  0  0  0  0
   -3.1310   -4.4250   -0.0760 C   0  0  0  0  0  0  0  0  0  0  0  0
   -1.8130   -4.9350    0.4990 C   0  0  0  0  0  0  0  0  0  0  0  0
   -0.8330   -4.2170   -0.1300 O   0  0  0  0  0  0  0  0  0  0  0  0
    0.4540   -2.0950    0.3040 C   0  0  0  0  0  0  0  0  0  0  0  0
    1.3330   -1.0600    0.6000 C   0  0  0  0  0  0  0  0  0  0  0  0
    2.5130   -1.3000    1.4620 C   0  0  0  0  0  0  0  0  0  0  0  0
  1  2  1  0
  2  3  1  0
  3  4  1  0
  4  5  2  3
  5  6  1  0
  6  7  2  0
  6 25  1  0
  7  8  1  0
  8  9  1  0
  8 17  2  0
  9 10  1  0
 10 11  1  0
 11 12  2  0
 11 16  1  0
 12 13  1  0
 13 14  2  0
 14 15  1  0
 15 16  2  0
 17 18  1  0
 17 24  1  0
 18 19  1  6
 18 20  1  0
 18 23  1  0
 20 21  1  0
 21 22  1  0
 22 23  1  0
 24 25  2  0
 25 26  1  0
M  CHG  1  14   1
M  END
