
     RDKit          3D

 26 29  0  0  0  0  0  0  0  0999 V2000
   -3.4270   -3.2210    0.8210 C   0  0  0  0  0  0  0  0  0  0  0  0
   -2.9800   -1.8490    0.4590 C   0  0  0  0  0  0  0  0  0  0  0  0
   -1.6540   -1.5100    0.3930 C   0  0  0  0  0  0  0  0  0  0  0  0
   -1.1870   -0.2350    0.0580 C   0  0  0  0  0  0  0  0  0  0  0  0
    0.2280   -0.0350    0.0150 C   0  0  0  0  0  0  0  0  0  0  0  0
    0.9120    1.0660    0.0310 C   0  0  0  0  0  0  0  0  0  0  0  0
    2.3910    0.9610   -0.0320 C   0  0  0  0  0  0  0  0  0  0  0  0
    3.1150    2.0520   -0.0180 C   0  0  0  0  0  0  0  0  0  0  0  0
    4.5760    2.1060   -0.0740 C   0  0  0  0  0  0  0  0  0  0  0  0
    5.2020    0.7780   -0.1710 C   0  0  0  0  0  0  0  0  0  0  0  0
    6.5700    0.7420   -0.2440 N   0  0  0  0  0  0  0  0  0  0  0  0
    7.1850   -0.4420   -0.3330 C   0  0  0  0  0  0  0  0  0  0  0  0
    6.4810   -1.6200   -0.3520 C   0  0  0  0  0  0  0  0  0  0  0  0
    5.1230   -1.6120   -0.2800 C   0  0  0  0  0  0  0  0  0  0  0  0
    4.4700   -0.3840   -0.1870 C   0  0  0  0  0  0  0  0  0  0  0  0
    3.0080   -0.3660   -0.1100 C   0  0  0  0  0  0  0  0  0  0  0  0
   -2.1060    0.7240   -0.2220 C   0  0  0  0  0  0  0  0  0  0  0  0
   -1.7830    2.0830   -0.7100 C   0  0  0  0  0  0  0  0  0  0  0  0
   -3.4590    0.4010   -0.1570 C   0  0  0  0  0  0  0  0  0  0  0  0
   -3.9100   -0.8770    0.1800 C   0  0  0  0  0  0  0  0  0  0  0  0
   -5.3430   -1.1080    0.2070 C   0  0  0  0  0  0  0  0  0  0  0  0
   -5.7360   -2.1010    0.8720 O   0  0  0  0  0  0  0  0  0  0  0  0
   -6.3470   -0.2860   -0.4690 C   0  0  0  0  0  0  0  0  0  0  0  0
   -5.8190    1.0270   -0.9760 C   0  0  0  0  0  0  0  0  0  0  0  0
   -4.4990    1.3720   -0.3880 C   0  0  0  0  0  0  0  0  0  0  0  0
   -4.2940    2.5720   -0.0800 O   0  0  0  0  0  0  0  0  0  0  0  0
  1  2  1  0
  2  3  2  0
  2 20  1  0
  3  4  1  0
  4  5  1  0
  4 17  2  0
  5  6  2  3
  6  7  1  0
  7  8  2  0
  7 16  1  0
  8  9  1  0
  9 10  1  0
 10 11  2  0
 10 15  1  0
 11 12  1  0
 12 13  2  0
 13 14  1  0
 14 15  2  0
 15 16  1  0
 17 18  1  0
 17 19  1  0
 19 20  2  0
 19 25  1  0
 20 21  1  0
 21 22  2  0
 21 23  1  0
 23 24  1  0
 24 25  1  0
 25 26  2  0
M  CHG  1  11   1
M  END
