
     RDKit          3D

 26 29  0  0  0  0  0  0  0  0999 V2000
   -6.1080   -1.2600    0.4390 C   0  0  0  0  0  0  0  0  0  0  0  0
   -6.1290    0.0520    0.6140 C   0  0  0  0  0  0  0  0  0  0  0  0
   -7.2910    0.8430    1.0240 C   0  0  0  0  0  0  0  0  0  0  0  0
   -6.9330    2.1150    1.0910 C   0  0  0  0  0  0  0  0  0  0  0  0
   -5.5280    2.2420    0.7340 C   0  0  0  0  0  0  0  0  0  0  0  0
   -5.0510    1.0210    0.4510 C   0  0  0  0  0  0  0  0  0  0  0  0
   -3.6720    0.6960    0.0410 C   0  0  1  0  0  0  0  0  0  0  0  0
   -2.9050   -0.1040    1.0700 C   0  0  0  0  0  0  0  0  0  0  0  0
   -1.4380   -0.0310    0.6140 C   0  0  0  0  0  0  0  0  0  0  0  0
   -1.3220   -0.7600   -0.6010 N   0  0  2  0  0  0  0  0  0  0  0  0
   -0.4810   -0.1740   -1.6030 C   0  0  0  0  0  0  0  0  0  0  0  0
    0.9360   -0.0200   -1.1740 C   0  0  0  0  0  0  0  0  0  0  0  0
    1.8340   -1.0560   -1.3280 C   0  0  0  0  0  0  0  0  0  0  0  0
    3.1690   -0.9350   -0.9340 C   0  0  0  0  0  0  0  0  0  0  0  0
    3.6340    0.2350   -0.3740 C   0  0  0  0  0  0  0  0  0  0  0  0
    5.0510    0.3480    0.0380 C   0  0  1  0  0  0  0  0  0  0  0  0
    5.3990   -0.6860    1.0770 C   0  0  0  0  0  0  0  0  0  0  0  0
    6.8670   -1.0260    1.0710 C   0  0  0  0  0  0  0  0  0  0  0  0
    7.7200    0.0530    0.4840 C   0  0  0  0  0  0  0  0  0  0  0  0
    7.3170    0.2100   -0.8820 O   0  0  0  0  0  0  0  0  0  0  0  0
    5.9550    0.1250   -1.1230 C   0  0  0  0  0  0  0  0  0  0  0  0
    5.4600   -0.1270   -2.2520 O   0  0  0  0  0  0  0  0  0  0  0  0
    2.7490    1.2790   -0.2140 C   0  0  0  0  0  0  0  0  0  0  0  0
    1.4250    1.1420   -0.6110 C   0  0  0  0  0  0  0  0  0  0  0  0
   -2.5800   -1.1070   -1.2180 C   0  0  0  0  0  0  0  0  0  0  0  0
   -3.5550    0.0400   -1.2920 C   0  0  0  0  0  0  0  0  0  0  0  0
  1  2  2  0
  2  3  1  0
  2  6  1  0
  3  4  2  0
  4  5  1  0
  5  6  2  0
  7  6  1  1
  7  8  1  0
  7 26  1  0
  8  9  1  0
  9 10  1  0
 10 11  1  6
 10 25  1  0
 11 12  1  0
 12 13  2  0
 12 24  1  0
 13 14  1  0
 14 15  2  0
 16 15  1  6
 15 23  1  0
 16 17  1  0
 16 21  1  0
 17 18  1  0
 18 19  1  0
 19 20  1  0
 20 21  1  0
 21 22  2  0
 23 24  2  0
 25 26  1  0
M  CHG  1  10   1
M  END
