
     RDKit          3D

 12 11  0  0  0  0  0  0  0  0999 V2000
   -0.9420   -1.3450    0.4890 O   0  0  0  0  0  0  0  0  0  0  0  0
   -0.9190   -0.0790    0.5470 C   0  0  0  0  0  0  0  0  0  0  0  0
    0.3510    0.6520    0.2120 C   0  0  0  0  0  0  0  0  0  0  0  0
    1.3000   -0.2840   -0.1130 O   0  0  0  0  0  0  0  0  0  0  0  0
    2.5230    0.2480   -0.4440 C   0  0  2  0  0  0  0  0  0  0  0  0
    2.7690   -0.0660   -1.7850 O   0  0  0  0  0  0  0  0  0  0  0  0
    3.6510   -0.3360    0.3820 C   0  0  0  0  0  0  0  0  0  0  0  0
    4.8310    0.2760   -0.0420 O   0  0  0  0  0  0  0  0  0  0  0  0
   -2.0210    0.6430    0.9060 O   0  0  0  0  0  0  0  0  0  0  0  0
   -3.2390    0.0390    1.2280 C   0  0  0  0  0  0  0  0  0  0  0  0
   -3.7920   -0.7350    0.0740 C   0  0  0  0  0  0  0  0  0  0  0  0
   -4.0220    0.0620   -1.0410 O   0  0  0  0  0  0  0  0  0  0  0  0
  1  2  2  0
  2  3  1  0
  2  9  1  0
  3  4  1  0
  4  5  1  0
  5  6  1  6
  5  7  1  0
  7  8  1  0
  9 10  1  0
 10 11  1  0
 11 12  1  0
M  END
