
     RDKit          3D

 12 11  0  0  0  0  0  0  0  0999 V2000
    3.9000   -0.9920   -0.4330 O   0  0  0  0  0  0  0  0  0  0  0  0
    3.3690   -0.8090    0.8490 C   0  0  0  0  0  0  0  0  0  0  0  0
    2.0690   -0.3330    0.7100 O   0  0  0  0  0  0  0  0  0  0  0  0
    2.0900    0.8710    0.0220 C   0  0  0  0  0  0  0  0  0  0  0  0
    0.6880    1.3970   -0.1350 C   0  0  1  0  0  0  0  0  0  0  0  0
    0.7090    2.6110   -0.8280 O   0  0  0  0  0  0  0  0  0  0  0  0
   -0.0590    0.4840   -0.8750 O   0  0  0  0  0  0  0  0  0  0  0  0
   -1.1490    0.1140   -0.0990 C   0  0  0  0  0  0  0  0  0  0  0  0
   -2.0370   -0.8840   -0.8110 C   0  0  2  0  0  0  0  0  0  0  0  0
   -2.5410   -0.3780   -1.9960 O   0  0  0  0  0  0  0  0  0  0  0  0
   -3.1620   -1.2450    0.1570 C   0  0  0  0  0  0  0  0  0  0  0  0
   -3.8700   -0.0700    0.4010 O   0  0  0  0  0  0  0  0  0  0  0  0
  1  2  1  0
  2  3  1  0
  3  4  1  0
  4  5  1  0
  5  6  1  6
  5  7  1  0
  7  8  1  0
  8  9  1  0
  9 10  1  6
  9 11  1  0
 11 12  1  0
M  END
