
     RDKit          3D

 12 11  0  0  0  0  0  0  0  0999 V2000
    4.1530   -0.3510   -1.6090 O   0  0  0  0  0  0  0  0  0  0  0  0
    4.2310   -0.1460   -0.2440 C   0  0  0  0  0  0  0  0  0  0  0  0
    2.9120    0.3000    0.3530 C   0  0  0  0  0  0  0  0  0  0  0  0
    1.9120   -0.6410    0.1480 O   0  0  0  0  0  0  0  0  0  0  0  0
    0.7500   -0.1270    0.7370 C   0  0  0  0  0  0  0  0  0  0  0  0
   -0.3170   -0.9820    0.5950 O   0  0  0  0  0  0  0  0  0  0  0  0
   -1.4450   -0.4470    1.1880 C   0  0  0  0  0  0  0  0  0  0  0  0
   -1.8830    0.8730    0.6170 C   0  0  0  0  0  0  0  0  0  0  0  0
   -2.1920    0.8320   -0.7340 O   0  0  0  0  0  0  0  0  0  0  0  0
   -3.2410   -0.0320   -0.9770 C   0  0  2  0  0  0  0  0  0  0  0  0
   -2.7270   -1.0320   -1.8360 O   0  0  0  0  0  0  0  0  0  0  0  0
   -4.2640    0.5810   -1.7160 O   0  0  0  0  0  0  0  0  0  0  0  0
  1  2  1  0
  2  3  1  0
  3  4  1  0
  4  5  1  0
  5  6  1  0
  6  7  1  0
  7  8  1  0
  8  9  1  0
  9 10  1  0
 10 11  1  6
 10 12  1  0
M  END
