
     RDKit          3D

 12 11  0  0  0  0  0  0  0  0999 V2000
   -3.6830   -1.3160    1.4610 O   0  0  0  0  0  0  0  0  0  0  0  0
   -3.0750   -1.1250    0.2210 C   0  0  0  0  0  0  0  0  0  0  0  0
   -1.8040   -0.3190    0.3810 C   0  0  0  0  0  0  0  0  0  0  0  0
   -1.1610   -0.0990   -0.8080 O   0  0  0  0  0  0  0  0  0  0  0  0
   -0.0040    0.6290   -0.7170 C   0  0  2  0  0  0  0  0  0  0  0  0
   -0.1010    1.9770   -1.3960 C   0  0  0  0  0  0  0  0  0  0  0  0
   -1.1410    2.6740   -0.7560 O   0  0  0  0  0  0  0  0  0  0  0  0
    1.0660   -0.1110   -1.1420 O   0  0  0  0  0  0  0  0  0  0  0  0
    2.0310   -0.3800   -0.2160 C   0  0  0  0  0  0  0  0  0  0  0  0
    1.5940   -1.0900    0.8900 O   0  0  0  0  0  0  0  0  0  0  0  0
    2.6480   -1.3100    1.7690 C   0  0  0  0  0  0  0  0  0  0  0  0
    3.1210   -0.0500    2.1510 O   0  0  0  0  0  0  0  0  0  0  0  0
  1  2  1  0
  2  3  1  0
  3  4  1  0
  4  5  1  0
  5  6  1  6
  5  8  1  0
  6  7  1  0
  8  9  1  0
  9 10  1  0
 10 11  1  0
 11 12  1  0
M  END
