
     RDKit          3D

 12 11  0  0  0  0  0  0  0  0999 V2000
    3.8600    0.7060   -1.2950 O   0  0  0  0  0  0  0  0  0  0  0  0
    3.7360    0.4900    0.0840 C   0  0  0  0  0  0  0  0  0  0  0  0
    2.3290    0.0730    0.4350 C   0  0  0  0  0  0  0  0  0  0  0  0
    1.9690   -1.1140   -0.2210 O   0  0  0  0  0  0  0  0  0  0  0  0
    0.6440   -1.3770    0.1990 C   0  0  0  0  0  0  0  0  0  0  0  0
   -0.1110   -0.2930   -0.1970 O   0  0  0  0  0  0  0  0  0  0  0  0
   -1.4420   -0.3720    0.1290 C   0  0  2  0  0  0  0  0  0  0  0  0
   -2.3560   -0.2050   -1.0690 C   0  0  0  0  0  0  0  0  0  0  0  0
   -2.1280   -1.1850   -2.0330 O   0  0  0  0  0  0  0  0  0  0  0  0
   -1.7520    0.7850    1.0670 C   0  0  2  0  0  0  0  0  0  0  0  0
   -3.0860    0.7480    1.4250 O   0  0  0  0  0  0  0  0  0  0  0  0
   -1.4420    1.9920    0.4100 O   0  0  0  0  0  0  0  0  0  0  0  0
  1  2  1  0
  2  3  1  0
  3  4  1  0
  4  5  1  0
  5  6  1  0
  6  7  1  0
  7  8  1  6
  7 10  1  0
  8  9  1  0
 10 11  1  6
 10 12  1  0
M  END
