
     RDKit          3D

 19 21  0  0  0  0  0  0  0  0999 V2000
   -3.9500   -1.4840    1.2870 N   0  0  0  0  0  0  0  0  0  0  0  0
   -2.5570   -1.7630    1.0350 C   0  0  1  0  0  0  0  0  0  0  0  0
   -2.3080   -2.0150   -0.4180 C   0  0  0  0  0  0  0  0  0  0  0  0
   -1.8830   -0.6680   -0.9620 C   0  0  0  0  0  0  0  0  0  0  0  0
   -1.3300    0.0540    0.1590 N   0  0  0  0  0  0  0  0  0  0  0  0
   -0.5660    1.2380    0.0560 C   0  0  0  0  0  0  0  0  0  0  0  0
   -1.1850    2.1910   -0.5910 N   0  0  0  0  0  0  0  0  0  0  0  0
   -0.7930    3.4830   -0.9050 N   0  0  0  0  0  0  0  0  0  0  0  0
    0.2610    4.2120   -0.2890 C   0  0  0  0  0  0  0  0  0  0  0  0
    1.2740    3.7350    0.4510 C   0  0  0  0  0  0  0  0  0  0  0  0
    1.5590    2.3440    0.8160 C   0  0  0  0  0  0  0  0  0  0  0  0
    0.7620    1.2940    0.6400 C   0  0  0  0  0  0  0  0  0  0  0  0
    1.2530    0.0890    1.0650 O   0  0  0  0  0  0  0  0  0  0  0  0
    1.7000   -0.8970    0.1500 C   0  0  1  0  0  0  0  0  0  0  0  0
    2.8530   -0.3430   -0.6970 C   0  0  0  0  0  0  0  0  0  0  0  0
    4.0340   -1.0570   -0.0410 C   0  0  0  0  0  0  0  0  0  0  0  0
    3.4890   -2.3440    0.1190 O   0  0  0  0  0  0  0  0  0  0  0  0
    2.3590   -2.0430    0.8910 C   0  0  0  0  0  0  0  0  0  0  0  0
   -1.6630   -0.5980    1.4060 C   0  0  0  0  0  0  0  0  0  0  0  0
  2  1  1  6
  2  3  1  0
  2 19  1  0
  3  4  1  0
  4  5  1  0
  5  6  1  0
  5 19  1  0
  6  7  2  0
  6 12  1  0
  7  8  1  0
  8  9  1  0
  9 10  2  0
 10 11  1  0
 11 12  2  0
 12 13  1  0
 14 13  1  1
 14 15  1  0
 14 18  1  0
 15 16  1  0
 16 17  1  0
 17 18  1  0
M  CHG  1   1   1
M  END
