
     RDKit          3D

 38 43  0  0  0  0  0  0  0  0999 V2000
   -2.8760   -2.4650    4.0880 N   0  0  0  0  0  0  0  0  0  0  0  0
   -1.7320   -2.4130    3.1480 C   0  0  1  0  0  0  0  0  0  0  0  0
   -2.2930   -2.2310    1.7880 C   0  0  0  0  0  0  0  0  0  0  0  0
   -1.9190   -2.9440    0.6800 C   0  0  0  0  0  0  0  0  0  0  0  0
   -2.6950   -2.4450   -0.3590 C   0  0  0  0  0  0  0  0  0  0  0  0
   -3.4760   -1.4720    0.2010 C   0  0  0  0  0  0  0  0  0  0  0  0
   -4.4560   -0.6690   -0.5210 C   0  0  0  0  0  0  0  0  0  0  0  0
   -4.6500   -0.8650   -1.8630 C   0  0  0  0  0  0  0  0  0  0  0  0
   -5.5670   -0.1370   -2.6160 C   0  0  0  0  0  0  0  0  0  0  0  0
   -6.2960    0.8120   -1.9600 C   0  0  0  0  0  0  0  0  0  0  0  0
   -6.1140    1.0260   -0.5970 C   0  0  0  0  0  0  0  0  0  0  0  0
   -5.2050    0.3020    0.1400 C   0  0  0  0  0  0  0  0  0  0  0  0
   -6.9690    2.0900   -0.0010 C   0  0  0  0  0  0  0  0  0  0  0  0
   -8.2730    1.9520   -0.3980 O   0  0  0  0  0  0  0  0  0  0  0  0
   -8.5000    1.9530   -1.7450 C   0  0  0  0  0  0  0  0  0  0  0  0
   -7.3180    1.6790   -2.6110 C   0  0  0  0  0  0  0  0  0  0  0  0
   -3.2160   -1.3670    1.4760 O   0  0  0  0  0  0  0  0  0  0  0  0
   -1.0030   -1.1460    3.5240 C   0  0  2  0  0  0  0  0  0  0  0  0
   -1.9250   -0.1010    3.3180 O   0  0  0  0  0  0  0  0  0  0  0  0
    0.2040   -0.8730    2.7190 C   0  0  0  0  0  0  0  0  0  0  0  0
    0.9100   -1.8320    2.0290 C   0  0  0  0  0  0  0  0  0  0  0  0
    2.0230   -1.5150    1.2890 C   0  0  0  0  0  0  0  0  0  0  0  0
    2.5200   -0.2010    1.1810 C   0  0  0  0  0  0  0  0  0  0  0  0
    3.6640    0.0250    0.3760 N   0  0  0  0  0  0  0  0  0  0  0  0
    4.4500    1.1820    0.3980 C   0  0  0  0  0  0  0  0  0  0  0  0
    4.1350    2.1480    1.1900 O   0  0  0  0  0  0  0  0  0  0  0  0
    5.5900    1.4200   -0.3850 N   0  0  0  0  0  0  0  0  0  0  0  0
    6.1040    2.7870   -0.6080 C   0  0  0  0  0  0  0  0  0  0  0  0
    5.8860    3.0180   -2.0890 C   0  0  0  0  0  0  0  0  0  0  0  0
    6.7110    2.0830   -2.8910 C   0  0  0  0  0  0  0  0  0  0  0  0
    6.8070    0.7360   -2.3300 C   0  0  0  0  0  0  0  0  0  0  0  0
    7.4610   -0.2830   -2.9980 C   0  0  0  0  0  0  0  0  0  0  0  0
    7.5590   -1.5350   -2.4300 C   0  0  0  0  0  0  0  0  0  0  0  0
    7.0320   -1.8480   -1.1980 C   0  0  0  0  0  0  0  0  0  0  0  0
    6.3820   -0.8490   -0.5240 C   0  0  0  0  0  0  0  0  0  0  0  0
    6.2720    0.4120   -1.0800 C   0  0  0  0  0  0  0  0  0  0  0  0
    1.8190    0.7480    1.8650 C   0  0  0  0  0  0  0  0  0  0  0  0
    0.6810    0.4150    2.6210 C   0  0  0  0  0  0  0  0  0  0  0  0
  2  1  1  1
  2  3  1  0
  2 18  1  0
  3  4  2  0
  3 17  1  0
  4  5  1  0
  5  6  2  0
  6  7  1  0
  6 17  1  0
  7  8  2  0
  7 12  1  0
  8  9  1  0
  9 10  2  0
 10 11  1  0
 10 16  1  0
 11 12  2  0
 11 13  1  0
 13 14  1  0
 14 15  1  0
 15 16  1  0
 18 19  1  6
 18 20  1  0
 20 21  2  0
 20 38  1  0
 21 22  1  0
 22 23  2  0
 23 24  1  0
 23 37  1  0
 24 25  1  0
 25 26  2  0
 25 27  1  0
 27 28  1  0
 27 36  1  0
 28 29  1  0
 29 30  1  0
 30 31  1  0
 31 32  2  0
 31 36  1  0
 32 33  1  0
 33 34  2  0
 34 35  1  0
 35 36  2  0
 37 38  2  0
M  CHG  1   1   1
M  END
