
     RDKit          3D

 38 41  0  0  0  0  0  0  0  0999 V2000
    9.8390   -1.3010    3.2550 C   0  0  0  0  0  0  0  0  0  0  0  0
    9.6680   -1.6980    1.8740 N   0  0  0  0  0  0  0  0  0  0  0  0
    8.8770   -0.7180    1.1360 C   0  0  0  0  0  0  0  0  0  0  0  0
    9.0340   -0.8910   -0.3380 C   0  0  0  0  0  0  0  0  0  0  0  0
    8.1810    0.1670   -1.0370 C   0  0  0  0  0  0  0  0  0  0  0  0
    6.7690   -0.0630   -0.6700 C   0  0  0  0  0  0  0  0  0  0  0  0
    6.3170   -1.1310   -0.1780 O   0  0  0  0  0  0  0  0  0  0  0  0
    5.8300    1.0010   -0.8900 N   0  0  0  0  0  0  0  0  0  0  0  0
    6.2360    2.2630   -1.4510 C   0  0  0  0  0  0  0  0  0  0  0  0
    5.2290    2.8230   -2.3990 C   0  0  0  0  0  0  0  0  0  0  0  0
    4.0340    1.9430   -2.6130 C   0  0  0  0  0  0  0  0  0  0  0  0
    3.4650    1.5770   -1.2860 C   0  0  1  0  0  0  0  0  0  0  0  0
    2.2580    0.7050   -1.4060 C   0  0  0  0  0  0  0  0  0  0  0  0
    1.5190    0.4550   -2.4920 N   0  0  0  0  0  0  0  0  0  0  0  0
    0.5450   -0.4110   -2.1350 N   0  0  0  0  0  0  0  0  0  0  0  0
    0.6700   -0.7030   -0.8370 C   0  0  0  0  0  0  0  0  0  0  0  0
   -0.1670   -1.5950   -0.0650 C   0  0  0  0  0  0  0  0  0  0  0  0
   -1.4630   -1.6450   -0.2240 C   0  0  0  0  0  0  0  0  0  0  0  0
   -2.4150   -0.6700   -1.3680 S   0  0  0  0  0  0  0  0  0  0  0  0
   -4.0010   -1.3680   -0.9080 C   0  0  0  0  0  0  0  0  0  0  0  0
   -5.2810   -1.0220   -1.4670 N   0  0  0  0  0  0  0  0  0  0  0  0
   -6.3860   -0.7360   -0.6550 C   0  0  0  0  0  0  0  0  0  0  0  0
   -6.4010   -0.6370    0.7060 C   0  0  0  0  0  0  0  0  0  0  0  0
   -5.2360   -0.7910    1.4180 F   0  0  0  0  0  0  0  0  0  0  0  0
   -7.5830   -0.3670    1.3610 C   0  0  0  0  0  0  0  0  0  0  0  0
   -8.7760   -0.1840    0.7250 C   0  0  0  0  0  0  0  0  0  0  0  0
  -10.0520    0.1060    1.4100 C   0  0  1  0  0  0  0  0  0  0  0  0
   -9.8980    0.0720    2.9200 C   0  0  0  0  0  0  0  0  0  0  0  0
  -10.6130    1.4540    1.0440 C   0  0  0  0  0  0  0  0  0  0  0  0
  -11.0800   -0.9450    1.0310 C   0  0  0  0  0  0  0  0  0  0  0  0
   -8.7630   -0.2830   -0.6570 C   0  0  0  0  0  0  0  0  0  0  0  0
   -7.5970   -0.5520   -1.3330 C   0  0  0  0  0  0  0  0  0  0  0  0
   -7.6800   -0.6580   -3.0820 Cl  0  0  0  0  0  0  0  0  0  0  0  0
   -3.7790   -2.2280   -0.0030 N   0  0  0  0  0  0  0  0  0  0  0  0
   -2.4710   -2.4450    0.4240 C   0  0  0  0  0  0  0  0  0  0  0  0
   -2.1080   -3.2970    1.3390 O   0  0  0  0  0  0  0  0  0  0  0  0
    1.7310   -0.0030   -0.4130 N   0  0  0  0  0  0  0  0  0  0  0  0
    4.4790    0.7630   -0.5170 C   0  0  0  0  0  0  0  0  0  0  0  0
  1  2  1  0
  2  3  1  0
  3  4  1  0
  4  5  1  0
  5  6  1  0
  6  7  2  0
  6  8  1  0
  8  9  1  0
  8 38  1  0
  9 10  1  0
 10 11  1  0
 11 12  1  0
 12 13  1  6
 12 38  1  0
 13 14  2  0
 13 37  1  0
 14 15  1  0
 15 16  1  0
 16 17  1  0
 16 37  2  0
 17 18  2  3
 18 19  1  0
 18 35  1  0
 19 20  1  0
 20 21  1  0
 20 34  2  0
 21 22  1  0
 22 23  2  0
 22 32  1  0
 23 24  1  0
 23 25  1  0
 25 26  2  0
 26 27  1  0
 26 31  1  0
 27 28  1  1
 27 29  1  0
 27 30  1  0
 31 32  2  0
 32 33  1  0
 34 35  1  0
 35 36  2  0
M  CHG  1   2   1
M  END
