
     RDKit          3D

 38 41  0  0  0  0  0  0  0  0999 V2000
  -10.0260    0.7280    0.2000 C   0  0  0  0  0  0  0  0  0  0  0  0
   -8.8910    0.2110    1.0420 C   0  0  0  0  0  0  0  0  0  0  0  0
   -8.7420    0.8850    2.6690 Cl  0  0  0  0  0  0  0  0  0  0  0  0
   -8.0520   -0.6620    0.5520 C   0  0  0  0  0  0  0  0  0  0  0  0
   -8.2880   -1.0740   -0.8320 N   0  0  0  0  0  0  0  0  0  0  0  0
   -7.5930   -0.1160   -1.7320 C   0  0  0  0  0  0  0  0  0  0  0  0
   -6.1300   -0.4840   -1.5450 C   0  0  0  0  0  0  0  0  0  0  0  0
   -5.2760    0.4510   -1.1040 C   0  0  0  0  0  0  0  0  0  0  0  0
   -5.6300    1.8310   -0.6610 C   0  0  0  0  0  0  0  0  0  0  0  0
   -3.9600    0.1360   -0.9930 N   0  0  0  0  0  0  0  0  0  0  0  0
   -3.5140   -1.0890   -1.3210 C   0  0  0  0  0  0  0  0  0  0  0  0
   -2.0290   -1.2850   -1.2460 C   0  0  0  0  0  0  0  0  0  0  0  0
   -1.4590   -2.2890   -2.0570 C   0  0  0  0  0  0  0  0  0  0  0  0
    0.2540   -2.1610   -1.7540 S   0  0  0  0  0  0  0  0  0  0  0  0
    0.1430   -0.7990   -0.5730 C   0  0  0  0  0  0  0  0  0  0  0  0
    1.3520   -0.1990   -0.1240 C   0  0  0  0  0  0  0  0  0  0  0  0
    2.4530   -0.5310   -0.6650 O   0  0  0  0  0  0  0  0  0  0  0  0
    1.5710    0.7930    0.9280 N   0  0  0  0  0  0  0  0  0  0  0  0
    2.9700    1.1890    0.9660 C   0  0  0  0  0  0  0  0  0  0  0  0
    3.2990    1.9670   -0.1630 C   0  0  0  0  0  0  0  0  0  0  0  0
    4.6300    2.2130   -0.4320 C   0  0  0  0  0  0  0  0  0  0  0  0
    5.5710    1.7260    0.3640 N   0  0  0  0  0  0  0  0  0  0  0  0
    5.2930    0.9540    1.4760 C   0  0  0  0  0  0  0  0  0  0  0  0
    6.3560    0.3480    2.1010 N   0  0  0  0  0  0  0  0  0  0  0  0
    6.2870   -1.1080    2.3980 C   0  0  0  0  0  0  0  0  0  0  0  0
    7.6770    0.8980    2.3730 C   0  0  0  0  0  0  0  0  0  0  0  0
    8.4210    0.6200    1.0680 C   0  0  0  0  0  0  0  0  0  0  0  0
    9.1660   -0.4360    0.8520 C   0  0  0  0  0  0  0  0  0  0  0  0
    9.7000   -0.3330   -0.4910 N   0  0  0  0  0  0  0  0  0  0  0  0
    9.2410    0.9120   -0.9870 C   0  0  0  0  0  0  0  0  0  0  0  0
    8.4680    1.4990   -0.0770 C   0  0  0  0  0  0  0  0  0  0  0  0
    7.9620    2.7280   -0.2470 F   0  0  0  0  0  0  0  0  0  0  0  0
    3.9310    0.7070    1.7520 C   0  0  0  0  0  0  0  0  0  0  0  0
   -1.1840   -0.5620   -0.4990 C   0  0  0  0  0  0  0  0  0  0  0  0
   -1.7110    0.4740    0.4950 C   0  0  0  0  0  0  0  0  0  0  0  0
   -4.3580   -2.0000   -1.7600 N   0  0  0  0  0  0  0  0  0  0  0  0
   -5.6870   -1.7510   -1.8900 C   0  0  0  0  0  0  0  0  0  0  0  0
   -6.4610   -2.6240   -2.2860 O   0  0  0  0  0  0  0  0  0  0  0  0
  1  2  1  0
  2  3  1  0
  2  4  2  3
  4  5  1  0
  5  6  1  0
  6  7  1  0
  7  8  2  0
  7 37  1  0
  8  9  1  0
  8 10  1  0
 10 11  2  0
 11 12  1  0
 11 36  1  0
 12 13  2  0
 12 34  1  0
 13 14  1  0
 14 15  1  0
 15 16  1  0
 15 34  2  0
 16 17  2  0
 16 18  1  0
 18 19  1  0
 19 20  2  0
 19 33  1  0
 20 21  1  0
 21 22  2  0
 22 23  1  0
 23 24  1  0
 23 33  2  0
 24 25  1  0
 24 26  1  0
 26 27  1  0
 27 28  2  0
 27 31  1  0
 28 29  1  0
 29 30  1  0
 30 31  2  0
 31 32  1  0
 34 35  1  0
 36 37  1  0
 37 38  2  0
M  CHG  1  29   1
M  END
