
     RDKit          3D

 38 42  0  0  0  0  0  0  0  0999 V2000
   -2.5330   -5.4970    0.0070 C   0  0  0  0  0  0  0  0  0  0  0  0
   -3.1620   -4.3240    0.0240 C   0  0  0  0  0  0  0  0  0  0  0  0
   -2.4250   -3.1330    0.0810 C   0  0  0  0  0  0  0  0  0  0  0  0
   -3.0070   -1.8930    0.1070 C   0  0  0  0  0  0  0  0  0  0  0  0
   -2.3250   -0.6560    0.1520 N   0  0  0  0  0  0  0  0  0  0  0  0
   -0.9310   -0.4610    0.2770 C   0  0  0  0  0  0  0  0  0  0  0  0
   -0.1760   -1.4420    0.3640 O   0  0  0  0  0  0  0  0  0  0  0  0
   -0.3130    0.8790    0.3110 C   0  0  1  0  0  0  0  0  0  0  0  0
    1.0710    0.8950    0.6130 N   0  0  0  0  0  0  0  0  0  0  0  0
    1.9590    0.2650   -0.3070 C   0  0  0  0  0  0  0  0  0  0  0  0
    2.9390   -0.5520    0.4480 C   0  0  0  0  0  0  0  0  0  0  0  0
    2.7690   -0.6570    1.6920 O   0  0  0  0  0  0  0  0  0  0  0  0
    4.0710   -1.2280   -0.1620 C   0  0  0  0  0  0  0  0  0  0  0  0
    4.9210   -1.9670    0.6290 C   0  0  0  0  0  0  0  0  0  0  0  0
    6.0210   -2.6240    0.1140 C   0  0  0  0  0  0  0  0  0  0  0  0
    6.3150   -2.5650   -1.2340 C   0  0  0  0  0  0  0  0  0  0  0  0
    7.5080   -3.2680   -1.8040 C   0  0  0  0  0  0  0  0  0  0  0  0
    7.2210   -4.5970   -2.1250 O   0  0  0  0  0  0  0  0  0  0  0  0
    5.4660   -1.8270   -2.0320 C   0  0  0  0  0  0  0  0  0  0  0  0
    4.3520   -1.1620   -1.5050 C   0  0  0  0  0  0  0  0  0  0  0  0
   -0.6350    1.5880   -0.9900 C   0  0  0  0  0  0  0  0  0  0  0  0
   -0.3180    3.0660   -0.6660 C   0  0  0  0  0  0  0  0  0  0  0  0
   -0.4740    3.1860    0.7900 C   0  0  0  0  0  0  0  0  0  0  0  0
   -0.2500    4.1740    1.5800 C   0  0  0  0  0  0  0  0  0  0  0  0
    0.2210    5.4980    1.3490 C   0  0  0  0  0  0  0  0  0  0  0  0
    0.4130    6.4240    2.3450 C   0  0  0  0  0  0  0  0  0  0  0  0
    0.8990    7.6870    1.8020 C   0  0  0  0  0  0  0  0  0  0  0  0
    0.9770    7.4570    0.3730 C   0  0  0  0  0  0  0  0  0  0  0  0
    0.5900    6.2110    0.1420 C   0  0  0  0  0  0  0  0  0  0  0  0
    0.5760    5.7360   -1.1740 O   0  0  0  0  0  0  0  0  0  0  0  0
   -1.0060    1.8180    1.2810 C   0  0  0  0  0  0  0  0  0  0  0  0
   -4.4090   -1.8860    0.0710 C   0  0  0  0  0  0  0  0  0  0  0  0
   -5.0970   -0.5610    0.1040 C   0  0  0  0  0  0  0  0  0  0  0  0
   -5.1700   -3.0290    0.0140 C   0  0  0  0  0  0  0  0  0  0  0  0
   -4.5360   -4.2500   -0.0090 C   0  0  0  0  0  0  0  0  0  0  0  0
   -5.4430   -5.2380   -0.0670 C   0  0  0  0  0  0  0  0  0  0  0  0
   -6.7440   -4.6820   -0.0810 N   0  0  0  0  0  0  0  0  0  0  0  0
   -6.6540   -3.2390   -0.0230 C   0  0  0  0  0  0  0  0  0  0  0  0
  1  2  2  0
  2  3  1  0
  2 35  1  0
  3  4  2  0
  4  5  1  0
  4 32  1  0
  5  6  1  0
  6  7  2  0
  6  8  1  0
  8  9  1  1
  8 21  1  0
  8 31  1  0
  9 10  1  0
 10 11  1  0
 11 12  2  0
 11 13  1  0
 13 14  2  0
 13 20  1  0
 14 15  1  0
 15 16  2  0
 16 17  1  0
 16 19  1  0
 17 18  1  0
 19 20  2  0
 21 22  1  0
 22 23  1  0
 23 24  2  3
 23 31  1  0
 24 25  1  0
 25 26  2  0
 25 29  1  0
 26 27  1  0
 27 28  1  0
 28 29  2  0
 29 30  1  0
 32 33  1  0
 32 34  2  0
 34 35  1  0
 34 38  1  0
 35 36  2  0
 36 37  1  0
 37 38  1  0
M  CHG  1   9   1
M  END
