
     RDKit          3D

 30 33  0  0  0  0  0  0  0  0999 V2000
   -8.4060   -1.1930    3.2410 O   0  0  0  0  0  0  0  0  0  0  0  0
   -7.1810   -0.9270    3.2850 C   0  0  0  0  0  0  0  0  0  0  0  0
   -6.0500   -1.9160    3.3400 C   0  0  0  0  0  0  0  0  0  0  0  0
   -4.9000   -1.0760    2.8360 C   0  0  1  0  0  0  0  0  0  0  0  0
   -4.8590   -0.9870    1.4040 N   0  0  0  0  0  0  0  0  0  0  0  0
   -3.7080   -1.2380    0.6170 C   0  0  0  0  0  0  0  0  0  0  0  0
   -2.6490   -1.5590    1.1660 O   0  0  0  0  0  0  0  0  0  0  0  0
   -3.8120   -1.1080   -0.8440 C   0  0  0  0  0  0  0  0  0  0  0  0
   -2.5610   -1.3940   -1.5190 N   0  0  0  0  0  0  0  0  0  0  0  0
   -1.3740   -0.6730   -1.2950 C   0  0  0  0  0  0  0  0  0  0  0  0
   -1.4220    0.2680   -0.4600 O   0  0  0  0  0  0  0  0  0  0  0  0
   -0.1090   -0.9480   -1.9660 C   0  0  0  0  0  0  0  0  0  0  0  0
    0.0390   -1.9560   -2.8940 C   0  0  0  0  0  0  0  0  0  0  0  0
    1.2570   -2.2000   -3.5220 C   0  0  0  0  0  0  0  0  0  0  0  0
    2.3530   -1.4220   -3.2170 C   0  0  0  0  0  0  0  0  0  0  0  0
    2.1750   -0.4230   -2.2850 C   0  0  0  0  0  0  0  0  0  0  0  0
    3.1130    0.5180   -1.7840 C   0  0  0  0  0  0  0  0  0  0  0  0
    4.4860    0.6090   -2.1730 C   0  0  0  0  0  0  0  0  0  0  0  0
    5.3890    1.4160   -1.7780 C   0  0  0  0  0  0  0  0  0  0  0  0
    5.4640    2.5190   -0.8430 C   0  0  1  0  0  0  0  0  0  0  0  0
    4.3180    2.9660   -0.0870 C   0  0  0  0  0  0  0  0  0  0  0  0
    4.3930    2.5180    1.1800 C   0  0  0  0  0  0  0  0  0  0  0  0
    5.6240    1.7210    1.3680 C   0  0  0  0  0  0  0  0  0  0  0  0
    6.5240    2.1320    0.2190 C   0  0  0  0  0  0  0  0  0  0  0  0
    2.3850    1.2200   -0.9250 N   0  0  0  0  0  0  0  0  0  0  0  0
    1.1330    0.8000   -0.8640 N   0  0  0  0  0  0  0  0  0  0  0  0
    0.9870   -0.2150   -1.7000 N   0  0  0  0  0  0  0  0  0  0  0  0
   -5.2430    0.2570    3.3840 C   0  0  0  0  0  0  0  0  0  0  0  0
   -4.4640    1.1090    3.8440 O   0  0  0  0  0  0  0  0  0  0  0  0
   -6.6480    0.3940    3.2900 N   0  0  0  0  0  0  0  0  0  0  0  0
  1  2  2  0
  2  3  1  0
  2 30  1  0
  3  4  1  0
  4  5  1  6
  4 28  1  0
  5  6  1  0
  6  7  2  0
  6  8  1  0
  8  9  1  0
  9 10  1  0
 10 11  2  0
 10 12  1  0
 12 13  2  0
 12 27  1  0
 13 14  1  0
 14 15  2  0
 15 16  1  0
 16 17  2  0
 16 27  1  0
 17 18  1  0
 17 25  1  0
 18 19  2  3
 20 19  1  1
 20 21  1  0
 20 24  1  0
 21 22  2  0
 22 23  1  0
 23 24  1  0
 25 26  2  0
 26 27  1  0
 28 29  2  0
 28 30  1  0
M  END
