
     RDKit          3D

 31 34  0  0  0  0  0  0  0  0999 V2000
    6.9670    0.2810    3.4970 C   0  0  0  0  0  0  0  0  0  0  0  0
    5.8150    0.3690    2.5860 C   0  0  0  0  0  0  0  0  0  0  0  0
    5.9180   -0.0770    1.3570 C   0  0  0  0  0  0  0  0  0  0  0  0
    7.1830   -0.6310    0.9900 N   0  0  0  0  0  0  0  0  0  0  0  0
    7.4360   -1.2350   -0.1270 C   0  0  0  0  0  0  0  0  0  0  0  0
    6.6170   -1.5120   -1.2350 N   0  0  0  0  0  0  0  0  0  0  0  0
    5.8690   -0.3630   -1.7060 C   0  0  0  0  0  0  0  0  0  0  0  0
    4.7240   -0.0680   -0.8090 C   0  0  0  0  0  0  0  0  0  0  0  0
    3.4340    0.1370   -1.1570 N   0  0  0  0  0  0  0  0  0  0  0  0
    2.6810    0.3770   -0.0740 C   0  0  0  0  0  0  0  0  0  0  0  0
    1.2530    0.6550    0.0170 C   0  0  0  0  0  0  0  0  0  0  0  0
    0.6490    0.8430    1.0810 O   0  0  0  0  0  0  0  0  0  0  0  0
    0.4680    0.7210   -1.1980 N   0  0  0  0  0  0  0  0  0  0  0  0
   -0.9100    0.9860   -1.2130 C   0  0  0  0  0  0  0  0  0  0  0  0
   -1.9020    0.0600   -0.7390 C   0  0  0  0  0  0  0  0  0  0  0  0
   -3.2430    0.5370   -0.7030 C   0  0  0  0  0  0  0  0  0  0  0  0
   -3.5180    1.8510   -1.1360 N   0  0  0  0  0  0  0  0  0  0  0  0
   -4.8650    2.3490   -1.0920 C   0  0  0  0  0  0  0  0  0  0  0  0
   -4.9480    3.7760   -1.5850 C   0  0  1  0  0  0  0  0  0  0  0  0
   -6.2660    4.4220   -1.5950 C   0  0  0  0  0  0  0  0  0  0  0  0
   -5.1560    4.8330   -0.5760 C   0  0  0  0  0  0  0  0  0  0  0  0
   -4.2400   -0.2450   -0.2760 N   0  0  0  0  0  0  0  0  0  0  0  0
   -4.0810   -1.4960    0.1400 C   0  0  0  0  0  0  0  0  0  0  0  0
   -5.2450   -2.3290    0.6130 C   0  0  0  0  0  0  0  0  0  0  0  0
   -2.7910   -2.0330    0.1300 C   0  0  0  0  0  0  0  0  0  0  0  0
   -2.6710   -3.3990    0.6430 C   0  0  0  0  0  0  0  0  0  0  0  0
   -2.7070   -3.4410    2.1650 C   0  0  0  0  0  0  0  0  0  0  0  0
   -1.7250   -1.2290   -0.3180 C   0  0  0  0  0  0  0  0  0  0  0  0
   -0.4180   -1.8910   -0.3930 C   0  0  0  0  0  0  0  0  0  0  0  0
    3.5480    0.3150    0.9810 N   0  0  0  0  0  0  0  0  0  0  0  0
    4.7530    0.0510    0.5230 N   0  0  0  0  0  0  0  0  0  0  0  0
  1  2  1  0
  2  3  2  3
  3  4  1  0
  3 31  1  0
  4  5  2  0
  5  6  1  0
  6  7  1  0
  7  8  1  0
  8  9  2  0
  8 31  1  0
  9 10  1  0
 10 11  1  0
 10 30  2  0
 11 12  2  0
 11 13  1  0
 13 14  1  0
 14 15  1  0
 15 16  1  0
 15 28  2  0
 16 17  1  0
 16 22  2  0
 17 18  1  0
 19 18  1  1
 19 20  1  0
 19 21  1  0
 20 21  1  0
 22 23  1  0
 23 24  1  0
 23 25  2  0
 25 26  1  0
 25 28  1  0
 26 27  1  0
 28 29  1  0
 30 31  1  0
M  CHG  1   6   1
M  END
