
     RDKit          3D

 31 35  0  0  0  0  0  0  0  0999 V2000
   -3.0290   -0.9490   -1.3530 O   0  0  0  0  0  0  0  0  0  0  0  0
   -2.3560   -0.0650   -0.7600 C   0  0  0  0  0  0  0  0  0  0  0  0
   -3.0470    1.0000   -0.0370 C   0  0  0  0  0  0  0  0  0  0  0  0
   -4.5230    0.8840   -0.0260 C   0  0  0  0  0  0  0  0  0  0  0  0
   -5.2770    1.5850   -0.9700 C   0  0  0  0  0  0  0  0  0  0  0  0
   -6.6590    1.4810   -1.0230 C   0  0  0  0  0  0  0  0  0  0  0  0
   -7.3290    0.6740   -0.1340 C   0  0  0  0  0  0  0  0  0  0  0  0
   -6.6050   -0.0220    0.8000 C   0  0  0  0  0  0  0  0  0  0  0  0
   -5.2100    0.0850    0.8520 C   0  0  0  0  0  0  0  0  0  0  0  0
   -4.4960   -0.6530    1.8970 C   0  0  2  0  0  0  0  0  0  0  0  0
   -3.5710   -1.5540    1.4800 F   0  0  0  0  0  0  0  0  0  0  0  0
   -5.4070   -1.3760    2.6830 F   0  0  0  0  0  0  0  0  0  0  0  0
   -3.9680    0.2920    2.7650 F   0  0  0  0  0  0  0  0  0  0  0  0
   -0.9520   -0.1250   -0.8090 N   0  0  0  0  0  0  0  0  0  0  0  0
   -0.1300    0.8710   -0.1550 C   0  0  0  0  0  0  0  0  0  0  0  0
    1.0060    0.1940    0.6010 C   0  0  0  0  0  0  0  0  0  0  0  0
    1.6330   -0.8100   -0.2240 N   0  0  0  0  0  0  0  0  0  0  0  0
    2.6770   -1.5960    0.2910 C   0  0  0  0  0  0  0  0  0  0  0  0
    2.3440   -2.7820    0.8770 N   0  0  0  0  0  0  0  0  0  0  0  0
    3.1770   -3.6150    1.4720 C   0  0  0  0  0  0  0  0  0  0  0  0
    4.4880   -3.2550    1.5020 N   0  0  0  0  0  0  0  0  0  0  0  0
    4.8460   -2.0880    0.9290 C   0  0  0  0  0  0  0  0  0  0  0  0
    6.4820   -1.3000    0.7620 S   0  0  0  0  0  0  0  0  0  0  0  0
    5.9230    0.1120   -0.1110 C   0  0  0  0  0  0  0  0  0  0  0  0
    4.5990   -0.0750   -0.2270 C   0  0  0  0  0  0  0  0  0  0  0  0
    4.0400   -1.1970    0.3060 C   0  0  0  0  0  0  0  0  0  0  0  0
    4.1410    1.1320   -1.0490 C   0  0  0  0  0  0  0  0  0  0  0  0
    5.0930    2.1950   -0.5540 C   0  0  0  0  0  0  0  0  0  0  0  0
    6.4050    1.3980   -0.7250 C   0  0  0  0  0  0  0  0  0  0  0  0
    1.1690   -0.9750   -1.5700 C   0  0  0  0  0  0  0  0  0  0  0  0
   -0.3170   -1.2090   -1.5210 C   0  0  0  0  0  0  0  0  0  0  0  0
  1  2  2  0
  2  3  1  0
  2 14  1  0
  3  4  1  0
  4  5  2  0
  4  9  1  0
  5  6  1  0
  6  7  2  0
  7  8  1  0
  8  9  2  0
  9 10  1  0
 10 11  1  6
 10 12  1  0
 10 13  1  0
 14 15  1  0
 14 31  1  0
 15 16  1  0
 16 17  1  0
 17 18  1  0
 17 30  1  0
 18 19  2  0
 18 26  1  0
 19 20  1  0
 20 21  2  0
 21 22  1  0
 22 23  1  0
 22 26  2  0
 23 24  1  0
 24 25  2  0
 24 29  1  0
 25 26  1  0
 25 27  1  0
 27 28  1  0
 28 29  1  0
 30 31  1  0
M  END
