
     RDKit          3D

 31 34  0  0  0  0  0  0  0  0999 V2000
    5.2970    0.2260   -3.1370 C   0  0  0  0  0  0  0  0  0  0  0  0
    6.2860    0.7590   -2.1260 C   0  0  0  0  0  0  0  0  0  0  0  0
    5.8350    0.4360   -0.7230 C   0  0  0  0  0  0  0  0  0  0  0  0
    4.5490    1.0400   -0.4830 N   0  0  0  0  0  0  0  0  0  0  0  0
    3.9130    0.8670    0.8000 C   0  0  0  0  0  0  0  0  0  0  0  0
    4.4700    0.2030    1.6910 O   0  0  0  0  0  0  0  0  0  0  0  0
    2.5890    1.5180    0.9710 C   0  0  0  0  0  0  0  0  0  0  0  0
    2.1260    1.1980    2.3870 C   0  0  0  0  0  0  0  0  0  0  0  0
    0.7570    1.8330    2.6610 C   0  0  0  0  0  0  0  0  0  0  0  0
   -0.2460    1.2860    1.6780 C   0  0  0  0  0  0  0  0  0  0  0  0
   -0.9580    0.1840    1.9530 N   0  0  0  0  0  0  0  0  0  0  0  0
   -1.8300   -0.2760    1.0720 C   0  0  0  0  0  0  0  0  0  0  0  0
   -2.4710   -1.4150    1.5230 C   0  0  0  0  0  0  0  0  0  0  0  0
   -1.8600   -2.0130    2.7000 C   0  0  0  0  0  0  0  0  0  0  0  0
   -2.3620   -3.1020    3.2220 N   0  0  0  0  0  0  0  0  0  0  0  0
   -1.6420   -3.5210    4.3370 C   0  0  0  0  0  0  0  0  0  0  0  0
   -0.6760   -2.7070    4.5420 N   0  0  0  0  0  0  0  0  0  0  0  0
   -0.7190   -1.6740    3.5310 C   0  0  0  0  0  0  0  0  0  0  0  0
   -3.5610   -1.9950    0.9980 N   0  0  0  0  0  0  0  0  0  0  0  0
   -4.0840   -1.9360   -0.2370 C   0  0  0  0  0  0  0  0  0  0  0  0
   -5.1400   -2.9640   -0.5650 C   0  0  0  0  0  0  0  0  0  0  0  0
   -3.7920   -1.0780   -1.2300 N   0  0  0  0  0  0  0  0  0  0  0  0
   -2.9530   -0.0080   -1.2380 C   0  0  0  0  0  0  0  0  0  0  0  0
   -3.0390    0.7290   -2.3950 C   0  0  0  0  0  0  0  0  0  0  0  0
   -3.9910    0.3200   -3.4850 C   0  0  0  0  0  0  0  0  0  0  0  0
   -2.2600    1.8520   -2.5830 C   0  0  0  0  0  0  0  0  0  0  0  0
   -2.3700    2.6460   -3.8590 C   0  0  0  0  0  0  0  0  0  0  0  0
   -1.4110    2.2130   -1.6050 N   0  0  0  0  0  0  0  0  0  0  0  0
   -1.2690    1.5460   -0.4480 C   0  0  0  0  0  0  0  0  0  0  0  0
   -0.4100    1.9310    0.5120 N   0  0  0  0  0  0  0  0  0  0  0  0
   -2.0480    0.3820   -0.2040 N   0  0  0  0  0  0  0  0  0  0  0  0
  1  2  1  0
  2  3  1  0
  3  4  1  0
  4  5  1  0
  5  6  2  0
  5  7  1  0
  7  8  1  0
  8  9  1  0
  9 10  1  0
 10 11  2  0
 10 30  1  0
 11 12  1  0
 12 13  2  0
 12 31  1  0
 13 14  1  0
 13 19  1  0
 14 15  2  0
 14 18  1  0
 15 16  1  0
 16 17  2  0
 17 18  1  0
 19 20  1  0
 20 21  1  0
 20 22  2  0
 22 23  1  0
 23 24  2  0
 23 31  1  0
 24 25  1  0
 24 26  1  0
 26 27  1  0
 26 28  2  0
 28 29  1  0
 29 30  2  0
 29 31  1  0
M  CHG  1  17   1
M  END
