
     RDKit          3D

 31 34  0  0  0  0  0  0  0  0999 V2000
   -1.2420   -3.1540    0.5370 C   0  0  0  0  0  0  0  0  0  0  0  0
   -1.6370   -2.1800   -0.5550 C   0  0  0  0  0  0  0  0  0  0  0  0
   -2.2400   -0.9700   -0.1390 N   0  0  0  0  0  0  0  0  0  0  0  0
   -3.5890   -0.7590   -0.1690 N   0  0  0  0  0  0  0  0  0  0  0  0
   -3.8620    0.4750    0.2280 C   0  0  0  0  0  0  0  0  0  0  0  0
   -5.1690    1.1600    0.2050 C   0  0  0  0  0  0  0  0  0  0  0  0
   -6.0920    1.2050    1.1860 C   0  0  0  0  0  0  0  0  0  0  0  0
   -5.8820    0.4820    2.4300 C   0  0  0  0  0  0  0  0  0  0  0  0
   -7.2640    1.9460    0.9630 C   0  0  0  0  0  0  0  0  0  0  0  0
   -7.4540    2.6090   -0.2420 C   0  0  0  0  0  0  0  0  0  0  0  0
   -6.5260    2.5520   -1.2080 N   0  0  0  0  0  0  0  0  0  0  0  0
   -5.4220    1.8570   -1.0030 C   0  0  0  0  0  0  0  0  0  0  0  0
   -4.4110    1.7900   -2.0850 C   0  0  0  0  0  0  0  0  0  0  0  0
   -2.7200    1.0540    0.5190 N   0  0  0  0  0  0  0  0  0  0  0  0
   -1.7040    0.1530    0.2890 C   0  0  0  0  0  0  0  0  0  0  0  0
   -0.3500    0.5990    0.4490 N   0  0  0  0  0  0  0  0  0  0  0  0
    0.7650   -0.0710   -0.1550 C   0  0  0  0  0  0  0  0  0  0  0  0
    0.6750   -0.4530   -1.4660 C   0  0  0  0  0  0  0  0  0  0  0  0
    1.6360   -1.2480   -1.9980 C   0  0  0  0  0  0  0  0  0  0  0  0
    2.6830   -1.6770   -1.2630 C   0  0  0  0  0  0  0  0  0  0  0  0
    3.6910   -2.5090   -1.8140 O   0  0  0  0  0  0  0  0  0  0  0  0
    2.7910   -1.2930    0.0600 C   0  0  0  0  0  0  0  0  0  0  0  0
    3.8970   -1.9570    0.8120 C   0  0  0  0  0  0  0  0  0  0  0  0
    5.0480   -1.0870    1.0080 N   0  0  0  0  0  0  0  0  0  0  0  0
    5.0570   -0.0790   -0.0350 C   0  0  0  0  0  0  0  0  0  0  0  0
    5.9900    1.0220    0.1870 C   0  0  0  0  0  0  0  0  0  0  0  0
    6.6330    1.4380    1.3460 C   0  0  0  0  0  0  0  0  0  0  0  0
    7.3990    2.4910    1.0450 N   0  0  0  0  0  0  0  0  0  0  0  0
    7.2540    2.7390   -0.2470 C   0  0  0  0  0  0  0  0  0  0  0  0
    6.4120    1.8710   -0.7880 N   0  0  0  0  0  0  0  0  0  0  0  0
    1.8230   -0.4820    0.6080 C   0  0  0  0  0  0  0  0  0  0  0  0
  1  2  1  0
  2  3  1  0
  3  4  1  0
  3 15  1  0
  4  5  2  0
  5  6  1  0
  5 14  1  0
  6  7  2  0
  6 12  1  0
  7  8  1  0
  7  9  1  0
  9 10  2  0
 10 11  1  0
 11 12  2  0
 12 13  1  0
 14 15  2  0
 15 16  1  0
 16 17  1  0
 17 18  2  0
 17 31  1  0
 18 19  1  0
 19 20  2  0
 20 21  1  0
 20 22  1  0
 22 23  1  0
 22 31  2  0
 23 24  1  0
 24 25  1  0
 25 26  1  0
 26 27  2  0
 26 30  1  0
 27 28  1  0
 28 29  1  0
 29 30  2  0
M  CHG  1  24   1
M  END
