
     RDKit          3D

 31 34  0  0  0  0  0  0  0  0999 V2000
   -8.8790   -0.3840   -2.2500 C   0  0  0  0  0  0  0  0  0  0  0  0
   -8.5760   -1.2410   -1.0330 C   0  0  0  0  0  0  0  0  0  0  0  0
   -7.1270   -1.2930   -0.7590 C   0  0  0  0  0  0  0  0  0  0  0  0
   -6.4200   -2.3960   -1.1080 N   0  0  0  0  0  0  0  0  0  0  0  0
   -5.0920   -2.4720   -0.8820 C   0  0  0  0  0  0  0  0  0  0  0  0
   -4.4380   -1.4390   -0.2980 N   0  0  0  0  0  0  0  0  0  0  0  0
   -5.0800   -0.3180    0.0730 C   0  0  0  0  0  0  0  0  0  0  0  0
   -4.3990    0.7670    0.7110 N   0  0  0  0  0  0  0  0  0  0  0  0
   -2.9930    0.7030    0.9190 C   0  0  0  0  0  0  0  0  0  0  0  0
   -2.1220   -0.2480    0.6000 N   0  0  0  0  0  0  0  0  0  0  0  0
   -0.8650    0.1040    0.9820 C   0  0  0  0  0  0  0  0  0  0  0  0
    0.3270   -0.6520    0.7870 N   0  0  0  0  0  0  0  0  0  0  0  0
    1.6050   -0.2070    1.2190 C   0  0  0  0  0  0  0  0  0  0  0  0
    1.8790    1.1640    0.6480 C   0  0  2  0  0  0  0  0  0  0  0  0
    1.8300    1.0810   -0.8550 C   0  0  0  0  0  0  0  0  0  0  0  0
    3.1940    1.4140   -1.2910 C   0  0  0  0  0  0  0  0  0  0  0  0
    3.6210    1.8650   -2.4000 O   0  0  0  0  0  0  0  0  0  0  0  0
    4.0540    1.1240   -0.1670 N   0  0  0  0  0  0  0  0  0  0  0  0
    5.3580    0.5710   -0.2090 C   0  0  0  0  0  0  0  0  0  0  0  0
    6.3980    1.2410   -0.7810 C   0  0  0  0  0  0  0  0  0  0  0  0
    7.6450    0.6740   -0.8170 C   0  0  0  0  0  0  0  0  0  0  0  0
    8.7670    1.3970   -1.4370 C   0  0  0  0  0  0  0  0  0  0  0  0
    7.8820   -0.5670   -0.2860 C   0  0  0  0  0  0  0  0  0  0  0  0
    6.8430   -1.2600    0.2960 C   0  0  0  0  0  0  0  0  0  0  0  0
    7.0250   -2.6190    0.8950 C   0  0  0  0  0  0  0  0  0  0  0  0
    5.5750   -0.6760    0.3290 C   0  0  0  0  0  0  0  0  0  0  0  0
    3.3160    1.5120    1.0170 C   0  0  0  0  0  0  0  0  0  0  0  0
   -1.0100    1.3110    1.5480 N   0  0  0  0  0  0  0  0  0  0  0  0
   -2.2820    1.6870    1.5190 N   0  0  0  0  0  0  0  0  0  0  0  0
   -6.4370   -0.2500   -0.1630 C   0  0  0  0  0  0  0  0  0  0  0  0
   -7.1450    0.9770    0.2390 C   0  0  0  0  0  0  0  0  0  0  0  0
  1  2  1  0
  2  3  1  0
  3  4  2  0
  3 30  1  0
  4  5  1  0
  5  6  2  0
  6  7  1  0
  7  8  1  0
  7 30  2  0
  8  9  1  0
  9 10  2  0
  9 29  1  0
 10 11  1  0
 11 12  1  0
 11 28  2  0
 12 13  1  0
 14 13  1  1
 14 15  1  0
 14 27  1  0
 15 16  1  0
 16 17  2  0
 16 18  1  0
 18 19  1  0
 18 27  1  0
 19 20  2  0
 19 26  1  0
 20 21  1  0
 21 22  1  0
 21 23  2  0
 23 24  1  0
 24 25  1  0
 24 26  2  0
 28 29  1  0
 30 31  1  0
M  CHG  1   4   1
M  END
