
     RDKit          3D

 31 34  0  0  0  0  0  0  0  0999 V2000
    7.4470   -1.3840    1.8820 C   0  0  0  0  0  0  0  0  0  0  0  0
    6.3490   -1.7030    1.0260 N   0  0  0  0  0  0  0  0  0  0  0  0
    5.9810   -0.7360    0.0560 C   0  0  0  0  0  0  0  0  0  0  0  0
    4.6010   -0.1770    0.1700 C   0  0  0  0  0  0  0  0  0  0  0  0
    4.3800    0.9050    0.9990 C   0  0  0  0  0  0  0  0  0  0  0  0
    3.1510    1.4900    0.9100 C   0  0  0  0  0  0  0  0  0  0  0  0
    2.2130    0.9950    0.0430 C   0  0  0  0  0  0  0  0  0  0  0  0
    2.3970   -0.0370   -0.7650 N   0  0  0  0  0  0  0  0  0  0  0  0
    3.6080   -0.6380   -0.7090 C   0  0  0  0  0  0  0  0  0  0  0  0
    3.9260   -1.8090   -1.4530 N   0  0  0  0  0  0  0  0  0  0  0  0
    3.5840   -3.0930   -0.8780 C   0  0  0  0  0  0  0  0  0  0  0  0
    4.6170   -1.7510   -2.7160 C   0  0  0  0  0  0  0  0  0  0  0  0
    0.7910    1.4160    0.0540 C   0  0  0  0  0  0  0  0  0  0  0  0
   -0.2330    0.5930   -0.1950 N   0  0  0  0  0  0  0  0  0  0  0  0
   -1.3850    1.2440    0.0570 C   0  0  0  0  0  0  0  0  0  0  0  0
   -2.7370    0.9490   -0.0640 N   0  0  0  0  0  0  0  0  0  0  0  0
   -3.3400   -0.1720   -0.6610 C   0  0  0  0  0  0  0  0  0  0  0  0
   -2.6770   -0.9560   -1.2970 O   0  0  0  0  0  0  0  0  0  0  0  0
   -4.8190   -0.3650   -0.4980 C   0  0  0  0  0  0  0  0  0  0  0  0
   -5.4500   -1.2420   -1.5000 C   0  0  0  0  0  0  0  0  0  0  0  0
   -6.9210   -1.4460   -1.3440 C   0  0  1  0  0  0  0  0  0  0  0  0
   -7.3260   -2.1470   -0.0970 C   0  0  0  0  0  0  0  0  0  0  0  0
   -7.7490   -1.1520    0.9130 C   0  0  0  0  0  0  0  0  0  0  0  0
   -8.4090   -0.0880    0.0170 C   0  0  0  0  0  0  0  0  0  0  0  0
   -7.6890   -0.1470   -1.2850 C   0  0  0  0  0  0  0  0  0  0  0  0
   -1.0050    2.5220    0.4670 N   0  0  0  0  0  0  0  0  0  0  0  0
    0.2850    2.6370    0.4660 N   0  0  0  0  0  0  0  0  0  0  0  0
    1.0560    3.7840    0.7880 C   0  0  0  0  0  0  0  0  0  0  0  0
    2.2700    3.8940    1.2880 C   0  0  0  0  0  0  0  0  0  0  0  0
    2.8260    5.2320    1.5140 C   0  0  0  0  0  0  0  0  0  0  0  0
    3.0920    2.7520    1.6500 N   0  0  0  0  0  0  0  0  0  0  0  0
  1  2  1  0
  2  3  1  0
  3  4  1  0
  4  5  2  0
  4  9  1  0
  5  6  1  0
  6  7  2  0
  6 31  1  0
  7  8  1  0
  7 13  1  0
  8  9  2  0
  9 10  1  0
 10 11  1  0
 10 12  1  0
 13 14  2  0
 13 27  1  0
 14 15  1  0
 15 16  1  0
 15 26  2  0
 16 17  1  0
 17 18  2  0
 17 19  1  0
 19 20  1  0
 21 20  1  1
 21 22  1  0
 21 25  1  0
 22 23  1  0
 23 24  1  0
 24 25  1  0
 26 27  1  0
 27 28  1  0
 28 29  2  0
 29 30  1  0
 29 31  1  0
M  CHG  1   2   1
M  END
