
     RDKit          3D

 30 33  0  0  0  0  0  0  0  0999 V2000
   -7.4810    0.4400   -0.4200 C   0  0  0  0  0  0  0  0  0  0  0  0
   -5.9760    0.6820   -0.3650 C   0  0  2  0  0  0  0  0  0  0  0  0
   -5.6060    1.2270   -1.5650 O   0  0  0  0  0  0  0  0  0  0  0  0
   -4.3460    0.9330   -1.9730 C   0  0  0  0  0  0  0  0  0  0  0  0
   -3.3630    0.7670   -0.8080 C   0  0  0  0  0  0  0  0  0  0  0  0
   -3.8200   -0.2970    0.0280 N   0  0  0  0  0  0  0  0  0  0  0  0
   -3.0930   -1.0400    0.9540 C   0  0  0  0  0  0  0  0  0  0  0  0
   -3.7310   -2.0230    1.5550 O   0  0  0  0  0  0  0  0  0  0  0  0
   -1.7170   -0.9030    1.3700 C   0  0  0  0  0  0  0  0  0  0  0  0
   -0.9160    0.1500    0.8900 N   0  0  0  0  0  0  0  0  0  0  0  0
    0.5210    0.0940    1.0080 C   0  0  0  0  0  0  0  0  0  0  0  0
    1.2730    1.1220    0.5310 N   0  0  0  0  0  0  0  0  0  0  0  0
    2.6080    1.0940    0.6070 C   0  0  0  0  0  0  0  0  0  0  0  0
    3.2480    0.0030    1.1790 C   0  0  0  0  0  0  0  0  0  0  0  0
    4.6810   -0.0110    1.2560 C   0  0  0  0  0  0  0  0  0  0  0  0
    5.3300   -0.1090    2.4280 N   0  0  0  0  0  0  0  0  0  0  0  0
    6.6480   -0.1220    2.5210 N   0  0  0  0  0  0  0  0  0  0  0  0
    7.4130   -0.0350    1.4130 C   0  0  0  0  0  0  0  0  0  0  0  0
    8.6860   -0.0470    1.4920 O   0  0  0  0  0  0  0  0  0  0  0  0
    6.8270    0.0680    0.1700 C   0  0  0  0  0  0  0  0  0  0  0  0
    7.6000    0.1530   -0.9720 C   0  0  0  0  0  0  0  0  0  0  0  0
    7.0110    0.2490   -2.2050 C   0  0  0  0  0  0  0  0  0  0  0  0
    5.6450    0.2610   -2.2980 C   0  0  0  0  0  0  0  0  0  0  0  0
    4.8630    0.1760   -1.1520 C   0  0  0  0  0  0  0  0  0  0  0  0
    5.4320    0.0800    0.0860 C   0  0  0  0  0  0  0  0  0  0  0  0
    2.4830   -1.0190    1.6550 C   0  0  0  0  0  0  0  0  0  0  0  0
    3.0240   -2.0380    2.1890 O   0  0  0  0  0  0  0  0  0  0  0  0
    1.1290   -0.9430    1.5540 N   0  0  0  0  0  0  0  0  0  0  0  0
   -5.2680   -0.6220   -0.1240 C   0  0  2  0  0  0  0  0  0  0  0  0
   -5.5190   -1.6460   -1.1670 C   0  0  0  0  0  0  0  0  0  0  0  0
  2  1  1  6
  2  3  1  0
  2 29  1  0
  3  4  1  0
  4  5  1  0
  5  6  1  0
  6  7  1  0
  6 29  1  0
  7  8  2  0
  7  9  1  0
  9 10  1  0
 10 11  1  0
 11 12  2  0
 11 28  1  0
 12 13  1  0
 13 14  2  0
 14 15  1  0
 14 26  1  0
 15 16  2  0
 15 25  1  0
 16 17  1  0
 17 18  1  0
 18 19  2  0
 18 20  1  0
 20 21  2  0
 20 25  1  0
 21 22  1  0
 22 23  2  0
 23 24  1  0
 24 25  2  0
 26 27  2  0
 26 28  1  0
 29 30  1  6
M  END
