
     RDKit          3D

 31 34  0  0  0  0  0  0  0  0999 V2000
    7.4820    0.3620    0.1830 C   0  0  0  0  0  0  0  0  0  0  0  0
    6.5960   -0.7980    0.5150 C   0  0  2  0  0  0  0  0  0  0  0  0
    6.4060   -0.8820    2.0160 C   0  0  0  0  0  0  0  0  0  0  0  0
    7.2350   -2.1000    0.0800 C   0  0  0  0  0  0  0  0  0  0  0  0
    5.2950   -0.5990   -0.0870 N   0  0  0  0  0  0  0  0  0  0  0  0
    5.3830   -0.0950   -1.4410 C   0  0  0  0  0  0  0  0  0  0  0  0
    4.4750    1.0980   -1.6270 C   0  0  0  0  0  0  0  0  0  0  0  0
    3.0400    0.6620   -1.3410 C   0  0  0  0  0  0  0  0  0  0  0  0
    2.8180   -0.5160   -1.0200 O   0  0  0  0  0  0  0  0  0  0  0  0
    1.9910    1.5840   -1.4410 N   0  0  0  0  0  0  0  0  0  0  0  0
    0.6310    1.3490   -1.2200 C   0  0  0  0  0  0  0  0  0  0  0  0
   -0.2730    2.4050   -1.1320 C   0  0  0  0  0  0  0  0  0  0  0  0
   -1.6020    2.1760   -0.9300 C   0  0  0  0  0  0  0  0  0  0  0  0
   -2.1460    0.9180   -0.8000 C   0  0  0  0  0  0  0  0  0  0  0  0
   -3.4770    0.6490   -0.5960 C   0  0  0  0  0  0  0  0  0  0  0  0
   -4.3900    1.7300   -0.5070 N   0  0  0  0  0  0  0  0  0  0  0  0
   -5.7980    1.3290   -0.2870 C   0  0  1  0  0  0  0  0  0  0  0  0
   -5.8090    0.5680    1.0210 C   0  0  0  0  0  0  0  0  0  0  0  0
   -6.9650    1.0990    1.8250 C   0  0  0  0  0  0  0  0  0  0  0  0
   -7.6310    2.1470    0.9830 C   0  0  0  0  0  0  0  0  0  0  0  0
   -6.6700    2.5390   -0.1010 C   0  0  0  0  0  0  0  0  0  0  0  0
   -3.8550   -0.6360   -0.4880 N   0  0  0  0  0  0  0  0  0  0  0  0
   -3.0150   -1.6760   -0.5680 C   0  0  0  0  0  0  0  0  0  0  0  0
   -3.4460   -3.0270   -0.4500 N   0  0  0  0  0  0  0  0  0  0  0  0
   -4.1580   -3.5290    0.5800 C   0  0  0  0  0  0  0  0  0  0  0  0
   -4.3920   -4.8360    0.3660 N   0  0  0  0  0  0  0  0  0  0  0  0
   -3.8240   -5.1640   -0.8080 C   0  0  0  0  0  0  0  0  0  0  0  0
   -3.2620   -4.0460   -1.2730 N   0  0  0  0  0  0  0  0  0  0  0  0
   -1.7150   -1.3790   -0.7680 N   0  0  0  0  0  0  0  0  0  0  0  0
   -1.2540   -0.1370   -0.8860 C   0  0  0  0  0  0  0  0  0  0  0  0
    0.1170    0.1010   -1.0950 C   0  0  0  0  0  0  0  0  0  0  0  0
  2  1  1  1
  2  3  1  0
  2  4  1  0
  2  5  1  0
  5  6  1  0
  6  7  1  0
  7  8  1  0
  8  9  2  0
  8 10  1  0
 10 11  1  0
 11 12  2  0
 11 31  1  0
 12 13  1  0
 13 14  2  0
 14 15  1  0
 14 30  1  0
 15 16  1  0
 15 22  2  0
 17 16  1  1
 17 18  1  0
 17 21  1  0
 18 19  1  0
 19 20  1  0
 20 21  1  0
 22 23  1  0
 23 24  1  0
 23 29  2  0
 24 25  1  0
 24 28  1  0
 25 26  2  0
 26 27  1  0
 27 28  2  0
 29 30  1  0
 30 31  2  0
M  CHG  1   5   1
M  END
