
     RDKit          3D

 36 38  0  0  0  0  0  0  0  0999 V2000
   -0.3410   -3.6860   -1.1020 C   0  0  0  0  0  0  0  0  0  0  0  0
   -0.3060   -2.4240   -1.9070 C   0  0  0  0  0  0  0  0  0  0  0  0
    0.0270   -1.2400   -1.0380 C   0  0  0  0  0  0  0  0  0  0  0  0
    0.9900   -0.4490   -1.0810 N   0  0  0  0  0  0  0  0  0  0  0  0
    0.8950    0.5430   -0.0430 C   0  0  0  0  0  0  0  0  0  0  0  0
    1.8700    1.6300    0.1670 C   0  0  0  0  0  0  0  0  0  0  0  0
    3.2040    1.1520    0.4790 N   0  0  0  0  0  0  0  0  0  0  0  0
    4.0000    0.3470   -0.3410 C   0  0  0  0  0  0  0  0  0  0  0  0
    3.5710   -0.0210   -1.4600 O   0  0  0  0  0  0  0  0  0  0  0  0
    5.3510   -0.0940    0.0640 C   0  0  1  0  0  0  0  0  0  0  0  0
    5.9990   -0.9460   -0.9890 C   0  0  0  0  0  0  0  0  0  0  0  0
    6.1610   -0.2470   -2.2440 N   0  0  0  0  0  0  0  0  0  0  0  0
    7.3420    1.0040   -1.9380 S   0  0  1  0  0  0  0  0  0  0  0  0
    8.6950    0.3730   -1.6680 O   0  0  0  0  0  0  0  0  0  0  0  0
    7.4920    1.9180   -3.0970 O   0  0  0  0  0  0  0  0  0  0  0  0
    6.8190    1.8690   -0.5030 C   0  0  0  0  0  0  0  0  0  0  0  0
    6.2240    1.0200    0.5520 C   0  0  2  0  0  0  0  0  0  0  0  0
    7.3350    0.3800    1.3890 C   0  0  0  0  0  0  0  0  0  0  0  0
   -0.2280    0.2540    0.6190 C   0  0  0  0  0  0  0  0  0  0  0  0
   -0.7470    0.9900    1.7630 C   0  0  0  0  0  0  0  0  0  0  0  0
   -0.0320    2.0040    2.1950 O   0  0  0  0  0  0  0  0  0  0  0  0
   -1.9280    0.7370    2.4550 N   0  0  0  0  0  0  0  0  0  0  0  0
   -2.1790    1.6600    3.6130 C   0  0  0  0  0  0  0  0  0  0  0  0
   -2.8840   -0.2440    2.1790 C   0  0  0  0  0  0  0  0  0  0  0  0
   -3.9620    0.2030    1.2390 C   0  0  0  0  0  0  0  0  0  0  0  0
   -4.0130    1.3250    0.7470 O   0  0  0  0  0  0  0  0  0  0  0  0
   -4.9580   -0.7570    0.9270 N   0  0  0  0  0  0  0  0  0  0  0  0
   -6.0620   -0.5800    0.0750 C   0  0  0  0  0  0  0  0  0  0  0  0
   -7.0140   -1.6000   -0.0330 C   0  0  0  0  0  0  0  0  0  0  0  0
   -8.1140   -1.4900   -0.8530 C   0  0  0  0  0  0  0  0  0  0  0  0
   -8.3100   -0.3500   -1.6050 C   0  0  0  0  0  0  0  0  0  0  0  0
   -9.8480   -0.2100   -2.7450 Br  0  0  0  0  0  0  0  0  0  0  0  0
   -7.4060    0.6610   -1.5250 C   0  0  0  0  0  0  0  0  0  0  0  0
   -7.6360    1.8810   -2.3440 C   0  0  0  0  0  0  0  0  0  0  0  0
   -6.3000    0.5290   -0.6890 C   0  0  0  0  0  0  0  0  0  0  0  0
   -0.8220   -0.8980    0.0610 N   0  0  0  0  0  0  0  0  0  0  0  0
  1  2  1  0
  2  3  1  0
  3  4  2  0
  3 36  1  0
  4  5  1  0
  5  6  1  0
  5 19  2  0
  6  7  1  0
  7  8  1  0
  8  9  2  0
 10  8  1  6
 10 11  1  0
 10 17  1  0
 11 12  1  0
 12 13  1  0
 13 14  2  0
 13 15  2  0
 13 16  1  1
 16 17  1  0
 17 18  1  6
 19 20  1  0
 19 36  1  0
 20 21  2  0
 20 22  1  0
 22 23  1  0
 22 24  1  0
 24 25  1  0
 25 26  2  0
 25 27  1  0
 27 28  1  0
 28 29  2  0
 28 35  1  0
 29 30  1  0
 30 31  2  0
 31 32  1  0
 31 33  1  0
 33 34  1  0
 33 35  2  0
M  CHG  1  36   1
M  END
