
     RDKit          3D

 36 37  0  0  0  0  0  0  0  0999 V2000
   -2.8580   -4.7350    1.3440 C   0  0  0  0  0  0  0  0  0  0  0  0
   -1.8560   -3.6600    1.2790 C   0  0  0  0  0  0  0  0  0  0  0  0
   -2.0080   -2.4570    0.7290 C   0  0  0  0  0  0  0  0  0  0  0  0
   -0.8150   -1.6110    0.8310 C   0  0  0  0  0  0  0  0  0  0  0  0
    0.5070   -2.2860    1.0160 C   0  0  1  0  0  0  0  0  0  0  0  0
    0.7820   -3.4140    0.0610 C   0  0  0  0  0  0  0  0  0  0  0  0
    1.6370   -1.2900    0.8130 C   0  0  0  0  0  0  0  0  0  0  0  0
    1.3840    0.1070    1.2170 C   0  0  2  0  0  0  0  0  0  0  0  0
    2.7490    0.7480    1.3260 C   0  0  0  0  0  0  0  0  0  0  0  0
    2.9620    1.6610    2.1580 O   0  0  0  0  0  0  0  0  0  0  0  0
    3.8310    0.3410    0.5030 N   0  0  0  0  0  0  0  0  0  0  0  0
    5.1470    0.9640    0.6130 C   0  0  1  0  0  0  0  0  0  0  0  0
    5.9510   -0.0160    1.4890 C   0  0  0  0  0  0  0  0  0  0  0  0
    5.7990    1.0980   -0.7110 C   0  0  0  0  0  0  0  0  0  0  0  0
    5.1910    0.6760   -1.7280 O   0  0  0  0  0  0  0  0  0  0  0  0
    7.0390    1.6640   -0.8690 O   0  0  0  0  0  0  0  0  0  0  0  0
    7.7060    1.8210   -2.0880 C   0  0  0  0  0  0  0  0  0  0  0  0
    6.9700    2.6880   -3.0820 C   0  0  0  0  0  0  0  0  0  0  0  0
    0.7460    0.3580    2.4630 N   0  0  0  0  0  0  0  0  0  0  0  0
   -0.1410    1.4050    2.8260 C   0  0  0  0  0  0  0  0  0  0  0  0
    0.1880    2.0960    3.8250 O   0  0  0  0  0  0  0  0  0  0  0  0
   -1.4170    1.7250    2.1010 C   0  0  2  0  0  0  0  0  0  0  0  0
   -2.5410    1.1240    2.8970 C   0  0  0  0  0  0  0  0  0  0  0  0
   -1.3650    1.4690    0.7650 O   0  0  0  0  0  0  0  0  0  0  0  0
   -2.2840    1.2750   -0.2630 C   0  0  0  0  0  0  0  0  0  0  0  0
   -1.9010    1.8930   -1.4110 C   0  0  0  0  0  0  0  0  0  0  0  0
   -2.7610    1.7930   -2.6030 C   0  0  2  0  0  0  0  0  0  0  0  0
   -2.0580    1.0350   -3.5700 O   0  0  0  0  0  0  0  0  0  0  0  0
   -3.0910    3.1480   -3.1900 C   0  0  0  0  0  0  0  0  0  0  0  0
   -3.8320    3.9660   -2.1270 C   0  0  0  0  0  0  0  0  0  0  0  0
   -3.5200    0.5110   -0.1710 C   0  0  0  0  0  0  0  0  0  0  0  0
   -3.8880   -0.7200   -0.0200 C   0  0  0  0  0  0  0  0  0  0  0  0
   -5.3930   -1.1410    0.0310 C   0  0  0  0  0  0  0  0  0  0  0  0
   -5.2240   -2.1520   -1.1200 C   0  0  0  0  0  0  0  0  0  0  0  0
   -4.0330   -2.8920   -0.5830 C   0  0  0  0  0  0  0  0  0  0  0  0
   -3.2550   -1.9990    0.0870 C   0  0  0  0  0  0  0  0  0  0  0  0
  1  2  1  0
  2  3  2  3
  3  4  1  0
  3 36  1  0
  4  5  1  0
  5  6  1  6
  5  7  1  0
  7  8  1  0
  8  9  1  1
  8 19  1  0
  9 10  2  0
  9 11  1  0
 11 12  1  0
 12 13  1  1
 12 14  1  0
 14 15  2  0
 14 16  1  0
 16 17  1  0
 17 18  1  0
 19 20  1  0
 20 21  2  0
 20 22  1  0
 22 23  1  1
 22 24  1  0
 24 25  1  0
 25 26  2  3
 25 31  1  0
 26 27  1  0
 27 28  1  6
 27 29  1  0
 29 30  1  0
 31 32  2  0
 32 33  1  0
 32 36  1  0
 33 34  1  0
 34 35  1  0
 35 36  2  0
M  END
