
     RDKit          3D

 36 39  0  0  0  0  0  0  0  0999 V2000
    3.7490    0.7240    0.3840 O   0  0  0  0  0  0  0  0  0  0  0  0
    3.3590    1.3390    1.4010 C   0  0  0  0  0  0  0  0  0  0  0  0
    4.4060    1.8480    2.3340 C   0  0  0  0  0  0  0  0  0  0  0  0
    5.7210    1.5180    1.8460 N   0  0  0  0  0  0  0  0  0  0  0  0
    6.1130    0.1600    1.6210 C   0  0  0  0  0  0  0  0  0  0  0  0
    5.3300   -0.7960    1.8310 O   0  0  0  0  0  0  0  0  0  0  0  0
    7.4470   -0.1260    1.1440 C   0  0  0  0  0  0  0  0  0  0  0  0
    8.6730    1.3240    0.8410 Br  0  0  0  0  0  0  0  0  0  0  0  0
    7.8210   -1.3600    0.9160 C   0  0  0  0  0  0  0  0  0  0  0  0
    9.1190   -1.7140    0.4470 C   0  0  0  0  0  0  0  0  0  0  0  0
   10.3850   -1.3110    0.7510 C   0  0  0  0  0  0  0  0  0  0  0  0
   11.4330   -1.8290    0.1180 C   0  0  0  0  0  0  0  0  0  0  0  0
   11.2350   -2.7950   -0.8660 C   0  0  0  0  0  0  0  0  0  0  0  0
    9.4400   -2.9470   -0.8610 S   0  0  0  0  0  0  0  0  0  0  0  0
    2.0140    1.5820    1.7200 N   0  0  0  0  0  0  0  0  0  0  0  0
    0.9480    1.1390    0.9170 C   0  0  0  0  0  0  0  0  0  0  0  0
   -0.2750    1.7850    1.0910 C   0  0  0  0  0  0  0  0  0  0  0  0
   -1.3690    1.4130    0.3840 C   0  0  0  0  0  0  0  0  0  0  0  0
   -1.3580    0.3910   -0.5390 C   0  0  0  0  0  0  0  0  0  0  0  0
   -2.5620    0.0770   -1.2180 N   0  0  0  0  0  0  0  0  0  0  0  0
   -3.1810    0.9600   -2.1230 C   0  0  0  0  0  0  0  0  0  0  0  0
   -2.8150    2.1700   -2.3490 O   0  0  0  0  0  0  0  0  0  0  0  0
   -4.3070    0.2680   -2.7600 C   0  0  0  0  0  0  0  0  0  0  0  0
   -4.5970   -0.9350   -1.8650 C   0  0  2  0  0  0  0  0  0  0  0  0
   -5.7500   -0.6800   -1.0200 N   0  0  0  0  0  0  0  0  0  0  0  0
   -6.9410   -1.4560   -1.2660 C   0  0  0  0  0  0  0  0  0  0  0  0
   -8.2290   -0.7730   -1.0240 C   0  0  0  0  0  0  0  0  0  0  0  0
   -8.3830   -0.0330    0.1770 N   0  0  0  0  0  0  0  0  0  0  0  0
   -7.9490    1.3460    0.1220 C   0  0  0  0  0  0  0  0  0  0  0  0
   -6.5050    1.3310    0.4060 N   0  0  0  0  0  0  0  0  0  0  0  0
   -5.6010    0.3230   -0.0260 C   0  0  0  0  0  0  0  0  0  0  0  0
   -4.4640    0.3140    0.5770 O   0  0  0  0  0  0  0  0  0  0  0  0
   -3.3440   -1.1190   -1.1190 C   0  0  0  0  0  0  0  0  0  0  0  0
   -2.9800   -2.1330   -0.4880 O   0  0  0  0  0  0  0  0  0  0  0  0
   -0.1620   -0.2550   -0.7230 C   0  0  0  0  0  0  0  0  0  0  0  0
    0.9810    0.1220    0.0040 C   0  0  0  0  0  0  0  0  0  0  0  0
  1  2  2  0
  2  3  1  0
  2 15  1  0
  3  4  1  0
  4  5  1  0
  5  6  2  0
  5  7  1  0
  7  8  1  0
  7  9  2  3
  9 10  1  0
 10 11  2  0
 10 14  1  0
 11 12  1  0
 12 13  2  0
 13 14  1  0
 15 16  1  0
 16 17  2  0
 16 36  1  0
 17 18  1  0
 18 19  2  0
 19 20  1  0
 19 35  1  0
 20 21  1  0
 20 33  1  0
 21 22  2  0
 21 23  1  0
 23 24  1  0
 24 25  1  1
 24 33  1  0
 25 26  1  0
 25 31  1  0
 26 27  1  0
 27 28  1  0
 28 29  1  0
 29 30  1  0
 30 31  1  0
 31 32  2  0
 33 34  2  0
 35 36  2  0
M  CHG  1  28   1
M  END
