
     RDKit          3D

 36 37  0  0  0  0  0  0  0  0999 V2000
    5.4690    3.0730   -2.4160 C   0  0  0  0  0  0  0  0  0  0  0  0
    4.7260    3.1660   -1.0940 C   0  0  0  0  0  0  0  0  0  0  0  0
    4.0630    2.0000   -0.7740 O   0  0  0  0  0  0  0  0  0  0  0  0
    4.9300    0.9150   -0.6610 C   0  0  0  0  0  0  0  0  0  0  0  0
    4.1320   -0.3580   -0.3020 C   0  0  2  0  0  0  0  0  0  0  0  0
    5.1760   -1.3200   -0.2380 O   0  0  0  0  0  0  0  0  0  0  0  0
    3.2520   -0.6530   -1.4530 C   0  0  0  0  0  0  0  0  0  0  0  0
    1.9240   -1.2270   -1.2280 C   0  0  0  0  0  0  0  0  0  0  0  0
    1.4700   -1.4880    0.1620 C   0  0  2  0  0  0  0  0  0  0  0  0
    2.0070   -2.7770    0.6720 C   0  0  0  0  0  0  0  0  0  0  0  0
    1.6230   -3.9980   -0.1260 C   0  0  0  0  0  0  0  0  0  0  0  0
   -0.0330   -1.4750    0.2880 C   0  0  2  0  0  0  0  0  0  0  0  0
   -0.5800   -2.2390    1.4530 C   0  0  0  0  0  0  0  0  0  0  0  0
   -0.8130   -1.8770   -0.9160 C   0  0  0  0  0  0  0  0  0  0  0  0
   -1.8790   -2.8240   -0.6880 N   0  0  0  0  0  0  0  0  0  0  0  0
   -3.0990   -2.6010   -0.0050 C   0  0  0  0  0  0  0  0  0  0  0  0
   -3.5650   -3.6760    0.5440 O   0  0  0  0  0  0  0  0  0  0  0  0
   -3.7230   -1.4390    0.0870 O   0  0  0  0  0  0  0  0  0  0  0  0
   -4.4410   -0.5420   -0.6580 C   0  0  1  0  0  0  0  0  0  0  0  0
   -4.0900   -0.4590   -2.1190 C   0  0  0  0  0  0  0  0  0  0  0  0
   -5.9100   -0.9360   -0.5950 C   0  0  0  0  0  0  0  0  0  0  0  0
   -4.3920    0.8760   -0.0050 C   0  0  2  0  0  0  0  0  0  0  0  0
   -5.5120    0.9180    1.0650 C   0  0  0  0  0  0  0  0  0  0  0  0
   -4.7550    1.9200   -0.9830 C   0  0  0  0  0  0  0  0  0  0  0  0
   -3.1280    0.9760    0.7440 C   0  0  0  0  0  0  0  0  0  0  0  0
   -2.2740    2.1790    0.6290 C   0  0  2  0  0  0  0  0  0  0  0  0
   -1.5810    2.2340   -0.6690 C   0  0  0  0  0  0  0  0  0  0  0  0
   -0.7960    3.3960   -0.7180 O   0  0  0  0  0  0  0  0  0  0  0  0
   -1.4250    2.3000    1.8360 C   0  0  0  0  0  0  0  0  0  0  0  0
   -0.1580    2.2670    2.0320 C   0  0  0  0  0  0  0  0  0  0  0  0
    0.9930    2.0950    1.1590 C   0  0  0  0  0  0  0  0  0  0  0  0
    1.7540    3.1500    0.9400 O   0  0  0  0  0  0  0  0  0  0  0  0
    1.4490    0.9480    0.4840 N   0  0  0  0  0  0  0  0  0  0  0  0
    1.9690   -0.3000    1.0060 C   0  0  2  0  0  0  0  0  0  0  0  0
    3.4790   -0.1950    1.0190 C   0  0  1  0  0  0  0  0  0  0  0  0
    4.1280   -1.0210    2.1080 C   0  0  0  0  0  0  0  0  0  0  0  0
  1  2  1  0
  2  3  1  0
  3  4  1  0
  4  5  1  0
  5  6  1  1
  5  7  1  0
  5 35  1  0
  7  8  1  0
  8  9  1  0
  9 10  1  1
  9 12  1  0
  9 34  1  0
 10 11  1  0
 12 13  1  1
 12 14  1  0
 14 15  1  0
 15 16  1  0
 16 17  2  0
 16 18  1  0
 18 19  1  0
 19 20  1  6
 19 21  1  0
 19 22  1  0
 22 23  1  1
 22 24  1  0
 22 25  1  0
 25 26  1  0
 26 27  1  6
 26 29  1  0
 27 28  1  0
 29 30  2  0
 30 31  1  0
 31 32  2  0
 31 33  1  0
 34 33  1  6
 34 35  1  0
 35 36  1  1
M  END
