
     RDKit          3D

 36 38  0  0  0  0  0  0  0  0999 V2000
   -7.3950   -2.9820    1.4520 C   0  0  0  0  0  0  0  0  0  0  0  0
   -6.2600   -2.0950    1.0040 C   0  0  0  0  0  0  0  0  0  0  0  0
   -6.3420   -1.4120   -0.0830 C   0  0  0  0  0  0  0  0  0  0  0  0
   -7.6170   -1.5410   -0.8770 C   0  0  0  0  0  0  0  0  0  0  0  0
   -5.3070   -0.5200   -0.6480 C   0  0  0  0  0  0  0  0  0  0  0  0
   -5.6170    0.0900   -1.7750 C   0  0  0  0  0  0  0  0  0  0  0  0
   -4.9010    1.0070   -2.6070 C   0  0  0  0  0  0  0  0  0  0  0  0
   -5.4970    1.4750   -3.7460 C   0  0  0  0  0  0  0  0  0  0  0  0
   -4.8350    2.3550   -4.5630 O   0  0  0  0  0  0  0  0  0  0  0  0
   -3.6340    1.5000   -2.3980 O   0  0  0  0  0  0  0  0  0  0  0  0
   -3.4180    2.8770   -2.0740 C   0  0  0  0  0  0  0  0  0  0  0  0
   -4.0080   -0.3020   -0.0140 C   0  0  1  0  0  0  0  0  0  0  0  0
   -4.0870    0.4590    1.3130 C   0  0  0  0  0  0  0  0  0  0  0  0
   -2.6960    1.0970    1.4630 C   0  0  1  0  0  0  0  0  0  0  0  0
   -2.6150    1.8800    2.7550 C   0  0  0  0  0  0  0  0  0  0  0  0
   -1.6450    0.0230    1.5220 C   0  0  0  0  0  0  0  0  0  0  0  0
   -1.6940   -0.9360    0.3420 C   0  0  1  0  0  0  0  0  0  0  0  0
   -1.2960   -0.2460   -0.7770 O   0  0  0  0  0  0  0  0  0  0  0  0
   -0.7360   -2.0410    0.6430 C   0  0  0  0  0  0  0  0  0  0  0  0
    0.6050   -1.6520    0.9390 N   0  0  0  0  0  0  0  0  0  0  0  0
    1.4950   -0.9700    0.0760 C   0  0  0  0  0  0  0  0  0  0  0  0
    1.1570   -0.6550   -1.0760 O   0  0  0  0  0  0  0  0  0  0  0  0
    2.8020   -0.6210    0.4890 N   0  0  0  0  0  0  0  0  0  0  0  0
    3.7630    0.0860   -0.3340 C   0  0  2  0  0  0  0  0  0  0  0  0
    4.9940   -0.7430   -0.4560 C   0  0  0  0  0  0  0  0  0  0  0  0
    6.2670    0.0650   -0.6430 C   0  0  2  0  0  0  0  0  0  0  0  0
    6.9890   -0.5410   -1.8310 C   0  0  0  0  0  0  0  0  0  0  0  0
    8.4270   -0.1620   -1.9350 C   0  0  0  0  0  0  0  0  0  0  0  0
    8.8720    0.7980   -0.8640 C   0  0  0  0  0  0  0  0  0  0  0  0
    8.5370    0.1600    0.4620 C   0  0  0  0  0  0  0  0  0  0  0  0
    7.0740   -0.0690    0.6230 C   0  0  0  0  0  0  0  0  0  0  0  0
    6.0070    1.3840   -0.9750 O   0  0  0  0  0  0  0  0  0  0  0  0
    5.2610    2.0760   -0.0580 C   0  0  0  0  0  0  0  0  0  0  0  0
    3.9890    1.4230    0.3630 C   0  0  2  0  0  0  0  0  0  0  0  0
    3.8760    1.2730    1.7500 O   0  0  0  0  0  0  0  0  0  0  0  0
   -3.1130   -1.4830    0.1430 C   0  0  0  0  0  0  0  0  0  0  0  0
  1  2  1  0
  2  3  2  3
  3  4  1  0
  3  5  1  0
  5  6  2  3
 12  5  1  1
  6  7  1  0
  7  8  2  3
  7 10  1  0
  8  9  1  0
 10 11  1  0
 12 13  1  0
 12 36  1  0
 13 14  1  0
 14 15  1  1
 14 16  1  0
 16 17  1  0
 17 18  1  6
 17 19  1  0
 17 36  1  0
 19 20  1  0
 20 21  1  0
 21 22  2  0
 21 23  1  0
 24 23  1  1
 24 25  1  0
 24 34  1  0
 26 25  1  1
 26 27  1  0
 26 31  1  0
 26 32  1  0
 27 28  1  0
 28 29  1  0
 29 30  1  0
 30 31  1  0
 32 33  1  0
 33 34  1  0
 34 35  1  1
M  END
