
     RDKit          3D

 36 38  0  0  0  0  0  0  0  0999 V2000
   -4.6480    4.6750    0.4760 C   0  0  0  0  0  0  0  0  0  0  0  0
   -5.1230    3.3370    0.2030 N   0  0  0  0  0  0  0  0  0  0  0  0
   -4.3730    2.2220    0.6370 C   0  0  0  0  0  0  0  0  0  0  0  0
   -3.2880    2.4230    1.2620 O   0  0  0  0  0  0  0  0  0  0  0  0
   -4.8080    0.8140    0.3880 C   0  0  1  0  0  0  0  0  0  0  0  0
   -3.8550   -0.1260    0.9410 N   0  0  0  0  0  0  0  0  0  0  0  0
   -2.5090   -0.1960    0.5670 C   0  0  0  0  0  0  0  0  0  0  0  0
   -2.0660    0.5900   -0.3010 O   0  0  0  0  0  0  0  0  0  0  0  0
   -1.5600   -1.1610    1.1460 C   0  0  0  0  0  0  0  0  0  0  0  0
   -1.8480   -2.0270    2.0370 N   0  0  0  0  0  0  0  0  0  0  0  0
   -0.7070   -2.8190    2.3930 C   0  0  2  0  0  0  0  0  0  0  0  0
   -0.3040   -2.6320    3.8430 C   0  0  0  0  0  0  0  0  0  0  0  0
    0.3660   -2.2400    1.5100 C   0  0  0  0  0  0  0  0  0  0  0  0
    1.7210   -2.6550    1.4510 N   0  0  0  0  0  0  0  0  0  0  0  0
    2.6800   -2.0560    0.5920 C   0  0  0  0  0  0  0  0  0  0  0  0
    2.3820   -1.1160   -0.1710 O   0  0  0  0  0  0  0  0  0  0  0  0
    4.0640   -2.5700    0.6130 C   0  0  0  0  0  0  0  0  0  0  0  0
    4.9330   -1.7300   -0.2720 C   0  0  0  0  0  0  0  0  0  0  0  0
    5.0640   -0.3020    0.1170 C   0  0  0  0  0  0  0  0  0  0  0  0
    5.9440    0.3970   -0.8570 C   0  0  0  0  0  0  0  0  0  0  0  0
    5.3270    1.4950   -2.1460 S   0  0  0  0  0  0  0  0  0  0  0  0
    6.9430    1.8780   -2.8180 C   0  0  0  0  0  0  0  0  0  0  0  0
    7.2030    2.7780   -3.9660 C   0  0  0  0  0  0  0  0  0  0  0  0
    7.8160    1.1590   -2.0290 C   0  0  0  0  0  0  0  0  0  0  0  0
    9.7300    1.2950   -2.4290 Br  0  0  0  0  0  0  0  0  0  0  0  0
    7.2860    0.4150   -1.0410 C   0  0  0  0  0  0  0  0  0  0  0  0
    8.1600   -0.4260   -0.0930 C   0  0  0  0  0  0  0  0  0  0  0  0
   -0.1800   -1.3070    0.8300 N   0  0  0  0  0  0  0  0  0  0  0  0
   -6.1160    0.6430    1.1310 C   0  0  0  0  0  0  0  0  0  0  0  0
   -6.8030   -0.6480    0.7590 C   0  0  0  0  0  0  0  0  0  0  0  0
   -7.1790   -0.5670   -0.6730 C   0  0  0  0  0  0  0  0  0  0  0  0
   -8.2300   -1.0770   -1.1310 O   0  0  0  0  0  0  0  0  0  0  0  0
   -6.3040    0.1210   -1.5580 N   0  0  0  0  0  0  0  0  0  0  0  0
   -6.6850    0.3550   -2.9600 C   0  0  0  0  0  0  0  0  0  0  0  0
   -5.0550    0.5750   -1.0540 C   0  0  0  0  0  0  0  0  0  0  0  0
   -4.1330    0.7740   -1.9100 O   0  0  0  0  0  0  0  0  0  0  0  0
  1  2  1  0
  2  3  1  0
  3  4  2  0
  3  5  1  0
  5  6  1  1
  5 29  1  0
  5 35  1  0
  6  7  1  0
  7  8  2  0
  7  9  1  0
  9 10  2  0
  9 28  1  0
 10 11  1  0
 11 12  1  1
 11 13  1  0
 13 14  1  0
 13 28  2  0
 14 15  1  0
 15 16  2  0
 15 17  1  0
 17 18  1  0
 18 19  1  0
 19 20  1  0
 20 21  1  0
 20 26  2  0
 21 22  1  0
 22 23  1  0
 22 24  2  0
 24 25  1  0
 24 26  1  0
 26 27  1  0
 29 30  1  0
 30 31  1  0
 31 32  2  0
 31 33  1  0
 33 34  1  0
 33 35  1  0
 35 36  2  0
M  CHG  1  28   1
M  END
