
     RDKit          3D

 36 38  0  0  0  0  0  0  0  0999 V2000
   -7.0790   -2.7990    0.8010 C   0  0  0  0  0  0  0  0  0  0  0  0
   -6.1950   -3.3980   -0.2440 C   0  0  0  0  0  0  0  0  0  0  0  0
   -6.3990   -4.5640   -0.8000 C   0  0  0  0  0  0  0  0  0  0  0  0
   -5.3380   -4.8350   -1.7810 C   0  0  0  0  0  0  0  0  0  0  0  0
   -4.4910   -3.5990   -1.6770 C   0  0  0  0  0  0  0  0  0  0  0  0
   -4.9790   -2.7570   -0.7880 C   0  0  0  0  0  0  0  0  0  0  0  0
   -4.5040   -1.4780   -0.3710 N   0  0  0  0  0  0  0  0  0  0  0  0
   -3.3440   -0.8490   -0.8770 C   0  0  0  0  0  0  0  0  0  0  0  0
   -2.6750   -1.4420   -1.7520 O   0  0  0  0  0  0  0  0  0  0  0  0
   -2.9170    0.5080   -0.3770 C   0  0  0  0  0  0  0  0  0  0  0  0
   -1.6210    0.8630   -1.0540 C   0  0  1  0  0  0  0  0  0  0  0  0
   -1.1330    2.1530   -0.6570 N   0  0  0  0  0  0  0  0  0  0  0  0
    0.2300    2.3300   -0.9090 C   0  0  0  0  0  0  0  0  0  0  0  0
    0.7850    3.5420   -0.7100 C   0  0  0  0  0  0  0  0  0  0  0  0
   -0.0270    4.6420   -0.2410 C   0  0  0  0  0  0  0  0  0  0  0  0
    0.2710    5.8510    0.0450 C   0  0  0  0  0  0  0  0  0  0  0  0
    1.6040    6.4710   -0.0130 C   0  0  0  0  0  0  0  0  0  0  0  0
    1.7850    7.7100   -0.4350 N   0  0  0  0  0  0  0  0  0  0  0  0
    2.7660    8.3610   -0.4450 N   0  0  0  0  0  0  0  0  0  0  0  0
    3.9670    7.1590    0.2940 S   0  0  0  0  0  0  0  0  0  0  0  0
    2.7560    5.8820    0.4890 C   0  0  0  0  0  0  0  0  0  0  0  0
    3.0610    4.2140    1.3410 Br  0  0  0  0  0  0  0  0  0  0  0  0
    1.1530    1.2790   -1.3750 C   0  0  0  0  0  0  0  0  0  0  0  0
    2.2690    1.5490   -1.8560 O   0  0  0  0  0  0  0  0  0  0  0  0
    0.7070   -0.0690   -1.2540 N   0  0  0  0  0  0  0  0  0  0  0  0
    1.4450   -1.2380   -1.5860 C   0  0  0  0  0  0  0  0  0  0  0  0
    2.1980   -1.8700   -0.5500 N   0  0  0  0  0  0  0  0  0  0  0  0
    3.2630   -1.3550    0.2120 C   0  0  0  0  0  0  0  0  0  0  0  0
    3.6660   -0.2110    0.0250 O   0  0  0  0  0  0  0  0  0  0  0  0
    3.9100   -2.0950    1.2030 O   0  0  0  0  0  0  0  0  0  0  0  0
    4.9860   -1.5280    1.9490 C   0  0  1  0  0  0  0  0  0  0  0  0
    4.5490   -0.2930    2.7030 C   0  0  0  0  0  0  0  0  0  0  0  0
    5.5450   -2.5420    2.8930 C   0  0  0  0  0  0  0  0  0  0  0  0
    6.0510   -1.1280    0.9550 C   0  0  0  0  0  0  0  0  0  0  0  0
   -0.6160   -0.1970   -0.6860 C   0  0  0  0  0  0  0  0  0  0  0  0
   -0.8440   -1.1580    0.0620 O   0  0  0  0  0  0  0  0  0  0  0  0
  1  2  1  0
  2  3  2  0
  2  6  1  0
  3  4  1  0
  4  5  1  0
  5  6  2  0
  6  7  1  0
  7  8  1  0
  8  9  2  0
  8 10  1  0
 11 10  1  1
 11 12  1  0
 11 35  1  0
 12 13  1  0
 13 14  2  3
 13 23  1  0
 14 15  1  0
 15 16  2  3
 16 17  1  0
 17 18  1  0
 17 21  2  0
 18 19  2  0
 19 20  1  0
 20 21  1  0
 21 22  1  0
 23 24  2  0
 23 25  1  0
 25 26  1  0
 25 35  1  0
 26 27  1  0
 27 28  1  0
 28 29  2  0
 28 30  1  0
 30 31  1  0
 31 32  1  1
 31 33  1  0
 31 34  1  0
 35 36  2  0
M  CHG  1  12   1
M  END
