
     RDKit          3D

 36 38  0  0  0  0  0  0  0  0999 V2000
    5.7100    0.1400    3.0500 C   0  0  0  0  0  0  0  0  0  0  0  0
    4.2540    0.3610    2.8690 C   0  0  0  0  0  0  0  0  0  0  0  0
    3.6550    0.1270    1.5230 C   0  0  0  0  0  0  0  0  0  0  0  0
    4.1370    0.9630    0.4280 C   0  0  1  0  0  0  0  0  0  0  0  0
    5.5850    0.7990    0.1490 C   0  0  0  0  0  0  0  0  0  0  0  0
    3.3520    0.8900   -0.8710 C   0  0  1  0  0  0  0  0  0  0  0  0
    4.1150    1.8810   -1.7820 C   0  0  0  0  0  0  0  0  0  0  0  0
    3.5470   -0.4440   -1.4900 C   0  0  0  0  0  0  0  0  0  0  0  0
    3.3080   -0.5720   -2.9500 C   0  0  0  0  0  0  0  0  0  0  0  0
    2.0200   -0.1120   -3.4630 C   0  0  0  0  0  0  0  0  0  0  0  0
    2.0190    0.9150   -4.2230 O   0  0  0  0  0  0  0  0  0  0  0  0
    0.8060   -0.6780   -3.2110 O   0  0  0  0  0  0  0  0  0  0  0  0
    0.5450   -2.0660   -3.1360 C   0  0  0  0  0  0  0  0  0  0  0  0
   -0.6140   -2.2920   -2.1970 C   0  0  0  0  0  0  0  0  0  0  0  0
   -1.5330   -1.1490   -2.1570 C   0  0  0  0  0  0  0  0  0  0  0  0
   -1.8800   -0.2700   -1.2310 C   0  0  0  0  0  0  0  0  0  0  0  0
   -2.8790    0.7290   -1.6290 C   0  0  0  0  0  0  0  0  0  0  0  0
   -4.1740    0.8930   -1.4260 C   0  0  0  0  0  0  0  0  0  0  0  0
   -4.8440    2.1250   -2.0360 C   0  0  0  0  0  0  0  0  0  0  0  0
   -5.1670    0.0550   -0.7770 C   0  0  0  0  0  0  0  0  0  0  0  0
   -5.7270    0.4390    0.5300 C   0  0  0  0  0  0  0  0  0  0  0  0
   -5.1580    0.1430    1.6780 O   0  0  0  0  0  0  0  0  0  0  0  0
   -5.0500   -1.0920    2.2190 C   0  0  0  0  0  0  0  0  0  0  0  0
   -4.0340   -1.1280    3.3390 C   0  0  0  0  0  0  0  0  0  0  0  0
   -2.8740   -1.9440    3.1470 N   0  0  0  0  0  0  0  0  0  0  0  0
   -1.8330   -1.7220    2.2040 C   0  0  0  0  0  0  0  0  0  0  0  0
   -0.7610   -2.3260    2.3000 O   0  0  0  0  0  0  0  0  0  0  0  0
   -2.1160   -0.7570    1.1430 C   0  0  1  0  0  0  0  0  0  0  0  0
   -1.6180    0.5650    1.2580 C   0  0  2  0  0  0  0  0  0  0  0  0
   -2.1590    1.9220    1.1650 C   0  0  0  0  0  0  0  0  0  0  0  0
   -3.1650    2.2630    2.0730 O   0  0  0  0  0  0  0  0  0  0  0  0
   -1.2060   -0.3190    0.1330 C   0  0  2  0  0  0  0  0  0  0  0  0
    0.2810   -0.4580    0.0900 C   0  0  0  0  0  0  0  0  0  0  0  0
    0.9320    0.8710    0.0780 N   0  0  0  0  0  0  0  0  0  0  0  0
    1.9450    1.3340   -0.7370 C   0  0  0  0  0  0  0  0  0  0  0  0
    1.6030    2.3230   -1.5080 O   0  0  0  0  0  0  0  0  0  0  0  0
  1  2  1  0
  2  3  1  0
  3  4  1  0
  4  5  1  6
  4  6  1  0
  6  7  1  6
  6  8  1  0
  6 35  1  0
  8  9  1  0
  9 10  1  0
 10 11  2  0
 10 12  1  0
 12 13  1  0
 13 14  1  0
 14 15  1  0
 15 16  2  0
 16 17  1  0
 16 32  1  0
 17 18  2  0
 18 19  1  0
 18 20  1  0
 20 21  1  0
 21 22  1  0
 22 23  1  0
 23 24  1  0
 24 25  1  0
 25 26  1  0
 26 27  2  0
 28 26  1  1
 28 29  1  0
 28 32  1  0
 29 30  1  6
 29 32  1  0
 30 31  1  0
 32 33  1  6
 33 34  1  0
 34 35  1  0
 35 36  2  0
M  END
