
     RDKit          3D

 20 21  0  0  0  0  0  0  0  0999 V2000
   -1.0820    0.9680    1.4070 O   0  0  0  0  0  0  0  0  0  0  0  0
   -2.0990    0.5700    0.7340 C   0  0  0  0  0  0  0  0  0  0  0  0
   -3.3850    0.8050    1.2440 N   0  0  0  0  0  0  0  0  0  0  0  0
   -4.3990    1.2360    0.2200 C   0  0  0  0  0  0  0  0  0  0  0  0
   -4.2400    0.6150   -1.0950 C   0  0  2  0  0  0  0  0  0  0  0  0
   -5.4460   -0.0140   -1.5100 O   0  0  0  0  0  0  0  0  0  0  0  0
   -3.1020   -0.2550   -1.3690 C   0  0  0  0  0  0  0  0  0  0  0  0
   -1.9530   -0.1200   -0.5420 N   0  0  0  0  0  0  0  0  0  0  0  0
   -0.6830   -0.3470   -0.9820 C   0  0  0  0  0  0  0  0  0  0  0  0
   -0.3260   -0.2200   -2.2080 O   0  0  0  0  0  0  0  0  0  0  0  0
    0.3860   -0.7710   -0.0850 C   0  0  0  0  0  0  0  0  0  0  0  0
    0.3810   -1.2210    1.1230 C   0  0  0  0  0  0  0  0  0  0  0  0
    1.7170   -1.4920    1.6380 O   0  0  0  0  0  0  0  0  0  0  0  0
    2.5130   -0.7860    0.7310 C   0  0  1  0  0  0  0  0  0  0  0  0
    3.9530   -1.2170    0.3890 C   0  0  0  0  0  0  0  0  0  0  0  0
    4.8030   -0.2540    0.9970 O   0  0  0  0  0  0  0  0  0  0  0  0
    5.6900    0.5060   -0.2240 P   0  0  0  0  0  0  0  0  0  0  0  0
    7.2110    0.1270   -0.7420 O   0  0  0  0  0  0  0  0  0  0  0  0
    5.3830    2.2720   -0.1540 O   0  0  0  0  0  0  0  0  0  0  0  0
    1.7390   -0.7560   -0.4340 O   0  0  0  0  0  0  0  0  0  0  0  0
  1  2  2  0
  2  3  1  0
  2  8  1  0
  3  4  1  0
  4  5  1  0
  5  6  1  1
  5  7  1  0
  7  8  1  0
  8  9  1  0
  9 10  2  0
  9 11  1  0
 11 12  2  0
 11 20  1  0
 12 13  1  0
 13 14  1  0
 14 15  1  6
 14 20  1  0
 15 16  1  0
 16 17  1  0
 17 18  1  0
 17 19  1  0
M  END
