
     RDKit          3D

 21 22  0  0  0  0  0  0  0  0999 V2000
    7.0460   -0.8080   -1.3080 O   0  0  0  0  0  0  0  0  0  0  0  0
    5.6190   -0.1740   -1.6130 P   0  0  0  0  0  0  0  0  0  0  0  0
    4.6970    0.1780   -0.1950 O   0  0  0  0  0  0  0  0  0  0  0  0
    3.3130    0.4300   -0.4910 C   0  0  0  0  0  0  0  0  0  0  0  0
    2.7520   -0.6390    0.4530 C   0  0  0  0  0  0  0  0  0  0  0  0
    1.3360   -0.6510    0.6130 N   0  0  0  0  0  0  0  0  0  0  0  0
    0.9190   -1.2370    1.8460 C   0  0  0  0  0  0  0  0  0  0  0  0
    1.6940   -1.9790    2.4880 O   0  0  0  0  0  0  0  0  0  0  0  0
   -0.3420   -1.0270    2.3820 O   0  0  0  0  0  0  0  0  0  0  0  0
   -1.1880   -0.2060    1.6590 C   0  0  0  0  0  0  0  0  0  0  0  0
   -2.1590    0.2840    2.2520 O   0  0  0  0  0  0  0  0  0  0  0  0
   -0.9790    0.1370    0.2340 C   0  0  2  0  0  0  0  0  0  0  0  0
   -1.6060    1.4490   -0.1280 C   0  0  0  0  0  0  0  0  0  0  0  0
   -2.5610    1.2410   -1.1110 O   0  0  0  0  0  0  0  0  0  0  0  0
   -2.8410   -0.0720   -1.1040 C   0  0  2  0  0  0  0  0  0  0  0  0
   -4.2130   -0.4790   -0.7900 C   0  0  0  0  0  0  0  0  0  0  0  0
   -4.7330   -1.5330   -0.9530 O   0  0  0  0  0  0  0  0  0  0  0  0
   -5.0370    0.5730   -0.2200 O   0  0  0  0  0  0  0  0  0  0  0  0
   -1.7640   -0.8550   -0.5330 N   0  0  0  0  0  0  0  0  0  0  0  0
    0.4670    0.1220   -0.1290 C   0  0  0  0  0  0  0  0  0  0  0  0
    0.8610    0.8170   -1.0850 O   0  0  0  0  0  0  0  0  0  0  0  0
  1  2  2  0
  2  3  1  0
  3  4  1  0
  4  5  1  0
  5  6  1  0
  6  7  1  0
  6 20  1  0
  7  8  2  0
  7  9  1  0
  9 10  1  0
 10 11  2  0
 10 12  1  0
 12 13  1  1
 12 19  1  0
 12 20  1  0
 13 14  1  0
 14 15  1  0
 15 16  1  1
 15 19  1  0
 16 17  2  0
 16 18  1  0
 20 21  2  0
M  END
