
     RDKit          3D

 20 21  0  0  0  0  0  0  0  0999 V2000
    5.1840   -0.6240   -3.7240 O   0  0  0  0  0  0  0  0  0  0  0  0
    4.6520   -0.4700   -2.5950 C   0  0  0  0  0  0  0  0  0  0  0  0
    4.4860    0.7430   -1.8560 N   0  0  0  0  0  0  0  0  0  0  0  0
    3.4430    0.5760   -0.8660 C   0  0  0  0  0  0  0  0  0  0  0  0
    3.2750   -0.9290   -0.8070 C   0  0  1  0  0  0  0  0  0  0  0  0
    1.8580   -1.3000   -1.0570 C   0  0  0  0  0  0  0  0  0  0  0  0
    1.5690   -2.0040   -2.0580 O   0  0  0  0  0  0  0  0  0  0  0  0
    0.8200   -0.9090   -0.2380 O   0  0  0  0  0  0  0  0  0  0  0  0
   -0.5260   -1.2460   -0.4520 C   0  0  1  0  0  0  0  0  0  0  0  0
   -1.1280   -2.0460    0.6150 C   0  0  0  0  0  0  0  0  0  0  0  0
   -0.9100   -3.2380    0.8500 O   0  0  0  0  0  0  0  0  0  0  0  0
   -2.0550   -1.1760    1.3730 C   0  0  0  0  0  0  0  0  0  0  0  0
   -2.4310   -0.1420    0.4180 N   0  0  0  0  0  0  0  0  0  0  0  0
   -3.6290    0.6610    0.5210 C   0  0  0  0  0  0  0  0  0  0  0  0
   -3.2000    2.1760    1.5150 P   0  0  0  0  0  0  0  0  0  0  0  0
   -4.5800    3.2520    1.5620 O   0  0  0  0  0  0  0  0  0  0  0  0
   -2.7470    1.7600    3.1320 O   0  0  0  0  0  0  0  0  0  0  0  0
   -1.4210   -0.0950   -0.5840 C   0  0  0  0  0  0  0  0  0  0  0  0
   -1.3870    0.8580   -1.4330 O   0  0  0  0  0  0  0  0  0  0  0  0
    4.0970   -1.4660   -1.8000 O   0  0  0  0  0  0  0  0  0  0  0  0
  1  2  2  0
  2  3  1  0
  2 20  1  0
  3  4  1  0
  4  5  1  0
  5  6  1  6
  5 20  1  0
  6  7  2  0
  6  8  1  0
  9  8  1  1
  9 10  1  0
  9 18  1  0
 10 11  2  0
 10 12  1  0
 12 13  1  0
 13 14  1  0
 13 18  1  0
 14 15  1  0
 15 16  1  0
 15 17  1  0
 18 19  2  0
M  END
