
     RDKit          3D

 21 21  0  0  0  0  0  0  0  0999 V2000
    0.7770   -2.5870   -0.0240 O   0  0  0  0  0  0  0  0  0  0  0  0
    0.8180   -1.3390   -0.1490 C   0  0  0  0  0  0  0  0  0  0  0  0
    2.1010   -0.7270   -0.1620 N   0  0  0  0  0  0  0  0  0  0  0  0
    3.3110   -1.5540   -0.0310 C   0  0  0  0  0  0  0  0  0  0  0  0
    4.5490   -0.7200   -0.0680 C   0  0  0  0  0  0  0  0  0  0  0  0
    4.4950    0.1840    0.9920 O   0  0  0  0  0  0  0  0  0  0  0  0
    5.9480    1.1360    0.9180 P   0  0  0  0  0  0  0  0  0  0  0  0
    5.5770    2.7420    1.4650 O   0  0  0  0  0  0  0  0  0  0  0  0
    7.1420    0.4200    1.9270 O   0  0  0  0  0  0  0  0  0  0  0  0
   -0.3920   -0.6110   -0.2680 N   0  0  0  0  0  0  0  0  0  0  0  0
   -1.7010   -1.2080   -0.2580 C   0  0  2  0  0  0  0  0  0  0  0  0
   -2.4580   -1.0070   -1.5380 C   0  0  0  0  0  0  0  0  0  0  0  0
   -3.7980   -1.2250   -1.2940 O   0  0  0  0  0  0  0  0  0  0  0  0
   -4.5600   -0.0980   -1.1600 C   0  0  0  0  0  0  0  0  0  0  0  0
   -3.9250    1.0170   -0.3900 C   0  0  1  0  0  0  0  0  0  0  0  0
   -3.2370    1.9220   -1.2320 O   0  0  0  0  0  0  0  0  0  0  0  0
   -4.9770    1.7770    0.1560 O   0  0  0  0  0  0  0  0  0  0  0  0
   -4.5180    2.7840    0.8530 O   0  0  0  0  0  0  0  0  0  0  0  0
   -3.0890    0.5640    0.7260 C   0  0  0  0  0  0  0  0  0  0  0  0
   -2.8130    1.3670    1.6000 O   0  0  0  0  0  0  0  0  0  0  0  0
   -2.5070   -0.7740    0.9600 C   0  0  0  0  0  0  0  0  0  0  0  0
  1  2  2  0
  2  3  1  0
  2 10  1  0
  3  4  1  0
  4  5  1  0
  5  6  1  0
  6  7  1  0
  7  8  1  0
  7  9  1  0
 11 10  1  6
 11 12  1  0
 11 21  1  0
 12 13  1  0
 13 14  1  0
 14 15  1  0
 15 16  1  6
 15 17  1  0
 15 19  1  0
 17 18  1  0
 19 20  2  0
 19 21  1  0
M  END
