
     RDKit          3D

 27 29  0  0  0  0  0  0  0  0999 V2000
    7.6270    0.6240   -1.4520 N   0  0  0  0  0  0  0  0  0  0  0  0
    6.6470    0.2650   -0.4930 C   0  0  0  0  0  0  0  0  0  0  0  0
    7.0430    0.0400    0.7820 N   0  0  0  0  0  0  0  0  0  0  0  0
    6.1440   -0.3040    1.7290 C   0  0  0  0  0  0  0  0  0  0  0  0
    4.8290   -0.4320    1.4220 N   0  0  0  0  0  0  0  0  0  0  0  0
    4.3770   -0.2210    0.1700 C   0  0  0  0  0  0  0  0  0  0  0  0
    5.3080    0.1290   -0.7780 C   0  0  0  0  0  0  0  0  0  0  0  0
    4.6400    0.2840   -1.9220 N   0  0  0  0  0  0  0  0  0  0  0  0
    3.3370    0.0380   -1.6910 C   0  0  0  0  0  0  0  0  0  0  0  0
    3.1550   -0.2750   -0.4060 N   0  0  0  0  0  0  0  0  0  0  0  0
    1.9500   -0.6150    0.3170 C   0  0  2  0  0  0  0  0  0  0  0  0
    0.8710   -0.7820   -0.5160 O   0  0  0  0  0  0  0  0  0  0  0  0
   -0.2470   -0.4280    0.2430 C   0  0  2  0  0  0  0  0  0  0  0  0
   -1.4710   -0.2250   -0.5990 C   0  0  0  0  0  0  0  0  0  0  0  0
   -2.5180    0.1180    0.2170 O   0  0  0  0  0  0  0  0  0  0  0  0
   -3.9150    0.3650   -0.6120 P   0  0  0  0  0  0  0  0  0  0  0  0
   -4.2150   -0.4300   -2.0210 O   0  0  0  0  0  0  0  0  0  0  0  0
   -4.9690    1.5560   -0.1280 O   0  0  0  0  0  0  0  0  0  0  0  0
   -4.6900   -0.6410    0.2140 O   0  0  0  0  0  0  0  0  0  0  0  0
   -6.3010   -0.9500    0.1080 P   0  0  0  0  0  0  0  0  0  0  0  0
   -6.3420   -0.5550   -1.3620 O   0  0  0  0  0  0  0  0  0  0  0  0
   -7.4340    0.0860    0.6590 O   0  0  0  0  0  0  0  0  0  0  0  0
   -6.8210   -2.4920   -0.3430 O   0  0  0  0  0  0  0  0  0  0  0  0
    0.2290    0.9080    0.8290 C   0  0  1  0  0  0  0  0  0  0  0  0
   -0.5460    1.3170    1.8860 O   0  0  0  0  0  0  0  0  0  0  0  0
    1.6440    0.5190    1.2590 C   0  0  1  0  0  0  0  0  0  0  0  0
    1.5720    0.0080    2.5420 O   0  0  0  0  0  0  0  0  0  0  0  0
  1  2  1  0
  2  3  2  0
  2  7  1  0
  3  4  1  0
  4  5  2  0
  5  6  1  0
  6  7  2  0
  6 10  1  0
  7  8  1  0
  8  9  2  0
  9 10  1  0
 11 10  1  6
 11 12  1  0
 11 26  1  0
 12 13  1  0
 13 14  1  6
 13 24  1  0
 14 15  1  0
 15 16  1  0
 16 17  1  0
 16 18  1  0
 16 19  1  0
 19 20  1  0
 20 21  1  0
 20 22  1  0
 20 23  1  0
 24 25  1  1
 24 26  1  0
 26 27  1  1
M  END
