
     RDKit          3D

 20 20  0  0  0  0  0  0  0  0999 V2000
   -2.5150    1.5270   -0.7560 N   0  0  0  0  0  0  0  0  0  0  0  0
   -2.3960    0.1680   -1.2230 C   0  0  2  0  0  0  0  0  0  0  0  0
   -3.7300   -0.5240   -1.3620 C   0  0  0  0  0  0  0  0  0  0  0  0
   -4.7240    0.2840   -0.8100 O   0  0  0  0  0  0  0  0  0  0  0  0
   -4.5330    0.5320    0.8590 P   0  0  0  0  0  0  0  0  0  0  0  0
   -5.7190   -0.1790    1.8470 O   0  0  0  0  0  0  0  0  0  0  0  0
   -2.9440    0.4400    1.4420 O   0  0  0  0  0  0  0  0  0  0  0  0
   -2.2540   -0.7010    1.1120 C   0  0  0  0  0  0  0  0  0  0  0  0
   -1.5650   -0.6030   -0.2340 C   0  0  1  0  0  0  0  0  0  0  0  0
   -1.3390   -1.8740   -0.7490 O   0  0  0  0  0  0  0  0  0  0  0  0
   -0.2250    0.0630   -0.1070 C   0  0  0  0  0  0  0  0  0  0  0  0
   -0.1500    1.2350    0.3400 O   0  0  0  0  0  0  0  0  0  0  0  0
    0.9630   -0.6040   -0.4810 N   0  0  0  0  0  0  0  0  0  0  0  0
    2.2970    0.0050   -0.3680 C   0  0  0  0  0  0  0  0  0  0  0  0
    2.6330    0.3370    1.0420 C   0  0  0  0  0  0  0  0  0  0  0  0
    3.9340    1.0070    1.3020 C   0  0  0  0  0  0  0  0  0  0  0  0
    5.1060    0.4280    0.9350 O   0  0  0  0  0  0  0  0  0  0  0  0
    5.5900    0.2570   -0.3180 C   0  0  0  0  0  0  0  0  0  0  0  0
    4.9610    0.6650   -1.3160 O   0  0  0  0  0  0  0  0  0  0  0  0
    6.8080   -0.3770   -0.5980 O   0  0  0  0  0  0  0  0  0  0  0  0
  2  1  1  1
  2  3  1  0
  2  9  1  0
  3  4  1  0
  4  5  1  0
  5  6  1  0
  5  7  1  0
  7  8  1  0
  8  9  1  0
  9 10  1  6
  9 11  1  0
 11 12  2  0
 11 13  1  0
 13 14  1  0
 14 15  1  0
 15 16  1  0
 16 17  1  0
 17 18  1  0
 18 19  2  0
 18 20  1  0
M  END
