
     RDKit          3D

 17 18  0  0  0  0  0  0  0  0999 V2000
    5.1610   -0.6920    0.0590 C   0  0  0  0  0  0  0  0  0  0  0  0
    3.6980   -0.4810    0.1860 C   0  0  0  0  0  0  0  0  0  0  0  0
    3.0930   -0.2940    1.4090 C   0  0  0  0  0  0  0  0  0  0  0  0
    1.7180   -0.0980    1.5190 C   0  0  0  0  0  0  0  0  0  0  0  0
    1.2090    0.0240    2.7580 F   0  0  0  0  0  0  0  0  0  0  0  0
    0.8870   -0.0790    0.3910 C   0  0  0  0  0  0  0  0  0  0  0  0
   -0.5140    0.2320    0.4960 C   0  0  0  0  0  0  0  0  0  0  0  0
   -0.9350    0.9730    1.5540 C   0  0  0  0  0  0  0  0  0  0  0  0
   -2.3600    1.3380    1.7410 C   0  0  0  0  0  0  0  0  0  0  0  0
   -3.1230    1.5800    0.4890 C   0  0  0  0  0  0  0  0  0  0  0  0
   -2.4890    0.9680   -0.7410 C   0  0  0  0  0  0  0  0  0  0  0  0
   -1.6130   -0.2230   -0.3530 C   0  0  2  0  0  0  0  0  0  0  0  0
   -2.5540   -1.1500    0.4410 C   0  0  0  0  0  0  0  0  0  0  0  0
   -1.2970   -0.9040   -1.5670 N   0  0  0  0  0  0  0  0  0  0  0  0
    1.5340   -0.2680   -0.7980 C   0  0  0  0  0  0  0  0  0  0  0  0
    2.9170   -0.4700   -0.9370 C   0  0  0  0  0  0  0  0  0  0  0  0
    3.6650   -0.7080   -2.5080 Cl  0  0  0  0  0  0  0  0  0  0  0  0
  1  2  1  0
  2  3  2  0
  2 16  1  0
  3  4  1  0
  4  5  1  0
  4  6  2  0
  6  7  1  0
  6 15  1  0
  7  8  2  0
  7 12  1  0
  8  9  1  0
  9 10  1  0
 10 11  1  0
 11 12  1  0
 12 13  1  1
 12 14  1  0
 15 16  2  0
 16 17  1  0
M  CHG  1  14   1
M  END
