
     RDKit          3D

 17 18  0  0  0  0  0  0  0  0999 V2000
    3.1510    2.0300    0.3350 C   0  0  0  0  0  0  0  0  0  0  0  0
    3.1500    0.6020    0.7580 C   0  0  2  0  0  0  0  0  0  0  0  0
    4.3650   -0.1490    0.2510 C   0  0  0  0  0  0  0  0  0  0  0  0
    1.8910   -0.1110    0.4620 C   0  0  0  0  0  0  0  0  0  0  0  0
    0.7300    0.4910    0.0300 C   0  0  0  0  0  0  0  0  0  0  0  0
   -0.4400   -0.2360   -0.2250 C   0  0  0  0  0  0  0  0  0  0  0  0
   -0.4170   -1.5800   -0.0360 C   0  0  0  0  0  0  0  0  0  0  0  0
    0.7630   -2.2220    0.4070 C   0  0  0  0  0  0  0  0  0  0  0  0
    0.7340   -3.9640    0.6360 Cl  0  0  0  0  0  0  0  0  0  0  0  0
    1.8930   -1.4820    0.6470 C   0  0  0  0  0  0  0  0  0  0  0  0
    3.0080   -2.1170    1.0680 F   0  0  0  0  0  0  0  0  0  0  0  0
   -1.6150   -2.3940   -0.2870 C   0  0  0  0  0  0  0  0  0  0  0  0
   -2.8480   -1.6960   -0.6600 C   0  0  0  0  0  0  0  0  0  0  0  0
   -2.6990   -0.3390   -1.2580 C   0  0  0  0  0  0  0  0  0  0  0  0
   -1.6080    0.4880   -0.6800 C   0  0  1  0  0  0  0  0  0  0  0  0
   -2.1340    1.4100    0.4310 C   0  0  0  0  0  0  0  0  0  0  0  0
   -3.3040    2.1540   -0.0020 N   0  0  0  0  0  0  0  0  0  0  0  0
  2  1  1  6
  2  3  1  0
  2  4  1  0
  4  5  2  0
  4 10  1  0
  5  6  1  0
  6  7  2  0
  6 15  1  0
  7  8  1  0
  7 12  1  0
  8  9  1  0
  8 10  2  0
 10 11  1  0
 12 13  1  0
 13 14  1  0
 14 15  1  0
 15 16  1  1
 16 17  1  0
M  CHG  1  17   1
M  END
