
     RDKit          3D

 17 18  0  0  0  0  0  0  0  0999 V2000
    4.7510   -0.4620    0.2500 C   0  0  0  0  0  0  0  0  0  0  0  0
    3.2600   -0.8240    0.4430 C   0  0  0  0  0  0  0  0  0  0  0  0
    2.4910    0.2650   -0.1420 C   0  0  0  0  0  0  0  0  0  0  0  0
    1.0500    0.2720   -0.1480 C   0  0  0  0  0  0  0  0  0  0  0  0
    0.4540    1.3800   -0.7160 C   0  0  0  0  0  0  0  0  0  0  0  0
   -0.9130    1.5360   -0.7960 C   0  0  0  0  0  0  0  0  0  0  0  0
   -1.4530    2.6860   -1.3800 C   0  0  0  0  0  0  0  0  0  0  0  0
   -2.8090    2.8460   -1.4570 C   0  0  0  0  0  0  0  0  0  0  0  0
   -3.6340    1.8680   -0.9560 C   0  0  0  0  0  0  0  0  0  0  0  0
   -4.9860    1.9530   -0.9940 F   0  0  0  0  0  0  0  0  0  0  0  0
   -3.0730    0.7260   -0.3770 C   0  0  0  0  0  0  0  0  0  0  0  0
   -1.7070    0.5420   -0.2880 C   0  0  0  0  0  0  0  0  0  0  0  0
   -1.1720   -0.6230    0.3080 C   0  0  0  0  0  0  0  0  0  0  0  0
   -2.1410   -1.6000    0.7850 C   0  0  0  0  0  0  0  0  0  0  0  0
   -1.6470   -2.7820    1.4170 N   0  0  0  0  0  0  0  0  0  0  0  0
    0.1920   -0.6950    0.3460 C   0  0  0  0  0  0  0  0  0  0  0  0
    0.9680   -2.0760    1.0500 Cl  0  0  0  0  0  0  0  0  0  0  0  0
  1  2  1  0
  2  3  1  0
  3  4  1  0
  4  5  2  0
  4 16  1  0
  5  6  1  0
  6  7  2  0
  6 12  1  0
  7  8  1  0
  8  9  2  0
  9 10  1  0
  9 11  1  0
 11 12  2  0
 12 13  1  0
 13 14  1  0
 13 16  2  0
 14 15  1  0
 16 17  1  0
M  CHG  1  15   1
M  END
