
     RDKit          3D

 17 18  0  0  0  0  0  0  0  0999 V2000
    3.2620   -1.8350   -0.0230 N   0  0  0  0  0  0  0  0  0  0  0  0
    1.9140   -1.2260   -0.0070 C   0  0  0  0  0  0  0  0  0  0  0  0
    0.9540   -2.0140   -0.5010 C   0  0  0  0  0  0  0  0  0  0  0  0
   -0.3920   -1.6050   -0.3760 C   0  0  0  0  0  0  0  0  0  0  0  0
   -0.6150   -0.3960    0.1890 C   0  0  0  0  0  0  0  0  0  0  0  0
   -2.0780   -0.0720    0.1600 C   0  0  0  0  0  0  0  0  0  0  0  0
   -3.0700   -0.2400    0.8900 C   0  0  0  0  0  0  0  0  0  0  0  0
   -4.4080    0.1220    0.7700 C   0  0  0  0  0  0  0  0  0  0  0  0
   -4.6210    0.8290   -0.4850 C   0  0  0  0  0  0  0  0  0  0  0  0
   -6.1300    1.7110   -0.7050 Cl  0  0  0  0  0  0  0  0  0  0  0  0
   -3.6350    0.9280   -1.2900 C   0  0  0  0  0  0  0  0  0  0  0  0
   -2.3180    0.5690   -1.1610 C   0  0  0  0  0  0  0  0  0  0  0  0
    0.3550    0.4420    0.6790 C   0  0  0  0  0  0  0  0  0  0  0  0
    1.7470   -0.1000    0.5360 C   0  0  0  0  0  0  0  0  0  0  0  0
    2.7230    0.9090    0.9590 C   0  0  0  0  0  0  0  0  0  0  0  0
    3.1140    1.9740    0.0060 C   0  0  0  0  0  0  0  0  0  0  0  0
    3.2370    3.2070    0.7260 F   0  0  0  0  0  0  0  0  0  0  0  0
  1  2  1  0
  2  3  2  0
  2 14  1  0
  3  4  1  0
  4  5  2  0
  5  6  1  0
  5 13  1  0
  6  7  2  0
  6 12  1  0
  7  8  1  0
  8  9  2  0
  9 10  1  0
  9 11  1  0
 11 12  2  0
 13 14  2  0
 14 15  1  0
 15 16  1  0
 16 17  1  0
M  CHG  1   1   1
M  END
