
     RDKit          3D

 17 18  0  0  0  0  0  0  0  0999 V2000
    4.5950   -0.3350    1.6850 C   0  0  0  0  0  0  0  0  0  0  0  0
    3.4560   -0.1980    0.7180 C   0  0  0  0  0  0  0  0  0  0  0  0
    3.6780    0.1250   -0.6050 C   0  0  0  0  0  0  0  0  0  0  0  0
    2.6270    0.2490   -1.4870 C   0  0  0  0  0  0  0  0  0  0  0  0
    1.3100    0.0560   -1.0910 C   0  0  0  0  0  0  0  0  0  0  0  0
    0.2890    0.1880   -1.9980 C   0  0  0  0  0  0  0  0  0  0  0  0
   -1.0080   -0.0130   -1.5630 C   0  0  0  0  0  0  0  0  0  0  0  0
   -2.2490    0.1000   -2.7670 Cl  0  0  0  0  0  0  0  0  0  0  0  0
   -1.3120   -0.3400   -0.2410 C   0  0  0  0  0  0  0  0  0  0  0  0
   -2.6350   -0.4780    0.2920 C   0  0  0  0  0  0  0  0  0  0  0  0
   -2.8740   -1.0700    1.4400 C   0  0  0  0  0  0  0  0  0  0  0  0
   -2.0290   -1.6250    2.2940 F   0  0  0  0  0  0  0  0  0  0  0  0
   -3.8280    0.0910   -0.3960 C   0  0  0  0  0  0  0  0  0  0  0  0
   -3.6380    1.5120   -0.5230 N   0  0  0  0  0  0  0  0  0  0  0  0
   -0.2110   -0.4530    0.6130 C   0  0  0  0  0  0  0  0  0  0  0  0
    1.0860   -0.2660    0.2270 C   0  0  0  0  0  0  0  0  0  0  0  0
    2.1510   -0.3890    1.1110 C   0  0  0  0  0  0  0  0  0  0  0  0
  1  2  1  0
  2  3  2  0
  2 17  1  0
  3  4  1  0
  4  5  2  0
  5  6  1  0
  5 16  1  0
  6  7  2  0
  7  8  1  0
  7  9  1  0
  9 10  1  0
  9 15  2  0
 10 11  2  3
 10 13  1  0
 11 12  1  0
 13 14  1  0
 15 16  1  0
 16 17  2  0
M  CHG  1  14   1
M  END
