
     RDKit          3D

 17 18  0  0  0  0  0  0  0  0999 V2000
    4.8020   -0.5040   -0.2460 C   0  0  0  0  0  0  0  0  0  0  0  0
    3.3270   -0.2460   -0.3000 C   0  0  0  0  0  0  0  0  0  0  0  0
    2.4550   -1.1770   -0.8120 C   0  0  0  0  0  0  0  0  0  0  0  0
    1.1120   -0.8890   -0.8400 C   0  0  0  0  0  0  0  0  0  0  0  0
    0.5530    0.3110   -0.3740 C   0  0  0  0  0  0  0  0  0  0  0  0
   -0.9000    0.4810   -0.3800 C   0  0  0  0  0  0  0  0  0  0  0  0
   -1.3420    1.7120   -0.3870 C   0  0  0  0  0  0  0  0  0  0  0  0
   -2.7510    2.1730   -0.3870 C   0  0  0  0  0  0  0  0  0  0  0  0
   -3.8640    1.4870   -0.2720 C   0  0  0  0  0  0  0  0  0  0  0  0
   -5.0240    2.2220   -0.3110 F   0  0  0  0  0  0  0  0  0  0  0  0
   -3.9880    0.0500   -0.1110 C   0  0  0  0  0  0  0  0  0  0  0  0
   -3.0310   -0.8300   -0.1550 C   0  0  0  0  0  0  0  0  0  0  0  0
   -1.6080   -0.8140   -0.3520 C   0  0  2  0  0  0  0  0  0  0  0  0
   -1.0340   -1.6940    0.6820 N   0  0  0  0  0  0  0  0  0  0  0  0
    1.4480    1.2080    0.1290 C   0  0  0  0  0  0  0  0  0  0  0  0
    0.9800    2.7440    0.8820 Cl  0  0  0  0  0  0  0  0  0  0  0  0
    2.8260    0.9370    0.1670 C   0  0  0  0  0  0  0  0  0  0  0  0
  1  2  1  0
  2  3  2  0
  2 17  1  0
  3  4  1  0
  4  5  2  0
  5  6  1  0
  5 15  1  0
  6  7  2  0
  6 13  1  0
  7  8  1  0
  8  9  2  0
  9 10  1  0
  9 11  1  0
 11 12  2  0
 12 13  1  0
 13 14  1  1
 15 16  1  0
 15 17  2  0
M  CHG  1  14   1
M  END
