
     RDKit          3D

 34 38  0  0  0  0  0  0  0  0999 V2000
   -6.7990   -1.4670    2.6960 C   0  0  0  0  0  0  0  0  0  0  0  0
   -5.6590   -1.2150    1.7750 C   0  0  0  0  0  0  0  0  0  0  0  0
   -5.9240   -0.9590    0.4380 C   0  0  0  0  0  0  0  0  0  0  0  0
   -4.8710   -0.7150   -0.4450 C   0  0  0  0  0  0  0  0  0  0  0  0
   -3.5780   -0.7330    0.0300 C   0  0  0  0  0  0  0  0  0  0  0  0
   -3.2920   -0.9900    1.3700 C   0  0  0  0  0  0  0  0  0  0  0  0
   -4.3490   -1.2240    2.2080 C   0  0  0  0  0  0  0  0  0  0  0  0
   -4.0230   -1.5420    3.8790 Cl  0  0  0  0  0  0  0  0  0  0  0  0
   -2.5260   -0.5050   -0.8960 N   0  0  0  0  0  0  0  0  0  0  0  0
   -1.4370    0.3030   -0.5850 C   0  0  0  0  0  0  0  0  0  0  0  0
   -0.3540    0.1840   -1.2370 O   0  0  0  0  0  0  0  0  0  0  0  0
   -1.4520    1.3200    0.4700 C   0  0  0  0  0  0  0  0  0  0  0  0
   -2.8240    1.8090    1.4200 S   0  0  0  0  0  0  0  0  0  0  0  0
   -1.8870    3.0440    2.4130 N   0  0  0  0  0  0  0  0  0  0  0  0
   -0.6280    2.9490    1.9110 C   0  0  0  0  0  0  0  0  0  0  0  0
   -0.3990    2.0750    0.9230 C   0  0  0  0  0  0  0  0  0  0  0  0
    0.9250    1.8710    0.2990 N   0  0  0  0  0  0  0  0  0  0  0  0
    1.3910    2.7260   -0.7220 C   0  0  0  0  0  0  0  0  0  0  0  0
    0.6230    3.6710   -1.0660 O   0  0  0  0  0  0  0  0  0  0  0  0
    2.7000    2.5700   -1.3860 C   0  0  0  0  0  0  0  0  0  0  0  0
    3.4670    1.4290   -0.8530 C   0  0  0  0  0  0  0  0  0  0  0  0
    3.0150    0.6400    0.1030 C   0  0  0  0  0  0  0  0  0  0  0  0
    3.8140   -0.4890    0.6020 C   0  0  0  0  0  0  0  0  0  0  0  0
    5.2070   -0.6100    0.1370 C   0  0  2  0  0  0  0  0  0  0  0  0
    5.3870   -1.7530   -0.8710 C   0  0  0  0  0  0  0  0  0  0  0  0
    6.0480   -1.0270    1.3610 C   0  0  0  0  0  0  0  0  0  0  0  0
    5.8120    0.6060   -0.5080 C   0  0  0  0  0  0  0  0  0  0  0  0
    4.8040    1.1730   -1.4360 C   0  0  0  0  0  0  0  0  0  0  0  0
    4.9930    1.4420   -2.6330 O   0  0  0  0  0  0  0  0  0  0  0  0
    1.7210    0.8230    0.7250 N   0  0  0  0  0  0  0  0  0  0  0  0
    1.2640   -0.0690    1.7750 C   0  0  0  0  0  0  0  0  0  0  0  0
   -2.6070   -1.0990   -2.2360 C   0  0  0  0  0  0  0  0  0  0  0  0
   -4.0030   -0.9900   -2.7870 C   0  0  0  0  0  0  0  0  0  0  0  0
   -5.0350   -0.4440   -1.8770 C   0  0  0  0  0  0  0  0  0  0  0  0
  1  2  1  0
  2  3  2  0
  2  7  1  0
  3  4  1  0
  4  5  2  0
  4 34  1  0
  5  6  1  0
  5  9  1  0
  6  7  2  0
  7  8  1  0
  9 10  1  0
  9 32  1  0
 10 11  2  0
 10 12  1  0
 12 13  1  0
 12 16  2  0
 13 14  1  0
 14 15  2  0
 15 16  1  0
 16 17  1  0
 17 18  1  0
 17 30  1  0
 18 19  2  0
 18 20  1  0
 20 21  1  0
 21 22  2  0
 21 28  1  0
 22 23  1  0
 22 30  1  0
 23 24  1  0
 24 25  1  6
 24 26  1  0
 24 27  1  0
 27 28  1  0
 28 29  2  0
 30 31  1  0
 32 33  1  0
 33 34  1  0
M  END
