
     RDKit          3D

 34 38  0  0  0  0  0  0  0  0999 V2000
   -6.5690   -0.8010   -0.9940 C   0  0  0  0  0  0  0  0  0  0  0  0
   -6.5110   -0.9570    0.4960 C   0  0  2  0  0  0  0  0  0  0  0  0
   -7.7410   -1.5300    1.1120 C   0  0  0  0  0  0  0  0  0  0  0  0
   -6.2240    0.4290    1.0970 C   0  0  0  0  0  0  0  0  0  0  0  0
   -4.8090    0.6390    0.7020 C   0  0  0  0  0  0  0  0  0  0  0  0
   -4.0440    1.7720    0.4470 C   0  0  0  0  0  0  0  0  0  0  0  0
   -2.7170    1.7060    0.0920 C   0  0  0  0  0  0  0  0  0  0  0  0
   -1.8270    3.1970   -0.2050 Cl  0  0  0  0  0  0  0  0  0  0  0  0
   -2.1260    0.4710   -0.0140 C   0  0  0  0  0  0  0  0  0  0  0  0
   -0.7850    0.3220   -0.3820 N   0  0  0  0  0  0  0  0  0  0  0  0
   -0.5110   -0.4640   -1.4690 C   0  0  0  0  0  0  0  0  0  0  0  0
    0.7930   -0.6510   -1.8380 C   0  0  0  0  0  0  0  0  0  0  0  0
    1.8250   -0.0510   -1.1190 C   0  0  0  0  0  0  0  0  0  0  0  0
    3.1390   -0.2440   -1.4770 C   0  0  0  0  0  0  0  0  0  0  0  0
    3.4020   -0.9530   -2.4600 O   0  0  0  0  0  0  0  0  0  0  0  0
    4.0920    0.3720   -0.7100 N   0  0  0  0  0  0  0  0  0  0  0  0
    5.4450    0.1950   -1.1320 C   0  0  0  0  0  0  0  0  0  0  0  0
    5.9350   -1.0690   -1.3350 C   0  0  0  0  0  0  0  0  0  0  0  0
    7.2310   -1.3040   -1.7770 C   0  0  0  0  0  0  0  0  0  0  0  0
    8.0580   -0.2300   -2.0200 C   0  0  0  0  0  0  0  0  0  0  0  0
    7.5550    1.0320   -1.8110 C   0  0  0  0  0  0  0  0  0  0  0  0
    6.2750    1.2400   -1.3750 N   0  0  0  0  0  0  0  0  0  0  0  0
    3.8020    1.1220    0.3310 C   0  0  0  0  0  0  0  0  0  0  0  0
    5.1060    1.8130    1.3450 S   0  0  0  0  0  0  0  0  0  0  0  0
    5.3510    0.7320    2.7620 C   0  0  0  0  0  0  0  0  0  0  0  0
    5.8480   -0.6150    2.4410 C   0  0  0  0  0  0  0  0  0  0  0  0
    5.9730   -1.4220    3.3830 O   0  0  0  0  0  0  0  0  0  0  0  0
    2.4920    1.3140    0.6850 N   0  0  0  0  0  0  0  0  0  0  0  0
    1.5050    0.7330   -0.0320 C   0  0  0  0  0  0  0  0  0  0  0  0
    0.1780    0.9150    0.3320 C   0  0  0  0  0  0  0  0  0  0  0  0
   -0.0400    1.6450    1.3350 O   0  0  0  0  0  0  0  0  0  0  0  0
   -2.8940   -0.6600    0.2420 C   0  0  0  0  0  0  0  0  0  0  0  0
   -4.2150   -0.5920    0.5950 C   0  0  0  0  0  0  0  0  0  0  0  0
   -5.2290   -1.6650    0.9160 C   0  0  0  0  0  0  0  0  0  0  0  0
  2  1  1  6
  2  3  1  0
  2  4  1  0
  2 34  1  0
  4  5  1  0
  5  6  2  0
  5 33  1  0
  6  7  1  0
  7  8  1  0
  7  9  2  0
  9 10  1  0
  9 32  1  0
 10 11  1  0
 10 30  1  0
 11 12  2  0
 12 13  1  0
 13 14  1  0
 13 29  2  0
 14 15  2  0
 14 16  1  0
 16 17  1  0
 16 23  1  0
 17 18  2  0
 17 22  1  0
 18 19  1  0
 19 20  2  0
 20 21  1  0
 21 22  2  0
 23 24  1  0
 23 28  2  0
 24 25  1  0
 25 26  1  0
 26 27  2  0
 28 29  1  0
 29 30  1  0
 30 31  2  0
 32 33  2  0
 33 34  1  0
M  END
