
     RDKit          3D

 34 38  0  0  0  0  0  0  0  0999 V2000
   -4.7710    5.6520   -0.2090 C   0  0  0  0  0  0  0  0  0  0  0  0
   -4.9310    4.2240   -0.5320 C   0  0  0  0  0  0  0  0  0  0  0  0
   -5.4800    3.8740   -1.5940 O   0  0  0  0  0  0  0  0  0  0  0  0
   -4.4580    3.2470    0.3670 N   0  0  0  0  0  0  0  0  0  0  0  0
   -3.2500    2.7960    0.2210 C   0  0  0  0  0  0  0  0  0  0  0  0
   -2.4260    3.2400   -0.7770 C   0  0  0  0  0  0  0  0  0  0  0  0
   -1.1640    2.7100   -0.8580 C   0  0  0  0  0  0  0  0  0  0  0  0
   -0.6700    1.7710   -0.0160 N   0  0  0  0  0  0  0  0  0  0  0  0
    0.6400    1.2790   -0.1130 C   0  0  0  0  0  0  0  0  0  0  0  0
    1.0790    0.3700   -0.9670 N   0  0  0  0  0  0  0  0  0  0  0  0
    2.3740   -0.0390   -1.0050 C   0  0  0  0  0  0  0  0  0  0  0  0
    3.2840    0.4940   -0.1370 C   0  0  0  0  0  0  0  0  0  0  0  0
    2.8890    1.4610    0.7940 C   0  0  0  0  0  0  0  0  0  0  0  0
    1.5650    1.8330    0.7820 C   0  0  0  0  0  0  0  0  0  0  0  0
    1.0400    3.0500    1.9440 Cl  0  0  0  0  0  0  0  0  0  0  0  0
    4.6940    0.0810   -0.1430 C   0  0  0  0  0  0  0  0  0  0  0  0
    4.8590   -1.3100   -0.6410 C   0  0  0  0  0  0  0  0  0  0  0  0
    5.9290   -2.0360   -0.2000 C   0  0  0  0  0  0  0  0  0  0  0  0
    6.1530   -3.3310   -0.6140 C   0  0  0  0  0  0  0  0  0  0  0  0
    5.2390   -3.8800   -1.5070 C   0  0  0  0  0  0  0  0  0  0  0  0
    4.1450   -3.1350   -1.9570 C   0  0  0  0  0  0  0  0  0  0  0  0
    3.9530   -1.8570   -1.5280 C   0  0  0  0  0  0  0  0  0  0  0  0
    2.8220   -1.0640   -1.9830 C   0  0  0  0  0  0  0  0  0  0  0  0
   -1.4850    1.3270    0.9750 C   0  0  0  0  0  0  0  0  0  0  0  0
   -0.9470    0.2930    1.8830 C   0  0  0  0  0  0  0  0  0  0  0  0
   -1.5790   -0.9560    1.6800 N   0  0  0  0  0  0  0  0  0  0  0  0
   -2.9240   -1.1190    2.0280 C   0  0  0  0  0  0  0  0  0  0  0  0
   -3.3530   -2.5030    2.4670 C   0  0  0  0  0  0  0  0  0  0  0  0
   -2.4840   -3.6740    1.4620 S   0  0  1  0  0  0  0  0  0  0  0  0
   -1.3500   -4.2860    2.2140 O   0  0  0  0  0  0  0  0  0  0  0  0
   -3.4670   -4.7290    0.9950 O   0  0  0  0  0  0  0  0  0  0  0  0
   -1.9170   -2.7720    0.0390 C   0  0  0  0  0  0  0  0  0  0  0  0
   -1.1630   -1.5560    0.4400 C   0  0  0  0  0  0  0  0  0  0  0  0
   -2.7730    1.8390    1.0940 C   0  0  0  0  0  0  0  0  0  0  0  0
  1  2  1  0
  2  3  2  0
  2  4  1  0
  4  5  2  3
  5  6  1  0
  5 34  1  0
  6  7  2  0
  7  8  1  0
  8  9  1  0
  8 24  1  0
  9 10  2  0
  9 14  1  0
 10 11  1  0
 11 12  2  0
 11 23  1  0
 12 13  1  0
 12 16  1  0
 13 14  2  0
 14 15  1  0
 16 17  1  0
 17 18  2  0
 17 22  1  0
 18 19  1  0
 19 20  2  0
 20 21  1  0
 21 22  2  0
 22 23  1  0
 24 25  1  0
 24 34  2  0
 25 26  1  0
 26 27  1  0
 26 33  1  0
 27 28  1  0
 29 28  1  1
 29 30  2  0
 29 31  2  0
 29 32  1  0
 32 33  1  0
M  END
