
     RDKit          3D

 33 37  0  0  0  0  0  0  0  0999 V2000
   -7.6940    2.5330    1.0970 C   0  0  0  0  0  0  0  0  0  0  0  0
   -6.8760    1.6740    0.1800 C   0  0  0  0  0  0  0  0  0  0  0  0
   -6.7400    1.8990   -1.0960 O   0  0  0  0  0  0  0  0  0  0  0  0
   -5.9690    0.9870   -1.6490 C   0  0  0  0  0  0  0  0  0  0  0  0
   -5.5840    0.9090   -3.0750 C   0  0  0  0  0  0  0  0  0  0  0  0
   -5.5610    0.0870   -0.6710 C   0  0  0  0  0  0  0  0  0  0  0  0
   -4.7140   -1.0670   -0.8120 C   0  0  0  0  0  0  0  0  0  0  0  0
   -5.2800   -2.1810   -1.0800 O   0  0  0  0  0  0  0  0  0  0  0  0
   -3.3210   -1.0700   -0.6790 N   0  0  0  0  0  0  0  0  0  0  0  0
   -2.6130   -2.3590   -0.8580 C   0  0  0  0  0  0  0  0  0  0  0  0
   -1.2560   -2.1640   -0.4620 C   0  0  0  0  0  0  0  0  0  0  0  0
   -0.0170   -1.6760   -0.0160 C   0  0  0  0  0  0  0  0  0  0  0  0
   -0.1770   -0.2160    0.3040 N   0  0  0  0  0  0  0  0  0  0  0  0
    0.6080    0.0990    1.4920 C   0  0  0  0  0  0  0  0  0  0  0  0
    2.0300   -0.1690    1.3110 C   0  0  0  0  0  0  0  0  0  0  0  0
    2.8250    0.8000    0.8370 N   0  0  0  0  0  0  0  0  0  0  0  0
    4.1360    0.6160    0.6500 C   0  0  0  0  0  0  0  0  0  0  0  0
    5.2430    1.7660    0.0570 S   0  0  0  0  0  0  0  0  0  0  0  0
    6.8420    1.1740   -0.0490 C   0  0  0  0  0  0  0  0  0  0  0  0
    7.9140    1.9410   -0.5080 C   0  0  0  0  0  0  0  0  0  0  0  0
    9.1890    1.4290   -0.5800 C   0  0  0  0  0  0  0  0  0  0  0  0
    9.4230    0.1290   -0.1910 C   0  0  0  0  0  0  0  0  0  0  0  0
    8.3620   -0.6140    0.2570 C   0  0  0  0  0  0  0  0  0  0  0  0
    7.0510   -0.1260    0.3440 C   0  0  0  0  0  0  0  0  0  0  0  0
    6.0590   -0.9560    0.8080 C   0  0  0  0  0  0  0  0  0  0  0  0
    4.7390   -0.6730    0.9650 C   0  0  0  0  0  0  0  0  0  0  0  0
    3.8660   -1.6520    1.4560 C   0  0  0  0  0  0  0  0  0  0  0  0
    4.3250   -2.8030    1.7520 O   0  0  0  0  0  0  0  0  0  0  0  0
    2.5760   -1.3490    1.6000 N   0  0  0  0  0  0  0  0  0  0  0  0
   -1.5310    0.1510    0.6210 C   0  0  0  0  0  0  0  0  0  0  0  0
   -2.6130    0.1620   -0.3740 C   0  0  0  0  0  0  0  0  0  0  0  0
   -6.1560    0.5480    0.4970 C   0  0  0  0  0  0  0  0  0  0  0  0
   -6.0240   -0.1660    2.1020 Cl  0  0  0  0  0  0  0  0  0  0  0  0
  1  2  1  0
  2  3  1  0
  2 32  2  0
  3  4  1  0
  4  5  1  0
  4  6  2  0
  6  7  1  0
  6 32  1  0
  7  8  2  0
  7  9  1  0
  9 10  1  0
  9 31  1  0
 10 11  1  0
 11 12  1  0
 12 13  1  0
 13 14  1  0
 13 30  1  0
 14 15  1  0
 15 16  1  0
 15 29  2  0
 16 17  2  0
 17 18  1  0
 17 26  1  0
 18 19  1  0
 19 20  2  0
 19 24  1  0
 20 21  1  0
 21 22  2  0
 22 23  1  0
 23 24  2  0
 24 25  1  0
 25 26  2  0
 26 27  1  0
 27 28  2  0
 27 29  1  0
 30 31  1  0
 32 33  1  0
M  END
