
     RDKit          3D

 34 38  0  0  0  0  0  0  0  0999 V2000
   -6.4000    4.9500    0.6200 C   0  0  0  0  0  0  0  0  0  0  0  0
   -5.5490    3.9720   -0.1090 C   0  0  0  0  0  0  0  0  0  0  0  0
   -4.5140    3.2120    0.3400 C   0  0  0  0  0  0  0  0  0  0  0  0
   -3.8820    2.3880   -0.4990 C   0  0  0  0  0  0  0  0  0  0  0  0
   -2.7410    1.5130   -0.1230 C   0  0  0  0  0  0  0  0  0  0  0  0
   -2.1590    1.4070    1.1240 C   0  0  0  0  0  0  0  0  0  0  0  0
   -1.1310    0.4960    1.0840 C   0  0  0  0  0  0  0  0  0  0  0  0
   -1.1080    0.0580   -0.2120 N   0  0  0  0  0  0  0  0  0  0  0  0
   -2.0530    0.6640   -0.8900 N   0  0  0  0  0  0  0  0  0  0  0  0
   -0.1180   -0.9120   -0.5410 C   0  0  2  0  0  0  0  0  0  0  0  0
   -0.3610   -2.2730   -0.0590 C   0  0  0  0  0  0  0  0  0  0  0  0
    0.5170   -2.8080    0.6950 O   0  0  0  0  0  0  0  0  0  0  0  0
   -1.4990   -3.0560   -0.3630 N   0  0  0  0  0  0  0  0  0  0  0  0
   -1.6410   -4.4100    0.1800 C   0  0  0  0  0  0  0  0  0  0  0  0
   -2.4080   -5.2890   -0.7850 C   0  0  0  0  0  0  0  0  0  0  0  0
   -3.6260   -4.6220   -1.0320 O   0  0  0  0  0  0  0  0  0  0  0  0
   -3.3460   -3.5740   -1.8730 C   0  0  0  0  0  0  0  0  0  0  0  0
   -2.5140   -2.4860   -1.2280 C   0  0  0  0  0  0  0  0  0  0  0  0
    1.1760   -0.3960    0.0140 N   0  0  0  0  0  0  0  0  0  0  0  0
    2.2560   -0.3240   -0.8510 C   0  0  0  0  0  0  0  0  0  0  0  0
    1.9770   -0.7220   -2.0970 O   0  0  0  0  0  0  0  0  0  0  0  0
    3.6170    0.0810   -0.7250 C   0  0  0  0  0  0  0  0  0  0  0  0
    4.1940    0.5150    0.3660 C   0  0  0  0  0  0  0  0  0  0  0  0
    5.6060    0.8990    0.3510 C   0  0  0  0  0  0  0  0  0  0  0  0
    6.4050    0.8450   -0.7350 C   0  0  0  0  0  0  0  0  0  0  0  0
    7.7500    1.2370   -0.6460 C   0  0  0  0  0  0  0  0  0  0  0  0
    8.2980    1.6820    0.5210 C   0  0  0  0  0  0  0  0  0  0  0  0
    9.9850    2.1680    0.6130 Cl  0  0  0  0  0  0  0  0  0  0  0  0
    7.5030    1.7420    1.6280 C   0  0  0  0  0  0  0  0  0  0  0  0
    6.1750    1.3550    1.5430 C   0  0  0  0  0  0  0  0  0  0  0  0
    1.2190   -0.0110    1.3930 C   0  0  0  0  0  0  0  0  0  0  0  0
   -0.1610   -0.0290    2.0670 C   0  0  0  0  0  0  0  0  0  0  0  0
   -4.3560    2.3740   -1.8300 C   0  0  0  0  0  0  0  0  0  0  0  0
   -5.6600    3.5210   -1.8070 S   0  0  0  0  0  0  0  0  0  0  0  0
  1  2  1  0
  2  3  2  0
  2 34  1  0
  3  4  1  0
  4  5  1  0
  4 33  2  0
  5  6  1  0
  5  9  2  0
  6  7  2  0
  7  8  1  0
  7 32  1  0
  8  9  1  0
  8 10  1  0
 10 11  1  1
 10 19  1  0
 11 12  2  0
 11 13  1  0
 13 14  1  0
 13 18  1  0
 14 15  1  0
 15 16  1  0
 16 17  1  0
 17 18  1  0
 19 20  1  0
 19 31  1  0
 20 21  2  0
 20 22  1  0
 22 23  2  3
 23 24  1  0
 24 25  2  0
 24 30  1  0
 25 26  1  0
 26 27  2  0
 27 28  1  0
 27 29  1  0
 29 30  2  0
 31 32  1  0
 33 34  1  0
M  END
