
     RDKit          3D

 34 38  0  0  0  0  0  0  0  0999 V2000
    4.2040    1.8590    3.0960 C   0  0  0  0  0  0  0  0  0  0  0  0
    3.9860    0.4790    2.5270 C   0  0  0  0  0  0  0  0  0  0  0  0
    3.5520    0.5840    1.1400 N   0  0  0  0  0  0  0  0  0  0  0  0
    4.4900    0.6330    0.1820 C   0  0  0  0  0  0  0  0  0  0  0  0
    4.0250    0.7150   -1.1300 C   0  0  0  0  0  0  0  0  0  0  0  0
    2.6650    0.7460   -1.4290 C   0  0  0  0  0  0  0  0  0  0  0  0
    1.7540    0.6930   -0.4030 C   0  0  0  0  0  0  0  0  0  0  0  0
    0.3170    0.7270   -0.7360 C   0  0  0  0  0  0  0  0  0  0  0  0
   -0.1680    1.9000   -0.7900 O   0  0  0  0  0  0  0  0  0  0  0  0
   -0.4510   -0.4430   -0.9730 N   0  0  0  0  0  0  0  0  0  0  0  0
    0.1380   -1.7620   -0.9020 C   0  0  0  0  0  0  0  0  0  0  0  0
   -0.6910   -2.5240   -2.3550 S   0  0  0  0  0  0  0  0  0  0  0  0
   -2.1690   -1.4370   -2.3340 C   0  0  0  0  0  0  0  0  0  0  0  0
   -1.8290   -0.4160   -1.2900 C   0  0  1  0  0  0  0  0  0  0  0  0
   -2.6570   -0.5780   -0.0650 C   0  0  0  0  0  0  0  0  0  0  0  0
   -2.0630   -0.9560    0.9660 O   0  0  0  0  0  0  0  0  0  0  0  0
   -4.0440   -0.3360    0.0040 N   0  0  0  0  0  0  0  0  0  0  0  0
   -4.7510    0.0940   -1.1850 C   0  0  0  0  0  0  0  0  0  0  0  0
   -6.1640   -0.3620   -1.2510 C   0  0  0  0  0  0  0  0  0  0  0  0
   -6.5830   -1.3500   -0.1980 C   0  0  0  0  0  0  0  0  0  0  0  0
   -6.0810   -1.0070    1.1590 C   0  0  0  0  0  0  0  0  0  0  0  0
   -6.7910   -1.1620    2.3180 C   0  0  0  0  0  0  0  0  0  0  0  0
   -6.1880   -0.7970    3.5210 C   0  0  0  0  0  0  0  0  0  0  0  0
   -7.1150   -1.0030    4.9910 Cl  0  0  0  0  0  0  0  0  0  0  0  0
   -4.9030   -0.2880    3.5610 C   0  0  0  0  0  0  0  0  0  0  0  0
   -4.1680   -0.1240    2.3950 C   0  0  0  0  0  0  0  0  0  0  0  0
   -4.7940   -0.4970    1.2080 C   0  0  0  0  0  0  0  0  0  0  0  0
    2.2120    0.6120    0.8800 C   0  0  0  0  0  0  0  0  0  0  0  0
    1.3750    0.5650    1.8160 O   0  0  0  0  0  0  0  0  0  0  0  0
    4.9640    0.7710   -2.2580 C   0  0  0  0  0  0  0  0  0  0  0  0
    6.3420    0.7630   -1.8670 N   0  0  0  0  0  0  0  0  0  0  0  0
    7.3290    0.8510   -2.9520 C   0  0  0  0  0  0  0  0  0  0  0  0
    6.7750    0.6790   -0.5320 C   0  0  0  0  0  0  0  0  0  0  0  0
    5.9190    0.6170    0.4590 C   0  0  0  0  0  0  0  0  0  0  0  0
  1  2  1  0
  2  3  1  0
  3  4  1  0
  3 28  1  0
  4  5  2  0
  4 34  1  0
  5  6  1  0
  5 30  1  0
  6  7  2  0
  7  8  1  0
  7 28  1  0
  8  9  2  0
  8 10  1  0
 10 11  1  0
 10 14  1  0
 11 12  1  0
 12 13  1  0
 13 14  1  0
 14 15  1  1
 15 16  2  0
 15 17  1  0
 17 18  1  0
 17 27  1  0
 18 19  1  0
 19 20  1  0
 20 21  1  0
 21 22  2  0
 21 27  1  0
 22 23  1  0
 23 24  1  0
 23 25  2  0
 25 26  1  0
 26 27  2  0
 28 29  2  0
 30 31  1  0
 31 32  1  0
 31 33  1  0
 33 34  2  0
M  END
