
     RDKit          3D

 36 38  0  0  0  0  0  0  0  0999 V2000
    5.9180    4.5230    3.7330 C   0  0  0  0  0  0  0  0  0  0  0  0
    5.2780    4.6300    2.4330 C   0  0  0  0  0  0  0  0  0  0  0  0
    4.5910    3.7270    1.7920 C   0  0  0  0  0  0  0  0  0  0  0  0
    4.3380    2.3840    2.3120 C   0  0  0  0  0  0  0  0  0  0  0  0
    4.8930    1.9400    3.5370 C   0  0  0  0  0  0  0  0  0  0  0  0
    5.3740    1.5360    4.5920 N   0  0  0  0  0  0  0  0  0  0  0  0
    3.6330    1.5810    1.5520 C   0  0  0  0  0  0  0  0  0  0  0  0
    3.1850    0.2770    1.6780 C   0  0  0  0  0  0  0  0  0  0  0  0
    2.4140   -0.3520    0.7220 C   0  0  0  0  0  0  0  0  0  0  0  0
    2.1020    0.4620   -0.4200 C   0  0  0  0  0  0  0  0  0  0  0  0
    1.1370    1.1810   -0.8910 C   0  0  0  0  0  0  0  0  0  0  0  0
   -0.2310    1.5790   -0.4850 C   0  0  2  0  0  0  0  0  0  0  0  0
   -0.3330    3.1110   -0.5780 C   0  0  0  0  0  0  0  0  0  0  0  0
   -0.3560    1.3430    0.8770 O   0  0  0  0  0  0  0  0  0  0  0  0
   -1.3380    0.9020   -1.2680 C   0  0  2  0  0  0  0  0  0  0  0  0
   -2.2250    2.0450   -1.7480 C   0  0  0  0  0  0  0  0  0  0  0  0
   -2.3200    2.4440   -2.9000 O   0  0  0  0  0  0  0  0  0  0  0  0
   -2.9850    2.6700   -0.7750 O   0  0  0  0  0  0  0  0  0  0  0  0
   -3.8540    3.7330   -0.9970 C   0  0  0  0  0  0  0  0  0  0  0  0
   -3.1250    4.9250   -1.5420 C   0  0  0  0  0  0  0  0  0  0  0  0
   -2.1550   -0.0450   -0.4330 C   0  0  0  0  0  0  0  0  0  0  0  0
   -2.5500   -1.3620   -0.8370 C   0  0  0  0  0  0  0  0  0  0  0  0
   -1.6820   -2.5690   -0.9900 C   0  0  2  0  0  0  0  0  0  0  0  0
   -1.6650   -2.8500   -2.3990 O   0  0  0  0  0  0  0  0  0  0  0  0
   -2.4720   -3.8030   -0.5580 C   0  0  1  0  0  0  0  0  0  0  0  0
   -3.7380   -3.9350   -1.4260 C   0  0  0  0  0  0  0  0  0  0  0  0
   -3.1560   -5.0830   -2.2080 C   0  0  0  0  0  0  0  0  0  0  0  0
   -2.0170   -5.0820   -1.2220 C   0  0  0  0  0  0  0  0  0  0  0  0
   -0.3230   -2.4250   -0.5600 C   0  0  1  0  0  0  0  0  0  0  0  0
    0.5340   -2.2050   -1.7950 C   0  0  0  0  0  0  0  0  0  0  0  0
   -0.2870   -1.4950    0.4350 O   0  0  0  0  0  0  0  0  0  0  0  0
   -0.7210   -2.1180    1.6100 C   0  0  0  0  0  0  0  0  0  0  0  0
   -0.0550   -3.4210    1.5760 C   0  0  0  0  0  0  0  0  0  0  0  0
    0.5470   -3.3750    0.1980 C   0  0  2  0  0  0  0  0  0  0  0  0
    1.7810   -2.6750    0.1880 O   0  0  0  0  0  0  0  0  0  0  0  0
    2.1200   -1.7650    1.0580 C   0  0  0  0  0  0  0  0  0  0  0  0
  1  2  1  0
  2  3  2  3
  3  4  1  0
  4  5  1  0
  4  7  2  3
  5  6  3  0
  7  8  1  0
  8  9  2  3
  9 10  1  0
  9 36  1  0
 10 11  2  0
 11 12  1  0
 12 13  1  1
 12 14  1  0
 12 15  1  0
 15 16  1  1
 15 21  1  0
 16 17  2  0
 16 18  1  0
 18 19  1  0
 19 20  1  0
 21 22  1  0
 22 23  1  0
 23 24  1  6
 23 25  1  0
 23 29  1  0
 25 26  1  6
 25 28  1  0
 26 27  1  0
 27 28  1  0
 29 30  1  6
 29 31  1  0
 29 34  1  0
 31 32  1  0
 32 33  1  0
 34 33  1  1
 34 35  1  0
 35 36  1  0
M  END
