
     RDKit          3D

 36 38  0  0  0  0  0  0  0  0999 V2000
   -3.3420    1.8570    3.1130 C   0  0  0  0  0  0  0  0  0  0  0  0
   -2.1860    1.0660    2.6550 C   0  0  0  0  0  0  0  0  0  0  0  0
   -2.4880    0.2840    1.3500 C   0  0  1  0  0  0  0  0  0  0  0  0
   -3.6470   -0.6110    1.7400 C   0  0  0  0  0  0  0  0  0  0  0  0
   -2.9890    1.2910    0.3950 C   0  0  0  0  0  0  0  0  0  0  0  0
   -2.7320    2.6570    0.7860 O   0  0  0  0  0  0  0  0  0  0  0  0
   -2.4940    3.6630   -0.1150 C   0  0  0  0  0  0  0  0  0  0  0  0
   -2.9730    4.8040    0.1310 O   0  0  0  0  0  0  0  0  0  0  0  0
   -1.7130    3.5160   -1.3650 C   0  0  1  0  0  0  0  0  0  0  0  0
   -2.1570    4.6190   -2.3500 C   0  0  0  0  0  0  0  0  0  0  0  0
   -0.2430    3.7380   -1.1720 C   0  0  2  0  0  0  0  0  0  0  0  0
    0.3980    3.6110   -2.4010 O   0  0  0  0  0  0  0  0  0  0  0  0
    0.3790    2.7300   -0.1710 C   0  0  2  0  0  0  0  0  0  0  0  0
    1.3750    3.5920    0.5890 C   0  0  0  0  0  0  0  0  0  0  0  0
    0.9570    1.6440   -0.9710 C   0  0  0  0  0  0  0  0  0  0  0  0
    1.0970    0.3160   -0.4690 N   0  0  0  0  0  0  0  0  0  0  0  0
    2.1110    0.0020    0.4480 C   0  0  0  0  0  0  0  0  0  0  0  0
    2.1590   -1.2500    0.7870 O   0  0  0  0  0  0  0  0  0  0  0  0
    3.1190    0.8350    1.0830 C   0  0  0  0  0  0  0  0  0  0  0  0
    4.0620   -0.0340    1.7600 O   0  0  0  0  0  0  0  0  0  0  0  0
    4.7790   -0.9730    1.0330 C   0  0  0  0  0  0  0  0  0  0  0  0
    4.5840   -1.0360   -0.2100 O   0  0  0  0  0  0  0  0  0  0  0  0
    5.7660   -1.9100    1.6380 C   0  0  1  0  0  0  0  0  0  0  0  0
    5.9560   -3.2170    0.9310 C   0  0  0  0  0  0  0  0  0  0  0  0
    7.0380   -2.1360    0.8080 C   0  0  1  0  0  0  0  0  0  0  0  0
    7.1480   -1.5110   -0.5440 C   0  0  0  0  0  0  0  0  0  0  0  0
    0.2400   -0.7400   -0.9580 C   0  0  0  0  0  0  0  0  0  0  0  0
   -0.9400   -1.1560   -0.1470 C   0  0  2  0  0  0  0  0  0  0  0  0
   -0.6790   -2.6100    0.2830 C   0  0  0  0  0  0  0  0  0  0  0  0
   -0.2410   -3.5260   -0.7780 C   0  0  0  0  0  0  0  0  0  0  0  0
   -0.9740   -3.3460   -2.0550 C   0  0  0  0  0  0  0  0  0  0  0  0
   -2.2630   -2.6160   -1.7700 C   0  0  2  0  0  0  0  0  0  0  0  0
   -3.2060   -3.5850   -1.1270 C   0  0  0  0  0  0  0  0  0  0  0  0
   -2.8490   -2.3370   -3.1700 C   0  0  0  0  0  0  0  0  0  0  0  0
   -2.1120   -1.2960   -1.1090 C   0  0  0  0  0  0  0  0  0  0  0  0
   -1.2300   -0.4240    1.0800 C   0  0  0  0  0  0  0  0  0  0  0  0
  1  2  1  0
  2  3  1  0
  3  4  1  1
  3  5  1  0
  3 36  1  0
  5  6  1  0
  6  7  1  0
  7  8  2  0
  7  9  1  0
  9 10  1  6
  9 11  1  0
 11 12  1  6
 11 13  1  0
 13 14  1  6
 13 15  1  0
 15 16  1  0
 16 17  1  0
 16 27  1  0
 17 18  2  0
 17 19  1  0
 19 20  1  0
 20 21  1  0
 21 22  2  0
 23 21  1  6
 23 24  1  0
 23 25  1  0
 24 25  1  0
 25 26  1  6
 28 27  1  6
 28 29  1  0
 28 35  1  0
 28 36  1  0
 29 30  1  0
 30 31  1  0
 31 32  1  0
 32 33  1  1
 32 34  1  0
 32 35  1  0
M  END
