
     RDKit          3D

 36 38  0  0  0  0  0  0  0  0999 V2000
   -5.5260   -3.7290    2.1280 C   0  0  0  0  0  0  0  0  0  0  0  0
   -4.9230   -4.3850    0.9280 C   0  0  0  0  0  0  0  0  0  0  0  0
   -4.5020   -3.3640   -0.1400 C   0  0  1  0  0  0  0  0  0  0  0  0
   -5.6830   -2.5670   -0.6050 C   0  0  0  0  0  0  0  0  0  0  0  0
   -3.3180   -2.6010    0.2820 C   0  0  0  0  0  0  0  0  0  0  0  0
   -2.8680   -2.9140    1.4110 O   0  0  0  0  0  0  0  0  0  0  0  0
   -2.6110   -1.5460   -0.4430 C   0  0  2  0  0  0  0  0  0  0  0  0
   -1.3600   -1.2130    0.2610 N   0  0  0  0  0  0  0  0  0  0  0  0
   -0.1250   -1.4280   -0.3890 C   0  0  0  0  0  0  0  0  0  0  0  0
   -0.1380   -1.9020   -1.5540 O   0  0  0  0  0  0  0  0  0  0  0  0
    1.1640   -1.1300    0.2200 C   0  0  1  0  0  0  0  0  0  0  0  0
    2.2710   -1.4540   -0.6270 O   0  0  0  0  0  0  0  0  0  0  0  0
    3.3530   -0.8520    0.0690 C   0  0  0  0  0  0  0  0  0  0  0  0
    2.9350    0.1870    0.7350 C   0  0  0  0  0  0  0  0  0  0  0  0
    3.8190    1.0100    1.5500 C   0  0  0  0  0  0  0  0  0  0  0  0
    3.4500    2.1540    1.9190 O   0  0  0  0  0  0  0  0  0  0  0  0
    5.1370    0.4310    1.9040 C   0  0  0  0  0  0  0  0  0  0  0  0
    5.6630   -0.1230    0.5740 C   0  0  1  0  0  0  0  0  0  0  0  0
    5.6340    1.0540   -0.4030 C   0  0  0  0  0  0  0  0  0  0  0  0
    7.0730   -0.5940    0.6500 C   0  0  0  0  0  0  0  0  0  0  0  0
    8.0650    0.4210    1.0250 C   0  0  0  0  0  0  0  0  0  0  0  0
    9.2590    0.0390    1.1220 O   0  0  0  0  0  0  0  0  0  0  0  0
    7.7950    1.7540    1.2770 O   0  0  0  0  0  0  0  0  0  0  0  0
    8.8700    2.5990    1.6260 C   0  0  0  0  0  0  0  0  0  0  0  0
    4.7940   -1.2460    0.1160 C   0  0  0  0  0  0  0  0  0  0  0  0
    1.4580    0.3100    0.4520 C   0  0  1  0  0  0  0  0  0  0  0  0
    1.3610    1.1480   -0.8080 C   0  0  0  0  0  0  0  0  0  0  0  0
   -3.3950   -0.2640   -0.6570 C   0  0  1  0  0  0  0  0  0  0  0  0
   -3.8240    0.4170    0.5930 C   0  0  0  0  0  0  0  0  0  0  0  0
   -3.6520    1.9180    0.5790 C   0  0  1  0  0  0  0  0  0  0  0  0
   -2.3280    2.3420    1.1700 C   0  0  0  0  0  0  0  0  0  0  0  0
   -3.9430    2.5480   -0.7510 C   0  0  0  0  0  0  0  0  0  0  0  0
   -3.2760    1.8830   -1.9120 C   0  0  1  0  0  0  0  0  0  0  0  0
   -4.3120    1.5730   -2.9820 C   0  0  0  0  0  0  0  0  0  0  0  0
   -2.2630    2.8170   -2.5650 C   0  0  0  0  0  0  0  0  0  0  0  0
   -2.5170    0.6370   -1.5110 C   0  0  0  0  0  0  0  0  0  0  0  0
  1  2  1  0
  2  3  1  0
  3  4  1  1
  3  5  1  0
  5  6  2  0
  5  7  1  0
  7  8  1  1
  7 28  1  0
  8  9  1  0
  9 10  2  0
 11  9  1  6
 11 12  1  0
 11 26  1  0
 12 13  1  0
 13 14  2  0
 13 25  1  0
 14 15  1  0
 14 26  1  0
 15 16  2  0
 15 17  1  0
 17 18  1  0
 18 19  1  6
 18 20  1  0
 18 25  1  0
 20 21  1  0
 21 22  2  0
 21 23  1  0
 23 24  1  0
 26 27  1  6
 28 29  1  1
 28 36  1  0
 29 30  1  0
 30 31  1  6
 30 32  1  0
 32 33  1  0
 33 34  1  6
 33 35  1  0
 33 36  1  0
M  END
