
     RDKit          3D

 36 38  0  0  0  0  0  0  0  0999 V2000
    6.4190   -2.2170   -1.3030 C   0  0  0  0  0  0  0  0  0  0  0  0
    5.2850   -1.4600   -0.6010 C   0  0  0  0  0  0  0  0  0  0  0  0
    4.0620   -1.4100   -1.4400 C   0  0  0  0  0  0  0  0  0  0  0  0
    2.9200   -0.6400   -0.7210 C   0  0  1  0  0  0  0  0  0  0  0  0
    2.6240   -1.3970    0.5060 C   0  0  0  0  0  0  0  0  0  0  0  0
    1.2710   -2.0380    0.6350 C   0  0  2  0  0  0  0  0  0  0  0  0
    1.4220   -3.0560    1.6340 O   0  0  0  0  0  0  0  0  0  0  0  0
    0.6280   -2.5540   -0.5760 C   0  0  0  0  0  0  0  0  0  0  0  0
   -0.5400   -1.8150   -1.1530 C   0  0  0  0  0  0  0  0  0  0  0  0
   -1.7810   -1.9000   -0.3140 C   0  0  2  0  0  0  0  0  0  0  0  0
   -1.4520   -2.1510    0.9730 O   0  0  0  0  0  0  0  0  0  0  0  0
   -2.4100   -3.2230   -0.8470 C   0  0  0  0  0  0  0  0  0  0  0  0
   -2.7550   -2.9880   -2.2030 O   0  0  0  0  0  0  0  0  0  0  0  0
   -2.8210   -0.8720   -0.5910 C   0  0  1  0  0  0  0  0  0  0  0  0
   -4.1780   -1.1350   -0.0320 C   0  0  0  0  0  0  0  0  0  0  0  0
   -4.5790   -1.2510    1.3250 C   0  0  1  0  0  0  0  0  0  0  0  0
   -4.0450   -2.2720    2.2720 C   0  0  0  0  0  0  0  0  0  0  0  0
   -4.6800    0.0260    2.1510 C   0  0  0  0  0  0  0  0  0  0  0  0
   -2.4600    0.5790   -0.5680 C   0  0  2  0  0  0  0  0  0  0  0  0
   -2.2980    1.2200   -1.9600 C   0  0  0  0  0  0  0  0  0  0  0  0
   -2.3790    2.7220   -1.7110 C   0  0  2  0  0  0  0  0  0  0  0  0
   -2.7360    3.4750   -2.9600 C   0  0  0  0  0  0  0  0  0  0  0  0
   -1.0490    3.0740   -1.1620 C   0  0  0  0  0  0  0  0  0  0  0  0
   -0.6750    2.2880    0.0160 C   0  0  1  0  0  0  0  0  0  0  0  0
   -1.5460    1.1290    0.4220 C   0  0  0  0  0  0  0  0  0  0  0  0
    0.7240    1.7170   -0.2420 C   0  0  0  0  0  0  0  0  0  0  0  0
    1.7480    2.2840    0.7220 C   0  0  1  0  0  0  0  0  0  0  0  0
    1.2550    1.9290    2.0810 C   0  0  0  0  0  0  0  0  0  0  0  0
   -0.0910    2.6180    2.2530 C   0  0  0  0  0  0  0  0  0  0  0  0
   -0.5100    3.1990    1.0900 O   0  0  0  0  0  0  0  0  0  0  0  0
    3.0460    1.7570    0.3640 N   0  0  0  0  0  0  0  0  0  0  0  0
    4.1440    2.4160    1.0510 C   0  0  0  0  0  0  0  0  0  0  0  0
    3.9400    3.5140    2.0230 C   0  0  0  0  0  0  0  0  0  0  0  0
    5.3550    2.0660    0.8380 O   0  0  0  0  0  0  0  0  0  0  0  0
    3.3780    0.7640   -0.5410 C   0  0  0  0  0  0  0  0  0  0  0  0
    4.2780    1.1270   -1.4220 O   0  0  0  0  0  0  0  0  0  0  0  0
  1  2  1  0
  2  3  1  0
  4  3  1  1
  4  5  1  0
  4 35  1  0
  5  6  1  0
  6  7  1  1
  6  8  1  0
  8  9  1  0
  9 10  1  0
 10 11  1  1
 10 12  1  0
 10 14  1  0
 12 13  1  0
 14 15  1  1
 14 19  1  0
 15 16  1  0
 16 17  1  1
 16 18  1  0
 19 20  1  6
 19 25  1  0
 20 21  1  0
 21 22  1  6
 21 23  1  0
 24 23  1  6
 24 25  1  0
 24 26  1  0
 24 30  1  0
 26 27  1  0
 27 28  1  1
 27 31  1  0
 28 29  1  0
 29 30  1  0
 31 32  1  0
 31 35  1  0
 32 33  1  0
 32 34  2  0
 35 36  2  0
M  END
