
     RDKit          3D

 36 39  0  0  0  0  0  0  0  0999 V2000
   -5.2250   -3.0720    2.4030 C   0  0  0  0  0  0  0  0  0  0  0  0
   -5.3810   -2.0340    1.2850 C   0  0  0  0  0  0  0  0  0  0  0  0
   -3.9830   -1.7630    0.7810 C   0  0  0  0  0  0  0  0  0  0  0  0
   -4.0050   -0.7260   -0.3540 C   0  0  2  0  0  0  0  0  0  0  0  0
   -4.8810   -1.3810   -1.4350 C   0  0  0  0  0  0  0  0  0  0  0  0
   -4.3090   -2.6830   -1.9040 C   0  0  0  0  0  0  0  0  0  0  0  0
   -2.6470   -0.4920   -0.8650 C   0  0  0  0  0  0  0  0  0  0  0  0
   -1.9310    0.7450   -0.4520 C   0  0  2  0  0  0  0  0  0  0  0  0
   -1.2520    1.3370   -1.6570 C   0  0  0  0  0  0  0  0  0  0  0  0
   -0.1730    2.2940   -1.4150 C   0  0  0  0  0  0  0  0  0  0  0  0
    0.6500    2.0530   -0.1780 C   0  0  0  0  0  0  0  0  0  0  0  0
    0.4310    0.6690    0.1950 N   0  0  0  0  0  0  0  0  0  0  0  0
    1.4370   -0.3280    0.1270 C   0  0  0  0  0  0  0  0  0  0  0  0
    1.1160   -1.4980    0.4850 O   0  0  0  0  0  0  0  0  0  0  0  0
    2.8070   -0.0640   -0.3340 C   0  0  0  0  0  0  0  0  0  0  0  0
    3.7780    0.1220    0.8040 C   0  0  2  0  0  0  0  0  0  0  0  0
    3.4310    1.1880    1.6230 O   0  0  0  0  0  0  0  0  0  0  0  0
    5.2000    0.3540    0.2750 C   0  0  1  0  0  0  0  0  0  0  0  0
    5.0760    1.6130   -0.6030 C   0  0  0  0  0  0  0  0  0  0  0  0
    6.0370    0.7280    1.4370 C   0  0  0  0  0  0  0  0  0  0  0  0
    7.4080    0.1150    1.4800 C   0  0  0  0  0  0  0  0  0  0  0  0
    7.1860   -1.3690    1.1550 C   0  0  0  0  0  0  0  0  0  0  0  0
    6.6580   -1.4190   -0.2370 C   0  0  1  0  0  0  0  0  0  0  0  0
    7.8180   -1.0320   -1.1680 C   0  0  0  0  0  0  0  0  0  0  0  0
    6.3710   -2.8930   -0.5550 C   0  0  0  0  0  0  0  0  0  0  0  0
    5.6140   -0.6350   -0.5320 O   0  0  0  0  0  0  0  0  0  0  0  0
   -0.9200    0.3820    0.6470 C   0  0  0  0  0  0  0  0  0  0  0  0
   -2.8110    1.8170    0.1280 C   0  0  1  0  0  0  0  0  0  0  0  0
   -2.3630    3.0980   -0.0640 O   0  0  0  0  0  0  0  0  0  0  0  0
   -4.2280    1.7380   -0.4080 C   0  0  2  0  0  0  0  0  0  0  0  0
   -5.0150    2.8250    0.2360 C   0  0  0  0  0  0  0  0  0  0  0  0
   -4.5570    3.8590    0.6540 O   0  0  0  0  0  0  0  0  0  0  0  0
   -6.4870    2.5800    0.3550 C   0  0  0  0  0  0  0  0  0  0  0  0
   -6.7690    1.3760   -0.5550 C   0  0  0  0  0  0  0  0  0  0  0  0
   -6.1160    0.2730   -0.0740 O   0  0  0  0  0  0  0  0  0  0  0  0
   -4.7660    0.4370    0.1490 C   0  0  1  0  0  0  0  0  0  0  0  0
  1  2  1  0
  2  3  1  0
  4  3  1  1
  4  5  1  0
  4  7  1  0
  4 36  1  0
  5  6  1  0
  8  7  1  6
  8  9  1  0
  8 27  1  0
  8 28  1  0
  9 10  1  0
 10 11  1  0
 11 12  1  0
 12 13  1  0
 12 27  1  0
 13 14  2  0
 13 15  1  0
 15 16  1  0
 16 17  1  6
 16 18  1  0
 18 19  1  6
 18 20  1  0
 18 26  1  0
 20 21  1  0
 21 22  1  0
 22 23  1  0
 23 24  1  6
 23 25  1  0
 23 26  1  0
 28 29  1  6
 28 30  1  0
 30 31  1  1
 30 36  1  0
 31 32  2  0
 31 33  1  0
 33 34  1  0
 34 35  1  0
 36 35  1  6
M  END
