
     RDKit          3D

 37 39  0  0  0  0  0  0  0  0999 V2000
    0.8690    3.0840    0.4470 C   0  0  0  0  0  0  0  0  0  0  0  0
    1.6520    1.7770    0.4710 C   0  0  0  0  0  0  0  0  0  0  0  0
    1.0440    0.6520   -0.2440 C   0  0  1  0  0  0  0  0  0  0  0  0
    1.8100   -0.6050   -0.1320 C   0  0  0  0  0  0  0  0  0  0  0  0
    3.3940   -0.9180   -0.6370 S   0  0  1  0  0  0  0  0  0  0  0  0
    3.6370   -2.4690   -0.5480 O   0  0  0  0  0  0  0  0  0  0  0  0
    3.5000   -0.7440   -2.1920 O   0  0  0  0  0  0  0  0  0  0  0  0
    4.8110   -0.1950   -0.0030 C   0  0  2  0  0  0  0  0  0  0  0  0
    5.0640    1.2480   -0.1330 C   0  0  0  0  0  0  0  0  0  0  0  0
    6.0310   -0.9090   -0.6720 C   0  0  0  0  0  0  0  0  0  0  0  0
    5.0180   -0.5410    1.4930 C   0  0  0  0  0  0  0  0  0  0  0  0
   -0.3700    0.3970    0.0770 N   0  0  0  0  0  0  0  0  0  0  0  0
   -0.6330    0.1310    1.4700 C   0  0  0  0  0  0  0  0  0  0  0  0
    0.0430    0.6840    2.3660 O   0  0  0  0  0  0  0  0  0  0  0  0
   -1.7140   -0.8050    1.8650 C   0  0  1  0  0  0  0  0  0  0  0  0
   -1.2010   -2.2280    2.0170 C   0  0  0  0  0  0  0  0  0  0  0  0
   -2.2060   -0.4000    3.2330 C   0  0  0  0  0  0  0  0  0  0  0  0
   -1.2510   -0.4500    4.3190 C   0  0  0  0  0  0  0  0  0  0  0  0
   -0.0860   -0.8650    4.3020 O   0  0  0  0  0  0  0  0  0  0  0  0
   -1.6890    0.0380    5.5730 O   0  0  0  0  0  0  0  0  0  0  0  0
   -2.8650   -0.7350    0.9160 C   0  0  0  0  0  0  0  0  0  0  0  0
   -2.5990   -0.5000   -0.5150 C   0  0  2  0  0  0  0  0  0  0  0  0
   -2.7550   -1.7320   -1.3050 C   0  0  0  0  0  0  0  0  0  0  0  0
   -1.7980   -2.7050   -1.3500 C   0  0  0  0  0  0  0  0  0  0  0  0
   -1.9300   -3.8770   -2.0890 C   0  0  0  0  0  0  0  0  0  0  0  0
   -3.0900   -4.0600   -2.8100 C   0  0  0  0  0  0  0  0  0  0  0  0
   -4.0960   -3.1130   -2.8050 C   0  0  0  0  0  0  0  0  0  0  0  0
   -5.5510   -3.3860   -3.7350 Cl  0  0  0  0  0  0  0  0  0  0  0  0
   -3.9010   -1.9720   -2.0520 C   0  0  0  0  0  0  0  0  0  0  0  0
   -1.4360    0.3700   -0.8860 C   0  0  1  0  0  0  0  0  0  0  0  0
   -1.8690    1.7200   -1.3400 C   0  0  0  0  0  0  0  0  0  0  0  0
   -1.8860    2.0090   -2.6920 C   0  0  0  0  0  0  0  0  0  0  0  0
   -2.3180    3.2400   -3.1360 C   0  0  0  0  0  0  0  0  0  0  0  0
   -2.7400    4.2090   -2.2560 C   0  0  0  0  0  0  0  0  0  0  0  0
   -3.2960    5.7900   -2.8060 Cl  0  0  0  0  0  0  0  0  0  0  0  0
   -2.7290    3.9370   -0.9030 C   0  0  0  0  0  0  0  0  0  0  0  0
   -2.2950    2.7020   -0.4790 C   0  0  0  0  0  0  0  0  0  0  0  0
  1  2  1  0
  3  2  1  1
  3  4  1  0
  3 12  1  0
  5  4  1  1
  5  6  2  0
  5  7  2  0
  5  8  1  0
  8  9  1  1
  8 10  1  0
  8 11  1  0
 12 13  1  0
 12 30  1  0
 13 14  2  0
 13 15  1  0
 15 16  1  1
 15 17  1  0
 15 21  1  0
 17 18  1  0
 18 19  2  0
 18 20  1  0
 21 22  1  0
 22 23  1  6
 22 30  1  0
 23 24  2  0
 23 29  1  0
 24 25  1  0
 25 26  2  0
 26 27  1  0
 27 28  1  0
 27 29  2  0
 30 31  1  1
 31 32  2  0
 31 37  1  0
 32 33  1  0
 33 34  2  0
 34 35  1  0
 34 36  1  0
 36 37  2  0
M  END
