
     RDKit          3D

 20 22  0  0  0  0  0  0  0  0999 V2000
   -4.4100    2.7900    0.2360 C   0  0  0  0  0  0  0  0  0  0  0  0
   -3.5940    1.5530    0.1310 C   0  0  0  0  0  0  0  0  0  0  0  0
   -2.2840    1.5750    0.1080 C   0  0  0  0  0  0  0  0  0  0  0  0
   -1.4780    2.6820    0.1750 O   0  0  0  0  0  0  0  0  0  0  0  0
   -0.1280    2.3070    0.1230 C   0  0  0  0  0  0  0  0  0  0  0  0
    0.7600    3.1610    0.1690 O   0  0  0  0  0  0  0  0  0  0  0  0
   -0.1270    0.8590    0.0160 C   0  0  0  0  0  0  0  0  0  0  0  0
   -1.3990    0.4190    0.0070 C   0  0  0  0  0  0  0  0  0  0  0  0
   -1.4120   -1.0310   -0.0990 C   0  0  0  0  0  0  0  0  0  0  0  0
   -2.6630   -1.8680   -0.1370 C   0  0  0  0  0  0  0  0  0  0  0  0
   -0.1910   -1.4980   -0.1550 C   0  0  0  0  0  0  0  0  0  0  0  0
    0.2800   -2.8980   -0.2660 C   0  0  0  0  0  0  0  0  0  0  0  0
    1.7370   -2.9800    0.1290 C   0  0  0  0  0  0  0  0  0  0  0  0
    2.4500   -1.8460   -0.2300 O   0  0  0  0  0  0  0  0  0  0  0  0
    2.0100   -0.5160   -0.1250 C   0  0  0  0  0  0  0  0  0  0  0  0
    3.0110    0.5420   -0.0680 C   0  0  0  0  0  0  0  0  0  0  0  0
    2.8580    1.7540    0.0250 O   0  0  0  0  0  0  0  0  0  0  0  0
    4.3820    0.1630   -0.1250 O   0  0  0  0  0  0  0  0  0  0  0  0
    5.3860    1.1470   -0.0740 C   0  0  0  0  0  0  0  0  0  0  0  0
    0.7120   -0.3310   -0.0860 C   0  0  0  0  0  0  0  0  0  0  0  0
  1  2  1  0
  2  3  2  3
  3  4  1  0
  3  8  1  0
  4  5  1  0
  5  6  2  0
  5  7  1  0
  7  8  2  0
  7 20  1  0
  8  9  1  0
  9 10  1  0
  9 11  2  0
 11 12  1  0
 11 20  1  0
 12 13  1  0
 13 14  1  0
 14 15  1  0
 15 16  1  0
 15 20  2  0
 16 17  2  0
 16 18  1  0
 18 19  1  0
M  END
