
     RDKit          3D

 20 22  0  0  0  0  0  0  0  0999 V2000
    4.7710   -0.6590   -0.3970 C   0  0  0  0  0  0  0  0  0  0  0  0
    3.8510   -0.2890    0.5850 O   0  0  0  0  0  0  0  0  0  0  0  0
    2.4750   -0.2890    0.4460 C   0  0  0  0  0  0  0  0  0  0  0  0
    1.7630   -1.4240    0.7690 C   0  0  0  0  0  0  0  0  0  0  0  0
    2.4520   -2.5530    1.2340 O   0  0  0  0  0  0  0  0  0  0  0  0
    0.3940   -1.3930    0.6200 C   0  0  0  0  0  0  0  0  0  0  0  0
   -0.3140   -0.3140    0.1720 C   0  0  0  0  0  0  0  0  0  0  0  0
   -1.7710   -0.3020    0.0280 C   0  0  0  0  0  0  0  0  0  0  0  0
   -2.4280   -0.9750   -0.9650 C   0  0  0  0  0  0  0  0  0  0  0  0
   -3.7990   -0.9330   -1.0690 C   0  0  0  0  0  0  0  0  0  0  0  0
   -4.5240   -1.5920   -2.0510 O   0  0  0  0  0  0  0  0  0  0  0  0
   -4.4870   -0.1760   -0.1200 C   0  0  0  0  0  0  0  0  0  0  0  0
   -3.8250    0.5060    0.8860 C   0  0  0  0  0  0  0  0  0  0  0  0
   -2.4530    0.4530    0.9750 C   0  0  0  0  0  0  0  0  0  0  0  0
   -1.7630    1.1340    1.9850 O   0  0  0  0  0  0  0  0  0  0  0  0
    0.4190    0.8250   -0.1520 C   0  0  0  0  0  0  0  0  0  0  0  0
    1.7890    0.8340   -0.0160 C   0  0  0  0  0  0  0  0  0  0  0  0
    2.2200    2.1740   -0.4440 C   0  0  0  0  0  0  0  0  0  0  0  0
    1.2310    2.5050   -1.3920 O   0  0  0  0  0  0  0  0  0  0  0  0
    0.0740    2.1770   -0.6610 C   0  0  0  0  0  0  0  0  0  0  0  0
  1  2  1  0
  2  3  1  0
  3  4  2  0
  3 17  1  0
  4  5  1  0
  4  6  1  0
  6  7  2  0
  7  8  1  0
  7 16  1  0
  8  9  2  0
  8 14  1  0
  9 10  1  0
 10 11  1  0
 10 12  2  0
 12 13  1  0
 13 14  2  0
 14 15  1  0
 16 17  2  0
 16 20  1  0
 17 18  1  0
 18 19  1  0
 19 20  1  0
M  END
