
     RDKit          3D

 20 22  0  0  0  0  0  0  0  0999 V2000
   -5.1160   -0.2570    0.3260 C   0  0  0  0  0  0  0  0  0  0  0  0
   -4.1950   -0.5410   -0.7050 O   0  0  0  0  0  0  0  0  0  0  0  0
   -2.8280   -0.4410   -0.5030 C   0  0  0  0  0  0  0  0  0  0  0  0
   -2.1080   -1.5290   -0.0580 C   0  0  0  0  0  0  0  0  0  0  0  0
   -2.8120   -2.7030    0.1710 O   0  0  0  0  0  0  0  0  0  0  0  0
   -0.7460   -1.4410    0.1460 C   0  0  0  0  0  0  0  0  0  0  0  0
   -0.0440   -0.2690   -0.0830 C   0  0  0  0  0  0  0  0  0  0  0  0
    1.4110   -0.2040    0.1380 C   0  0  0  0  0  0  0  0  0  0  0  0
    1.9590   -0.7200    1.3180 C   0  0  0  0  0  0  0  0  0  0  0  0
    3.3070   -0.6870    1.5670 C   0  0  0  0  0  0  0  0  0  0  0  0
    4.1270   -0.1240    0.6150 C   0  0  0  0  0  0  0  0  0  0  0  0
    5.4770   -0.0820    0.8470 O   0  0  0  0  0  0  0  0  0  0  0  0
    3.6440    0.4010   -0.5680 C   0  0  0  0  0  0  0  0  0  0  0  0
    4.4740    0.9680   -1.5260 O   0  0  0  0  0  0  0  0  0  0  0  0
    2.2710    0.3390   -0.7650 C   0  0  0  0  0  0  0  0  0  0  0  0
   -0.7840    0.8070   -0.5280 C   0  0  0  0  0  0  0  0  0  0  0  0
   -0.4130    2.0840   -0.8430 C   0  0  0  0  0  0  0  0  0  0  0  0
   -1.5630    2.7470   -1.2340 C   0  0  0  0  0  0  0  0  0  0  0  0
   -2.5750    1.9210   -1.1610 O   0  0  0  0  0  0  0  0  0  0  0  0
   -2.1490    0.7330   -0.7370 C   0  0  0  0  0  0  0  0  0  0  0  0
  1  2  1  0
  2  3  1  0
  3  4  2  0
  3 20  1  0
  4  5  1  0
  4  6  1  0
  6  7  2  0
  7  8  1  0
  7 16  1  0
  8  9  2  0
  8 15  1  0
  9 10  1  0
 10 11  2  0
 11 12  1  0
 11 13  1  0
 13 14  1  0
 13 15  2  0
 16 17  1  0
 16 20  2  0
 17 18  2  0
 18 19  1  0
 19 20  1  0
M  END
