
     RDKit          3D

 20 22  0  0  0  0  0  0  0  0999 V2000
    4.7620   -0.7620   -0.5130 C   0  0  0  0  0  0  0  0  0  0  0  0
    4.3150    0.5690   -0.4740 O   0  0  0  0  0  0  0  0  0  0  0  0
    2.9970    0.9490   -0.2930 C   0  0  0  0  0  0  0  0  0  0  0  0
    2.6820    2.2770   -0.2730 C   0  0  0  0  0  0  0  0  0  0  0  0
    1.3940    2.7160   -0.0970 C   0  0  0  0  0  0  0  0  0  0  0  0
    0.3580    1.8040    0.0700 C   0  0  0  0  0  0  0  0  0  0  0  0
    0.6910    0.4540    0.0480 C   0  0  0  0  0  0  0  0  0  0  0  0
    1.9660    0.0230   -0.1270 C   0  0  0  0  0  0  0  0  0  0  0  0
   -0.4280   -0.4710    0.2270 C   0  0  0  0  0  0  0  0  0  0  0  0
   -0.1500   -1.8280    0.2140 C   0  0  0  0  0  0  0  0  0  0  0  0
   -1.1540   -2.7770    0.3760 C   0  0  0  0  0  0  0  0  0  0  0  0
   -0.8880   -4.1340    0.3650 O   0  0  0  0  0  0  0  0  0  0  0  0
   -2.4420   -2.3220    0.5520 C   0  0  0  0  0  0  0  0  0  0  0  0
   -3.4750   -3.2490    0.7190 O   0  0  0  0  0  0  0  0  0  0  0  0
   -2.7170   -0.9870    0.5660 C   0  0  0  0  0  0  0  0  0  0  0  0
   -1.7140   -0.0200    0.4030 C   0  0  0  0  0  0  0  0  0  0  0  0
   -2.0370    1.3890    0.4220 C   0  0  2  0  0  0  0  0  0  0  0  0
   -3.1320    1.8010   -0.5260 C   0  0  0  0  0  0  0  0  0  0  0  0
   -3.4530    3.1400   -0.2220 O   0  0  0  0  0  0  0  0  0  0  0  0
   -0.9380    2.2040    0.2480 O   0  0  0  0  0  0  0  0  0  0  0  0
  1  2  1  0
  2  3  1  0
  3  4  2  0
  3  8  1  0
  4  5  1  0
  5  6  2  0
  6  7  1  0
  6 20  1  0
  7  8  2  0
  7  9  1  0
  9 10  2  0
  9 16  1  0
 10 11  1  0
 11 12  1  0
 11 13  2  0
 13 14  1  0
 13 15  1  0
 15 16  2  0
 16 17  1  0
 17 18  1  6
 17 20  1  0
 18 19  1  0
M  END
