
     RDKit          3D

 19 19  0  0  0  0  0  0  0  0999 V2000
   -5.0910    2.3250   -0.8160 C   0  0  0  0  0  0  0  0  0  0  0  0
   -5.2570    1.1540    0.0410 C   0  0  0  0  0  0  0  0  0  0  0  0
   -4.4710    0.1470    0.2570 C   0  0  0  0  0  0  0  0  0  0  0  0
   -3.1370   -0.1580   -0.2920 C   0  0  1  0  0  0  0  0  0  0  0  0
   -2.6730    0.6830   -1.4240 C   0  0  0  0  0  0  0  0  0  0  0  0
   -2.2020   -0.2260    0.8750 C   0  0  0  0  0  0  0  0  0  0  0  0
   -0.8020   -0.5130    0.5680 C   0  0  0  0  0  0  0  0  0  0  0  0
    0.1090    0.5240    0.5330 C   0  0  0  0  0  0  0  0  0  0  0  0
    1.4590    0.3350    0.2260 C   0  0  0  0  0  0  0  0  0  0  0  0
    2.2880    1.4500    0.2210 O   0  0  0  0  0  0  0  0  0  0  0  0
    3.6520    1.3060   -0.0820 C   0  0  0  0  0  0  0  0  0  0  0  0
    4.3190    2.6780   -0.0100 C   0  0  0  0  0  0  0  0  0  0  0  0
    5.7800    2.5480   -0.3270 C   0  0  0  0  0  0  0  0  0  0  0  0
    1.9000   -0.9190   -0.0510 C   0  0  0  0  0  0  0  0  0  0  0  0
    1.0240   -1.9740   -0.0260 C   0  0  0  0  0  0  0  0  0  0  0  0
    1.5420   -3.3290   -0.3350 C   0  0  0  0  0  0  0  0  0  0  0  0
    1.6820   -4.1120    0.9500 C   0  0  0  0  0  0  0  0  0  0  0  0
   -0.3290   -1.7740    0.2840 C   0  0  0  0  0  0  0  0  0  0  0  0
   -1.1320   -2.8820    0.2910 O   0  0  0  0  0  0  0  0  0  0  0  0
  1  2  1  0
  2  3  2  3
  3  4  1  0
  4  5  1  6
  4  6  1  0
  6  7  1  0
  7  8  2  0
  7 18  1  0
  8  9  1  0
  9 10  1  0
  9 14  2  0
 10 11  1  0
 11 12  1  0
 12 13  1  0
 14 15  1  0
 15 16  1  0
 15 18  2  0
 16 17  1  0
 18 19  1  0
M  END
