
     RDKit          3D

 20 22  0  0  0  0  0  0  0  0999 V2000
    6.2210   -0.9230    1.0660 O   0  0  0  0  0  0  0  0  0  0  0  0
    5.0530   -0.2700    0.6530 C   0  0  0  0  0  0  0  0  0  0  0  0
    5.0840    0.9680    0.0570 C   0  0  0  0  0  0  0  0  0  0  0  0
    3.9620    1.6320   -0.3590 C   0  0  0  0  0  0  0  0  0  0  0  0
    2.7070    1.0610   -0.1880 C   0  0  0  0  0  0  0  0  0  0  0  0
    2.6490   -0.1780    0.4070 C   0  0  0  0  0  0  0  0  0  0  0  0
    3.8200   -0.8430    0.8260 C   0  0  0  0  0  0  0  0  0  0  0  0
    1.3670   -0.8080    0.6030 C   0  0  0  0  0  0  0  0  0  0  0  0
    0.2290   -0.1860    0.2070 C   0  0  0  0  0  0  0  0  0  0  0  0
   -0.8830   -0.8760    0.4470 O   0  0  0  0  0  0  0  0  0  0  0  0
   -2.1870   -0.7150    0.2550 C   0  0  0  0  0  0  0  0  0  0  0  0
   -3.0670   -1.7570    0.6870 C   0  0  0  0  0  0  0  0  0  0  0  0
   -4.4160   -1.6990    0.5420 C   0  0  0  0  0  0  0  0  0  0  0  0
   -4.9750   -0.5830   -0.0510 C   0  0  0  0  0  0  0  0  0  0  0  0
   -6.3490   -0.5330   -0.1950 O   0  0  0  0  0  0  0  0  0  0  0  0
   -4.1910    0.4560   -0.4900 C   0  0  0  0  0  0  0  0  0  0  0  0
   -4.7280    1.5720   -1.0810 O   0  0  0  0  0  0  0  0  0  0  0  0
   -2.8280    0.3590   -0.3250 C   0  0  0  0  0  0  0  0  0  0  0  0
    0.2940    1.1370   -0.4280 C   0  0  0  0  0  0  0  0  0  0  0  0
    1.5630    1.6960   -0.5910 O   0  0  0  0  0  0  0  0  0  0  0  0
  1  2  1  0
  2  3  2  0
  2  7  1  0
  3  4  1  0
  4  5  2  0
  5  6  1  0
  5 20  1  0
  6  7  2  0
  6  8  1  0
  8  9  2  0
  9 10  1  0
  9 19  1  0
 10 11  1  0
 11 12  2  0
 11 18  1  0
 12 13  1  0
 13 14  2  0
 14 15  1  0
 14 16  1  0
 16 17  1  0
 16 18  2  0
 19 20  1  0
M  END
