
     RDKit          3D

 20 22  0  0  0  0  0  0  0  0999 V2000
    4.9640    1.8770   -1.0130 C   0  0  0  0  0  0  0  0  0  0  0  0
    4.3890    0.7590   -0.6470 C   0  0  0  0  0  0  0  0  0  0  0  0
    4.9470   -0.4230   -0.2130 O   0  0  0  0  0  0  0  0  0  0  0  0
    3.9760   -1.3890    0.0810 C   0  0  0  0  0  0  0  0  0  0  0  0
    2.6790   -0.7170   -0.2040 C   0  0  0  0  0  0  0  0  0  0  0  0
    1.3820   -1.1000   -0.1220 C   0  0  0  0  0  0  0  0  0  0  0  0
    0.2610   -0.2640   -0.4570 C   0  0  0  0  0  0  0  0  0  0  0  0
   -0.9430   -0.7700   -0.3300 O   0  0  0  0  0  0  0  0  0  0  0  0
   -2.1360   -0.7870    0.2450 C   0  0  0  0  0  0  0  0  0  0  0  0
   -2.4580   -1.9800    0.9790 C   0  0  0  0  0  0  0  0  0  0  0  0
   -3.6360   -2.1500    1.6210 C   0  0  0  0  0  0  0  0  0  0  0  0
   -4.5840   -1.1610    1.5890 C   0  0  0  0  0  0  0  0  0  0  0  0
   -4.3370    0.0040    0.9030 C   0  0  0  0  0  0  0  0  0  0  0  0
   -5.3310    1.0050    0.8860 O   0  0  0  0  0  0  0  0  0  0  0  0
   -3.1430    0.1730    0.2530 C   0  0  0  0  0  0  0  0  0  0  0  0
   -2.9600    1.3460   -0.4110 O   0  0  0  0  0  0  0  0  0  0  0  0
    0.5510    1.0010   -0.8870 C   0  0  0  0  0  0  0  0  0  0  0  0
   -0.4060    1.9450   -1.2580 O   0  0  0  0  0  0  0  0  0  0  0  0
    1.8810    1.3930   -0.9700 C   0  0  0  0  0  0  0  0  0  0  0  0
    2.9380    0.5620   -0.6380 C   0  0  0  0  0  0  0  0  0  0  0  0
  1  2  2  0
  2  3  1  0
  2 20  1  0
  3  4  1  0
  4  5  1  0
  5  6  2  0
  5 20  1  0
  6  7  1  0
  7  8  1  0
  7 17  2  0
  8  9  1  0
  9 10  2  0
  9 15  1  0
 10 11  1  0
 11 12  2  0
 12 13  1  0
 13 14  1  0
 13 15  2  0
 15 16  1  0
 17 18  1  0
 17 19  1  0
 19 20  2  0
M  END
