
     RDKit          3D

 29 31  0  0  0  0  0  0  0  0999 V2000
   -2.9430   -3.7380    1.2000 C   0  0  0  0  0  0  0  0  0  0  0  0
   -2.2800   -3.5900   -0.0970 C   0  0  0  0  0  0  0  0  0  0  0  0
   -1.6450   -2.2000   -0.2690 C   0  0  0  0  0  0  0  0  0  0  0  0
   -2.6380   -1.1020   -0.2550 C   0  0  0  0  0  0  0  0  0  0  0  0
   -3.8850   -1.4550   -0.2170 C   0  0  0  0  0  0  0  0  0  0  0  0
   -4.9990   -0.4750   -0.1900 C   0  0  0  0  0  0  0  0  0  0  0  0
   -6.1780   -0.8120   -0.1930 O   0  0  0  0  0  0  0  0  0  0  0  0
   -4.6360    0.9570   -0.1870 C   0  0  0  0  0  0  0  0  0  0  0  0
   -5.7090    1.9030   -0.1290 C   0  0  0  0  0  0  0  0  0  0  0  0
   -6.9100    1.4570   -0.0640 O   0  0  0  0  0  0  0  0  0  0  0  0
   -5.5070    3.3690   -0.1570 C   0  0  0  0  0  0  0  0  0  0  0  0
   -6.8610    4.0660   -0.3050 C   0  0  0  0  0  0  0  0  0  0  0  0
   -3.3780    1.2930   -0.2130 C   0  0  0  0  0  0  0  0  0  0  0  0
   -2.2530    0.2970   -0.2590 C   0  0  0  0  0  0  0  0  0  0  0  0
   -1.1030    0.7740   -0.4110 C   0  0  0  0  0  0  0  0  0  0  0  0
    0.2360    0.4020   -0.6480 C   0  0  0  0  0  0  0  0  0  0  0  0
    1.4710    0.4850   -0.8210 C   0  0  0  0  0  0  0  0  0  0  0  0
    2.4610    1.5800   -0.8290 N   0  0  0  0  0  0  0  0  0  0  0  0
    3.7210    1.0010   -0.4440 C   0  0  0  0  0  0  0  0  0  0  0  0
    4.9550    1.5200   -0.0010 C   0  0  0  0  0  0  0  0  0  0  0  0
    5.8950    0.7270    0.6220 C   0  0  0  0  0  0  0  0  0  0  0  0
    7.0990    1.2370    1.2350 C   0  0  0  0  0  0  0  0  0  0  0  0
    8.0300    1.9630    0.4510 O   0  0  0  0  0  0  0  0  0  0  0  0
    5.6280   -0.6700    0.8310 C   0  0  0  0  0  0  0  0  0  0  0  0
    6.6780   -1.4760    1.4910 C   0  0  0  0  0  0  0  0  0  0  0  0
    4.4690   -1.1830    0.4110 C   0  0  0  0  0  0  0  0  0  0  0  0
    3.5300   -0.3440   -0.2340 C   0  0  0  0  0  0  0  0  0  0  0  0
    2.3690   -0.7230   -1.0830 C   0  0  1  0  0  0  0  0  0  0  0  0
    1.8100   -1.9220   -0.7760 O   0  0  0  0  0  0  0  0  0  0  0  0
  1  2  1  0
  2  3  1  0
  3  4  1  0
  4  5  2  0
  4 14  1  0
  5  6  1  0
  6  7  2  0
  6  8  1  0
  8  9  1  0
  8 13  2  0
  9 10  2  0
  9 11  1  0
 11 12  1  0
 13 14  1  0
 14 15  2  3
 15 16  1  0
 16 17  2  3
 17 18  1  0
 17 28  1  0
 18 19  1  0
 19 20  2  0
 19 27  1  0
 20 21  1  0
 21 22  1  0
 21 24  2  0
 22 23  1  0
 24 25  1  0
 24 26  1  0
 26 27  2  0
 27 28  1  0
 28 29  1  1
M  END
