
     RDKit          3D

 29 33  0  0  0  0  0  0  0  0999 V2000
    7.4960   -1.6360   -1.0540 C   0  0  0  0  0  0  0  0  0  0  0  0
    6.4360   -0.7460   -0.5170 C   0  0  0  0  0  0  0  0  0  0  0  0
    6.5490    0.3740    0.2090 N   0  0  0  0  0  0  0  0  0  0  0  0
    5.3570    0.8560    0.4770 N   0  0  0  0  0  0  0  0  0  0  0  0
    4.3960    0.0500   -0.0770 C   0  0  0  0  0  0  0  0  0  0  0  0
    2.9540    0.3140    0.0430 C   0  0  0  0  0  0  0  0  0  0  0  0
    2.5810    1.4210    0.7430 N   0  0  0  0  0  0  0  0  0  0  0  0
    1.3190    1.8070    0.9470 C   0  0  0  0  0  0  0  0  0  0  0  0
    1.1090    2.8650    1.6220 O   0  0  0  0  0  0  0  0  0  0  0  0
    0.2920    1.0630    0.4310 C   0  0  0  0  0  0  0  0  0  0  0  0
    0.6140   -0.0750   -0.2920 C   0  0  0  0  0  0  0  0  0  0  0  0
    1.9560   -0.4260   -0.4710 C   0  0  0  0  0  0  0  0  0  0  0  0
    2.2500   -1.6570   -1.2540 C   0  0  0  0  0  0  0  0  0  0  0  0
   -0.3840   -0.8500   -0.8270 O   0  0  0  0  0  0  0  0  0  0  0  0
   -1.7200   -0.5470   -0.6790 C   0  0  0  0  0  0  0  0  0  0  0  0
   -2.7110   -1.3590   -1.2380 C   0  0  0  0  0  0  0  0  0  0  0  0
   -4.0470   -1.0550   -1.0900 C   0  0  0  0  0  0  0  0  0  0  0  0
   -4.4340    0.0780   -0.3730 C   0  0  0  0  0  0  0  0  0  0  0  0
   -3.4380    0.8060    0.1320 N   0  0  0  0  0  0  0  0  0  0  0  0
   -2.1270    0.5650    0.0230 C   0  0  0  0  0  0  0  0  0  0  0  0
   -1.1030    1.4510    0.6310 C   0  0  0  0  0  0  0  0  0  0  0  0
   -1.4880    2.5160    1.3020 C   0  0  0  0  0  0  0  0  0  0  0  0
   -2.9170    2.9120    1.5070 C   0  0  1  0  0  0  0  0  0  0  0  0
   -2.9710    4.0150    2.3870 F   0  0  0  0  0  0  0  0  0  0  0  0
   -3.5380    3.3320    0.3710 F   0  0  0  0  0  0  0  0  0  0  0  0
   -5.9180    0.1490   -0.3810 C   0  0  0  0  0  0  0  0  0  0  0  0
   -6.3170   -1.2740   -0.7140 C   0  0  0  0  0  0  0  0  0  0  0  0
   -5.2090   -1.7210   -1.5620 N   0  0  0  0  0  0  0  0  0  0  0  0
    5.0770   -0.9130   -0.6740 N   0  0  0  0  0  0  0  0  0  0  0  0
  1  2  1  0
  2  3  2  0
  2 29  1  0
  3  4  1  0
  4  5  2  0
  5  6  1  0
  5 29  1  0
  6  7  1  0
  6 12  2  0
  7  8  1  0
  8  9  2  0
  8 10  1  0
 10 11  2  0
 10 21  1  0
 11 12  1  0
 11 14  1  0
 12 13  1  0
 14 15  1  0
 15 16  2  0
 15 20  1  0
 16 17  1  0
 17 18  2  0
 17 28  1  0
 18 19  1  0
 18 26  1  0
 19 20  2  0
 20 21  1  0
 21 22  2  3
 22 23  1  0
 23 24  1  1
 23 25  1  0
 26 27  1  0
 27 28  1  0
M  END
