
     RDKit          3D

 29 32  0  0  0  0  0  0  0  0999 V2000
   -2.1810   -0.7840    2.0890 C   0  0  0  0  0  0  0  0  0  0  0  0
   -2.1420   -0.8700    0.5750 C   0  0  1  0  0  0  0  0  0  0  0  0
   -3.5220   -0.9450    0.0090 C   0  0  0  0  0  0  0  0  0  0  0  0
   -3.7110   -0.0520   -0.9240 C   0  0  0  0  0  0  0  0  0  0  0  0
   -2.4790    0.7110   -1.0800 C   0  0  0  0  0  0  0  0  0  0  0  0
   -2.2850    1.5010   -2.0590 O   0  0  0  0  0  0  0  0  0  0  0  0
   -1.5760    0.4030    0.0430 C   0  0  2  0  0  0  0  0  0  0  0  0
   -0.1940    0.3570   -0.3320 N   0  0  0  0  0  0  0  0  0  0  0  0
    0.0830   -0.5560   -1.4000 C   0  0  0  0  0  0  0  0  0  0  0  0
    0.5730   -0.0440    0.8330 C   0  0  0  0  0  0  0  0  0  0  0  0
    2.0350   -0.1210    0.5470 C   0  0  0  0  0  0  0  0  0  0  0  0
    2.7070   -1.2340    0.0760 C   0  0  0  0  0  0  0  0  0  0  0  0
    4.0460   -0.8930   -0.0550 C   0  0  0  0  0  0  0  0  0  0  0  0
    4.1250    0.4350    0.3490 C   0  0  0  0  0  0  0  0  0  0  0  0
    5.3910    1.2110    0.3680 C   0  0  0  0  0  0  0  0  0  0  0  0
    5.3800    2.5820    0.7970 C   0  0  0  0  0  0  0  0  0  0  0  0
    4.4510    3.3220    1.1920 N   0  0  0  0  0  0  0  0  0  0  0  0
    3.1890    3.0770    1.3400 F   0  0  0  0  0  0  0  0  0  0  0  0
    6.5030    0.6250   -0.0140 C   0  0  0  0  0  0  0  0  0  0  0  0
    7.8320    1.2110   -0.0640 C   0  0  0  0  0  0  0  0  0  0  0  0
    8.3580    1.2060   -1.3530 F   0  0  0  0  0  0  0  0  0  0  0  0
    2.9210    0.8040    0.6810 O   0  0  0  0  0  0  0  0  0  0  0  0
   -4.9780    0.0600   -1.6110 N   0  0  0  0  0  0  0  0  0  0  0  0
   -5.4130    0.8590   -2.5690 N   0  0  0  0  0  0  0  0  0  0  0  0
   -6.6770    0.6020   -2.9060 C   0  0  0  0  0  0  0  0  0  0  0  0
   -7.0900   -0.4420   -2.1050 C   0  0  0  0  0  0  0  0  0  0  0  0
   -5.9890   -0.7560   -1.3020 C   0  0  0  0  0  0  0  0  0  0  0  0
   -5.7770   -1.7280   -0.2820 N   0  0  0  0  0  0  0  0  0  0  0  0
   -4.5590   -1.8500    0.3920 N   0  0  0  0  0  0  0  0  0  0  0  0
  2  1  1  1
  2  3  1  0
  2  7  1  0
  3  4  2  0
  3 29  1  0
  4  5  1  0
  4 23  1  0
  5  6  2  0
  5  7  1  0
  7  8  1  6
  8  9  1  0
  8 10  1  0
 10 11  1  0
 11 12  2  0
 11 22  1  0
 12 13  1  0
 13 14  2  0
 14 15  1  0
 14 22  1  0
 15 16  1  0
 15 19  2  3
 16 17  2  3
 17 18  1  0
 19 20  1  0
 20 21  1  0
 23 24  1  0
 23 27  1  0
 24 25  2  0
 25 26  1  0
 26 27  2  0
 27 28  1  0
 28 29  1  0
M  END
