
     RDKit          3D

 29 31  0  0  0  0  0  0  0  0999 V2000
   -8.9310    0.0120    1.2520 C   0  0  0  0  0  0  0  0  0  0  0  0
   -7.8540    1.0110    1.5130 C   0  0  0  0  0  0  0  0  0  0  0  0
   -7.5390    1.7360    0.2210 C   0  0  0  0  0  0  0  0  0  0  0  0
   -7.0690    0.8500   -0.8690 C   0  0  0  0  0  0  0  0  0  0  0  0
   -5.8770    0.0790   -0.6770 C   0  0  0  0  0  0  0  0  0  0  0  0
   -6.0050   -1.2800   -0.4100 C   0  0  0  0  0  0  0  0  0  0  0  0
   -4.9020   -2.0790   -0.2150 C   0  0  0  0  0  0  0  0  0  0  0  0
   -3.6180   -1.5090   -0.2880 C   0  0  0  0  0  0  0  0  0  0  0  0
   -3.4500   -0.1760   -0.5490 C   0  0  0  0  0  0  0  0  0  0  0  0
   -2.1660    0.5220   -0.6480 C   0  0  0  0  0  0  0  0  0  0  0  0
   -1.0380   -0.3470   -0.4420 N   0  0  0  0  0  0  0  0  0  0  0  0
    0.3050    0.1960   -0.5150 C   0  0  0  0  0  0  0  0  0  0  0  0
    0.4550    1.4220   -0.7580 O   0  0  0  0  0  0  0  0  0  0  0  0
    1.4400   -0.6830   -0.3070 C   0  0  0  0  0  0  0  0  0  0  0  0
    2.6480   -0.1880   -0.3750 C   0  0  0  0  0  0  0  0  0  0  0  0
    3.8280   -0.9910   -0.1820 C   0  0  0  0  0  0  0  0  0  0  0  0
    3.7910   -2.3200    0.0850 C   0  0  0  0  0  0  0  0  0  0  0  0
    4.9630   -3.0600    0.2660 C   0  0  0  0  0  0  0  0  0  0  0  0
    6.1980   -2.4810    0.1820 C   0  0  0  0  0  0  0  0  0  0  0  0
    6.2350   -1.1290   -0.0890 C   0  0  0  0  0  0  0  0  0  0  0  0
    7.5410   -0.4290   -0.1940 C   0  0  2  0  0  0  0  0  0  0  0  0
    7.7790    0.2970    1.1010 C   0  0  0  0  0  0  0  0  0  0  0  0
    9.0110    0.9380    0.9860 O   0  0  0  0  0  0  0  0  0  0  0  0
    8.8110    2.0310    0.1250 C   0  0  0  0  0  0  0  0  0  0  0  0
    7.8280    1.7500   -0.9620 C   0  0  0  0  0  0  0  0  0  0  0  0
    7.6400    0.4240   -1.2670 O   0  0  0  0  0  0  0  0  0  0  0  0
    5.0950   -0.3880   -0.2690 C   0  0  0  0  0  0  0  0  0  0  0  0
   -4.6100    0.5710   -0.7350 C   0  0  0  0  0  0  0  0  0  0  0  0
   -4.4940    1.9070   -0.9980 O   0  0  0  0  0  0  0  0  0  0  0  0
  1  2  1  0
  2  3  1  0
  3  4  1  0
  4  5  1  0
  5  6  2  0
  5 28  1  0
  6  7  1  0
  7  8  2  0
  8  9  1  0
  9 10  1  0
  9 28  2  0
 10 11  1  0
 11 12  1  0
 12 13  2  0
 12 14  1  0
 14 15  2  3
 15 16  1  0
 16 17  2  0
 16 27  1  0
 17 18  1  0
 18 19  2  0
 19 20  1  0
 21 20  1  1
 20 27  2  0
 21 22  1  0
 21 26  1  0
 22 23  1  0
 23 24  1  0
 24 25  1  0
 25 26  1  0
 28 29  1  0
M  END
