
     RDKit          3D

 29 30  0  0  0  0  0  0  0  0999 V2000
   -3.4350    0.5600    1.3590 C   0  0  0  0  0  0  0  0  0  0  0  0
   -4.3660    0.8720    0.2650 C   0  0  0  0  0  0  0  0  0  0  0  0
   -5.7000    0.5480    0.3980 C   0  0  0  0  0  0  0  0  0  0  0  0
   -6.6360    0.7850   -0.5650 C   0  0  0  0  0  0  0  0  0  0  0  0
   -6.2250    1.3830   -1.7390 C   0  0  0  0  0  0  0  0  0  0  0  0
   -7.2230    1.6410   -2.7800 C   0  0  0  0  0  0  0  0  0  0  0  0
   -8.4080    1.3260   -2.6020 O   0  0  0  0  0  0  0  0  0  0  0  0
   -4.9090    1.7200   -1.9080 C   0  0  0  0  0  0  0  0  0  0  0  0
   -3.9630    1.4690   -0.9080 C   0  0  0  0  0  0  0  0  0  0  0  0
   -2.5840    1.8830   -1.1480 C   0  0  2  0  0  0  0  0  0  0  0  0
   -2.3930    2.1970   -2.6500 C   0  0  0  0  0  0  0  0  0  0  0  0
   -1.5810    1.0330   -0.7910 O   0  0  0  0  0  0  0  0  0  0  0  0
   -0.5820    1.6490   -0.0370 C   0  0  0  0  0  0  0  0  0  0  0  0
    0.4420    0.6400    0.2950 C   0  0  0  0  0  0  0  0  0  0  0  0
    0.3360   -0.1850    1.3930 C   0  0  0  0  0  0  0  0  0  0  0  0
    1.3600   -1.1010    1.6390 C   0  0  0  0  0  0  0  0  0  0  0  0
    2.4750   -1.2330    0.8510 C   0  0  0  0  0  0  0  0  0  0  0  0
    3.4160   -2.3430    1.0530 C   0  0  0  0  0  0  0  0  0  0  0  0
    2.7970   -3.4740    1.3660 C   0  0  0  0  0  0  0  0  0  0  0  0
    3.2600   -4.7800    1.6530 C   0  0  0  0  0  0  0  0  0  0  0  0
    2.3720   -5.6830    1.9150 O   0  0  0  0  0  0  0  0  0  0  0  0
    4.8240   -2.2560    0.8730 C   0  0  0  0  0  0  0  0  0  0  0  0
    5.5520   -3.5730    0.8600 N   0  0  0  0  0  0  0  0  0  0  0  0
    5.6660   -1.2850    0.6730 C   0  0  0  0  0  0  0  0  0  0  0  0
    5.5620    0.1250    0.5570 C   0  0  0  0  0  0  0  0  0  0  0  0
    6.6480    0.8670    0.3260 C   0  0  0  0  0  0  0  0  0  0  0  0
    6.5510    2.2270    0.2140 O   0  0  0  0  0  0  0  0  0  0  0  0
    2.5760   -0.4190   -0.2310 C   0  0  0  0  0  0  0  0  0  0  0  0
    1.5570    0.5120   -0.4970 C   0  0  0  0  0  0  0  0  0  0  0  0
  1  2  1  0
  2  3  2  0
  2  9  1  0
  3  4  1  0
  4  5  2  0
  5  6  1  0
  5  8  1  0
  6  7  2  0
  8  9  2  0
  9 10  1  0
 10 11  1  6
 10 12  1  0
 12 13  1  0
 13 14  1  0
 14 15  2  0
 14 29  1  0
 15 16  1  0
 16 17  2  0
 17 18  1  0
 17 28  1  0
 18 19  2  3
 18 22  1  0
 19 20  1  0
 20 21  2  0
 22 23  1  0
 22 24  2  3
 24 25  1  0
 25 26  2  3
 26 27  1  0
 28 29  2  0
M  END
