
     RDKit          3D

 29 32  0  0  0  0  0  0  0  0999 V2000
    3.3490   -2.1900   -3.6410 O   0  0  0  0  0  0  0  0  0  0  0  0
    3.4770   -1.8210   -2.4540 C   0  0  0  0  0  0  0  0  0  0  0  0
    2.5790   -2.5020   -1.4480 C   0  0  0  0  0  0  0  0  0  0  0  0
    2.0020   -1.4210   -0.6100 N   0  0  0  0  0  0  0  0  0  0  0  0
    0.6290   -1.4640   -0.3370 C   0  0  0  0  0  0  0  0  0  0  0  0
   -0.1000   -0.2390   -0.0560 C   0  0  0  0  0  0  0  0  0  0  0  0
    0.2830    0.9420   -0.0540 O   0  0  0  0  0  0  0  0  0  0  0  0
   -1.5020   -0.4090    0.2790 N   0  0  0  0  0  0  0  0  0  0  0  0
   -2.3360    0.7200    0.5790 C   0  0  2  0  0  0  0  0  0  0  0  0
   -2.9330    0.6030    1.9380 C   0  0  0  0  0  0  0  0  0  0  0  0
   -2.7730   -0.3700    2.8220 C   0  0  0  0  0  0  0  0  0  0  0  0
   -3.5430   -0.0500    3.9870 N   0  0  0  0  0  0  0  0  0  0  0  0
   -4.2560    0.9550    3.6080 C   0  0  0  0  0  0  0  0  0  0  0  0
   -3.8060    1.5380    2.5500 N   0  0  0  0  0  0  0  0  0  0  0  0
   -3.4790    0.7590   -0.3850 C   0  0  0  0  0  0  0  0  0  0  0  0
   -3.7670    1.7280   -1.2290 C   0  0  0  0  0  0  0  0  0  0  0  0
   -4.9740    1.3530   -1.9860 C   0  0  0  0  0  0  0  0  0  0  0  0
   -5.3470    0.0330   -1.4640 C   0  0  0  0  0  0  0  0  0  0  0  0
   -4.4640   -0.2950   -0.5320 C   0  0  0  0  0  0  0  0  0  0  0  0
   -4.5220   -1.4750    0.1610 F   0  0  0  0  0  0  0  0  0  0  0  0
    2.8670   -0.4410   -0.1090 C   0  0  0  0  0  0  0  0  0  0  0  0
    2.6080    0.1230    1.0720 C   0  0  0  0  0  0  0  0  0  0  0  0
    3.5170    1.1280    1.5490 C   0  0  0  0  0  0  0  0  0  0  0  0
    3.2950    1.6860    2.7140 N   0  0  0  0  0  0  0  0  0  0  0  0
    2.2440    1.3260    3.4430 F   0  0  0  0  0  0  0  0  0  0  0  0
    4.7040    1.5900    0.8140 C   0  0  0  0  0  0  0  0  0  0  0  0
    4.9410    0.8100   -0.4090 C   0  0  0  0  0  0  0  0  0  0  0  0
    4.0930   -0.1140   -0.8180 C   0  0  0  0  0  0  0  0  0  0  0  0
    4.3970   -0.8280   -2.0270 N   0  0  0  0  0  0  0  0  0  0  0  0
  1  2  2  0
  2  3  1  0
  2 29  1  0
  3  4  1  0
  4  5  1  0
  4 21  1  0
  5  6  1  0
  6  7  2  0
  6  8  1  0
  9  8  1  6
  9 10  1  0
  9 15  1  0
 10 11  2  0
 10 14  1  0
 11 12  1  0
 12 13  2  0
 13 14  2  0
 15 16  2  0
 15 19  1  0
 16 17  1  0
 17 18  1  0
 18 19  2  0
 19 20  1  0
 21 22  2  0
 21 28  1  0
 22 23  1  0
 23 24  2  3
 23 26  1  0
 24 25  1  0
 26 27  1  0
 27 28  2  0
 28 29  1  0
M  END
