
     RDKit          3D

 33 36  0  0  0  0  0  0  0  0999 V2000
   -3.4070   -3.3560    1.7690 C   0  0  0  0  0  0  0  0  0  0  0  0
   -3.4080   -2.2600    0.7500 C   0  0  0  0  0  0  0  0  0  0  0  0
   -3.8160   -2.4640   -0.4540 N   0  0  0  0  0  0  0  0  0  0  0  0
   -4.2550   -3.7410   -0.7670 O   0  0  0  0  0  0  0  0  0  0  0  0
   -3.8100   -1.4520   -1.3720 O   0  0  0  0  0  0  0  0  0  0  0  0
   -3.3640   -0.1660   -1.0450 C   0  0  0  0  0  0  0  0  0  0  0  0
   -3.3700    0.7970   -1.9610 C   0  0  0  0  0  0  0  0  0  0  0  0
   -3.8740    0.4210   -3.3320 C   0  0  0  0  0  0  0  0  0  0  0  0
   -4.2570   -0.9050   -3.4070 O   0  0  0  0  0  0  0  0  0  0  0  0
   -2.9120    0.0300    0.3120 C   0  0  0  0  0  0  0  0  0  0  0  0
   -2.4200    1.3390    0.7770 C   0  0  0  0  0  0  0  0  0  0  0  0
   -2.0070    1.5600    1.9810 N   0  0  0  0  0  0  0  0  0  0  0  0
   -1.5920    2.8750    2.1750 N   0  0  0  0  0  0  0  0  0  0  0  0
   -1.6340    3.5120    0.9120 C   0  0  1  0  0  0  0  0  0  0  0  0
   -0.3580    3.8710    0.2540 C   0  0  0  0  0  0  0  0  0  0  0  0
    0.5960    2.8430    0.0390 N   0  0  0  0  0  0  0  0  0  0  0  0
    1.2660    2.0530    0.9940 C   0  0  0  0  0  0  0  0  0  0  0  0
    1.0090    2.2710    2.2040 O   0  0  0  0  0  0  0  0  0  0  0  0
    2.2320    1.0100    0.5990 C   0  0  0  0  0  0  0  0  0  0  0  0
    2.9110    0.2170    1.4830 C   0  0  0  0  0  0  0  0  0  0  0  0
    3.7420   -0.6620    0.7830 C   0  0  0  0  0  0  0  0  0  0  0  0
    3.5380   -0.3670   -0.5510 C   0  0  0  0  0  0  0  0  0  0  0  0
    2.6350    0.6300   -0.6200 N   0  0  0  0  0  0  0  0  0  0  0  0
    4.1840   -1.0200   -1.6770 C   0  0  0  0  0  0  0  0  0  0  0  0
    3.4650   -1.0040   -2.7350 O   0  0  0  0  0  0  0  0  0  0  0  0
    5.4710   -1.6820   -1.8450 C   0  0  0  0  0  0  0  0  0  0  0  0
    6.0600   -2.2770   -0.6480 C   0  0  0  0  0  0  0  0  0  0  0  0
    7.1660   -2.8340   -0.8470 O   0  0  0  0  0  0  0  0  0  0  0  0
    5.6310   -2.3610    0.7450 C   0  0  0  0  0  0  0  0  0  0  0  0
    6.2400   -3.1680    1.4660 O   0  0  0  0  0  0  0  0  0  0  0  0
    4.5910   -1.6280    1.3920 N   0  0  0  0  0  0  0  0  0  0  0  0
   -2.2940    2.5200    0.1100 O   0  0  0  0  0  0  0  0  0  0  0  0
   -2.9230   -0.9700    1.2030 C   0  0  0  0  0  0  0  0  0  0  0  0
  1  2  1  0
  2  3  2  0
  2 33  1  0
  3  4  1  0
  3  5  1  0
  5  6  1  0
  6  7  2  3
  6 10  1  0
  7  8  1  0
  8  9  1  0
 10 11  1  0
 10 33  2  0
 11 12  2  0
 11 32  1  0
 12 13  1  0
 13 14  1  0
 14 15  1  6
 14 32  1  0
 15 16  1  0
 16 17  1  0
 17 18  2  0
 17 19  1  0
 19 20  2  0
 19 23  1  0
 20 21  1  0
 21 22  2  0
 21 31  1  0
 22 23  1  0
 22 24  1  0
 24 25  2  0
 24 26  1  0
 26 27  1  0
 27 28  2  0
 27 29  1  0
 29 30  2  0
 29 31  1  0
M  CHG  2   3   1   4  -1
M  END
