
     RDKit          3D

 32 33  0  0  0  0  0  0  0  0999 V2000
   -2.7990   -0.5430    1.4630 O   0  0  0  0  0  0  0  0  0  0  0  0
   -2.6790   -0.1560    0.2720 C   0  0  0  0  0  0  0  0  0  0  0  0
   -1.3850   -0.1040   -0.2700 N   0  0  0  0  0  0  0  0  0  0  0  0
   -0.2010   -0.4990    0.5490 C   0  0  1  0  0  0  0  0  0  0  0  0
    0.2940   -1.7240   -0.1150 C   0  0  0  0  0  0  0  0  0  0  0  0
    1.4620   -2.4580    0.3340 C   0  0  0  0  0  0  0  0  0  0  0  0
    2.8340   -1.9230    0.2410 C   0  0  0  0  0  0  0  0  0  0  0  0
    3.2540   -1.6110   -1.1800 C   0  0  0  0  0  0  0  0  0  0  0  0
    4.6030   -1.1720   -1.2080 N   0  0  0  0  0  0  0  0  0  0  0  0
    5.0580   -0.0240   -0.5470 C   0  0  0  0  0  0  0  0  0  0  0  0
    4.2590    0.7050    0.1270 O   0  0  0  0  0  0  0  0  0  0  0  0
    6.4610    0.3970   -0.5940 C   0  0  0  0  0  0  0  0  0  0  0  0
    6.8720    1.5160    0.0980 C   0  0  0  0  0  0  0  0  0  0  0  0
    8.1760    1.9630    0.0930 C   0  0  0  0  0  0  0  0  0  0  0  0
    9.1180    1.2650   -0.6370 C   0  0  0  0  0  0  0  0  0  0  0  0
   11.1340    1.8700   -0.7070 I   0  0  0  0  0  0  0  0  0  0  0  0
    8.7160    0.1490   -1.3290 C   0  0  0  0  0  0  0  0  0  0  0  0
    7.3950   -0.2800   -1.3060 C   0  0  0  0  0  0  0  0  0  0  0  0
    0.6730    0.6320    0.7430 C   0  0  0  0  0  0  0  0  0  0  0  0
    0.4950    1.6540   -0.0270 O   0  0  0  0  0  0  0  0  0  0  0  0
    1.6840    0.7890    1.6530 O   0  0  0  0  0  0  0  0  0  0  0  0
   -3.8460    0.1980   -0.4330 N   0  0  0  0  0  0  0  0  0  0  0  0
   -5.1460    0.1170    0.2020 C   0  0  1  0  0  0  0  0  0  0  0  0
   -5.7390    1.4840    0.0850 C   0  0  0  0  0  0  0  0  0  0  0  0
   -7.0480    1.6790    0.7040 C   0  0  0  0  0  0  0  0  0  0  0  0
   -7.7740    0.8690    1.5440 C   0  0  0  0  0  0  0  0  0  0  0  0
   -8.9710    1.5360    1.8410 C   0  0  0  0  0  0  0  0  0  0  0  0
   -8.8830    2.7060    1.1580 C   0  0  0  0  0  0  0  0  0  0  0  0
   -7.7670    2.7910    0.4980 O   0  0  0  0  0  0  0  0  0  0  0  0
   -5.8990   -0.8920   -0.5980 C   0  0  0  0  0  0  0  0  0  0  0  0
   -5.2850   -1.4360   -1.5790 O   0  0  0  0  0  0  0  0  0  0  0  0
   -7.1800   -1.3060   -0.4020 O   0  0  0  0  0  0  0  0  0  0  0  0
  1  2  2  0
  2  3  1  0
  2 22  1  0
  3  4  1  0
  4  5  1  6
  4 19  1  0
  5  6  1  0
  6  7  1  0
  7  8  1  0
  8  9  1  0
  9 10  1  0
 10 11  2  0
 10 12  1  0
 12 13  2  0
 12 18  1  0
 13 14  1  0
 14 15  2  0
 15 16  1  0
 15 17  1  0
 17 18  2  0
 19 20  2  0
 19 21  1  0
 22 23  1  0
 23 24  1  6
 23 30  1  0
 24 25  1  0
 25 26  2  0
 25 29  1  0
 26 27  1  0
 27 28  2  0
 28 29  1  0
 30 31  2  0
 30 32  1  0
M  END
