
     RDKit          3D

 33 35  0  0  0  0  0  0  0  0999 V2000
    7.7900    2.5570    0.2140 C   0  0  0  0  0  0  0  0  0  0  0  0
    6.9760    1.3570    0.6030 C   0  0  2  0  0  0  0  0  0  0  0  0
    7.6790    0.5390    1.6800 C   0  0  0  0  0  0  0  0  0  0  0  0
    6.7900   -0.5810    1.9430 N   0  0  0  0  0  0  0  0  0  0  0  0
    6.2100   -1.3010    0.8730 C   0  0  0  0  0  0  0  0  0  0  0  0
    6.0540   -2.5380    0.8750 O   0  0  0  0  0  0  0  0  0  0  0  0
    5.7460   -0.5400   -0.3580 C   0  0  1  0  0  0  0  0  0  0  0  0
    4.4040   -0.0820   -0.1520 N   0  0  0  0  0  0  0  0  0  0  0  0
    3.2870   -0.8490   -0.5020 C   0  0  0  0  0  0  0  0  0  0  0  0
    3.4850   -1.9680   -1.0190 O   0  0  0  0  0  0  0  0  0  0  0  0
    1.8850   -0.4350   -0.3000 C   0  0  0  0  0  0  0  0  0  0  0  0
    1.5620    0.6950    0.1370 O   0  0  0  0  0  0  0  0  0  0  0  0
    0.8280   -1.3430   -0.6020 N   0  0  0  0  0  0  0  0  0  0  0  0
   -0.5210   -1.0860   -0.4500 N   0  0  0  0  0  0  0  0  0  0  0  0
   -1.3570   -1.3990   -1.5590 C   0  0  0  0  0  0  0  0  0  0  0  0
   -0.8260   -1.8790   -2.6280 O   0  0  0  0  0  0  0  0  0  0  0  0
   -2.8010   -1.2310   -1.6220 C   0  0  0  0  0  0  0  0  0  0  0  0
   -3.4650   -0.7290   -0.4680 N   0  0  1  0  0  0  0  0  0  0  0  0
   -3.1800   -1.4680    0.6500 O   0  0  0  0  0  0  0  0  0  0  0  0
   -3.3550    0.6110   -0.2490 O   0  0  0  0  0  0  0  0  0  0  0  0
   -4.3450    1.3570    0.3730 C   0  0  0  0  0  0  0  0  0  0  0  0
   -4.7870    1.1360    1.5940 C   0  0  0  0  0  0  0  0  0  0  0  0
   -5.8330    2.1510    1.8690 C   0  0  0  0  0  0  0  0  0  0  0  0
   -5.5270    3.1590    0.9780 O   0  0  0  0  0  0  0  0  0  0  0  0
   -5.0920    2.5220   -0.1850 C   0  0  0  0  0  0  0  0  0  0  0  0
   -4.8770   -0.9890   -0.6980 C   0  0  0  0  0  0  0  0  0  0  0  0
   -5.4730   -0.4350   -1.8230 C   0  0  0  0  0  0  0  0  0  0  0  0
   -6.7740   -0.6550   -2.0910 N   0  0  0  0  0  0  0  0  0  0  0  0
   -7.5150   -1.4050   -1.2910 C   0  0  0  0  0  0  0  0  0  0  0  0
   -6.9700   -1.9840   -0.1490 C   0  0  0  0  0  0  0  0  0  0  0  0
   -7.7760   -2.7610    0.6660 O   0  0  0  0  0  0  0  0  0  0  0  0
   -5.6420   -1.7560    0.1210 C   0  0  0  0  0  0  0  0  0  0  0  0
    6.7790    0.4800   -0.6130 C   0  0  0  0  0  0  0  0  0  0  0  0
  2  1  1  6
  2  3  1  0
  2 33  1  0
  3  4  1  0
  4  5  1  0
  5  6  2  0
  5  7  1  0
  7  8  1  1
  7 33  1  0
  8  9  1  0
  9 10  2  0
  9 11  1  0
 11 12  2  0
 11 13  1  0
 13 14  1  0
 14 15  1  0
 15 16  2  0
 15 17  1  0
 17 18  1  0
 18 19  1  1
 18 20  1  0
 18 26  1  0
 20 21  1  0
 21 22  2  0
 21 25  1  0
 22 23  1  0
 23 24  1  0
 24 25  1  0
 26 27  2  0
 26 32  1  0
 27 28  1  0
 28 29  2  0
 29 30  1  0
 30 31  1  0
 30 32  2  0
M  CHG  2  18   1  19  -1
M  END
