
     RDKit          3D

 33 36  0  0  0  0  0  0  0  0999 V2000
    4.0070    2.1860   -0.5120 C   0  0  0  0  0  0  0  0  0  0  0  0
    3.6570    0.8450    0.0620 C   0  0  1  0  0  0  0  0  0  0  0  0
    3.0360   -0.0380   -0.8120 O   0  0  0  0  0  0  0  0  0  0  0  0
    1.7630   -0.4900   -0.5090 C   0  0  0  0  0  0  0  0  0  0  0  0
    1.2300   -0.0620    0.5530 O   0  0  0  0  0  0  0  0  0  0  0  0
    1.0520   -1.4420   -1.3990 C   0  0  0  0  0  0  0  0  0  0  0  0
   -0.3190   -1.6660   -0.8140 C   0  0  0  0  0  0  0  0  0  0  0  0
   -1.3970   -0.9090   -1.2430 C   0  0  0  0  0  0  0  0  0  0  0  0
   -2.6370   -1.0960   -0.6960 C   0  0  0  0  0  0  0  0  0  0  0  0
   -3.7670   -0.2750   -1.1840 C   0  0  0  0  0  0  0  0  0  0  0  0
   -3.7600    0.6560   -2.1780 C   0  0  0  0  0  0  0  0  0  0  0  0
   -5.0350    1.1620   -2.2840 C   0  0  0  0  0  0  0  0  0  0  0  0
   -5.7910    0.5100   -1.3330 C   0  0  0  0  0  0  0  0  0  0  0  0
   -7.2150    0.6910   -1.0400 C   0  0  0  0  0  0  0  0  0  0  0  0
   -8.0880    1.5530   -1.6760 C   0  0  0  0  0  0  0  0  0  0  0  0
   -9.3400    1.4100   -1.0910 C   0  0  0  0  0  0  0  0  0  0  0  0
  -10.4000    2.0150   -1.3840 O   0  0  0  0  0  0  0  0  0  0  0  0
   -9.2090    0.4860   -0.1340 N   0  0  0  0  0  0  0  0  0  0  0  0
   -7.9430    0.0580   -0.1040 N   0  0  0  0  0  0  0  0  0  0  0  0
   -4.9900   -0.3250   -0.7160 O   0  0  0  0  0  0  0  0  0  0  0  0
   -2.7750   -2.0260    0.2590 N   0  0  0  0  0  0  0  0  0  0  0  0
   -1.7750   -2.7930    0.7190 C   0  0  0  0  0  0  0  0  0  0  0  0
   -1.9590   -3.6550    1.6220 O   0  0  0  0  0  0  0  0  0  0  0  0
   -0.5020   -2.6090    0.1650 C   0  0  0  0  0  0  0  0  0  0  0  0
    4.8940    0.1630    0.5220 C   0  0  0  0  0  0  0  0  0  0  0  0
    5.3480   -0.8900    0.0370 O   0  0  0  0  0  0  0  0  0  0  0  0
    5.6600    0.6410    1.5510 N   0  0  0  0  0  0  0  0  0  0  0  0
    6.8430    0.0830    2.0690 C   0  0  0  0  0  0  0  0  0  0  0  0
    7.2690    0.7940    3.0630 N   0  0  0  0  0  0  0  0  0  0  0  0
    8.3960    0.2830    3.5740 O   0  0  0  0  0  0  0  0  0  0  0  0
    8.3530   -1.0600    3.3510 N   0  0  1  0  0  0  0  0  0  0  0  0
    7.3630   -1.6050    4.0520 O   0  0  0  0  0  0  0  0  0  0  0  0
    7.8390   -0.9540    1.9520 C   0  0  0  0  0  0  0  0  0  0  0  0
  2  1  1  6
  2  3  1  0
  2 25  1  0
  3  4  1  0
  4  5  2  0
  4  6  1  0
  6  7  1  0
  7  8  1  0
  7 24  2  0
  8  9  2  0
  9 10  1  0
  9 21  1  0
 10 11  2  0
 10 20  1  0
 11 12  1  0
 12 13  2  0
 13 14  1  0
 13 20  1  0
 14 15  2  0
 14 19  1  0
 15 16  1  0
 16 17  2  0
 16 18  1  0
 18 19  1  0
 21 22  1  0
 22 23  2  0
 22 24  1  0
 25 26  2  0
 25 27  1  0
 27 28  1  0
 28 29  2  0
 28 33  1  0
 29 30  1  0
 30 31  1  0
 31 32  1  1
 31 33  1  0
M  CHG  2  31   1  32  -1
M  END
