
     RDKit          3D

 33 36  0  0  0  0  0  0  0  0999 V2000
   -1.3020    4.5100   -0.0460 C   0  0  0  0  0  0  0  0  0  0  0  0
   -1.6260    3.0670   -0.0830 C   0  0  0  0  0  0  0  0  0  0  0  0
   -1.7910    2.5320   -1.1610 O   0  0  0  0  0  0  0  0  0  0  0  0
   -1.7480    2.2760    1.2070 C   0  0  1  0  0  0  0  0  0  0  0  0
   -3.0260    2.9000    1.8510 C   0  0  0  0  0  0  0  0  0  0  0  0
   -2.0790    0.8770    0.8970 C   0  0  0  0  0  0  0  0  0  0  0  0
   -3.3820    0.4520    0.8820 N   0  0  0  0  0  0  0  0  0  0  0  0
   -3.4240   -0.8460    0.5570 C   0  0  0  0  0  0  0  0  0  0  0  0
   -4.6280   -1.6170    0.4490 N   0  0  0  0  0  0  0  0  0  0  0  0
   -2.1560   -1.2370    0.3690 N   0  0  0  0  0  0  0  0  0  0  0  0
   -1.7110   -2.5630   -0.0040 C   0  0  2  0  0  0  0  0  0  0  0  0
   -1.2030   -2.5430   -1.3580 N   0  0  0  0  0  0  0  0  0  0  0  0
   -2.0820   -3.1850   -2.3210 C   0  0  0  0  0  0  0  0  0  0  0  0
   -3.4200   -3.0110   -2.0650 O   0  0  0  0  0  0  0  0  0  0  0  0
   -3.7050   -3.6940   -0.9270 O   0  0  0  0  0  0  0  0  0  0  0  0
   -2.8470   -3.5220    0.1270 C   0  0  0  0  0  0  0  0  0  0  0  0
   -2.9740   -4.1470    1.2200 O   0  0  0  0  0  0  0  0  0  0  0  0
   -1.2960   -0.1770    0.5760 C   0  0  0  0  0  0  0  0  0  0  0  0
    0.1490   -0.2410    0.4520 C   0  0  0  0  0  0  0  0  0  0  0  0
    0.7010   -1.3980    0.3640 O   0  0  0  0  0  0  0  0  0  0  0  0
    1.0510    0.8250    0.4120 N   0  0  0  0  0  0  0  0  0  0  0  0
    2.4530    0.6240    0.2750 C   0  0  0  0  0  0  0  0  0  0  0  0
    3.2850    1.5870    0.8230 C   0  0  0  0  0  0  0  0  0  0  0  0
    4.6520    1.4950    0.7140 C   0  0  0  0  0  0  0  0  0  0  0  0
    5.1900    0.4170    0.0430 C   0  0  0  0  0  0  0  0  0  0  0  0
    6.5630    0.2720   -0.0970 C   0  0  0  0  0  0  0  0  0  0  0  0
    7.3260    1.1270    0.3890 O   0  0  0  0  0  0  0  0  0  0  0  0
    7.0380   -0.7970   -0.7600 N   0  0  0  0  0  0  0  0  0  0  0  0
    6.2080   -1.7190   -1.2840 C   0  0  0  0  0  0  0  0  0  0  0  0
    6.6660   -2.8370   -1.9760 O   0  0  0  0  0  0  0  0  0  0  0  0
    4.9310   -1.5680   -1.1440 O   0  0  0  0  0  0  0  0  0  0  0  0
    4.3900   -0.5440   -0.5060 C   0  0  0  0  0  0  0  0  0  0  0  0
    3.0090   -0.4280   -0.3820 C   0  0  0  0  0  0  0  0  0  0  0  0
  1  2  1  0
  2  3  2  0
  2  4  1  0
  4  5  1  1
  4  6  1  0
  6  7  1  0
  6 18  2  0
  7  8  2  0
  8  9  1  0
  8 10  1  0
 11 10  1  6
 10 18  1  0
 11 12  1  0
 11 16  1  0
 12 13  1  0
 13 14  1  0
 14 15  1  0
 15 16  1  0
 16 17  2  0
 18 19  1  0
 19 20  2  0
 19 21  1  0
 21 22  1  0
 22 23  2  0
 22 33  1  0
 23 24  1  0
 24 25  2  0
 25 26  1  0
 25 32  1  0
 26 27  2  0
 26 28  1  0
 28 29  2  0
 29 30  1  0
 29 31  1  0
 31 32  1  0
 32 33  2  0
M  CHG  2  12   1  30  -1
M  END
