
     RDKit          3D

 33 36  0  0  0  0  0  0  0  0999 V2000
    8.0330   -2.2980    0.9150 C   0  0  0  0  0  0  0  0  0  0  0  0
    7.5440   -0.9000    1.1500 C   0  0  0  0  0  0  0  0  0  0  0  0
    8.1810    0.1160    1.6410 O   0  0  0  0  0  0  0  0  0  0  0  0
    7.4310    1.1790    1.6980 N   0  0  0  0  0  0  0  0  0  0  0  0
    6.2060    0.8710    1.2160 C   0  0  0  0  0  0  0  0  0  0  0  0
    6.2650   -0.4610    0.8610 C   0  0  0  0  0  0  0  0  0  0  0  0
    5.1820   -1.2350    0.2940 C   0  0  0  0  0  0  0  0  0  0  0  0
    5.5450   -2.3600   -0.1490 O   0  0  0  0  0  0  0  0  0  0  0  0
    3.8280   -0.8960    0.1820 O   0  0  0  0  0  0  0  0  0  0  0  0
    3.3170    0.3960    0.0000 C   0  0  0  0  0  0  0  0  0  0  0  0
    2.0960    0.3630   -0.6870 C   0  0  0  0  0  0  0  0  0  0  0  0
    1.4340    1.5250   -0.9640 C   0  0  0  0  0  0  0  0  0  0  0  0
    0.1910    1.6050   -1.6360 N   0  0  0  0  0  0  0  0  0  0  0  0
   -0.6300    0.5180   -1.9050 C   0  0  0  0  0  0  0  0  0  0  0  0
   -0.3570   -0.6570   -1.5690 O   0  0  0  0  0  0  0  0  0  0  0  0
   -1.8830    0.6700   -2.6070 N   0  0  0  0  0  0  0  0  0  0  0  0
   -2.7320   -0.4590   -2.8690 C   0  0  0  0  0  0  0  0  0  0  0  0
   -3.2250   -1.0390   -1.6150 C   0  0  0  0  0  0  0  0  0  0  0  0
   -3.9420   -2.0930   -1.6840 O   0  0  0  0  0  0  0  0  0  0  0  0
   -2.9640   -0.5070   -0.3440 N   0  0  0  0  0  0  0  0  0  0  0  0
   -3.4730   -1.1230    0.8820 C   0  0  0  0  0  0  0  0  0  0  0  0
   -4.9620   -1.1360    0.8420 C   0  0  1  0  0  0  0  0  0  0  0  0
   -5.4990   -1.7830    2.1300 C   0  0  0  0  0  0  0  0  0  0  0  0
   -6.8330   -1.2530    2.1320 O   0  0  0  0  0  0  0  0  0  0  0  0
   -6.8510   -0.0740    1.4030 C   0  0  0  0  0  0  0  0  0  0  0  0
   -7.8590    0.6350    1.1650 O   0  0  0  0  0  0  0  0  0  0  0  0
   -5.5300    0.2090    0.9620 N   0  0  2  0  0  0  0  0  0  0  0  0
   -5.5300    0.9090   -0.3100 C   0  0  0  0  0  0  0  0  0  0  0  0
   -4.8230    0.8790    1.8810 O   0  0  0  0  0  0  0  0  0  0  0  0
    2.0500    2.7100   -0.5240 C   0  0  0  0  0  0  0  0  0  0  0  0
    3.2410    2.7470    0.1460 C   0  0  0  0  0  0  0  0  0  0  0  0
    3.8990    1.5720    0.4210 C   0  0  0  0  0  0  0  0  0  0  0  0
    5.1250    1.7910    1.1250 N   0  0  0  0  0  0  0  0  0  0  0  0
  1  2  1  0
  2  3  1  0
  2  6  2  0
  3  4  1  0
  4  5  2  0
  5  6  1  0
  5 33  1  0
  6  7  1  0
  7  8  2  0
  7  9  1  0
  9 10  1  0
 10 11  2  0
 10 32  1  0
 11 12  1  0
 12 13  1  0
 12 30  2  0
 13 14  1  0
 14 15  2  0
 14 16  1  0
 16 17  1  0
 17 18  1  0
 18 19  2  0
 18 20  1  0
 20 21  1  0
 22 21  1  1
 22 23  1  0
 22 27  1  0
 23 24  1  0
 24 25  1  0
 25 26  2  0
 25 27  1  0
 27 28  1  6
 27 29  1  0
 30 31  1  0
 31 32  2  0
 32 33  1  0
M  CHG  2  27   1  29  -1
M  END
