
     RDKit          3D

 32 33  0  0  0  0  0  0  0  0999 V2000
   -7.9160   -1.2590   -1.8630 C   0  0  0  0  0  0  0  0  0  0  0  0
   -7.1870   -0.9630   -0.5480 C   0  0  2  0  0  0  0  0  0  0  0  0
   -7.7850   -1.8830    0.4840 C   0  0  0  0  0  0  0  0  0  0  0  0
   -7.3670    0.4810   -0.2470 C   0  0  0  0  0  0  0  0  0  0  0  0
   -6.3200    1.1080    0.5910 C   0  0  0  0  0  0  0  0  0  0  0  0
   -5.3440    0.1910    1.2230 C   0  0  0  0  0  0  0  0  0  0  0  0
   -4.8490   -0.9150    0.3490 C   0  0  2  0  0  0  0  0  0  0  0  0
   -4.8020   -2.1210    1.1970 N   0  0  0  0  0  0  0  0  0  0  0  0
   -3.4320   -0.7120   -0.1370 C   0  0  0  0  0  0  0  0  0  0  0  0
   -3.2420    0.5210   -0.9350 C   0  0  0  0  0  0  0  0  0  0  0  0
   -1.8700    0.6340   -1.3550 N   0  0  0  0  0  0  0  0  0  0  0  0
   -0.8040    0.7360   -0.3890 C   0  0  0  0  0  0  0  0  0  0  0  0
   -1.0580    0.7330    0.8340 O   0  0  0  0  0  0  0  0  0  0  0  0
    0.6060    0.8470   -0.8250 C   0  0  0  0  0  0  0  0  0  0  0  0
    1.5060    1.1060    0.3190 C   0  0  2  0  0  0  0  0  0  0  0  0
    1.1720    2.4100    0.9920 C   0  0  0  0  0  0  0  0  0  0  0  0
    2.1390    2.6020    2.1500 C   0  0  0  0  0  0  0  0  0  0  0  0
    1.8190    3.8720    2.8110 N   0  0  0  0  0  0  0  0  0  0  0  0
    2.9080    1.1840   -0.0570 N   0  0  0  0  0  0  0  0  0  0  0  0
    3.2800    0.2330   -1.0640 C   0  0  0  0  0  0  0  0  0  0  0  0
    4.7340   -0.0360   -0.9110 C   0  0  0  0  0  0  0  0  0  0  0  0
    5.1880   -1.0500   -0.0980 C   0  0  0  0  0  0  0  0  0  0  0  0
    6.5150   -1.3300    0.0690 C   0  0  0  0  0  0  0  0  0  0  0  0
    7.4720   -0.5700   -0.6010 C   0  0  0  0  0  0  0  0  0  0  0  0
    8.8240   -0.8210   -0.4590 O   0  0  0  0  0  0  0  0  0  0  0  0
    9.3490   -1.8350    0.3520 C   0  0  0  0  0  0  0  0  0  0  0  0
   10.8220   -1.8530    0.2960 C   0  0  0  0  0  0  0  0  0  0  0  0
   11.5320   -0.9090   -0.5140 N   0  0  0  0  0  0  0  0  0  0  0  0
   11.4980   -2.6860    0.9500 O   0  0  0  0  0  0  0  0  0  0  0  0
    7.0460    0.4520   -1.4230 C   0  0  0  0  0  0  0  0  0  0  0  0
    5.6980    0.7070   -1.5690 C   0  0  0  0  0  0  0  0  0  0  0  0
   -5.7260   -1.2430   -0.8070 C   0  0  0  0  0  0  0  0  0  0  0  0
  2  1  1  6
  2  3  1  0
  2  4  1  0
  2 32  1  0
  4  5  1  0
  5  6  1  0
  6  7  1  0
  7  8  1  1
  7  9  1  0
  7 32  1  0
  9 10  1  0
 10 11  1  0
 11 12  1  0
 12 13  2  0
 12 14  1  0
 15 14  1  6
 15 16  1  0
 15 19  1  0
 16 17  1  0
 17 18  1  0
 19 20  1  0
 20 21  1  0
 21 22  2  0
 21 31  1  0
 22 23  1  0
 23 24  2  0
 24 25  1  0
 24 30  1  0
 25 26  1  0
 26 27  1  0
 27 28  1  0
 27 29  2  0
 30 31  2  0
M  CHG  2   8   1  19   1
M  END
