
     RDKit          3D

 33 34  0  0  0  0  0  0  0  0999 V2000
   -6.5130   -1.7610   -3.5790 C   0  0  0  0  0  0  0  0  0  0  0  0
   -5.9880   -2.7640   -2.6880 N   0  0  0  0  0  0  0  0  0  0  0  0
   -5.0580   -2.1290   -1.7650 C   0  0  0  0  0  0  0  0  0  0  0  0
   -5.8190   -1.2100   -0.8350 C   0  0  1  0  0  0  0  0  0  0  0  0
   -6.7530   -1.9250   -0.1020 O   0  0  0  0  0  0  0  0  0  0  0  0
   -4.8280   -0.4870    0.0060 C   0  0  0  0  0  0  0  0  0  0  0  0
   -3.4870   -0.7780   -0.0770 C   0  0  0  0  0  0  0  0  0  0  0  0
   -2.5310   -0.1050    0.7100 C   0  0  0  0  0  0  0  0  0  0  0  0
   -1.1650   -0.4540    0.5570 N   0  0  0  0  0  0  0  0  0  0  0  0
   -0.1320   -0.0510    1.4130 C   0  0  0  0  0  0  0  0  0  0  0  0
   -0.3550    0.6680    2.4170 O   0  0  0  0  0  0  0  0  0  0  0  0
    1.2210   -0.4550    1.1580 N   0  0  0  0  0  0  0  0  0  0  0  0
    2.2780   -0.0290    2.0460 C   0  0  0  0  0  0  0  0  0  0  0  0
    2.4200    1.4700    2.0790 C   0  0  0  0  0  0  0  0  0  0  0  0
    2.7310    2.0510    0.7430 C   0  0  1  0  0  0  0  0  0  0  0  0
    2.8520    3.4240    0.8050 O   0  0  0  0  0  0  0  0  0  0  0  0
    3.9540    1.4430    0.1810 C   0  0  0  0  0  0  0  0  0  0  0  0
    4.1050    1.3140   -1.2030 C   0  0  0  0  0  0  0  0  0  0  0  0
    5.2220    0.7650   -1.7640 C   0  0  0  0  0  0  0  0  0  0  0  0
    6.2900    0.2970   -0.9730 C   0  0  0  0  0  0  0  0  0  0  0  0
    7.4700   -0.2390   -1.5960 C   0  0  0  0  0  0  0  0  0  0  0  0
    7.5180   -0.0910   -2.8850 O   0  0  0  0  0  0  0  0  0  0  0  0
    8.6010   -0.9170   -0.9750 C   0  0  2  0  0  0  0  0  0  0  0  0
    9.2240   -1.8590   -2.0220 C   0  0  0  0  0  0  0  0  0  0  0  0
    8.3640   -1.6680    0.2130 N   0  0  0  0  0  0  0  0  0  0  0  0
    6.1570    0.4180    0.3850 C   0  0  0  0  0  0  0  0  0  0  0  0
    4.9930    0.9880    0.9280 C   0  0  0  0  0  0  0  0  0  0  0  0
   -3.0330    0.8480    1.5520 C   0  0  0  0  0  0  0  0  0  0  0  0
   -4.4030    1.1450    1.6370 C   0  0  0  0  0  0  0  0  0  0  0  0
   -5.3220    0.4780    0.8610 C   0  0  0  0  0  0  0  0  0  0  0  0
   -6.7670    0.7400    0.9010 C   0  0  0  0  0  0  0  0  0  0  0  0
   -7.1090    1.7900    1.8480 N   0  0  0  0  0  0  0  0  0  0  0  0
   -6.6990    3.0980    1.4190 C   0  0  0  0  0  0  0  0  0  0  0  0
  1  2  1  0
  2  3  1  0
  3  4  1  0
  4  5  1  1
  4  6  1  0
  6  7  2  0
  6 30  1  0
  7  8  1  0
  8  9  1  0
  8 28  2  0
  9 10  1  0
 10 11  2  0
 10 12  1  0
 12 13  1  0
 13 14  1  0
 14 15  1  0
 15 16  1  1
 15 17  1  0
 17 18  2  0
 17 27  1  0
 18 19  1  0
 19 20  2  0
 20 21  1  0
 20 26  1  0
 21 22  2  0
 21 23  1  0
 23 24  1  6
 23 25  1  0
 26 27  2  0
 28 29  1  0
 29 30  2  0
 30 31  1  0
 31 32  1  0
 32 33  1  0
M  CHG  2  25   1  32   1
M  END
