
     RDKit          3D

 32 34  0  0  0  0  0  0  0  0999 V2000
   -4.7120   -4.5590    1.8760 C   0  0  0  0  0  0  0  0  0  0  0  0
   -4.3240   -3.1710    1.5590 C   0  0  0  0  0  0  0  0  0  0  0  0
   -3.4970   -2.8770    0.5340 C   0  0  0  0  0  0  0  0  0  0  0  0
   -3.1550   -1.5060    0.2750 C   0  0  0  0  0  0  0  0  0  0  0  0
   -2.3610   -1.1410   -0.7000 C   0  0  0  0  0  0  0  0  0  0  0  0
   -1.7750   -2.0780   -1.5810 N   0  0  0  0  0  0  0  0  0  0  0  0
   -0.9290   -1.6040   -2.6280 C   0  0  0  0  0  0  0  0  0  0  0  0
   -0.6630   -0.3220   -2.8130 C   0  0  0  0  0  0  0  0  0  0  0  0
    0.2140    0.0650   -3.9190 C   0  0  0  0  0  0  0  0  0  0  0  0
    1.5010    0.6520   -3.4340 C   0  0  0  0  0  0  0  0  0  0  0  0
    2.2810   -0.3090   -2.5920 C   0  0  0  0  0  0  0  0  0  0  0  0
    1.8320   -1.4160   -2.2040 O   0  0  0  0  0  0  0  0  0  0  0  0
    3.6170    0.0490   -2.2070 N   0  0  0  0  0  0  0  0  0  0  0  0
    4.4530   -0.8000   -1.4000 C   0  0  0  0  0  0  0  0  0  0  0  0
    3.9370   -1.0810   -0.0310 C   0  0  0  0  0  0  0  0  0  0  0  0
    3.7970    0.0940    0.7880 N   0  0  0  0  0  0  0  0  0  0  0  0
    4.7960    0.6620    1.6640 C   0  0  0  0  0  0  0  0  0  0  0  0
    5.8370    0.0630    2.0230 O   0  0  0  0  0  0  0  0  0  0  0  0
    4.3850    2.0200    2.0430 C   0  0  0  0  0  0  0  0  0  0  0  0
    2.9080    2.1000    1.7030 C   0  0  0  0  0  0  0  0  0  0  0  0
    2.6320    0.8960    0.8630 C   0  0  0  0  0  0  0  0  0  0  0  0
    1.5070    0.7140    0.3460 O   0  0  0  0  0  0  0  0  0  0  0  0
   -1.2640    0.6320   -1.9110 C   0  0  0  0  0  0  0  0  0  0  0  0
   -1.0150    2.0830   -2.0960 C   0  0  0  0  0  0  0  0  0  0  0  0
   -2.0660    0.2780   -0.9090 C   0  0  0  0  0  0  0  0  0  0  0  0
   -2.6330    1.2630   -0.0550 N   0  0  0  0  0  0  0  0  0  0  0  0
   -2.2550    1.4760    1.2880 C   0  0  0  0  0  0  0  0  0  0  0  0
   -2.8240    2.5070    2.0320 C   0  0  0  0  0  0  0  0  0  0  0  0
   -2.4660    2.7270    3.3410 C   0  0  0  0  0  0  0  0  0  0  0  0
   -1.5280    1.9160    3.9310 C   0  0  0  0  0  0  0  0  0  0  0  0
   -0.9350    0.8800    3.2360 C   0  0  0  0  0  0  0  0  0  0  0  0
   -1.3200    0.6900    1.9240 C   0  0  0  0  0  0  0  0  0  0  0  0
  1  2  1  0
  2  3  2  3
  3  4  1  0
  4  5  2  3
  5  6  1  0
  5 25  1  0
  6  7  1  0
  7  8  2  0
  8  9  1  0
  8 23  1  0
  9 10  1  0
 10 11  1  0
 11 12  2  0
 11 13  1  0
 13 14  1  0
 14 15  1  0
 15 16  1  0
 16 17  1  0
 16 21  1  0
 17 18  2  0
 17 19  1  0
 19 20  1  0
 20 21  1  0
 21 22  2  0
 23 24  1  0
 23 25  2  0
 25 26  1  0
 26 27  1  0
 27 28  2  0
 27 32  1  0
 28 29  1  0
 29 30  2  0
 30 31  1  0
 31 32  2  0
M  END
