
     RDKit          3D

 33 34  0  0  0  0  0  0  0  0999 V2000
   -7.0090   -2.7420   -0.2440 C   0  0  0  0  0  0  0  0  0  0  0  0
   -6.5690   -1.4790   -0.2970 O   0  0  0  0  0  0  0  0  0  0  0  0
   -6.1280   -0.7920    0.7790 C   0  0  0  0  0  0  0  0  0  0  0  0
   -4.9450   -1.2710    1.5180 C   0  0  1  0  0  0  0  0  0  0  0  0
   -5.2410   -2.6010    2.0910 N   0  0  0  0  0  0  0  0  0  0  0  0
   -3.6200   -1.2660    0.9030 C   0  0  0  0  0  0  0  0  0  0  0  0
   -2.9790    0.0410    0.4670 C   0  0  2  0  0  0  0  0  0  0  0  0
   -3.8780    0.6720   -0.5960 C   0  0  0  0  0  0  0  0  0  0  0  0
   -1.7400   -0.2840   -0.1550 N   0  0  0  0  0  0  0  0  0  0  0  0
   -0.5640    0.4330    0.1380 C   0  0  2  0  0  0  0  0  0  0  0  0
   -0.5340    1.8520   -0.3840 C   0  0  0  0  0  0  0  0  0  0  0  0
   -0.6320    1.9420   -1.8070 N   0  0  0  0  0  0  0  0  0  0  0  0
   -0.6200    3.2200   -2.4190 C   0  0  0  0  0  0  0  0  0  0  0  0
   -0.5180    4.3910   -1.6880 C   0  0  0  0  0  0  0  0  0  0  0  0
   -0.5050    5.6380   -2.2490 C   0  0  0  0  0  0  0  0  0  0  0  0
   -0.5970    5.7630   -3.6120 C   0  0  0  0  0  0  0  0  0  0  0  0
   -0.6990    4.5920   -4.3510 C   0  0  0  0  0  0  0  0  0  0  0  0
   -0.7100    3.3700   -3.7680 N   0  0  0  0  0  0  0  0  0  0  0  0
    0.5990   -0.3640   -0.4950 C   0  0  1  0  0  0  0  0  0  0  0  0
    1.9030    0.3440   -0.3850 C   0  0  0  0  0  0  0  0  0  0  0  0
    2.8590   -0.5600    0.1860 N   0  0  0  0  0  0  0  0  0  0  0  0
    4.1090   -0.8030   -0.4360 C   0  0  0  0  0  0  0  0  0  0  0  0
    5.2570   -0.6450    0.1960 C   0  0  0  0  0  0  0  0  0  0  0  0
    6.5240   -0.9090   -0.4890 C   0  0  0  0  0  0  0  0  0  0  0  0
    7.3370   -1.9930    0.1870 C   0  0  1  0  0  0  0  0  0  0  0  0
    8.6100   -2.1680   -0.6120 C   0  0  0  0  0  0  0  0  0  0  0  0
    7.6700   -1.5070    1.5900 C   0  0  0  0  0  0  0  0  0  0  0  0
    2.5430   -1.2290    1.4140 C   0  0  0  0  0  0  0  0  0  0  0  0
    1.1230   -1.7440    1.3150 C   0  0  0  0  0  0  0  0  0  0  0  0
    0.6530   -1.6450    0.0250 O   0  0  0  0  0  0  0  0  0  0  0  0
   -2.9450    0.9150    1.6450 C   0  0  0  0  0  0  0  0  0  0  0  0
   -1.8960    1.2420    2.5010 N   0  0  0  0  0  0  0  0  0  0  0  0
   -4.0730    1.4750    1.9450 O   0  0  0  0  0  0  0  0  0  0  0  0
  1  2  1  0
  2  3  1  0
  3  4  1  0
  4  5  1  6
  4  6  1  0
  6  7  1  0
  7  8  1  6
  7  9  1  0
  7 31  1  0
  9 10  1  0
 10 11  1  6
 10 19  1  0
 11 12  1  0
 12 13  1  0
 13 14  2  0
 13 18  1  0
 14 15  1  0
 15 16  2  0
 16 17  1  0
 17 18  2  0
 19 20  1  1
 19 30  1  0
 20 21  1  0
 21 22  1  0
 21 28  1  0
 22 23  2  3
 23 24  1  0
 24 25  1  0
 25 26  1  6
 25 27  1  0
 28 29  1  0
 29 30  1  0
 31 32  1  0
 31 33  2  0
M  CHG  2   5   1   9   1
M  END
