
     RDKit          3D

 33 34  0  0  0  0  0  0  0  0999 V2000
    0.6090   -7.1680   -1.4640 C   0  0  0  0  0  0  0  0  0  0  0  0
    0.1340   -5.7540   -1.2900 C   0  0  0  0  0  0  0  0  0  0  0  0
   -1.2100   -5.4760   -1.1860 C   0  0  0  0  0  0  0  0  0  0  0  0
   -1.6590   -4.1590   -1.0240 C   0  0  0  0  0  0  0  0  0  0  0  0
   -0.7840   -3.1040   -0.9630 C   0  0  0  0  0  0  0  0  0  0  0  0
   -1.2210   -1.6900   -0.7920 C   0  0  1  0  0  0  0  0  0  0  0  0
   -2.6770   -1.6030   -0.4570 C   0  0  0  0  0  0  0  0  0  0  0  0
   -3.1220   -0.1900   -0.2750 C   0  0  0  0  0  0  0  0  0  0  0  0
   -2.2620    0.6980   -0.4080 O   0  0  0  0  0  0  0  0  0  0  0  0
   -4.4520    0.1480    0.0360 N   0  0  0  0  0  0  0  0  0  0  0  0
   -4.9940    1.4250    0.2310 C   0  0  0  0  0  0  0  0  0  0  0  0
   -4.3050    2.5990    0.1550 C   0  0  0  0  0  0  0  0  0  0  0  0
   -4.8930    3.8520    0.3590 C   0  0  0  0  0  0  0  0  0  0  0  0
   -4.0750    5.0890    0.2600 C   0  0  0  0  0  0  0  0  0  0  0  0
   -6.2270    3.9240    0.6510 C   0  0  0  0  0  0  0  0  0  0  0  0
   -6.8100    5.1630    0.8520 O   0  0  0  0  0  0  0  0  0  0  0  0
   -6.9310    2.7440    0.7300 C   0  0  0  0  0  0  0  0  0  0  0  0
   -6.3530    1.5090    0.5290 C   0  0  0  0  0  0  0  0  0  0  0  0
   -7.1580    0.3370    0.6300 N   0  0  0  0  0  0  0  0  0  0  0  0
   -0.4120   -1.0570    0.2160 N   0  0  0  0  0  0  0  0  0  0  0  0
    0.5480   -0.0340   -0.1070 C   0  0  0  0  0  0  0  0  0  0  0  0
    0.6590    0.2890   -1.3080 O   0  0  0  0  0  0  0  0  0  0  0  0
    1.3080    0.5350    1.0010 C   0  0  0  0  0  0  0  0  0  0  0  0
    2.3590    1.5410    0.6260 C   0  0  0  0  0  0  0  0  0  0  0  0
    3.3810    0.9120   -0.2450 C   0  0  0  0  0  0  0  0  0  0  0  0
    4.4390    1.8050   -0.6530 N   0  0  0  0  0  0  0  0  0  0  0  0
    5.0450    2.5330    0.4060 C   0  0  0  0  0  0  0  0  0  0  0  0
    5.8690    1.7550    1.3680 C   0  0  1  0  0  0  0  0  0  0  0  0
    5.1960    0.7530    2.0420 O   0  0  0  0  0  0  0  0  0  0  0  0
    7.1570    1.2230    0.8380 C   0  0  0  0  0  0  0  0  0  0  0  0
    7.0620    0.1300   -0.0700 N   0  0  0  0  0  0  0  0  0  0  0  0
    0.5790   -3.4090   -1.0700 C   0  0  0  0  0  0  0  0  0  0  0  0
    1.0180   -4.7030   -1.2290 C   0  0  0  0  0  0  0  0  0  0  0  0
  1  2  1  0
  2  3  2  0
  2 33  1  0
  3  4  1  0
  4  5  2  0
  5  6  1  0
  5 32  1  0
  6  7  1  1
  6 20  1  0
  7  8  1  0
  8  9  2  0
  8 10  1  0
 10 11  1  0
 11 12  2  0
 11 18  1  0
 12 13  1  0
 13 14  1  0
 13 15  2  0
 15 16  1  0
 15 17  1  0
 17 18  2  0
 18 19  1  0
 20 21  1  0
 21 22  2  0
 21 23  1  0
 23 24  1  0
 24 25  1  0
 25 26  1  0
 26 27  1  0
 27 28  1  0
 28 29  1  6
 28 30  1  0
 30 31  1  0
 32 33  2  0
M  CHG  2  26   1  31   1
M  END
