
     RDKit          3D

 33 33  0  0  0  0  0  0  0  0999 V2000
   -2.2170   -3.1100   -2.4630 C   0  0  0  0  0  0  0  0  0  0  0  0
   -2.0000   -1.6280   -2.5160 C   0  0  0  0  0  0  0  0  0  0  0  0
   -2.0640   -1.0970   -1.0790 N   0  0  0  0  0  0  0  0  0  0  0  0
   -0.8330   -1.0810   -0.3970 C   0  0  0  0  0  0  0  0  0  0  0  0
    0.1710   -1.4580   -1.1070 O   0  0  0  0  0  0  0  0  0  0  0  0
   -0.5680   -0.7120    0.9500 C   0  0  0  0  0  0  0  0  0  0  0  0
    0.5360   -0.5970    1.6250 C   0  0  0  0  0  0  0  0  0  0  0  0
    1.8840   -0.7890    1.2310 C   0  0  0  0  0  0  0  0  0  0  0  0
    2.4170   -0.5360    0.0110 C   0  0  0  0  0  0  0  0  0  0  0  0
    3.7300   -0.8760   -0.3610 C   0  0  0  0  0  0  0  0  0  0  0  0
    4.1570   -0.5520   -1.6690 N   0  0  0  0  0  0  0  0  0  0  0  0
    4.5350   -1.5030    0.5640 C   0  0  0  0  0  0  0  0  0  0  0  0
    5.8980   -1.9030    0.2310 C   0  0  0  0  0  0  0  0  0  0  0  0
    6.8830   -0.6990    0.1930 C   0  0  0  0  0  0  0  0  0  0  0  0
    6.8950   -0.0710    1.5210 C   0  0  0  0  0  0  0  0  0  0  0  0
    7.7410    1.0770    1.8020 C   0  0  0  0  0  0  0  0  0  0  0  0
    8.5850    1.7770    1.1320 C   0  0  0  0  0  0  0  0  0  0  0  0
    9.0320    1.6630   -0.2580 C   0  0  0  0  0  0  0  0  0  0  0  0
   10.4970    1.4270   -0.3100 N   0  0  0  0  0  0  0  0  0  0  0  0
    3.9830   -1.7520    1.8030 C   0  0  0  0  0  0  0  0  0  0  0  0
    2.7130   -1.4290    2.1770 C   0  0  0  0  0  0  0  0  0  0  0  0
    2.2870   -1.7330    3.4400 O   0  0  0  0  0  0  0  0  0  0  0  0
   -3.2890   -0.6640   -0.6450 C   0  0  0  0  0  0  0  0  0  0  0  0
   -3.6570   -0.0080    0.5890 C   0  0  0  0  0  0  0  0  0  0  0  0
   -4.2850   -0.8490   -1.5000 N   0  0  0  0  0  0  0  0  0  0  0  0
   -5.6070   -0.4790   -1.2470 C   0  0  0  0  0  0  0  0  0  0  0  0
   -6.3950   -1.3340   -0.8200 O   0  0  0  0  0  0  0  0  0  0  0  0
   -6.0010    0.8620   -1.4900 N   0  0  0  0  0  0  0  0  0  0  0  0
   -7.3460    1.3110   -1.2570 C   0  0  0  0  0  0  0  0  0  0  0  0
   -7.6920    1.1240    0.1950 C   0  0  0  0  0  0  0  0  0  0  0  0
   -9.1290    1.6320    0.3470 C   0  0  2  0  0  0  0  0  0  0  0  0
   -9.1290    3.0880   -0.0600 C   0  0  0  0  0  0  0  0  0  0  0  0
   -9.6160    1.4880    1.6860 N   0  0  0  0  0  0  0  0  0  0  0  0
  1  2  1  0
  2  3  1  0
  3  4  1  0
  3 23  1  0
  4  5  2  0
  4  6  1  0
  6  7  2  3
  7  8  1  0
  8  9  2  0
  8 21  1  0
  9 10  1  0
 10 11  1  0
 10 12  2  0
 12 13  1  0
 12 20  1  0
 13 14  1  0
 14 15  1  0
 15 16  1  0
 16 17  2  3
 17 18  1  0
 18 19  1  0
 20 21  2  0
 21 22  1  0
 23 24  1  0
 23 25  2  3
 25 26  1  0
 26 27  2  0
 26 28  1  0
 28 29  1  0
 29 30  1  0
 30 31  1  0
 31 32  1  1
 31 33  1  0
M  CHG  2  19   1  33   1
M  END
