
     RDKit          3D

 14 14  0  0  0  0  0  0  0  0999 V2000
    4.4380    1.2730    0.5050 N   0  0  0  0  0  0  0  0  0  0  0  0
    3.7210    0.2550   -0.1950 C   0  0  0  0  0  0  0  0  0  0  0  0
    2.3540    0.0340    0.3750 C   0  0  0  0  0  0  0  0  0  0  0  0
    1.9290    0.6810    1.3430 O   0  0  0  0  0  0  0  0  0  0  0  0
    1.5830   -0.9130   -0.2150 O   0  0  0  0  0  0  0  0  0  0  0  0
    0.3280   -1.3860   -0.0070 C   0  0  0  0  0  0  0  0  0  0  0  0
   -0.7920   -0.4240   -0.2380 C   0  0  2  0  0  0  0  0  0  0  0  0
   -0.6620    0.0580   -1.5610 O   0  0  0  0  0  0  0  0  0  0  0  0
   -0.9290    0.6950    0.7090 C   0  0  0  0  0  0  0  0  0  0  0  0
   -2.4170    1.0930    0.7310 C   0  0  0  0  0  0  0  0  0  0  0  0
   -3.0890    0.7540   -0.5680 C   0  0  0  0  0  0  0  0  0  0  0  0
   -3.1700   -0.6080   -0.7070 O   0  0  0  0  0  0  0  0  0  0  0  0
   -2.0800   -1.2850   -0.2470 C   0  0  1  0  0  0  0  0  0  0  0  0
   -1.7740   -2.4020   -1.0040 O   0  0  0  0  0  0  0  0  0  0  0  0
  1  2  1  0
  2  3  1  0
  3  4  2  0
  3  5  1  0
  5  6  1  0
  6  7  1  0
  7  8  1  6
  7  9  1  0
  7 13  1  0
  9 10  1  0
 10 11  1  0
 11 12  1  0
 12 13  1  0
 13 14  1  6
M  END
