
     RDKit          3D

 15 15  0  0  0  0  0  0  0  0999 V2000
   -4.0270    1.1130    0.2570 N   0  0  0  0  0  0  0  0  0  0  0  0
   -2.8810    0.3310    0.5460 C   0  0  0  0  0  0  0  0  0  0  0  0
   -2.8020   -0.2050    1.6740 O   0  0  0  0  0  0  0  0  0  0  0  0
   -1.7800    0.1190   -0.4170 C   0  0  2  0  0  0  0  0  0  0  0  0
   -2.3940   -0.5110   -1.6540 C   0  0  0  0  0  0  0  0  0  0  0  0
   -3.3760    0.3080   -2.2060 O   0  0  0  0  0  0  0  0  0  0  0  0
   -0.8110   -0.6760    0.1360 O   0  0  0  0  0  0  0  0  0  0  0  0
    0.4110   -0.0830    0.2820 C   0  0  1  0  0  0  0  0  0  0  0  0
    0.8870    0.0120    1.7120 C   0  0  0  0  0  0  0  0  0  0  0  0
    2.0460    0.7400    1.7830 O   0  0  0  0  0  0  0  0  0  0  0  0
    3.0950    0.2380    1.0580 C   0  0  1  0  0  0  0  0  0  0  0  0
    3.5240   -1.0150    1.4640 O   0  0  0  0  0  0  0  0  0  0  0  0
    2.7270    0.1690   -0.3960 C   0  0  1  0  0  0  0  0  0  0  0  0
    3.7680   -0.2520   -1.2060 O   0  0  0  0  0  0  0  0  0  0  0  0
    1.5160   -0.7630   -0.5070 C   0  0  0  0  0  0  0  0  0  0  0  0
  1  2  1  0
  2  3  2  0
  2  4  1  0
  4  5  1  6
  4  7  1  0
  5  6  1  0
  8  7  1  1
  8  9  1  0
  8 15  1  0
  9 10  1  0
 10 11  1  0
 11 12  1  1
 11 13  1  0
 13 14  1  6
 13 15  1  0
M  END
