
     RDKit          3D

 15 15  0  0  0  0  0  0  0  0999 V2000
   -1.5060   -2.6250   -0.3570 N   0  0  0  0  0  0  0  0  0  0  0  0
   -1.8820   -1.2500   -0.2420 C   0  0  0  0  0  0  0  0  0  0  0  0
   -3.1780   -0.9040   -0.4830 O   0  0  0  0  0  0  0  0  0  0  0  0
   -0.9790   -0.3610    0.0870 C   0  0  0  0  0  0  0  0  0  0  0  0
   -1.3410    1.0460    0.2100 C   0  0  0  0  0  0  0  0  0  0  0  0
   -2.4880    1.4390    0.7160 C   0  0  0  0  0  0  0  0  0  0  0  0
   -2.7490    2.8160    0.7930 O   0  0  0  0  0  0  0  0  0  0  0  0
   -0.3840    1.9630   -0.2450 O   0  0  0  0  0  0  0  0  0  0  0  0
    0.9960    1.6940   -0.1980 C   0  0  0  0  0  0  0  0  0  0  0  0
    1.3960    0.2750   -0.2840 C   0  0  1  0  0  0  0  0  0  0  0  0
    1.5450   -0.1260   -1.6320 O   0  0  0  0  0  0  0  0  0  0  0  0
    2.7710    0.1210    0.3410 C   0  0  0  0  0  0  0  0  0  0  0  0
    2.7760    0.4840    1.6840 O   0  0  0  0  0  0  0  0  0  0  0  0
    0.4450   -0.7100    0.3440 C   0  0  2  0  0  0  0  0  0  0  0  0
    0.6590   -1.9690   -0.2180 O   0  0  0  0  0  0  0  0  0  0  0  0
  1  2  1  0
  2  3  1  0
  2  4  2  3
  4  5  1  0
  4 14  1  0
  5  6  2  3
  5  8  1  0
  6  7  1  0
  8  9  1  0
  9 10  1  0
 10 11  1  6
 10 12  1  0
 10 14  1  0
 12 13  1  0
 14 15  1  6
M  END
