
     RDKit          3D

 14 14  0  0  0  0  0  0  0  0999 V2000
   -0.7220    1.8680    0.5970 C   0  0  0  0  0  0  0  0  0  0  0  0
    0.1230    0.8750   -0.1160 C   0  0  1  0  0  0  0  0  0  0  0  0
    0.5670    1.3490   -1.3720 O   0  0  0  0  0  0  0  0  0  0  0  0
    1.4120    0.6520    0.6910 C   0  0  0  0  0  0  0  0  0  0  0  0
    2.3080   -0.1440   -0.1880 C   0  0  1  0  0  0  0  0  0  0  0  0
    3.3980   -0.5770    0.6000 O   0  0  0  0  0  0  0  0  0  0  0  0
    1.7810   -1.2100   -0.8130 O   0  0  0  0  0  0  0  0  0  0  0  0
    0.4850   -1.3090   -1.0780 C   0  0  0  0  0  0  0  0  0  0  0  0
   -0.4630   -0.4900   -0.2480 C   0  0  2  0  0  0  0  0  0  0  0  0
   -1.8450   -0.5090   -0.8450 C   0  0  0  0  0  0  0  0  0  0  0  0
   -1.9000    0.0250   -2.1140 O   0  0  0  0  0  0  0  0  0  0  0  0
   -0.5540   -1.1380    1.0900 C   0  0  0  0  0  0  0  0  0  0  0  0
   -1.3220   -0.5620    2.1420 N   0  0  0  0  0  0  0  0  0  0  0  0
    0.0400   -2.2240    1.3620 O   0  0  0  0  0  0  0  0  0  0  0  0
  2  1  1  1
  2  3  1  0
  2  4  1  0
  2  9  1  0
  4  5  1  0
  5  6  1  1
  5  7  1  0
  7  8  1  0
  8  9  1  0
  9 10  1  6
  9 12  1  0
 10 11  1  0
 12 13  1  0
 12 14  2  0
M  END
