
     RDKit          3D

 14 14  0  0  0  0  0  0  0  0999 V2000
   -2.6250    1.7580   -0.0060 N   0  0  0  0  0  0  0  0  0  0  0  0
   -1.7540    0.8800    0.7460 C   0  0  1  0  0  0  0  0  0  0  0  0
   -2.2840    0.4980    1.9560 O   0  0  0  0  0  0  0  0  0  0  0  0
   -1.3440   -0.2730   -0.1400 C   0  0  2  0  0  0  0  0  0  0  0  0
   -0.6810    0.2760   -1.2280 O   0  0  0  0  0  0  0  0  0  0  0  0
   -2.5550   -0.9970   -0.6970 C   0  0  0  0  0  0  0  0  0  0  0  0
   -3.3390   -1.6080    0.2440 O   0  0  0  0  0  0  0  0  0  0  0  0
   -0.4700   -1.2610    0.5460 C   0  0  0  0  0  0  0  0  0  0  0  0
    0.7100   -0.8330    1.0510 O   0  0  0  0  0  0  0  0  0  0  0  0
    1.6590   -0.3530    0.2120 C   0  0  1  0  0  0  0  0  0  0  0  0
    2.0140    1.0890    0.5920 C   0  0  0  0  0  0  0  0  0  0  0  0
    3.4450    1.1680    0.1460 C   0  0  0  0  0  0  0  0  0  0  0  0
    3.8560   -0.0930   -0.2120 O   0  0  0  0  0  0  0  0  0  0  0  0
    3.0330   -1.0020    0.4540 C   0  0  0  0  0  0  0  0  0  0  0  0
  2  1  1  6
  2  3  1  0
  2  4  1  0
  4  5  1  6
  4  6  1  0
  4  8  1  0
  6  7  1  0
  8  9  1  0
 10  9  1  1
 10 11  1  0
 10 14  1  0
 11 12  1  0
 12 13  1  0
 13 14  1  0
M  END
