
     RDKit          3D

 15 15  0  0  0  0  0  0  0  0999 V2000
    4.3230    0.1000    1.2150 C   0  0  0  0  0  0  0  0  0  0  0  0
    3.0860   -0.6620    0.9460 C   0  0  0  0  0  0  0  0  0  0  0  0
    3.0400   -1.9150    1.0780 O   0  0  0  0  0  0  0  0  0  0  0  0
    1.8950   -0.0120    0.5260 N   0  0  0  0  0  0  0  0  0  0  0  0
    0.6620   -0.7390    0.2530 C   0  0  1  0  0  0  0  0  0  0  0  0
   -0.3530   -0.2470    1.2690 C   0  0  1  0  0  0  0  0  0  0  0  0
   -0.2370    1.1260    1.3870 O   0  0  0  0  0  0  0  0  0  0  0  0
   -1.6060   -0.6530    0.7930 O   0  0  0  0  0  0  0  0  0  0  0  0
   -1.9840    0.2820   -0.1620 C   0  0  2  0  0  0  0  0  0  0  0  0
   -3.4530    0.0640   -0.5510 C   0  0  0  0  0  0  0  0  0  0  0  0
   -4.2820    0.1980    0.5450 O   0  0  0  0  0  0  0  0  0  0  0  0
   -1.0950    0.1500   -1.3490 C   0  0  1  0  0  0  0  0  0  0  0  0
   -0.8900    1.3970   -1.9910 O   0  0  0  0  0  0  0  0  0  0  0  0
    0.1800   -0.5810   -1.1410 C   0  0  2  0  0  0  0  0  0  0  0  0
    0.1490   -1.8430   -1.7780 O   0  0  0  0  0  0  0  0  0  0  0  0
  1  2  1  0
  2  3  2  0
  2  4  1  0
  5  4  1  6
  5  6  1  0
  5 14  1  0
  6  7  1  6
  6  8  1  0
  8  9  1  0
  9 10  1  6
  9 12  1  0
 10 11  1  0
 12 13  1  1
 12 14  1  0
 14 15  1  1
M  END
