
     RDKit          3D

 21 23  0  0  0  0  0  0  0  0999 V2000
   -4.3460    2.0630    2.0860 C   0  0  0  0  0  0  0  0  0  0  0  0
   -3.4570    1.2720    1.2120 C   0  0  0  0  0  0  0  0  0  0  0  0
   -2.0890    1.3760    1.3060 C   0  0  0  0  0  0  0  0  0  0  0  0
   -1.2720    0.6590    0.5130 N   0  0  0  0  0  0  0  0  0  0  0  0
    0.0390    0.6220    0.4540 N   0  0  0  0  0  0  0  0  0  0  0  0
    0.3840   -0.2520   -0.5040 C   0  0  0  0  0  0  0  0  0  0  0  0
    1.7500   -0.6470   -0.9540 C   0  0  0  0  0  0  0  0  0  0  0  0
    2.1760   -1.8030   -0.1390 C   0  0  0  0  0  0  0  0  0  0  0  0
    3.2600   -1.7210    0.6090 C   0  0  0  0  0  0  0  0  0  0  0  0
    4.0220   -0.5310    0.6390 N   0  0  0  0  0  0  0  0  0  0  0  0
    5.2220   -0.4280   -0.1340 C   0  0  0  0  0  0  0  0  0  0  0  0
    5.8790   -1.2390   -0.9450 C   0  0  0  0  0  0  0  0  0  0  0  0
    6.8850   -0.2100   -1.1710 C   0  0  0  0  0  0  0  0  0  0  0  0
    6.2280    0.5790   -0.3690 C   0  0  0  0  0  0  0  0  0  0  0  0
    6.5210    2.2580    0.1820 S   0  0  0  0  0  0  0  0  0  0  0  0
   -0.7520   -0.7550   -1.0380 N   0  0  0  0  0  0  0  0  0  0  0  0
   -1.7930   -0.1890   -0.4050 C   0  0  0  0  0  0  0  0  0  0  0  0
   -3.1860   -0.3070   -0.5160 C   0  0  0  0  0  0  0  0  0  0  0  0
   -3.7000   -1.2370   -1.5230 C   0  0  0  0  0  0  0  0  0  0  0  0
   -4.0170    0.4240    0.2940 C   0  0  0  0  0  0  0  0  0  0  0  0
   -5.4640    0.3120    0.1910 C   0  0  0  0  0  0  0  0  0  0  0  0
  1  2  1  0
  2  3  2  0
  2 20  1  0
  3  4  1  0
  4  5  1  0
  4 17  1  0
  5  6  2  0
  6  7  1  0
  6 16  1  0
  7  8  1  0
  8  9  2  3
  9 10  1  0
 10 11  1  0
 11 12  2  0
 11 14  1  0
 12 13  1  0
 13 14  2  0
 14 15  1  0
 16 17  2  0
 17 18  1  0
 18 19  1  0
 18 20  2  0
 20 21  1  0
M  END
