
     RDKit          3D

 15 15  0  0  0  0  0  0  0  0999 V2000
    4.0980    1.0750    0.1630 C   0  0  0  0  0  0  0  0  0  0  0  0
    3.0660    0.0620    0.4820 C   0  0  0  0  0  0  0  0  0  0  0  0
    3.4680   -1.0400    0.9640 O   0  0  0  0  0  0  0  0  0  0  0  0
    1.6790    0.3080    0.2600 N   0  0  0  0  0  0  0  0  0  0  0  0
    0.7160   -0.6920    0.5810 C   0  0  1  0  0  0  0  0  0  0  0  0
   -0.2960   -0.2710    1.6130 C   0  0  1  0  0  0  0  0  0  0  0  0
   -0.1080    1.0260    2.0640 O   0  0  0  0  0  0  0  0  0  0  0  0
   -1.5710   -0.4530    1.0660 O   0  0  0  0  0  0  0  0  0  0  0  0
   -1.7700    0.3780   -0.0280 C   0  0  2  0  0  0  0  0  0  0  0  0
   -3.2640    0.4430   -0.3260 C   0  0  0  0  0  0  0  0  0  0  0  0
   -3.9120    0.9530    0.7970 O   0  0  0  0  0  0  0  0  0  0  0  0
   -0.9980   -0.1860   -1.1820 C   0  0  2  0  0  0  0  0  0  0  0  0
   -1.8690   -0.8900   -2.0330 O   0  0  0  0  0  0  0  0  0  0  0  0
    0.0220   -1.1930   -0.6950 C   0  0  2  0  0  0  0  0  0  0  0  0
   -0.5980   -2.4070   -0.4630 O   0  0  0  0  0  0  0  0  0  0  0  0
  1  2  1  0
  2  3  2  0
  2  4  1  0
  5  4  1  6
  5  6  1  0
  5 14  1  0
  6  7  1  6
  6  8  1  0
  8  9  1  0
  9 10  1  6
  9 12  1  0
 10 11  1  0
 12 13  1  6
 12 14  1  0
 14 15  1  1
M  END
