
     RDKit          3D

 21 23  0  0  0  0  0  0  0  0999 V2000
    6.2770    2.0680   -1.4510 C   0  0  0  0  0  0  0  0  0  0  0  0
    4.8930    1.5480   -1.4440 C   0  0  0  0  0  0  0  0  0  0  0  0
    4.2440    1.2900   -0.3170 C   0  0  0  0  0  0  0  0  0  0  0  0
    2.8880    0.7810   -0.3590 C   0  0  0  0  0  0  0  0  0  0  0  0
    2.1750    0.4990    0.7500 C   0  0  0  0  0  0  0  0  0  0  0  0
    2.7770    0.7070    2.1060 C   0  0  0  0  0  0  0  0  0  0  0  0
    1.9940   -0.7520    2.9310 S   0  0  0  0  0  0  0  0  0  0  0  0
    0.5050   -0.7390    1.8970 C   0  0  0  0  0  0  0  0  0  0  0  0
   -0.7960   -1.1610    1.7970 C   0  0  0  0  0  0  0  0  0  0  0  0
   -1.3040   -0.6740    0.5870 C   0  0  0  0  0  0  0  0  0  0  0  0
   -2.6670   -1.0290    0.1870 C   0  0  0  0  0  0  0  0  0  0  0  0
   -3.5420   -1.4760    1.2000 C   0  0  0  0  0  0  0  0  0  0  0  0
   -4.8190   -1.8720    0.9160 C   0  0  0  0  0  0  0  0  0  0  0  0
   -5.6420   -2.2850    1.8190 N   0  0  0  0  0  0  0  0  0  0  0  0
   -5.1910   -1.8080   -0.4090 C   0  0  0  0  0  0  0  0  0  0  0  0
   -4.3340   -1.3800   -1.3350 N   0  0  0  0  0  0  0  0  0  0  0  0
   -3.0620   -0.9820   -1.0810 N   0  0  0  0  0  0  0  0  0  0  0  0
   -2.2790   -0.5680   -2.2290 C   0  0  0  0  0  0  0  0  0  0  0  0
   -2.4600    0.8920   -2.5040 C   0  0  0  0  0  0  0  0  0  0  0  0
   -0.3150   -0.0010    0.0340 N   0  0  0  0  0  0  0  0  0  0  0  0
    0.8310   -0.0100    0.8020 C   0  0  0  0  0  0  0  0  0  0  0  0
  1  2  1  0
  2  3  2  3
  3  4  1  0
  4  5  2  3
  5  6  1  0
  5 21  1  0
  6  7  1  0
  7  8  1  0
  8  9  1  0
  8 21  2  0
  9 10  2  0
 10 11  1  0
 10 20  1  0
 11 12  2  0
 11 17  1  0
 12 13  1  0
 13 14  2  0
 13 15  1  0
 15 16  2  0
 16 17  1  0
 17 18  1  0
 18 19  1  0
 20 21  1  0
M  END
