
     RDKit          3D

 21 23  0  0  0  0  0  0  0  0999 V2000
   -5.1500   -3.0740   -0.2730 C   0  0  0  0  0  0  0  0  0  0  0  0
   -3.8800   -2.5840   -0.0930 C   0  0  0  0  0  0  0  0  0  0  0  0
   -2.9370   -3.5380    0.5130 C   0  0  0  0  0  0  0  0  0  0  0  0
   -3.6590   -1.2360   -0.5160 C   0  0  0  0  0  0  0  0  0  0  0  0
   -2.5940   -0.4790   -0.4870 C   0  0  0  0  0  0  0  0  0  0  0  0
   -2.6410    0.8700   -0.9870 N   0  0  0  0  0  0  0  0  0  0  0  0
   -1.6400    1.6740   -0.9920 C   0  0  0  0  0  0  0  0  0  0  0  0
   -1.8170    3.3330   -1.6410 S   0  0  0  0  0  0  0  0  0  0  0  0
   -0.3260    4.2990   -1.4340 C   0  0  0  0  0  0  0  0  0  0  0  0
   -0.0720    4.6050    0.0210 C   0  0  0  0  0  0  0  0  0  0  0  0
   -0.3890    1.2360   -0.4770 N   0  0  0  0  0  0  0  0  0  0  0  0
    0.7980    1.8560   -0.3670 N   0  0  0  0  0  0  0  0  0  0  0  0
    1.7060    1.0320    0.1870 C   0  0  0  0  0  0  0  0  0  0  0  0
    1.0520   -0.1630    0.4350 C   0  0  0  0  0  0  0  0  0  0  0  0
   -0.2510   -0.0140    0.0130 C   0  0  0  0  0  0  0  0  0  0  0  0
   -1.3590   -0.9210    0.0250 N   0  0  0  0  0  0  0  0  0  0  0  0
    1.5880   -1.3890    1.0300 C   0  0  0  0  0  0  0  0  0  0  0  0
    2.8350   -1.8950    0.3780 C   0  0  0  0  0  0  0  0  0  0  0  0
    4.0290   -1.0090    0.6350 C   0  0  0  0  0  0  0  0  0  0  0  0
    3.9980    0.2550   -0.1720 C   0  0  0  0  0  0  0  0  0  0  0  0
    3.1200    1.3270    0.4780 C   0  0  0  0  0  0  0  0  0  0  0  0
  1  2  2  0
  2  3  1  0
  2  4  1  0
  4  5  2  3
  5  6  1  0
  5 16  1  0
  6  7  2  0
  7  8  1  0
  7 11  1  0
  8  9  1  0
  9 10  1  0
 11 12  1  0
 11 15  1  0
 12 13  2  0
 13 14  1  0
 13 21  1  0
 14 15  2  0
 14 17  1  0
 15 16  1  0
 17 18  1  0
 18 19  1  0
 19 20  1  0
 20 21  1  0
M  END
