
     RDKit          3D

 15 14  0  0  0  0  0  0  0  0999 V2000
   -4.8200    0.7100   -1.2600 C   0  0  0  0  0  0  0  0  0  0  0  0
   -4.2630   -0.0960   -0.2120 O   0  0  0  0  0  0  0  0  0  0  0  0
   -2.8680    0.1280   -0.0150 C   0  0  0  0  0  0  0  0  0  0  0  0
   -2.5330    1.2840    1.0860 S   0  0  0  0  0  0  0  0  0  0  0  0
   -1.9500   -0.6490   -0.7710 C   0  0  0  0  0  0  0  0  0  0  0  0
   -2.5060   -1.5090   -1.5820 O   0  0  0  0  0  0  0  0  0  0  0  0
   -0.4960   -0.6630   -0.8080 C   0  0  0  0  0  0  0  0  0  0  0  0
    0.1040    0.3210   -0.0030 N   0  0  0  0  0  0  0  0  0  0  0  0
   -0.2060    1.5590   -0.3280 O   0  0  0  0  0  0  0  0  0  0  0  0
    0.1200    0.0670    1.7080 S   0  0  0  0  0  0  0  0  0  0  0  0
    1.3240   -1.5680    2.2780 S   0  0  0  0  0  0  0  0  0  0  0  0
    3.3270   -0.8980    2.6400 S   0  0  0  0  0  0  0  0  0  0  0  0
    4.2100   -1.0140    1.1020 C   0  0  0  0  0  0  0  0  0  0  0  0
    5.0350   -0.0590    0.7300 C   0  0  0  0  0  0  0  0  0  0  0  0
    5.3090    1.4020    1.7530 S   0  0  0  0  0  0  0  0  0  0  0  0
  1  2  1  0
  2  3  1  0
  3  4  2  0
  3  5  1  0
  5  6  2  0
  5  7  1  0
  7  8  1  0
  8  9  1  0
  8 10  1  0
 10 11  1  0
 11 12  1  0
 12 13  1  0
 13 14  2  3
 14 15  1  0
M  CHG  1   9  -1
M  END
