
     RDKit          3D

 15 14  0  0  0  0  0  0  0  0999 V2000
    5.1990   -0.5700    0.3890 C   0  0  0  0  0  0  0  0  0  0  0  0
    4.8550    0.9280    0.0980 C   0  0  0  0  0  0  0  0  0  0  0  0
    4.6670    1.0180   -1.2790 O   0  0  0  0  0  0  0  0  0  0  0  0
    3.0610    1.4380   -1.7340 S   0  0  0  0  0  0  0  0  0  0  0  0
    1.8730    1.4960    0.0330 S   0  0  0  0  0  0  0  0  0  0  0  0
    1.3030   -0.3650    0.6330 S   0  0  0  0  0  0  0  0  0  0  0  0
   -0.2030   -1.0230    0.0560 C   0  0  0  0  0  0  0  0  0  0  0  0
   -0.4010   -2.2710    0.1830 O   0  0  0  0  0  0  0  0  0  0  0  0
   -1.1930   -0.1480   -0.5660 C   0  0  0  0  0  0  0  0  0  0  0  0
   -2.6870   -0.8230   -1.2100 S   0  0  0  0  0  0  0  0  0  0  0  0
   -3.9360   -1.2930   -0.0120 C   0  0  0  0  0  0  0  0  0  0  0  0
   -4.3180   -0.0580    0.8260 C   0  0  0  0  0  0  0  0  0  0  0  0
   -4.6130    1.0550    0.0120 N   0  0  0  0  0  0  0  0  0  0  0  0
   -4.2820    2.3300    0.5150 O   0  0  0  0  0  0  0  0  0  0  0  0
   -5.2930    1.0310   -1.4090 S   0  0  0  0  0  0  0  0  0  0  0  0
  1  2  1  0
  2  3  1  0
  3  4  1  0
  4  5  1  0
  5  6  1  0
  6  7  1  0
  7  8  2  0
  7  9  1  0
  9 10  1  0
 10 11  1  0
 11 12  1  0
 12 13  1  0
 13 14  1  0
 13 15  2  0
M  CHG  2  13   1  14  -1
M  END
