
     RDKit          3D

 15 14  0  0  0  0  0  0  0  0999 V2000
   -3.2670    2.2200    1.3880 O   0  0  0  0  0  0  0  0  0  0  0  0
   -3.7670    1.1780    0.9000 C   0  0  0  0  0  0  0  0  0  0  0  0
   -5.1400    1.0040    0.8900 O   0  0  0  0  0  0  0  0  0  0  0  0
   -2.9120    0.1250    0.3300 C   0  0  0  0  0  0  0  0  0  0  0  0
   -2.4930    0.5350   -1.0820 C   0  0  0  0  0  0  0  0  0  0  0  0
   -1.4370   -0.7120   -1.7740 S   0  0  0  0  0  0  0  0  0  0  0  0
    0.1850   -0.8460   -1.1060 C   0  0  0  0  0  0  0  0  0  0  0  0
    1.0950   -2.3570   -1.5700 S   0  0  0  0  0  0  0  0  0  0  0  0
    0.8050   -0.0130   -0.3970 N   0  0  0  0  0  0  0  0  0  0  0  0
    0.1330    1.5190    0.0780 S   0  0  0  0  0  0  0  0  0  0  0  0
    2.1440   -0.2640    0.0850 C   0  0  0  0  0  0  0  0  0  0  0  0
    2.2340   -0.2580    1.5630 C   0  0  0  0  0  0  0  0  0  0  0  0
    1.3070   -0.0630    2.3270 O   0  0  0  0  0  0  0  0  0  0  0  0
    3.8500   -0.5640    2.2610 S   0  0  0  0  0  0  0  0  0  0  0  0
    5.3120   -0.8740    0.7660 S   0  0  0  0  0  0  0  0  0  0  0  0
  1  2  2  0
  2  3  1  0
  2  4  1  0
  4  5  1  0
  5  6  1  0
  6  7  1  0
  7  8  1  0
  7  9  2  3
  9 10  1  0
  9 11  1  0
 11 12  1  0
 12 13  2  0
 12 14  1  0
 14 15  1  0
M  CHG  2   3  -1   9   1
M  END
