
     RDKit          3D

 14 13  0  0  0  0  0  0  0  0999 V2000
   -3.8920    1.3510    0.5510 C   0  0  0  0  0  0  0  0  0  0  0  0
   -2.8110    0.5120   -0.1260 C   0  0  0  0  0  0  0  0  0  0  0  0
   -3.2890   -0.8470   -0.3660 C   0  0  0  0  0  0  0  0  0  0  0  0
   -4.4300   -1.1320    0.0570 O   0  0  0  0  0  0  0  0  0  0  0  0
   -2.5120   -1.8680   -1.0700 C   0  0  0  0  0  0  0  0  0  0  0  0
   -1.2070   -1.5010   -1.3460 O   0  0  0  0  0  0  0  0  0  0  0  0
   -0.1690   -1.3130   -0.4600 C   0  0  0  0  0  0  0  0  0  0  0  0
   -0.3820   -1.5000    0.7540 O   0  0  0  0  0  0  0  0  0  0  0  0
    1.4550   -0.8170   -0.9870 S   0  0  0  0  0  0  0  0  0  0  0  0
    2.7150   -0.7070    0.7160 S   0  0  0  0  0  0  0  0  0  0  0  0
    2.6060    0.8890    1.3260 O   0  0  0  0  0  0  0  0  0  0  0  0
    3.3820    1.9290    0.2090 S   0  0  0  0  0  0  0  0  0  0  0  0
    4.7230    0.7550   -0.9500 S   0  0  0  0  0  0  0  0  0  0  0  0
    6.3170    0.7360   -0.1270 C   0  0  0  0  0  0  0  0  0  0  0  0
  1  2  1  0
  2  3  1  0
  3  4  2  0
  3  5  1  0
  5  6  1  0
  6  7  1  0
  7  8  2  0
  7  9  1  0
  9 10  1  0
 10 11  1  0
 11 12  1  0
 12 13  1  0
 13 14  1  0
M  END
