
     RDKit          3D

 15 15  0  0  0  0  0  0  0  0999 V2000
   -2.5010    0.8050    2.9990 O   0  0  0  0  0  0  0  0  0  0  0  0
   -3.2300   -0.2070    2.1700 S   0  0  2  0  0  0  0  0  0  0  0  0
   -3.9590   -1.2110    2.9990 O   0  0  0  0  0  0  0  0  0  0  0  0
   -2.1380   -0.9390    1.0340 C   0  0  0  0  0  0  0  0  0  0  0  0
   -2.5930   -0.5770   -0.1430 C   0  0  0  0  0  0  0  0  0  0  0  0
   -1.7730   -1.1040   -1.6820 S   0  0  0  0  0  0  0  0  0  0  0  0
   -0.1000   -2.3020   -1.2440 S   0  0  0  0  0  0  0  0  0  0  0  0
    1.3920   -1.3310   -1.0550 C   0  0  0  0  0  0  0  0  0  0  0  0
    2.6170   -2.0070   -0.7540 S   0  0  0  0  0  0  0  0  0  0  0  0
    1.4160    0.1370   -1.1960 C   0  0  0  0  0  0  0  0  0  0  0  0
    2.7980    0.6500   -0.9820 C   0  0  0  0  0  0  0  0  0  0  0  0
    3.2680    0.3290    0.2830 O   0  0  0  0  0  0  0  0  0  0  0  0
    4.8570    0.9330    0.4910 S   0  0  0  0  0  0  0  0  0  0  0  0
   -3.7600    0.2480   -0.1270 C   0  0  0  0  0  0  0  0  0  0  0  0
   -4.2470    0.5530    1.0070 N   0  0  0  0  0  0  0  0  0  0  0  0
  1  2  2  0
  2  3  2  0
  2  4  1  6
  2 15  1  0
  4  5  2  0
  5  6  1  0
  5 14  1  0
  6  7  1  0
  7  8  1  0
  8  9  2  0
  8 10  1  0
 10 11  1  0
 11 12  1  0
 12 13  1  0
 14 15  2  0
M  END
