
     RDKit          3D

 15 14  0  0  0  0  0  0  0  0999 V2000
   -2.9080   -1.9890   -0.2470 C   0  0  0  0  0  0  0  0  0  0  0  0
   -2.5840   -0.7890    0.6070 C   0  0  0  0  0  0  0  0  0  0  0  0
   -2.3810    0.4160   -0.1830 N   0  0  2  0  0  0  0  0  0  0  0  0
   -2.1140    1.4070    0.7150 O   0  0  0  0  0  0  0  0  0  0  0  0
   -3.8110    0.8690   -1.0830 S   0  0  0  0  0  0  0  0  0  0  0  0
   -4.5210    2.4160   -0.4260 C   0  0  0  0  0  0  0  0  0  0  0  0
   -0.9850    0.2410   -1.1530 S   0  0  2  0  0  0  0  0  0  0  0  0
   -0.3200    1.5280   -1.4920 O   0  0  0  0  0  0  0  0  0  0  0  0
   -1.2270   -0.4100   -2.4630 O   0  0  0  0  0  0  0  0  0  0  0  0
    0.2590   -1.2980   -0.5040 S   0  0  0  0  0  0  0  0  0  0  0  0
    1.4810   -0.6930    0.9530 S   0  0  0  0  0  0  0  0  0  0  0  0
    3.1140   -0.1830    0.3230 C   0  0  1  0  0  0  0  0  0  0  0  0
    3.9760    0.1510    1.5090 C   0  0  0  0  0  0  0  0  0  0  0  0
    3.7100   -1.4300   -0.3190 C   0  0  0  0  0  0  0  0  0  0  0  0
    3.0100    0.9550   -0.6540 C   0  0  0  0  0  0  0  0  0  0  0  0
  1  2  1  0
  2  3  1  0
  3  4  1  1
  3  5  1  0
  3  7  1  0
  5  6  1  0
  7  8  2  0
  7  9  2  0
  7 10  1  1
 10 11  1  0
 11 12  1  0
 12 13  1  1
 12 14  1  0
 12 15  1  0
M  CHG  2   3   1   4  -1
M  END
