
     RDKit          3D

 15 14  0  0  0  0  0  0  0  0999 V2000
    7.1400    0.3270    0.2490 C   0  0  0  0  0  0  0  0  0  0  0  0
    5.5030    0.7550   -0.3840 S   0  0  0  0  0  0  0  0  0  0  0  0
    4.4590   -1.0100   -1.0390 S   0  0  0  0  0  0  0  0  0  0  0  0
    3.4120   -1.8720    0.5570 S   0  0  0  0  0  0  0  0  0  0  0  0
    1.7260   -1.3530    0.7670 C   0  0  0  0  0  0  0  0  0  0  0  0
    1.4830    0.4080    1.0160 S   0  0  0  0  0  0  0  0  0  0  0  0
    0.5330    1.2580   -0.7360 S   0  0  0  0  0  0  0  0  0  0  0  0
   -1.2150    1.2580   -0.4880 O   0  0  0  0  0  0  0  0  0  0  0  0
   -2.0980    0.9540   -1.4660 C   0  0  0  0  0  0  0  0  0  0  0  0
   -1.6740    0.6520   -2.6290 O   0  0  0  0  0  0  0  0  0  0  0  0
   -3.5700    0.9450   -1.2650 C   0  0  0  0  0  0  0  0  0  0  0  0
   -4.0840   -0.3050   -0.6010 C   0  0  0  0  0  0  0  0  0  0  0  0
   -3.5210   -0.5370    0.7420 C   0  0  0  0  0  0  0  0  0  0  0  0
   -4.2900   -0.6270    1.7860 N   0  0  0  0  0  0  0  0  0  0  0  0
   -2.1590   -0.6650    0.9060 O   0  0  0  0  0  0  0  0  0  0  0  0
  1  2  1  0
  2  3  1  0
  3  4  1  0
  4  5  1  0
  5  6  1  0
  6  7  1  0
  7  8  1  0
  8  9  1  0
  9 10  2  0
  9 11  1  0
 11 12  1  0
 12 13  1  0
 13 14  2  0
 13 15  1  0
M  CHG  2  14   1  15  -1
M  END
