
     RDKit          3D

 14 13  0  0  0  0  0  0  0  0999 V2000
    4.5110   -0.8780   -0.4550 C   0  0  0  0  0  0  0  0  0  0  0  0
    3.3030    0.3820   -0.0300 S   0  0  0  0  0  0  0  0  0  0  0  0
    1.8200    0.3670   -1.5210 S   0  0  0  0  0  0  0  0  0  0  0  0
    0.2990   -0.9660   -0.9740 S   0  0  0  0  0  0  0  0  0  0  0  0
   -0.9900   -0.1470   -0.0130 C   0  0  2  0  0  0  0  0  0  0  0  0
   -2.0450   -1.1040    0.3570 C   0  0  0  0  0  0  0  0  0  0  0  0
   -2.3800   -1.2760    1.5660 N   0  0  0  0  0  0  0  0  0  0  0  0
   -2.8880   -2.0410   -0.9020 S   0  0  0  0  0  0  0  0  0  0  0  0
   -1.5880    1.0020   -0.6960 C   0  0  0  0  0  0  0  0  0  0  0  0
   -0.8600    2.1740   -1.2220 C   0  0  0  0  0  0  0  0  0  0  0  0
   -2.7960    1.0190   -0.8590 O   0  0  0  0  0  0  0  0  0  0  0  0
   -0.3590    0.3560    1.2560 C   0  0  0  0  0  0  0  0  0  0  0  0
   -0.4110    1.5540    1.5850 O   0  0  0  0  0  0  0  0  0  0  0  0
    0.3080   -0.5440    2.0990 O   0  0  0  0  0  0  0  0  0  0  0  0
  1  2  1  0
  2  3  1  0
  3  4  1  0
  5  4  1  6
  5  6  1  0
  5  9  1  0
  5 12  1  0
  6  7  2  0
  6  8  1  0
  9 10  1  0
  9 11  2  0
 12 13  2  0
 12 14  1  0
M  CHG  1   7   1
M  END
