
     RDKit          3D

 15 14  0  0  0  0  0  0  0  0999 V2000
   -3.6540   -0.1690    0.6670 C   0  0  0  0  0  0  0  0  0  0  0  0
   -2.4600   -0.9750    0.3900 C   0  0  0  0  0  0  0  0  0  0  0  0
   -1.4190   -0.4650   -0.2380 C   0  0  0  0  0  0  0  0  0  0  0  0
    0.0040   -1.5520   -0.5280 S   0  0  0  0  0  0  0  0  0  0  0  0
    1.2340   -0.6510   -1.3660 N   0  0  0  0  0  0  0  0  0  0  0  0
    2.3300   -0.2450   -0.8740 C   0  0  0  0  0  0  0  0  0  0  0  0
    3.4450    0.6650   -1.9210 S   0  0  0  0  0  0  0  0  0  0  0  0
    5.1590    1.1780   -0.7720 S   0  0  0  0  0  0  0  0  0  0  0  0
    6.3690   -0.0340   -0.8700 O   0  0  0  0  0  0  0  0  0  0  0  0
    2.6430   -0.5300    0.5180 C   0  0  0  0  0  0  0  0  0  0  0  0
    1.7550   -1.2410    1.3090 O   0  0  0  0  0  0  0  0  0  0  0  0
    4.0490   -0.0110    1.1530 S   0  0  0  0  0  0  0  0  0  0  0  0
   -1.3720    0.9020   -0.6950 C   0  0  0  0  0  0  0  0  0  0  0  0
   -2.4330    1.7450   -0.4890 O   0  0  0  0  0  0  0  0  0  0  0  0
   -0.0510    1.4460   -1.4590 S   0  0  0  0  0  0  0  0  0  0  0  0
  1  2  1  0
  2  3  2  3
  3  4  1  0
  3 13  1  0
  4  5  1  0
  5  6  2  3
  6  7  1  0
  6 10  1  0
  7  8  1  0
  8  9  1  0
 10 11  1  0
 10 12  2  0
 13 14  1  0
 13 15  2  0
M  CHG  1   9  -1
M  END
