
     RDKit          3D

 10  9  0  0  0  0  0  0  0  0999 V2000
   -1.0620    0.4180   -1.4790 O   0  0  0  0  0  0  0  0  0  0  0  0
   -1.4950    0.6130   -0.3210 C   0  0  0  0  0  0  0  0  0  0  0  0
   -2.3450    1.6760   -0.0920 O   0  0  0  0  0  0  0  0  0  0  0  0
   -1.1020   -0.2790    0.7700 C   0  0  0  0  0  0  0  0  0  0  0  0
   -0.1330   -1.3410    0.3970 C   0  0  0  0  0  0  0  0  0  0  0  0
    1.1640   -0.9040   -0.1000 C   0  0  0  0  0  0  0  0  0  0  0  0
    1.9200   -1.7860   -0.6540 O   0  0  0  0  0  0  0  0  0  0  0  0
    1.7090    0.4270   -0.0400 C   0  0  0  0  0  0  0  0  0  0  0  0
    1.0380    1.3450    0.5010 O   0  0  0  0  0  0  0  0  0  0  0  0
    2.9460    0.8020   -0.5390 O   0  0  0  0  0  0  0  0  0  0  0  0
  1  2  2  0
  2  3  1  0
  2  4  1  0
  4  5  1  0
  5  6  1  0
  6  7  2  0
  6  8  1  0
  8  9  2  0
  8 10  1  0
M  END
