
     RDKit          3D

 31 31  0  0  0  0  0  0  0  0999 V2000
    1.3720    1.5750    1.1130 C   0  0  0  0  0  0  0  0  0  0  0  0
    0.2850    0.5000    1.0420 C   0  0  1  0  0  0  0  0  0  0  0  0
   -0.8650    1.1110    0.2760 C   0  0  2  0  0  0  0  0  0  0  0  0
   -0.4880    2.2410   -0.4270 O   0  0  0  0  0  0  0  0  0  0  0  0
   -2.0170    1.4750    1.1890 C   0  0  1  0  0  0  0  0  0  0  0  0
   -1.8310    2.7930    1.6520 O   0  0  0  0  0  0  0  0  0  0  0  0
   -3.2450    1.4780    0.3640 C   0  0  0  0  0  0  0  0  0  0  0  0
   -3.4840    2.6680   -0.4450 C   0  0  0  0  0  0  0  0  0  0  0  0
   -4.5230    2.7500   -1.1860 O   0  0  0  0  0  0  0  0  0  0  0  0
   -2.6450    3.7530   -0.4740 O   0  0  0  0  0  0  0  0  0  0  0  0
   -4.1070    0.4790    0.3310 C   0  0  0  0  0  0  0  0  0  0  0  0
   -5.2380    0.6400   -0.5150 N   0  0  0  0  0  0  0  0  0  0  0  0
   -3.9910   -0.7730    1.0910 C   0  0  0  0  0  0  0  0  0  0  0  0
   -3.2330   -1.8500    0.3750 C   0  0  1  0  0  0  0  0  0  0  0  0
   -3.6310   -3.1380    0.7610 O   0  0  0  0  0  0  0  0  0  0  0  0
   -3.3380   -1.7770   -1.1180 C   0  0  2  0  0  0  0  0  0  0  0  0
   -4.5760   -2.2030   -1.5950 O   0  0  0  0  0  0  0  0  0  0  0  0
   -2.3910   -2.6860   -1.6270 O   0  0  0  0  0  0  0  0  0  0  0  0
   -1.3250   -2.0390   -2.2300 C   0  0  0  0  0  0  0  0  0  0  0  0
   -0.0790   -2.0800   -1.3490 C   0  0  0  0  0  0  0  0  0  0  0  0
    0.1900   -0.7670   -0.9750 O   0  0  0  0  0  0  0  0  0  0  0  0
    0.8050   -0.6960    0.2730 C   0  0  1  0  0  0  0  0  0  0  0  0
    2.2880   -0.5760    0.0510 C   0  0  0  0  0  0  0  0  0  0  0  0
    2.7640   -0.5550   -1.1120 O   0  0  0  0  0  0  0  0  0  0  0  0
    3.1680   -0.4860    1.1150 O   0  0  0  0  0  0  0  0  0  0  0  0
    4.5660   -0.3700    0.9720 C   0  0  0  0  0  0  0  0  0  0  0  0
    4.9700    0.8680    0.2210 C   0  0  0  0  0  0  0  0  0  0  0  0
    6.3390    0.9550    0.0990 O   0  0  0  0  0  0  0  0  0  0  0  0
    6.9230   -0.0590   -0.6050 C   0  0  2  0  0  0  0  0  0  0  0  0
    7.7760   -0.7400    0.2700 O   0  0  0  0  0  0  0  0  0  0  0  0
    7.6940    0.4230   -1.6830 O   0  0  0  0  0  0  0  0  0  0  0  0
  2  1  1  6
  2  3  1  0
  2 22  1  0
  3  4  1  1
  3  5  1  0
  5  6  1  6
  5  7  1  0
  7  8  1  0
  7 11  2  0
  8  9  2  0
  8 10  1  0
 11 12  1  0
 11 13  1  0
 13 14  1  0
 14 15  1  1
 14 16  1  0
 16 17  1  1
 16 18  1  0
 18 19  1  0
 19 20  1  0
 20 21  1  0
 21 22  1  0
 22 23  1  6
 23 24  2  0
 23 25  1  0
 25 26  1  0
 26 27  1  0
 27 28  1  0
 28 29  1  0
 29 30  1  1
 29 31  1  0
M  END
