
     RDKit          3D

 31 31  0  0  0  0  0  0  0  0999 V2000
    4.0630   -1.9330    0.4490 C   0  0  0  0  0  0  0  0  0  0  0  0
    3.7300   -1.1700    1.5410 O   0  0  0  0  0  0  0  0  0  0  0  0
    3.5920    0.2070    1.2140 C   0  0  1  0  0  0  0  0  0  0  0  0
    2.4730    0.6850    1.7610 O   0  0  0  0  0  0  0  0  0  0  0  0
    1.4990    1.3180    1.0560 C   0  0  0  0  0  0  0  0  0  0  0  0
    0.8700    0.4960   -0.0320 C   0  0  1  0  0  0  0  0  0  0  0  0
    1.5890    0.1140   -1.0780 O   0  0  0  0  0  0  0  0  0  0  0  0
    2.0350    0.8640   -2.0700 C   0  0  0  0  0  0  0  0  0  0  0  0
    2.9060    2.0420   -1.9080 C   0  0  0  0  0  0  0  0  0  0  0  0
    3.1290    2.5230   -3.2470 O   0  0  0  0  0  0  0  0  0  0  0  0
    0.3820   -0.7830    0.6840 C   0  0  0  0  0  0  0  0  0  0  0  0
    0.0450   -0.4230    1.9860 O   0  0  0  0  0  0  0  0  0  0  0  0
   -0.8250   -1.0790    2.8190 C   0  0  0  0  0  0  0  0  0  0  0  0
   -0.9740   -0.7470    4.0160 O   0  0  0  0  0  0  0  0  0  0  0  0
   -1.6140   -2.2150    2.2950 C   0  0  1  0  0  0  0  0  0  0  0  0
   -1.6940   -3.2280    3.2490 O   0  0  0  0  0  0  0  0  0  0  0  0
   -3.0050   -1.6940    1.9760 C   0  0  0  0  0  0  0  0  0  0  0  0
   -3.1350   -1.6670    0.5950 O   0  0  0  0  0  0  0  0  0  0  0  0
   -3.8680   -0.5540    0.1630 C   0  0  0  0  0  0  0  0  0  0  0  0
   -3.6100   -0.3420   -1.3110 C   0  0  1  0  0  0  0  0  0  0  0  0
   -3.3540   -1.6680   -1.9920 C   0  0  0  0  0  0  0  0  0  0  0  0
   -4.7830    0.1740   -1.8740 O   0  0  0  0  0  0  0  0  0  0  0  0
   -2.4430    0.6170   -1.5330 C   0  0  1  0  0  0  0  0  0  0  0  0
   -2.1890    0.6140   -2.9010 O   0  0  0  0  0  0  0  0  0  0  0  0
   -2.8960    2.0400   -1.1910 C   0  0  0  0  0  0  0  0  0  0  0  0
   -4.0610    2.3150   -1.9440 O   0  0  0  0  0  0  0  0  0  0  0  0
   -1.4070    0.1970   -0.7540 O   0  0  0  0  0  0  0  0  0  0  0  0
   -0.4740    1.1520   -0.4410 C   0  0  0  0  0  0  0  0  0  0  0  0
    4.8290    0.8460    1.8430 C   0  0  0  0  0  0  0  0  0  0  0  0
    5.7920    0.1100    2.5530 N   0  0  0  0  0  0  0  0  0  0  0  0
    4.9510    2.0750    1.6980 O   0  0  0  0  0  0  0  0  0  0  0  0
  1  2  1  0
  3  2  1  1
  3  4  1  0
  3 29  1  0
  4  5  1  0
  6  5  1  1
  6  7  1  0
  6 11  1  0
  6 28  1  0
  7  8  1  0
  8  9  1  0
  9 10  1  0
 11 12  1  0
 12 13  1  0
 13 14  2  0
 13 15  1  0
 15 16  1  1
 15 17  1  0
 17 18  1  0
 18 19  1  0
 19 20  1  0
 20 21  1  6
 20 22  1  0
 20 23  1  0
 23 24  1  6
 23 25  1  0
 23 27  1  0
 25 26  1  0
 27 28  1  0
 29 30  1  0
 29 31  2  0
M  END
