
     RDKit          3D

 33 37  0  0  0  0  0  0  0  0999 V2000
   -4.8110    2.5780    1.3980 C   0  0  0  0  0  0  0  0  0  0  0  0
   -4.4080    2.3610   -0.0400 C   0  0  0  0  0  0  0  0  0  0  0  0
   -3.6740    1.1080   -0.1110 N   0  0  0  0  0  0  0  0  0  0  0  0
   -2.3670    1.1120    0.5280 C   0  0  0  0  0  0  0  0  0  0  0  0
   -2.0210   -0.2670    1.0230 C   0  0  0  0  0  0  0  0  0  0  0  0
   -2.2330   -1.2220   -0.1020 C   0  0  0  0  0  0  0  0  0  0  0  0
   -1.3450   -2.0450   -0.4820 N   0  0  0  0  0  0  0  0  0  0  0  0
   -0.0670   -2.1280    0.1340 C   0  0  0  0  0  0  0  0  0  0  0  0
    0.1530   -3.1190    1.0610 C   0  0  0  0  0  0  0  0  0  0  0  0
    1.4010   -3.2000    1.6620 C   0  0  0  0  0  0  0  0  0  0  0  0
    2.4170   -2.3330    1.3660 C   0  0  0  0  0  0  0  0  0  0  0  0
    3.6640   -2.4240    1.9750 O   0  0  0  0  0  0  0  0  0  0  0  0
    3.8590   -3.4540    2.9250 C   0  0  0  0  0  0  0  0  0  0  0  0
    2.1600   -1.3310    0.4130 C   0  0  0  0  0  0  0  0  0  0  0  0
    0.9410   -1.2110   -0.2080 C   0  0  0  0  0  0  0  0  0  0  0  0
    0.6620   -0.1540   -1.1690 C   0  0  0  0  0  0  0  0  0  0  0  0
    1.6470    0.7180   -1.4320 C   0  0  0  0  0  0  0  0  0  0  0  0
    1.4180    1.8180   -2.4120 C   0  0  0  0  0  0  0  0  0  0  0  0
    2.9020    0.6410   -0.7740 N   0  0  0  0  0  0  0  0  0  0  0  0
    3.9070    1.6680   -0.9180 C   0  0  0  0  0  0  0  0  0  0  0  0
    5.1720    1.4600   -0.4400 C   0  0  0  0  0  0  0  0  0  0  0  0
    6.1360    2.4460   -0.5650 C   0  0  0  0  0  0  0  0  0  0  0  0
    5.8000    3.6310   -1.1740 C   0  0  0  0  0  0  0  0  0  0  0  0
    4.5110    3.8130   -1.6480 C   0  0  0  0  0  0  0  0  0  0  0  0
    3.6000    2.8120   -1.5010 N   0  0  0  0  0  0  0  0  0  0  0  0
    3.2750   -0.4530    0.1010 C   0  0  0  0  0  0  0  0  0  0  0  0
   -3.5260   -1.1830   -0.7720 C   0  0  0  0  0  0  0  0  0  0  0  0
   -4.0530   -2.3010   -1.4100 C   0  0  0  0  0  0  0  0  0  0  0  0
   -5.2740   -2.2620   -2.0400 C   0  0  0  0  0  0  0  0  0  0  0  0
   -5.8280   -3.3450   -2.6810 O   0  0  0  0  0  0  0  0  0  0  0  0
   -5.9440   -1.1050   -2.0200 N   0  0  0  0  0  0  0  0  0  0  0  0
   -5.4660    0.0140   -1.4080 C   0  0  0  0  0  0  0  0  0  0  0  0
   -4.2410   -0.0090   -0.7700 C   0  0  0  0  0  0  0  0  0  0  0  0
  1  2  1  0
  2  3  1  0
  3  4  1  0
  3 33  1  0
  4  5  1  0
  5  6  1  0
  6  7  2  3
  6 27  1  0
  7  8  1  0
  8  9  2  0
  8 15  1  0
  9 10  1  0
 10 11  2  0
 11 12  1  0
 11 14  1  0
 12 13  1  0
 14 15  2  0
 14 26  1  0
 15 16  1  0
 16 17  2  0
 17 18  1  0
 17 19  1  0
 19 20  1  0
 19 26  1  0
 20 21  2  0
 20 25  1  0
 21 22  1  0
 22 23  2  0
 23 24  1  0
 24 25  2  0
 27 28  2  0
 27 33  1  0
 28 29  1  0
 29 30  1  0
 29 31  2  0
 31 32  1  0
 32 33  2  0
M  END
