
     RDKit          3D

 31 31  0  0  0  0  0  0  0  0999 V2000
    2.3750   -3.4660   -1.0210 C   0  0  0  0  0  0  0  0  0  0  0  0
    1.3840   -2.5050   -1.2150 O   0  0  0  0  0  0  0  0  0  0  0  0
    1.4100   -1.5350   -0.2080 C   0  0  1  0  0  0  0  0  0  0  0  0
    1.7100   -0.1630   -0.7710 C   0  0  0  0  0  0  0  0  0  0  0  0
    2.5410    0.6830    0.1980 C   0  0  1  0  0  0  0  0  0  0  0  0
    3.4160    1.4200   -0.5320 O   0  0  0  0  0  0  0  0  0  0  0  0
    4.7480    1.2520   -0.3330 C   0  0  0  0  0  0  0  0  0  0  0  0
    5.3240   -0.0930   -0.5970 C   0  0  1  0  0  0  0  0  0  0  0  0
    6.7130    0.0120   -0.3270 O   0  0  0  0  0  0  0  0  0  0  0  0
    4.8780   -1.1050    0.2440 O   0  0  0  0  0  0  0  0  0  0  0  0
    1.5490    1.5180    0.9780 C   0  0  1  0  0  0  0  0  0  0  0  0
    2.1760    2.5590    1.6590 O   0  0  0  0  0  0  0  0  0  0  0  0
    0.5660    2.0670    0.1760 O   0  0  0  0  0  0  0  0  0  0  0  0
    0.1440    3.2340    0.7670 C   0  0  0  0  0  0  0  0  0  0  0  0
   -0.9050    3.9730    0.0180 C   0  0  0  0  0  0  0  0  0  0  0  0
   -1.3660    3.2990   -1.1350 O   0  0  0  0  0  0  0  0  0  0  0  0
   -2.6450    3.3670   -1.6340 C   0  0  0  0  0  0  0  0  0  0  0  0
   -2.9310    3.6610   -2.8320 O   0  0  0  0  0  0  0  0  0  0  0  0
   -3.7310    3.0930   -0.7580 N   0  0  0  0  0  0  0  0  0  0  0  0
   -3.6730    2.0970    0.2950 C   0  0  0  0  0  0  0  0  0  0  0  0
   -4.3720    0.8580   -0.2520 C   0  0  0  0  0  0  0  0  0  0  0  0
   -4.4700   -0.0870    0.7570 O   0  0  0  0  0  0  0  0  0  0  0  0
   -4.3910   -1.3910    0.2410 C   0  0  1  0  0  0  0  0  0  0  0  0
   -4.6160   -1.4040   -1.1260 O   0  0  0  0  0  0  0  0  0  0  0  0
   -3.0950   -2.0380    0.6380 C   0  0  1  0  0  0  0  0  0  0  0  0
   -3.3010   -3.3850    0.9990 O   0  0  0  0  0  0  0  0  0  0  0  0
   -2.0670   -2.0320   -0.4600 C   0  0  0  0  0  0  0  0  0  0  0  0
   -0.7940   -2.6420    0.0850 C   0  0  2  0  0  0  0  0  0  0  0  0
   -1.1400   -3.5130    1.1240 O   0  0  0  0  0  0  0  0  0  0  0  0
    0.1270   -1.5570    0.6020 C   0  0  1  0  0  0  0  0  0  0  0  0
    0.3510   -1.7600    1.9440 O   0  0  0  0  0  0  0  0  0  0  0  0
  1  2  1  0
  3  2  1  6
  3  4  1  0
  3 30  1  0
  4  5  1  0
  5  6  1  6
  5 11  1  0
  6  7  1  0
  7  8  1  0
  8  9  1  1
  8 10  1  0
 11 12  1  6
 11 13  1  0
 13 14  1  0
 14 15  1  0
 15 16  1  0
 16 17  1  0
 17 18  2  0
 17 19  1  0
 19 20  1  0
 20 21  1  0
 21 22  1  0
 22 23  1  0
 23 24  1  6
 23 25  1  0
 25 26  1  6
 25 27  1  0
 27 28  1  0
 28 29  1  1
 28 30  1  0
 30 31  1  1
M  END
