
     RDKit          3D

 31 31  0  0  0  0  0  0  0  0999 V2000
   -1.6000   -1.8000    2.5440 C   0  0  0  0  0  0  0  0  0  0  0  0
   -1.7090   -1.8220    1.0420 C   0  0  1  0  0  0  0  0  0  0  0  0
   -1.7660   -3.2740    0.6450 C   0  0  0  0  0  0  0  0  0  0  0  0
   -0.8310   -3.8230   -0.2720 N   0  0  0  0  0  0  0  0  0  0  0  0
   -2.6780   -3.9790    1.1630 O   0  0  0  0  0  0  0  0  0  0  0  0
   -3.0710   -1.2500    0.6930 C   0  0  0  0  0  0  0  0  0  0  0  0
   -3.2420   -1.0840   -0.7600 C   0  0  0  0  0  0  0  0  0  0  0  0
   -4.2520   -0.1130   -1.2250 C   0  0  1  0  0  0  0  0  0  0  0  0
   -5.5060   -0.5150   -0.7090 O   0  0  0  0  0  0  0  0  0  0  0  0
   -4.0050    1.3230   -0.9180 C   0  0  0  0  0  0  0  0  0  0  0  0
   -3.0820    1.9270   -1.7370 O   0  0  0  0  0  0  0  0  0  0  0  0
   -2.3140    2.8960   -1.1410 C   0  0  1  0  0  0  0  0  0  0  0  0
   -3.0540    4.0230   -0.7880 O   0  0  0  0  0  0  0  0  0  0  0  0
   -2.6970    5.0980   -1.4570 O   0  0  0  0  0  0  0  0  0  0  0  0
   -1.5130    2.3330   -0.0340 C   0  0  2  0  0  0  0  0  0  0  0  0
   -1.7870    3.0720    1.1200 O   0  0  0  0  0  0  0  0  0  0  0  0
   -0.0160    2.3850   -0.2300 C   0  0  0  0  0  0  0  0  0  0  0  0
    0.5990    1.6630    0.6960 O   0  0  0  0  0  0  0  0  0  0  0  0
    1.0920    0.4310    0.5580 C   0  0  2  0  0  0  0  0  0  0  0  0
    1.6010    0.0100   -0.8070 C   0  0  1  0  0  0  0  0  0  0  0  0
    0.5910    0.0660   -1.7620 O   0  0  0  0  0  0  0  0  0  0  0  0
    2.7890    0.8350   -1.1610 C   0  0  0  0  0  0  0  0  0  0  0  0
    3.8380    0.7330   -0.2650 O   0  0  0  0  0  0  0  0  0  0  0  0
    4.4050   -0.5070   -0.1470 C   0  0  2  0  0  0  0  0  0  0  0  0
    4.6610   -0.8400    1.2930 C   0  0  0  0  0  0  0  0  0  0  0  0
    5.5310    0.1580    1.7970 O   0  0  0  0  0  0  0  0  0  0  0  0
    5.8280   -0.4160   -0.7870 C   0  0  0  0  0  0  0  0  0  0  0  0
    6.5840    0.5360   -0.1110 O   0  0  0  0  0  0  0  0  0  0  0  0
    0.2890   -0.6760    1.2150 C   0  0  2  0  0  0  0  0  0  0  0  0
    1.1770   -1.7100    1.5160 O   0  0  0  0  0  0  0  0  0  0  0  0
   -0.6720   -1.2250    0.3920 O   0  0  0  0  0  0  0  0  0  0  0  0
  2  1  1  1
  2  3  1  0
  2  6  1  0
  2 31  1  0
  3  4  1  0
  3  5  2  0
  6  7  1  0
  7  8  1  0
  8  9  1  1
  8 10  1  0
 10 11  1  0
 11 12  1  0
 12 13  1  1
 12 15  1  0
 13 14  1  0
 15 16  1  1
 15 17  1  0
 17 18  1  0
 19 18  1  6
 19 20  1  0
 19 29  1  0
 20 21  1  6
 20 22  1  0
 22 23  1  0
 23 24  1  0
 24 25  1  1
 24 27  1  0
 25 26  1  0
 27 28  1  0
 29 30  1  6
 29 31  1  0
M  END
