
     RDKit          3D

 31 32  0  0  0  0  0  0  0  0999 V2000
    4.5960   -4.1040   -0.0080 C   0  0  0  0  0  0  0  0  0  0  0  0
    3.8480   -3.3330   -0.9550 O   0  0  0  0  0  0  0  0  0  0  0  0
    4.1460   -2.0060   -1.1860 C   0  0  0  0  0  0  0  0  0  0  0  0
    5.1170   -1.5340   -0.5020 O   0  0  0  0  0  0  0  0  0  0  0  0
    3.3900   -1.1660   -2.1680 C   0  0  1  0  0  0  0  0  0  0  0  0
    1.9620   -1.0600   -1.6900 C   0  0  0  0  0  0  0  0  0  0  0  0
    2.0250    0.2600   -0.9450 C   0  0  2  0  0  0  0  0  0  0  0  0
    2.5870   -0.0190    0.2920 O   0  0  0  0  0  0  0  0  0  0  0  0
    0.6470    0.8880   -0.8380 C   0  0  2  0  0  0  0  0  0  0  0  0
    0.2280    1.0980   -2.1530 O   0  0  0  0  0  0  0  0  0  0  0  0
    0.7920    2.1880   -0.1090 C   0  0  0  0  0  0  0  0  0  0  0  0
   -0.4830    2.9010    0.2390 C   0  0  2  0  0  0  0  0  0  0  0  0
   -0.4430    3.3170    1.5720 O   0  0  0  0  0  0  0  0  0  0  0  0
   -1.6500    2.0240   -0.0560 C   0  0  2  0  0  0  0  0  0  0  0  0
   -2.8680    2.4430    0.3760 O   0  0  0  0  0  0  0  0  0  0  0  0
   -3.8370    2.5640   -0.5970 C   0  0  0  0  0  0  0  0  0  0  0  0
   -4.1270    1.2990   -1.2940 C   0  0  0  0  0  0  0  0  0  0  0  0
   -3.5950    0.2000   -1.0860 O   0  0  0  0  0  0  0  0  0  0  0  0
   -5.1100    1.3570   -2.2980 O   0  0  0  0  0  0  0  0  0  0  0  0
   -1.2870    0.7000    0.5110 N   0  0  0  0  0  0  0  0  0  0  0  0
   -1.9100    0.3370    1.7200 C   0  0  0  0  0  0  0  0  0  0  0  0
   -2.7490    1.1380    2.2760 O   0  0  0  0  0  0  0  0  0  0  0  0
   -1.6070   -0.9620    2.3530 C   0  0  2  0  0  0  0  0  0  0  0  0
   -2.3280   -2.1420    1.8190 C   0  0  0  0  0  0  0  0  0  0  0  0
   -2.0760   -2.3670    0.4820 O   0  0  0  0  0  0  0  0  0  0  0  0
   -1.8810   -0.7640    3.8540 C   0  0  0  0  0  0  0  0  0  0  0  0
   -3.2370   -0.4110    3.9460 O   0  0  0  0  0  0  0  0  0  0  0  0
   -0.3160   -0.0910   -0.1960 C   0  0  0  0  0  0  0  0  0  0  0  0
    2.9610    1.0180   -1.8460 C   0  0  1  0  0  0  0  0  0  0  0  0
    3.5140    2.1480   -1.2420 O   0  0  0  0  0  0  0  0  0  0  0  0
    3.9410    0.0810   -2.1440 O   0  0  0  0  0  0  0  0  0  0  0  0
  1  2  1  0
  2  3  1  0
  3  4  2  0
  5  3  1  1
  5  6  1  0
  5 31  1  0
  6  7  1  0
  7  8  1  1
  7  9  1  0
  7 29  1  0
  9 10  1  6
  9 11  1  0
  9 28  1  0
 11 12  1  0
 12 13  1  1
 12 14  1  0
 14 15  1  1
 14 20  1  0
 15 16  1  0
 16 17  1  0
 17 18  2  0
 17 19  1  0
 20 21  1  0
 20 28  1  0
 21 22  2  0
 21 23  1  0
 23 24  1  6
 23 26  1  0
 24 25  1  0
 26 27  1  0
 29 30  1  1
 29 31  1  0
M  END
