
     RDKit          3D

 32 32  0  0  0  0  0  0  0  0999 V2000
   -2.2450   -5.0450   -0.2380 C   0  0  0  0  0  0  0  0  0  0  0  0
   -1.5590   -4.2200   -1.2720 C   0  0  2  0  0  0  0  0  0  0  0  0
   -0.2430   -4.6590   -1.4620 O   0  0  0  0  0  0  0  0  0  0  0  0
   -1.5640   -2.7210   -0.9030 C   0  0  2  0  0  0  0  0  0  0  0  0
   -3.0150   -2.4120   -0.6160 C   0  0  0  0  0  0  0  0  0  0  0  0
   -3.1690   -1.1160    0.1480 C   0  0  0  0  0  0  0  0  0  0  0  0
   -3.1260   -0.0600   -0.7700 O   0  0  0  0  0  0  0  0  0  0  0  0
   -2.6870    1.2150   -0.5030 C   0  0  0  0  0  0  0  0  0  0  0  0
   -3.0240    2.1230   -1.3030 O   0  0  0  0  0  0  0  0  0  0  0  0
   -1.8490    1.4370    0.7040 C   0  0  2  0  0  0  0  0  0  0  0  0
   -1.8420    2.9670    0.9050 C   0  0  1  0  0  0  0  0  0  0  0  0
   -1.0810    3.6810   -0.1600 C   0  0  0  0  0  0  0  0  0  0  0  0
   -3.1640    3.3730    0.9290 O   0  0  0  0  0  0  0  0  0  0  0  0
   -1.2420    3.3190    2.2460 C   0  0  0  0  0  0  0  0  0  0  0  0
   -1.9300    2.6620    3.2930 O   0  0  0  0  0  0  0  0  0  0  0  0
   -0.5680    1.0250    0.6720 O   0  0  0  0  0  0  0  0  0  0  0  0
    0.2240   -0.0390    0.5560 C   0  0  0  0  0  0  0  0  0  0  0  0
    0.5010   -0.9220    1.4390 O   0  0  0  0  0  0  0  0  0  0  0  0
    0.9310   -0.3360   -0.7240 C   0  0  2  0  0  0  0  0  0  0  0  0
    1.3270   -1.6920   -0.8080 O   0  0  0  0  0  0  0  0  0  0  0  0
    2.2000    0.3940   -0.6790 N   0  0  0  0  0  0  0  0  0  0  0  0
    3.2140    0.1970    0.2700 C   0  0  0  0  0  0  0  0  0  0  0  0
    3.0550   -0.6650    1.1630 O   0  0  0  0  0  0  0  0  0  0  0  0
    4.3950    0.9390    0.2440 O   0  0  0  0  0  0  0  0  0  0  0  0
    5.3610    0.6720    1.2400 C   0  0  0  0  0  0  0  0  0  0  0  0
    6.5740    1.5530    1.0730 C   0  0  0  0  0  0  0  0  0  0  0  0
    6.1440    2.8760    1.1770 O   0  0  0  0  0  0  0  0  0  0  0  0
    0.2040    0.0850   -1.9510 C   0  0  1  0  0  0  0  0  0  0  0  0
    1.2060    0.2370   -2.9540 O   0  0  0  0  0  0  0  0  0  0  0  0
   -0.8220   -0.8590   -2.4490 C   0  0  0  0  0  0  0  0  0  0  0  0
   -1.5270   -0.3690   -3.4060 O   0  0  0  0  0  0  0  0  0  0  0  0
   -0.9810   -2.0750   -1.9500 O   0  0  0  0  0  0  0  0  0  0  0  0
  2  1  1  1
  2  3  1  0
  2  4  1  0
  4  5  1  6
  4 32  1  0
  5  6  1  0
  6  7  1  0
  7  8  1  0
  8  9  2  0
  8 10  1  0
 10 11  1  0
 10 16  1  6
 11 12  1  6
 11 13  1  0
 11 14  1  0
 14 15  1  0
 16 17  1  0
 17 18  2  0
 17 19  1  0
 19 20  1  6
 19 21  1  0
 19 28  1  0
 21 22  1  0
 22 23  2  0
 22 24  1  0
 24 25  1  0
 25 26  1  0
 26 27  1  0
 28 29  1  6
 28 30  1  0
 30 31  2  0
 30 32  1  0
M  END
