
     RDKit          3D

 31 31  0  0  0  0  0  0  0  0999 V2000
    1.5930   -2.1860    2.1570 C   0  0  0  0  0  0  0  0  0  0  0  0
    1.6910   -1.0120    1.2430 C   0  0  1  0  0  0  0  0  0  0  0  0
    0.6470   -0.1110    1.2850 O   0  0  0  0  0  0  0  0  0  0  0  0
   -0.2330    0.1530    0.2800 C   0  0  0  0  0  0  0  0  0  0  0  0
   -0.0640   -0.4940   -0.7800 O   0  0  0  0  0  0  0  0  0  0  0  0
   -1.2770    1.0540    0.3220 O   0  0  0  0  0  0  0  0  0  0  0  0
   -2.1170    1.2280   -0.8050 C   0  0  1  0  0  0  0  0  0  0  0  0
   -3.5010    0.8140   -0.3740 C   0  0  2  0  0  0  0  0  0  0  0  0
   -3.4630   -0.6060    0.0860 C   0  0  2  0  0  0  0  0  0  0  0  0
   -3.0500   -1.5030   -0.8710 O   0  0  0  0  0  0  0  0  0  0  0  0
   -4.7870   -0.9890    0.6890 C   0  0  0  0  0  0  0  0  0  0  0  0
   -5.4320   -2.1540    0.2460 N   0  0  0  0  0  0  0  0  0  0  0  0
   -5.2410   -0.2180    1.5760 O   0  0  0  0  0  0  0  0  0  0  0  0
   -4.5510    1.1070   -1.3950 C   0  0  2  0  0  0  0  0  0  0  0  0
   -4.3170    0.4680   -2.6070 O   0  0  0  0  0  0  0  0  0  0  0  0
   -4.5710    2.6300   -1.5810 C   0  0  0  0  0  0  0  0  0  0  0  0
   -3.2480    3.0170   -2.1500 C   0  0  0  0  0  0  0  0  0  0  0  0
   -2.0710    2.6480   -1.3070 C   0  0  1  0  0  0  0  0  0  0  0  0
   -1.8620    3.5510   -0.2630 O   0  0  0  0  0  0  0  0  0  0  0  0
    3.0620   -0.3610    1.2450 C   0  0  1  0  0  0  0  0  0  0  0  0
    2.9770    0.8060    0.2670 C   0  0  0  0  0  0  0  0  0  0  0  0
    4.1980    1.4680    0.2020 O   0  0  0  0  0  0  0  0  0  0  0  0
    3.4500    0.1980    2.5720 C   0  0  0  0  0  0  0  0  0  0  0  0
    3.5010   -0.7440    3.5860 O   0  0  0  0  0  0  0  0  0  0  0  0
    4.0370   -1.3160    0.6840 C   0  0  0  0  0  0  0  0  0  0  0  0
    3.6810   -2.4670    0.2950 O   0  0  0  0  0  0  0  0  0  0  0  0
    5.3850   -1.0140    0.5520 O   0  0  0  0  0  0  0  0  0  0  0  0
    6.3360   -1.8860    0.0280 C   0  0  0  0  0  0  0  0  0  0  0  0
    5.9780   -2.2340   -1.3610 C   0  0  0  0  0  0  0  0  0  0  0  0
    6.6950   -3.0140   -2.0260 O   0  0  0  0  0  0  0  0  0  0  0  0
    4.8480   -1.6950   -1.9290 O   0  0  0  0  0  0  0  0  0  0  0  0
  2  1  1  1
  2  3  1  0
  2 20  1  0
  3  4  1  0
  4  5  2  0
  4  6  1  0
  7  6  1  1
  7  8  1  0
  7 18  1  0
  8  9  1  6
  8 14  1  0
  9 10  1  6
  9 11  1  0
 11 12  1  0
 11 13  2  0
 14 15  1  6
 14 16  1  0
 16 17  1  0
 17 18  1  0
 18 19  1  1
 20 21  1  6
 20 23  1  0
 20 25  1  0
 21 22  1  0
 23 24  1  0
 25 26  2  0
 25 27  1  0
 27 28  1  0
 28 29  1  0
 29 30  2  0
 29 31  1  0
M  END
