
     RDKit          3D

 33 37  0  0  0  0  0  0  0  0999 V2000
   -3.2610   -3.9780   -1.5000 C   0  0  0  0  0  0  0  0  0  0  0  0
   -1.9900   -3.7520   -0.8250 C   0  0  0  0  0  0  0  0  0  0  0  0
   -1.5220   -2.7090   -0.1900 C   0  0  0  0  0  0  0  0  0  0  0  0
   -0.1420   -2.8650    0.3690 C   0  0  0  0  0  0  0  0  0  0  0  0
   -2.3450   -1.5640    0.0950 C   0  0  0  0  0  0  0  0  0  0  0  0
   -3.7150   -1.7890    0.2840 C   0  0  0  0  0  0  0  0  0  0  0  0
   -4.5790   -0.7790    0.4350 N   0  0  0  0  0  0  0  0  0  0  0  0
   -4.1780    0.5020    0.4150 C   0  0  0  0  0  0  0  0  0  0  0  0
   -2.8480    0.7480    0.2340 C   0  0  0  0  0  0  0  0  0  0  0  0
   -1.9190   -0.2620    0.0730 C   0  0  0  0  0  0  0  0  0  0  0  0
   -0.5600    0.1790   -0.1740 C   0  0  1  0  0  0  0  0  0  0  0  0
   -0.5210    1.3170   -1.1740 C   0  0  0  0  0  0  0  0  0  0  0  0
   -1.4210    1.3210   -2.2180 C   0  0  0  0  0  0  0  0  0  0  0  0
   -1.4920    2.3020   -3.1800 C   0  0  0  0  0  0  0  0  0  0  0  0
   -0.6000    3.3390   -3.0800 C   0  0  0  0  0  0  0  0  0  0  0  0
    0.3070    3.3590   -2.0500 C   0  0  0  0  0  0  0  0  0  0  0  0
    0.3570    2.3610   -1.0970 C   0  0  0  0  0  0  0  0  0  0  0  0
    1.2710    2.4370   -0.1100 O   0  0  0  0  0  0  0  0  0  0  0  0
    2.2380    3.3810    0.1600 C   0  0  0  0  0  0  0  0  0  0  0  0
    0.3620    0.4250    0.9060 C   0  0  0  0  0  0  0  0  0  0  0  0
    0.2560    1.1600    2.0470 C   0  0  0  0  0  0  0  0  0  0  0  0
   -0.9010    1.8970    2.5320 C   0  0  0  0  0  0  0  0  0  0  0  0
    1.4430    1.1120    2.7150 N   0  0  0  0  0  0  0  0  0  0  0  0
    2.2850    0.3720    2.0250 N   0  0  0  0  0  0  0  0  0  0  0  0
    3.5810    0.0760    2.3330 C   0  0  0  0  0  0  0  0  0  0  0  0
    4.1420    0.4910    3.3700 O   0  0  0  0  0  0  0  0  0  0  0  0
    4.3080   -0.7110    1.4730 C   0  0  0  0  0  0  0  0  0  0  0  0
    3.6830   -1.1680    0.3270 C   0  0  0  0  0  0  0  0  0  0  0  0
    2.4170   -0.8380    0.0960 N   0  0  0  0  0  0  0  0  0  0  0  0
    1.6870   -0.0670    0.9280 C   0  0  0  0  0  0  0  0  0  0  0  0
    4.6630   -1.9670   -0.3970 C   0  0  0  0  0  0  0  0  0  0  0  0
    5.7560   -1.9660    0.2800 N   0  0  0  0  0  0  0  0  0  0  0  0
    5.5440   -1.1900    1.4400 C   0  0  0  0  0  0  0  0  0  0  0  0
  1  2  1  0
  2  3  2  3
  3  4  1  0
  3  5  1  0
  5  6  2  0
  5 10  1  0
  6  7  1  0
  7  8  2  0
  8  9  1  0
  9 10  2  0
 11 10  1  1
 11 12  1  0
 11 20  1  0
 12 13  2  0
 12 17  1  0
 13 14  1  0
 14 15  2  0
 15 16  1  0
 16 17  2  0
 17 18  1  0
 18 19  1  0
 20 21  1  0
 20 30  2  0
 21 22  1  0
 21 23  2  0
 23 24  1  0
 24 25  1  0
 24 30  1  0
 25 26  2  0
 25 27  1  0
 27 28  1  0
 27 33  2  0
 28 29  2  0
 28 31  1  0
 29 30  1  0
 31 32  2  0
 32 33  1  0
M  END
