
     RDKit          3D

 31 31  0  0  0  0  0  0  0  0999 V2000
    4.8530   -1.7450   -0.6080 C   0  0  0  0  0  0  0  0  0  0  0  0
    4.9610   -0.6620    0.4660 C   0  0  1  0  0  0  0  0  0  0  0  0
    3.7420   -0.4940    1.1440 O   0  0  0  0  0  0  0  0  0  0  0  0
    2.5490   -0.1320    0.5820 C   0  0  0  0  0  0  0  0  0  0  0  0
    2.5480    0.0710   -0.6790 O   0  0  0  0  0  0  0  0  0  0  0  0
    1.3390    0.0270    1.3030 N   0  0  0  0  0  0  0  0  0  0  0  0
    0.1090    0.4140    0.6390 C   0  0  0  0  0  0  0  0  0  0  0  0
   -1.0130    0.5120    1.6160 C   0  0  1  0  0  0  0  0  0  0  0  0
   -0.7730    1.4480    2.6140 O   0  0  0  0  0  0  0  0  0  0  0  0
   -2.3760    0.7050    1.0480 C   0  0  1  0  0  0  0  0  0  0  0  0
   -2.8210    2.0970    0.8200 C   0  0  0  0  0  0  0  0  0  0  0  0
   -2.0100    2.9340   -0.1050 C   0  0  1  0  0  0  0  0  0  0  0  0
   -1.9110    2.4310   -1.3840 O   0  0  0  0  0  0  0  0  0  0  0  0
   -2.6910    4.3130   -0.2870 C   0  0  0  0  0  0  0  0  0  0  0  0
   -1.8780    5.0810   -1.1000 O   0  0  0  0  0  0  0  0  0  0  0  0
   -2.5680   -0.1900    0.0300 O   0  0  0  0  0  0  0  0  0  0  0  0
   -3.4670   -1.2190    0.3030 C   0  0  2  0  0  0  0  0  0  0  0  0
   -2.7560   -2.4060    0.1850 O   0  0  0  0  0  0  0  0  0  0  0  0
   -3.5040   -3.5440    0.1790 C   0  0  0  0  0  0  0  0  0  0  0  0
   -4.6160   -3.5320   -0.8490 C   0  0  0  0  0  0  0  0  0  0  0  0
   -5.5040   -2.3240   -0.6430 C   0  0  0  0  0  0  0  0  0  0  0  0
   -4.6020   -1.1080   -0.6580 C   0  0  1  0  0  0  0  0  0  0  0  0
   -5.3580    0.0120   -0.3750 O   0  0  0  0  0  0  0  0  0  0  0  0
    6.0130   -1.0350    1.4370 C   0  0  0  0  0  0  0  0  0  0  0  0
    5.7120   -1.1460    2.6470 O   0  0  0  0  0  0  0  0  0  0  0  0
    7.3270   -1.2680    1.0610 O   0  0  0  0  0  0  0  0  0  0  0  0
    5.4300    0.6070   -0.2210 C   0  0  1  0  0  0  0  0  0  0  0  0
    5.6050    1.6120    0.7210 O   0  0  0  0  0  0  0  0  0  0  0  0
    6.7140    0.3310   -0.8720 C   0  0  0  0  0  0  0  0  0  0  0  0
    7.7490    0.9500   -0.5630 O   0  0  0  0  0  0  0  0  0  0  0  0
    6.8320   -0.6410   -1.8670 O   0  0  0  0  0  0  0  0  0  0  0  0
  2  1  1  6
  2  3  1  0
  2 24  1  0
  2 27  1  0
  3  4  1  0
  4  5  2  0
  4  6  1  0
  6  7  1  0
  7  8  1  0
  8  9  1  1
  8 10  1  0
 10 11  1  6
 10 16  1  0
 11 12  1  0
 12 13  1  6
 12 14  1  0
 14 15  1  0
 17 16  1  6
 17 18  1  0
 17 22  1  0
 18 19  1  0
 19 20  1  0
 20 21  1  0
 21 22  1  0
 22 23  1  1
 24 25  2  0
 24 26  1  0
 27 28  1  1
 27 29  1  0
 29 30  2  0
 29 31  1  0
M  END
