
     RDKit          3D

 31 34  0  0  0  0  0  0  0  0999 V2000
    4.1370    2.0390    0.4080 C   0  0  0  0  0  0  0  0  0  0  0  0
    4.0910    0.8480    1.1510 O   0  0  0  0  0  0  0  0  0  0  0  0
    4.4400   -0.3970    0.6610 C   0  0  0  0  0  0  0  0  0  0  0  0
    5.6680   -0.4260    0.1630 C   0  0  0  0  0  0  0  0  0  0  0  0
    6.4530   -1.5060   -0.4550 C   0  0  0  0  0  0  0  0  0  0  0  0
    5.9280   -2.6240   -0.9230 C   0  0  0  0  0  0  0  0  0  0  0  0
    4.5580   -3.1120   -0.9830 C   0  0  0  0  0  0  0  0  0  0  0  0
    3.4900   -2.0990   -0.7140 C   0  0  0  0  0  0  0  0  0  0  0  0
    3.5380   -1.5440    0.6980 C   0  0  2  0  0  0  0  0  0  0  0  0
    2.2680   -1.3550    1.2880 N   0  0  0  0  0  0  0  0  0  0  0  0
    1.2290   -0.8320    0.4560 C   0  0  0  0  0  0  0  0  0  0  0  0
    0.6270    0.4080    1.0680 C   0  0  0  0  0  0  0  0  0  0  0  0
   -0.4740    1.0280    0.2430 C   0  0  1  0  0  0  0  0  0  0  0  0
   -1.5790    0.0420    0.0760 C   0  0  0  0  0  0  0  0  0  0  0  0
   -2.7330    0.5940   -0.7430 C   0  0  0  0  0  0  0  0  0  0  0  0
   -3.7560   -0.5110   -0.8180 C   0  0  0  0  0  0  0  0  0  0  0  0
   -4.9960   -0.4490   -0.3800 C   0  0  0  0  0  0  0  0  0  0  0  0
   -5.6730   -1.7080   -0.6290 C   0  0  0  0  0  0  0  0  0  0  0  0
   -6.8230   -2.4680   -0.5320 C   0  0  0  0  0  0  0  0  0  0  0  0
   -6.5690   -3.6760   -1.0730 N   0  0  0  0  0  0  0  0  0  0  0  0
   -5.3060   -3.7470   -1.5220 C   0  0  0  0  0  0  0  0  0  0  0  0
   -4.7420   -2.5090   -1.2430 C   0  0  0  0  0  0  0  0  0  0  0  0
   -3.5540   -1.7940   -1.3700 N   0  0  0  0  0  0  0  0  0  0  0  0
   -0.9310    2.2130    0.8440 N   0  0  0  0  0  0  0  0  0  0  0  0
   -1.5170    2.1570    2.1090 C   0  0  0  0  0  0  0  0  0  0  0  0
   -2.7340    3.0440    2.1040 C   0  0  0  0  0  0  0  0  0  0  0  0
   -3.6660    2.7770    2.9140 O   0  0  0  0  0  0  0  0  0  0  0  0
   -2.7590    4.0890    1.2210 O   0  0  0  0  0  0  0  0  0  0  0  0
   -1.9330    4.2350    0.0900 C   0  0  0  0  0  0  0  0  0  0  0  0
   -0.6450    3.4470    0.2710 C   0  0  2  0  0  0  0  0  0  0  0  0
    0.1570    3.3780   -0.9820 C   0  0  0  0  0  0  0  0  0  0  0  0
  1  2  1  0
  2  3  1  0
  3  4  2  0
  3  9  1  0
  4  5  1  0
  5  6  2  0
  6  7  1  0
  7  8  1  0
  8  9  1  0
  9 10  1  6
 10 11  1  0
 11 12  1  0
 13 12  1  1
 13 14  1  0
 13 24  1  0
 14 15  1  0
 15 16  1  0
 16 17  2  0
 16 23  1  0
 17 18  1  0
 18 19  2  0
 18 22  1  0
 19 20  1  0
 20 21  1  0
 21 22  2  0
 22 23  1  0
 24 25  1  0
 24 30  1  0
 25 26  1  0
 26 27  2  0
 26 28  1  0
 28 29  1  0
 29 30  1  0
 30 31  1  6
M  CHG  2  10   1  23   1
M  END
