
     RDKit          3D

 31 34  0  0  0  0  0  0  0  0999 V2000
   10.8740   -0.0630    3.4160 N   0  0  0  0  0  0  0  0  0  0  0  0
    9.8920   -0.1520    2.8420 C   0  0  0  0  0  0  0  0  0  0  0  0
    8.6250   -0.2520    2.1210 C   0  0  0  0  0  0  0  0  0  0  0  0
    8.2260   -1.4230    1.5120 C   0  0  0  0  0  0  0  0  0  0  0  0
    7.0360   -1.4880    0.8390 C   0  0  0  0  0  0  0  0  0  0  0  0
    6.1790   -0.3960    0.7340 C   0  0  0  0  0  0  0  0  0  0  0  0
    5.0310   -0.5730    0.0440 O   0  0  0  0  0  0  0  0  0  0  0  0
    3.9430    0.1610   -0.2870 C   0  0  0  0  0  0  0  0  0  0  0  0
    3.0600    0.6640    0.8330 C   0  0  0  0  0  0  0  0  0  0  0  0
    1.9070    1.4520    0.3350 C   0  0  0  0  0  0  0  0  0  0  0  0
    1.0050    0.7900   -0.5690 N   0  0  1  0  0  0  0  0  0  0  0  0
    0.5130   -0.4820   -0.1620 C   0  0  0  0  0  0  0  0  0  0  0  0
   -0.8140   -0.5110    0.4780 C   0  0  0  0  0  0  0  0  0  0  0  0
   -1.8260    0.4590   -0.0630 C   0  0  2  0  0  0  0  0  0  0  0  0
   -3.1680   -0.1280   -0.2870 C   0  0  1  0  0  0  0  0  0  0  0  0
   -3.4920   -0.7910    0.9320 O   0  0  0  0  0  0  0  0  0  0  0  0
   -4.2280    0.9740   -0.2290 C   0  0  0  0  0  0  0  0  0  0  0  0
   -3.9700    2.2520   -0.5980 C   0  0  0  0  0  0  0  0  0  0  0  0
   -4.9470    3.2570   -0.5290 C   0  0  0  0  0  0  0  0  0  0  0  0
   -6.1870    2.8990   -0.0700 C   0  0  0  0  0  0  0  0  0  0  0  0
   -6.4570    1.6080    0.3080 C   0  0  0  0  0  0  0  0  0  0  0  0
   -5.4650    0.6250    0.2300 C   0  0  0  0  0  0  0  0  0  0  0  0
   -3.3090   -0.9690   -1.4450 C   0  0  1  0  0  0  0  0  0  0  0  0
   -2.4890   -2.2340   -1.5810 C   0  0  0  0  0  0  0  0  0  0  0  0
   -3.2970   -3.2720   -0.8070 C   0  0  0  0  0  0  0  0  0  0  0  0
   -4.7500   -2.8170   -0.9420 C   0  0  0  0  0  0  0  0  0  0  0  0
   -4.7180   -1.5190   -1.7330 C   0  0  0  0  0  0  0  0  0  0  0  0
   -1.1990    0.8790   -1.4230 C   0  0  0  0  0  0  0  0  0  0  0  0
   -0.0210    1.7240   -1.0240 C   0  0  0  0  0  0  0  0  0  0  0  0
    6.5700    0.7770    1.3380 C   0  0  0  0  0  0  0  0  0  0  0  0
    7.7830    0.8240    2.0180 C   0  0  0  0  0  0  0  0  0  0  0  0
  1  2  3  0
  2  3  1  0
  3  4  2  0
  3 31  1  0
  4  5  1  0
  5  6  2  0
  6  7  1  0
  6 30  1  0
  7  8  1  0
  8  9  1  0
  9 10  1  0
 11 10  1  1
 11 12  1  0
 11 29  1  0
 12 13  1  0
 14 13  1  6
 14 15  1  0
 14 28  1  0
 15 16  1  1
 15 17  1  0
 15 23  1  0
 17 18  2  0
 17 22  1  0
 18 19  1  0
 19 20  2  0
 20 21  1  0
 21 22  2  0
 23 24  1  1
 23 27  1  0
 24 25  1  0
 25 26  1  0
 26 27  1  0
 28 29  1  0
 30 31  2  0
M  CHG  1  11   1
M  END
