
     RDKit          3D

 31 35  0  0  0  0  0  0  0  0999 V2000
   -2.0430    6.0160   -0.5910 C   0  0  0  0  0  0  0  0  0  0  0  0
   -1.5610    4.5900   -0.4710 C   0  0  0  0  0  0  0  0  0  0  0  0
   -2.6970    3.7430   -0.5190 O   0  0  0  0  0  0  0  0  0  0  0  0
   -2.6080    2.3770   -0.4260 C   0  0  0  0  0  0  0  0  0  0  0  0
   -1.3720    1.8110   -0.2820 C   0  0  0  0  0  0  0  0  0  0  0  0
   -1.1200    0.4230   -0.1720 C   0  0  0  0  0  0  0  0  0  0  0  0
    0.2110   -0.1090   -0.0290 C   0  0  1  0  0  0  0  0  0  0  0  0
    1.0530    1.1130   -0.6140 C   0  0  0  0  0  0  0  0  0  0  0  0
    2.4880    0.5580   -0.7390 C   0  0  0  0  0  0  0  0  0  0  0  0
    3.0800    0.7970    0.5590 N   0  0  2  0  0  0  0  0  0  0  0  0
    4.1060   -0.1700    0.8780 C   0  0  1  0  0  0  0  0  0  0  0  0
    5.0250   -0.2570   -0.3280 C   0  0  0  0  0  0  0  0  0  0  0  0
    6.3740   -0.4000    0.3350 C   0  0  0  0  0  0  0  0  0  0  0  0
    6.3040    0.0850    1.6090 O   0  0  0  0  0  0  0  0  0  0  0  0
    4.9930    0.3820    1.9320 C   0  0  0  0  0  0  0  0  0  0  0  0
    2.0220    0.8260    1.5350 C   0  0  0  0  0  0  0  0  0  0  0  0
    0.9210   -0.1310    1.2840 C   0  0  0  0  0  0  0  0  0  0  0  0
   -2.2480   -0.3770   -0.2180 C   0  0  0  0  0  0  0  0  0  0  0  0
   -2.1620   -1.7510   -0.1490 C   0  0  0  0  0  0  0  0  0  0  0  0
   -3.3310   -2.5190   -0.2390 C   0  0  0  0  0  0  0  0  0  0  0  0
   -4.5480   -1.8880   -0.3890 C   0  0  0  0  0  0  0  0  0  0  0  0
   -4.6170   -0.5620   -0.4490 N   0  0  0  0  0  0  0  0  0  0  0  0
   -3.5380    0.2050   -0.3710 C   0  0  0  0  0  0  0  0  0  0  0  0
   -3.6830    1.5840   -0.4720 C   0  0  0  0  0  0  0  0  0  0  0  0
   -5.0540    2.0890   -0.6210 C   0  0  0  0  0  0  0  0  0  0  0  0
   -5.5080    2.2250   -1.7600 O   0  0  0  0  0  0  0  0  0  0  0  0
   -3.4980   -4.0030   -0.2150 C   0  0  0  0  0  0  0  0  0  0  0  0
   -2.5610   -4.7100   -1.1650 C   0  0  0  0  0  0  0  0  0  0  0  0
   -1.1220   -4.3980   -0.8040 C   0  0  0  0  0  0  0  0  0  0  0  0
   -1.0610   -3.6170    0.4140 N   0  0  0  0  0  0  0  0  0  0  0  0
   -0.8470   -2.1870    0.1000 N   0  0  0  0  0  0  0  0  0  0  0  0
  1  2  1  0
  2  3  1  0
  3  4  1  0
  4  5  2  0
  4 24  1  0
  5  6  1  0
  7  6  1  1
  6 18  2  0
  7  8  1  0
  7 17  1  0
  8  9  1  0
 10  9  1  6
 10 11  1  0
 10 16  1  0
 11 12  1  6
 11 15  1  0
 12 13  1  0
 13 14  1  0
 14 15  1  0
 16 17  1  0
 18 19  1  0
 18 23  1  0
 19 20  2  0
 19 31  1  0
 20 21  1  0
 20 27  1  0
 21 22  2  0
 22 23  1  0
 23 24  2  0
 24 25  1  0
 25 26  2  0
 27 28  1  0
 28 29  1  0
 29 30  1  0
 30 31  1  0
M  CHG  2  10   1  31   1
M  END
