
     RDKit          3D

 31 35  0  0  0  0  0  0  0  0999 V2000
   -2.9850   -2.1810    0.5430 C   0  0  0  0  0  0  0  0  0  0  0  0
   -1.5290   -2.4550    0.1420 C   0  0  1  0  0  0  0  0  0  0  0  0
   -0.6670   -1.5650    0.8740 N   0  0  0  0  0  0  0  0  0  0  0  0
   -0.6000   -0.2170    0.2600 C   0  0  2  0  0  0  0  0  0  0  0  0
    0.2500   -0.2630   -0.9310 C   0  0  1  0  0  0  0  0  0  0  0  0
    0.3850    1.0550   -1.6190 C   0  0  0  0  0  0  0  0  0  0  0  0
    1.1560    0.9670   -2.9190 C   0  0  0  0  0  0  0  0  0  0  0  0
    2.4240    0.1730   -2.8170 C   0  0  1  0  0  0  0  0  0  0  0  0
    3.4580    0.8670   -2.0370 C   0  0  0  0  0  0  0  0  0  0  0  0
    4.5800    1.1310   -2.5910 O   0  0  0  0  0  0  0  0  0  0  0  0
    3.3300    1.2720   -0.7330 O   0  0  0  0  0  0  0  0  0  0  0  0
    2.0590   -1.1920   -2.2910 C   0  0  0  0  0  0  0  0  0  0  0  0
    1.5020   -1.0760   -0.8840 C   0  0  0  0  0  0  0  0  0  0  0  0
   -0.3850    0.7490    1.3540 C   0  0  1  0  0  0  0  0  0  0  0  0
    0.7420    0.6800    2.1540 N   0  0  0  0  0  0  0  0  0  0  0  0
    1.2010    2.0040    2.3220 C   0  0  0  0  0  0  0  0  0  0  0  0
    0.4690    2.9000    1.7020 C   0  0  0  0  0  0  0  0  0  0  0  0
    0.5670    4.3200    1.6070 N   0  0  0  0  0  0  0  0  0  0  0  0
   -0.4480    4.9870    0.8280 C   0  0  0  0  0  0  0  0  0  0  0  0
   -0.6560    6.3180    0.5320 C   0  0  0  0  0  0  0  0  0  0  0  0
   -1.7820    6.4030   -0.2560 C   0  0  0  0  0  0  0  0  0  0  0  0
   -2.2290    5.1830   -0.4260 O   0  0  0  0  0  0  0  0  0  0  0  0
   -1.4680    4.3040    0.2010 C   0  0  0  0  0  0  0  0  0  0  0  0
   -1.4990    2.8530    0.3450 C   0  0  0  0  0  0  0  0  0  0  0  0
   -0.6010    2.1670    1.0440 C   0  0  0  0  0  0  0  0  0  0  0  0
   -1.2370   -3.8330    0.5910 C   0  0  0  0  0  0  0  0  0  0  0  0
   -1.0890   -4.8690   -0.2920 C   0  0  0  0  0  0  0  0  0  0  0  0
   -0.8160   -6.1210    0.2370 C   0  0  0  0  0  0  0  0  0  0  0  0
   -0.7050   -6.2850    1.5880 C   0  0  0  0  0  0  0  0  0  0  0  0
   -0.8480   -5.2780    2.4480 N   0  0  0  0  0  0  0  0  0  0  0  0
   -1.1130   -4.0600    1.9440 C   0  0  0  0  0  0  0  0  0  0  0  0
  2  1  1  1
  2  3  1  0
  2 26  1  0
  4  3  1  1
  4  5  1  0
  4 14  1  0
  5  6  1  1
  5 13  1  0
  6  7  1  0
  7  8  1  0
  8  9  1  1
  8 12  1  0
  9 10  2  0
  9 11  1  0
 12 13  1  0
 14 15  1  6
 14 25  1  0
 15 16  1  0
 16 17  2  0
 17 18  1  0
 17 25  1  0
 18 19  1  0
 19 20  1  0
 19 23  2  0
 20 21  2  0
 21 22  1  0
 22 23  1  0
 23 24  1  0
 24 25  2  0
 26 27  2  0
 26 31  1  0
 27 28  1  0
 28 29  2  0
 29 30  1  0
 30 31  2  0
M  CHG  2   3   1  15   1
M  END
