
     RDKit          3D

 31 35  0  0  0  0  0  0  0  0999 V2000
    5.1380    2.4750    1.4570 O   0  0  0  0  0  0  0  0  0  0  0  0
    4.4140    1.5920    0.6800 C   0  0  0  0  0  0  0  0  0  0  0  0
    5.1020    0.4350    0.2450 C   0  0  0  0  0  0  0  0  0  0  0  0
    6.5160    0.5340    0.8230 C   0  0  0  0  0  0  0  0  0  0  0  0
    7.2360   -0.6300    0.3000 C   0  0  0  0  0  0  0  0  0  0  0  0
    7.9190   -0.4490   -0.9040 C   0  0  0  0  0  0  0  0  0  0  0  0
    8.5930   -1.5070   -1.4380 C   0  0  0  0  0  0  0  0  0  0  0  0
    8.5520   -2.7020   -0.7370 C   0  0  0  0  0  0  0  0  0  0  0  0
    7.9060   -2.8640    0.3980 N   0  0  0  0  0  0  0  0  0  0  0  0
    7.2140   -1.8360    0.9760 C   0  0  0  0  0  0  0  0  0  0  0  0
    3.2460    2.1530    0.5860 N   0  0  0  0  0  0  0  0  0  0  0  0
    1.9520    2.6240    0.4180 C   0  0  0  0  0  0  0  0  0  0  0  0
    1.9700    3.8070    0.9230 O   0  0  0  0  0  0  0  0  0  0  0  0
    1.0080    1.9110   -0.1430 N   0  0  0  0  0  0  0  0  0  0  0  0
   -0.3220    3.0040    0.1520 C   0  0  0  0  0  0  0  0  0  0  0  0
   -0.0160    3.9670    0.6980 O   0  0  0  0  0  0  0  0  0  0  0  0
   -1.5290    2.4740   -0.3450 C   0  0  0  0  0  0  0  0  0  0  0  0
   -2.0080    2.6950   -1.6460 C   0  0  0  0  0  0  0  0  0  0  0  0
   -3.1800    2.1680   -2.1100 C   0  0  0  0  0  0  0  0  0  0  0  0
   -3.9530    1.3830   -1.2990 C   0  0  0  0  0  0  0  0  0  0  0  0
   -3.5450    1.1280   -0.0200 C   0  0  0  0  0  0  0  0  0  0  0  0
   -2.3700    1.6600    0.4330 C   0  0  0  0  0  0  0  0  0  0  0  0
   -4.5450    0.2780    0.6290 C   0  0  2  0  0  0  0  0  0  0  0  0
   -4.0270   -0.7830    1.4540 N   0  0  0  0  0  0  0  0  0  0  0  0
   -5.0840   -1.7950    1.5410 C   0  0  2  0  0  0  0  0  0  0  0  0
   -4.9960   -2.8350    0.4640 C   0  0  0  0  0  0  0  0  0  0  0  0
   -6.1880   -2.6190   -0.4800 C   0  0  0  0  0  0  0  0  0  0  0  0
   -6.4220   -1.1190   -0.2040 C   0  0  1  0  0  0  0  0  0  0  0  0
   -6.4580   -1.2220    1.3310 C   0  0  0  0  0  0  0  0  0  0  0  0
   -5.1730   -0.4250   -0.5730 C   0  0  1  0  0  0  0  0  0  0  0  0
   -5.2730    0.6890   -1.5480 C   0  0  0  0  0  0  0  0  0  0  0  0
  1  2  2  0
  2  3  1  0
  2 11  1  0
  3  4  1  0
  4  5  1  0
  5  6  2  0
  5 10  1  0
  6  7  1  0
  7  8  2  0
  8  9  1  0
  9 10  2  0
 11 12  1  0
 12 13  2  0
 12 14  1  0
 14 15  1  0
 15 16  2  0
 15 17  1  0
 17 18  2  0
 17 22  1  0
 18 19  1  0
 19 20  2  0
 20 21  1  0
 20 31  1  0
 21 22  2  0
 21 23  1  0
 23 24  1  1
 23 30  1  0
 24 25  1  0
 25 26  1  6
 25 29  1  0
 26 27  1  0
 28 27  1  6
 28 29  1  0
 28 30  1  0
 30 31  1  6
M  CHG  1   9   1
M  END
