
     RDKit          3D

 30 34  0  0  0  0  0  0  0  0999 V2000
    5.6060   -4.4320   -0.0080 C   0  0  0  0  0  0  0  0  0  0  0  0
    5.7020   -3.0240   -0.0480 O   0  0  0  0  0  0  0  0  0  0  0  0
    4.5780   -2.2120   -0.0280 C   0  0  0  0  0  0  0  0  0  0  0  0
    4.6830   -0.8490   -0.0700 C   0  0  0  0  0  0  0  0  0  0  0  0
    3.5240   -0.0430   -0.0500 C   0  0  0  0  0  0  0  0  0  0  0  0
    2.3140   -0.6640    0.0160 C   0  0  0  0  0  0  0  0  0  0  0  0
    2.2080   -2.0500    0.0580 C   0  0  0  0  0  0  0  0  0  0  0  0
    3.3460   -2.8080    0.0340 C   0  0  0  0  0  0  0  0  0  0  0  0
    0.9270   -2.7520    0.1520 C   0  0  0  0  0  0  0  0  0  0  0  0
   -0.2040   -2.0190   -0.2030 N   0  0  0  0  0  0  0  0  0  0  0  0
   -0.1240   -0.6150   -0.1980 C   0  0  0  0  0  0  0  0  0  0  0  0
    1.0800    0.1010   -0.1020 C   0  0  0  0  0  0  0  0  0  0  0  0
    1.0910    1.4720   -0.1150 C   0  0  0  0  0  0  0  0  0  0  0  0
   -0.1150    2.1300   -0.2400 C   0  0  0  0  0  0  0  0  0  0  0  0
   -1.2950    1.4210   -0.3370 C   0  0  0  0  0  0  0  0  0  0  0  0
   -2.5990    2.1380   -0.4770 C   0  0  0  0  0  0  0  0  0  0  0  0
   -1.3280    0.0450   -0.3160 C   0  0  0  0  0  0  0  0  0  0  0  0
   -2.5990   -0.6360   -0.4510 N   0  0  0  0  0  0  0  0  0  0  0  0
   -3.2220   -0.6610   -1.7690 C   0  0  0  0  0  0  0  0  0  0  0  0
   -2.6140   -0.4370   -2.8550 O   0  0  0  0  0  0  0  0  0  0  0  0
   -4.5920   -0.9760   -1.5720 N   0  0  0  0  0  0  0  0  0  0  0  0
   -4.6230   -1.7920   -0.4080 C   0  0  2  0  0  0  0  0  0  0  0  0
   -5.9160   -1.8590    0.3240 C   0  0  0  0  0  0  0  0  0  0  0  0
   -3.4520   -1.3160    0.4390 C   0  0  2  0  0  0  0  0  0  0  0  0
   -4.0500   -0.4790    1.5530 C   0  0  0  0  0  0  0  0  0  0  0  0
   -0.2890    3.6190   -0.3560 C   0  0  0  0  0  0  0  0  0  0  0  0
    1.0970    4.2210   -0.3070 C   0  0  0  0  0  0  0  0  0  0  0  0
    1.7310    3.5520    0.8090 N   0  0  2  0  0  0  0  0  0  0  0  0
    2.8920    4.3730    1.1410 C   0  0  0  0  0  0  0  0  0  0  0  0
    2.2660    2.2730    0.1840 C   0  0  0  0  0  0  0  0  0  0  0  0
  1  2  1  0
  2  3  1  0
  3  4  2  0
  3  8  1  0
  4  5  1  0
  5  6  2  0
  6  7  1  0
  6 12  1  0
  7  8  2  0
  7  9  1  0
  9 10  1  0
 10 11  1  0
 11 12  2  0
 11 17  1  0
 12 13  1  0
 13 14  2  0
 13 30  1  0
 14 15  1  0
 14 26  1  0
 15 16  1  0
 15 17  2  0
 17 18  1  0
 18 19  1  0
 18 24  1  0
 19 20  2  0
 19 21  1  0
 21 22  1  0
 22 23  1  1
 22 24  1  0
 24 25  1  1
 26 27  1  0
 27 28  1  0
 28 29  1  6
 28 30  1  0
M  CHG  2  10   1  28   1
M  END
