
     RDKit          3D

 31 34  0  0  0  0  0  0  0  0999 V2000
   -1.0940    2.7910    1.0250 O   0  0  0  0  0  0  0  0  0  0  0  0
   -1.0140    1.5060    0.7470 C   0  0  0  0  0  0  0  0  0  0  0  0
   -2.2980    0.9080    0.4960 C   0  0  0  0  0  0  0  0  0  0  0  0
   -2.4600   -0.4090    0.0610 N   0  0  0  0  0  0  0  0  0  0  0  0
   -2.1730   -0.7420   -1.2880 C   0  0  0  0  0  0  0  0  0  0  0  0
   -2.8800    0.1520   -2.2600 C   0  0  0  0  0  0  0  0  0  0  0  0
   -4.0850    0.6590   -2.1030 C   0  0  0  0  0  0  0  0  0  0  0  0
   -5.0270    0.4920   -0.9720 C   0  0  0  0  0  0  0  0  0  0  0  0
   -6.0330    1.2940   -0.8590 C   0  0  0  0  0  0  0  0  0  0  0  0
   -6.9710    1.2830    0.0990 F   0  0  0  0  0  0  0  0  0  0  0  0
   -6.1460    2.2630   -1.8430 F   0  0  0  0  0  0  0  0  0  0  0  0
   -4.8820   -0.5440    0.0470 C   0  0  0  0  0  0  0  0  0  0  0  0
   -5.9900   -1.1020    0.4680 C   0  0  0  0  0  0  0  0  0  0  0  0
   -5.9280   -2.1610    1.5100 C   0  0  0  0  0  0  0  0  0  0  0  0
   -6.6800   -1.7180    2.6140 F   0  0  0  0  0  0  0  0  0  0  0  0
   -3.6180   -1.0560    0.6380 C   0  0  0  0  0  0  0  0  0  0  0  0
    0.2940    1.0200    0.7650 N   0  0  0  0  0  0  0  0  0  0  0  0
    0.6070   -0.3680    0.5950 C   0  0  0  0  0  0  0  0  0  0  0  0
    1.5110   -0.4360   -0.6440 C   0  0  0  0  0  0  0  0  0  0  0  0
    2.8270    0.0840   -0.1420 C   0  0  0  0  0  0  0  0  0  0  0  0
    4.0390   -0.3540   -0.2990 N   0  0  0  0  0  0  0  0  0  0  0  0
    5.0630    0.0820    0.1270 C   0  0  0  0  0  0  0  0  0  0  0  0
    6.5100   -0.1310    0.1580 C   0  0  0  0  0  0  0  0  0  0  0  0
    7.3880    0.6900    0.8290 C   0  0  0  0  0  0  0  0  0  0  0  0
    8.7330    0.3920    0.7910 C   0  0  0  0  0  0  0  0  0  0  0  0
    9.1210   -0.7140    0.0810 C   0  0  0  0  0  0  0  0  0  0  0  0
    8.2840   -1.5310   -0.5830 N   0  0  0  0  0  0  0  0  0  0  0  0
    6.9670   -1.2270   -0.5370 C   0  0  0  0  0  0  0  0  0  0  0  0
    4.3640    1.5670    1.0690 S   0  0  0  0  0  0  0  0  0  0  0  0
    2.7140    1.2510    0.6500 C   0  0  0  0  0  0  0  0  0  0  0  0
    1.4450    1.9120    0.9500 C   0  0  0  0  0  0  0  0  0  0  0  0
  1  2  2  0
  2  3  1  0
  2 17  1  0
  3  4  1  0
  4  5  1  0
  4 16  1  0
  5  6  1  0
  6  7  2  0
  7  8  1  0
  8  9  2  3
  8 12  1  0
  9 10  1  0
  9 11  1  0
 12 13  2  3
 12 16  1  0
 13 14  1  0
 14 15  1  0
 17 18  1  0
 17 31  1  0
 18 19  1  0
 19 20  1  0
 20 21  1  0
 20 30  2  0
 21 22  2  0
 22 23  1  0
 22 29  1  0
 23 24  2  0
 23 28  1  0
 24 25  1  0
 25 26  2  0
 26 27  1  0
 27 28  2  0
 29 30  1  0
 30 31  1  0
M  END
