
     RDKit          3D

 31 34  0  0  0  0  0  0  0  0999 V2000
    9.6420    0.5170    1.1380 C   0  0  0  0  0  0  0  0  0  0  0  0
    8.1610    0.5230    1.2780 C   0  0  0  0  0  0  0  0  0  0  0  0
    7.5400    1.7410    1.4860 C   0  0  0  0  0  0  0  0  0  0  0  0
    6.1740    1.7060    1.6100 C   0  0  0  0  0  0  0  0  0  0  0  0
    5.4160    0.5440    1.5370 C   0  0  0  0  0  0  0  0  0  0  0  0
    4.0110    0.5570    1.7030 N   0  0  0  0  0  0  0  0  0  0  0  0
    3.1490   -0.5920    1.6380 C   0  0  0  0  0  0  0  0  0  0  0  0
    2.9010   -1.1400    0.2770 C   0  0  0  0  0  0  0  0  0  0  0  0
    2.1970   -0.2140   -0.6530 C   0  0  0  0  0  0  0  0  0  0  0  0
    0.8660    0.1720   -0.2880 N   0  0  0  0  0  0  0  0  0  0  0  0
    0.6010    1.0780    0.8160 C   0  0  0  0  0  0  0  0  0  0  0  0
   -0.2460   -0.3550   -0.9960 C   0  0  0  0  0  0  0  0  0  0  0  0
   -0.1610   -1.2440   -2.0350 C   0  0  0  0  0  0  0  0  0  0  0  0
   -1.2360   -1.7440   -2.7090 C   0  0  0  0  0  0  0  0  0  0  0  0
   -2.5270   -1.3520   -2.3540 C   0  0  0  0  0  0  0  0  0  0  0  0
   -2.6630   -0.4730   -1.3280 C   0  0  0  0  0  0  0  0  0  0  0  0
   -1.5590    0.0180   -0.6610 C   0  0  0  0  0  0  0  0  0  0  0  0
   -4.0280   -0.1310   -0.8840 C   0  0  0  0  0  0  0  0  0  0  0  0
   -4.1280    0.7920    0.2390 C   0  0  0  0  0  0  0  0  0  0  0  0
   -4.8090    0.3520    1.3610 C   0  0  0  0  0  0  0  0  0  0  0  0
   -4.9930    1.1470    2.4660 C   0  0  0  0  0  0  0  0  0  0  0  0
   -4.4790    2.4320    2.4530 C   0  0  0  0  0  0  0  0  0  0  0  0
   -3.7930    2.8990    1.3420 C   0  0  0  0  0  0  0  0  0  0  0  0
   -3.6330    2.0670    0.2580 C   0  0  0  0  0  0  0  0  0  0  0  0
   -5.0820   -0.6540   -1.4360 C   0  0  0  0  0  0  0  0  0  0  0  0
   -6.4640   -0.2760   -0.9690 C   0  0  0  0  0  0  0  0  0  0  0  0
   -7.2020   -1.3850   -0.4560 N   0  0  0  0  0  0  0  0  0  0  0  0
   -4.9860   -1.6780   -2.4940 C   0  0  0  0  0  0  0  0  0  0  0  0
   -3.6760   -1.8360   -3.1290 C   0  0  0  0  0  0  0  0  0  0  0  0
    6.0640   -0.5990    1.3360 N   0  0  0  0  0  0  0  0  0  0  0  0
    7.4200   -0.6180    1.2070 C   0  0  0  0  0  0  0  0  0  0  0  0
  1  2  1  0
  2  3  2  0
  2 31  1  0
  3  4  1  0
  4  5  2  0
  5  6  1  0
  5 30  1  0
  6  7  1  0
  7  8  1  0
  8  9  1  0
  9 10  1  0
 10 11  1  0
 10 12  1  0
 12 13  2  0
 12 17  1  0
 13 14  1  0
 14 15  2  0
 15 16  1  0
 15 29  1  0
 16 17  2  0
 16 18  1  0
 18 19  1  0
 18 25  2  0
 19 20  2  0
 19 24  1  0
 20 21  1  0
 21 22  2  0
 22 23  1  0
 23 24  2  0
 25 26  1  0
 25 28  1  0
 26 27  1  0
 28 29  1  0
 30 31  2  0
M  CHG  2  27   1  30   1
M  END
