
     RDKit          3D

 31 34  0  0  0  0  0  0  0  0999 V2000
    7.0240    0.7530    2.3300 C   0  0  0  0  0  0  0  0  0  0  0  0
    7.1120    1.1230    0.8690 C   0  0  0  0  0  0  0  0  0  0  0  0
    6.0890    2.0070    0.4270 N   0  0  0  0  0  0  0  0  0  0  0  0
    4.8610    1.3580    0.1110 C   0  0  0  0  0  0  0  0  0  0  0  0
    4.6850    0.0360    0.4300 C   0  0  0  0  0  0  0  0  0  0  0  0
    3.4490   -0.5360    0.0890 C   0  0  0  0  0  0  0  0  0  0  0  0
    2.4560    0.1670   -0.5290 C   0  0  0  0  0  0  0  0  0  0  0  0
    1.1540   -0.5160   -0.9000 C   0  0  2  0  0  0  0  0  0  0  0  0
    1.3800   -1.9550   -0.3280 C   0  0  0  0  0  0  0  0  0  0  0  0
    1.0650   -0.5990   -2.3730 C   0  0  0  0  0  0  0  0  0  0  0  0
    0.0090    0.0010   -0.1860 C   0  0  0  0  0  0  0  0  0  0  0  0
   -1.3110   -0.3160   -0.3930 N   0  0  0  0  0  0  0  0  0  0  0  0
   -2.1320   -1.3610   -0.8180 C   0  0  0  0  0  0  0  0  0  0  0  0
   -1.8110   -2.4150   -1.6360 C   0  0  0  0  0  0  0  0  0  0  0  0
   -2.6970   -3.3880   -2.0800 C   0  0  0  0  0  0  0  0  0  0  0  0
   -4.0110   -3.3290   -1.6960 C   0  0  0  0  0  0  0  0  0  0  0  0
   -5.0980   -4.0970   -1.9460 N   0  0  0  0  0  0  0  0  0  0  0  0
   -6.1070   -3.5650   -1.3130 N   0  0  0  0  0  0  0  0  0  0  0  0
   -5.7410   -2.4670   -0.6460 C   0  0  0  0  0  0  0  0  0  0  0  0
   -4.3740   -2.2990   -0.8860 C   0  0  0  0  0  0  0  0  0  0  0  0
   -3.5130   -1.3360   -0.4410 C   0  0  0  0  0  0  0  0  0  0  0  0
   -4.0180   -0.2870    0.4310 C   0  0  0  0  0  0  0  0  0  0  0  0
   -3.8670   -0.3500    1.8020 C   0  0  0  0  0  0  0  0  0  0  0  0
   -4.3450    0.6450    2.6310 C   0  0  0  0  0  0  0  0  0  0  0  0
   -4.9980    1.7510    2.1340 C   0  0  0  0  0  0  0  0  0  0  0  0
   -5.5120    2.8220    3.0440 C   0  0  0  0  0  0  0  0  0  0  0  0
   -5.1540    1.8210    0.7670 C   0  0  0  0  0  0  0  0  0  0  0  0
   -4.6740    0.8230   -0.0630 C   0  0  0  0  0  0  0  0  0  0  0  0
    2.6300    1.4940   -0.8520 C   0  0  0  0  0  0  0  0  0  0  0  0
    1.6200    2.3020   -1.5190 C   0  0  0  0  0  0  0  0  0  0  0  0
    3.8700    2.0680   -0.5100 C   0  0  0  0  0  0  0  0  0  0  0  0
  1  2  1  0
  2  3  1  0
  3  4  1  0
  4  5  2  0
  4 31  1  0
  5  6  1  0
  6  7  2  0
  7  8  1  0
  7 29  1  0
  8  9  1  1
  8 10  1  0
  8 11  1  0
 11 12  1  0
 12 13  1  0
 13 14  2  0
 13 21  1  0
 14 15  1  0
 15 16  2  0
 16 17  1  0
 16 20  1  0
 17 18  1  0
 18 19  2  0
 19 20  1  0
 20 21  2  0
 21 22  1  0
 22 23  2  0
 22 28  1  0
 23 24  1  0
 24 25  2  0
 25 26  1  0
 25 27  1  0
 27 28  2  0
 29 30  1  0
 29 31  2  0
M  CHG  1   3   1
M  END
