
     RDKit          3D

 31 34  0  0  0  0  0  0  0  0999 V2000
    4.9660   -0.6330    3.4200 C   0  0  0  0  0  0  0  0  0  0  0  0
    4.9860   -0.6490    1.9540 C   0  0  0  0  0  0  0  0  0  0  0  0
    6.1820   -0.7130    1.2800 C   0  0  0  0  0  0  0  0  0  0  0  0
    6.1990   -0.7280   -0.1110 C   0  0  0  0  0  0  0  0  0  0  0  0
    7.3810   -0.7910   -0.8210 C   0  0  0  0  0  0  0  0  0  0  0  0
    7.3660   -0.8060   -2.2090 C   0  0  0  0  0  0  0  0  0  0  0  0
    6.1670   -0.7560   -2.8910 C   0  0  0  0  0  0  0  0  0  0  0  0
    5.0100   -0.6940   -2.1570 C   0  0  0  0  0  0  0  0  0  0  0  0
    4.9910   -0.6780   -0.7680 C   0  0  0  0  0  0  0  0  0  0  0  0
    3.8260   -0.6170   -0.1050 N   0  0  0  0  0  0  0  0  0  0  0  0
    3.8070   -0.6020    1.2450 C   0  0  0  0  0  0  0  0  0  0  0  0
    2.5650   -0.5470    1.9370 N   0  0  0  0  0  0  0  0  0  0  0  0
    1.2940   -0.4830    1.2520 C   0  0  0  0  0  0  0  0  0  0  0  0
    1.1830    0.8400    0.5880 C   0  0  0  0  0  0  0  0  0  0  0  0
    2.1280    1.8230    0.6790 C   0  0  0  0  0  0  0  0  0  0  0  0
    1.9810    3.0660    0.0530 C   0  0  0  0  0  0  0  0  0  0  0  0
    0.8390    3.2990   -0.6780 C   0  0  0  0  0  0  0  0  0  0  0  0
   -0.1510    2.3290   -0.7980 C   0  0  0  0  0  0  0  0  0  0  0  0
    0.0340    1.1300   -0.1720 C   0  0  0  0  0  0  0  0  0  0  0  0
   -0.9700    0.0520   -0.2400 C   0  0  0  0  0  0  0  0  0  0  0  0
   -2.1210    0.3630   -1.0420 N   0  0  0  0  0  0  0  0  0  0  0  0
   -1.9690    0.5470   -2.4810 C   0  0  0  0  0  0  0  0  0  0  0  0
   -3.4320    0.5080   -0.5170 C   0  0  0  0  0  0  0  0  0  0  0  0
   -3.8250    1.7690   -0.1210 C   0  0  0  0  0  0  0  0  0  0  0  0
   -5.0920    1.9560    0.3970 C   0  0  0  0  0  0  0  0  0  0  0  0
   -5.9700    0.8800    0.5200 C   0  0  0  0  0  0  0  0  0  0  0  0
   -5.5890   -0.3800    0.1290 C   0  0  0  0  0  0  0  0  0  0  0  0
   -6.5140   -1.5010    0.2620 C   0  0  1  0  0  0  0  0  0  0  0  0
   -7.9290   -1.1140    0.5210 C   0  0  0  0  0  0  0  0  0  0  0  0
   -6.5100   -2.3250   -0.9570 N   0  0  0  0  0  0  0  0  0  0  0  0
   -4.3240   -0.5510   -0.3840 C   0  0  0  0  0  0  0  0  0  0  0  0
  1  2  1  0
  2  3  2  0
  2 11  1  0
  3  4  1  0
  4  5  2  0
  4  9  1  0
  5  6  1  0
  6  7  2  0
  7  8  1  0
  8  9  2  0
  9 10  1  0
 10 11  2  0
 11 12  1  0
 12 13  1  0
 13 14  1  0
 14 15  2  0
 14 19  1  0
 15 16  1  0
 16 17  2  0
 17 18  1  0
 18 19  2  0
 19 20  1  0
 20 21  1  0
 21 22  1  0
 21 23  1  0
 23 24  2  0
 23 31  1  0
 24 25  1  0
 25 26  2  0
 26 27  1  0
 27 28  1  0
 27 31  2  0
 28 29  1  6
 28 30  1  0
M  CHG  2  10   1  30   1
M  END
