
     RDKit          3D

 31 34  0  0  0  0  0  0  0  0999 V2000
    9.9900    2.5710   -1.5290 C   0  0  0  0  0  0  0  0  0  0  0  0
    8.6290    2.0460   -1.5200 N   0  0  0  0  0  0  0  0  0  0  0  0
    8.6030    0.6750   -1.0570 C   0  0  0  0  0  0  0  0  0  0  0  0
    7.1810    0.3670   -0.6690 C   0  0  0  0  0  0  0  0  0  0  0  0
    6.6950   -0.7780   -0.1130 C   0  0  0  0  0  0  0  0  0  0  0  0
    5.3540   -0.6220    0.0710 N   0  0  0  0  0  0  0  0  0  0  0  0
    4.9290    0.5810   -0.3410 C   0  0  0  0  0  0  0  0  0  0  0  0
    3.6720    1.2430   -0.3700 C   0  0  0  0  0  0  0  0  0  0  0  0
    2.5010    0.8980    0.0310 C   0  0  0  0  0  0  0  0  0  0  0  0
    2.0850   -0.3220    0.6610 C   0  0  0  0  0  0  0  0  0  0  0  0
    0.7980   -0.5080    1.0130 C   0  0  0  0  0  0  0  0  0  0  0  0
   -0.0550    0.6340    0.6820 C   0  0  0  0  0  0  0  0  0  0  0  0
   -1.5180    0.2710    1.0480 C   0  0  0  0  0  0  0  0  0  0  0  0
   -2.0870   -0.6170   -0.0190 C   0  0  0  0  0  0  0  0  0  0  0  0
   -2.6300   -1.9100    0.3600 C   0  0  2  0  0  0  0  0  0  0  0  0
   -3.9440   -2.0820    1.0020 C   0  0  0  0  0  0  0  0  0  0  0  0
   -5.1700   -1.6200    0.2860 C   0  0  1  0  0  0  0  0  0  0  0  0
   -6.3690   -2.0680    1.1880 C   0  0  0  0  0  0  0  0  0  0  0  0
   -5.2920   -0.1410    0.1880 C   0  0  0  0  0  0  0  0  0  0  0  0
   -4.7140    0.7450    0.9940 N   0  0  0  0  0  0  0  0  0  0  0  0
   -5.0750    1.9760    0.7000 N   0  0  0  0  0  0  0  0  0  0  0  0
   -5.9280    1.9290   -0.3420 C   0  0  0  0  0  0  0  0  0  0  0  0
   -6.6120    2.8980   -1.0600 C   0  0  0  0  0  0  0  0  0  0  0  0
   -7.4220    2.4720   -2.0940 C   0  0  0  0  0  0  0  0  0  0  0  0
   -7.5660    1.1440   -2.4250 C   0  0  0  0  0  0  0  0  0  0  0  0
   -6.8780    0.1850   -1.7020 C   0  0  0  0  0  0  0  0  0  0  0  0
   -6.0760    0.5920   -0.6780 C   0  0  0  0  0  0  0  0  0  0  0  0
   -1.6280   -2.8410    1.0450 C   0  0  0  0  0  0  0  0  0  0  0  0
   -0.2190   -2.6720    0.6470 C   0  0  0  0  0  0  0  0  0  0  0  0
    0.5800   -1.8280    1.6510 C   0  0  0  0  0  0  0  0  0  0  0  0
    6.1020    1.1980   -0.8100 C   0  0  0  0  0  0  0  0  0  0  0  0
  1  2  1  0
  2  3  1  0
  3  4  1  0
  4  5  2  0
  4 31  1  0
  5  6  1  0
  6  7  1  0
  7  8  1  0
  7 31  2  0
  8  9  2  3
  9 10  1  0
 10 11  2  3
 11 12  1  0
 11 30  1  0
 12 13  1  0
 13 14  1  0
 14 15  1  0
 15 16  1  1
 15 28  1  0
 16 17  1  0
 17 18  1  1
 17 19  1  0
 19 20  2  0
 19 27  1  0
 20 21  1  0
 21 22  1  0
 22 23  2  0
 22 27  1  0
 23 24  1  0
 24 25  2  0
 25 26  1  0
 26 27  2  0
 28 29  1  0
 29 30  1  0
M  CHG  1   2   1
M  END
