
     RDKit          3D

 31 34  0  0  0  0  0  0  0  0999 V2000
    8.2620    1.9540   -0.2540 C   0  0  0  0  0  0  0  0  0  0  0  0
    7.9810    0.9480    0.5210 C   0  0  0  0  0  0  0  0  0  0  0  0
    7.6010   -0.3860    0.0280 C   0  0  0  0  0  0  0  0  0  0  0  0
    6.3460   -0.8050    0.5620 N   0  0  0  0  0  0  0  0  0  0  0  0
    5.0330   -0.4830    0.1950 C   0  0  0  0  0  0  0  0  0  0  0  0
    4.5610   -0.5120   -1.0870 C   0  0  0  0  0  0  0  0  0  0  0  0
    3.2080   -0.1840   -1.3400 C   0  0  0  0  0  0  0  0  0  0  0  0
    2.3630    0.1650   -0.3200 C   0  0  0  0  0  0  0  0  0  0  0  0
    1.0820    0.5580   -0.5520 N   0  0  0  0  0  0  0  0  0  0  0  0
   -0.1960    0.2420   -0.9540 C   0  0  0  0  0  0  0  0  0  0  0  0
   -1.1520   -0.5640   -0.2320 C   0  0  0  0  0  0  0  0  0  0  0  0
   -2.3300    0.0730    0.2050 C   0  0  0  0  0  0  0  0  0  0  0  0
   -3.4430   -0.5540    0.6300 C   0  0  0  0  0  0  0  0  0  0  0  0
   -3.4620   -1.9270    0.6570 C   0  0  0  0  0  0  0  0  0  0  0  0
   -2.3420   -2.6190    0.2490 C   0  0  0  0  0  0  0  0  0  0  0  0
   -2.3810   -3.9980    0.2810 C   0  0  0  0  0  0  0  0  0  0  0  0
   -3.5950   -4.7320    0.6790 C   0  0  0  0  0  0  0  0  0  0  0  0
   -1.2630   -4.7120   -0.1230 C   0  0  0  0  0  0  0  0  0  0  0  0
   -0.1410   -4.0460   -0.5470 C   0  0  0  0  0  0  0  0  0  0  0  0
    0.9870   -4.7860   -0.9620 N   0  0  0  0  0  0  0  0  0  0  0  0
   -0.1200   -2.6920   -0.5740 C   0  0  0  0  0  0  0  0  0  0  0  0
   -1.2090   -1.9320   -0.1840 C   0  0  0  0  0  0  0  0  0  0  0  0
   -4.6410    0.1970    1.0840 C   0  0  0  0  0  0  0  0  0  0  0  0
   -4.3730    1.7000    1.1980 C   0  0  0  0  0  0  0  0  0  0  0  0
   -3.5740    2.0610    0.0780 N   0  0  1  0  0  0  0  0  0  0  0  0
   -3.3640    3.4210   -0.2520 C   0  0  0  0  0  0  0  0  0  0  0  0
   -4.5450    4.3110   -0.2990 C   0  0  0  0  0  0  0  0  0  0  0  0
   -4.0490    5.6750   -0.7790 C   0  0  0  0  0  0  0  0  0  0  0  0
   -2.2300    1.5180    0.3470 C   0  0  0  0  0  0  0  0  0  0  0  0
    2.8640    0.1920    1.0070 C   0  0  0  0  0  0  0  0  0  0  0  0
    4.1610   -0.1260    1.2430 C   0  0  0  0  0  0  0  0  0  0  0  0
  1  2  2  0
  2  3  1  0
  3  4  1  0
  4  5  1  0
  5  6  2  0
  5 31  1  0
  6  7  1  0
  7  8  2  0
  8  9  1  0
  8 30  1  0
  9 10  1  0
 10 11  1  0
 11 12  2  0
 11 22  1  0
 12 13  1  0
 12 29  1  0
 13 14  2  0
 13 23  1  0
 14 15  1  0
 15 16  2  0
 15 22  1  0
 16 17  1  0
 16 18  1  0
 18 19  2  0
 19 20  1  0
 19 21  1  0
 21 22  2  0
 23 24  1  0
 24 25  1  0
 25 26  1  1
 25 29  1  0
 26 27  1  0
 27 28  1  0
 30 31  2  0
M  CHG  1  25   1
M  END
