
     RDKit          3D

 31 34  0  0  0  0  0  0  0  0999 V2000
    5.9490   -3.5650   -0.1670 C   0  0  0  0  0  0  0  0  0  0  0  0
    5.6040   -2.9190    1.1810 C   0  0  0  0  0  0  0  0  0  0  0  0
    4.4350   -2.0570    0.9480 C   0  0  0  0  0  0  0  0  0  0  0  0
    3.1760   -2.5670    1.0890 C   0  0  0  0  0  0  0  0  0  0  0  0
    2.0740   -1.7500    0.8680 C   0  0  0  0  0  0  0  0  0  0  0  0
    2.2200   -0.4400    0.5110 C   0  0  0  0  0  0  0  0  0  0  0  0
    1.0450    0.4090    0.2830 C   0  0  2  0  0  0  0  0  0  0  0  0
   -0.0060   -0.1480   -0.4860 N   0  0  0  0  0  0  0  0  0  0  0  0
   -1.2800    0.1210    0.2060 C   0  0  0  0  0  0  0  0  0  0  0  0
   -1.7670   -1.1010    0.9250 C   0  0  0  0  0  0  0  0  0  0  0  0
   -3.0620   -0.7810    1.6240 C   0  0  0  0  0  0  0  0  0  0  0  0
   -4.0940   -0.3500    0.7290 N   0  0  0  0  0  0  0  0  0  0  0  0
   -4.4120    0.9040    0.3380 C   0  0  0  0  0  0  0  0  0  0  0  0
   -3.7810    2.1050    0.7560 N   0  0  0  0  0  0  0  0  0  0  0  0
   -5.4550    0.8300   -0.5260 N   0  0  0  0  0  0  0  0  0  0  0  0
   -5.7830   -0.4480   -0.6730 C   0  0  0  0  0  0  0  0  0  0  0  0
   -6.7630   -1.0650   -1.4310 C   0  0  0  0  0  0  0  0  0  0  0  0
   -6.8740   -2.4260   -1.3890 C   0  0  0  0  0  0  0  0  0  0  0  0
   -6.0220   -3.1720   -0.6020 C   0  0  0  0  0  0  0  0  0  0  0  0
   -5.0520   -2.5750    0.1490 C   0  0  0  0  0  0  0  0  0  0  0  0
   -4.9410   -1.1870    0.1040 C   0  0  0  0  0  0  0  0  0  0  0  0
    1.4920    1.7220   -0.2400 C   0  0  0  0  0  0  0  0  0  0  0  0
    1.6050    1.9220   -1.5920 C   0  0  0  0  0  0  0  0  0  0  0  0
    2.0420    3.1590   -2.0860 C   0  0  0  0  0  0  0  0  0  0  0  0
    2.1650    3.3750   -3.5450 C   0  0  0  0  0  0  0  0  0  0  0  0
    2.3680    4.2010   -1.2430 C   0  0  0  0  0  0  0  0  0  0  0  0
    2.2440    3.9700    0.1090 C   0  0  0  0  0  0  0  0  0  0  0  0
    1.8180    2.7640    0.6060 C   0  0  0  0  0  0  0  0  0  0  0  0
    1.6960    2.5540    2.0860 C   0  0  0  0  0  0  0  0  0  0  0  0
    3.4940    0.0670    0.3710 C   0  0  0  0  0  0  0  0  0  0  0  0
    4.6160   -0.7490    0.5910 C   0  0  0  0  0  0  0  0  0  0  0  0
  1  2  1  0
  2  3  1  0
  3  4  2  0
  3 31  1  0
  4  5  1  0
  5  6  2  0
  6  7  1  0
  6 30  1  0
  7  8  1  6
  7 22  1  0
  8  9  1  0
  9 10  1  0
 10 11  1  0
 11 12  1  0
 12 13  1  0
 12 21  1  0
 13 14  1  0
 13 15  2  0
 15 16  1  0
 16 17  2  0
 16 21  1  0
 17 18  1  0
 18 19  2  0
 19 20  1  0
 20 21  2  0
 22 23  2  0
 22 28  1  0
 23 24  1  0
 24 25  1  0
 24 26  2  0
 26 27  1  0
 27 28  2  0
 28 29  1  0
 30 31  2  0
M  CHG  2   8   1  15   1
M  END
