
     RDKit          3D

 31 35  0  0  0  0  0  0  0  0999 V2000
    5.9820    3.4880    1.4760 C   0  0  0  0  0  0  0  0  0  0  0  0
    4.8550    2.7100    0.8850 C   0  0  0  0  0  0  0  0  0  0  0  0
    5.0530    1.8910   -0.2060 C   0  0  0  0  0  0  0  0  0  0  0  0
    3.9830    1.1800   -0.7310 C   0  0  0  0  0  0  0  0  0  0  0  0
    4.1640    0.3730   -1.8000 F   0  0  0  0  0  0  0  0  0  0  0  0
    2.7140    1.2660   -0.1950 C   0  0  0  0  0  0  0  0  0  0  0  0
    1.5980    0.5110   -0.7600 C   0  0  0  0  0  0  0  0  0  0  0  0
    0.4990    1.0110   -1.3060 O   0  0  0  0  0  0  0  0  0  0  0  0
   -0.3010    0.0620   -1.7120 C   0  0  0  0  0  0  0  0  0  0  0  0
   -1.9000    0.2290   -2.5110 S   0  0  0  0  0  0  0  0  0  0  0  0
   -3.2520    0.2940   -1.3590 C   0  0  1  0  0  0  0  0  0  0  0  0
   -3.4000   -1.0060   -0.6400 C   0  0  0  0  0  0  0  0  0  0  0  0
   -3.8470   -0.6010    0.7410 C   0  0  2  0  0  0  0  0  0  0  0  0
   -5.1750   -1.2870    0.9980 C   0  0  0  0  0  0  0  0  0  0  0  0
   -6.0210   -0.5570    1.8940 N   0  0  0  0  0  0  0  0  0  0  0  0
   -6.3330    0.7610    1.4170 C   0  0  0  0  0  0  0  0  0  0  0  0
   -5.3910    1.0890    0.2600 C   0  0  0  0  0  0  0  0  0  0  0  0
   -4.0420    0.8320    0.7280 N   0  0  0  0  0  0  0  0  0  0  0  0
   -3.0570    1.2830   -0.2370 C   0  0  0  0  0  0  0  0  0  0  0  0
    0.3140   -1.1000   -1.4130 N   0  0  0  0  0  0  0  0  0  0  0  0
    1.5030   -0.8680   -0.8170 C   0  0  0  0  0  0  0  0  0  0  0  0
    2.4990   -1.8170   -0.3270 C   0  0  0  0  0  0  0  0  0  0  0  0
    3.0620   -2.6790   -1.2640 C   0  0  0  0  0  0  0  0  0  0  0  0
    4.0070   -3.6150   -0.9320 C   0  0  0  0  0  0  0  0  0  0  0  0
    4.4140   -3.7030    0.3800 C   0  0  0  0  0  0  0  0  0  0  0  0
    3.8610   -2.8510    1.3190 C   0  0  0  0  0  0  0  0  0  0  0  0
    4.2560   -2.9300    2.6130 F   0  0  0  0  0  0  0  0  0  0  0  0
    2.9090   -1.9130    0.9680 C   0  0  0  0  0  0  0  0  0  0  0  0
    2.5660    2.1010    0.8990 C   0  0  0  0  0  0  0  0  0  0  0  0
    1.3110    2.1840    1.4290 F   0  0  0  0  0  0  0  0  0  0  0  0
    3.6130    2.7830    1.3970 N   0  0  0  0  0  0  0  0  0  0  0  0
  1  2  1  0
  2  3  2  0
  2 31  1  0
  3  4  1  0
  4  5  1  0
  4  6  2  0
  6  7  1  0
  6 29  1  0
  7  8  1  0
  7 21  2  0
  8  9  1  0
  9 10  1  0
  9 20  2  0
 11 10  1  6
 11 12  1  0
 11 19  1  0
 13 12  1  6
 13 14  1  0
 13 18  1  0
 14 15  1  0
 15 16  1  0
 16 17  1  0
 17 18  1  0
 18 19  1  0
 20 21  1  0
 21 22  1  0
 22 23  2  0
 22 28  1  0
 23 24  1  0
 24 25  2  0
 25 26  1  0
 26 27  1  0
 26 28  2  0
 29 30  1  0
 29 31  2  0
M  END
