
     RDKit          3D

 37 40  0  0  0  0  0  0  0  0999 V2000
    6.4760    1.2230   -1.6330 C   0  0  0  0  0  0  0  0  0  0  0  0
    5.3520    0.5740   -1.0760 O   0  0  0  0  0  0  0  0  0  0  0  0
    4.3510    0.1300   -1.8890 C   0  0  0  0  0  0  0  0  0  0  0  0
    4.4970    0.3370   -3.1530 O   0  0  0  0  0  0  0  0  0  0  0  0
    3.1390   -0.5480   -1.5250 C   0  0  0  0  0  0  0  0  0  0  0  0
    2.9200   -1.9240   -1.3920 C   0  0  0  0  0  0  0  0  0  0  0  0
    3.9640   -2.9520   -1.5760 C   0  0  2  0  0  0  0  0  0  0  0  0
    3.3600   -4.3220   -1.3630 C   0  0  0  0  0  0  0  0  0  0  0  0
    5.0340   -2.7120   -0.7500 O   0  0  0  0  0  0  0  0  0  0  0  0
    1.6580   -2.1350   -1.0830 O   0  0  0  0  0  0  0  0  0  0  0  0
    1.0140   -1.0120   -0.9980 C   0  0  0  0  0  0  0  0  0  0  0  0
   -0.4200   -0.8910   -0.6700 C   0  0  0  0  0  0  0  0  0  0  0  0
   -0.9730    0.2120   -0.6150 O   0  0  0  0  0  0  0  0  0  0  0  0
   -1.1910   -1.9620   -0.4180 O   0  0  0  0  0  0  0  0  0  0  0  0
   -2.4600   -2.2340   -0.0930 C   0  0  0  0  0  0  0  0  0  0  0  0
   -3.1300   -1.8670    1.1470 C   0  0  1  0  0  0  0  0  0  0  0  0
   -3.2740   -0.4340    1.5360 C   0  0  0  0  0  0  0  0  0  0  0  0
   -4.3460    0.3160    0.7670 C   0  0  2  0  0  0  0  0  0  0  0  0
   -3.8410    1.6500    0.2660 C   0  0  0  0  0  0  0  0  0  0  0  0
   -4.9040    2.6710    0.0390 C   0  0  0  0  0  0  0  0  0  0  0  0
   -5.8480    2.7830    1.0320 O   0  0  0  0  0  0  0  0  0  0  0  0
   -6.4790    1.5170    1.1000 C   0  0  0  0  0  0  0  0  0  0  0  0
   -5.4820    0.6050    1.7310 C   0  0  0  0  0  0  0  0  0  0  0  0
   -4.7990   -0.3910   -0.3460 O   0  0  0  0  0  0  0  0  0  0  0  0
   -5.3710   -1.5810    0.0300 C   0  0  0  0  0  0  0  0  0  0  0  0
   -4.5930   -2.3760    1.0240 C   0  0  1  0  0  0  0  0  0  0  0  0
   -4.4520   -3.6810    0.4980 O   0  0  0  0  0  0  0  0  0  0  0  0
    1.8940    0.0200   -1.2650 C   0  0  0  0  0  0  0  0  0  0  0  0
    1.5470    1.3270   -1.2560 O   0  0  0  0  0  0  0  0  0  0  0  0
    1.4880    2.2520   -0.2190 C   0  0  0  0  0  0  0  0  0  0  0  0
    2.7490    2.4710    0.5240 C   0  0  0  0  0  0  0  0  0  0  0  0
    3.3450    3.6460    0.5900 C   0  0  0  0  0  0  0  0  0  0  0  0
    4.6070    3.8850    1.3290 C   0  0  0  0  0  0  0  0  0  0  0  0
    5.0690    2.7540    1.9990 O   0  0  0  0  0  0  0  0  0  0  0  0
    4.4440    1.5160    1.9320 C   0  0  0  0  0  0  0  0  0  0  0  0
    4.9900    0.4120    2.6110 O   0  0  0  0  0  0  0  0  0  0  0  0
    3.3380    1.3460    1.2380 C   0  0  0  0  0  0  0  0  0  0  0  0
  1  2  1  0
  2  3  1  0
  3  4  2  0
  3  5  1  0
  5  6  2  0
  5 28  1  0
  6  7  1  0
  6 10  1  0
  7  8  1  1
  7  9  1  0
 10 11  1  0
 11 12  1  0
 11 28  2  0
 12 13  2  0
 12 14  1  0
 14 15  1  0
 16 15  1  6
 16 17  1  0
 16 26  1  0
 18 17  1  1
 18 19  1  0
 18 23  1  0
 18 24  1  0
 19 20  1  0
 20 21  1  0
 21 22  1  0
 22 23  1  0
 24 25  1  0
 25 26  1  0
 26 27  1  6
 28 29  1  0
 29 30  1  0
 30 31  1  0
 31 32  2  0
 31 37  1  0
 32 33  1  0
 33 34  1  0
 34 35  1  0
 35 36  1  0
 35 37  2  0
M  END
