
     RDKit          3D

 37 40  0  0  0  0  0  0  0  0999 V2000
   -0.7420    6.1530   -1.9180 C   0  0  0  0  0  0  0  0  0  0  0  0
   -0.9580    4.7430   -1.5050 C   0  0  0  0  0  0  0  0  0  0  0  0
   -1.5230    4.3560   -0.2970 C   0  0  0  0  0  0  0  0  0  0  0  0
   -1.5660    2.9520   -0.2600 C   0  0  0  0  0  0  0  0  0  0  0  0
   -1.0310    2.5610   -1.4330 C   0  0  0  0  0  0  0  0  0  0  0  0
   -0.6920    3.6370   -2.1250 O   0  0  0  0  0  0  0  0  0  0  0  0
   -0.8350    1.1710   -1.9100 C   0  0  0  0  0  0  0  0  0  0  0  0
   -1.1930    0.9800   -3.1380 O   0  0  0  0  0  0  0  0  0  0  0  0
   -0.3610    0.1350   -1.2770 O   0  0  0  0  0  0  0  0  0  0  0  0
    0.5510   -0.4640   -0.5290 C   0  0  1  0  0  0  0  0  0  0  0  0
    1.8630    0.3250   -0.3780 C   0  0  0  0  0  0  0  0  0  0  0  0
    2.7060   -0.4560    0.4400 O   0  0  0  0  0  0  0  0  0  0  0  0
    3.9900   -0.0660    0.8020 C   0  0  0  0  0  0  0  0  0  0  0  0
    4.1820    0.6820    1.8690 C   0  0  0  0  0  0  0  0  0  0  0  0
    5.5380    1.1080    2.2730 C   0  0  0  0  0  0  0  0  0  0  0  0
    6.4250    1.2380    1.0720 C   0  0  0  0  0  0  0  0  0  0  0  0
    6.4030   -0.0480    0.4230 O   0  0  0  0  0  0  0  0  0  0  0  0
    5.1260   -0.4830   -0.0010 C   0  0  0  0  0  0  0  0  0  0  0  0
    4.9980   -1.2280   -1.0710 C   0  0  0  0  0  0  0  0  0  0  0  0
    6.0990   -1.5950   -1.7950 O   0  0  0  0  0  0  0  0  0  0  0  0
    0.0750   -0.9020    0.8120 C   0  0  0  0  0  0  0  0  0  0  0  0
   -0.7380   -1.9570    0.9630 O   0  0  0  0  0  0  0  0  0  0  0  0
   -1.5230   -2.8740    0.4370 C   0  0  0  0  0  0  0  0  0  0  0  0
   -1.1700   -4.2280    0.4790 C   0  0  0  0  0  0  0  0  0  0  0  0
   -1.9390   -5.2440   -0.0510 C   0  0  0  0  0  0  0  0  0  0  0  0
   -1.5710   -6.5910   -0.0000 O   0  0  0  0  0  0  0  0  0  0  0  0
   -3.1060   -4.9150   -0.6500 C   0  0  0  0  0  0  0  0  0  0  0  0
   -3.5040   -3.6270   -0.7240 C   0  0  0  0  0  0  0  0  0  0  0  0
   -2.7230   -2.5940   -0.1840 C   0  0  0  0  0  0  0  0  0  0  0  0
   -3.3270   -1.2510   -0.3530 C   0  0  1  0  0  0  0  0  0  0  0  0
   -4.6780   -1.3350   -0.6990 O   0  0  0  0  0  0  0  0  0  0  0  0
   -3.1110   -0.3060    0.8050 C   0  0  2  0  0  0  0  0  0  0  0  0
   -4.5430   -0.0460    1.3540 C   0  0  0  0  0  0  0  0  0  0  0  0
   -5.2900    0.5990    0.3770 O   0  0  0  0  0  0  0  0  0  0  0  0
   -2.6120    0.8930    0.5210 O   0  0  0  0  0  0  0  0  0  0  0  0
   -2.0830    2.0570    0.8200 C   0  0  0  0  0  0  0  0  0  0  0  0
   -1.9230    2.6000    1.9890 O   0  0  0  0  0  0  0  0  0  0  0  0
  1  2  1  0
  2  3  2  0
  2  6  1  0
  3  4  1  0
  4  5  2  0
  4 36  1  0
  5  6  1  0
  5  7  1  0
  7  8  2  0
  7  9  1  0
  9 10  1  0
 10 11  1  1
 10 21  1  0
 11 12  1  0
 12 13  1  0
 13 14  2  0
 13 18  1  0
 14 15  1  0
 15 16  1  0
 16 17  1  0
 17 18  1  0
 18 19  2  3
 19 20  1  0
 21 22  1  0
 22 23  1  0
 23 24  2  0
 23 29  1  0
 24 25  1  0
 25 26  1  0
 25 27  2  0
 27 28  1  0
 28 29  2  0
 29 30  1  0
 30 31  1  1
 30 32  1  0
 32 33  1  6
 32 35  1  0
 33 34  1  0
 35 36  1  0
 36 37  2  0
M  END
