
     RDKit          3D

 37 40  0  0  0  0  0  0  0  0999 V2000
   -4.4710   -0.5190    2.7240 C   0  0  0  0  0  0  0  0  0  0  0  0
   -3.5260    0.3980    2.0620 C   0  0  0  0  0  0  0  0  0  0  0  0
   -2.6220   -0.1460    1.0100 C   0  0  2  0  0  0  0  0  0  0  0  0
   -1.8560    1.0340    0.5470 N   0  0  0  0  0  0  0  0  0  0  0  0
   -0.7820    1.3770    1.4210 C   0  0  0  0  0  0  0  0  0  0  0  0
   -0.2230    2.7610    1.1300 C   0  0  0  0  0  0  0  0  0  0  0  0
    0.3080    2.8700   -0.2850 C   0  0  0  0  0  0  0  0  0  0  0  0
    1.3790    1.8680   -0.4920 C   0  0  0  0  0  0  0  0  0  0  0  0
    2.7320    2.0000   -0.2710 C   0  0  0  0  0  0  0  0  0  0  0  0
    3.3610    0.8140   -0.5900 C   0  0  0  0  0  0  0  0  0  0  0  0
    4.7890    0.5090   -0.5070 C   0  0  0  0  0  0  0  0  0  0  0  0
    5.3440   -0.6870   -0.8090 N   0  0  0  0  0  0  0  0  0  0  0  0
    6.6740   -0.6430   -0.6270 C   0  0  0  0  0  0  0  0  0  0  0  0
    7.7110   -1.5400   -0.7740 C   0  0  0  0  0  0  0  0  0  0  0  0
    9.0230   -1.1720   -0.4930 C   0  0  0  0  0  0  0  0  0  0  0  0
   10.0890   -2.0940   -0.6390 N   0  0  0  0  0  0  0  0  0  0  0  0
    9.2960    0.1060   -0.0620 C   0  0  0  0  0  0  0  0  0  0  0  0
   10.7140    0.4970    0.2390 C   0  0  0  0  0  0  0  0  0  0  0  0
    8.2500    0.9870    0.0790 C   0  0  0  0  0  0  0  0  0  0  0  0
    6.9380    0.6350   -0.1970 C   0  0  0  0  0  0  0  0  0  0  0  0
    5.7840    1.2750   -0.1430 O   0  0  0  0  0  0  0  0  0  0  0  0
    2.4060    0.0060   -0.9880 O   0  0  0  0  0  0  0  0  0  0  0  0
    1.2470    0.5880   -0.9420 N   0  0  0  0  0  0  0  0  0  0  0  0
   -3.4540   -0.5420   -0.1560 C   0  0  0  0  0  0  0  0  0  0  0  0
   -4.0050   -1.6850   -0.1210 O   0  0  0  0  0  0  0  0  0  0  0  0
   -3.6770    0.2500   -1.2820 N   0  0  0  0  0  0  0  0  0  0  0  0
   -4.5030   -0.2400   -2.3580 C   0  0  0  0  0  0  0  0  0  0  0  0
   -5.9180   -0.1790   -1.9040 C   0  0  0  0  0  0  0  0  0  0  0  0
   -6.7990    0.8690   -1.8920 C   0  0  0  0  0  0  0  0  0  0  0  0
   -7.9650    0.4060   -1.3810 N   0  0  0  0  0  0  0  0  0  0  0  0
   -7.8320   -0.8990   -1.0750 C   0  0  0  0  0  0  0  0  0  0  0  0
   -8.9090   -1.7290   -0.4940 C   0  0  0  0  0  0  0  0  0  0  0  0
   -8.8900   -1.7100    0.8850 F   0  0  0  0  0  0  0  0  0  0  0  0
   -6.5760   -1.2470   -1.3990 N   0  0  0  0  0  0  0  0  0  0  0  0
   -1.7120   -1.2460    1.3820 C   0  0  2  0  0  0  0  0  0  0  0  0
   -0.8400   -1.7210    0.2380 C   0  0  0  0  0  0  0  0  0  0  0  0
   -2.3170   -2.4360    2.0440 C   0  0  0  0  0  0  0  0  0  0  0  0
  1  2  1  0
  3  2  1  1
  3  4  1  0
  3 24  1  0
  3 35  1  0
  4  5  1  0
  5  6  1  0
  6  7  1  0
  7  8  1  0
  8  9  1  0
  8 23  2  0
  9 10  2  0
 10 11  1  0
 10 22  1  0
 11 12  2  0
 11 21  1  0
 12 13  1  0
 13 14  2  0
 13 20  1  0
 14 15  1  0
 15 16  1  0
 15 17  2  0
 17 18  1  0
 17 19  1  0
 19 20  2  0
 20 21  1  0
 22 23  1  0
 24 25  2  0
 24 26  1  0
 26 27  1  0
 27 28  1  0
 28 29  2  0
 28 34  1  0
 29 30  1  0
 30 31  1  0
 31 32  1  0
 31 34  2  0
 32 33  1  0
 35 36  1  6
 35 37  1  0
M  CHG  1   4   1
M  END
