
     RDKit          3D

 37 41  0  0  0  0  0  0  0  0999 V2000
    2.8840   -2.5990    3.1230 O   0  0  0  0  0  0  0  0  0  0  0  0
    3.7660   -2.2420    2.1240 C   0  0  0  0  0  0  0  0  0  0  0  0
    3.0130   -1.5520    1.0470 C   0  0  0  0  0  0  0  0  0  0  0  0
    1.6440   -1.3600    1.1470 C   0  0  0  0  0  0  0  0  0  0  0  0
    0.9850   -0.7170    0.1280 C   0  0  0  0  0  0  0  0  0  0  0  0
   -0.4930   -0.4830    0.1870 C   0  0  0  0  0  0  0  0  0  0  0  0
   -0.6690    0.8170    0.8390 N   0  0  0  0  0  0  0  0  0  0  0  0
   -0.2700    0.9270    2.2320 C   0  0  0  0  0  0  0  0  0  0  0  0
   -0.5040    2.2810    2.8190 C   0  0  0  0  0  0  0  0  0  0  0  0
   -0.0700    2.2080    4.1500 F   0  0  0  0  0  0  0  0  0  0  0  0
   -1.1850    1.8980    0.1240 C   0  0  0  0  0  0  0  0  0  0  0  0
   -0.3240    2.9360   -0.2590 C   0  0  0  0  0  0  0  0  0  0  0  0
   -0.8170    3.9910   -0.9940 C   0  0  0  0  0  0  0  0  0  0  0  0
   -2.1010    4.0740   -1.3660 N   0  0  0  0  0  0  0  0  0  0  0  0
   -2.9430    3.0940   -1.0120 C   0  0  0  0  0  0  0  0  0  0  0  0
   -2.4810    1.9960   -0.2590 C   0  0  0  0  0  0  0  0  0  0  0  0
   -3.4450    0.9710    0.1110 C   0  0  0  0  0  0  0  0  0  0  0  0
   -3.3280   -0.1360    0.8310 N   0  0  0  0  0  0  0  0  0  0  0  0
   -4.5040   -0.7520    0.8880 N   0  0  0  0  0  0  0  0  0  0  0  0
   -5.4200   -0.0600    0.2060 C   0  0  0  0  0  0  0  0  0  0  0  0
   -6.8290   -0.3790    0.0150 C   0  0  0  0  0  0  0  0  0  0  0  0
   -7.3810   -1.4610    0.5350 C   0  0  0  0  0  0  0  0  0  0  0  0
   -8.7650   -1.6980    0.3000 N   0  0  0  0  0  0  0  0  0  0  0  0
   -9.3980   -1.1860   -0.8970 C   0  0  0  0  0  0  0  0  0  0  0  0
   -8.4930   -0.3500   -1.6640 N   0  0  0  0  0  0  0  0  0  0  0  0
   -7.7240    0.5010   -0.7760 C   0  0  0  0  0  0  0  0  0  0  0  0
   -4.7620    1.0060   -0.2740 N   0  0  0  0  0  0  0  0  0  0  0  0
    1.6970   -0.2820   -0.9630 C   0  0  0  0  0  0  0  0  0  0  0  0
    3.0600   -0.4590   -1.0900 C   0  0  0  0  0  0  0  0  0  0  0  0
    3.7020   -1.1060   -0.0570 C   0  0  0  0  0  0  0  0  0  0  0  0
    5.0840   -1.3060   -0.1480 O   0  0  0  0  0  0  0  0  0  0  0  0
    5.8090   -0.8550   -1.2740 C   0  0  0  0  0  0  0  0  0  0  0  0
    7.2610   -1.2050   -1.0980 C   0  0  2  0  0  0  0  0  0  0  0  0
    7.7820   -0.4710    0.1020 C   0  0  0  0  0  0  0  0  0  0  0  0
    8.9810    0.2700   -0.4340 C   0  0  0  0  0  0  0  0  0  0  0  0
    9.2370   -0.4130   -1.7500 C   0  0  0  0  0  0  0  0  0  0  0  0
    7.9790   -0.7710   -2.1900 O   0  0  0  0  0  0  0  0  0  0  0  0
  1  2  1  0
  2  3  1  0
  3  4  2  0
  3 30  1  0
  4  5  1  0
  5  6  1  0
  5 28  2  0
  6  7  1  0
  7  8  1  0
  7 11  1  0
  8  9  1  0
  9 10  1  0
 11 12  2  0
 11 16  1  0
 12 13  1  0
 13 14  2  0
 14 15  1  0
 15 16  2  0
 16 17  1  0
 17 18  2  0
 17 27  1  0
 18 19  1  0
 19 20  1  0
 20 21  1  0
 20 27  2  0
 21 22  2  0
 21 26  1  0
 22 23  1  0
 23 24  1  0
 24 25  1  0
 25 26  1  0
 28 29  1  0
 29 30  2  0
 30 31  1  0
 31 32  1  0
 33 32  1  6
 33 34  1  0
 33 37  1  0
 34 35  1  0
 35 36  1  0
 36 37  1  0
M  CHG  1  25   1
M  END
