
     RDKit          3D

 37 39  0  0  0  0  0  0  0  0999 V2000
   -4.1300    1.8110   -2.4390 C   0  0  0  0  0  0  0  0  0  0  0  0
   -3.1920    1.0750   -1.6790 O   0  0  0  0  0  0  0  0  0  0  0  0
   -2.5390   -0.0430   -2.1450 C   0  0  0  0  0  0  0  0  0  0  0  0
   -2.9090   -0.4120   -3.3430 O   0  0  0  0  0  0  0  0  0  0  0  0
   -2.3830   -1.4320   -3.9400 C   0  0  0  0  0  0  0  0  0  0  0  0
   -2.7480   -1.7900   -5.1100 O   0  0  0  0  0  0  0  0  0  0  0  0
   -1.4100   -2.1200   -3.2620 C   0  0  0  0  0  0  0  0  0  0  0  0
   -0.9550   -1.7800   -1.9590 C   0  0  0  0  0  0  0  0  0  0  0  0
   -1.5700   -0.6700   -1.3690 C   0  0  0  0  0  0  0  0  0  0  0  0
   -1.4340   -0.0840   -0.0410 C   0  0  0  0  0  0  0  0  0  0  0  0
   -2.5160   -0.0330    0.7410 C   0  0  0  0  0  0  0  0  0  0  0  0
   -3.8090   -0.5030    0.3630 C   0  0  2  0  0  0  0  0  0  0  0  0
   -3.8750   -1.5740   -0.5670 O   0  0  0  0  0  0  0  0  0  0  0  0
   -5.0920    0.1810    0.5560 C   0  0  0  0  0  0  0  0  0  0  0  0
   -5.5090    0.5260    1.9370 C   0  0  0  0  0  0  0  0  0  0  0  0
   -6.8180    1.1130    1.8420 O   0  0  0  0  0  0  0  0  0  0  0  0
   -2.2570    0.2860    2.1830 C   0  0  1  0  0  0  0  0  0  0  0  0
   -1.5180   -0.9200    2.5760 O   0  0  0  0  0  0  0  0  0  0  0  0
   -1.3650    1.3700    2.5330 C   0  0  1  0  0  0  0  0  0  0  0  0
   -0.9560    1.2020    3.8640 O   0  0  0  0  0  0  0  0  0  0  0  0
   -0.1780    1.2360    1.6520 C   0  0  0  0  0  0  0  0  0  0  0  0
   -0.2050    0.5980    0.5060 C   0  0  0  0  0  0  0  0  0  0  0  0
    1.0310    0.4620   -0.2140 C   0  0  0  0  0  0  0  0  0  0  0  0
    1.9690    1.4480   -0.3990 O   0  0  0  0  0  0  0  0  0  0  0  0
    3.2650    0.9880   -0.7310 C   0  0  0  0  0  0  0  0  0  0  0  0
    3.9310    1.7190   -1.5190 O   0  0  0  0  0  0  0  0  0  0  0  0
    3.9010   -0.2380   -0.2550 C   0  0  0  0  0  0  0  0  0  0  0  0
    5.0530   -0.1670    0.6890 C   0  0  0  0  0  0  0  0  0  0  0  0
    6.1040    0.8480    0.3970 C   0  0  2  0  0  0  0  0  0  0  0  0
    7.1790    0.6020    1.5020 C   0  0  0  0  0  0  0  0  0  0  0  0
    5.5850    2.2460    0.6830 C   0  0  0  0  0  0  0  0  0  0  0  0
    3.5690   -1.4780   -0.6420 C   0  0  0  0  0  0  0  0  0  0  0  0
    4.3100   -2.5460   -0.0560 O   0  0  0  0  0  0  0  0  0  0  0  0
    2.5530   -1.9390   -1.5870 C   0  0  0  0  0  0  0  0  0  0  0  0
    1.3930   -2.4690   -1.1010 O   0  0  0  0  0  0  0  0  0  0  0  0
    0.1060   -2.6550   -1.4940 C   0  0  0  0  0  0  0  0  0  0  0  0
   -0.2930   -3.9000   -1.4570 O   0  0  0  0  0  0  0  0  0  0  0  0
  1  2  1  0
  2  3  1  0
  3  4  1  0
  3  9  2  0
  4  5  1  0
  5  6  2  0
  5  7  1  0
  7  8  2  0
  8  9  1  0
  8 36  1  0
  9 10  1  0
 10 11  2  0
 10 22  1  0
 11 12  1  0
 11 17  1  0
 12 13  1  6
 12 14  1  0
 14 15  1  0
 15 16  1  0
 17 18  1  1
 17 19  1  0
 19 20  1  1
 19 21  1  0
 21 22  2  0
 22 23  1  0
 23 24  1  0
 24 25  1  0
 25 26  2  0
 25 27  1  0
 27 28  1  0
 27 32  2  0
 28 29  1  0
 29 30  1  1
 29 31  1  0
 32 33  1  0
 32 34  1  0
 34 35  1  0
 35 36  1  0
 36 37  2  0
M  END
