
     RDKit          3D

 37 40  0  0  0  0  0  0  0  0999 V2000
    3.4030   -0.2400   -5.3770 C   0  0  0  0  0  0  0  0  0  0  0  0
    2.4270   -0.1970   -4.3230 O   0  0  0  0  0  0  0  0  0  0  0  0
    2.8530   -0.3580   -2.9560 C   0  0  0  0  0  0  0  0  0  0  0  0
    4.0480   -0.5160   -2.8980 O   0  0  0  0  0  0  0  0  0  0  0  0
    1.7740   -0.2910   -1.9990 C   0  0  0  0  0  0  0  0  0  0  0  0
    1.9170   -0.3250   -0.6740 C   0  0  0  0  0  0  0  0  0  0  0  0
    3.2200   -0.4090   -0.0520 C   0  0  0  0  0  0  0  0  0  0  0  0
    4.3920   -0.2200   -0.8670 O   0  0  0  0  0  0  0  0  0  0  0  0
    4.8610    1.1710   -0.7400 C   0  0  0  0  0  0  0  0  0  0  0  0
    6.1160    1.3980   -1.4800 C   0  0  0  0  0  0  0  0  0  0  0  0
    6.4730    2.7560   -1.2890 O   0  0  0  0  0  0  0  0  0  0  0  0
    3.5800   -0.5990    1.1920 C   0  0  0  0  0  0  0  0  0  0  0  0
    5.0100   -0.6530    1.5760 C   0  0  0  0  0  0  0  0  0  0  0  0
    5.3470   -0.8290    2.8150 C   0  0  0  0  0  0  0  0  0  0  0  0
    4.4430   -0.9900    3.9500 C   0  0  0  0  0  0  0  0  0  0  0  0
    3.1250   -0.9510    3.6160 O   0  0  0  0  0  0  0  0  0  0  0  0
    2.6700   -0.7610    2.2930 C   0  0  0  0  0  0  0  0  0  0  0  0
    1.4250   -0.7470    2.1420 O   0  0  0  0  0  0  0  0  0  0  0  0
    0.7820   -0.2640    0.1100 O   0  0  0  0  0  0  0  0  0  0  0  0
   -0.5600   -0.1620   -0.3380 C   0  0  0  0  0  0  0  0  0  0  0  0
   -1.4750   -0.1140    0.5820 C   0  0  0  0  0  0  0  0  0  0  0  0
   -2.8800   -0.0240    0.7430 C   0  0  0  0  0  0  0  0  0  0  0  0
   -3.3200    0.0150    2.0300 C   0  0  0  0  0  0  0  0  0  0  0  0
   -2.4510   -0.0420    3.1200 O   0  0  0  0  0  0  0  0  0  0  0  0
   -4.7160    0.1320    2.3460 C   0  0  0  0  0  0  0  0  0  0  0  0
   -5.1520    0.1580    3.6830 O   0  0  0  0  0  0  0  0  0  0  0  0
   -5.6130    0.2170    1.3990 C   0  0  0  0  0  0  0  0  0  0  0  0
   -7.0150    0.3280    1.7670 C   0  0  0  0  0  0  0  0  0  0  0  0
   -7.9200    0.2200    0.8130 C   0  0  0  0  0  0  0  0  0  0  0  0
   -7.5570    0.0070   -0.5000 O   0  0  0  0  0  0  0  0  0  0  0  0
   -6.2710   -0.5620   -0.7980 C   0  0  0  0  0  0  0  0  0  0  0  0
   -5.2820    0.2700   -0.0180 C   0  0  2  0  0  0  0  0  0  0  0  0
   -3.8430   -0.0860   -0.3480 C   0  0  2  0  0  0  0  0  0  0  0  0
   -3.8310   -1.5560   -0.8310 C   0  0  0  0  0  0  0  0  0  0  0  0
   -0.6620   -0.1240   -1.7720 C   0  0  0  0  0  0  0  0  0  0  0  0
   -1.7600   -0.0320   -2.3410 O   0  0  0  0  0  0  0  0  0  0  0  0
    0.4780   -0.1880   -2.5430 O   0  0  0  0  0  0  0  0  0  0  0  0
  1  2  1  0
  2  3  1  0
  3  4  2  0
  3  5  1  0
  5  6  2  0
  5 37  1  0
  6  7  1  0
  6 19  1  0
  7  8  1  0
  7 12  2  3
  8  9  1  0
  9 10  1  0
 10 11  1  0
 12 13  1  0
 12 17  1  0
 13 14  2  0
 14 15  1  0
 15 16  1  0
 16 17  1  0
 17 18  2  0
 19 20  1  0
 20 21  2  3
 20 35  1  0
 21 22  1  0
 22 23  2  0
 22 33  1  0
 23 24  1  0
 23 25  1  0
 25 26  1  0
 25 27  2  0
 27 28  1  0
 27 32  1  0
 28 29  2  0
 29 30  1  0
 30 31  1  0
 32 31  1  6
 32 33  1  0
 33 34  1  1
 35 36  2  0
 35 37  1  0
M  END
