
     RDKit          3D

 37 40  0  0  0  0  0  0  0  0999 V2000
    2.3750   -4.0030    3.7390 C   0  0  0  0  0  0  0  0  0  0  0  0
    1.7470   -3.2880    2.6250 C   0  0  0  0  0  0  0  0  0  0  0  0
    0.3960   -2.9970    2.6570 C   0  0  0  0  0  0  0  0  0  0  0  0
   -0.1480   -2.3540    1.6510 N   0  0  0  0  0  0  0  0  0  0  0  0
    0.5260   -1.9530    0.5770 C   0  0  0  0  0  0  0  0  0  0  0  0
   -0.0310   -1.2630   -0.5210 N   0  0  0  0  0  0  0  0  0  0  0  0
   -1.3800   -0.8850   -0.6460 C   0  0  0  0  0  0  0  0  0  0  0  0
   -1.8590   -0.4090   -1.8750 C   0  0  0  0  0  0  0  0  0  0  0  0
   -3.1510   -0.0300   -2.0060 C   0  0  0  0  0  0  0  0  0  0  0  0
   -4.0730   -0.0810   -0.9660 C   0  0  0  0  0  0  0  0  0  0  0  0
   -5.3180    0.3110   -1.1910 O   0  0  0  0  0  0  0  0  0  0  0  0
   -6.4800    0.4250   -0.4760 C   0  0  0  0  0  0  0  0  0  0  0  0
   -6.5030    1.3470    0.6880 C   0  0  0  0  0  0  0  0  0  0  0  0
   -6.2100    2.7200    0.3540 N   0  0  1  0  0  0  0  0  0  0  0  0
   -6.7900    3.1780   -0.8640 C   0  0  0  0  0  0  0  0  0  0  0  0
   -8.2310    3.3810   -0.5440 C   0  0  0  0  0  0  0  0  0  0  0  0
   -8.1890    3.9120    0.8720 C   0  0  0  0  0  0  0  0  0  0  0  0
   -6.8170    3.5630    1.3650 C   0  0  0  0  0  0  0  0  0  0  0  0
   -3.6090   -0.5440    0.2300 C   0  0  0  0  0  0  0  0  0  0  0  0
   -2.2630   -0.9430    0.3840 C   0  0  0  0  0  0  0  0  0  0  0  0
    1.8530   -2.2520    0.5700 N   0  0  0  0  0  0  0  0  0  0  0  0
    2.5130   -2.8930    1.5210 C   0  0  0  0  0  0  0  0  0  0  0  0
    3.8920   -3.2050    1.4980 N   0  0  0  0  0  0  0  0  0  0  0  0
    4.8310   -2.9000    0.5070 C   0  0  0  0  0  0  0  0  0  0  0  0
    6.1200   -3.4250    0.6430 C   0  0  0  0  0  0  0  0  0  0  0  0
    7.0850   -3.1580   -0.2950 C   0  0  0  0  0  0  0  0  0  0  0  0
    6.7630   -2.3650   -1.3690 C   0  0  0  0  0  0  0  0  0  0  0  0
    5.5110   -1.8200   -1.5560 C   0  0  0  0  0  0  0  0  0  0  0  0
    5.1520   -0.8410   -2.9420 S   0  0  2  0  0  0  0  0  0  0  0  0
    3.6850   -0.9130   -3.2930 O   0  0  0  0  0  0  0  0  0  0  0  0
    5.9090   -1.4310   -4.1150 O   0  0  0  0  0  0  0  0  0  0  0  0
    5.6320    0.7660   -2.7530 N   0  0  0  0  0  0  0  0  0  0  0  0
    5.0390    1.5180   -1.7030 C   0  0  1  0  0  0  0  0  0  0  0  0
    5.2810    1.0090   -0.3150 C   0  0  0  0  0  0  0  0  0  0  0  0
    5.6690    2.9240   -1.7870 C   0  0  0  0  0  0  0  0  0  0  0  0
    3.5460    1.7290   -1.8860 C   0  0  0  0  0  0  0  0  0  0  0  0
    4.5510   -2.1160   -0.5760 C   0  0  0  0  0  0  0  0  0  0  0  0
  1  2  1  0
  2  3  2  0
  2 22  1  0
  3  4  1  0
  4  5  2  0
  5  6  1  0
  5 21  1  0
  6  7  1  0
  7  8  2  0
  7 20  1  0
  8  9  1  0
  9 10  2  0
 10 11  1  0
 10 19  1  0
 11 12  1  0
 12 13  1  0
 14 13  1  1
 14 15  1  0
 14 18  1  0
 15 16  1  0
 16 17  1  0
 17 18  1  0
 19 20  2  0
 21 22  2  0
 22 23  1  0
 23 24  1  0
 24 25  2  0
 24 37  1  0
 25 26  1  0
 26 27  2  0
 27 28  1  0
 28 29  1  0
 28 37  2  0
 29 30  2  0
 29 31  2  0
 29 32  1  1
 32 33  1  0
 33 34  1  1
 33 35  1  0
 33 36  1  0
M  CHG  1  14   1
M  END
