
     RDKit          3D

 44 49  0  0  0  0  0  0  0  0999 V2000
   -6.4580    0.7460    2.3610 C   0  0  0  0  0  0  0  0  0  0  0  0
   -5.7810   -0.1910    1.5710 O   0  0  0  0  0  0  0  0  0  0  0  0
   -4.4100   -0.1870    1.3560 C   0  0  0  0  0  0  0  0  0  0  0  0
   -3.9120    0.5210    0.2860 C   0  0  0  0  0  0  0  0  0  0  0  0
   -4.7430    1.2280   -0.5830 O   0  0  0  0  0  0  0  0  0  0  0  0
   -5.6860    0.5660   -1.3500 C   0  0  0  0  0  0  0  0  0  0  0  0
   -5.8080   -0.7980   -1.3350 C   0  0  0  0  0  0  0  0  0  0  0  0
   -6.7490   -1.4700   -2.0970 C   0  0  0  0  0  0  0  0  0  0  0  0
   -7.5930   -0.7740   -2.8970 C   0  0  0  0  0  0  0  0  0  0  0  0
   -8.5320   -1.3800   -3.6640 F   0  0  0  0  0  0  0  0  0  0  0  0
   -7.4800    0.6250   -2.9250 C   0  0  0  0  0  0  0  0  0  0  0  0
   -6.5600    1.2930   -2.1800 C   0  0  0  0  0  0  0  0  0  0  0  0
   -6.4410    2.6960   -2.1990 N   0  0  0  0  0  0  0  0  0  0  0  0
   -7.1900    3.6220   -2.9460 C   0  0  0  0  0  0  0  0  0  0  0  0
   -6.9420    5.0430   -2.8500 N   0  0  0  0  0  0  0  0  0  0  0  0
   -8.0870    3.2300   -3.7100 O   0  0  0  0  0  0  0  0  0  0  0  0
   -2.5600    0.5040    0.1090 C   0  0  0  0  0  0  0  0  0  0  0  0
   -1.7280   -0.2130    0.9940 C   0  0  0  0  0  0  0  0  0  0  0  0
   -0.2940   -0.1540    0.6950 C   0  0  0  0  0  0  0  0  0  0  0  0
    0.3580    0.3680   -0.1960 N   0  0  0  0  0  0  0  0  0  0  0  0
    1.6520    0.3000   -0.2860 N   0  0  0  0  0  0  0  0  0  0  0  0
    2.3510   -0.2440    0.4360 C   0  0  0  0  0  0  0  0  0  0  0  0
    3.7650   -0.5690    0.7110 N   0  0  0  0  0  0  0  0  0  0  0  0
    4.7610   -0.1140   -0.1640 C   0  0  0  0  0  0  0  0  0  0  0  0
    4.3860    0.5600   -1.1580 O   0  0  0  0  0  0  0  0  0  0  0  0
    6.1380   -0.3640    0.0060 N   0  0  0  0  0  0  0  0  0  0  0  0
    7.1380    0.1200   -0.9210 C   0  0  1  0  0  0  0  0  0  0  0  0
    8.1340    1.0080   -0.2100 C   0  0  0  0  0  0  0  0  0  0  0  0
    9.1870    1.4710   -1.1600 C   0  0  0  0  0  0  0  0  0  0  0  0
    9.5210    0.4400   -2.2160 C   0  0  1  0  0  0  0  0  0  0  0  0
   10.8380    0.5770   -2.6830 O   0  0  0  0  0  0  0  0  0  0  0  0
    9.3050   -0.9270   -1.6090 C   0  0  2  0  0  0  0  0  0  0  0  0
    9.7990   -1.8990   -2.4910 O   0  0  0  0  0  0  0  0  0  0  0  0
    7.8150   -1.1270   -1.4810 C   0  0  0  0  0  0  0  0  0  0  0  0
    1.0780   -0.9210    1.6540 S   0  0  0  0  0  0  0  0  0  0  0  0
   -2.2580   -0.8970    2.0360 C   0  0  0  0  0  0  0  0  0  0  0  0
   -1.5110   -1.6160    2.9330 C   0  0  0  0  0  0  0  0  0  0  0  0
   -2.0750   -2.3240    4.0100 C   0  0  0  0  0  0  0  0  0  0  0  0
   -3.4370   -2.3170    4.2030 C   0  0  0  0  0  0  0  0  0  0  0  0
   -4.1870   -1.5950    3.3010 C   0  0  0  0  0  0  0  0  0  0  0  0
   -3.6490   -0.8980    2.2430 C   0  0  0  0  0  0  0  0  0  0  0  0
   -3.6800   -3.0940    5.3300 O   0  0  0  0  0  0  0  0  0  0  0  0
   -2.4570   -3.2500    6.0590 C   0  0  0  0  0  0  0  0  0  0  0  0
   -1.5110   -3.1000    5.0150 O   0  0  0  0  0  0  0  0  0  0  0  0
  1  2  1  0
  2  3  1  0
  3  4  2  0
  3 41  1  0
  4  5  1  0
  4 17  1  0
  5  6  1  0
  6  7  2  0
  6 12  1  0
  7  8  1  0
  8  9  2  0
  9 10  1  0
  9 11  1  0
 11 12  2  0
 12 13  1  0
 13 14  1  0
 14 15  1  0
 14 16  2  0
 17 18  2  0
 18 19  1  0
 18 36  1  0
 19 20  2  0
 19 35  1  0
 20 21  1  0
 21 22  2  0
 22 23  1  0
 22 35  1  0
 23 24  1  0
 24 25  2  0
 24 26  1  0
 27 26  1  1
 27 28  1  0
 27 34  1  0
 28 29  1  0
 29 30  1  0
 30 31  1  1
 30 32  1  0
 32 33  1  6
 32 34  1  0
 36 37  2  0
 36 41  1  0
 37 38  1  0
 38 39  2  0
 38 44  1  0
 39 40  1  0
 39 42  1  0
 40 41  2  0
 42 43  1  0
 43 44  1  0
M  END
