
     RDKit          3D

 45 48  0  0  0  0  0  0  0  0999 V2000
    0.7130   -0.6350    4.0510 C   0  0  0  0  0  0  0  0  0  0  0  0
   -0.4430   -1.0080    3.1480 C   0  0  0  0  0  0  0  0  0  0  0  0
   -0.1380   -0.7970    1.7970 O   0  0  0  0  0  0  0  0  0  0  0  0
   -0.9850   -0.9750    0.7660 C   0  0  0  0  0  0  0  0  0  0  0  0
   -2.1790   -1.3850    1.2070 O   0  0  0  0  0  0  0  0  0  0  0  0
   -0.7950   -0.7900   -0.6210 C   0  0  0  0  0  0  0  0  0  0  0  0
    0.1360   -0.4740   -1.3860 C   0  0  0  0  0  0  0  0  0  0  0  0
    1.5190   -0.1230   -1.4070 C   0  0  0  0  0  0  0  0  0  0  0  0
    2.0200    0.1940   -2.6540 C   0  0  0  0  0  0  0  0  0  0  0  0
    3.3670    0.5820   -2.9240 C   0  0  0  0  0  0  0  0  0  0  0  0
    4.1440   -0.1860   -3.8160 C   0  0  0  0  0  0  0  0  0  0  0  0
    5.4090    0.2330   -4.1360 C   0  0  0  0  0  0  0  0  0  0  0  0
    5.9220    1.3890   -3.5980 C   0  0  0  0  0  0  0  0  0  0  0  0
    5.1690    2.1340   -2.7340 C   0  0  0  0  0  0  0  0  0  0  0  0
    3.9320    1.7140   -2.4270 N   0  0  0  0  0  0  0  0  0  0  0  0
    2.4420   -0.1900   -0.3240 C   0  0  0  0  0  0  0  0  0  0  0  0
    2.1890   -0.5590    0.8110 O   0  0  0  0  0  0  0  0  0  0  0  0
    3.8170    0.1780   -0.4810 O   0  0  0  0  0  0  0  0  0  0  0  0
    4.7240    0.0820    0.5680 C   0  0  1  0  0  0  0  0  0  0  0  0
    5.8020   -0.9580    0.2910 C   0  0  0  0  0  0  0  0  0  0  0  0
    5.4260    1.3410    0.9410 C   0  0  0  0  0  0  0  0  0  0  0  0
    4.8790    2.5990    1.1000 C   0  0  0  0  0  0  0  0  0  0  0  0
    5.8730    3.4540    1.4440 C   0  0  0  0  0  0  0  0  0  0  0  0
    7.0290    2.7120    1.4940 C   0  0  0  0  0  0  0  0  0  0  0  0
    8.3710    3.1720    1.8200 C   0  0  0  0  0  0  0  0  0  0  0  0
    9.5590    2.3810    1.8800 C   0  0  0  0  0  0  0  0  0  0  0  0
   10.6790    3.0150    2.2050 C   0  0  0  0  0  0  0  0  0  0  0  0
   10.7350    4.3260    2.4710 C   0  0  0  0  0  0  0  0  0  0  0  0
    8.9230    4.7420    2.2250 S   0  0  0  0  0  0  0  0  0  0  0  0
    6.7090    1.4790    1.1900 O   0  0  0  0  0  0  0  0  0  0  0  0
   -2.1450   -1.1100   -1.3920 C   0  0  0  0  0  0  0  0  0  0  0  0
   -3.1120   -0.1300   -0.8790 C   0  0  0  0  0  0  0  0  0  0  0  0
   -2.7120    0.7900   -0.1170 O   0  0  0  0  0  0  0  0  0  0  0  0
   -4.4780   -0.1420   -1.1800 N   0  0  0  0  0  0  0  0  0  0  0  0
   -5.0760   -1.1770   -2.0400 C   0  0  0  0  0  0  0  0  0  0  0  0
   -6.5450   -1.2820   -1.6570 C   0  0  0  0  0  0  0  0  0  0  0  0
   -6.7670   -1.0960   -0.2710 N   0  0  0  0  0  0  0  0  0  0  0  0
   -6.5570   -2.2310    0.5730 C   0  0  0  0  0  0  0  0  0  0  0  0
   -7.6060   -3.2670    0.3080 C   0  0  1  0  0  0  0  0  0  0  0  0
   -7.4240   -4.4080    1.1080 O   0  0  0  0  0  0  0  0  0  0  0  0
   -9.0010   -2.7570    0.6300 C   0  0  0  0  0  0  0  0  0  0  0  0
   -9.1900   -1.6240   -0.1550 O   0  0  0  0  0  0  0  0  0  0  0  0
   -6.3690    0.1580    0.2370 C   0  0  2  0  0  0  0  0  0  0  0  0
   -7.5220    1.1180    0.4460 C   0  0  0  0  0  0  0  0  0  0  0  0
   -5.3970    0.8370   -0.6920 C   0  0  0  0  0  0  0  0  0  0  0  0
  1  2  1  0
  2  3  1  0
  3  4  1  0
  4  5  2  0
  4  6  1  0
  6  7  2  3
  6 31  1  0
  7  8  1  0
  8  9  2  3
  8 16  1  0
  9 10  1  0
 10 11  2  0
 10 15  1  0
 11 12  1  0
 12 13  2  0
 13 14  1  0
 14 15  2  0
 16 17  2  0
 16 18  1  0
 18 19  1  0
 19 20  1  6
 19 21  1  0
 21 22  2  0
 21 30  1  0
 22 23  1  0
 23 24  2  0
 24 25  1  0
 24 30  1  0
 25 26  2  0
 25 29  1  0
 26 27  1  0
 27 28  2  0
 28 29  1  0
 31 32  1  0
 32 33  2  0
 32 34  1  0
 34 35  1  0
 34 45  1  0
 35 36  1  0
 36 37  1  0
 37 38  1  0
 37 43  1  0
 38 39  1  0
 39 40  1  1
 39 41  1  0
 41 42  1  0
 43 44  1  6
 43 45  1  0
M  END
