
     RDKit          3D

 45 48  0  0  0  0  0  0  0  0999 V2000
   -7.6900    2.6220    2.6320 C   0  0  0  0  0  0  0  0  0  0  0  0
   -7.4930    2.6250    1.3380 C   0  0  0  0  0  0  0  0  0  0  0  0
   -6.3870    1.8920    0.7160 C   0  0  0  0  0  0  0  0  0  0  0  0
   -6.1840    1.8870   -0.5870 C   0  0  0  0  0  0  0  0  0  0  0  0
   -4.8280    0.9780   -1.2620 S   0  0  0  0  0  0  0  0  0  0  0  0
   -3.8730    0.1310   -0.0250 C   0  0  0  0  0  0  0  0  0  0  0  0
   -2.5330    0.1550   -0.1310 C   0  0  0  0  0  0  0  0  0  0  0  0
   -1.9550    0.8680   -1.2330 N   0  0  0  0  0  0  0  0  0  0  0  0
   -0.9310    1.8610   -1.2150 C   0  0  0  0  0  0  0  0  0  0  0  0
   -0.9700    2.7280   -2.1850 O   0  0  0  0  0  0  0  0  0  0  0  0
    0.1400    2.0470   -0.2770 C   0  0  0  0  0  0  0  0  0  0  0  0
    0.3810    3.1450    0.5060 N   0  0  0  0  0  0  0  0  0  0  0  0
    1.4420    2.9600    1.2430 N   0  0  0  0  0  0  0  0  0  0  0  0
    1.9860    1.7390    1.0110 C   0  0  0  0  0  0  0  0  0  0  0  0
    3.1900    1.1640    1.6610 C   0  0  0  0  0  0  0  0  0  0  0  0
    4.3420    1.2090    0.7440 C   0  0  0  0  0  0  0  0  0  0  0  0
    4.2180    1.7110   -0.3890 O   0  0  0  0  0  0  0  0  0  0  0  0
    5.6000    0.6860    1.1300 N   0  0  0  0  0  0  0  0  0  0  0  0
    6.7420    0.6850    0.2910 C   0  0  0  0  0  0  0  0  0  0  0  0
    6.6500    1.1840   -0.8550 O   0  0  0  0  0  0  0  0  0  0  0  0
    8.0520    0.1170    0.7020 C   0  0  2  0  0  0  0  0  0  0  0  0
    8.0390   -0.3760    2.0030 O   0  0  0  0  0  0  0  0  0  0  0  0
    9.2100    1.0490    0.4590 C   0  0  0  0  0  0  0  0  0  0  0  0
    9.2230    2.1570    1.2790 O   0  0  0  0  0  0  0  0  0  0  0  0
    1.1650    1.1760    0.0570 C   0  0  0  0  0  0  0  0  0  0  0  0
    1.3210   -0.1540   -0.5930 C   0  0  0  0  0  0  0  0  0  0  0  0
    0.3680   -0.3950   -1.5520 O   0  0  0  0  0  0  0  0  0  0  0  0
   -0.2830   -1.5340   -1.9210 C   0  0  0  0  0  0  0  0  0  0  0  0
   -0.8570   -1.5300   -3.0670 O   0  0  0  0  0  0  0  0  0  0  0  0
   -0.4170   -2.7900   -1.1590 C   0  0  0  0  0  0  0  0  0  0  0  0
   -0.8130   -2.7980    0.0950 C   0  0  0  0  0  0  0  0  0  0  0  0
   -1.1800   -1.6920    0.9680 C   0  0  0  0  0  0  0  0  0  0  0  0
   -1.8230   -0.5770    0.9240 C   0  0  0  0  0  0  0  0  0  0  0  0
   -1.9790    0.1060    2.3140 C   0  0  0  0  0  0  0  0  0  0  0  0
   -0.9280   -4.1370    0.7190 N   0  0  0  0  0  0  0  0  0  0  0  0
   -0.6390   -5.3190    0.0330 C   0  0  0  0  0  0  0  0  0  0  0  0
   -1.1340   -6.4260    0.3380 O   0  0  0  0  0  0  0  0  0  0  0  0
    0.3010   -5.2230   -1.1030 C   0  0  0  0  0  0  0  0  0  0  0  0
   -0.0930   -3.9980   -1.9410 C   0  0  2  0  0  0  0  0  0  0  0  0
    1.0200   -3.8920   -2.9390 C   0  0  1  0  0  0  0  0  0  0  0  0
    1.1040   -5.1870   -3.5070 F   0  0  0  0  0  0  0  0  0  0  0  0
    0.7570   -3.0870   -4.0170 F   0  0  0  0  0  0  0  0  0  0  0  0
   -7.0780    2.6240   -1.4030 N   0  0  0  0  0  0  0  0  0  0  0  0
   -8.0680    3.2960   -0.9690 C   0  0  0  0  0  0  0  0  0  0  0  0
   -8.4200    3.3940    0.4800 C   0  0  0  0  0  0  0  0  0  0  0  0
  1  2  2  0
  2  3  1  0
  2 45  1  0
  3  4  2  0
  4  5  1  0
  4 43  1  0
  5  6  1  0
  6  7  2  3
  7  8  1  0
  7 33  1  0
  8  9  1  0
  9 10  2  0
  9 11  1  0
 11 12  1  0
 11 25  2  0
 12 13  1  0
 13 14  2  0
 14 15  1  0
 14 25  1  0
 15 16  1  0
 16 17  2  0
 16 18  1  0
 18 19  1  0
 19 20  2  0
 19 21  1  0
 21 22  1  1
 21 23  1  0
 23 24  1  0
 25 26  1  0
 26 27  1  0
 27 28  1  0
 28 29  2  0
 28 30  1  0
 30 31  2  0
 30 39  1  0
 31 32  1  0
 31 35  1  0
 32 33  2  0
 33 34  1  0
 35 36  1  0
 36 37  2  0
 36 38  1  0
 39 38  1  1
 39 40  1  0
 40 41  1  6
 40 42  1  0
 43 44  2  0
 44 45  1  0
M  END
