
     RDKit          3D

 45 48  0  0  0  0  0  0  0  0999 V2000
    9.7080    0.9810    3.7130 C   0  0  0  0  0  0  0  0  0  0  0  0
   10.6790   -0.1230    3.4520 C   0  0  0  0  0  0  0  0  0  0  0  0
   10.4840   -0.7020    2.1120 N   0  0  0  0  0  0  0  0  0  0  0  0
    9.6060   -1.8320    2.0130 C   0  0  0  0  0  0  0  0  0  0  0  0
   11.1720   -0.1950    0.9940 C   0  0  0  0  0  0  0  0  0  0  0  0
   12.0040    0.7640    1.3070 O   0  0  0  0  0  0  0  0  0  0  0  0
   11.0890   -0.5840   -0.4060 C   0  0  0  0  0  0  0  0  0  0  0  0
   10.0280   -1.3680   -0.8390 O   0  0  0  0  0  0  0  0  0  0  0  0
    8.7200   -0.9010   -0.7780 C   0  0  0  0  0  0  0  0  0  0  0  0
    7.6630   -1.7020   -1.2280 C   0  0  0  0  0  0  0  0  0  0  0  0
    6.3680   -1.2360   -1.1660 C   0  0  0  0  0  0  0  0  0  0  0  0
    6.0360    0.0090   -0.6730 C   0  0  0  0  0  0  0  0  0  0  0  0
    4.6090    0.4410   -0.6460 C   0  0  0  0  0  0  0  0  0  0  0  0
    4.2180    1.1840   -1.8910 C   0  0  0  0  0  0  0  0  0  0  0  0
    2.8670    1.5550   -1.8140 O   0  0  0  0  0  0  0  0  0  0  0  0
    1.8200    0.6730   -1.7550 C   0  0  0  0  0  0  0  0  0  0  0  0
    2.0480   -0.5540   -1.7730 O   0  0  0  0  0  0  0  0  0  0  0  0
    0.4230    1.1410   -1.6710 C   0  0  0  0  0  0  0  0  0  0  0  0
   -0.7140    0.3700   -1.7640 C   0  0  0  0  0  0  0  0  0  0  0  0
   -1.7980    1.2330   -1.6440 C   0  0  0  0  0  0  0  0  0  0  0  0
   -3.2120    0.8540   -1.6900 C   0  0  0  0  0  0  0  0  0  0  0  0
   -4.0910    1.6950   -1.3850 O   0  0  0  0  0  0  0  0  0  0  0  0
   -3.6350   -0.4360   -2.0740 N   0  0  0  0  0  0  0  0  0  0  0  0
   -5.0120   -0.8810   -2.1530 C   0  0  1  0  0  0  0  0  0  0  0  0
   -5.3890   -0.5100   -3.6450 C   0  0  0  0  0  0  0  0  0  0  0  0
   -6.8820   -0.4730   -3.7450 C   0  0  0  0  0  0  0  0  0  0  0  0
   -7.4590   -1.4660   -2.7650 C   0  0  0  0  0  0  0  0  0  0  0  0
   -6.5860   -2.6750   -2.6060 C   0  0  0  0  0  0  0  0  0  0  0  0
   -5.2080   -2.3370   -2.0190 C   0  0  2  0  0  0  0  0  0  0  0  0
   -5.1220   -2.9310   -0.3470 S   0  0  0  0  0  0  0  0  0  0  0  0
   -6.3990   -2.3880    0.7570 C   0  0  0  0  0  0  0  0  0  0  0  0
   -6.2000   -0.9910    1.1840 C   0  0  0  0  0  0  0  0  0  0  0  0
   -5.1320   -0.3780    0.9350 O   0  0  0  0  0  0  0  0  0  0  0  0
   -7.2140   -0.2730    1.9010 N   0  0  0  0  0  0  0  0  0  0  0  0
   -8.5170   -0.8000    2.2690 C   0  0  0  0  0  0  0  0  0  0  0  0
   -9.2820    0.3950    2.7600 C   0  0  0  0  0  0  0  0  0  0  0  0
   -8.1760    1.2080    3.4150 C   0  0  2  0  0  0  0  0  0  0  0  0
   -8.5380    2.6530    3.5370 C   0  0  0  0  0  0  0  0  0  0  0  0
   -9.6940    2.7830    4.3190 O   0  0  0  0  0  0  0  0  0  0  0  0
   -7.0710    1.0860    2.3610 C   0  0  0  0  0  0  0  0  0  0  0  0
   -1.3090    2.4330   -1.4890 O   0  0  0  0  0  0  0  0  0  0  0  0
   -0.0000    2.4350   -1.4990 C   0  0  0  0  0  0  0  0  0  0  0  0
    0.9220    3.6080   -1.3540 C   0  0  0  0  0  0  0  0  0  0  0  0
    7.0790    0.7990   -0.2290 C   0  0  0  0  0  0  0  0  0  0  0  0
    8.3780    0.3390   -0.2880 C   0  0  0  0  0  0  0  0  0  0  0  0
  1  2  1  0
  2  3  1  0
  3  4  1  0
  3  5  1  0
  5  6  2  0
  5  7  1  0
  7  8  1  0
  8  9  1  0
  9 10  2  0
  9 45  1  0
 10 11  1  0
 11 12  2  0
 12 13  1  0
 12 44  1  0
 13 14  1  0
 14 15  1  0
 15 16  1  0
 16 17  2  0
 16 18  1  0
 18 19  1  0
 18 42  2  0
 19 20  2  0
 20 21  1  0
 20 41  1  0
 21 22  2  0
 21 23  1  0
 24 23  1  6
 24 25  1  0
 24 29  1  0
 25 26  1  0
 26 27  1  0
 27 28  1  0
 28 29  1  0
 29 30  1  1
 30 31  1  0
 31 32  1  0
 32 33  2  0
 32 34  1  0
 34 35  1  0
 34 40  1  0
 35 36  1  0
 36 37  1  0
 37 38  1  6
 37 40  1  0
 38 39  1  0
 41 42  1  0
 42 43  1  0
 44 45  2  0
M  END
