
     RDKit          3D

 45 48  0  0  0  0  0  0  0  0999 V2000
  -11.0980   -2.0340   -1.3010 C   0  0  0  0  0  0  0  0  0  0  0  0
   -9.8300   -1.3230   -1.1760 N   0  0  0  0  0  0  0  0  0  0  0  0
   -8.6010   -2.0230   -0.9420 C   0  0  0  0  0  0  0  0  0  0  0  0
   -8.8020   -3.3020   -0.8770 O   0  0  0  0  0  0  0  0  0  0  0  0
   -7.3080   -1.5300   -0.7920 C   0  0  0  0  0  0  0  0  0  0  0  0
   -5.9170   -2.7410   -0.5870 S   0  0  0  0  0  0  0  0  0  0  0  0
   -4.6560   -1.5520   -0.4800 C   0  0  0  0  0  0  0  0  0  0  0  0
   -3.1970   -1.8530   -0.3170 C   0  0  0  0  0  0  0  0  0  0  0  0
   -2.8700   -3.0350   -0.2190 O   0  0  0  0  0  0  0  0  0  0  0  0
   -2.2440   -0.8160   -0.2870 N   0  0  0  0  0  0  0  0  0  0  0  0
   -0.8660   -0.9790   -0.1560 C   0  0  0  0  0  0  0  0  0  0  0  0
   -0.2600   -2.1760    0.1130 C   0  0  0  0  0  0  0  0  0  0  0  0
    1.0880   -2.3730    0.2210 C   0  0  0  0  0  0  0  0  0  0  0  0
    1.9320   -1.2760    0.0450 C   0  0  0  0  0  0  0  0  0  0  0  0
    3.2120   -1.3750    0.1260 O   0  0  0  0  0  0  0  0  0  0  0  0
    4.4920   -1.4420    0.2000 C   0  0  0  0  0  0  0  0  0  0  0  0
    5.0930   -0.4940    1.2200 C   0  0  0  0  0  0  0  0  0  0  0  0
    6.5150   -0.5210    1.3290 N   0  0  0  0  0  0  0  0  0  0  0  0
    7.2350   -1.3850    2.2590 C   0  0  0  0  0  0  0  0  0  0  0  0
    7.6140   -2.6950    1.7060 C   0  0  1  0  0  0  0  0  0  0  0  0
    8.6070   -2.6340    0.5590 C   0  0  0  0  0  0  0  0  0  0  0  0
    8.9770   -4.1310    0.5270 C   0  0  0  0  0  0  0  0  0  0  0  0
    8.9180   -4.5080    1.9720 C   0  0  0  0  0  0  0  0  0  0  0  0
    8.2960   -3.4970    2.6420 O   0  0  0  0  0  0  0  0  0  0  0  0
    7.2710    0.3560    0.5130 C   0  0  0  0  0  0  0  0  0  0  0  0
    8.5310    0.3460    0.6070 O   0  0  0  0  0  0  0  0  0  0  0  0
    6.6260    1.2650   -0.4270 C   0  0  0  0  0  0  0  0  0  0  0  0
    7.6830    2.1830   -1.0600 C   0  0  0  0  0  0  0  0  0  0  0  0
    7.0440    3.1190   -2.0000 C   0  0  0  0  0  0  0  0  0  0  0  0
    6.2690    2.6980   -2.9010 O   0  0  0  0  0  0  0  0  0  0  0  0
    7.3020    4.5000   -1.8830 O   0  0  0  0  0  0  0  0  0  0  0  0
    6.6490    5.3370   -2.8110 C   0  0  0  0  0  0  0  0  0  0  0  0
    1.3390   -0.0380   -0.2300 C   0  0  0  0  0  0  0  0  0  0  0  0
   -0.0220    0.1250   -0.3310 C   0  0  0  0  0  0  0  0  0  0  0  0
   -0.4840    1.4680   -0.6230 C   0  0  0  0  0  0  0  0  0  0  0  0
   -1.6570    1.8720   -0.7560 O   0  0  0  0  0  0  0  0  0  0  0  0
   -5.3000   -0.3730   -0.5940 C   0  0  0  0  0  0  0  0  0  0  0  0
   -6.6350   -0.3440   -0.7500 C   0  0  0  0  0  0  0  0  0  0  0  0
   -7.3650    0.9660   -0.8290 C   0  0  2  0  0  0  0  0  0  0  0  0
   -6.4280    2.1550   -0.9740 C   0  0  0  0  0  0  0  0  0  0  0  0
   -7.2200    3.4500   -0.7160 C   0  0  0  0  0  0  0  0  0  0  0  0
   -7.4580    3.6210    0.7620 C   0  0  0  0  0  0  0  0  0  0  0  0
   -7.7080    2.2380    1.3520 C   0  0  2  0  0  0  0  0  0  0  0  0
   -6.6170    1.7060    2.1780 C   0  0  0  0  0  0  0  0  0  0  0  0
   -8.2490    1.3070    0.2940 C   0  0  0  0  0  0  0  0  0  0  0  0
  1  2  1  0
  2  3  1  0
  3  4  2  0
  3  5  1  0
  5  6  1  0
  5 38  2  0
  6  7  1  0
  7  8  1  0
  7 37  2  0
  8  9  2  0
  8 10  1  0
 10 11  1  0
 11 12  2  0
 11 34  1  0
 12 13  1  0
 13 14  2  0
 14 15  1  0
 14 33  1  0
 15 16  1  0
 16 17  1  0
 17 18  1  0
 18 19  1  0
 18 25  1  0
 20 19  1  1
 20 21  1  0
 20 24  1  0
 21 22  1  0
 22 23  1  0
 23 24  1  0
 25 26  2  0
 25 27  1  0
 27 28  1  0
 28 29  1  0
 29 30  2  0
 29 31  1  0
 31 32  1  0
 33 34  2  0
 34 35  1  0
 35 36  2  0
 37 38  1  0
 39 38  1  1
 39 40  1  0
 39 45  1  0
 40 41  1  0
 41 42  1  0
 42 43  1  0
 43 44  1  6
 43 45  1  0
M  END
