
     RDKit          3D

 32 34  0  0  0  0  0  0  0  0999 V2000
    5.6780   -2.8220    0.6770 C   0  0  0  0  0  0  0  0  0  0  0  0
    4.3190   -2.8670    0.1930 N   0  0  0  0  0  0  0  0  0  0  0  0
    3.6970   -4.1570   -0.0580 C   0  0  0  0  0  0  0  0  0  0  0  0
    3.6340   -1.6450   -0.0270 C   0  0  0  0  0  0  0  0  0  0  0  0
    3.6550   -1.0200   -1.2500 C   0  0  0  0  0  0  0  0  0  0  0  0
    2.9940    0.1540   -1.5140 C   0  0  0  0  0  0  0  0  0  0  0  0
    3.1170    0.8800   -3.1020 Cl  0  0  0  0  0  0  0  0  0  0  0  0
    2.2480    0.7840   -0.5170 C   0  0  0  0  0  0  0  0  0  0  0  0
    1.5050    2.0010   -0.7840 C   0  0  0  0  0  0  0  0  0  0  0  0
    2.0720    3.1020   -0.6480 O   0  0  0  0  0  0  0  0  0  0  0  0
    0.1700    1.9350   -1.1890 N   0  0  0  0  0  0  0  0  0  0  0  0
   -0.6210    3.0520   -1.6260 C   0  0  0  0  0  0  0  0  0  0  0  0
   -1.2830    3.8320   -0.5870 C   0  0  0  0  0  0  0  0  0  0  0  0
   -2.4790    3.4570   -0.0300 C   0  0  0  0  0  0  0  0  0  0  0  0
   -3.1000    4.2350    0.9480 C   0  0  0  0  0  0  0  0  0  0  0  0
   -2.5100    5.4100    1.3760 C   0  0  0  0  0  0  0  0  0  0  0  0
   -1.3170    5.8050    0.8370 C   0  0  0  0  0  0  0  0  0  0  0  0
   -0.7160    5.0160   -0.1370 C   0  0  0  0  0  0  0  0  0  0  0  0
   -0.4720    0.6430   -1.2180 C   0  0  0  0  0  0  0  0  0  0  0  0
   -0.3020   -0.1660   -2.3170 C   0  0  0  0  0  0  0  0  0  0  0  0
   -0.9240   -1.4190   -2.3030 C   0  0  0  0  0  0  0  0  0  0  0  0
   -1.6870   -1.8570   -1.2430 C   0  0  0  0  0  0  0  0  0  0  0  0
   -2.2660   -3.1200   -1.3190 O   0  0  0  0  0  0  0  0  0  0  0  0
   -1.8480   -1.0310   -0.1510 C   0  0  0  0  0  0  0  0  0  0  0  0
   -2.6630   -1.5050    0.9910 C   0  0  1  0  0  0  0  0  0  0  0  0
   -4.0640   -1.7920    0.5190 C   0  0  0  0  0  0  0  0  0  0  0  0
   -2.0360   -2.7220    1.6420 C   0  0  0  0  0  0  0  0  0  0  0  0
   -2.7420   -0.4480    2.0810 C   0  0  0  0  0  0  0  0  0  0  0  0
   -1.2390    0.1990   -0.1590 C   0  0  0  0  0  0  0  0  0  0  0  0
    2.2290    0.1540    0.7210 C   0  0  0  0  0  0  0  0  0  0  0  0
    1.3390    0.8660    2.0560 Cl  0  0  0  0  0  0  0  0  0  0  0  0
    2.8970   -1.0250    0.9700 C   0  0  0  0  0  0  0  0  0  0  0  0
  1  2  1  0
  2  3  1  0
  2  4  1  0
  4  5  2  0
  4 32  1  0
  5  6  1  0
  6  7  1  0
  6  8  2  0
  8  9  1  0
  8 30  1  0
  9 10  2  0
  9 11  1  0
 11 12  1  0
 11 19  1  0
 12 13  1  0
 13 14  2  0
 13 18  1  0
 14 15  1  0
 15 16  2  0
 16 17  1  0
 17 18  2  0
 19 20  2  0
 19 29  1  0
 20 21  1  0
 21 22  2  0
 22 23  1  0
 22 24  1  0
 24 25  1  0
 24 29  2  0
 25 26  1  6
 25 27  1  0
 25 28  1  0
 30 31  1  0
 30 32  2  0
M  END
