
     RDKit          3D

 45 49  0  0  0  0  0  0  0  0999 V2000
   -5.0520    2.5520   -0.6850 C   0  0  0  0  0  0  0  0  0  0  0  0
   -4.3180    1.3100   -0.1700 C   0  0  1  0  0  0  0  0  0  0  0  0
   -2.8840    1.5200   -0.3070 N   0  0  0  0  0  0  0  0  0  0  0  0
   -2.0870    0.7130   -1.1720 C   0  0  0  0  0  0  0  0  0  0  0  0
   -2.6830   -0.1800   -1.8010 O   0  0  0  0  0  0  0  0  0  0  0  0
   -0.6960    0.9010   -1.3200 N   0  0  0  0  0  0  0  0  0  0  0  0
    0.1710    0.1480   -2.1510 C   0  0  0  0  0  0  0  0  0  0  0  0
   -0.1650   -0.9830   -2.8390 C   0  0  0  0  0  0  0  0  0  0  0  0
    0.7450   -1.6620   -3.6590 C   0  0  0  0  0  0  0  0  0  0  0  0
    2.0200   -1.2110   -3.8030 C   0  0  0  0  0  0  0  0  0  0  0  0
    2.9280   -1.8250   -4.5820 N   0  0  0  0  0  0  0  0  0  0  0  0
    4.1580   -1.3300   -4.6840 C   0  0  0  0  0  0  0  0  0  0  0  0
    5.0180   -1.8940   -5.4100 O   0  0  0  0  0  0  0  0  0  0  0  0
    4.5940   -0.1730   -4.0140 C   0  0  0  0  0  0  0  0  0  0  0  0
    6.2270    0.4510   -4.2680 S   0  0  0  0  0  0  0  0  0  0  0  0
    7.5270   -0.2180   -3.2800 C   0  0  0  0  0  0  0  0  0  0  0  0
    7.5550    0.0730   -1.8150 C   0  0  2  0  0  0  0  0  0  0  0  0
    8.7110   -0.5400   -1.2520 O   0  0  0  0  0  0  0  0  0  0  0  0
    6.4010   -0.4740   -1.0370 C   0  0  0  0  0  0  0  0  0  0  0  0
    6.4350   -0.2270    0.3110 O   0  0  0  0  0  0  0  0  0  0  0  0
    7.4040   -0.7730    1.0750 C   0  0  1  0  0  0  0  0  0  0  0  0
    8.1990    0.2850    1.8490 C   0  0  0  0  0  0  0  0  0  0  0  0
    8.6580   -0.4560    3.0790 C   0  0  1  0  0  0  0  0  0  0  0  0
    8.8870    0.5000    4.1540 N   0  0  0  0  0  0  0  0  0  0  0  0
    7.7120    1.1350    4.3860 F   0  0  0  0  0  0  0  0  0  0  0  0
    9.7840    1.3980    3.7050 F   0  0  0  0  0  0  0  0  0  0  0  0
    7.5660   -1.3480    3.3580 N   0  0  0  0  0  0  0  0  0  0  0  0
    6.7360   -1.5050    2.2170 C   0  0  0  0  0  0  0  0  0  0  0  0
    5.6460   -2.1070    2.0700 O   0  0  0  0  0  0  0  0  0  0  0  0
    3.6610    0.4090   -3.2490 N   0  0  0  0  0  0  0  0  0  0  0  0
    2.4020   -0.0710   -3.1250 C   0  0  0  0  0  0  0  0  0  0  0  0
    1.4860    0.5810   -2.3220 C   0  0  0  0  0  0  0  0  0  0  0  0
   -4.6210    1.1320    1.2670 C   0  0  0  0  0  0  0  0  0  0  0  0
   -3.7180    1.2180    2.1320 O   0  0  0  0  0  0  0  0  0  0  0  0
   -5.9810    0.8480    1.7450 C   0  0  0  0  0  0  0  0  0  0  0  0
   -6.2530    0.7130    3.0950 C   0  0  0  0  0  0  0  0  0  0  0  0
   -7.5590    0.4340    3.5110 C   0  0  0  0  0  0  0  0  0  0  0  0
   -8.5860    0.2880    2.6270 C   0  0  0  0  0  0  0  0  0  0  0  0
   -8.3210    0.4220    1.2750 C   0  0  0  0  0  0  0  0  0  0  0  0
   -7.0330    0.6970    0.8660 C   0  0  0  0  0  0  0  0  0  0  0  0
   -9.2550    0.3010    0.2620 O   0  0  0  0  0  0  0  0  0  0  0  0
  -10.4280   -0.4830    0.1430 C   0  0  0  0  0  0  0  0  0  0  0  0
  -10.8220   -1.1890    1.4030 C   0  0  0  0  0  0  0  0  0  0  0  0
  -11.0590   -0.2030    2.5270 C   0  0  0  0  0  0  0  0  0  0  0  0
   -9.8240    0.0110    3.2380 O   0  0  0  0  0  0  0  0  0  0  0  0
  2  1  1  1
  2  3  1  0
  2 33  1  0
  3  4  1  0
  4  5  2  0
  4  6  1  0
  6  7  1  0
  7  8  2  0
  7 32  1  0
  8  9  1  0
  9 10  2  0
 10 11  1  0
 10 31  1  0
 11 12  1  0
 12 13  2  0
 12 14  1  0
 14 15  1  0
 14 30  2  0
 15 16  1  0
 16 17  1  0
 17 18  1  1
 17 19  1  0
 19 20  1  0
 21 20  1  6
 21 22  1  0
 21 28  1  0
 22 23  1  0
 23 24  1  1
 23 27  1  0
 24 25  1  0
 24 26  1  0
 27 28  1  0
 28 29  2  0
 30 31  1  0
 31 32  2  0
 33 34  2  0
 33 35  1  0
 35 36  2  0
 35 40  1  0
 36 37  1  0
 37 38  2  0
 38 39  1  0
 38 45  1  0
 39 40  2  0
 39 41  1  0
 41 42  1  0
 42 43  1  0
 43 44  1  0
 44 45  1  0
M  END
