
     RDKit          3D

 45 48  0  0  0  0  0  0  0  0999 V2000
   -5.2230   -2.0950   -1.7440 C   0  0  0  0  0  0  0  0  0  0  0  0
   -4.3950   -2.7710   -0.6600 C   0  0  0  0  0  0  0  0  0  0  0  0
   -3.9550   -1.7870    0.3490 C   0  0  1  0  0  0  0  0  0  0  0  0
   -3.1610   -2.3120    1.4520 C   0  0  0  0  0  0  0  0  0  0  0  0
   -3.4090   -2.0310    2.6410 O   0  0  0  0  0  0  0  0  0  0  0  0
   -2.0780   -3.1610    1.1980 O   0  0  0  0  0  0  0  0  0  0  0  0
   -1.3040   -3.6580    2.2860 C   0  0  0  0  0  0  0  0  0  0  0  0
   -3.3090   -0.5310   -0.2760 C   0  0  0  0  0  0  0  0  0  0  0  0
   -1.9920   -0.7890   -0.8000 C   0  0  0  0  0  0  0  0  0  0  0  0
   -1.0840    0.2790   -1.2350 C   0  0  0  0  0  0  0  0  0  0  0  0
    0.2280   -0.3610   -1.7040 C   0  0  0  0  0  0  0  0  0  0  0  0
    0.0620   -1.3680   -2.4190 O   0  0  0  0  0  0  0  0  0  0  0  0
    1.4760    0.1790   -1.3490 N   0  0  0  0  0  0  0  0  0  0  0  0
    1.7060    1.2510   -0.3990 C   0  0  0  0  0  0  0  0  0  0  0  0
    3.0270    0.8980    0.2680 C   0  0  0  0  0  0  0  0  0  0  0  0
    3.6150   -0.1990   -0.5370 C   0  0  2  0  0  0  0  0  0  0  0  0
    3.4110   -1.5730   -0.0010 C   0  0  0  0  0  0  0  0  0  0  0  0
    3.9670   -1.8570    1.3470 C   0  0  0  0  0  0  0  0  0  0  0  0
    3.6810   -3.1910    1.7350 O   0  0  0  0  0  0  0  0  0  0  0  0
    5.0600    0.0410   -0.8160 C   0  0  0  0  0  0  0  0  0  0  0  0
    5.8950    0.3800    0.2210 C   0  0  0  0  0  0  0  0  0  0  0  0
    7.2580    0.6300    0.0510 C   0  0  0  0  0  0  0  0  0  0  0  0
    7.8170    0.5410   -1.2070 C   0  0  0  0  0  0  0  0  0  0  0  0
    9.1400    0.7600   -1.5060 O   0  0  0  0  0  0  0  0  0  0  0  0
   10.1450    1.0940   -0.6280 C   0  0  0  0  0  0  0  0  0  0  0  0
   10.8120    2.2170   -0.5370 C   0  0  0  0  0  0  0  0  0  0  0  0
   11.8200    2.1650    0.5530 C   0  0  0  0  0  0  0  0  0  0  0  0
   11.6420    0.8220    1.0980 C   0  0  0  0  0  0  0  0  0  0  0  0
   10.6880    0.2200    0.4200 C   0  0  0  0  0  0  0  0  0  0  0  0
    6.9810    0.2000   -2.2630 C   0  0  0  0  0  0  0  0  0  0  0  0
    5.6190   -0.0460   -2.0600 C   0  0  0  0  0  0  0  0  0  0  0  0
    2.8210   -0.1570   -1.8570 C   0  0  0  0  0  0  0  0  0  0  0  0
   -4.0350    0.5730   -0.2350 C   0  0  0  0  0  0  0  0  0  0  0  0
   -5.3250    0.5140    0.3570 N   0  0  0  0  0  0  0  0  0  0  0  0
   -6.0460    1.5060    0.4510 C   0  0  0  0  0  0  0  0  0  0  0  0
   -7.4260    1.6600    1.0220 C   0  0  0  0  0  0  0  0  0  0  0  0
   -8.3340    0.5330    0.6590 C   0  0  0  0  0  0  0  0  0  0  0  0
   -9.6310    0.8170    1.2550 N   0  0  0  0  0  0  0  0  0  0  0  0
  -10.3860    1.9680    0.9320 C   0  0  0  0  0  0  0  0  0  0  0  0
   -9.9600    2.8230    0.0830 O   0  0  0  0  0  0  0  0  0  0  0  0
  -11.6270    2.2840    1.4860 O   0  0  0  0  0  0  0  0  0  0  0  0
  -12.2690    3.4850    1.0760 C   0  0  0  0  0  0  0  0  0  0  0  0
   -5.1030    2.9020   -0.1370 S   0  0  0  0  0  0  0  0  0  0  0  0
   -3.7200    1.8870   -0.6850 C   0  0  0  0  0  0  0  0  0  0  0  0
   -2.8090    2.3930   -1.2940 O   0  0  0  0  0  0  0  0  0  0  0  0
  1  2  1  0
  3  2  1  6
  3  4  1  0
  3  8  1  0
  4  5  2  0
  4  6  1  0
  6  7  1  0
  8  9  1  0
  8 33  2  3
  9 10  1  0
 10 11  1  0
 11 12  2  0
 11 13  1  0
 13 14  1  0
 13 32  1  0
 14 15  1  0
 15 16  1  0
 16 17  1  1
 16 20  1  0
 16 32  1  0
 17 18  1  0
 18 19  1  0
 20 21  2  0
 20 31  1  0
 21 22  1  0
 22 23  2  0
 23 24  1  0
 23 30  1  0
 24 25  1  0
 25 26  2  0
 25 29  1  0
 26 27  1  0
 27 28  1  0
 28 29  2  0
 30 31  2  0
 33 34  1  0
 33 44  1  0
 34 35  2  0
 35 36  1  0
 35 43  1  0
 36 37  1  0
 37 38  1  0
 38 39  1  0
 39 40  2  0
 39 41  1  0
 41 42  1  0
 43 44  1  0
 44 45  2  0
M  END
