
     RDKit          3D

 37 42  0  0  0  0  0  0  0  0999 V2000
    4.2880   -2.1270    1.5440 C   0  0  0  0  0  0  0  0  0  0  0  0
    4.3850   -1.1750    0.3980 C   0  0  0  0  0  0  0  0  0  0  0  0
    5.5830   -0.5320    0.1860 C   0  0  0  0  0  0  0  0  0  0  0  0
    5.7600    0.3550   -0.8520 C   0  0  0  0  0  0  0  0  0  0  0  0
    7.0540    1.0250   -1.0720 C   0  0  0  0  0  0  0  0  0  0  0  0
    7.3680    1.8410   -2.0010 N   0  0  0  0  0  0  0  0  0  0  0  0
    8.6920    2.2610   -1.8750 N   0  0  0  0  0  0  0  0  0  0  0  0
    9.3780    1.2900   -1.0370 C   0  0  0  0  0  0  0  0  0  0  0  0
    8.2170    0.8340   -0.1740 C   0  0  0  0  0  0  0  0  0  0  0  0
    4.6800    0.5740   -1.6730 C   0  0  0  0  0  0  0  0  0  0  0  0
    3.4600   -0.0590   -1.4820 C   0  0  0  0  0  0  0  0  0  0  0  0
    3.3150   -0.9530   -0.4220 C   0  0  0  0  0  0  0  0  0  0  0  0
    2.0620   -1.6120   -0.2470 N   0  0  0  0  0  0  0  0  0  0  0  0
    1.5860   -2.5830   -1.2100 C   0  0  0  0  0  0  0  0  0  0  0  0
    1.3190   -1.3230    0.9190 C   0  0  0  0  0  0  0  0  0  0  0  0
    1.7450   -0.5970    1.8390 O   0  0  0  0  0  0  0  0  0  0  0  0
   -0.0410   -1.9110    1.0730 C   0  0  1  0  0  0  0  0  0  0  0  0
   -0.3040   -2.3560    2.3960 N   0  0  0  0  0  0  0  0  0  0  0  0
   -1.2470   -1.7390    2.8950 N   0  0  0  0  0  0  0  0  0  0  0  0
   -1.7840   -0.7540    1.9680 C   0  0  0  0  0  0  0  0  0  0  0  0
   -1.0920   -0.8280    0.8760 C   0  0  0  0  0  0  0  0  0  0  0  0
   -1.3920    0.0200   -0.2610 C   0  0  0  0  0  0  0  0  0  0  0  0
   -0.6670    0.0100   -1.3900 N   0  0  0  0  0  0  0  0  0  0  0  0
   -0.9340    0.8400   -2.4190 C   0  0  0  0  0  0  0  0  0  0  0  0
   -1.9720    1.7410   -2.3540 C   0  0  0  0  0  0  0  0  0  0  0  0
   -2.7330    1.7710   -1.2060 C   0  0  0  0  0  0  0  0  0  0  0  0
   -2.4330    0.9050   -0.1680 C   0  0  0  0  0  0  0  0  0  0  0  0
   -3.3470    0.9790    1.0270 C   0  0  1  0  0  0  0  0  0  0  0  0
   -3.3690    2.4660    1.3840 C   0  0  0  0  0  0  0  0  0  0  0  0
   -4.6410    0.5730    0.5010 N   0  0  0  0  0  0  0  0  0  0  0  0
   -5.7440    0.7160    1.3770 C   0  0  0  0  0  0  0  0  0  0  0  0
   -6.9660    0.2600    0.6230 C   0  0  0  0  0  0  0  0  0  0  0  0
   -7.0010   -0.1900   -0.6090 C   0  0  0  0  0  0  0  0  0  0  0  0
   -8.4130   -0.5250   -0.9440 C   0  0  0  0  0  0  0  0  0  0  0  0
   -9.1640   -0.1930    0.2910 C   0  0  0  0  0  0  0  0  0  0  0  0
   -8.3070    0.2570    1.1800 C   0  0  0  0  0  0  0  0  0  0  0  0
   -2.8940    0.2040    2.1810 C   0  0  0  0  0  0  0  0  0  0  0  0
  1  2  1  0
  2  3  2  0
  2 12  1  0
  3  4  1  0
  4  5  1  0
  4 10  2  0
  5  6  2  0
  5  9  1  0
  6  7  1  0
  7  8  1  0
  8  9  1  0
 10 11  1  0
 11 12  2  0
 12 13  1  0
 13 14  1  0
 13 15  1  0
 15 16  2  0
 17 15  1  1
 17 18  1  0
 17 21  1  0
 18 19  2  0
 19 20  1  0
 20 21  2  0
 20 37  1  0
 21 22  1  0
 22 23  2  0
 22 27  1  0
 23 24  1  0
 24 25  2  0
 25 26  1  0
 26 27  2  0
 27 28  1  0
 28 29  1  1
 28 30  1  0
 28 37  1  0
 30 31  1  0
 31 32  1  0
 32 33  2  0
 32 36  1  0
 33 34  1  0
 34 35  1  0
 35 36  2  0
M  END
