
     RDKit          3D

 36 38  0  0  0  0  0  0  0  0999 V2000
    5.2630   -0.5330   -3.7300 O   0  0  0  0  0  0  0  0  0  0  0  0
    5.7930   -0.1150   -2.6750 C   0  0  0  0  0  0  0  0  0  0  0  0
    7.0710    0.4100   -2.7460 O   0  0  0  0  0  0  0  0  0  0  0  0
    5.1110   -0.1630   -1.3830 C   0  0  2  0  0  0  0  0  0  0  0  0
    5.8280   -1.1630   -0.5010 C   0  0  0  0  0  0  0  0  0  0  0  0
    5.2030   -1.0940    0.8830 C   0  0  2  0  0  0  0  0  0  0  0  0
    5.6540   -2.1360    1.6890 O   0  0  0  0  0  0  0  0  0  0  0  0
    3.7100   -1.3170    0.6780 C   0  0  2  0  0  0  0  0  0  0  0  0
    3.6110   -2.5290   -0.0430 O   0  0  0  0  0  0  0  0  0  0  0  0
    3.2200   -0.1970   -0.1900 C   0  0  2  0  0  0  0  0  0  0  0  0
    1.8510   -0.0140   -0.1900 O   0  0  0  0  0  0  0  0  0  0  0  0
    1.4520    1.2140    0.2740 C   0  0  2  0  0  0  0  0  0  0  0  0
    0.4770    1.0120    1.4200 C   0  0  2  0  0  0  0  0  0  0  0  0
    0.1990   -0.4130    1.6960 C   0  0  0  0  0  0  0  0  0  0  0  0
   -0.3180   -0.8050    2.7820 O   0  0  0  0  0  0  0  0  0  0  0  0
    0.4830   -1.4370    0.7820 O   0  0  0  0  0  0  0  0  0  0  0  0
   -0.7050    1.7190    1.1720 O   0  0  0  0  0  0  0  0  0  0  0  0
   -1.3560    1.1700    0.0760 C   0  0  1  0  0  0  0  0  0  0  0  0
   -2.6690    1.6350   -0.0100 O   0  0  0  0  0  0  0  0  0  0  0  0
   -3.5170    0.5540    0.0440 C   0  0  1  0  0  0  0  0  0  0  0  0
   -4.4430    0.6080    1.2420 C   0  0  1  0  0  0  0  0  0  0  0  0
   -4.4910    2.0080    1.7190 C   0  0  0  0  0  0  0  0  0  0  0  0
   -4.9100    2.3340    2.8570 O   0  0  0  0  0  0  0  0  0  0  0  0
   -4.0580    3.0180    0.8830 O   0  0  0  0  0  0  0  0  0  0  0  0
   -5.7390    0.2540    0.9090 O   0  0  0  0  0  0  0  0  0  0  0  0
   -5.8640   -0.9060    0.1900 C   0  0  2  0  0  0  0  0  0  0  0  0
   -5.6340   -2.0480    0.9550 O   0  0  0  0  0  0  0  0  0  0  0  0
   -5.0440   -0.9560   -1.0570 C   0  0  1  0  0  0  0  0  0  0  0  0
   -5.8080   -1.3100   -2.1610 O   0  0  0  0  0  0  0  0  0  0  0  0
   -4.3590    0.3900   -1.2280 C   0  0  2  0  0  0  0  0  0  0  0  0
   -3.5890    0.4720   -2.3600 O   0  0  0  0  0  0  0  0  0  0  0  0
   -0.6050    1.4980   -1.1690 C   0  0  2  0  0  0  0  0  0  0  0  0
   -0.5060    0.4100   -2.0420 O   0  0  0  0  0  0  0  0  0  0  0  0
    0.7730    1.9490   -0.8650 C   0  0  2  0  0  0  0  0  0  0  0  0
    1.5850    1.9320   -2.0000 O   0  0  0  0  0  0  0  0  0  0  0  0
    3.7490   -0.3800   -1.4620 O   0  0  0  0  0  0  0  0  0  0  0  0
  1  2  2  0
  2  3  1  0
  4  2  1  6
  4  5  1  0
  4 36  1  0
  5  6  1  0
  6  7  1  1
  6  8  1  0
  8  9  1  6
  8 10  1  0
 10 11  1  6
 10 36  1  0
 12 11  1  6
 12 13  1  0
 12 34  1  0
 13 14  1  6
 13 17  1  0
 14 15  2  0
 14 16  1  0
 17 18  1  0
 18 19  1  6
 18 32  1  0
 20 19  1  6
 20 21  1  0
 20 30  1  0
 21 22  1  6
 21 25  1  0
 22 23  2  0
 22 24  1  0
 25 26  1  0
 26 27  1  1
 26 28  1  0
 28 29  1  6
 28 30  1  0
 30 31  1  6
 32 33  1  6
 32 34  1  0
 34 35  1  6
M  CHG  3   3  -1  16  -1  24  -1
M  END
