
     RDKit          3D

 37 42  0  0  0  0  0  0  0  0999 V2000
   -5.5470   -3.2840   -3.7500 C   0  0  0  0  0  0  0  0  0  0  0  0
   -5.0590   -2.0340   -3.1340 C   0  0  0  0  0  0  0  0  0  0  0  0
   -3.7500   -1.6480   -3.2900 C   0  0  0  0  0  0  0  0  0  0  0  0
   -3.2710   -0.4910   -2.7230 C   0  0  0  0  0  0  0  0  0  0  0  0
   -4.1200    0.3040   -1.9790 C   0  0  0  0  0  0  0  0  0  0  0  0
   -3.6830    1.5280   -1.4070 N   0  0  0  0  0  0  0  0  0  0  0  0
   -2.3030    1.9110   -1.4560 C   0  0  0  0  0  0  0  0  0  0  0  0
   -1.4760    1.0720   -0.5390 C   0  0  2  0  0  0  0  0  0  0  0  0
   -1.9620    1.2190    0.8990 C   0  0  0  0  0  0  0  0  0  0  0  0
   -0.8550    0.7660    1.8160 C   0  0  0  0  0  0  0  0  0  0  0  0
   -0.0150   -0.2690    1.0660 C   0  0  0  0  0  0  0  0  0  0  0  0
    0.7340    0.4050    0.0110 N   0  0  0  0  0  0  0  0  0  0  0  0
    2.0570    0.0650   -0.3760 C   0  0  0  0  0  0  0  0  0  0  0  0
    2.4700   -0.5120   -1.5160 N   0  0  0  0  0  0  0  0  0  0  0  0
    3.8090   -0.6750   -1.5160 C   0  0  0  0  0  0  0  0  0  0  0  0
    4.7060   -1.1820   -2.3920 N   0  0  0  0  0  0  0  0  0  0  0  0
    6.0420   -1.2170   -2.1290 C   0  0  0  0  0  0  0  0  0  0  0  0
    6.5480   -0.7320   -0.9460 C   0  0  0  0  0  0  0  0  0  0  0  0
    5.6370   -0.2140   -0.0500 C   0  0  0  0  0  0  0  0  0  0  0  0
    4.2760   -0.1780   -0.3190 C   0  0  0  0  0  0  0  0  0  0  0  0
    3.1970    0.2620    0.3500 N   0  0  0  0  0  0  0  0  0  0  0  0
    6.1450    0.3080    1.2440 C   0  0  0  0  0  0  0  0  0  0  0  0
    7.5630   -0.0610    1.5200 C   0  0  2  0  0  0  0  0  0  0  0  0
    7.6620   -0.6080    2.9530 C   0  0  0  0  0  0  0  0  0  0  0  0
    8.3770    1.2240    1.5230 C   0  0  0  0  0  0  0  0  0  0  0  0
    8.1050   -1.0290    0.7120 O   0  0  0  0  0  0  0  0  0  0  0  0
    8.0060   -0.7710   -0.6530 C   0  0  0  0  0  0  0  0  0  0  0  0
   -0.0060    1.4930   -0.6380 C   0  0  0  0  0  0  0  0  0  0  0  0
   -5.4300   -0.0680   -1.8140 C   0  0  0  0  0  0  0  0  0  0  0  0
   -6.4100    0.7120   -1.0270 C   0  0  0  0  0  0  0  0  0  0  0  0
   -6.2480    0.4110    0.3790 N   0  0  0  0  0  0  0  0  0  0  0  0
   -6.8790   -0.5880    1.0670 C   0  0  0  0  0  0  0  0  0  0  0  0
   -6.4460   -0.5210    2.3700 C   0  0  0  0  0  0  0  0  0  0  0  0
   -5.5630    0.5060    2.4680 C   0  0  0  0  0  0  0  0  0  0  0  0
   -4.8510    0.9210    3.6990 C   0  0  0  0  0  0  0  0  0  0  0  0
   -5.4840    1.0340    1.2300 N   0  0  0  0  0  0  0  0  0  0  0  0
   -5.9120   -1.2540   -2.3990 C   0  0  0  0  0  0  0  0  0  0  0  0
  1  2  1  0
  2  3  2  0
  2 37  1  0
  3  4  1  0
  4  5  2  0
  5  6  1  0
  5 29  1  0
  6  7  1  0
  8  7  1  6
  8  9  1  0
  8 28  1  0
  9 10  1  0
 10 11  1  0
 11 12  1  0
 12 13  1  0
 12 28  1  0
 13 14  2  0
 13 21  1  0
 14 15  1  0
 15 16  2  0
 15 20  1  0
 16 17  1  0
 17 18  2  0
 18 19  1  0
 18 27  1  0
 19 20  2  0
 19 22  1  0
 20 21  1  0
 22 23  1  0
 23 24  1  1
 23 25  1  0
 23 26  1  0
 26 27  1  0
 29 30  1  0
 29 37  2  0
 30 31  1  0
 31 32  1  0
 31 36  1  0
 32 33  2  0
 33 34  1  0
 34 35  1  0
 34 36  2  0
M  END
