
     RDKit          3D

 37 42  0  0  0  0  0  0  0  0999 V2000
   -6.4570    0.9440   -1.6690 C   0  0  0  0  0  0  0  0  0  0  0  0
   -5.5640    0.3340   -2.7280 C   0  0  0  0  0  0  0  0  0  0  0  0
   -4.3430   -0.1810   -2.1500 N   0  0  0  0  0  0  0  0  0  0  0  0
   -3.4860    0.7470   -1.4630 C   0  0  0  0  0  0  0  0  0  0  0  0
   -2.3310    0.2610   -0.9050 C   0  0  0  0  0  0  0  0  0  0  0  0
   -1.4900    1.0990   -0.2460 C   0  0  0  0  0  0  0  0  0  0  0  0
   -1.7950    2.4470   -0.1350 C   0  0  0  0  0  0  0  0  0  0  0  0
   -2.9610    2.9010   -0.7080 C   0  0  0  0  0  0  0  0  0  0  0  0
   -3.3480    4.3290   -0.6310 C   0  0  0  0  0  0  0  0  0  0  0  0
   -3.7890    2.0470   -1.3630 N   0  0  0  0  0  0  0  0  0  0  0  0
   -1.0400    3.5330    0.5410 C   0  0  0  0  0  0  0  0  0  0  0  0
    0.2940    3.6960   -0.1230 C   0  0  0  0  0  0  0  0  0  0  0  0
    0.7300    2.4830   -0.9250 C   0  0  0  0  0  0  0  0  0  0  0  0
    0.8690    1.3190   -0.0910 N   0  0  0  0  0  0  0  0  0  0  0  0
    2.1190    0.9090    0.4030 C   0  0  0  0  0  0  0  0  0  0  0  0
    2.1280   -0.1550    1.1360 O   0  0  0  0  0  0  0  0  0  0  0  0
    3.4070    1.5300    0.1950 C   0  0  0  0  0  0  0  0  0  0  0  0
    3.7520    2.6270   -0.4900 N   0  0  0  0  0  0  0  0  0  0  0  0
    5.0320    2.8570   -0.4500 N   0  0  0  0  0  0  0  0  0  0  0  0
    5.6240    1.9030    0.2810 C   0  0  0  0  0  0  0  0  0  0  0  0
    4.6250    1.0510    0.7020 C   0  0  0  0  0  0  0  0  0  0  0  0
    5.2710    0.0040    1.5020 C   0  0  0  0  0  0  0  0  0  0  0  0
    6.5480    0.6410    2.0080 C   0  0  0  0  0  0  0  0  0  0  0  0
    6.9430    1.4630    0.7750 C   0  0  0  0  0  0  0  0  0  0  0  0
   -0.2780    0.4830    0.3070 C   0  0  2  0  0  0  0  0  0  0  0  0
   -0.0820   -0.9300    0.0480 C   0  0  0  0  0  0  0  0  0  0  0  0
    0.7790   -1.3250   -0.9410 C   0  0  0  0  0  0  0  0  0  0  0  0
    1.0280   -2.6430   -1.2650 C   0  0  0  0  0  0  0  0  0  0  0  0
    0.3500   -3.5850   -0.5250 C   0  0  0  0  0  0  0  0  0  0  0  0
    0.5720   -5.0180   -0.8220 C   0  0  0  0  0  0  0  0  0  0  0  0
    1.4620   -5.5970    0.2500 C   0  0  0  0  0  0  0  0  0  0  0  0
   -0.5220   -3.2080    0.4760 C   0  0  0  0  0  0  0  0  0  0  0  0
   -1.3100   -3.9640    1.3480 C   0  0  0  0  0  0  0  0  0  0  0  0
   -1.9750   -3.1000    2.1290 N   0  0  0  0  0  0  0  0  0  0  0  0
   -2.9010   -3.5080    3.1700 C   0  0  0  0  0  0  0  0  0  0  0  0
   -1.6340   -1.8890    1.7800 N   0  0  0  0  0  0  0  0  0  0  0  0
   -0.7420   -1.8810    0.7670 C   0  0  0  0  0  0  0  0  0  0  0  0
  1  2  1  0
  2  3  1  0
  3  4  1  0
  4  5  2  0
  4 10  1  0
  5  6  1  0
  6  7  2  0
  6 25  1  0
  7  8  1  0
  7 11  1  0
  8  9  1  0
  8 10  2  0
 11 12  1  0
 12 13  1  0
 13 14  1  0
 14 15  1  0
 14 25  1  0
 15 16  2  0
 15 17  1  0
 17 18  2  0
 17 21  1  0
 18 19  1  0
 19 20  1  0
 20 21  2  0
 20 24  1  0
 21 22  1  0
 22 23  1  0
 23 24  1  0
 25 26  1  6
 26 27  2  0
 26 37  1  0
 27 28  1  0
 28 29  2  0
 29 30  1  0
 29 32  1  0
 30 31  1  0
 32 33  2  0
 32 37  1  0
 33 34  1  0
 34 35  1  0
 34 36  1  0
 36 37  2  0
M  END
