
     RDKit          3D

 36 39  0  0  0  0  0  0  0  0999 V2000
   -2.9360   -0.2470    2.5410 C   0  0  0  0  0  0  0  0  0  0  0  0
   -3.0030   -1.0170    1.5050 C   0  0  0  0  0  0  0  0  0  0  0  0
   -1.8330   -1.3160    0.6510 C   0  0  0  0  0  0  0  0  0  0  0  0
   -0.9450   -0.4550    0.2970 C   0  0  0  0  0  0  0  0  0  0  0  0
   -0.8440    0.9460    0.5920 C   0  0  0  0  0  0  0  0  0  0  0  0
    0.1650    1.7090    0.1970 C   0  0  0  0  0  0  0  0  0  0  0  0
    1.5070    1.0770   -0.7230 S   0  0  0  0  0  0  0  0  0  0  0  0
    2.3520   -0.2160    0.1980 C   0  0  0  0  0  0  0  0  0  0  0  0
    3.4400   -0.8460   -0.5960 C   0  0  0  0  0  0  0  0  0  0  0  0
    3.2790   -1.9280   -1.3700 N   0  0  0  0  0  0  0  0  0  0  0  0
    4.4230   -2.2150   -1.9190 O   0  0  0  0  0  0  0  0  0  0  0  0
    5.3590   -1.3630   -1.5430 C   0  0  0  0  0  0  0  0  0  0  0  0
    6.7630   -1.4150   -1.9880 C   0  0  0  0  0  0  0  0  0  0  0  0
    7.6080   -1.9460   -1.0220 O   0  0  0  0  0  0  0  0  0  0  0  0
    7.2070   -3.2330   -0.7000 C   0  0  0  0  0  0  0  0  0  0  0  0
    4.7270   -0.5030   -0.7070 N   0  0  0  0  0  0  0  0  0  0  0  0
    0.0020    3.4510    0.4550 S   0  0  0  0  0  0  0  0  0  0  0  0
    1.2300    4.5080   -0.2130 C   0  0  1  0  0  0  0  0  0  0  0  0
    1.3010    4.3750   -1.7250 C   0  0  0  0  0  0  0  0  0  0  0  0
    0.6630    5.9730    0.0230 C   0  0  0  0  0  0  0  0  0  0  0  0
    2.5330    4.5130    0.4580 C   0  0  0  0  0  0  0  0  0  0  0  0
    3.5390    3.4570    0.2850 C   0  0  0  0  0  0  0  0  0  0  0  0
    2.8520    5.4360    1.2230 O   0  0  0  0  0  0  0  0  0  0  0  0
   -1.8410   -2.7480    0.1500 C   0  0  2  0  0  0  0  0  0  0  0  0
   -2.7260   -2.7570   -1.1160 C   0  0  0  0  0  0  0  0  0  0  0  0
   -4.0440   -3.3460   -0.7120 C   0  0  0  0  0  0  0  0  0  0  0  0
   -4.0740   -3.1880    0.7950 C   0  0  1  0  0  0  0  0  0  0  0  0
   -2.6210   -3.6020    1.1090 C   0  0  0  0  0  0  0  0  0  0  0  0
   -4.2210   -1.7180    1.1490 C   0  0  0  0  0  0  0  0  0  0  0  0
   -5.3810   -1.1280    1.0520 C   0  0  0  0  0  0  0  0  0  0  0  0
   -6.5360   -1.8580    0.7150 O   0  0  0  0  0  0  0  0  0  0  0  0
   -7.6340   -1.0440    0.6640 C   0  0  0  0  0  0  0  0  0  0  0  0
   -8.8290   -1.3930    0.3890 O   0  0  0  0  0  0  0  0  0  0  0  0
   -7.2270    0.2690    0.9700 N   0  0  0  0  0  0  0  0  0  0  0  0
   -5.8180    0.2370    1.2150 C   0  0  0  0  0  0  0  0  0  0  0  0
   -5.1040    1.2410    1.5140 O   0  0  0  0  0  0  0  0  0  0  0  0
  1  2  2  0
  2  3  1  0
  2 29  1  0
  3  4  2  3
  3 24  1  0
  4  5  1  0
  5  6  2  3
  6  7  1  0
  6 17  1  0
  7  8  1  0
  8  9  1  0
  9 10  2  0
  9 16  1  0
 10 11  1  0
 11 12  1  0
 12 13  1  0
 12 16  2  0
 13 14  1  0
 14 15  1  0
 17 18  1  0
 18 19  1  6
 18 20  1  0
 18 21  1  0
 21 22  1  0
 21 23  2  0
 24 25  1  6
 24 28  1  0
 25 26  1  0
 27 26  1  6
 27 28  1  0
 27 29  1  0
 29 30  2  3
 30 31  1  0
 30 35  1  0
 31 32  1  0
 32 33  2  0
 32 34  1  0
 34 35  1  0
 35 36  2  0
M  END
