
     RDKit          3D

 37 42  0  0  0  0  0  0  0  0999 V2000
    0.6430    1.9370    0.9890 C   0  0  0  0  0  0  0  0  0  0  0  0
    0.2980    0.9850   -0.0940 C   0  0  0  0  0  0  0  0  0  0  0  0
    1.2230    0.7370   -1.0470 N   0  0  0  0  0  0  0  0  0  0  0  0
    0.9690   -0.1110   -2.0480 C   0  0  0  0  0  0  0  0  0  0  0  0
    1.9840   -0.3300   -3.0200 N   0  0  0  0  0  0  0  0  0  0  0  0
    3.2650    0.3330   -2.9440 C   0  0  0  0  0  0  0  0  0  0  0  0
    4.0000   -0.0500   -1.7100 C   0  0  0  0  0  0  0  0  0  0  0  0
    3.5560   -1.1010   -0.9520 C   0  0  0  0  0  0  0  0  0  0  0  0
    4.2610   -1.4180    0.1840 C   0  0  0  0  0  0  0  0  0  0  0  0
    5.3820   -0.7150    0.5660 C   0  0  0  0  0  0  0  0  0  0  0  0
    6.0250   -1.0830    1.6930 N   0  0  0  0  0  0  0  0  0  0  0  0
    7.1120   -0.3880    2.0480 C   0  0  0  0  0  0  0  0  0  0  0  0
    7.7420   -0.7070    3.1050 O   0  0  0  0  0  0  0  0  0  0  0  0
    7.5770    0.6660    1.3080 C   0  0  0  0  0  0  0  0  0  0  0  0
    8.7200    1.3460    1.7400 C   0  0  0  0  0  0  0  0  0  0  0  0
    9.1940    2.3960    1.0130 C   0  0  0  0  0  0  0  0  0  0  0  0
    8.5340    2.7620   -0.1310 C   0  0  0  0  0  0  0  0  0  0  0  0
    7.4070    2.1240   -0.5950 C   0  0  0  0  0  0  0  0  0  0  0  0
    6.9260    1.0560    0.1460 C   0  0  0  0  0  0  0  0  0  0  0  0
    5.8090    0.3560   -0.2350 C   0  0  0  0  0  0  0  0  0  0  0  0
    5.1220    0.6930   -1.3740 C   0  0  0  0  0  0  0  0  0  0  0  0
   -0.2190   -0.7300   -2.1170 N   0  0  0  0  0  0  0  0  0  0  0  0
   -1.1790   -0.5140   -1.1820 C   0  0  0  0  0  0  0  0  0  0  0  0
   -2.4630   -1.1920   -1.2590 C   0  0  0  0  0  0  0  0  0  0  0  0
   -3.4270   -0.9680   -0.3130 C   0  0  0  0  0  0  0  0  0  0  0  0
   -4.6620   -1.6000   -0.3570 C   0  0  0  0  0  0  0  0  0  0  0  0
   -5.6550   -1.3500    0.6220 N   0  0  0  0  0  0  0  0  0  0  0  0
   -6.8600   -2.1450    0.7460 C   0  0  0  0  0  0  0  0  0  0  0  0
   -7.9790   -1.3000    0.1560 C   0  0  0  0  0  0  0  0  0  0  0  0
   -7.7670    0.1650    0.5020 C   0  0  0  0  0  0  0  0  0  0  0  0
   -6.9370    0.2970    1.7640 C   0  0  2  0  0  0  0  0  0  0  0  0
   -6.8260    1.7770    2.0870 C   0  0  0  0  0  0  0  0  0  0  0  0
   -5.5300   -0.2500    1.5760 C   0  0  0  0  0  0  0  0  0  0  0  0
   -4.8780   -2.4670   -1.4000 C   0  0  0  0  0  0  0  0  0  0  0  0
   -3.9050   -2.6950   -2.3580 C   0  0  0  0  0  0  0  0  0  0  0  0
   -2.7180   -2.0470   -2.2610 N   0  0  0  0  0  0  0  0  0  0  0  0
   -0.8770    0.3490   -0.1930 N   0  0  0  0  0  0  0  0  0  0  0  0
  1  2  1  0
  2  3  2  0
  2 37  1  0
  3  4  1  0
  4  5  1  0
  4 22  2  0
  5  6  1  0
  6  7  1  0
  7  8  2  0
  7 21  1  0
  8  9  1  0
  9 10  2  0
 10 11  1  0
 10 20  1  0
 11 12  1  0
 12 13  2  0
 12 14  1  0
 14 15  2  0
 14 19  1  0
 15 16  1  0
 16 17  2  0
 17 18  1  0
 18 19  2  0
 19 20  1  0
 20 21  2  0
 22 23  1  0
 23 24  1  0
 23 37  2  0
 24 25  2  0
 24 36  1  0
 25 26  1  0
 26 27  1  0
 26 34  2  0
 27 28  1  0
 27 33  1  0
 28 29  1  0
 29 30  1  0
 30 31  1  0
 31 32  1  6
 31 33  1  0
 34 35  1  0
 35 36  2  0
M  END
