
     RDKit          3D

 37 42  0  0  0  0  0  0  0  0999 V2000
   -8.1830    0.0560   -0.4260 C   0  0  0  0  0  0  0  0  0  0  0  0
   -6.7050   -0.0050   -0.4060 C   0  0  0  0  0  0  0  0  0  0  0  0
   -6.0450   -1.1860   -0.4670 N   0  0  0  0  0  0  0  0  0  0  0  0
   -4.7240   -1.3100   -0.4540 C   0  0  0  0  0  0  0  0  0  0  0  0
   -3.8400   -2.3520   -0.5010 N   0  0  0  0  0  0  0  0  0  0  0  0
   -2.5970   -1.8680   -0.4500 C   0  0  0  0  0  0  0  0  0  0  0  0
   -1.3430   -2.6620   -0.4670 C   0  0  2  0  0  0  0  0  0  0  0  0
   -1.5590   -4.1410   -0.3190 C   0  0  0  0  0  0  0  0  0  0  0  0
   -1.4780   -4.6070    1.0970 C   0  0  0  0  0  0  0  0  0  0  0  0
   -1.7370   -3.5350    2.1300 C   0  0  0  0  0  0  0  0  0  0  0  0
   -0.9050   -2.2880    1.9110 C   0  0  0  0  0  0  0  0  0  0  0  0
   -0.4260   -2.1820    0.5730 N   0  0  0  0  0  0  0  0  0  0  0  0
    0.8730   -1.6490    0.2740 C   0  0  0  0  0  0  0  0  0  0  0  0
    1.5320   -1.2880    1.2710 O   0  0  0  0  0  0  0  0  0  0  0  0
    1.3790   -1.5390   -1.0730 C   0  0  0  0  0  0  0  0  0  0  0  0
    2.7600   -1.1750   -1.3770 C   0  0  0  0  0  0  0  0  0  0  0  0
    3.3160    0.1320   -0.9550 C   0  0  0  0  0  0  0  0  0  0  0  0
    3.4280    0.2810    0.4520 N   0  0  0  0  0  0  0  0  0  0  0  0
    4.4910   -0.5540    1.0120 C   0  0  0  0  0  0  0  0  0  0  0  0
    5.8420   -0.2180    0.4620 C   0  0  0  0  0  0  0  0  0  0  0  0
    5.9850    1.2410    0.3610 N   0  0  0  0  0  0  0  0  0  0  0  0
    4.9730    2.0850    0.5470 C   0  0  0  0  0  0  0  0  0  0  0  0
    5.4780    3.3430    0.3730 N   0  0  0  0  0  0  0  0  0  0  0  0
    6.7810    3.2580    0.0850 C   0  0  0  0  0  0  0  0  0  0  0  0
    7.7320    4.2180   -0.1740 C   0  0  0  0  0  0  0  0  0  0  0  0
    9.0140    3.8430   -0.4430 C   0  0  0  0  0  0  0  0  0  0  0  0
    9.3660    2.4920   -0.4570 C   0  0  0  0  0  0  0  0  0  0  0  0
    8.4220    1.5310   -0.1980 C   0  0  0  0  0  0  0  0  0  0  0  0
    7.1170    1.9190    0.0750 C   0  0  0  0  0  0  0  0  0  0  0  0
    3.5970    1.6560    0.8740 C   0  0  0  0  0  0  0  0  0  0  0  0
   -2.6850   -0.5070   -0.3710 N   0  0  0  0  0  0  0  0  0  0  0  0
   -3.9740   -0.1310   -0.3720 C   0  0  0  0  0  0  0  0  0  0  0  0
   -4.6370    1.0750   -0.3100 C   0  0  0  0  0  0  0  0  0  0  0  0
   -6.0180    1.1930   -0.3240 C   0  0  0  0  0  0  0  0  0  0  0  0
   -6.7360    2.4640   -0.2520 C   0  0  2  0  0  0  0  0  0  0  0  0
   -5.8070    3.6630   -0.3450 C   0  0  0  0  0  0  0  0  0  0  0  0
   -7.6290    2.6040    0.9520 C   0  0  0  0  0  0  0  0  0  0  0  0
  1  2  1  0
  2  3  2  0
  2 34  1  0
  3  4  1  0
  4  5  1  0
  4 32  2  0
  5  6  1  0
  7  6  1  1
  6 31  2  0
  7  8  1  0
  7 12  1  0
  8  9  1  0
  9 10  1  0
 10 11  1  0
 11 12  1  0
 12 13  1  0
 13 14  2  0
 13 15  1  0
 15 16  1  0
 16 17  1  0
 17 18  1  0
 18 19  1  0
 18 30  1  0
 19 20  1  0
 20 21  1  0
 21 22  1  0
 21 29  1  0
 22 23  2  0
 22 30  1  0
 23 24  1  0
 24 25  2  0
 24 29  1  0
 25 26  1  0
 26 27  2  0
 27 28  1  0
 28 29  2  0
 31 32  1  0
 32 33  1  0
 33 34  2  0
 34 35  1  0
 35 36  1  1
 35 37  1  0
M  END
