
     RDKit          3D

 32 35  0  0  0  0  0  0  0  0999 V2000
   -4.1120    5.5200    0.2350 C   0  0  0  0  0  0  0  0  0  0  0  0
   -3.5910    4.1270    0.3190 C   0  0  0  0  0  0  0  0  0  0  0  0
   -3.7650    3.3920    1.4730 C   0  0  0  0  0  0  0  0  0  0  0  0
   -3.3080    2.1010    1.6020 C   0  0  0  0  0  0  0  0  0  0  0  0
   -2.6530    1.5520    0.5070 C   0  0  0  0  0  0  0  0  0  0  0  0
   -2.1810    0.1770    0.6620 N   0  0  0  0  0  0  0  0  0  0  0  0
   -0.9440    0.1180    1.3800 C   0  0  0  0  0  0  0  0  0  0  0  0
    0.1720    0.8780    0.7220 C   0  0  0  0  0  0  0  0  0  0  0  0
    1.5650    0.3240    1.0500 C   0  0  0  0  0  0  0  0  0  0  0  0
    2.6070    0.7550    0.0830 C   0  0  1  0  0  0  0  0  0  0  0  0
    1.8880    1.3160   -1.0160 O   0  0  0  0  0  0  0  0  0  0  0  0
    3.3770    1.9820    0.6240 C   0  0  0  0  0  0  0  0  0  0  0  0
    4.7210    1.9200   -0.0450 C   0  0  1  0  0  0  0  0  0  0  0  0
    5.8110    2.3920    0.9240 C   0  0  0  0  0  0  0  0  0  0  0  0
    4.9870    0.5000   -0.3840 C   0  0  0  0  0  0  0  0  0  0  0  0
    3.6120   -0.1840   -0.4120 C   0  0  1  0  0  0  0  0  0  0  0  0
    3.7470   -1.5350    0.1480 C   0  0  0  0  0  0  0  0  0  0  0  0
    3.1810   -2.6600   -0.7750 C   0  0  0  0  0  0  0  0  0  0  0  0
    1.7000   -2.5510   -0.8050 C   0  0  0  0  0  0  0  0  0  0  0  0
    1.0570   -1.7260   -1.6940 C   0  0  0  0  0  0  0  0  0  0  0  0
   -0.3550   -1.5290   -1.7140 C   0  0  0  0  0  0  0  0  0  0  0  0
   -1.2300   -2.1560   -0.8320 C   0  0  0  0  0  0  0  0  0  0  0  0
   -0.5730   -2.9880    0.0590 C   0  0  0  0  0  0  0  0  0  0  0  0
    0.8390   -3.1770    0.0710 C   0  0  0  0  0  0  0  0  0  0  0  0
   -2.7160   -1.9040   -0.8370 C   0  0  1  0  0  0  0  0  0  0  0  0
   -3.6570   -3.0570   -0.6220 C   0  0  2  0  0  0  0  0  0  0  0  0
   -3.5290   -3.7750    0.6740 C   0  0  0  0  0  0  0  0  0  0  0  0
   -3.6880   -3.9850   -1.8140 C   0  0  0  0  0  0  0  0  0  0  0  0
   -3.0010   -0.8300    0.1440 C   0  0  0  0  0  0  0  0  0  0  0  0
   -4.2250   -0.8500    0.5790 O   0  0  0  0  0  0  0  0  0  0  0  0
   -2.4560    2.2330   -0.6530 C   0  0  0  0  0  0  0  0  0  0  0  0
   -2.9230    3.5230   -0.7530 C   0  0  0  0  0  0  0  0  0  0  0  0
  1  2  1  0
  2  3  2  0
  2 32  1  0
  3  4  1  0
  4  5  2  0
  5  6  1  0
  5 31  1  0
  6  7  1  0
  6 29  1  0
  7  8  1  0
  8  9  1  0
  9 10  1  0
 10 11  1  6
 10 12  1  0
 10 16  1  0
 12 13  1  0
 13 14  1  1
 13 15  1  0
 16 15  1  1
 16 17  1  0
 17 18  1  0
 18 19  1  0
 19 20  2  0
 19 24  1  0
 20 21  1  0
 21 22  2  0
 22 23  1  0
 22 25  1  0
 23 24  2  0
 25 26  1  0
 25 29  1  1
 26 27  1  1
 26 28  1  0
 29 30  2  0
 31 32  2  0
M  END
