
     RDKit          3D

 32 33  0  0  0  0  0  0  0  0999 V2000
   -6.4710   -0.3480    0.6820 C   0  0  0  0  0  0  0  0  0  0  0  0
   -5.1880   -0.9930    0.8500 N   0  0  0  0  0  0  0  0  0  0  0  0
   -4.1970   -0.9060   -0.1870 C   0  0  0  0  0  0  0  0  0  0  0  0
   -4.5610   -0.2310   -1.2150 O   0  0  0  0  0  0  0  0  0  0  0  0
   -2.9200   -1.5030   -0.1200 C   0  0  2  0  0  0  0  0  0  0  0  0
   -2.9670   -2.3790    1.1080 N   0  0  0  0  0  0  0  0  0  0  0  0
   -1.6580   -0.8090    0.0090 C   0  0  0  0  0  0  0  0  0  0  0  0
   -1.4690    0.4460    0.2300 C   0  0  0  0  0  0  0  0  0  0  0  0
   -2.5360    1.4240    0.3950 C   0  0  0  0  0  0  0  0  0  0  0  0
   -2.5280    2.5180   -0.6510 C   0  0  0  0  0  0  0  0  0  0  0  0
   -2.6560    2.0730   -1.9970 N   0  0  0  0  0  0  0  0  0  0  0  0
   -0.1360    0.9840    0.3360 O   0  0  0  0  0  0  0  0  0  0  0  0
    0.9880    0.2230    0.2150 C   0  0  0  0  0  0  0  0  0  0  0  0
    2.1770    0.7710    0.3210 C   0  0  0  0  0  0  0  0  0  0  0  0
    2.3490    2.2240    0.5740 C   0  0  1  0  0  0  0  0  0  0  0  0
    3.3120    2.7720   -0.3550 N   0  0  0  0  0  0  0  0  0  0  0  0
    3.7750    4.1020   -0.1900 C   0  0  0  0  0  0  0  0  0  0  0  0
    4.9710    4.4350   -0.4280 O   0  0  0  0  0  0  0  0  0  0  0  0
    2.8220    5.0720    0.2630 N   0  0  0  0  0  0  0  0  0  0  0  0
    1.1610    4.5480    0.1530 S   0  0  1  0  0  0  0  0  0  0  0  0
    0.3680    5.3900    1.0890 O   0  0  0  0  0  0  0  0  0  0  0  0
    0.6240    4.7730   -1.2400 O   0  0  0  0  0  0  0  0  0  0  0  0
    1.0540    2.8580    0.5140 N   0  0  0  0  0  0  0  0  0  0  0  0
    0.7870   -1.2040   -0.0340 C   0  0  0  0  0  0  0  0  0  0  0  0
    1.9290   -1.9850   -0.1570 O   0  0  0  0  0  0  0  0  0  0  0  0
    2.0690   -2.6750   -1.3860 C   0  0  0  0  0  0  0  0  0  0  0  0
    3.3300   -3.4760   -1.3980 C   0  0  0  0  0  0  0  0  0  0  0  0
    3.6630   -4.1710   -2.3890 O   0  0  0  0  0  0  0  0  0  0  0  0
    4.1640   -3.4450   -0.2560 N   0  0  0  0  0  0  0  0  0  0  0  0
    5.3870   -4.2320   -0.2890 C   0  0  0  0  0  0  0  0  0  0  0  0
    6.0540   -4.0280    0.9860 N   0  0  0  0  0  0  0  0  0  0  0  0
   -0.4230   -1.6660   -0.1260 C   0  0  0  0  0  0  0  0  0  0  0  0
  1  2  1  0
  2  3  1  0
  3  4  2  0
  3  5  1  0
  5  6  1  1
  5  7  1  0
  7  8  2  0
  7 32  1  0
  8  9  1  0
  8 12  1  0
  9 10  1  0
 10 11  1  0
 12 13  1  0
 13 14  2  3
 13 24  1  0
 15 14  1  6
 15 16  1  0
 15 23  1  0
 16 17  1  0
 17 18  2  0
 17 19  1  0
 20 19  1  6
 20 21  2  0
 20 22  2  0
 20 23  1  0
 24 25  1  0
 24 32  2  0
 25 26  1  0
 26 27  1  0
 27 28  2  0
 27 29  1  0
 29 30  1  0
 30 31  1  0
M  CHG  2   6   1  11   1
M  END
