
     RDKit          3D

 32 33  0  0  0  0  0  0  0  0999 V2000
    1.7910    3.2590    1.1140 C   0  0  0  0  0  0  0  0  0  0  0  0
    0.9820    2.1740    0.3810 C   0  0  0  0  0  0  0  0  0  0  0  0
   -0.0530    2.6120   -0.0760 O   0  0  0  0  0  0  0  0  0  0  0  0
    1.5850    0.8720    0.3720 C   0  0  0  0  0  0  0  0  0  0  0  0
    1.0480   -0.1810   -0.1930 C   0  0  0  0  0  0  0  0  0  0  0  0
   -0.1850   -0.3000   -0.8960 C   0  0  0  0  0  0  0  0  0  0  0  0
   -0.4300   -1.5040   -1.3440 O   0  0  0  0  0  0  0  0  0  0  0  0
   -1.2130    0.5620   -1.2290 N   0  0  0  0  0  0  0  0  0  0  0  0
   -2.4010    0.0900   -2.0010 C   0  0  2  0  0  0  0  0  0  0  0  0
   -2.3610    0.8020   -3.2990 C   0  0  0  0  0  0  0  0  0  0  0  0
   -1.2930    1.3370   -3.6660 O   0  0  0  0  0  0  0  0  0  0  0  0
   -3.5450    0.8570   -4.0960 N   0  0  0  0  0  0  0  0  0  0  0  0
   -4.7850    0.6960   -3.4320 C   0  0  0  0  0  0  0  0  0  0  0  0
   -6.0480    0.7520   -4.2720 C   0  0  0  0  0  0  0  0  0  0  0  0
   -5.9950   -0.2510   -5.2110 O   0  0  0  0  0  0  0  0  0  0  0  0
   -4.8620    0.5050   -2.1410 C   0  0  0  0  0  0  0  0  0  0  0  0
   -3.6650    0.4450   -1.2870 C   0  0  1  0  0  0  0  0  0  0  0  0
   -3.9150   -0.3730   -0.1050 N   0  0  0  0  0  0  0  0  0  0  0  0
   -3.9750    0.5140    1.3480 S   0  0  1  0  0  0  0  0  0  0  0  0
   -4.2360    1.9670    0.9700 O   0  0  0  0  0  0  0  0  0  0  0  0
   -5.0850    0.0270    2.2510 O   0  0  0  0  0  0  0  0  0  0  0  0
   -2.4690    0.4680    2.1380 N   0  0  0  0  0  0  0  0  0  0  0  0
   -2.3680   -0.6560    3.0650 C   0  0  0  0  0  0  0  0  0  0  0  0
   -1.1280   -0.6670    3.6940 O   0  0  0  0  0  0  0  0  0  0  0  0
    1.8460   -1.4150   -0.0790 N   0  0  0  0  0  0  0  0  0  0  0  0
    3.0600   -1.4780    0.5660 N   0  0  0  0  0  0  0  0  0  0  0  0
    3.5990   -0.4600    1.1230 C   0  0  0  0  0  0  0  0  0  0  0  0
    4.8830   -0.5850    1.7900 C   0  0  1  0  0  0  0  0  0  0  0  0
    5.3600   -2.0180    1.6920 C   0  0  0  0  0  0  0  0  0  0  0  0
    5.9560    0.3230    1.2700 C   0  0  0  0  0  0  0  0  0  0  0  0
    7.2120    0.1630    1.9620 N   0  0  0  0  0  0  0  0  0  0  0  0
    2.8620    0.7290    1.0300 N   0  0  0  0  0  0  0  0  0  0  0  0
  1  2  1  0
  2  3  2  0
  2  4  1  0
  4  5  2  0
  4 32  1  0
  5  6  1  0
  5 25  1  0
  6  7  2  0
  6  8  1  0
  9  8  1  1
  9 10  1  0
  9 17  1  0
 10 11  2  0
 10 12  1  0
 12 13  1  0
 13 14  1  0
 13 16  2  0
 14 15  1  0
 16 17  1  0
 17 18  1  1
 19 18  1  6
 19 20  2  0
 19 21  2  0
 19 22  1  0
 22 23  1  0
 23 24  1  0
 25 26  1  0
 26 27  2  0
 27 28  1  0
 27 32  1  0
 28 29  1  6
 28 30  1  0
 30 31  1  0
M  CHG  1  31   1
M  END
