
     RDKit          3D

 32 33  0  0  0  0  0  0  0  0999 V2000
    3.5570    1.3590    2.1020 C   0  0  0  0  0  0  0  0  0  0  0  0
    4.0090    1.1180    0.6630 C   0  0  1  0  0  0  0  0  0  0  0  0
    4.8900    2.2920    0.3100 C   0  0  0  0  0  0  0  0  0  0  0  0
    5.9380    2.4180    1.3130 N   0  0  0  0  0  0  0  0  0  0  0  0
    4.8230   -0.0400    0.6760 O   0  0  0  0  0  0  0  0  0  0  0  0
    5.4200   -0.5650   -0.4590 C   0  0  0  0  0  0  0  0  0  0  0  0
    5.2280    0.0160   -1.5490 O   0  0  0  0  0  0  0  0  0  0  0  0
    6.2610   -1.7740   -0.4110 C   0  0  0  0  0  0  0  0  0  0  0  0
    6.8400   -2.3290   -1.4730 C   0  0  0  0  0  0  0  0  0  0  0  0
    7.5610   -3.4500   -1.0910 O   0  0  0  0  0  0  0  0  0  0  0  0
    7.7910   -3.3960    0.3140 C   0  0  0  0  0  0  0  0  0  0  0  0
    6.6340   -2.5620    0.7020 N   0  0  0  0  0  0  0  0  0  0  0  0
    2.8690    1.0330   -0.2500 C   0  0  0  0  0  0  0  0  0  0  0  0
    2.1820    2.0920   -0.4870 O   0  0  0  0  0  0  0  0  0  0  0  0
    2.4540   -0.1410   -0.9060 N   0  0  0  0  0  0  0  0  0  0  0  0
    1.3730   -0.1820   -1.7950 N   0  0  0  0  0  0  0  0  0  0  0  0
    0.0240   -0.1020   -1.3840 C   0  0  0  0  0  0  0  0  0  0  0  0
   -0.2690    0.0120   -0.1460 O   0  0  0  0  0  0  0  0  0  0  0  0
   -1.0590   -0.1430   -2.2920 N   0  0  0  0  0  0  0  0  0  0  0  0
   -2.4090   -0.0710   -1.9180 N   0  0  0  0  0  0  0  0  0  0  0  0
   -2.8560    1.0390   -1.1650 C   0  0  0  0  0  0  0  0  0  0  0  0
   -1.9680    1.9300   -0.8740 O   0  0  0  0  0  0  0  0  0  0  0  0
   -4.2240    1.2730   -0.6890 C   0  0  0  0  0  0  0  0  0  0  0  0
   -5.1400    0.2550   -1.0400 N   0  0  0  0  0  0  0  0  0  0  0  0
   -6.1010   -0.0960    0.0040 C   0  0  1  0  0  0  0  0  0  0  0  0
   -5.4330   -0.6550    1.1810 C   0  0  0  0  0  0  0  0  0  0  0  0
   -6.1420   -1.2250    2.2860 N   0  0  0  0  0  0  0  0  0  0  0  0
   -4.1770   -0.6650    1.2790 O   0  0  0  0  0  0  0  0  0  0  0  0
   -6.9260    1.1190    0.2920 C   0  0  0  0  0  0  0  0  0  0  0  0
   -8.0630    0.7240    1.2060 C   0  0  0  0  0  0  0  0  0  0  0  0
   -8.4460   -0.9600    0.5720 S   0  0  0  0  0  0  0  0  0  0  0  0
   -7.0480   -1.1600   -0.5710 C   0  0  0  0  0  0  0  0  0  0  0  0
  2  1  1  1
  2  3  1  0
  2  5  1  0
  2 13  1  0
  3  4  1  0
  5  6  1  0
  6  7  2  0
  6  8  1  0
  8  9  2  0
  8 12  1  0
  9 10  1  0
 10 11  1  0
 11 12  1  0
 13 14  2  0
 13 15  1  0
 15 16  1  0
 16 17  1  0
 17 18  2  0
 17 19  1  0
 19 20  1  0
 20 21  1  0
 21 22  2  0
 21 23  1  0
 23 24  1  0
 25 24  1  6
 25 26  1  0
 25 29  1  0
 25 32  1  0
 26 27  1  0
 26 28  2  0
 29 30  1  0
 30 31  1  0
 31 32  1  0
M  CHG  2   4   1  24   1
M  END
