
     RDKit          3D

 32 33  0  0  0  0  0  0  0  0999 V2000
   -2.3760   -4.9130   -1.5000 C   0  0  0  0  0  0  0  0  0  0  0  0
   -2.4480   -3.7530   -0.4570 C   0  0  2  0  0  0  0  0  0  0  0  0
   -3.5370   -4.2000    0.4690 N   0  0  0  0  0  0  0  0  0  0  0  0
   -2.9040   -2.5090   -1.1270 C   0  0  0  0  0  0  0  0  0  0  0  0
   -2.6610   -1.2690   -0.7290 C   0  0  0  0  0  0  0  0  0  0  0  0
   -1.9170   -0.7530    0.3760 C   0  0  0  0  0  0  0  0  0  0  0  0
   -1.7240    0.4210    0.8000 C   0  0  0  0  0  0  0  0  0  0  0  0
   -2.0440    1.7670    0.4800 C   0  0  0  0  0  0  0  0  0  0  0  0
   -2.6800    2.2710   -0.5100 N   0  0  0  0  0  0  0  0  0  0  0  0
   -2.7770    3.7110   -0.4440 C   0  0  0  0  0  0  0  0  0  0  0  0
   -2.7190    3.8630    1.0840 C   0  0  2  0  0  0  0  0  0  0  0  0
   -2.2360    5.1720    1.4960 C   0  0  0  0  0  0  0  0  0  0  0  0
   -3.0080    6.3440    1.3690 N   0  0  0  0  0  0  0  0  0  0  0  0
   -1.0730    5.3340    2.0040 O   0  0  0  0  0  0  0  0  0  0  0  0
   -1.6660    2.9010    1.3090 O   0  0  0  0  0  0  0  0  0  0  0  0
   -1.2190   -1.7960    1.1420 O   0  0  0  0  0  0  0  0  0  0  0  0
    0.0980   -2.0230    0.7520 C   0  0  0  0  0  0  0  0  0  0  0  0
    1.0670   -0.9650    0.8640 C   0  0  0  0  0  0  0  0  0  0  0  0
    0.9620    0.1760    1.3460 O   0  0  0  0  0  0  0  0  0  0  0  0
    2.4350   -1.1910    0.3400 N   0  0  0  0  0  0  0  0  0  0  0  0
    3.3170   -0.1360    0.4670 N   0  0  0  0  0  0  0  0  0  0  0  0
    4.6180   -0.2770    0.9690 C   0  0  0  0  0  0  0  0  0  0  0  0
    4.9380   -1.4730    1.3120 O   0  0  0  0  0  0  0  0  0  0  0  0
    5.6200    0.7730    1.1350 C   0  0  1  0  0  0  0  0  0  0  0  0
    6.7500    0.2440    2.0380 C   0  0  0  0  0  0  0  0  0  0  0  0
    6.1850    1.2590   -0.1560 C   0  0  0  0  0  0  0  0  0  0  0  0
    5.1670    1.8190   -0.9880 N   0  0  0  0  0  0  0  0  0  0  0  0
   -3.6590   -0.2750   -1.8120 S   0  0  2  0  0  0  0  0  0  0  0  0
   -2.8760    0.4190   -2.8280 O   0  0  0  0  0  0  0  0  0  0  0  0
   -4.6530    0.5050   -1.0200 O   0  0  0  0  0  0  0  0  0  0  0  0
   -4.5510   -1.6200   -2.5540 N   0  0  0  0  0  0  0  0  0  0  0  0
   -3.6320   -2.6120   -2.3460 N   0  0  0  0  0  0  0  0  0  0  0  0
  2  1  1  6
  2  3  1  0
  2  4  1  0
  4  5  2  0
  4 32  1  0
  5  6  1  0
  5 28  1  0
  6  7  2  3
  6 16  1  0
  7  8  1  0
  8  9  2  0
  8 15  1  0
  9 10  1  0
 10 11  1  0
 11 12  1  6
 11 15  1  0
 12 13  1  0
 12 14  2  0
 16 17  1  0
 17 18  1  0
 18 19  2  0
 18 20  1  0
 20 21  1  0
 21 22  1  0
 22 23  2  0
 22 24  1  0
 24 25  1  1
 24 26  1  0
 26 27  1  0
 28 29  2  0
 28 30  2  0
 28 31  1  6
 31 32  1  0
M  CHG  2   3   1  27   1
M  END
