
     RDKit          3D

 32 35  0  0  0  0  0  0  0  0999 V2000
    0.9690    4.2690    2.4870 C   0  0  0  0  0  0  0  0  0  0  0  0
    1.3030    2.7950    2.4470 C   0  0  0  0  0  0  0  0  0  0  0  0
    1.0810    2.2940    1.0500 C   0  0  2  0  0  0  0  0  0  0  0  0
   -0.3380    2.4470    0.5640 C   0  0  0  0  0  0  0  0  0  0  0  0
   -1.3580    2.3270    1.6370 C   0  0  0  0  0  0  0  0  0  0  0  0
   -2.4630    1.6290    1.6450 C   0  0  0  0  0  0  0  0  0  0  0  0
   -3.0340    0.7590    0.6170 C   0  0  2  0  0  0  0  0  0  0  0  0
   -2.1700   -0.4360    0.2960 C   0  0  0  0  0  0  0  0  0  0  0  0
   -3.0850   -1.5240   -0.2940 C   0  0  1  0  0  0  0  0  0  0  0  0
   -3.6950   -0.9290   -1.5390 C   0  0  0  0  0  0  0  0  0  0  0  0
   -4.3140    0.4040   -1.3850 C   0  0  2  0  0  0  0  0  0  0  0  0
   -5.6350    0.3370   -0.6560 C   0  0  0  0  0  0  0  0  0  0  0  0
   -4.5800    0.9740   -2.7630 C   0  0  0  0  0  0  0  0  0  0  0  0
   -3.4090    1.4130   -0.6760 C   0  0  0  0  0  0  0  0  0  0  0  0
   -2.2780   -2.5990   -0.7510 O   0  0  0  0  0  0  0  0  0  0  0  0
   -0.8510   -2.6200   -0.6670 C   0  0  0  0  0  0  0  0  0  0  0  0
   -0.0340   -2.1330   -1.6630 C   0  0  0  0  0  0  0  0  0  0  0  0
    1.3500   -2.1470   -1.5950 C   0  0  0  0  0  0  0  0  0  0  0  0
    2.0680   -2.6580   -0.5080 C   0  0  0  0  0  0  0  0  0  0  0  0
    1.2220   -3.1510    0.5070 C   0  0  0  0  0  0  0  0  0  0  0  0
   -0.1640   -3.1250    0.4120 C   0  0  0  0  0  0  0  0  0  0  0  0
    3.5770   -2.6700   -0.4040 C   0  0  0  0  0  0  0  0  0  0  0  0
    4.4710   -3.6730   -0.8580 C   0  0  0  0  0  0  0  0  0  0  0  0
    5.8060   -3.6430   -0.7070 C   0  0  0  0  0  0  0  0  0  0  0  0
    6.3830   -2.5900   -0.0770 C   0  0  0  0  0  0  0  0  0  0  0  0
    5.6050   -1.5880    0.3880 C   0  0  0  0  0  0  0  0  0  0  0  0
    4.2250   -1.5880    0.2470 C   0  0  0  0  0  0  0  0  0  0  0  0
    3.5690   -0.4690    0.8010 N   0  0  0  0  0  0  0  0  0  0  0  0
    2.8580    0.6500    0.1860 C   0  0  1  0  0  0  0  0  0  0  0  0
    2.9020    0.7350   -1.2800 C   0  0  0  0  0  0  0  0  0  0  0  0
    1.5590    0.9070    0.8380 C   0  0  0  0  0  0  0  0  0  0  0  0
    0.8810   -0.0110    1.2030 O   0  0  0  0  0  0  0  0  0  0  0  0
  1  2  1  0
  3  2  1  1
  3  4  1  0
  3 31  1  0
  4  5  1  0
  5  6  2  0
  6  7  1  0
  7  8  1  0
  7 14  1  6
  8  9  1  0
  9 10  1  6
  9 15  1  0
 10 11  1  0
 11 12  1  1
 11 13  1  0
 11 14  1  0
 15 16  1  0
 16 17  2  0
 16 21  1  0
 17 18  1  0
 18 19  2  0
 19 20  1  0
 19 22  1  0
 20 21  2  0
 22 23  2  0
 22 27  1  0
 23 24  1  0
 24 25  2  0
 25 26  1  0
 26 27  2  0
 27 28  1  0
 28 29  1  0
 29 30  1  6
 29 31  1  0
 31 32  2  0
M  END
