
     RDKit          3D

 22 23  0  0  0  0  0  0  0  0999 V2000
   -2.3920   -2.2870    0.5980 C   0  0  0  0  0  0  0  0  0  0  0  0
   -2.9070   -0.8690    0.6110 C   0  0  1  0  0  0  0  0  0  0  0  0
   -3.3450   -0.6150    2.0630 C   0  0  0  0  0  0  0  0  0  0  0  0
   -1.8570    0.0280    0.3450 N   0  0  0  0  0  0  0  0  0  0  0  0
   -1.1650    0.0030   -0.9160 C   0  0  0  0  0  0  0  0  0  0  0  0
    0.0260    0.5230   -0.1360 C   0  0  2  0  0  0  0  0  0  0  0  0
   -0.0630    1.8200    0.2810 O   0  0  0  0  0  0  0  0  0  0  0  0
   -0.2060    2.7690   -0.7070 C   0  0  2  0  0  0  0  0  0  0  0  0
    0.4690    4.0590   -0.4530 C   0  0  0  0  0  0  0  0  0  0  0  0
    1.6340    4.4610   -0.6090 O   0  0  0  0  0  0  0  0  0  0  0  0
   -0.7510    4.6000    0.0240 N   0  0  0  0  0  0  0  0  0  0  0  0
   -1.5000    3.5010   -0.4580 C   0  0  0  0  0  0  0  0  0  0  0  0
   -2.7190    3.2780   -0.5980 O   0  0  0  0  0  0  0  0  0  0  0  0
    1.3340    0.0410   -0.5530 C   0  0  0  0  0  0  0  0  0  0  0  0
    2.3100    0.8300   -0.5170 O   0  0  0  0  0  0  0  0  0  0  0  0
    1.5450   -1.2420   -0.9850 O   0  0  0  0  0  0  0  0  0  0  0  0
    2.7970   -1.7560   -1.4000 C   0  0  0  0  0  0  0  0  0  0  0  0
    3.7040   -1.6470   -0.3070 O   0  0  0  0  0  0  0  0  0  0  0  0
    5.0270   -2.0730   -0.4120 C   0  0  0  0  0  0  0  0  0  0  0  0
    5.3650   -2.5570   -1.5260 O   0  0  0  0  0  0  0  0  0  0  0  0
    5.9180   -1.9720    0.6430 O   0  0  0  0  0  0  0  0  0  0  0  0
   -0.6090   -0.3740    0.9480 C   0  0  0  0  0  0  0  0  0  0  0  0
  2  1  1  1
  2  3  1  0
  2  4  1  0
  4  5  1  0
  4 22  1  0
  5  6  1  0
  6  7  1  1
  6 14  1  0
  6 22  1  0
  8  7  1  1
  8  9  1  0
  8 12  1  0
  9 10  2  0
  9 11  1  0
 11 12  1  0
 12 13  2  0
 14 15  2  0
 14 16  1  0
 16 17  1  0
 17 18  1  0
 18 19  1  0
 19 20  2  0
 19 21  1  0
M  END
