
     RDKit          3D

 22 22  0  0  0  0  0  0  0  0999 V2000
    4.7130    0.7990   -0.2910 C   0  0  0  0  0  0  0  0  0  0  0  0
    3.9640    1.2740   -1.2610 C   0  0  0  0  0  0  0  0  0  0  0  0
    4.5740    2.0310   -2.3560 C   0  0  0  0  0  0  0  0  0  0  0  0
    3.8800    2.4940   -3.2920 O   0  0  0  0  0  0  0  0  0  0  0  0
    5.9400    2.2660   -2.4000 O   0  0  0  0  0  0  0  0  0  0  0  0
    2.5240    1.0650   -1.2790 C   0  0  0  0  0  0  0  0  0  0  0  0
    1.7960    1.5130   -2.1990 O   0  0  0  0  0  0  0  0  0  0  0  0
    1.9480    0.3490   -0.2430 O   0  0  0  0  0  0  0  0  0  0  0  0
    0.5380    0.1130   -0.2080 C   0  0  0  0  0  0  0  0  0  0  0  0
   -0.0650    0.6020   -1.1650 O   0  0  0  0  0  0  0  0  0  0  0  0
   -0.0660   -0.6180    0.8450 C   0  0  0  0  0  0  0  0  0  0  0  0
   -1.2600   -0.9990    1.1180 C   0  0  0  0  0  0  0  0  0  0  0  0
   -2.5190   -0.9110    0.5590 N   0  0  0  0  0  0  0  0  0  0  0  0
   -3.7030   -1.2190    1.3940 C   0  0  0  0  0  0  0  0  0  0  0  0
   -4.6670   -0.0910    1.4990 C   0  0  0  0  0  0  0  0  0  0  0  0
   -4.5930    0.8420    0.4150 N   0  0  0  0  0  0  0  0  0  0  0  0
   -3.9990    0.4930   -0.8260 C   0  0  0  0  0  0  0  0  0  0  0  0
   -4.4140    0.9680   -1.8880 O   0  0  0  0  0  0  0  0  0  0  0  0
   -2.8630   -0.4700   -0.7380 C   0  0  0  0  0  0  0  0  0  0  0  0
   -2.2810   -0.8430   -1.7700 O   0  0  0  0  0  0  0  0  0  0  0  0
    0.8990   -1.0420    1.8650 O   0  0  0  0  0  0  0  0  0  0  0  0
    1.7070   -2.1290    1.3880 C   0  0  0  0  0  0  0  0  0  0  0  0
  1  2  2  0
  2  3  1  0
  2  6  1  0
  3  4  2  0
  3  5  1  0
  6  7  2  0
  6  8  1  0
  8  9  1  0
  9 10  2  0
  9 11  1  0
 11 12  2  3
 11 21  1  0
 12 13  1  0
 13 14  1  0
 13 19  1  0
 14 15  1  0
 15 16  1  0
 16 17  1  0
 17 18  2  0
 17 19  1  0
 19 20  2  0
 21 22  1  0
M  END
