
     RDKit          3D

 22 22  0  0  0  0  0  0  0  0999 V2000
   -4.7110    1.6890   -1.4130 C   0  0  0  0  0  0  0  0  0  0  0  0
   -4.3150    1.0990   -0.3150 C   0  0  0  0  0  0  0  0  0  0  0  0
   -5.2440    0.8380    0.7570 C   0  0  0  0  0  0  0  0  0  0  0  0
   -6.4630    1.1470    0.7180 O   0  0  0  0  0  0  0  0  0  0  0  0
   -4.8190    0.2080    1.9260 O   0  0  0  0  0  0  0  0  0  0  0  0
   -2.9290    0.7050   -0.1770 C   0  0  0  0  0  0  0  0  0  0  0  0
   -2.0880    0.9220   -1.1050 O   0  0  0  0  0  0  0  0  0  0  0  0
   -2.4750    0.0730    0.9820 O   0  0  0  0  0  0  0  0  0  0  0  0
   -1.1140   -0.3090    1.1080 C   0  0  0  0  0  0  0  0  0  0  0  0
   -0.3570   -0.0400    0.1100 N   0  0  0  0  0  0  0  0  0  0  0  0
    1.0230   -0.3650    0.0990 C   0  0  0  0  0  0  0  0  0  0  0  0
    1.7950   -0.0980   -0.9030 N   0  0  0  0  0  0  0  0  0  0  0  0
    3.1590   -0.4720   -0.7980 C   0  0  0  0  0  0  0  0  0  0  0  0
    4.0320    0.3990   -0.3840 C   0  0  0  0  0  0  0  0  0  0  0  0
    3.6300    1.7820   -0.0170 C   0  0  0  0  0  0  0  0  0  0  0  0
    3.9540    2.0310    1.3260 O   0  0  0  0  0  0  0  0  0  0  0  0
    3.5400   -1.7610   -1.1390 O   0  0  0  0  0  0  0  0  0  0  0  0
    2.6610   -2.6540   -1.8000 C   0  0  0  0  0  0  0  0  0  0  0  0
    1.5090   -1.0330    1.3190 C   0  0  0  0  0  0  0  0  0  0  0  0
    2.7410   -1.3320    1.3300 O   0  0  0  0  0  0  0  0  0  0  0  0
    0.6560   -1.2890    2.3390 O   0  0  0  0  0  0  0  0  0  0  0  0
   -0.6890   -0.9730    2.3530 C   0  0  0  0  0  0  0  0  0  0  0  0
  1  2  2  0
  2  3  1  0
  2  6  1  0
  3  4  2  0
  3  5  1  0
  6  7  2  0
  6  8  1  0
  8  9  1  0
  9 10  2  0
  9 22  1  0
 10 11  1  0
 11 12  2  3
 11 19  1  0
 12 13  1  0
 13 14  2  3
 13 17  1  0
 14 15  1  0
 15 16  1  0
 17 18  1  0
 19 20  2  0
 19 21  1  0
 21 22  1  0
M  END
