
     RDKit          3D

 22 22  0  0  0  0  0  0  0  0999 V2000
    3.4130   -0.6820    0.5520 O   0  0  0  0  0  0  0  0  0  0  0  0
    3.5210    0.0380   -0.4690 C   0  0  0  0  0  0  0  0  0  0  0  0
    4.8710    0.5100   -0.8450 C   0  0  0  0  0  0  0  0  0  0  0  0
    5.8690    0.0290    0.0810 N   0  0  0  0  0  0  0  0  0  0  0  0
    6.6170   -1.1740    0.0130 C   0  0  0  0  0  0  0  0  0  0  0  0
    6.3670   -2.1750   -0.6840 O   0  0  0  0  0  0  0  0  0  0  0  0
    7.7710   -1.0090    0.9450 C   0  0  0  0  0  0  0  0  0  0  0  0
    7.2480   -0.0730    1.8680 O   0  0  0  0  0  0  0  0  0  0  0  0
    6.2810    0.7230    1.2700 C   0  0  0  0  0  0  0  0  0  0  0  0
    5.8260    1.8330    1.6520 O   0  0  0  0  0  0  0  0  0  0  0  0
    2.3800    0.3540   -1.1890 O   0  0  0  0  0  0  0  0  0  0  0  0
    1.1090   -0.0910   -0.8330 C   0  0  0  0  0  0  0  0  0  0  0  0
    1.0130   -0.8200    0.2040 O   0  0  0  0  0  0  0  0  0  0  0  0
   -0.0550    0.2240   -1.5570 N   0  0  0  0  0  0  0  0  0  0  0  0
   -1.3260   -0.2690   -1.1330 C   0  0  0  0  0  0  0  0  0  0  0  0
   -2.3240    0.5100   -0.8090 C   0  0  0  0  0  0  0  0  0  0  0  0
   -3.6120   -0.0570   -0.3780 C   0  0  0  0  0  0  0  0  0  0  0  0
   -3.8800    0.4490    1.0280 C   0  0  0  0  0  0  0  0  0  0  0  0
   -5.1820   -0.0720    1.5740 C   0  0  0  0  0  0  0  0  0  0  0  0
   -6.3650    0.3400    0.7380 C   0  0  0  0  0  0  0  0  0  0  0  0
   -7.5040   -0.2150    1.3650 O   0  0  0  0  0  0  0  0  0  0  0  0
   -8.5370    0.1430    0.6360 O   0  0  0  0  0  0  0  0  0  0  0  0
  1  2  2  0
  2  3  1  0
  2 11  1  0
  3  4  1  0
  4  5  1  0
  4  9  1  0
  5  6  2  0
  5  7  1  0
  7  8  1  0
  8  9  1  0
  9 10  2  0
 11 12  1  0
 12 13  2  0
 12 14  1  0
 14 15  1  0
 15 16  2  3
 16 17  1  0
 17 18  1  0
 18 19  1  0
 19 20  1  0
 20 21  1  0
 21 22  1  0
M  END
