
     RDKit          3D

 22 23  0  0  0  0  0  0  0  0999 V2000
   -6.2470   -1.3320   -1.6470 C   0  0  0  0  0  0  0  0  0  0  0  0
   -4.8860   -1.6460   -1.7450 O   0  0  0  0  0  0  0  0  0  0  0  0
   -4.0530   -1.0460   -0.7960 C   0  0  0  0  0  0  0  0  0  0  0  0
   -4.4280   -0.2430    0.2400 C   0  0  0  0  0  0  0  0  0  0  0  0
   -3.3000    0.1690    0.8880 N   0  0  0  0  0  0  0  0  0  0  0  0
   -2.2610   -0.4090    0.2030 C   0  0  0  0  0  0  0  0  0  0  0  0
   -0.9160    0.0030    0.5640 C   0  0  1  0  0  0  0  0  0  0  0  0
    0.1990   -0.7970    0.0160 C   0  0  0  0  0  0  0  0  0  0  0  0
    0.2020   -1.7770   -0.7060 O   0  0  0  0  0  0  0  0  0  0  0  0
    1.4520   -0.2830    0.4310 O   0  0  0  0  0  0  0  0  0  0  0  0
    2.6040   -0.9000   -0.0320 C   0  0  0  0  0  0  0  0  0  0  0  0
    3.7950   -0.2540    0.4880 O   0  0  0  0  0  0  0  0  0  0  0  0
    4.9380   -0.4930   -0.0210 C   0  0  0  0  0  0  0  0  0  0  0  0
    4.9990   -1.2700   -1.0960 O   0  0  0  0  0  0  0  0  0  0  0  0
    6.3350   -0.0380    0.3960 C   0  0  0  0  0  0  0  0  0  0  0  0
    6.6840    0.8140   -0.6940 O   0  0  0  0  0  0  0  0  0  0  0  0
    7.8090    0.3640   -1.3400 O   0  0  0  0  0  0  0  0  0  0  0  0
   -0.7690    1.4930    0.0820 C   0  0  0  0  0  0  0  0  0  0  0  0
   -1.2860    2.2080    1.3150 C   0  0  0  0  0  0  0  0  0  0  0  0
   -1.5950    1.2500    2.2530 O   0  0  0  0  0  0  0  0  0  0  0  0
   -0.7350    0.1880    2.0280 C   0  0  0  0  0  0  0  0  0  0  0  0
   -2.7310   -1.1300   -0.7820 N   0  0  0  0  0  0  0  0  0  0  0  0
  1  2  1  0
  2  3  1  0
  3  4  2  0
  3 22  1  0
  4  5  1  0
  5  6  2  0
  6  7  1  0
  6 22  1  0
  7  8  1  6
  7 18  1  0
  7 21  1  0
  8  9  2  0
  8 10  1  0
 10 11  1  0
 11 12  1  0
 12 13  1  0
 13 14  2  0
 13 15  1  0
 15 16  1  0
 16 17  1  0
 18 19  1  0
 19 20  1  0
 20 21  1  0
M  END
