
     RDKit          3D

 22 23  0  0  0  0  0  0  0  0999 V2000
    5.3160    2.8320    0.0830 O   0  0  0  0  0  0  0  0  0  0  0  0
    5.9610    1.8390    0.5090 C   0  0  0  0  0  0  0  0  0  0  0  0
    7.2530    1.9930    0.9460 O   0  0  0  0  0  0  0  0  0  0  0  0
    5.2980    0.6200    0.5060 O   0  0  0  0  0  0  0  0  0  0  0  0
    3.9570    0.4930    0.0450 C   0  0  0  0  0  0  0  0  0  0  0  0
    3.5770   -0.9630    0.1900 C   0  0  0  0  0  0  0  0  0  0  0  0
    2.2620   -1.2260   -0.2340 O   0  0  0  0  0  0  0  0  0  0  0  0
    1.1270   -0.6710    0.2810 C   0  0  0  0  0  0  0  0  0  0  0  0
    1.2410    0.1530    1.2230 O   0  0  0  0  0  0  0  0  0  0  0  0
   -0.1840   -0.9650   -0.1770 N   0  0  0  0  0  0  0  0  0  0  0  0
   -0.3490   -1.9090   -1.2590 C   0  0  0  0  0  0  0  0  0  0  0  0
   -1.1640   -3.0720   -0.7860 C   0  0  0  0  0  0  0  0  0  0  0  0
   -2.3640   -2.5720   -0.1750 N   0  0  0  0  0  0  0  0  0  0  0  0
   -2.3120   -1.4580    0.7090 C   0  0  0  0  0  0  0  0  0  0  0  0
   -3.0790   -1.4830    1.7010 O   0  0  0  0  0  0  0  0  0  0  0  0
   -1.3670   -0.3180    0.4370 C   0  0  2  0  0  0  0  0  0  0  0  0
   -1.8450    0.6800   -0.5220 C   0  0  0  0  0  0  0  0  0  0  0  0
   -3.0030    1.5230   -0.2520 C   0  0  1  0  0  0  0  0  0  0  0  0
   -4.3220    0.8350   -0.0270 C   0  0  0  0  0  0  0  0  0  0  0  0
   -4.6650    1.1170    1.2860 O   0  0  0  0  0  0  0  0  0  0  0  0
   -3.6720    1.6660    1.8840 O   0  0  0  0  0  0  0  0  0  0  0  0
   -2.9310    2.3970    0.9640 C   0  0  0  0  0  0  0  0  0  0  0  0
  1  2  2  0
  2  3  1  0
  2  4  1  0
  4  5  1  0
  5  6  1  0
  6  7  1  0
  7  8  1  0
  8  9  2  0
  8 10  1  0
 10 11  1  0
 10 16  1  0
 11 12  1  0
 12 13  1  0
 13 14  1  0
 14 15  2  0
 14 16  1  0
 16 17  1  6
 18 17  1  1
 18 19  1  0
 18 22  1  0
 19 20  1  0
 20 21  1  0
 21 22  1  0
M  END
