
     RDKit          3D

 22 23  0  0  0  0  0  0  0  0999 V2000
    0.9030    4.9430   -0.0060 C   0  0  0  0  0  0  0  0  0  0  0  0
    0.9520    3.4340    0.0460 C   0  0  0  0  0  0  0  0  0  0  0  0
    2.1580    2.8350    0.0820 N   0  0  0  0  0  0  0  0  0  0  0  0
    2.3300    1.5070    0.0720 C   0  0  0  0  0  0  0  0  0  0  0  0
    1.2210    0.7150    0.0240 C   0  0  0  0  0  0  0  0  0  0  0  0
    1.3790   -0.7790    0.1060 C   0  0  0  0  0  0  0  0  0  0  0  0
    2.7160   -1.0350    0.0810 O   0  0  0  0  0  0  0  0  0  0  0  0
    3.0590   -2.6310    0.1520 P   0  0  0  0  0  0  0  0  0  0  0  0
    4.3720   -3.1920   -0.7090 O   0  0  0  0  0  0  0  0  0  0  0  0
    2.0990   -2.9780   -0.9390 O   0  0  0  0  0  0  0  0  0  0  0  0
    2.4020   -3.6340    1.2770 O   0  0  0  0  0  0  0  0  0  0  0  0
   -0.0600    1.2400   -0.0160 C   0  0  0  0  0  0  0  0  0  0  0  0
   -1.1570    0.3360   -0.3420 C   0  0  0  0  0  0  0  0  0  0  0  0
   -2.1030    0.0190    0.6110 N   0  0  0  0  0  0  0  0  0  0  0  0
   -3.1760   -0.9010    0.2440 C   0  0  0  0  0  0  0  0  0  0  0  0
   -3.6850   -1.0990   -1.0260 C   0  0  0  0  0  0  0  0  0  0  0  0
   -4.6380   -2.0120   -0.9350 O   0  0  0  0  0  0  0  0  0  0  0  0
   -4.7720   -2.3900    0.2800 N   0  0  0  0  0  0  0  0  0  0  0  0
   -3.8950   -1.7510    1.0990 C   0  0  0  0  0  0  0  0  0  0  0  0
   -3.7040   -1.8410    2.3200 O   0  0  0  0  0  0  0  0  0  0  0  0
   -0.1360    2.6250    0.0080 C   0  0  0  0  0  0  0  0  0  0  0  0
   -1.4210    3.2190    0.0020 O   0  0  0  0  0  0  0  0  0  0  0  0
  1  2  1  0
  2  3  2  0
  2 21  1  0
  3  4  1  0
  4  5  2  0
  5  6  1  0
  5 12  1  0
  6  7  1  0
  7  8  1  0
  8  9  1  0
  8 10  1  0
  8 11  1  0
 12 13  1  0
 12 21  2  0
 13 14  1  0
 14 15  1  0
 15 16  2  0
 15 19  1  0
 16 17  1  0
 17 18  1  0
 18 19  1  0
 19 20  2  0
 21 22  1  0
M  END
