
     RDKit          3D

 21 21  0  0  0  0  0  0  0  0999 V2000
   -5.4550   -2.2730   -0.5510 C   0  0  0  0  0  0  0  0  0  0  0  0
   -4.5360   -1.2420   -0.9200 O   0  0  0  0  0  0  0  0  0  0  0  0
   -4.6330    0.0320   -0.3930 C   0  0  0  0  0  0  0  0  0  0  0  0
   -5.5600    0.2570    0.4250 O   0  0  0  0  0  0  0  0  0  0  0  0
   -3.6550    1.0720   -0.8050 C   0  0  2  0  0  0  0  0  0  0  0  0
   -2.7890    0.5380   -1.6830 O   0  0  0  0  0  0  0  0  0  0  0  0
   -1.4560    0.8580   -1.5460 C   0  0  2  0  0  0  0  0  0  0  0  0
   -0.8710   -0.1640   -0.6070 C   0  0  0  0  0  0  0  0  0  0  0  0
    0.5630   -0.0270   -0.3380 C   0  0  0  0  0  0  0  0  0  0  0  0
    1.3020    0.8110   -0.8920 O   0  0  0  0  0  0  0  0  0  0  0  0
    1.1580   -0.9020    0.6160 N   0  0  0  0  0  0  0  0  0  0  0  0
    2.5430   -0.8690    0.9640 C   0  0  0  0  0  0  0  0  0  0  0  0
    3.4370   -1.1330   -0.2260 C   0  0  0  0  0  0  0  0  0  0  0  0
    4.8920   -1.0980    0.1430 C   0  0  0  0  0  0  0  0  0  0  0  0
    5.4130    0.5290    0.8340 P   0  0  0  0  0  0  0  0  0  0  0  0
    4.9710    0.7200    2.4930 O   0  0  0  0  0  0  0  0  0  0  0  0
    7.1520    0.6420    0.7430 O   0  0  0  0  0  0  0  0  0  0  0  0
   -1.2300    2.2290   -0.9910 C   0  0  0  0  0  0  0  0  0  0  0  0
   -1.8280    2.3210    0.3330 N   0  0  0  0  0  0  0  0  0  0  0  0
   -3.0890    1.6400    0.4350 C   0  0  0  0  0  0  0  0  0  0  0  0
   -3.6560    1.5500    1.5440 O   0  0  0  0  0  0  0  0  0  0  0  0
  1  2  1  0
  2  3  1  0
  3  4  2  0
  5  3  1  1
  5  6  1  0
  5 20  1  0
  6  7  1  0
  7  8  1  1
  7 18  1  0
  8  9  1  0
  9 10  2  0
  9 11  1  0
 11 12  1  0
 12 13  1  0
 13 14  1  0
 14 15  1  0
 15 16  1  0
 15 17  1  0
 18 19  1  0
 19 20  1  0
 20 21  2  0
M  END
