
     RDKit          3D

 31 35  0  0  0  0  0  0  0  0999 V2000
    0.5680    2.4190   -0.1520 C   0  0  0  0  0  0  0  0  0  0  0  0
    0.6280    0.9950   -0.3860 C   0  0  0  0  0  0  0  0  0  0  0  0
   -0.5450    0.2340   -0.4900 C   0  0  0  0  0  0  0  0  0  0  0  0
   -1.8490    0.9080   -0.4780 C   0  0  0  0  0  0  0  0  0  0  0  0
   -1.9220    2.2710   -0.3370 N   0  0  0  0  0  0  0  0  0  0  0  0
   -3.1850    2.6610   -0.3630 C   0  0  0  0  0  0  0  0  0  0  0  0
   -3.7110    4.0440   -0.2450 C   0  0  0  0  0  0  0  0  0  0  0  0
   -3.8080    4.6360   -1.5690 N   0  0  0  0  0  0  0  0  0  0  0  0
   -3.9270    1.5240   -0.5240 C   0  0  0  0  0  0  0  0  0  0  0  0
   -3.0850    0.4460   -0.5930 N   0  0  0  0  0  0  0  0  0  0  0  0
   -3.5960   -0.8830   -0.7500 C   0  0  0  0  0  0  0  0  0  0  0  0
   -3.9450   -1.5830    0.5190 C   0  0  1  0  0  0  0  0  0  0  0  0
   -2.8640   -1.7700    1.5170 C   0  0  0  0  0  0  0  0  0  0  0  0
   -5.1210   -0.9230    1.2290 C   0  0  0  0  0  0  0  0  0  0  0  0
   -4.4700   -2.9770    0.1290 C   0  0  0  0  0  0  0  0  0  0  0  0
   -0.4460   -1.0970   -0.6330 N   0  0  0  0  0  0  0  0  0  0  0  0
    0.7470   -1.7550   -0.6830 C   0  0  0  0  0  0  0  0  0  0  0  0
    0.8210   -3.0130   -0.8180 O   0  0  0  0  0  0  0  0  0  0  0  0
    1.9110   -1.0570   -0.5890 C   0  0  0  0  0  0  0  0  0  0  0  0
    1.8150    0.3400   -0.4400 C   0  0  0  0  0  0  0  0  0  0  0  0
    2.9790    1.2180   -0.3860 C   0  0  0  0  0  0  0  0  0  0  0  0
    3.8010    0.8810    0.8410 C   0  0  0  0  0  0  0  0  0  0  0  0
    4.6910   -0.3060    0.5470 C   0  0  0  0  0  0  0  0  0  0  0  0
    5.9760   -0.1580    0.9820 C   0  0  0  0  0  0  0  0  0  0  0  0
    6.9450   -1.1530    0.7940 C   0  0  0  0  0  0  0  0  0  0  0  0
    6.6230   -2.3250    0.1570 C   0  0  0  0  0  0  0  0  0  0  0  0
    5.3120   -2.4640   -0.2810 C   0  0  0  0  0  0  0  0  0  0  0  0
    4.3540   -1.4920   -0.1010 C   0  0  0  0  0  0  0  0  0  0  0  0
    3.0830   -1.8640   -0.6300 N   0  0  0  0  0  0  0  0  0  0  0  0
    7.8520   -2.7910    0.2890 C   0  0  0  0  0  0  0  0  0  0  0  0
    8.1850   -1.5630    0.9560 C   0  0  0  0  0  0  0  0  0  0  0  0
  1  2  1  0
  2  3  2  0
  2 20  1  0
  3  4  1  0
  3 16  1  0
  4  5  2  0
  4 10  1  0
  5  6  1  0
  6  7  1  0
  6  9  2  0
  7  8  1  0
  9 10  1  0
 10 11  1  0
 11 12  1  0
 12 13  1  1
 12 14  1  0
 12 15  1  0
 16 17  1  0
 17 18  2  0
 17 19  1  0
 19 20  2  0
 19 29  1  0
 20 21  1  0
 21 22  1  0
 22 23  1  0
 23 24  2  0
 23 28  1  0
 24 25  1  0
 25 26  1  0
 25 31  2  0
 26 27  1  0
 26 30  2  0
 27 28  2  0
 28 29  1  0
 30 31  1  0
M  CHG  1   8   1
M  END
