
     RDKit          3D

 31 35  0  0  0  0  0  0  0  0999 V2000
   -1.1460   -4.5210   -0.4170 C   0  0  0  0  0  0  0  0  0  0  0  0
   -1.8710   -3.3350    0.3130 C   0  0  0  0  0  0  0  0  0  0  0  0
   -0.9470   -2.2740    0.3920 N   0  0  0  0  0  0  0  0  0  0  0  0
   -0.9860   -1.0370    0.6670 C   0  0  0  0  0  0  0  0  0  0  0  0
    0.2400   -0.3230    0.6250 C   0  0  0  0  0  0  0  0  0  0  0  0
    1.4900   -0.6930    0.2830 N   0  0  0  0  0  0  0  0  0  0  0  0
    2.3520    0.3380    0.3920 C   0  0  0  0  0  0  0  0  0  0  0  0
    3.7890    0.3120    0.0980 C   0  0  0  0  0  0  0  0  0  0  0  0
    4.4060   -0.8540   -0.3320 C   0  0  0  0  0  0  0  0  0  0  0  0
    5.7480   -0.8980   -0.6300 C   0  0  0  0  0  0  0  0  0  0  0  0
    6.5140    0.2510   -0.4980 C   0  0  0  0  0  0  0  0  0  0  0  0
    7.9420    0.1640   -0.8310 C   0  0  0  0  0  0  0  0  0  0  0  0
    5.9410    1.4290   -0.0730 C   0  0  0  0  0  0  0  0  0  0  0  0
    6.7810    2.6430    0.0540 C   0  0  0  0  0  0  0  0  0  0  0  0
    4.5890    1.4160    0.2110 C   0  0  0  0  0  0  0  0  0  0  0  0
    1.6600    1.4410    0.8240 C   0  0  0  0  0  0  0  0  0  0  0  0
    0.3390    0.9920    0.9600 C   0  0  0  0  0  0  0  0  0  0  0  0
   -0.7980    1.6540    1.3550 C   0  0  0  0  0  0  0  0  0  0  0  0
   -0.7250    2.8790    1.6720 O   0  0  0  0  0  0  0  0  0  0  0  0
   -1.9420    0.9670    1.3870 N   0  0  0  0  0  0  0  0  0  0  0  0
   -2.0550   -0.3350    1.0560 N   0  0  0  0  0  0  0  0  0  0  0  0
   -3.4160   -0.8560    1.0630 C   0  0  0  0  0  0  0  0  0  0  0  0
   -4.2090   -0.4700   -0.1330 C   0  0  0  0  0  0  0  0  0  0  0  0
   -4.2680   -1.0410   -1.3750 C   0  0  0  0  0  0  0  0  0  0  0  0
   -5.0730   -0.3060   -2.1910 N   0  0  0  0  0  0  0  0  0  0  0  0
   -5.5570    0.7440   -1.5270 C   0  0  0  0  0  0  0  0  0  0  0  0
   -6.4220    1.7620   -1.8930 C   0  0  0  0  0  0  0  0  0  0  0  0
   -6.7650    2.7060   -0.9520 C   0  0  0  0  0  0  0  0  0  0  0  0
   -6.2750    2.6680    0.3380 C   0  0  0  0  0  0  0  0  0  0  0  0
   -5.4030    1.6120    0.6430 C   0  0  0  0  0  0  0  0  0  0  0  0
   -5.0320    0.6560   -0.2500 C   0  0  0  0  0  0  0  0  0  0  0  0
  1  2  1  0
  2  3  1  0
  3  4  2  3
  4  5  1  0
  4 21  1  0
  5  6  1  0
  5 17  2  0
  6  7  1  0
  7  8  1  0
  7 16  2  0
  8  9  2  0
  8 15  1  0
  9 10  1  0
 10 11  2  0
 11 12  1  0
 11 13  1  0
 13 14  1  0
 13 15  2  0
 16 17  1  0
 17 18  1  0
 18 19  2  0
 18 20  1  0
 20 21  1  0
 21 22  1  0
 22 23  1  0
 23 24  2  0
 23 31  1  0
 24 25  1  0
 25 26  1  0
 26 27  2  0
 26 31  1  0
 27 28  1  0
 28 29  2  0
 29 30  1  0
 30 31  2  0
M  CHG  1   3   1
M  END
