
     RDKit          3D

 31 35  0  0  0  0  0  0  0  0999 V2000
   -3.5150   -0.8660    2.1990 C   0  0  0  0  0  0  0  0  0  0  0  0
   -2.8620   -2.1940    2.1130 N   0  0  0  0  0  0  0  0  0  0  0  0
   -1.8210   -2.0580    1.0720 C   0  0  0  0  0  0  0  0  0  0  0  0
   -2.4910   -1.3170   -0.0390 C   0  0  0  0  0  0  0  0  0  0  0  0
   -3.5520   -1.8990   -0.6410 C   0  0  0  0  0  0  0  0  0  0  0  0
   -4.2260   -1.2590   -1.6520 C   0  0  0  0  0  0  0  0  0  0  0  0
   -3.7930    0.0010   -2.0470 C   0  0  0  0  0  0  0  0  0  0  0  0
   -4.4850    0.6860   -3.0470 C   0  0  0  0  0  0  0  0  0  0  0  0
   -4.1320    1.9500   -3.4340 C   0  0  0  0  0  0  0  0  0  0  0  0
   -3.0460    2.5230   -2.7840 C   0  0  0  0  0  0  0  0  0  0  0  0
   -2.3450    1.8770   -1.8070 C   0  0  0  0  0  0  0  0  0  0  0  0
   -2.6890    0.5760   -1.4000 C   0  0  0  0  0  0  0  0  0  0  0  0
   -2.0230   -0.0620   -0.3980 C   0  0  0  0  0  0  0  0  0  0  0  0
   -0.9530    0.4440    0.3530 N   0  0  0  0  0  0  0  0  0  0  0  0
    0.4380    0.3360    0.2550 C   0  0  0  0  0  0  0  0  0  0  0  0
    1.2130    0.5780    1.4040 C   0  0  0  0  0  0  0  0  0  0  0  0
    0.5050    0.7580    2.6790 C   0  0  0  0  0  0  0  0  0  0  0  0
    2.5900    0.5670    1.3940 C   0  0  0  0  0  0  0  0  0  0  0  0
    3.2970    0.8540    2.5340 C   0  0  0  0  0  0  0  0  0  0  0  0
    4.6970    0.8810    2.5220 C   0  0  0  0  0  0  0  0  0  0  0  0
    5.3160    0.6120    1.3370 C   0  0  0  0  0  0  0  0  0  0  0  0
    4.6540    0.3270    0.1790 C   0  0  0  0  0  0  0  0  0  0  0  0
    5.3700   -0.0110   -1.0540 C   0  0  0  0  0  0  0  0  0  0  0  0
    6.5850    0.4050   -1.3210 N   0  0  0  0  0  0  0  0  0  0  0  0
    6.9430   -0.1370   -2.6210 C   0  0  0  0  0  0  0  0  0  0  0  0
    6.1140   -1.1740   -2.6870 C   0  0  0  0  0  0  0  0  0  0  0  0
    4.9750   -0.8380   -2.1490 N   0  0  0  0  0  0  0  0  0  0  0  0
    3.2750    0.2970    0.1800 C   0  0  0  0  0  0  0  0  0  0  0  0
    2.5100    0.0650   -0.9000 N   0  0  0  0  0  0  0  0  0  0  0  0
    1.1580    0.0820   -0.8850 C   0  0  0  0  0  0  0  0  0  0  0  0
    0.5780   -0.1410   -1.9880 O   0  0  0  0  0  0  0  0  0  0  0  0
  1  2  1  0
  2  3  1  0
  3  4  1  0
  4  5  2  0
  4 13  1  0
  5  6  1  0
  6  7  2  0
  7  8  1  0
  7 12  1  0
  8  9  2  0
  9 10  1  0
 10 11  2  0
 11 12  1  0
 12 13  2  0
 13 14  1  0
 14 15  1  0
 15 16  2  0
 15 30  1  0
 16 17  1  0
 16 18  1  0
 18 19  2  0
 18 28  1  0
 19 20  1  0
 20 21  2  0
 21 22  1  0
 22 23  1  0
 22 28  2  0
 23 24  2  0
 23 27  1  0
 24 25  1  0
 25 26  2  0
 26 27  2  0
 28 29  1  0
 29 30  1  0
 30 31  2  0
M  CHG  1   2   1
M  END
