
     RDKit          3D

 31 34  0  0  0  0  0  0  0  0999 V2000
   -4.4340    2.7510    0.5650 C   0  0  0  0  0  0  0  0  0  0  0  0
   -5.1200    1.4820    0.2270 C   0  0  0  0  0  0  0  0  0  0  0  0
   -6.3930    1.4990   -0.1950 C   0  0  0  0  0  0  0  0  0  0  0  0
   -7.0520    0.3500   -0.5140 C   0  0  0  0  0  0  0  0  0  0  0  0
   -6.3600   -0.8270   -0.3870 C   0  0  0  0  0  0  0  0  0  0  0  0
   -5.0250   -0.8780    0.0530 C   0  0  0  0  0  0  0  0  0  0  0  0
   -4.4520   -2.2340    0.1150 C   0  0  0  0  0  0  0  0  0  0  0  0
   -4.4040    0.2730    0.3600 C   0  0  0  0  0  0  0  0  0  0  0  0
   -3.0470    0.4260    0.8330 C   0  0  0  0  0  0  0  0  0  0  0  0
   -2.1510   -0.6340    1.0490 N   0  0  0  0  0  0  0  0  0  0  0  0
   -1.2370   -0.7400   -0.0840 C   0  0  1  0  0  0  0  0  0  0  0  0
   -1.6330    0.1280   -1.1840 C   0  0  0  0  0  0  0  0  0  0  0  0
   -2.6230   -0.0560   -1.9440 O   0  0  0  0  0  0  0  0  0  0  0  0
   -0.6980    1.2150   -1.2390 N   0  0  0  0  0  0  0  0  0  0  0  0
    0.2760    1.0530   -0.2260 C   0  0  0  0  0  0  0  0  0  0  0  0
    1.0600    1.9280    0.1820 O   0  0  0  0  0  0  0  0  0  0  0  0
    0.1700   -0.3450    0.2370 C   0  0  2  0  0  0  0  0  0  0  0  0
    1.2780   -1.4390   -0.6940 S   0  0  0  0  0  0  0  0  0  0  0  0
    2.9880   -1.0580   -0.3860 C   0  0  0  0  0  0  0  0  0  0  0  0
    3.6380   -0.1620   -1.1430 N   0  0  0  0  0  0  0  0  0  0  0  0
    4.9320    0.1550   -0.9430 C   0  0  0  0  0  0  0  0  0  0  0  0
    5.6380   -0.4500    0.0710 C   0  0  0  0  0  0  0  0  0  0  0  0
    4.9640   -1.3800    0.8580 C   0  0  0  0  0  0  0  0  0  0  0  0
    5.6410   -2.0710    1.9580 C   0  0  2  0  0  0  0  0  0  0  0  0
    6.0890   -1.1310    2.8700 F   0  0  0  0  0  0  0  0  0  0  0  0
    6.6680   -2.8870    1.5340 F   0  0  0  0  0  0  0  0  0  0  0  0
    4.7360   -2.8690    2.6250 F   0  0  0  0  0  0  0  0  0  0  0  0
    3.6730   -1.6510    0.6050 N   0  0  0  0  0  0  0  0  0  0  0  0
    7.0250    0.0360    0.1150 C   0  0  0  0  0  0  0  0  0  0  0  0
    7.2130    0.7840   -1.1860 C   0  0  0  0  0  0  0  0  0  0  0  0
    5.8200    1.1150   -1.6700 C   0  0  0  0  0  0  0  0  0  0  0  0
  1  2  1  0
  2  3  2  0
  2  8  1  0
  3  4  1  0
  4  5  2  0
  5  6  1  0
  6  7  1  0
  6  8  2  0
  8  9  1  0
  9 10  1  0
 11 10  1  1
 11 12  1  0
 11 17  1  0
 12 13  2  0
 12 14  1  0
 14 15  1  0
 15 16  2  0
 15 17  1  0
 17 18  1  6
 18 19  1  0
 19 20  2  0
 19 28  1  0
 20 21  1  0
 21 22  2  0
 21 31  1  0
 22 23  1  0
 22 29  1  0
 23 24  1  0
 23 28  2  0
 24 25  1  1
 24 26  1  0
 24 27  1  0
 29 30  1  0
 30 31  1  0
M  CHG  1  10   1
M  END
