
     RDKit          3D

 30 34  0  0  0  0  0  0  0  0999 V2000
   -0.9570   -0.9360   -0.5660 C   0  0  0  0  0  0  0  0  0  0  0  0
   -2.2230   -0.3020   -0.1320 C   0  0  0  0  0  0  0  0  0  0  0  0
   -2.6190    0.9790   -0.0020 C   0  0  0  0  0  0  0  0  0  0  0  0
   -1.9190    2.2110   -0.2770 C   0  0  0  0  0  0  0  0  0  0  0  0
   -2.6790    3.2760   -0.8390 C   0  0  0  0  0  0  0  0  0  0  0  0
   -2.1020    4.4960   -1.0730 C   0  0  0  0  0  0  0  0  0  0  0  0
   -0.7800    4.7610   -0.7860 C   0  0  0  0  0  0  0  0  0  0  0  0
   -0.0570    3.7390   -0.2460 C   0  0  0  0  0  0  0  0  0  0  0  0
   -0.6340    2.4610    0.0090 C   0  0  0  0  0  0  0  0  0  0  0  0
    0.2170    1.5530    0.6820 N   0  0  0  0  0  0  0  0  0  0  0  0
    1.4450    1.1680    0.3060 C   0  0  0  0  0  0  0  0  0  0  0  0
    1.9790    0.3210    1.2660 C   0  0  0  0  0  0  0  0  0  0  0  0
    3.3210   -0.3330    1.2410 C   0  0  0  0  0  0  0  0  0  0  0  0
    3.6490   -1.0650    2.1820 O   0  0  0  0  0  0  0  0  0  0  0  0
    4.1640   -0.0960    0.1550 N   0  0  0  0  0  0  0  0  0  0  0  0
    5.4410   -0.6360   -0.0180 C   0  0  0  0  0  0  0  0  0  0  0  0
    6.2740   -0.0880   -1.0150 C   0  0  0  0  0  0  0  0  0  0  0  0
    7.5310   -0.5800   -1.2470 C   0  0  0  0  0  0  0  0  0  0  0  0
    8.0470   -1.6340   -0.5200 C   0  0  0  0  0  0  0  0  0  0  0  0
    7.2330   -2.1650    0.4500 C   0  0  0  0  0  0  0  0  0  0  0  0
    5.9400   -1.6830    0.7110 C   0  0  0  0  0  0  0  0  0  0  0  0
    1.0160    0.2110    2.2420 C   0  0  0  0  0  0  0  0  0  0  0  0
   -0.0390    0.9800    1.8400 N   0  0  0  0  0  0  0  0  0  0  0  0
   -3.9580    0.9480    0.3580 N   0  0  0  0  0  0  0  0  0  0  0  0
   -4.4020   -0.2920    0.4560 C   0  0  0  0  0  0  0  0  0  0  0  0
   -3.3390   -1.1120    0.1560 C   0  0  0  0  0  0  0  0  0  0  0  0
   -3.5790   -2.5760    0.1980 C   0  0  0  0  0  0  0  0  0  0  0  0
   -4.8310   -2.9750   -0.3600 N   0  0  0  0  0  0  0  0  0  0  0  0
   -5.9040   -2.0470   -0.2170 C   0  0  0  0  0  0  0  0  0  0  0  0
   -5.6860   -0.9650    0.7910 C   0  0  0  0  0  0  0  0  0  0  0  0
  1  2  1  0
  2  3  2  0
  2 26  1  0
  3  4  1  0
  3 24  1  0
  4  5  2  0
  4  9  1  0
  5  6  1  0
  6  7  2  0
  7  8  1  0
  8  9  2  0
  9 10  1  0
 10 11  1  0
 10 23  1  0
 11 12  2  0
 12 13  1  0
 12 22  1  0
 13 14  2  0
 13 15  1  0
 15 16  1  0
 16 17  2  0
 16 21  1  0
 17 18  1  0
 18 19  2  0
 19 20  1  0
 20 21  2  0
 22 23  2  0
 24 25  1  0
 25 26  2  0
 25 30  1  0
 26 27  1  0
 27 28  1  0
 28 29  1  0
 29 30  1  0
M  CHG  1  28   1
M  END
