
     RDKit          3D

 31 35  0  0  0  0  0  0  0  0999 V2000
   10.4020    0.3700   -0.9190 C   0  0  0  0  0  0  0  0  0  0  0  0
    9.1620    0.6030   -0.5470 C   0  0  0  0  0  0  0  0  0  0  0  0
    8.0710   -0.2240   -1.0160 C   0  0  0  0  0  0  0  0  0  0  0  0
    6.8420    0.0420   -0.6200 C   0  0  0  0  0  0  0  0  0  0  0  0
    5.6930   -0.7410   -1.0460 C   0  0  0  0  0  0  0  0  0  0  0  0
    4.4720   -0.4470   -0.6290 C   0  0  0  0  0  0  0  0  0  0  0  0
    4.1110    0.6580    0.2810 C   0  0  0  0  0  0  0  0  0  0  0  0
    2.6710    0.5170    0.4060 N   0  0  0  0  0  0  0  0  0  0  0  0
    2.2040   -0.4540   -0.2740 C   0  0  0  0  0  0  0  0  0  0  0  0
    0.7940   -0.8340   -0.3410 C   0  0  0  0  0  0  0  0  0  0  0  0
   -0.2040    0.1050   -0.4240 C   0  0  0  0  0  0  0  0  0  0  0  0
   -1.5260   -0.3480   -0.4850 C   0  0  0  0  0  0  0  0  0  0  0  0
   -1.8580   -1.6830   -0.4650 C   0  0  0  0  0  0  0  0  0  0  0  0
   -3.2780   -2.1410   -0.5310 C   0  0  0  0  0  0  0  0  0  0  0  0
   -0.8570   -2.5670   -0.3830 N   0  0  0  0  0  0  0  0  0  0  0  0
    0.4290   -2.1880   -0.3220 C   0  0  0  0  0  0  0  0  0  0  0  0
    1.3460   -3.0470   -0.2460 O   0  0  0  0  0  0  0  0  0  0  0  0
   -2.4440    0.8230   -0.5890 C   0  0  1  0  0  0  0  0  0  0  0  0
   -3.1270    0.9750    0.7140 C   0  0  0  0  0  0  0  0  0  0  0  0
   -2.6030    1.3280    1.9210 C   0  0  0  0  0  0  0  0  0  0  0  0
   -3.6300    1.3260    2.8010 N   0  0  0  0  0  0  0  0  0  0  0  0
   -4.7750    0.9850    2.1850 C   0  0  0  0  0  0  0  0  0  0  0  0
   -6.0890    0.8320    2.6100 C   0  0  0  0  0  0  0  0  0  0  0  0
   -7.0540    0.4610    1.7030 C   0  0  0  0  0  0  0  0  0  0  0  0
   -6.7510    0.2350    0.3770 C   0  0  0  0  0  0  0  0  0  0  0  0
   -7.8270   -0.1670   -0.5740 C   0  0  0  0  0  0  0  0  0  0  0  0
   -5.4710    0.3930    0.0110 N   0  0  0  0  0  0  0  0  0  0  0  0
   -4.5000    0.7530    0.8570 C   0  0  0  0  0  0  0  0  0  0  0  0
   -1.5260    1.9730   -0.9100 C   0  0  0  0  0  0  0  0  0  0  0  0
   -0.1400    1.5690   -0.4630 C   0  0  0  0  0  0  0  0  0  0  0  0
    3.2830   -1.1280   -0.9690 N   0  0  0  0  0  0  0  0  0  0  0  0
  1  2  2  0
  2  3  1  0
  3  4  2  3
  4  5  1  0
  5  6  2  3
  6  7  1  0
  6 31  1  0
  7  8  1  0
  8  9  2  0
  9 10  1  0
  9 31  1  0
 10 11  2  0
 10 16  1  0
 11 12  1  0
 11 30  1  0
 12 13  2  0
 12 18  1  0
 13 14  1  0
 13 15  1  0
 15 16  1  0
 16 17  2  0
 18 19  1  1
 18 29  1  0
 19 20  2  0
 19 28  1  0
 20 21  1  0
 21 22  1  0
 22 23  2  0
 22 28  1  0
 23 24  1  0
 24 25  2  0
 25 26  1  0
 25 27  1  0
 27 28  2  0
 29 30  1  0
M  CHG  1   8   1
M  END
