
     RDKit          3D

 31 34  0  0  0  0  0  0  0  0999 V2000
   -1.7150    1.4070    2.7130 C   0  0  0  0  0  0  0  0  0  0  0  0
   -2.3860    1.0840    1.4540 C   0  0  0  0  0  0  0  0  0  0  0  0
   -3.4810    1.8320    1.0520 C   0  0  0  0  0  0  0  0  0  0  0  0
   -3.9450    2.8820    1.8880 N   0  0  0  0  0  0  0  0  0  0  0  0
   -3.3320    4.0580    1.6730 F   0  0  0  0  0  0  0  0  0  0  0  0
   -4.1060    1.5420   -0.1320 N   0  0  0  0  0  0  0  0  0  0  0  0
   -3.6610    0.5410   -0.8940 C   0  0  0  0  0  0  0  0  0  0  0  0
   -2.5730   -0.2110   -0.5040 C   0  0  0  0  0  0  0  0  0  0  0  0
   -1.9110    0.0480    0.6870 C   0  0  0  0  0  0  0  0  0  0  0  0
   -0.5500   -0.8800    1.1760 S   0  0  2  0  0  0  0  0  0  0  0  0
   -0.6980   -2.3600    0.9830 O   0  0  0  0  0  0  0  0  0  0  0  0
   -0.3010   -0.7440    2.6780 O   0  0  0  0  0  0  0  0  0  0  0  0
    0.9670   -0.2590    0.4300 C   0  0  0  0  0  0  0  0  0  0  0  0
    2.0730   -1.1240    0.9110 C   0  0  0  0  0  0  0  0  0  0  0  0
    1.8170   -2.1330    1.7980 N   0  0  0  0  0  0  0  0  0  0  0  0
    2.7670   -2.9540    2.2650 C   0  0  0  0  0  0  0  0  0  0  0  0
    4.0730   -2.7790    1.8330 C   0  0  0  0  0  0  0  0  0  0  0  0
    5.0490   -3.5980    2.2890 F   0  0  0  0  0  0  0  0  0  0  0  0
    4.3330   -1.7710    0.9470 C   0  0  0  0  0  0  0  0  0  0  0  0
    3.3420   -0.9090    0.4560 C   0  0  0  0  0  0  0  0  0  0  0  0
    3.7500    0.1220   -0.4780 C   0  0  0  0  0  0  0  0  0  0  0  0
    3.5210    1.4580   -0.3740 C   0  0  0  0  0  0  0  0  0  0  0  0
    3.9790    2.3780   -1.3170 C   0  0  0  0  0  0  0  0  0  0  0  0
    4.6930    1.9660   -2.4100 C   0  0  0  0  0  0  0  0  0  0  0  0
    4.9260    0.6130   -2.5170 C   0  0  0  0  0  0  0  0  0  0  0  0
    4.4790   -0.2930   -1.5940 C   0  0  0  0  0  0  0  0  0  0  0  0
    4.7580   -1.6100   -1.7820 F   0  0  0  0  0  0  0  0  0  0  0  0
   -2.1670   -1.2700   -1.4330 C   0  0  0  0  0  0  0  0  0  0  0  0
   -3.3120   -2.0550   -1.7880 N   0  0  0  0  0  0  0  0  0  0  0  0
   -4.4600   -1.3160   -2.1850 C   0  0  0  0  0  0  0  0  0  0  0  0
   -4.2910    0.1900   -2.1820 C   0  0  0  0  0  0  0  0  0  0  0  0
  1  2  1  0
  2  3  2  0
  2  9  1  0
  3  4  1  0
  3  6  1  0
  4  5  1  0
  6  7  2  0
  7  8  1  0
  7 31  1  0
  8  9  2  0
  8 28  1  0
  9 10  1  0
 10 11  2  0
 10 12  2  0
 10 13  1  6
 13 14  1  0
 14 15  2  0
 14 20  1  0
 15 16  1  0
 16 17  2  0
 17 18  1  0
 17 19  1  0
 19 20  2  0
 20 21  1  0
 21 22  2  0
 21 26  1  0
 22 23  1  0
 23 24  2  0
 24 25  1  0
 25 26  2  0
 26 27  1  0
 28 29  1  0
 29 30  1  0
 30 31  1  0
M  CHG  1   4   1
M  END
