
     RDKit          3D

 21 21  0  0  0  0  0  0  0  0999 V2000
    3.4930    2.0720   -1.6550 C   0  0  0  0  0  0  0  0  0  0  0  0
    2.3140    1.4520   -0.9200 C   0  0  0  0  0  0  0  0  0  0  0  0
    2.6370    0.3870   -0.1090 N   0  0  0  0  0  0  0  0  0  0  0  0
    3.3950    0.6510    1.0370 C   0  0  0  0  0  0  0  0  0  0  0  0
    2.1680   -0.8940   -0.2660 C   0  0  0  0  0  0  0  0  0  0  0  0
    0.6960   -1.1100   -0.1840 C   0  0  0  0  0  0  0  0  0  0  0  0
   -0.2250   -0.1390    0.0890 C   0  0  0  0  0  0  0  0  0  0  0  0
   -1.5590   -0.4830    0.1340 C   0  0  0  0  0  0  0  0  0  0  0  0
   -2.5740    0.4810    0.4140 N   0  0  0  0  0  0  0  0  0  0  0  0
   -2.2000    1.8360    0.6490 C   0  0  0  0  0  0  0  0  0  0  0  0
   -3.6060    2.9530    0.9990 P   0  0  0  0  0  0  0  0  0  0  0  0
   -4.0030    3.8490   -0.4320 O   0  0  0  0  0  0  0  0  0  0  0  0
   -3.2760    4.0710    2.2850 O   0  0  0  0  0  0  0  0  0  0  0  0
   -1.8800   -1.8050   -0.1040 C   0  0  0  0  0  0  0  0  0  0  0  0
   -3.0810   -2.1790   -0.0770 O   0  0  0  0  0  0  0  0  0  0  0  0
   -0.9710   -2.7590   -0.3730 N   0  0  0  0  0  0  0  0  0  0  0  0
   -1.3640   -4.1520   -0.6200 C   0  0  1  0  0  0  0  0  0  0  0  0
   -1.5350   -4.8800    0.6070 N   0  0  0  0  0  0  0  0  0  0  0  0
   -2.4590   -4.2180   -1.4480 F   0  0  0  0  0  0  0  0  0  0  0  0
   -0.3120   -4.7360   -1.3090 F   0  0  0  0  0  0  0  0  0  0  0  0
    0.2930   -2.3860   -0.4060 N   0  0  0  0  0  0  0  0  0  0  0  0
  1  2  1  0
  2  3  1  0
  3  4  1  0
  3  5  1  0
  5  6  1  0
  6  7  1  0
  6 21  2  0
  7  8  2  0
  8  9  1  0
  8 14  1  0
  9 10  1  0
 10 11  1  0
 11 12  1  0
 11 13  1  0
 14 15  2  0
 14 16  1  0
 16 17  1  0
 16 21  1  0
 17 18  1  1
 17 19  1  0
 17 20  1  0
M  END
