
     RDKit          3D

 21 22  0  0  0  0  0  0  0  0999 V2000
    2.9920   -1.8730    1.6390 O   0  0  0  0  0  0  0  0  0  0  0  0
    3.8530   -1.0460    1.2400 C   0  0  0  0  0  0  0  0  0  0  0  0
    3.6870   -0.3670    0.0030 N   0  0  0  0  0  0  0  0  0  0  0  0
    2.5470   -0.6040   -0.8120 C   0  0  0  0  0  0  0  0  0  0  0  0
    1.7350    0.3790   -1.1090 C   0  0  0  0  0  0  0  0  0  0  0  0
    0.5800    0.2090   -1.9170 N   0  0  0  0  0  0  0  0  0  0  0  0
   -0.6980    0.2620   -1.3290 C   0  0  0  0  0  0  0  0  0  0  0  0
   -1.4850   -0.8000   -1.2760 C   0  0  0  0  0  0  0  0  0  0  0  0
   -2.8160   -0.7610   -0.6680 C   0  0  0  0  0  0  0  0  0  0  0  0
   -3.5730   -1.8180   -0.6270 N   0  0  0  0  0  0  0  0  0  0  0  0
   -4.8630   -1.7550   -0.0300 C   0  0  0  0  0  0  0  0  0  0  0  0
   -5.2950   -0.6200    0.4830 C   0  0  0  0  0  0  0  0  0  0  0  0
   -6.5390   -0.5990    1.0470 F   0  0  0  0  0  0  0  0  0  0  0  0
   -4.5340    0.6320    0.4960 C   0  0  0  0  0  0  0  0  0  0  0  0
   -3.2460    0.4810   -0.1250 N   0  0  0  0  0  0  0  0  0  0  0  0
   -2.3320    1.5780   -0.2250 C   0  0  0  0  0  0  0  0  0  0  0  0
   -2.7540    2.7580    0.2970 F   0  0  0  0  0  0  0  0  0  0  0  0
   -1.1720    1.4800   -0.7730 N   0  0  0  0  0  0  0  0  0  0  0  0
    5.3550   -0.6970    2.2550 P   0  0  0  0  0  0  0  0  0  0  0  0
    6.7900   -1.2220    1.4030 O   0  0  0  0  0  0  0  0  0  0  0  0
    5.4290    1.0320    2.5100 O   0  0  0  0  0  0  0  0  0  0  0  0
  1  2  2  0
  2  3  1  0
  2 19  1  0
  3  4  1  0
  4  5  2  3
  5  6  1  0
  6  7  1  0
  7  8  2  0
  7 18  1  0
  8  9  1  0
  9 10  2  0
  9 15  1  0
 10 11  1  0
 11 12  2  0
 12 13  1  0
 12 14  1  0
 14 15  1  0
 15 16  1  0
 16 17  1  0
 16 18  2  0
 19 20  1  0
 19 21  1  0
M  END
