
     RDKit          3D

 22 23  0  0  0  0  0  0  0  0999 V2000
    3.9220    2.4200   -1.6680 C   0  0  0  0  0  0  0  0  0  0  0  0
    2.9510    1.4310   -1.2190 N   0  0  0  0  0  0  0  0  0  0  0  0
    3.2210    0.6440   -0.0750 C   0  0  0  0  0  0  0  0  0  0  0  0
    2.4130   -0.2610    0.5240 C   0  0  0  0  0  0  0  0  0  0  0  0
    1.0910   -0.6600    0.2020 N   0  0  0  0  0  0  0  0  0  0  0  0
    0.8610   -2.0300   -0.2590 C   0  0  0  0  0  0  0  0  0  0  0  0
   -0.2550   -2.5870    0.5320 C   0  0  0  0  0  0  0  0  0  0  0  0
   -0.1480   -3.7820    0.9240 O   0  0  0  0  0  0  0  0  0  0  0  0
   -1.3790   -1.7570    0.8070 N   0  0  0  0  0  0  0  0  0  0  0  0
   -1.3840   -0.3330    0.6390 C   0  0  2  0  0  0  0  0  0  0  0  0
   -2.4400    0.1420   -0.3300 C   0  0  0  0  0  0  0  0  0  0  0  0
   -3.7890   -0.2650    0.2160 C   0  0  0  0  0  0  0  0  0  0  0  0
   -5.1890    0.2700   -0.8880 P   0  0  0  0  0  0  0  0  0  0  0  0
   -6.6090   -0.6670   -0.5560 O   0  0  0  0  0  0  0  0  0  0  0  0
   -5.5810    1.9210   -0.4900 O   0  0  0  0  0  0  0  0  0  0  0  0
   -4.4520    2.4950   -0.0550 F   0  0  0  0  0  0  0  0  0  0  0  0
   -0.0280    0.1940    0.3120 C   0  0  0  0  0  0  0  0  0  0  0  0
    0.1180    1.4330    0.1300 O   0  0  0  0  0  0  0  0  0  0  0  0
    3.1060   -0.7870    1.5800 N   0  0  0  0  0  0  0  0  0  0  0  0
    4.2910   -0.2560    1.6620 N   0  0  0  0  0  0  0  0  0  0  0  0
    4.4120    0.6320    0.6660 C   0  0  0  0  0  0  0  0  0  0  0  0
    5.4810    1.4060    0.3690 F   0  0  0  0  0  0  0  0  0  0  0  0
  1  2  1  0
  2  3  1  0
  3  4  1  0
  3 21  2  0
  4  5  1  0
  4 19  2  0
  5  6  1  0
  5 17  1  0
  6  7  1  0
  7  8  2  0
  7  9  1  0
  9 10  1  0
 10 11  1  6
 10 17  1  0
 11 12  1  0
 12 13  1  0
 13 14  1  0
 13 15  1  0
 15 16  1  0
 17 18  2  0
 19 20  1  0
 20 21  1  0
 21 22  1  0
M  END
