
     RDKit          3D

 21 21  0  0  0  0  0  0  0  0999 V2000
   -0.2070   -0.1610    0.2680 O   0  0  0  0  0  0  0  0  0  0  0  0
   -0.3300    1.1300    0.1240 C   0  0  0  0  0  0  0  0  0  0  0  0
    0.6790    1.8640   -0.4210 N   0  0  0  0  0  0  0  0  0  0  0  0
    1.9260    1.2710   -0.8260 C   0  0  0  0  0  0  0  0  0  0  0  0
    2.6290    0.5820    0.3340 C   0  0  0  0  0  0  0  0  0  0  0  0
    3.9220    0.0060   -0.2320 C   0  0  0  0  0  0  0  0  0  0  0  0
    4.7150   -0.7100    0.8370 C   0  0  0  0  0  0  0  0  0  0  0  0
    6.2660   -1.3730    0.0580 P   0  0  0  0  0  0  0  0  0  0  0  0
    7.5870   -0.2800    0.2180 O   0  0  0  0  0  0  0  0  0  0  0  0
    6.0410   -1.8530   -1.5730 O   0  0  0  0  0  0  0  0  0  0  0  0
   -1.5500    1.5600    0.5970 N   0  0  0  0  0  0  0  0  0  0  0  0
   -2.5860    0.7020    1.0350 C   0  0  0  0  0  0  0  0  0  0  0  0
   -3.0760    1.0710    2.1280 N   0  0  0  0  0  0  0  0  0  0  0  0
   -4.1030    0.2570    2.5450 N   0  0  0  0  0  0  0  0  0  0  0  0
   -4.3130   -0.7400    1.5530 C   0  0  0  0  0  0  0  0  0  0  0  0
   -5.1970   -1.7070    1.5390 C   0  0  0  0  0  0  0  0  0  0  0  0
   -6.0620   -1.8410    2.5720 F   0  0  0  0  0  0  0  0  0  0  0  0
   -3.3240   -0.4060    0.5920 N   0  0  0  0  0  0  0  0  0  0  0  0
   -3.2150   -0.9670   -0.7250 C   0  0  0  0  0  0  0  0  0  0  0  0
   -4.4310   -0.6120   -1.5710 C   0  0  0  0  0  0  0  0  0  0  0  0
   -4.5540    0.7750   -1.7000 O   0  0  0  0  0  0  0  0  0  0  0  0
  1  2  2  0
  2  3  1  0
  2 11  1  0
  3  4  1  0
  4  5  1  0
  5  6  1  0
  6  7  1  0
  7  8  1  0
  8  9  1  0
  8 10  1  0
 11 12  1  0
 12 13  2  0
 12 18  1  0
 13 14  1  0
 14 15  1  0
 15 16  2  3
 15 18  1  0
 16 17  1  0
 18 19  1  0
 19 20  1  0
 20 21  1  0
M  END
