
     RDKit          3D

 28 30  0  0  0  0  0  0  0  0999 V2000
   -4.1820   -0.0850   -3.1850 O   0  0  0  0  0  0  0  0  0  0  0  0
   -3.6620   -1.1710   -2.2780 P   0  0  1  0  0  0  0  0  0  0  0  0
   -4.9050   -2.2970   -2.0680 O   0  0  0  0  0  0  0  0  0  0  0  0
   -2.3000   -1.8820   -3.0030 O   0  0  0  0  0  0  0  0  0  0  0  0
   -3.2540   -0.5150   -0.6340 C   0  0  1  0  0  0  0  0  0  0  0  0
   -2.5340   -1.5160    0.0440 O   0  0  0  0  0  0  0  0  0  0  0  0
   -2.3870    0.6870   -0.7360 C   0  0  0  0  0  0  0  0  0  0  0  0
   -2.8080    1.8540   -1.3380 C   0  0  0  0  0  0  0  0  0  0  0  0
   -2.0090    2.9800   -1.4400 C   0  0  0  0  0  0  0  0  0  0  0  0
   -0.7300    2.9540   -0.9220 C   0  0  0  0  0  0  0  0  0  0  0  0
   -0.2860    1.7870   -0.3110 C   0  0  0  0  0  0  0  0  0  0  0  0
    1.0750    1.7550    0.2400 C   0  0  0  0  0  0  0  0  0  0  0  0
    1.6940    2.8680    0.7670 C   0  0  0  0  0  0  0  0  0  0  0  0
    2.9850    2.8100    1.2820 C   0  0  0  0  0  0  0  0  0  0  0  0
    3.6640    1.6090    1.2670 C   0  0  0  0  0  0  0  0  0  0  0  0
    3.0700    0.4790    0.7470 C   0  0  0  0  0  0  0  0  0  0  0  0
    3.8330   -0.7620    0.7550 C   0  0  0  0  0  0  0  0  0  0  0  0
    4.7490   -1.0520    1.7420 C   0  0  0  0  0  0  0  0  0  0  0  0
    5.4900   -2.2110    1.7870 C   0  0  0  0  0  0  0  0  0  0  0  0
    5.3200   -3.1650    0.7830 C   0  0  0  0  0  0  0  0  0  0  0  0
    4.4060   -2.8880   -0.2120 C   0  0  0  0  0  0  0  0  0  0  0  0
    3.6660   -1.7190   -0.2470 C   0  0  0  0  0  0  0  0  0  0  0  0
    1.7950    0.5740    0.2470 C   0  0  0  0  0  0  0  0  0  0  0  0
   -1.1060    0.6840   -0.2260 C   0  0  0  0  0  0  0  0  0  0  0  0
   -4.7430   -0.1600    0.2960 P   0  0  2  0  0  0  0  0  0  0  0  0
   -5.9140    0.1980   -0.6090 O   0  0  0  0  0  0  0  0  0  0  0  0
   -4.5080    1.1440    1.3520 O   0  0  0  0  0  0  0  0  0  0  0  0
   -5.1860   -1.4910    1.2690 O   0  0  0  0  0  0  0  0  0  0  0  0
  1  2  2  0
  2  3  1  1
  2  4  1  0
  2  5  1  0
  5  6  1  1
  5  7  1  0
  5 25  1  0
  7  8  2  0
  7 24  1  0
  8  9  1  0
  9 10  2  0
 10 11  1  0
 11 12  1  0
 11 24  2  0
 12 13  2  0
 12 23  1  0
 13 14  1  0
 14 15  2  0
 15 16  1  0
 16 17  1  0
 16 23  2  0
 17 18  2  0
 17 22  1  0
 18 19  1  0
 19 20  2  0
 20 21  1  0
 21 22  2  0
 25 26  2  0
 25 27  1  1
 25 28  1  0
M  END
