
     RDKit          3D

 21 21  0  0  0  0  0  0  0  0999 V2000
   -4.7100    2.3610   -0.4540 C   0  0  0  0  0  0  0  0  0  0  0  0
   -3.4830    2.3180    0.3450 N   0  0  0  0  0  0  0  0  0  0  0  0
   -2.5910    1.3430   -0.2240 C   0  0  0  0  0  0  0  0  0  0  0  0
   -2.2130    0.4080    0.9140 C   0  0  0  0  0  0  0  0  0  0  0  0
   -2.6760    0.5160    2.1540 O   0  0  0  0  0  0  0  0  0  0  0  0
   -2.1760   -0.4280    2.8910 N   0  0  0  0  0  0  0  0  0  0  0  0
   -1.3530   -1.2300    2.1970 C   0  0  0  0  0  0  0  0  0  0  0  0
   -0.6760   -2.3360    2.5870 F   0  0  0  0  0  0  0  0  0  0  0  0
   -1.3820   -0.6690    0.9040 C   0  0  0  0  0  0  0  0  0  0  0  0
   -0.6460   -1.2260   -0.2330 C   0  0  0  0  0  0  0  0  0  0  0  0
   -1.4390   -1.8550   -1.2900 C   0  0  0  0  0  0  0  0  0  0  0  0
   -0.7420   -2.4030   -2.3360 F   0  0  0  0  0  0  0  0  0  0  0  0
    0.6330   -1.1660   -0.2240 C   0  0  0  0  0  0  0  0  0  0  0  0
    1.4570   -1.7140   -1.3330 C   0  0  0  0  0  0  0  0  0  0  0  0
    1.3680   -0.5320    0.8370 N   0  0  0  0  0  0  0  0  0  0  0  0
    2.5970    0.1580    0.5840 C   0  0  0  0  0  0  0  0  0  0  0  0
    2.7730    0.7510   -0.5150 N   0  0  0  0  0  0  0  0  0  0  0  0
    3.6340    0.1860    1.6040 N   0  0  0  0  0  0  0  0  0  0  0  0
    5.3500    0.1930    1.1600 P   0  0  0  0  0  0  0  0  0  0  0  0
    6.0950    1.7090    1.4210 O   0  0  0  0  0  0  0  0  0  0  0  0
    5.5260   -0.2320   -0.5280 O   0  0  0  0  0  0  0  0  0  0  0  0
  1  2  1  0
  2  3  1  0
  3  4  1  0
  4  5  1  0
  4  9  2  0
  5  6  1  0
  6  7  2  0
  7  8  1  0
  7  9  1  0
  9 10  1  0
 10 11  1  0
 10 13  2  3
 11 12  1  0
 13 14  1  0
 13 15  1  0
 15 16  1  0
 16 17  2  0
 16 18  1  0
 18 19  1  0
 19 20  1  0
 19 21  1  0
M  END
