
     RDKit          3D

 22 23  0  0  0  0  0  0  0  0999 V2000
    0.2820   -2.0740    1.6790 N   0  0  0  0  0  0  0  0  0  0  0  0
    0.7470   -1.0120    0.8570 C   0  0  0  0  0  0  0  0  0  0  0  0
    1.2290    0.0300    1.4530 N   0  0  0  0  0  0  0  0  0  0  0  0
    1.7300    1.1660    0.7940 C   0  0  0  0  0  0  0  0  0  0  0  0
    0.9090    1.9490    0.2500 O   0  0  0  0  0  0  0  0  0  0  0  0
    3.5350    1.4650    0.7480 P   0  0  0  0  0  0  0  0  0  0  0  0
    4.3550    0.7000    2.0450 O   0  0  0  0  0  0  0  0  0  0  0  0
    4.2050    1.0490   -0.7950 O   0  0  0  0  0  0  0  0  0  0  0  0
    0.7470   -1.0580   -0.5540 N   0  0  0  0  0  0  0  0  0  0  0  0
    1.7940   -1.5890   -1.2940 C   0  0  0  0  0  0  0  0  0  0  0  0
    1.5090   -1.4880   -2.6270 C   0  0  0  0  0  0  0  0  0  0  0  0
    0.3140   -0.9070   -2.6880 N   0  0  0  0  0  0  0  0  0  0  0  0
   -0.1580   -0.6410   -1.4190 C   0  0  0  0  0  0  0  0  0  0  0  0
   -1.4460   -0.0010   -1.2430 C   0  0  0  0  0  0  0  0  0  0  0  0
   -2.2420    0.4230   -2.3160 C   0  0  0  0  0  0  0  0  0  0  0  0
   -3.3700    0.9670   -1.8460 N   0  0  0  0  0  0  0  0  0  0  0  0
   -3.3340    0.9110   -0.5120 C   0  0  0  0  0  0  0  0  0  0  0  0
   -2.1400    0.3090   -0.0930 C   0  0  0  0  0  0  0  0  0  0  0  0
   -1.7610    0.0830    1.2170 O   0  0  0  0  0  0  0  0  0  0  0  0
   -2.5140    0.4220    2.3120 C   0  0  1  0  0  0  0  0  0  0  0  0
   -2.8660   -0.7070    3.0510 F   0  0  0  0  0  0  0  0  0  0  0  0
   -1.8850    1.3530    3.1360 F   0  0  0  0  0  0  0  0  0  0  0  0
  1  2  1  0
  2  3  2  3
  2  9  1  0
  3  4  1  0
  4  5  2  0
  4  6  1  0
  6  7  1  0
  6  8  1  0
  9 10  1  0
  9 13  1  0
 10 11  2  0
 11 12  1  0
 12 13  2  0
 13 14  1  0
 14 15  2  0
 14 18  1  0
 15 16  1  0
 16 17  1  0
 17 18  2  0
 18 19  1  0
 19 20  1  0
 20 21  1  1
 20 22  1  0
M  END
