
     RDKit          3D

 11 10  0  0  0  0  0  0  0  0999 V2000
    1.4770   -2.0870   -0.3730 O   0  0  0  0  0  0  0  0  0  0  0  0
    2.0490   -0.9630   -0.3140 C   0  0  0  0  0  0  0  0  0  0  0  0
    3.5240   -0.9670   -0.4560 C   0  0  0  0  0  0  0  0  0  0  0  0
    4.0140    0.3330   -0.3710 O   0  0  0  0  0  0  0  0  0  0  0  0
    1.2750    0.1390   -0.1270 O   0  0  0  0  0  0  0  0  0  0  0  0
   -0.0380    0.0100   -0.0140 O   0  0  0  0  0  0  0  0  0  0  0  0
   -0.7330    1.1910   -0.1770 C   0  0  0  0  0  0  0  0  0  0  0  0
   -2.2060    0.8630   -0.0170 C   0  0  0  0  0  0  0  0  0  0  0  0
   -2.5720   -0.0790   -1.0020 O   0  0  0  0  0  0  0  0  0  0  0  0
   -3.8440   -0.3790   -0.8850 O   0  0  0  0  0  0  0  0  0  0  0  0
   -4.1740   -0.6190    0.3660 O   0  0  0  0  0  0  0  0  0  0  0  0
  1  2  2  0
  2  3  1  0
  2  5  1  0
  3  4  1  0
  5  6  1  0
  6  7  1  0
  7  8  1  0
  8  9  1  0
  9 10  1  0
 10 11  1  0
M  END
