
     RDKit          3D

 11 11  0  0  0  0  0  0  0  0999 V2000
    4.3990    0.3150   -1.0720 O   0  0  0  0  0  0  0  0  0  0  0  0
    3.4940    0.8370   -0.2880 O   0  0  0  0  0  0  0  0  0  0  0  0
    2.7890   -0.1080    0.2990 O   0  0  0  0  0  0  0  0  0  0  0  0
    1.6400   -0.1880   -0.3400 O   0  0  0  0  0  0  0  0  0  0  0  0
    0.6080    0.0790    0.5340 C   0  0  2  0  0  0  0  0  0  0  0  0
   -0.2600   -1.1440    0.6910 C   0  0  0  0  0  0  0  0  0  0  0  0
   -1.1990   -1.2940   -0.2960 O   0  0  0  0  0  0  0  0  0  0  0  0
   -2.3600   -0.5530   -0.0600 C   0  0  0  0  0  0  0  0  0  0  0  0
   -2.1530    0.8840   -0.4120 C   0  0  0  0  0  0  0  0  0  0  0  0
   -0.8390    1.0470   -0.8970 O   0  0  0  0  0  0  0  0  0  0  0  0
   -0.0740    1.1990    0.1350 O   0  0  0  0  0  0  0  0  0  0  0  0
  1  2  1  0
  2  3  1  0
  3  4  1  0
  5  4  1  6
  5  6  1  0
  5 11  1  0
  6  7  1  0
  7  8  1  0
  8  9  1  0
  9 10  1  0
 10 11  1  0
M  END
