
     RDKit          3D

 13 14  0  0  0  0  0  0  0  0999 V2000
   -2.1810    0.7440    0.8970 C   0  0  0  0  0  0  0  0  0  0  0  0
   -1.1640    0.2520   -0.1600 C   0  0  2  0  0  0  0  0  0  0  0  0
   -1.8690   -0.8350   -0.9720 C   0  0  0  0  0  0  0  0  0  0  0  0
   -2.0200   -1.8920    0.1030 C   0  0  0  0  0  0  0  0  0  0  0  0
   -1.0020   -1.7490    0.9760 C   0  0  0  0  0  0  0  0  0  0  0  0
   -0.1590   -0.6120    0.5060 C   0  0  0  0  0  0  0  0  0  0  0  0
    1.0920   -0.4840    0.5690 N   0  0  0  0  0  0  0  0  0  0  0  0
    1.8920    0.5040    0.0170 N   0  0  0  0  0  0  0  0  0  0  0  0
    3.3340    0.5430    0.1710 C   0  0  0  0  0  0  0  0  0  0  0  0
    3.9240   -0.6600   -0.3840 N   0  0  0  0  0  0  0  0  0  0  0  0
    0.9560    1.7450   -0.9170 P   0  0  0  0  0  0  0  0  0  0  0  0
   -0.6930    1.3970   -0.8800 C   0  0  0  0  0  0  0  0  0  0  0  0
   -1.6450    2.1980   -1.5380 O   0  0  0  0  0  0  0  0  0  0  0  0
  2  1  1  1
  2  3  1  0
  2  6  1  0
  2 12  1  0
  3  4  1  0
  4  5  2  0
  5  6  1  0
  6  7  2  0
  7  8  1  0
  8  9  1  0
  8 11  1  0
  9 10  1  0
 11 12  2  0
 12 13  1  0
M  END
