
     RDKit          3D

 28 30  0  0  0  0  0  0  0  0999 V2000
   -6.4340   -2.1300   -1.9790 N   0  0  0  0  0  0  0  0  0  0  0  0
   -5.6740   -1.7510   -0.8520 C   0  0  0  0  0  0  0  0  0  0  0  0
   -4.4880   -1.1320   -0.9260 N   0  0  0  0  0  0  0  0  0  0  0  0
   -3.7780   -0.7790    0.1590 C   0  0  0  0  0  0  0  0  0  0  0  0
   -4.2590   -1.0500    1.4230 C   0  0  0  0  0  0  0  0  0  0  0  0
   -3.3590   -0.5960    2.3400 N   0  0  0  0  0  0  0  0  0  0  0  0
   -2.3540   -0.0600    1.6260 C   0  0  0  0  0  0  0  0  0  0  0  0
   -2.5750   -0.1540    0.3200 N   0  0  0  0  0  0  0  0  0  0  0  0
   -1.7410    0.2990   -0.7680 C   0  0  2  0  0  0  0  0  0  0  0  0
   -0.4720   -0.2110   -0.7240 O   0  0  0  0  0  0  0  0  0  0  0  0
    0.4410    0.8080   -0.7870 C   0  0  2  0  0  0  0  0  0  0  0  0
    1.7140    0.4420   -0.0960 C   0  0  0  0  0  0  0  0  0  0  0  0
    2.6660    1.4190   -0.1240 O   0  0  0  0  0  0  0  0  0  0  0  0
    4.0000    0.8480    0.6890 P   0  0  0  0  0  0  0  0  0  0  0  0
    5.0250    1.9680    1.3930 O   0  0  0  0  0  0  0  0  0  0  0  0
    4.8280    0.8330   -0.5840 O   0  0  0  0  0  0  0  0  0  0  0  0
    4.1760   -0.7250    0.9660 O   0  0  0  0  0  0  0  0  0  0  0  0
    5.4370   -1.4670    0.5950 P   0  0  0  0  0  0  0  0  0  0  0  0
    4.9140   -1.5490   -0.9570 O   0  0  0  0  0  0  0  0  0  0  0  0
    6.7050   -2.2800    0.2430 O   0  0  0  0  0  0  0  0  0  0  0  0
    6.3350   -0.2040    1.1590 O   0  0  0  0  0  0  0  0  0  0  0  0
   -0.2450    1.9970   -0.1860 C   0  0  1  0  0  0  0  0  0  0  0  0
    0.2040    3.2040   -0.7100 O   0  0  0  0  0  0  0  0  0  0  0  0
   -1.6620    1.7970   -0.6880 C   0  0  1  0  0  0  0  0  0  0  0  0
   -1.7220    2.3350   -1.9770 O   0  0  0  0  0  0  0  0  0  0  0  0
   -5.4780   -1.6880    1.5010 C   0  0  0  0  0  0  0  0  0  0  0  0
   -5.9380   -1.9460    2.6260 O   0  0  0  0  0  0  0  0  0  0  0  0
   -6.1600   -2.0250    0.3920 N   0  0  0  0  0  0  0  0  0  0  0  0
  1  2  1  0
  2  3  1  0
  2 28  2  0
  3  4  1  0
  4  5  2  0
  4  8  1  0
  5  6  1  0
  5 26  1  0
  6  7  2  0
  7  8  1  0
  9  8  1  1
  9 10  1  0
  9 24  1  0
 10 11  1  0
 11 12  1  1
 11 22  1  0
 12 13  1  0
 13 14  1  0
 14 15  1  0
 14 16  1  0
 14 17  1  0
 17 18  1  0
 18 19  1  0
 18 20  1  0
 18 21  1  0
 22 23  1  6
 22 24  1  0
 24 25  1  6
 26 27  2  0
 26 28  1  0
M  CHG  1  28   1
M  END
