
     RDKit          3D

 11 10  0  0  0  0  0  0  0  0999 V2000
    3.3670   -0.4090   -0.6530 O   0  0  0  0  0  0  0  0  0  0  0  0
    2.9000    0.5790   -0.0440 C   0  0  0  0  0  0  0  0  0  0  0  0
    3.7070    1.6500    0.3550 O   0  0  0  0  0  0  0  0  0  0  0  0
    1.5300    0.5670    0.2220 O   0  0  0  0  0  0  0  0  0  0  0  0
    0.7410   -0.5210   -0.1890 C   0  0  0  0  0  0  0  0  0  0  0  0
   -0.6850   -0.2500    0.2370 C   0  0  2  0  0  0  0  0  0  0  0  0
   -1.5190   -1.4540   -0.1330 C   0  0  0  0  0  0  0  0  0  0  0  0
   -1.5270   -1.6030   -1.5140 O   0  0  0  0  0  0  0  0  0  0  0  0
   -1.1870    0.8960   -0.3220 O   0  0  0  0  0  0  0  0  0  0  0  0
   -1.5260    1.7500    0.6240 O   0  0  0  0  0  0  0  0  0  0  0  0
   -2.7620    2.1910    0.4610 O   0  0  0  0  0  0  0  0  0  0  0  0
  1  2  2  0
  2  3  1  0
  2  4  1  0
  4  5  1  0
  6  5  1  6
  6  7  1  0
  6  9  1  0
  7  8  1  0
  9 10  1  0
 10 11  1  0
M  END
