
     RDKit          3D

 13 13  0  0  0  0  0  0  0  0999 V2000
    1.3220   -1.6960    0.1140 C   0  0  0  0  0  0  0  0  0  0  0  0
    0.8790   -0.5060    0.3930 C   0  0  0  0  0  0  0  0  0  0  0  0
    1.8230    0.5580    0.4950 N   0  0  0  0  0  0  0  0  0  0  0  0
    2.8810    0.6440   -0.1900 C   0  0  0  0  0  0  0  0  0  0  0  0
    3.7970    1.7870   -0.0110 C   0  0  0  0  0  0  0  0  0  0  0  0
   -0.5400   -0.1440    0.5870 C   0  0  0  0  0  0  0  0  0  0  0  0
   -0.7740    0.7700    1.5570 N   0  0  0  0  0  0  0  0  0  0  0  0
   -1.9140    1.2570    1.9090 O   0  0  0  0  0  0  0  0  0  0  0  0
   -3.2520    0.7110    1.0900 P   0  0  0  0  0  0  0  0  0  0  0  0
   -4.8910    1.2310    1.3300 O   0  0  0  0  0  0  0  0  0  0  0  0
   -2.8430   -0.4240   -0.0960 N   0  0  0  0  0  0  0  0  0  0  0  0
   -1.5110   -0.7140   -0.2010 C   0  0  0  0  0  0  0  0  0  0  0  0
   -1.1790   -1.6870   -1.2830 C   0  0  0  0  0  0  0  0  0  0  0  0
  1  2  2  0
  2  3  1  0
  2  6  1  0
  3  4  2  3
  4  5  1  0
  6  7  1  0
  6 12  2  0
  7  8  1  0
  8  9  1  0
  9 10  1  0
  9 11  1  0
 11 12  1  0
 12 13  1  0
M  END
