
     RDKit          3D

 13 14  0  0  0  0  0  0  0  0999 V2000
    3.8670   -1.2590   -0.1510 C   0  0  0  0  0  0  0  0  0  0  0  0
    2.8520   -0.1270    0.0070 C   0  0  0  0  0  0  0  0  0  0  0  0
    1.5850   -0.6390   -0.1860 O   0  0  0  0  0  0  0  0  0  0  0  0
    0.7020    0.3630   -0.0450 N   0  0  0  0  0  0  0  0  0  0  0  0
    1.1060    1.6970    0.0780 N   0  0  0  0  0  0  0  0  0  0  0  0
    0.3150    2.4330   -0.7310 O   0  0  0  0  0  0  0  0  0  0  0  0
   -0.9770    2.5620   -0.2200 C   0  0  0  0  0  0  0  0  0  0  0  0
   -1.5550    1.2380    0.0420 N   0  0  0  0  0  0  0  0  0  0  0  0
   -2.9040    0.8250    0.3690 C   0  0  0  0  0  0  0  0  0  0  0  0
   -2.8840   -0.6480    0.0170 C   0  0  0  0  0  0  0  0  0  0  0  0
   -1.4410   -1.0030   -0.0320 C   0  0  0  0  0  0  0  0  0  0  0  0
   -0.8780   -2.3710   -0.0910 C   0  0  0  0  0  0  0  0  0  0  0  0
   -0.6970    0.1050   -0.0170 C   0  0  0  0  0  0  0  0  0  0  0  0
  1  2  1  0
  2  3  1  0
  3  4  1  0
  4  5  1  0
  4 13  1  0
  5  6  1  0
  6  7  1  0
  7  8  1  0
  8  9  1  0
  8 13  1  0
  9 10  1  0
 10 11  1  0
 11 12  1  0
 11 13  2  0
M  END
