
     RDKit          3D

 27 30  0  0  0  0  0  0  0  0999 V2000
   -2.8120    4.4860   -0.1430 C   0  0  0  0  0  0  0  0  0  0  0  0
   -2.4180    3.4020   -1.0970 C   0  0  0  0  0  0  0  0  0  0  0  0
   -2.5310    2.0640   -0.4770 N   0  0  0  0  0  0  0  0  0  0  0  0
   -1.3420    1.6430    0.2270 C   0  0  0  0  0  0  0  0  0  0  0  0
   -0.4570    0.8120   -0.6030 C   0  0  1  0  0  0  0  0  0  0  0  0
   -0.0520    1.6050   -1.7760 N   0  0  0  0  0  0  0  0  0  0  0  0
    0.7630    0.3110    0.0230 C   0  0  0  0  0  0  0  0  0  0  0  0
    1.0060    0.3360    1.3770 C   0  0  0  0  0  0  0  0  0  0  0  0
    2.1690   -0.1490    1.8990 C   0  0  0  0  0  0  0  0  0  0  0  0
    3.1290   -0.6760    1.0880 N   0  0  0  0  0  0  0  0  0  0  0  0
    4.2410   -1.1290    1.6920 C   0  0  0  0  0  0  0  0  0  0  0  0
    5.2420   -1.6730    0.8900 C   0  0  0  0  0  0  0  0  0  0  0  0
    5.0550   -1.7250   -0.4680 C   0  0  0  0  0  0  0  0  0  0  0  0
    3.8970   -1.2500   -1.0640 C   0  0  0  0  0  0  0  0  0  0  0  0
    2.9200   -0.7140   -0.2400 C   0  0  0  0  0  0  0  0  0  0  0  0
    1.7310   -0.2210   -0.7980 C   0  0  0  0  0  0  0  0  0  0  0  0
    6.1330   -2.2790   -1.0130 C   0  0  0  0  0  0  0  0  0  0  0  0
    7.0430   -2.5950    0.0150 N   0  0  0  0  0  0  0  0  0  0  0  0
    6.4000   -2.1780    1.1950 C   0  0  0  0  0  0  0  0  0  0  0  0
   -3.7450    1.4150   -0.6030 C   0  0  0  0  0  0  0  0  0  0  0  0
   -4.6770    2.0700   -1.2140 O   0  0  0  0  0  0  0  0  0  0  0  0
   -4.1410    0.0960   -0.1510 C   0  0  0  0  0  0  0  0  0  0  0  0
   -3.3950   -0.8740    0.4700 C   0  0  0  0  0  0  0  0  0  0  0  0
   -4.2200   -1.9800    0.7150 C   0  0  0  0  0  0  0  0  0  0  0  0
   -5.4360   -1.6190    0.2230 C   0  0  0  0  0  0  0  0  0  0  0  0
   -6.6470   -2.5160    0.2710 C   0  0  0  0  0  0  0  0  0  0  0  0
   -5.3560   -0.4380   -0.2610 O   0  0  0  0  0  0  0  0  0  0  0  0
  1  2  1  0
  2  3  1  0
  3  4  1  0
  3 20  1  0
  4  5  1  0
  5  6  1  6
  5  7  1  0
  7  8  1  0
  7 16  2  0
  8  9  2  0
  9 10  1  0
 10 11  2  0
 10 15  1  0
 11 12  1  0
 12 13  1  0
 12 19  2  0
 13 14  1  0
 13 17  2  0
 14 15  2  0
 15 16  1  0
 17 18  1  0
 18 19  1  0
 20 21  2  0
 20 22  1  0
 22 23  2  0
 22 27  1  0
 23 24  1  0
 24 25  2  0
 25 26  1  0
 25 27  1  0
M  CHG  2  10   1  18   1
M  END
