
     RDKit          3D

 10  9  0  0  0  0  0  0  0  0999 V2000
   -2.0830    0.2000   -0.1910 N   0  0  0  0  0  0  0  0  0  0  0  0
   -1.1910    0.0060    0.9420 C   0  0  0  0  0  0  0  0  0  0  0  0
    0.0540   -0.6960    0.6110 C   0  0  0  0  0  0  0  0  0  0  0  0
    0.1900   -1.9030    1.2440 C   0  0  0  0  0  0  0  0  0  0  0  0
   -0.7620   -2.3760    2.0960 O   0  0  0  0  0  0  0  0  0  0  0  0
    1.0970   -0.2800   -0.2970 C   0  0  0  0  0  0  0  0  0  0  0  0
    2.2070   -1.2130   -0.4980 N   0  0  0  0  0  0  0  0  0  0  0  0
    1.1780    0.8100   -0.9570 C   0  0  0  0  0  0  0  0  0  0  0  0
    0.3550    1.9990   -1.0760 C   0  0  0  0  0  0  0  0  0  0  0  0
   -0.0750    2.1800   -2.3930 O   0  0  0  0  0  0  0  0  0  0  0  0
  1  2  1  0
  2  3  1  0
  3  4  2  3
  3  6  1  0
  4  5  1  0
  6  7  1  0
  6  8  2  3
  8  9  1  0
  9 10  1  0
M  END
