
     RDKit          3D

  9  8  0  0  0  0  0  0  0  0999 V2000
   -2.4920    1.4210    0.6440 N   0  0  0  0  0  0  0  0  0  0  0  0
   -2.0000    1.0700   -0.6530 C   0  0  0  0  0  0  0  0  0  0  0  0
   -2.7550    1.4490   -1.7970 N   0  0  0  0  0  0  0  0  0  0  0  0
   -0.8870    0.4180   -0.8130 C   0  0  0  0  0  0  0  0  0  0  0  0
   -0.0550   -0.0050    0.3190 C   0  0  0  0  0  0  0  0  0  0  0  0
    1.0780   -0.6700    0.1280 C   0  0  0  0  0  0  0  0  0  0  0  0
    1.8930   -1.0840    1.2460 C   0  0  0  0  0  0  0  0  0  0  0  0
    3.0050   -1.7370    1.0550 C   0  0  0  0  0  0  0  0  0  0  0  0
    3.4960   -2.0850   -0.2000 O   0  0  0  0  0  0  0  0  0  0  0  0
  1  2  1  0
  2  3  1  0
  2  4  2  3
  4  5  1  0
  5  6  2  3
  6  7  1  0
  7  8  2  3
  8  9  1  0
M  END
