
     RDKit          3D

 26 28  0  0  0  0  0  0  0  0999 V2000
    5.4990    2.1760   -0.6460 C   0  0  0  0  0  0  0  0  0  0  0  0
    4.1140    1.6700   -0.4950 C   0  0  0  0  0  0  0  0  0  0  0  0
    3.0880    2.5760   -0.6000 O   0  0  0  0  0  0  0  0  0  0  0  0
    3.9100    0.4070   -0.2710 C   0  0  0  0  0  0  0  0  0  0  0  0
    5.1190   -0.4520   -0.1830 C   0  0  0  0  0  0  0  0  0  0  0  0
    5.2070   -1.7940   -0.1370 C   0  0  0  0  0  0  0  0  0  0  0  0
    4.0160   -2.6830   -0.1710 C   0  0  0  0  0  0  0  0  0  0  0  0
    3.1160   -2.4040    0.9680 C   0  0  0  0  0  0  0  0  0  0  0  0
    2.5940   -1.0490    1.1380 C   0  0  0  0  0  0  0  0  0  0  0  0
    2.5640   -0.1880   -0.1070 C   0  0  1  0  0  0  0  0  0  0  0  0
    1.4240    0.7410   -0.0970 C   0  0  0  0  0  0  0  0  0  0  0  0
    0.1510   -0.0530    0.0480 C   0  0  0  0  0  0  0  0  0  0  0  0
   -0.0390   -1.3770    0.1070 N   0  0  0  0  0  0  0  0  0  0  0  0
   -1.3290   -1.6410    0.2370 N   0  0  0  0  0  0  0  0  0  0  0  0
   -1.9550   -0.4480    0.2580 C   0  0  0  0  0  0  0  0  0  0  0  0
   -3.4450   -0.3390    0.3950 C   0  0  1  0  0  0  0  0  0  0  0  0
   -4.0320   -1.1110   -0.7930 C   0  0  0  0  0  0  0  0  0  0  0  0
   -4.2960   -2.5470   -0.4020 C   0  0  0  0  0  0  0  0  0  0  0  0
   -5.4090   -2.5960    0.5320 N   0  0  0  0  0  0  0  0  0  0  0  0
   -5.2260   -1.6290    1.5950 C   0  0  0  0  0  0  0  0  0  0  0  0
   -3.8140   -1.0920    1.6530 C   0  0  0  0  0  0  0  0  0  0  0  0
   -1.0660    0.5250    0.1440 N   0  0  0  0  0  0  0  0  0  0  0  0
   -1.3310    1.9360    0.1250 C   0  0  0  0  0  0  0  0  0  0  0  0
   -1.5640    2.4310   -1.2860 C   0  0  0  0  0  0  0  0  0  0  0  0
   -1.8380    3.9310   -1.2300 C   0  0  0  0  0  0  0  0  0  0  0  0
   -0.7070    4.5390   -0.6620 O   0  0  0  0  0  0  0  0  0  0  0  0
  1  2  1  0
  2  3  1  0
  2  4  2  3
  4  5  1  0
  4 10  1  0
  5  6  2  0
  6  7  1  0
  7  8  1  0
  8  9  1  0
  9 10  1  0
 10 11  1  1
 11 12  1  0
 12 13  2  0
 12 22  1  0
 13 14  1  0
 14 15  2  0
 16 15  1  6
 15 22  1  0
 16 17  1  0
 16 21  1  0
 17 18  1  0
 18 19  1  0
 19 20  1  0
 20 21  1  0
 22 23  1  0
 23 24  1  0
 24 25  1  0
 25 26  1  0
M  CHG  1  19   1
M  END
