
     RDKit          3D

 27 29  0  0  0  0  0  0  0  0999 V2000
    6.3530    2.7770    1.4200 C   0  0  0  0  0  0  0  0  0  0  0  0
    5.7180    2.2400    0.1820 N   0  0  1  0  0  0  0  0  0  0  0  0
    6.4740    1.1830   -0.3280 C   0  0  0  0  0  0  0  0  0  0  0  0
    5.9410    0.0160   -0.5320 C   0  0  0  0  0  0  0  0  0  0  0  0
    4.5770   -0.2230   -0.2450 N   0  0  0  0  0  0  0  0  0  0  0  0
    3.7950    0.6600    0.2200 C   0  0  0  0  0  0  0  0  0  0  0  0
    2.3880    0.5050    0.5550 C   0  0  0  0  0  0  0  0  0  0  0  0
    1.5160   -0.3970    0.6320 C   0  0  0  0  0  0  0  0  0  0  0  0
    1.5090   -1.8160    0.4250 C   0  0  0  0  0  0  0  0  0  0  0  0
    2.5400   -2.6840    0.7120 C   0  0  0  0  0  0  0  0  0  0  0  0
    2.4730   -4.0250    0.4270 C   0  0  0  0  0  0  0  0  0  0  0  0
    1.3760   -4.5960   -0.1620 C   0  0  0  0  0  0  0  0  0  0  0  0
    0.3290   -3.7230   -0.4540 C   0  0  0  0  0  0  0  0  0  0  0  0
    0.3560   -2.3770   -0.1870 C   0  0  0  0  0  0  0  0  0  0  0  0
   -0.6830   -1.4890   -0.5450 N   0  0  0  0  0  0  0  0  0  0  0  0
   -1.9780   -1.8360   -1.0080 C   0  0  0  0  0  0  0  0  0  0  0  0
   -2.2930   -3.0260   -1.1230 O   0  0  0  0  0  0  0  0  0  0  0  0
   -2.9240   -0.7850   -1.3430 N   0  0  0  0  0  0  0  0  0  0  0  0
   -4.2440   -1.1640   -1.8150 C   0  0  0  0  0  0  0  0  0  0  0  0
   -5.0540    0.0650   -2.1010 C   0  0  0  0  0  0  0  0  0  0  0  0
   -5.1820    0.8640   -0.8480 C   0  0  0  0  0  0  0  0  0  0  0  0
   -4.7260    2.0950   -0.7920 C   0  0  0  0  0  0  0  0  0  0  0  0
   -4.8580    2.8810    0.4560 C   0  0  0  0  0  0  0  0  0  0  0  0
   -5.0470    2.0340    1.5400 O   0  0  0  0  0  0  0  0  0  0  0  0
   -6.2100    1.2910    1.3110 C   0  0  0  0  0  0  0  0  0  0  0  0
   -5.8290    0.2270    0.3100 C   0  0  0  0  0  0  0  0  0  0  0  0
    4.3780    2.0530    0.4630 C   0  0  0  0  0  0  0  0  0  0  0  0
  2  1  1  1
  2  3  1  0
  2 27  1  0
  3  4  2  0
  4  5  1  0
  5  6  2  0
  6  7  1  0
  6 27  1  0
  7  8  2  3
  8  9  1  0
  9 10  2  0
  9 14  1  0
 10 11  1  0
 11 12  2  0
 12 13  1  0
 13 14  2  0
 14 15  1  0
 15 16  1  0
 16 17  2  0
 16 18  1  0
 18 19  1  0
 19 20  1  0
 20 21  1  0
 21 22  2  0
 21 26  1  0
 22 23  1  0
 23 24  1  0
 24 25  1  0
 25 26  1  0
M  CHG  2   2   1   5   1
M  END
