
     RDKit          3D

 11 11  0  0  0  0  0  0  0  0999 V2000
    2.6470    0.7460   -0.9800 O   0  0  0  0  0  0  0  0  0  0  0  0
    2.0680   -0.0050   -0.1590 C   0  0  0  0  0  0  0  0  0  0  0  0
    2.8510   -0.8060    0.6390 O   0  0  0  0  0  0  0  0  0  0  0  0
    0.6120    0.0200   -0.1040 C   0  0  0  0  0  0  0  0  0  0  0  0
   -0.0950   -0.7770    0.7720 C   0  0  0  0  0  0  0  0  0  0  0  0
   -1.4820   -0.7350    0.8050 C   0  0  0  0  0  0  0  0  0  0  0  0
   -2.1380   -1.4580    1.6000 O   0  0  0  0  0  0  0  0  0  0  0  0
   -2.1670    0.0820   -0.0150 N   0  0  0  0  0  0  0  0  0  0  0  0
   -1.4600    0.8520   -0.8630 C   0  0  0  0  0  0  0  0  0  0  0  0
   -2.1310    1.6090   -1.6200 O   0  0  0  0  0  0  0  0  0  0  0  0
   -0.1020    0.8260   -0.9110 N   0  0  0  0  0  0  0  0  0  0  0  0
  1  2  2  0
  2  3  1  0
  2  4  1  0
  4  5  2  0
  4 11  1  0
  5  6  1  0
  6  7  2  0
  6  8  1  0
  8  9  1  0
  9 10  2  0
  9 11  1  0
M  END
