
     RDKit          3D

  9  8  0  0  0  0  0  0  0  0999 V2000
   -1.7750    0.6280   -2.7920 N   0  0  0  0  0  0  0  0  0  0  0  0
   -0.6400   -0.0780   -2.4250 C   0  0  0  0  0  0  0  0  0  0  0  0
   -0.4510   -0.2060   -1.1320 C   0  0  0  0  0  0  0  0  0  0  0  0
   -0.3940   -0.3200    0.1820 C   0  0  0  0  0  0  0  0  0  0  0  0
    0.3190    0.7290    0.8090 C   0  0  0  0  0  0  0  0  0  0  0  0
    1.5990    0.6020    1.0980 C   0  0  0  0  0  0  0  0  0  0  0  0
    2.3680    1.6090    1.7230 N   0  0  0  0  0  0  0  0  0  0  0  0
   -1.0550   -1.4710    0.7530 C   0  0  0  0  0  0  0  0  0  0  0  0
   -0.1490   -2.2880    1.4620 O   0  0  0  0  0  0  0  0  0  0  0  0
  1  2  1  0
  2  3  2  0
  3  4  2  0
  4  5  1  0
  4  8  1  0
  5  6  2  3
  6  7  1  0
  8  9  1  0
M  END
