
     RDKit          3D

 27 29  0  0  0  0  0  0  0  0999 V2000
    2.9150   -3.6320   -0.2520 C   0  0  0  0  0  0  0  0  0  0  0  0
    1.5970   -3.1680    0.2160 C   0  0  0  0  0  0  0  0  0  0  0  0
    1.1650   -1.7440   -0.0570 C   0  0  1  0  0  0  0  0  0  0  0  0
   -0.2510   -1.7090    0.5940 C   0  0  0  0  0  0  0  0  0  0  0  0
   -0.5320   -2.3870    1.5720 O   0  0  0  0  0  0  0  0  0  0  0  0
   -1.2080   -0.8460   -0.0170 N   0  0  0  0  0  0  0  0  0  0  0  0
   -2.5960   -0.7770    0.3520 C   0  0  0  0  0  0  0  0  0  0  0  0
   -3.3160   -1.9930    0.4370 C   0  0  0  0  0  0  0  0  0  0  0  0
   -4.6770   -1.9840    0.2120 C   0  0  0  0  0  0  0  0  0  0  0  0
   -5.3230   -0.8380   -0.0840 C   0  0  0  0  0  0  0  0  0  0  0  0
   -6.7730   -0.9160   -0.3940 C   0  0  0  0  0  0  0  0  0  0  0  0
   -4.6230    0.3430   -0.1550 C   0  0  0  0  0  0  0  0  0  0  0  0
   -3.2660    0.4100    0.0630 C   0  0  0  0  0  0  0  0  0  0  0  0
   -2.6440    1.7270    0.3070 C   0  0  0  0  0  0  0  0  0  0  0  0
   -3.3180    2.7830   -0.3180 N   0  0  0  0  0  0  0  0  0  0  0  0
   -4.2600    3.6850    0.2610 C   0  0  0  0  0  0  0  0  0  0  0  0
    1.9690   -0.7170    0.4470 N   0  0  2  0  0  0  0  0  0  0  0  0
    1.8810    0.3470   -0.6030 C   0  0  0  0  0  0  0  0  0  0  0  0
    2.2760    1.6260    0.0960 C   0  0  0  0  0  0  0  0  0  0  0  0
    3.7500    1.5700   -0.0510 C   0  0  0  0  0  0  0  0  0  0  0  0
    4.7830    2.2920   -0.4460 C   0  0  0  0  0  0  0  0  0  0  0  0
    5.9670    1.5020   -0.3650 C   0  0  0  0  0  0  0  0  0  0  0  0
    7.3170    1.9460   -0.6950 C   0  0  0  0  0  0  0  0  0  0  0  0
    7.4880    3.1210   -1.1150 O   0  0  0  0  0  0  0  0  0  0  0  0
    5.5420    0.3090    0.0980 N   0  0  0  0  0  0  0  0  0  0  0  0
    4.2210    0.2910    0.3070 C   0  0  0  0  0  0  0  0  0  0  0  0
    3.2910   -0.7770    0.8430 C   0  0  0  0  0  0  0  0  0  0  0  0
  1  2  1  0
  3  2  1  1
  3  4  1  0
  3 17  1  0
  4  5  2  0
  4  6  1  0
  6  7  1  0
  7  8  2  0
  7 13  1  0
  8  9  1  0
  9 10  2  0
 10 11  1  0
 10 12  1  0
 12 13  2  0
 13 14  1  0
 14 15  1  0
 15 16  1  0
 17 18  1  6
 17 27  1  0
 18 19  1  0
 19 20  1  0
 20 21  1  0
 20 26  2  0
 21 22  2  0
 22 23  1  0
 22 25  1  0
 23 24  2  0
 25 26  1  0
 26 27  1  0
M  CHG  2  15   1  17   1
M  END
