
     RDKit          3D

 22 23  0  0  0  0  0  0  0  0999 V2000
    5.1890   -0.8300    0.4000 C   0  0  0  0  0  0  0  0  0  0  0  0
    3.8580   -0.7390   -0.0450 O   0  0  0  0  0  0  0  0  0  0  0  0
    3.1010    0.4080    0.1130 C   0  0  0  0  0  0  0  0  0  0  0  0
    3.6270    1.3950    0.6730 O   0  0  0  0  0  0  0  0  0  0  0  0
    1.7170    0.4480   -0.3710 C   0  0  2  0  0  0  0  0  0  0  0  0
    1.1730    1.6730   -0.1070 O   0  0  0  0  0  0  0  0  0  0  0  0
   -0.1660    1.7560   -0.5310 C   0  0  2  0  0  0  0  0  0  0  0  0
   -0.7240    3.0890   -0.4040 C   0  0  0  0  0  0  0  0  0  0  0  0
   -1.9160    3.2840   -0.7530 O   0  0  0  0  0  0  0  0  0  0  0  0
   -0.0040    4.1610    0.0850 O   0  0  0  0  0  0  0  0  0  0  0  0
   -0.8730    0.6890    0.2230 C   0  0  1  0  0  0  0  0  0  0  0  0
   -0.5420    0.8390    1.6910 C   0  0  0  0  0  0  0  0  0  0  0  0
   -2.3080    0.5310    0.0040 C   0  0  1  0  0  0  0  0  0  0  0  0
   -2.7640    0.8230   -1.2620 O   0  0  0  0  0  0  0  0  0  0  0  0
   -2.5490   -0.9440    0.3570 C   0  0  0  0  0  0  0  0  0  0  0  0
   -1.1970   -1.6270    0.1470 C   0  0  1  0  0  0  0  0  0  0  0  0
   -0.7840   -2.2470    1.3150 O   0  0  0  0  0  0  0  0  0  0  0  0
   -1.4370   -2.7110   -0.9110 C   0  0  0  0  0  0  0  0  0  0  0  0
   -2.4280   -3.5720   -0.4270 O   0  0  0  0  0  0  0  0  0  0  0  0
   -0.2520   -0.6070   -0.3290 C   0  0  1  0  0  0  0  0  0  0  0  0
   -0.1380   -0.5450   -1.7160 O   0  0  0  0  0  0  0  0  0  0  0  0
    1.0070   -0.6200    0.2040 O   0  0  0  0  0  0  0  0  0  0  0  0
  1  2  1  0
  2  3  1  0
  3  4  2  0
  5  3  1  1
  5  6  1  0
  5 22  1  0
  6  7  1  0
  7  8  1  1
  7 11  1  0
  8  9  2  0
  8 10  1  0
 11 12  1  1
 11 13  1  0
 11 20  1  0
 13 14  1  6
 13 15  1  0
 15 16  1  0
 16 17  1  1
 16 18  1  0
 16 20  1  0
 18 19  1  0
 20 21  1  6
 20 22  1  0
M  END
