
     RDKit          3D

 22 23  0  0  0  0  0  0  0  0999 V2000
   -4.7560    0.0340    1.0810 O   0  0  0  0  0  0  0  0  0  0  0  0
   -4.1330    0.9110    0.4540 C   0  0  0  0  0  0  0  0  0  0  0  0
   -4.6700    2.0890   -0.0320 O   0  0  0  0  0  0  0  0  0  0  0  0
   -3.6760    2.8330   -0.7210 C   0  0  0  0  0  0  0  0  0  0  0  0
   -2.4130    2.3830   -0.0150 C   0  0  0  0  0  0  0  0  0  0  0  0
   -2.7010    0.8800    0.0990 C   0  0  1  0  0  0  0  0  0  0  0  0
   -1.9080    0.2730    1.0360 O   0  0  0  0  0  0  0  0  0  0  0  0
   -1.1240   -0.6700    0.4320 C   0  0  1  0  0  0  0  0  0  0  0  0
    0.2160   -0.3870    0.6120 O   0  0  0  0  0  0  0  0  0  0  0  0
    1.0660   -1.1740   -0.1130 C   0  0  2  0  0  0  0  0  0  0  0  0
    2.1140   -1.5690    0.6970 O   0  0  0  0  0  0  0  0  0  0  0  0
    1.6270   -0.3610   -1.2500 C   0  0  0  0  0  0  0  0  0  0  0  0
    2.2780    0.7600   -0.8880 O   0  0  0  0  0  0  0  0  0  0  0  0
    3.3740    0.6970   -0.0900 C   0  0  0  0  0  0  0  0  0  0  0  0
    3.9650    2.1140    0.1220 C   0  0  2  0  0  0  0  0  0  0  0  0
    2.9810    2.8820    0.7210 O   0  0  0  0  0  0  0  0  0  0  0  0
    4.3230    2.6590   -1.0970 O   0  0  0  0  0  0  0  0  0  0  0  0
    0.4510   -2.4260   -0.6690 C   0  0  1  0  0  0  0  0  0  0  0  0
    1.4360   -3.4300   -0.7760 O   0  0  0  0  0  0  0  0  0  0  0  0
   -0.6920   -3.0010    0.0680 C   0  0  0  0  0  0  0  0  0  0  0  0
   -1.3380   -2.0550    1.0480 C   0  0  1  0  0  0  0  0  0  0  0  0
   -0.6930   -2.0560    2.2770 O   0  0  0  0  0  0  0  0  0  0  0  0
  1  2  2  0
  2  3  1  0
  2  6  1  0
  3  4  1  0
  4  5  1  0
  5  6  1  0
  6  7  1  1
  8  7  1  1
  8  9  1  0
  8 21  1  0
  9 10  1  0
 10 11  1  1
 10 12  1  0
 10 18  1  0
 12 13  1  0
 13 14  1  0
 14 15  1  0
 15 16  1  6
 15 17  1  0
 18 19  1  1
 18 20  1  0
 20 21  1  0
 21 22  1  1
M  END
