
     RDKit          3D

 22 22  0  0  0  0  0  0  0  0999 V2000
    4.5050    1.0810   -1.2770 O   0  0  0  0  0  0  0  0  0  0  0  0
    3.3650    0.3060   -1.4560 C   0  0  0  0  0  0  0  0  0  0  0  0
    2.8930   -0.2580   -0.1590 C   0  0  1  0  0  0  0  0  0  0  0  0
    1.7560   -1.0340   -0.2690 O   0  0  0  0  0  0  0  0  0  0  0  0
    0.7020   -0.7050    0.5220 C   0  0  0  0  0  0  0  0  0  0  0  0
    0.1250    0.6770    0.2970 C   0  0  1  0  0  0  0  0  0  0  0  0
   -0.3060    0.7540   -1.0020 O   0  0  0  0  0  0  0  0  0  0  0  0
   -0.8630    1.0660    1.3410 C   0  0  0  0  0  0  0  0  0  0  0  0
   -2.0180    0.3630    1.4120 O   0  0  0  0  0  0  0  0  0  0  0  0
   -2.8600    0.3400    0.3540 C   0  0  1  0  0  0  0  0  0  0  0  0
   -3.0300   -1.1090   -0.1070 C   0  0  0  0  0  0  0  0  0  0  0  0
   -4.3640   -1.5040   -0.1250 O   0  0  0  0  0  0  0  0  0  0  0  0
   -5.1440   -0.7570   -0.9710 C   0  0  0  0  0  0  0  0  0  0  0  0
   -5.0350    0.6890   -0.6270 C   0  0  1  0  0  0  0  0  0  0  0  0
   -6.2570    1.3300   -0.4590 O   0  0  0  0  0  0  0  0  0  0  0  0
   -4.2690    0.8170    0.6750 C   0  0  2  0  0  0  0  0  0  0  0  0
   -4.3030    2.1410    1.0510 O   0  0  0  0  0  0  0  0  0  0  0  0
    3.8860   -1.1320    0.3260 O   0  0  0  0  0  0  0  0  0  0  0  0
    4.3710   -0.7410    1.5690 C   0  0  1  0  0  0  0  0  0  0  0  0
    4.1000   -1.7170    2.5440 O   0  0  0  0  0  0  0  0  0  0  0  0
    5.8480   -0.5070    1.4740 C   0  0  0  0  0  0  0  0  0  0  0  0
    6.4680   -1.6890    1.0690 O   0  0  0  0  0  0  0  0  0  0  0  0
  1  2  1  0
  3  2  1  6
  3  4  1  0
  3 18  1  0
  4  5  1  0
  5  6  1  0
  6  7  1  6
  6  8  1  0
  8  9  1  0
 10  9  1  1
 10 11  1  0
 10 16  1  0
 11 12  1  0
 12 13  1  0
 13 14  1  0
 14 15  1  1
 14 16  1  0
 16 17  1  6
 18 19  1  0
 19 20  1  1
 19 21  1  0
 21 22  1  0
M  END
