
     RDKit          3D

 22 22  0  0  0  0  0  0  0  0999 V2000
   -7.1620   -1.7290   -0.1110 O   0  0  0  0  0  0  0  0  0  0  0  0
   -6.8520   -0.9170    0.7810 C   0  0  0  0  0  0  0  0  0  0  0  0
   -7.7330   -0.4890    1.7680 O   0  0  0  0  0  0  0  0  0  0  0  0
   -5.5610   -0.4200    0.7800 O   0  0  0  0  0  0  0  0  0  0  0  0
   -4.6030   -0.8050   -0.1910 C   0  0  0  0  0  0  0  0  0  0  0  0
   -3.3340   -0.0670    0.1310 C   0  0  2  0  0  0  0  0  0  0  0  0
   -3.6380    1.3070    0.0580 O   0  0  0  0  0  0  0  0  0  0  0  0
   -2.2340   -0.3200   -0.8610 C   0  0  1  0  0  0  0  0  0  0  0  0
   -2.6170    0.0060   -2.1650 O   0  0  0  0  0  0  0  0  0  0  0  0
   -1.1290    0.4260   -0.4550 O   0  0  0  0  0  0  0  0  0  0  0  0
   -0.0190   -0.3830   -0.2200 C   0  0  0  0  0  0  0  0  0  0  0  0
    1.1730    0.4360    0.2190 C   0  0  2  0  0  0  0  0  0  0  0  0
    0.8420    1.1090    1.3980 O   0  0  0  0  0  0  0  0  0  0  0  0
    1.5630    1.4640   -0.8040 C   0  0  0  0  0  0  0  0  0  0  0  0
    2.6570    2.3280   -0.1950 C   0  0  0  0  0  0  0  0  0  0  0  0
    3.7180    1.4780    0.4540 C   0  0  0  0  0  0  0  0  0  0  0  0
    3.5920    0.0640   -0.0430 C   0  0  1  0  0  0  0  0  0  0  0  0
    4.7890   -0.7610    0.3280 C   0  0  2  0  0  0  0  0  0  0  0  0
    4.6250   -2.0530   -0.1510 O   0  0  0  0  0  0  0  0  0  0  0  0
    5.0620   -0.7630    1.6810 O   0  0  0  0  0  0  0  0  0  0  0  0
    2.3110   -0.5280    0.4630 C   0  0  1  0  0  0  0  0  0  0  0  0
    2.3890   -0.7860    1.8410 O   0  0  0  0  0  0  0  0  0  0  0  0
  1  2  2  0
  2  3  1  0
  2  4  1  0
  4  5  1  0
  5  6  1  0
  6  7  1  6
  6  8  1  0
  8  9  1  6
  8 10  1  0
 10 11  1  0
 11 12  1  0
 12 13  1  1
 12 14  1  0
 12 21  1  0
 14 15  1  0
 15 16  1  0
 17 16  1  1
 17 18  1  0
 17 21  1  0
 18 19  1  1
 18 20  1  0
 21 22  1  1
M  END
