
     RDKit          3D

 23 23  0  0  0  0  0  0  0  0999 V2000
   -1.7990   -1.2710    1.0700 C   0  0  0  0  0  0  0  0  0  0  0  0
   -1.8040   -0.3040   -0.0580 C   0  0  1  0  0  0  0  0  0  0  0  0
   -2.1160   -1.0440   -1.2350 O   0  0  0  0  0  0  0  0  0  0  0  0
   -2.9670    0.6300    0.1070 C   0  0  1  0  0  0  0  0  0  0  0  0
   -3.0770    1.6800   -0.9790 C   0  0  0  0  0  0  0  0  0  0  0  0
   -3.2230    1.1280   -2.2460 O   0  0  0  0  0  0  0  0  0  0  0  0
   -4.2410   -0.1790    0.0080 C   0  0  0  0  0  0  0  0  0  0  0  0
   -4.3700   -1.1660    0.9630 O   0  0  0  0  0  0  0  0  0  0  0  0
   -0.5110    0.3380   -0.3320 C   0  0  2  0  0  0  0  0  0  0  0  0
   -0.5570    1.1830   -1.4300 O   0  0  0  0  0  0  0  0  0  0  0  0
    0.5490   -0.6950   -0.6390 C   0  0  0  0  0  0  0  0  0  0  0  0
    1.7390   -0.1850    0.1400 C   0  0  1  0  0  0  0  0  0  0  0  0
    1.7740   -0.6680    1.4570 O   0  0  0  0  0  0  0  0  0  0  0  0
    3.0150   -0.4540   -0.5130 C   0  0  0  0  0  0  0  0  0  0  0  0
    3.2110   -0.1090   -1.6980 O   0  0  0  0  0  0  0  0  0  0  0  0
    4.0190   -1.0940    0.1760 O   0  0  0  0  0  0  0  0  0  0  0  0
    5.2860   -1.3980   -0.3680 C   0  0  0  0  0  0  0  0  0  0  0  0
    5.9370   -0.1460   -0.7740 C   0  0  0  0  0  0  0  0  0  0  0  0
    7.0850   -0.1890   -1.2880 O   0  0  0  0  0  0  0  0  0  0  0  0
    5.3540    1.1040   -0.6230 O   0  0  0  0  0  0  0  0  0  0  0  0
    1.4580    1.1750    0.2590 O   0  0  0  0  0  0  0  0  0  0  0  0
    0.1400    1.1020    0.7870 C   0  0  1  0  0  0  0  0  0  0  0  0
   -0.3560    2.3710    0.9650 O   0  0  0  0  0  0  0  0  0  0  0  0
  2  1  1  1
  2  3  1  0
  2  4  1  0
  2  9  1  0
  4  5  1  6
  4  7  1  0
  5  6  1  0
  7  8  1  0
  9 10  1  6
  9 11  1  0
  9 22  1  0
 11 12  1  0
 12 13  1  1
 12 14  1  0
 12 21  1  0
 14 15  2  0
 14 16  1  0
 16 17  1  0
 17 18  1  0
 18 19  2  0
 18 20  1  0
 21 22  1  0
 22 23  1  6
M  END
