
     RDKit          3D

 13 12  0  0  0  0  0  0  0  0999 V2000
   -3.1020   -0.3290   -0.7460 C   0  0  0  0  0  0  0  0  0  0  0  0
   -2.2400   -0.0010    0.3340 O   0  0  0  0  0  0  0  0  0  0  0  0
   -0.9790   -0.5500    0.4270 C   0  0  0  0  0  0  0  0  0  0  0  0
   -0.9450   -1.8550    0.6570 C   0  0  0  0  0  0  0  0  0  0  0  0
   -2.0820   -2.6060    0.7940 O   0  0  0  0  0  0  0  0  0  0  0  0
    0.2120    0.2460    0.2820 C   0  0  0  0  0  0  0  0  0  0  0  0
    0.3070    1.5040    0.0630 C   0  0  0  0  0  0  0  0  0  0  0  0
   -0.7580    2.4950   -0.1040 C   0  0  0  0  0  0  0  0  0  0  0  0
   -0.6530    3.5430    0.9200 N   0  0  0  0  0  0  0  0  0  0  0  0
    1.4360   -0.4720    0.4010 O   0  0  0  0  0  0  0  0  0  0  0  0
    2.0670   -1.0240   -0.7330 C   0  0  0  0  0  0  0  0  0  0  0  0
    3.3280   -1.7070   -0.2380 C   0  0  0  0  0  0  0  0  0  0  0  0
    4.1590   -0.7660    0.3860 O   0  0  0  0  0  0  0  0  0  0  0  0
  1  2  1  0
  2  3  1  0
  3  4  2  3
  3  6  1  0
  4  5  1  0
  6  7  2  3
  6 10  1  0
  7  8  1  0
  8  9  1  0
 10 11  1  0
 11 12  1  0
 12 13  1  0
M  END
