
     RDKit          3D

 22 22  0  0  0  0  0  0  0  0999 V2000
   -1.0680   -3.3630    0.9360 O   0  0  0  0  0  0  0  0  0  0  0  0
   -1.0780   -2.7950   -0.1800 C   0  0  0  0  0  0  0  0  0  0  0  0
   -1.1610   -3.5860   -1.3090 O   0  0  0  0  0  0  0  0  0  0  0  0
   -1.0060   -1.3300   -0.3550 C   0  0  2  0  0  0  0  0  0  0  0  0
   -1.0360   -1.0030   -1.6850 O   0  0  0  0  0  0  0  0  0  0  0  0
    0.2330   -0.8620    0.3760 C   0  0  0  0  0  0  0  0  0  0  0  0
    0.4290    0.6100    0.2440 C   0  0  2  0  0  0  0  0  0  0  0  0
    1.4350    0.9780    1.1540 O   0  0  0  0  0  0  0  0  0  0  0  0
    2.5290    1.5670    0.5350 C   0  0  1  0  0  0  0  0  0  0  0  0
    2.7610    2.8600    1.0020 O   0  0  0  0  0  0  0  0  0  0  0  0
    3.7010    0.8500    0.7550 O   0  0  0  0  0  0  0  0  0  0  0  0
    4.1980    0.4190   -0.4650 C   0  0  0  0  0  0  0  0  0  0  0  0
    5.4630   -0.3670   -0.3430 C   0  0  0  0  0  0  0  0  0  0  0  0
    5.2000   -1.4880    0.4440 O   0  0  0  0  0  0  0  0  0  0  0  0
   -0.7880    1.4050    0.6010 C   0  0  0  0  0  0  0  0  0  0  0  0
   -2.0610    0.7920   -0.0070 C   0  0  2  0  0  0  0  0  0  0  0  0
   -1.9320    0.8770   -1.4140 O   0  0  0  0  0  0  0  0  0  0  0  0
   -3.1700    1.7130    0.3700 C   0  0  0  0  0  0  0  0  0  0  0  0
   -4.3810    1.5010   -0.2470 O   0  0  0  0  0  0  0  0  0  0  0  0
   -2.1710   -0.6410    0.3750 C   0  0  1  0  0  0  0  0  0  0  0  0
   -3.4560   -1.3030    0.1030 C   0  0  0  0  0  0  0  0  0  0  0  0
   -4.5020   -0.7310    0.7730 O   0  0  0  0  0  0  0  0  0  0  0  0
  1  2  2  0
  2  3  1  0
  2  4  1  0
  4  5  1  6
  4  6  1  0
  4 20  1  0
  6  7  1  0
  7  8  1  1
  7 15  1  0
  8  9  1  0
  9 10  1  1
  9 11  1  0
 11 12  1  0
 12 13  1  0
 13 14  1  0
 15 16  1  0
 16 17  1  6
 16 18  1  0
 16 20  1  0
 18 19  1  0
 20 21  1  6
 21 22  1  0
M  END
