
     RDKit          3D

 23 23  0  0  0  0  0  0  0  0999 V2000
   -4.1020   -0.6460   -1.8230 O   0  0  0  0  0  0  0  0  0  0  0  0
   -3.0490   -0.1290   -1.3290 C   0  0  0  0  0  0  0  0  0  0  0  0
   -2.4540    0.8750   -2.1180 O   0  0  0  0  0  0  0  0  0  0  0  0
   -2.5090   -0.5400   -0.0460 C   0  0  2  0  0  0  0  0  0  0  0  0
   -2.9500    0.4890    1.0010 C   0  0  0  0  0  0  0  0  0  0  0  0
   -4.3640    0.5240    1.0540 O   0  0  0  0  0  0  0  0  0  0  0  0
   -1.0590   -0.8470    0.0750 C   0  0  1  0  0  0  0  0  0  0  0  0
   -0.5310   -1.9520   -0.7130 C   0  0  0  0  0  0  0  0  0  0  0  0
   -0.5470   -2.0200   -2.1680 C   0  0  2  0  0  0  0  0  0  0  0  0
   -1.7460   -2.0140   -2.8330 O   0  0  0  0  0  0  0  0  0  0  0  0
    0.0590   -3.2650   -2.5240 O   0  0  0  0  0  0  0  0  0  0  0  0
   -0.2070    0.4190   -0.0540 C   0  0  0  0  0  0  0  0  0  0  0  0
    0.7220    0.3850    1.1110 C   0  0  2  0  0  0  0  0  0  0  0  0
    0.4490    1.5210    2.0900 C   0  0  0  0  0  0  0  0  0  0  0  0
    1.2120    1.2820    3.2510 O   0  0  0  0  0  0  0  0  0  0  0  0
    2.0750    0.3370    0.7860 O   0  0  0  0  0  0  0  0  0  0  0  0
    2.5530    1.3870    0.0560 C   0  0  1  0  0  0  0  0  0  0  0  0
    3.4380    2.1830    0.8130 O   0  0  0  0  0  0  0  0  0  0  0  0
    3.2100    0.9880   -1.2470 C   0  0  2  0  0  0  0  0  0  0  0  0
    4.3050    0.1310   -0.9850 O   0  0  0  0  0  0  0  0  0  0  0  0
    3.7800    2.1070   -1.8810 O   0  0  0  0  0  0  0  0  0  0  0  0
    0.3950   -0.9120    1.8000 C   0  0  0  0  0  0  0  0  0  0  0  0
   -0.8780   -1.2050    1.4410 O   0  0  0  0  0  0  0  0  0  0  0  0
  1  2  2  0
  2  3  1  0
  2  4  1  0
  4  5  1  1
  4  7  1  0
  5  6  1  0
  7  8  1  6
  7 12  1  0
  7 23  1  0
  8  9  1  0
  9 10  1  1
  9 11  1  0
 12 13  1  0
 13 14  1  1
 13 16  1  0
 13 22  1  0
 14 15  1  0
 16 17  1  0
 17 18  1  1
 17 19  1  0
 19 20  1  1
 19 21  1  0
 22 23  1  0
M  END
