
     RDKit          3D

 23 23  0  0  0  0  0  0  0  0999 V2000
    1.9680    0.7840   -0.9460 O   0  0  0  0  0  0  0  0  0  0  0  0
    2.0680    0.2180    0.1720 C   0  0  0  0  0  0  0  0  0  0  0  0
    3.2250    0.5210    0.8780 O   0  0  0  0  0  0  0  0  0  0  0  0
    4.2130    1.4170    0.3440 C   0  0  0  0  0  0  0  0  0  0  0  0
    5.3560    1.5780    1.2890 C   0  0  2  0  0  0  0  0  0  0  0  0
    4.8440    2.0990    2.4870 O   0  0  0  0  0  0  0  0  0  0  0  0
    6.2800    2.4370    0.7170 O   0  0  0  0  0  0  0  0  0  0  0  0
    1.0700   -0.7030    0.7400 C   0  0  1  0  0  0  0  0  0  0  0  0
    1.5630   -1.1390    1.9870 O   0  0  0  0  0  0  0  0  0  0  0  0
   -0.3110   -0.1360    0.8920 C   0  0  0  0  0  0  0  0  0  0  0  0
   -1.1270   -1.0170    0.0100 C   0  0  1  0  0  0  0  0  0  0  0  0
   -1.2930   -2.2400    0.7340 O   0  0  0  0  0  0  0  0  0  0  0  0
   -2.4200   -0.6040   -0.4670 C   0  0  2  0  0  0  0  0  0  0  0  0
   -3.2710   -0.3040    0.7960 C   0  0  0  0  0  0  0  0  0  0  0  0
   -2.6500    0.7040    1.5180 O   0  0  0  0  0  0  0  0  0  0  0  0
   -3.1270   -1.9440   -0.9300 C   0  0  0  0  0  0  0  0  0  0  0  0
   -4.3900   -1.4800   -1.3740 O   0  0  0  0  0  0  0  0  0  0  0  0
   -2.6770    0.3050   -1.5730 C   0  0  0  0  0  0  0  0  0  0  0  0
   -2.1770    1.7080   -1.5600 C   0  0  0  0  0  0  0  0  0  0  0  0
   -0.8330    1.9070   -1.5330 O   0  0  0  0  0  0  0  0  0  0  0  0
   -0.0750   -1.3970   -1.0310 C   0  0  2  0  0  0  0  0  0  0  0  0
   -0.3820   -2.5630   -1.7150 O   0  0  0  0  0  0  0  0  0  0  0  0
    0.9670   -1.7740   -0.1460 O   0  0  0  0  0  0  0  0  0  0  0  0
  1  2  2  0
  2  3  1  0
  2  8  1  0
  3  4  1  0
  4  5  1  0
  5  6  1  1
  5  7  1  0
  8  9  1  1
  8 10  1  0
  8 23  1  0
 10 11  1  0
 11 12  1  1
 11 13  1  0
 11 21  1  0
 13 14  1  1
 13 16  1  0
 13 18  1  0
 14 15  1  0
 16 17  1  0
 18 19  1  0
 19 20  1  0
 21 22  1  6
 21 23  1  0
M  END
