
     RDKit          3D

 23 24  0  0  0  0  0  0  0  0999 V2000
    1.5310    1.9710   -1.3620 O   0  0  0  0  0  0  0  0  0  0  0  0
    2.3990    1.3070   -0.4950 C   0  0  0  0  0  0  0  0  0  0  0  0
    2.7990   -0.0360   -1.0110 C   0  0  2  0  0  0  0  0  0  0  0  0
    1.8110   -0.9320   -1.2490 O   0  0  0  0  0  0  0  0  0  0  0  0
    0.9420   -1.0440   -0.1900 C   0  0  2  0  0  0  0  0  0  0  0  0
    0.1000    0.0300   -0.1460 O   0  0  0  0  0  0  0  0  0  0  0  0
   -1.2180   -0.2080   -0.4200 C   0  0  1  0  0  0  0  0  0  0  0  0
   -2.1490    0.2260    0.6940 C   0  0  1  0  0  0  0  0  0  0  0  0
   -1.4740    1.2680    1.5640 C   0  0  0  0  0  0  0  0  0  0  0  0
   -2.3140    1.6150    2.6050 O   0  0  0  0  0  0  0  0  0  0  0  0
   -3.3370    0.7760    0.1910 O   0  0  0  0  0  0  0  0  0  0  0  0
   -3.8280   -0.0130   -0.8680 C   0  0  1  0  0  0  0  0  0  0  0  0
   -5.0840    0.4580   -1.1900 O   0  0  0  0  0  0  0  0  0  0  0  0
   -2.9530    0.1190   -2.1000 C   0  0  1  0  0  0  0  0  0  0  0  0
   -3.4950    0.9980   -3.0270 O   0  0  0  0  0  0  0  0  0  0  0  0
   -1.5980    0.6020   -1.6430 C   0  0  1  0  0  0  0  0  0  0  0  0
   -1.6830    1.9310   -1.2560 O   0  0  0  0  0  0  0  0  0  0  0  0
    1.6180   -1.4440    1.0540 C   0  0  1  0  0  0  0  0  0  0  0  0
    1.1090   -2.6290    1.6030 O   0  0  0  0  0  0  0  0  0  0  0  0
    3.0830   -1.7260    0.8060 C   0  0  2  0  0  0  0  0  0  0  0  0
    3.7050   -1.7350    2.0700 O   0  0  0  0  0  0  0  0  0  0  0  0
    3.7490   -0.6400    0.0030 C   0  0  2  0  0  0  0  0  0  0  0  0
    4.3110    0.3600    0.7760 O   0  0  0  0  0  0  0  0  0  0  0  0
  1  2  1  0
  3  2  1  1
  3  4  1  0
  3 22  1  0
  4  5  1  0
  5  6  1  1
  5 18  1  0
  7  6  1  1
  7  8  1  0
  7 16  1  0
  8  9  1  6
  8 11  1  0
  9 10  1  0
 11 12  1  0
 12 13  1  6
 12 14  1  0
 14 15  1  6
 14 16  1  0
 16 17  1  1
 18 19  1  6
 18 20  1  0
 20 21  1  1
 20 22  1  0
 22 23  1  1
M  END
