
     RDKit          3D

 28 29  0  0  0  0  0  0  0  0999 V2000
    3.6150    2.6340    0.9650 C   0  0  0  0  0  0  0  0  0  0  0  0
    2.7970    1.5090    0.7000 O   0  0  0  0  0  0  0  0  0  0  0  0
    3.4340    0.7720   -0.2510 C   0  0  1  0  0  0  0  0  0  0  0  0
    3.8540   -0.5400    0.4330 C   0  0  0  0  0  0  0  0  0  0  0  0
    3.4580   -1.6510   -0.5120 C   0  0  0  0  0  0  0  0  0  0  0  0
    2.1870   -1.0690   -1.1300 C   0  0  1  0  0  0  0  0  0  0  0  0
    0.8730   -1.0170    0.0910 S   0  0  0  0  0  0  0  0  0  0  0  0
    0.5440   -2.6120    0.8150 C   0  0  0  0  0  0  0  0  0  0  0  0
   -0.3850   -3.4510    0.3980 C   0  0  0  0  0  0  0  0  0  0  0  0
   -1.2800   -3.1460   -0.7520 C   0  0  0  0  0  0  0  0  0  0  0  0
   -2.6960   -3.4800   -0.4730 C   0  0  0  0  0  0  0  0  0  0  0  0
   -3.0420   -4.6920   -0.6130 O   0  0  0  0  0  0  0  0  0  0  0  0
   -3.6520   -2.5200   -0.0650 N   0  0  0  0  0  0  0  0  0  0  0  0
   -3.4020   -1.5320    0.8880 N   0  0  0  0  0  0  0  0  0  0  0  0
   -3.7060   -0.2050    0.3850 C   0  0  1  0  0  0  0  0  0  0  0  0
   -4.6600    0.4540    1.1200 O   0  0  0  0  0  0  0  0  0  0  0  0
   -2.3960    0.5950    0.4050 C   0  0  2  0  0  0  0  0  0  0  0  0
   -1.7830    0.3190    1.6240 O   0  0  0  0  0  0  0  0  0  0  0  0
   -2.6500    2.0600    0.2580 C   0  0  1  0  0  0  0  0  0  0  0  0
   -2.3420    2.6990    1.4530 O   0  0  0  0  0  0  0  0  0  0  0  0
   -2.0010    2.6300   -0.8530 O   0  0  0  0  0  0  0  0  0  0  0  0
   -0.8180    3.2870   -0.9030 C   0  0  0  0  0  0  0  0  0  0  0  0
   -0.7000    4.4100   -1.4580 O   0  0  0  0  0  0  0  0  0  0  0  0
    0.3990    2.6890   -0.2910 C   0  0  0  0  0  0  0  0  0  0  0  0
    1.2750    2.3550   -1.3020 O   0  0  0  0  0  0  0  0  0  0  0  0
    1.6160    1.2270   -1.9380 C   0  0  0  0  0  0  0  0  0  0  0  0
    1.0780    0.7970   -3.0090 O   0  0  0  0  0  0  0  0  0  0  0  0
    2.6890    0.3450   -1.4370 C   0  0  1  0  0  0  0  0  0  0  0  0
  1  2  1  0
  3  2  1  1
  3  4  1  0
  3 28  1  0
  4  5  1  0
  6  5  1  1
  6  7  1  0
  6 28  1  0
  7  8  1  0
  8  9  2  0
  9 10  1  0
 10 11  1  0
 11 12  2  0
 11 13  1  0
 13 14  1  0
 14 15  1  0
 15 16  1  1
 15 17  1  0
 17 18  1  1
 17 19  1  0
 19 20  1  1
 19 21  1  0
 21 22  1  0
 22 23  2  0
 22 24  1  0
 24 25  1  0
 25 26  1  0
 26 27  2  0
 28 26  1  1
M  END
