
     RDKit          3D

 27 28  0  0  0  0  0  0  0  0999 V2000
   -5.9620    0.8010    0.1670 C   0  0  0  0  0  0  0  0  0  0  0  0
   -5.5050    0.4550   -1.0360 O   0  0  0  0  0  0  0  0  0  0  0  0
   -4.2660    0.6350   -1.4780 C   0  0  0  0  0  0  0  0  0  0  0  0
   -3.1750   -0.0360   -0.7440 C   0  0  2  0  0  0  0  0  0  0  0  0
   -3.0100    0.3820    0.6650 C   0  0  1  0  0  0  0  0  0  0  0  0
   -3.1090   -0.8590    1.5570 C   0  0  0  0  0  0  0  0  0  0  0  0
   -1.5540    0.8650    0.9290 C   0  0  0  0  0  0  0  0  0  0  0  0
   -0.7110   -0.3280    0.6220 C   0  0  0  0  0  0  0  0  0  0  0  0
   -0.8630   -0.7280   -0.6480 C   0  0  0  0  0  0  0  0  0  0  0  0
   -0.2080   -1.8260   -1.2610 N   0  0  0  0  0  0  0  0  0  0  0  0
    1.1090   -2.2740   -1.0890 C   0  0  0  0  0  0  0  0  0  0  0  0
    1.2490   -3.5130   -0.8160 O   0  0  0  0  0  0  0  0  0  0  0  0
    2.3260   -1.5650   -1.1720 N   0  0  0  0  0  0  0  0  0  0  0  0
    2.5210   -0.2170   -1.6330 C   0  0  1  0  0  0  0  0  0  0  0  0
    1.3600    0.5160   -1.7440 O   0  0  0  0  0  0  0  0  0  0  0  0
    3.5860    0.4880   -0.8290 C   0  0  1  0  0  0  0  0  0  0  0  0
    3.4820    1.8660   -1.0020 O   0  0  0  0  0  0  0  0  0  0  0  0
    3.5730    0.1550    0.6260 C   0  0  1  0  0  0  0  0  0  0  0  0
    4.8840    1.1180    1.4310 S   0  0  0  0  0  0  0  0  0  0  0  0
    6.5250    0.5950    0.8710 C   0  0  0  0  0  0  0  0  0  0  0  0
    2.4030    0.4130    1.2780 O   0  0  0  0  0  0  0  0  0  0  0  0
    2.1800   -0.4370    2.3670 C   0  0  0  0  0  0  0  0  0  0  0  0
    1.1850   -1.4730    1.9040 C   0  0  0  0  0  0  0  0  0  0  0  0
    1.5650   -2.6760    2.1420 O   0  0  0  0  0  0  0  0  0  0  0  0
    0.1140   -1.0220    1.3470 O   0  0  0  0  0  0  0  0  0  0  0  0
   -1.8360    0.0810   -1.4770 C   0  0  1  0  0  0  0  0  0  0  0  0
   -2.0180   -0.4640   -2.7210 O   0  0  0  0  0  0  0  0  0  0  0  0
  1  2  1  0
  2  3  1  0
  4  3  1  6
  4  5  1  0
  4 26  1  0
  5  6  1  1
  5  7  1  0
  7  8  1  0
  8  9  2  0
  8 25  1  0
  9 10  1  0
  9 26  1  0
 10 11  1  0
 11 12  2  0
 11 13  1  0
 13 14  1  0
 14 15  1  1
 14 16  1  0
 16 17  1  1
 16 18  1  0
 18 19  1  1
 18 21  1  0
 19 20  1  0
 21 22  1  0
 22 23  1  0
 23 24  2  0
 23 25  1  0
 26 27  1  6
M  END
