
     RDKit          3D

 28 29  0  0  0  0  0  0  0  0999 V2000
    5.0920   -4.4180   -2.3920 C   0  0  0  0  0  0  0  0  0  0  0  0
    3.9350   -3.4520   -2.4370 C   0  0  0  0  0  0  0  0  0  0  0  0
    3.9850   -2.5570   -1.3190 O   0  0  0  0  0  0  0  0  0  0  0  0
    3.0120   -1.5750   -1.1550 C   0  0  0  0  0  0  0  0  0  0  0  0
    2.1170   -1.5280   -2.0240 O   0  0  0  0  0  0  0  0  0  0  0  0
    3.0050   -0.6670   -0.0800 N   0  0  0  0  0  0  0  0  0  0  0  0
    2.0500    0.3660    0.1820 C   0  0  0  0  0  0  0  0  0  0  0  0
    0.6380   -0.0860    0.4420 C   0  0  1  0  0  0  0  0  0  0  0  0
    0.1580   -0.7480   -0.6740 O   0  0  0  0  0  0  0  0  0  0  0  0
    0.7370   -1.1120    1.5630 C   0  0  0  0  0  0  0  0  0  0  0  0
   -0.9160   -1.9090    1.5540 S   0  0  0  0  0  0  0  0  0  0  0  0
   -1.8800   -1.0380    2.7510 C   0  0  2  0  0  0  0  0  0  0  0  0
   -3.3360   -1.3270    2.6000 C   0  0  0  0  0  0  0  0  0  0  0  0
   -3.9920   -0.9590    1.3220 C   0  0  2  0  0  0  0  0  0  0  0  0
   -5.3780   -1.3270    1.4260 O   0  0  0  0  0  0  0  0  0  0  0  0
   -3.5130   -1.7450    0.1240 C   0  0  0  0  0  0  0  0  0  0  0  0
   -4.3490   -1.3530   -0.9660 O   0  0  0  0  0  0  0  0  0  0  0  0
   -1.5900    0.3970    2.8830 C   0  0  0  0  0  0  0  0  0  0  0  0
   -2.1960    0.9320    3.8290 O   0  0  0  0  0  0  0  0  0  0  0  0
   -0.7350    1.1830    2.0830 N   0  0  0  0  0  0  0  0  0  0  0  0
   -0.2690    1.0390    0.7690 C   0  0  1  0  0  0  0  0  0  0  0  0
    0.3650    2.2200    0.3760 O   0  0  0  0  0  0  0  0  0  0  0  0
   -0.2940    2.9030   -0.6090 C   0  0  1  0  0  0  0  0  0  0  0  0
   -0.8140    4.2670   -0.0930 C   0  0  0  0  0  0  0  0  0  0  0  0
   -1.2190    4.8300   -1.3140 O   0  0  0  0  0  0  0  0  0  0  0  0
   -0.0810    4.7310   -2.0880 C   0  0  0  0  0  0  0  0  0  0  0  0
    0.6170    3.4200   -1.6970 C   0  0  1  0  0  0  0  0  0  0  0  0
    1.8970    3.7100   -1.1860 O   0  0  0  0  0  0  0  0  0  0  0  0
  1  2  1  0
  2  3  1  0
  3  4  1  0
  4  5  2  0
  4  6  1  0
  6  7  1  0
  7  8  1  0
  8  9  1  6
  8 10  1  0
  8 21  1  0
 10 11  1  0
 11 12  1  0
 12 13  1  6
 12 18  1  0
 13 14  1  0
 14 15  1  1
 14 16  1  0
 16 17  1  0
 18 19  2  0
 18 20  1  0
 20 21  1  0
 21 22  1  1
 23 22  1  1
 23 24  1  0
 23 27  1  0
 24 25  1  0
 25 26  1  0
 26 27  1  0
 27 28  1  1
M  END
