
     RDKit          3D

 28 29  0  0  0  0  0  0  0  0999 V2000
   -0.5200   -1.6500    1.3470 C   0  0  0  0  0  0  0  0  0  0  0  0
   -1.6150   -0.6250    1.1540 C   0  0  2  0  0  0  0  0  0  0  0  0
   -1.8360    0.0110    2.4960 C   0  0  0  0  0  0  0  0  0  0  0  0
   -2.8420   -1.2350    0.8250 O   0  0  0  0  0  0  0  0  0  0  0  0
   -2.7970   -1.5810   -0.5010 C   0  0  2  0  0  0  0  0  0  0  0  0
   -4.1430   -1.5350   -1.1970 C   0  0  0  0  0  0  0  0  0  0  0  0
   -2.3990   -2.9260   -0.5610 O   0  0  0  0  0  0  0  0  0  0  0  0
   -1.7690   -0.6770   -1.1450 C   0  0  0  0  0  0  0  0  0  0  0  0
   -1.3260    0.2550    0.0120 C   0  0  2  0  0  0  0  0  0  0  0  0
    0.1050    0.6180   -0.1760 C   0  0  0  0  0  0  0  0  0  0  0  0
    0.5040    1.8170    0.0470 O   0  0  0  0  0  0  0  0  0  0  0  0
    1.1200   -0.2630   -0.5940 N   0  0  0  0  0  0  0  0  0  0  0  0
    2.5110    0.1660   -0.7510 C   0  0  2  0  0  0  0  0  0  0  0  0
    2.9500    0.0240   -2.1630 C   0  0  0  0  0  0  0  0  0  0  0  0
    4.2770    0.4000   -2.4740 N   0  0  0  0  0  0  0  0  0  0  0  0
    2.1420   -0.4130   -2.9950 O   0  0  0  0  0  0  0  0  0  0  0  0
    3.4040   -0.5920    0.1540 C   0  0  0  0  0  0  0  0  0  0  0  0
    4.4050   -1.3470   -0.2240 C   0  0  0  0  0  0  0  0  0  0  0  0
    5.0240   -1.9070    0.9090 O   0  0  0  0  0  0  0  0  0  0  0  0
    4.5700   -1.1070    1.9970 C   0  0  1  0  0  0  0  0  0  0  0  0
    5.6710    0.2950    2.2260 S   0  0  0  0  0  0  0  0  0  0  0  0
    6.2190    0.7080    0.8770 O   0  0  0  0  0  0  0  0  0  0  0  0
    3.3250   -0.6240    1.5300 O   0  0  0  0  0  0  0  0  0  0  0  0
   -2.1540    1.4790   -0.1640 C   0  0  1  0  0  0  0  0  0  0  0  0
   -1.6770    2.2500   -1.4310 C   0  0  0  0  0  0  0  0  0  0  0  0
   -3.4680    1.1100   -0.4630 O   0  0  0  0  0  0  0  0  0  0  0  0
   -2.1810    2.5060    0.8900 C   0  0  0  0  0  0  0  0  0  0  0  0
   -2.8910    3.6220    0.3400 O   0  0  0  0  0  0  0  0  0  0  0  0
  2  1  1  1
  2  3  1  0
  2  4  1  0
  2  9  1  0
  4  5  1  0
  5  6  1  6
  5  7  1  0
  5  8  1  0
  8  9  1  0
  9 10  1  6
  9 24  1  0
 10 11  2  0
 10 12  1  0
 13 12  1  6
 13 14  1  0
 13 17  1  0
 14 15  1  0
 14 16  2  0
 17 18  2  0
 17 23  1  0
 18 19  1  0
 19 20  1  0
 20 21  1  6
 20 23  1  0
 21 22  2  0
 24 25  1  6
 24 26  1  0
 24 27  1  0
 27 28  1  0
M  END
