
     RDKit          3D

 28 29  0  0  0  0  0  0  0  0999 V2000
   -6.0500    2.6040    0.3750 C   0  0  0  0  0  0  0  0  0  0  0  0
   -5.2750    1.4740    0.2340 O   0  0  0  0  0  0  0  0  0  0  0  0
   -4.2230    1.4050    1.1140 C   0  0  0  0  0  0  0  0  0  0  0  0
   -3.4590    0.1230    0.8530 C   0  0  1  0  0  0  0  0  0  0  0  0
   -4.3230   -0.9360    1.0440 O   0  0  0  0  0  0  0  0  0  0  0  0
   -2.8970    0.1690   -0.5630 C   0  0  2  0  0  0  0  0  0  0  0  0
   -3.9740    0.3010   -1.4770 N   0  0  0  0  0  0  0  0  0  0  0  0
   -2.0310   -0.8670   -0.8150 O   0  0  0  0  0  0  0  0  0  0  0  0
   -0.7180   -0.4610   -1.0410 C   0  0  1  0  0  0  0  0  0  0  0  0
    0.1360   -1.1170   -0.0010 C   0  0  0  0  0  0  0  0  0  0  0  0
    1.5890   -1.0980   -0.2720 C   0  0  2  0  0  0  0  0  0  0  0  0
    2.3830   -1.8070    0.8240 C   0  0  0  0  0  0  0  0  0  0  0  0
    2.0110   -3.1330    0.9500 O   0  0  0  0  0  0  0  0  0  0  0  0
    2.1200    0.3170   -0.2580 C   0  0  0  0  0  0  0  0  0  0  0  0
    1.9490    1.0400    1.0060 C   0  0  0  0  0  0  0  0  0  0  0  0
    0.6880    1.3700    1.5090 O   0  0  0  0  0  0  0  0  0  0  0  0
    2.9370    1.4270    1.7480 N   0  0  0  0  0  0  0  0  0  0  0  0
    4.3190    1.1640    1.3690 C   0  0  0  0  0  0  0  0  0  0  0  0
    4.9090    1.8770    0.4270 C   0  0  0  0  0  0  0  0  0  0  0  0
    6.5510    1.2250    0.2960 S   0  0  0  0  0  0  0  0  0  0  0  0
    6.7890    0.6010   -1.0700 O   0  0  0  0  0  0  0  0  0  0  0  0
    6.3950    0.0160    1.5150 O   0  0  0  0  0  0  0  0  0  0  0  0
    5.1010    0.1480    1.9760 C   0  0  0  0  0  0  0  0  0  0  0  0
    4.6850   -0.6350    2.9050 O   0  0  0  0  0  0  0  0  0  0  0  0
    1.8900   -1.6730   -1.6250 C   0  0  0  0  0  0  0  0  0  0  0  0
    0.7420   -1.8580   -2.5290 C   0  0  0  0  0  0  0  0  0  0  0  0
   -0.3700   -0.8590   -2.4430 C   0  0  2  0  0  0  0  0  0  0  0  0
    0.0170    0.2700   -3.1590 O   0  0  0  0  0  0  0  0  0  0  0  0
  1  2  1  0
  2  3  1  0
  3  4  1  0
  4  5  1  6
  4  6  1  0
  6  7  1  6
  6  8  1  0
  9  8  1  1
  9 10  1  0
  9 27  1  0
 10 11  1  0
 11 12  1  1
 11 14  1  0
 11 25  1  0
 12 13  1  0
 14 15  1  0
 15 16  1  0
 15 17  2  3
 17 18  1  0
 18 19  2  0
 18 23  1  0
 19 20  1  0
 20 21  2  0
 20 22  1  1
 22 23  1  0
 23 24  2  0
 25 26  1  0
 26 27  1  0
 27 28  1  6
M  END
