
     RDKit          3D

 27 28  0  0  0  0  0  0  0  0999 V2000
   -1.7930    2.4740   -1.3950 O   0  0  0  0  0  0  0  0  0  0  0  0
   -2.5270    1.6290   -1.9410 C   0  0  0  0  0  0  0  0  0  0  0  0
   -3.0280    1.9040   -3.2720 N   0  0  0  0  0  0  0  0  0  0  0  0
   -2.6950    3.0610   -3.8970 O   0  0  0  0  0  0  0  0  0  0  0  0
   -2.9020    0.4160   -1.3390 N   0  0  0  0  0  0  0  0  0  0  0  0
   -2.4670    0.0250   -0.0450 C   0  0  1  0  0  0  0  0  0  0  0  0
   -1.0360    0.3670    0.3100 C   0  0  0  0  0  0  0  0  0  0  0  0
   -0.0190   -0.2830   -0.5920 C   0  0  2  0  0  0  0  0  0  0  0  0
   -0.1250    0.0380   -1.9250 O   0  0  0  0  0  0  0  0  0  0  0  0
   -0.0400   -1.7970   -0.4520 C   0  0  0  0  0  0  0  0  0  0  0  0
    1.3520   -2.3830   -0.4380 C   0  0  1  0  0  0  0  0  0  0  0  0
    1.2710   -3.7470   -0.7460 O   0  0  0  0  0  0  0  0  0  0  0  0
    2.1810   -1.6570   -1.4620 C   0  0  0  0  0  0  0  0  0  0  0  0
    2.4610   -0.2560   -0.9570 C   0  0  2  0  0  0  0  0  0  0  0  0
    3.6380   -0.2940   -0.2400 O   0  0  0  0  0  0  0  0  0  0  0  0
    4.6330    0.4970   -0.7600 C   0  0  0  0  0  0  0  0  0  0  0  0
    5.8570    0.3410    0.1450 C   0  0  2  0  0  0  0  0  0  0  0  0
    6.2740   -0.9870    0.1790 O   0  0  0  0  0  0  0  0  0  0  0  0
    5.5150    0.7570    1.5580 C   0  0  0  0  0  0  0  0  0  0  0  0
    5.0970    2.0860    1.5310 O   0  0  0  0  0  0  0  0  0  0  0  0
    1.3440    0.1660   -0.0410 C   0  0  0  0  0  0  0  0  0  0  0  0
   -3.4150    0.3560    1.0550 C   0  0  2  0  0  0  0  0  0  0  0  0
   -2.8300   -0.0740    2.3820 C   0  0  0  0  0  0  0  0  0  0  0  0
   -4.1200   -0.2400    3.6490 S   0  0  0  0  0  0  0  0  0  0  0  0
   -5.7490   -0.4780    2.8510 C   0  0  0  0  0  0  0  0  0  0  0  0
   -5.6780    0.2630    1.5200 C   0  0  0  0  0  0  0  0  0  0  0  0
   -4.6280   -0.2990    0.8010 O   0  0  0  0  0  0  0  0  0  0  0  0
  1  2  2  0
  2  3  1  0
  2  5  1  0
  3  4  1  0
  5  6  1  0
  6  7  1  1
  6 22  1  0
  7  8  1  0
  8  9  1  6
  8 10  1  0
  8 21  1  0
 10 11  1  0
 11 12  1  6
 11 13  1  0
 13 14  1  0
 14 15  1  1
 14 21  1  0
 15 16  1  0
 16 17  1  0
 17 18  1  1
 17 19  1  0
 19 20  1  0
 22 23  1  1
 22 27  1  0
 23 24  1  0
 24 25  1  0
 25 26  1  0
 26 27  1  0
M  END
