
     RDKit          3D

 28 29  0  0  0  0  0  0  0  0999 V2000
   -3.0160   -1.2370   -1.3230 C   0  0  0  0  0  0  0  0  0  0  0  0
   -3.1530   -0.6140    0.0330 C   0  0  1  0  0  0  0  0  0  0  0  0
   -2.0990   -1.0440    1.0220 C   0  0  1  0  0  0  0  0  0  0  0  0
   -2.7830   -1.8020    2.1420 C   0  0  0  0  0  0  0  0  0  0  0  0
   -3.8170   -1.0590    2.7090 O   0  0  0  0  0  0  0  0  0  0  0  0
   -1.0480   -1.8480    0.4740 N   0  0  0  0  0  0  0  0  0  0  0  0
   -0.3010   -1.6140   -0.7030 C   0  0  0  0  0  0  0  0  0  0  0  0
   -0.2490   -2.6310   -1.5040 O   0  0  0  0  0  0  0  0  0  0  0  0
    0.3690   -0.4550   -1.0980 N   0  0  0  0  0  0  0  0  0  0  0  0
    1.2990    0.3610   -0.3620 C   0  0  2  0  0  0  0  0  0  0  0  0
    2.4290    0.8140   -1.3140 C   0  0  0  0  0  0  0  0  0  0  0  0
    3.2850   -0.3900   -1.6640 C   0  0  0  0  0  0  0  0  0  0  0  0
    3.8290   -0.9860   -0.5420 O   0  0  0  0  0  0  0  0  0  0  0  0
    2.7890   -1.5000    0.2390 C   0  0  1  0  0  0  0  0  0  0  0  0
    3.3540   -2.2260    1.4370 C   0  0  0  0  0  0  0  0  0  0  0  0
    4.1500   -3.2550    0.9830 O   0  0  0  0  0  0  0  0  0  0  0  0
    1.9820   -0.3170    0.7690 C   0  0  0  0  0  0  0  0  0  0  0  0
    0.6810    1.6500    0.1230 C   0  0  1  0  0  0  0  0  0  0  0  0
    1.3060    2.1800    1.3540 C   0  0  0  0  0  0  0  0  0  0  0  0
    1.3090    1.5560    2.4600 O   0  0  0  0  0  0  0  0  0  0  0  0
    1.9490    3.4220    1.3950 O   0  0  0  0  0  0  0  0  0  0  0  0
    0.8310    2.6760   -0.8750 O   0  0  0  0  0  0  0  0  0  0  0  0
   -0.2670    3.1170   -1.6020 C   0  0  0  0  0  0  0  0  0  0  0  0
   -0.1440    3.5520   -2.7750 O   0  0  0  0  0  0  0  0  0  0  0  0
   -1.6050    3.0640   -0.9570 C   0  0  0  0  0  0  0  0  0  0  0  0
   -2.4360    1.9010   -1.4290 C   0  0  0  0  0  0  0  0  0  0  0  0
   -3.3230    1.1730   -0.0830 S   0  0  0  0  0  0  0  0  0  0  0  0
   -3.0530    1.7930    1.2560 O   0  0  0  0  0  0  0  0  0  0  0  0
  2  1  1  6
  2  3  1  0
  2 27  1  0
  3  4  1  1
  3  6  1  0
  4  5  1  0
  6  7  1  0
  7  8  2  0
  7  9  1  0
  9 10  1  0
 10 11  1  6
 10 17  1  0
 10 18  1  0
 11 12  1  0
 12 13  1  0
 13 14  1  0
 14 15  1  1
 14 17  1  0
 15 16  1  0
 18 19  1  1
 18 22  1  0
 19 20  2  0
 19 21  1  0
 22 23  1  0
 23 24  2  0
 23 25  1  0
 25 26  1  0
 27 26  1  6
 27 28  2  0
M  END
