
     RDKit          3D

 17 19  0  0  0  0  0  0  0  0999 V2000
   -4.0940    1.1930    1.2890 O   0  0  0  0  0  0  0  0  0  0  0  0
   -3.7890    0.5960    0.2310 C   0  0  0  0  0  0  0  0  0  0  0  0
   -4.6360    0.6810   -0.8460 O   0  0  0  0  0  0  0  0  0  0  0  0
   -2.5280   -0.2080    0.1070 C   0  0  2  0  0  0  0  0  0  0  0  0
   -1.8080   -0.1270    1.4160 C   0  0  0  0  0  0  0  0  0  0  0  0
   -0.5530   -0.9740    1.3890 C   0  0  0  0  0  0  0  0  0  0  0  0
    0.3080   -0.4180    0.3210 C   0  0  0  0  0  0  0  0  0  0  0  0
   -0.2490    0.1430   -0.8040 C   0  0  0  0  0  0  0  0  0  0  0  0
    0.7520    0.5720   -1.6190 N   0  0  0  0  0  0  0  0  0  0  0  0
    1.9330    0.2990   -1.0410 C   0  0  0  0  0  0  0  0  0  0  0  0
    3.2360    0.5200   -1.4340 C   0  0  0  0  0  0  0  0  0  0  0  0
    4.2910    0.1270   -0.6250 C   0  0  0  0  0  0  0  0  0  0  0  0
    4.0610   -0.4940    0.5920 C   0  0  0  0  0  0  0  0  0  0  0  0
    5.3810   -1.0030    1.6380 Cl  0  0  0  0  0  0  0  0  0  0  0  0
    2.7440   -0.6950    0.9460 C   0  0  0  0  0  0  0  0  0  0  0  0
    1.6750   -0.3220    0.1760 C   0  0  0  0  0  0  0  0  0  0  0  0
   -1.7050    0.2460   -1.0540 C   0  0  0  0  0  0  0  0  0  0  0  0
  1  2  2  0
  2  3  1  0
  4  2  1  1
  4  5  1  0
  4 17  1  0
  5  6  1  0
  6  7  1  0
  7  8  2  0
  7 16  1  0
  8  9  1  0
  8 17  1  0
  9 10  1  0
 10 11  2  0
 10 16  1  0
 11 12  1  0
 12 13  2  0
 13 14  1  0
 13 15  1  0
 15 16  2  0
M  END
