
     RDKit          3D

 28 29  0  0  0  0  0  0  0  0999 V2000
   -7.7580   -2.0540    0.7130 C   0  0  0  0  0  0  0  0  0  0  0  0
   -6.4300   -1.6500    0.5230 O   0  0  0  0  0  0  0  0  0  0  0  0
   -6.1120   -0.3070    0.4850 C   0  0  0  0  0  0  0  0  0  0  0  0
   -7.0180    0.5810    0.6230 O   0  0  0  0  0  0  0  0  0  0  0  0
   -4.7470    0.0700    0.2890 N   0  0  0  0  0  0  0  0  0  0  0  0
   -4.4410    1.4590    0.2530 C   0  0  0  0  0  0  0  0  0  0  0  0
   -5.3040    2.3420    0.3850 O   0  0  0  0  0  0  0  0  0  0  0  0
   -3.0170    1.8690    0.0490 C   0  0  1  0  0  0  0  0  0  0  0  0
   -2.1770    0.7370   -0.0810 O   0  0  0  0  0  0  0  0  0  0  0  0
   -1.1950    0.4870    0.8450 C   0  0  0  0  0  0  0  0  0  0  0  0
   -1.0690    1.2930    1.8030 O   0  0  0  0  0  0  0  0  0  0  0  0
   -0.2850   -0.6710    0.7730 C   0  0  1  0  0  0  0  0  0  0  0  0
    0.6660   -0.5420   -0.4320 C   0  0  0  0  0  0  0  0  0  0  0  0
    1.6960   -1.5360   -0.0660 C   0  0  2  0  0  0  0  0  0  0  0  0
    1.7510   -1.3260    1.4590 C   0  0  1  0  0  0  0  0  0  0  0  0
    2.9000   -0.3480    1.1490 C   0  0  0  0  0  0  0  0  0  0  0  0
    3.1230   -1.2080   -0.0810 C   0  0  1  0  0  0  0  0  0  0  0  0
    3.8770   -2.3360    0.3380 O   0  0  0  0  0  0  0  0  0  0  0  0
    3.7790   -0.5930   -1.2360 C   0  0  1  0  0  0  0  0  0  0  0  0
    3.2650    0.7430   -1.6740 C   0  0  0  0  0  0  0  0  0  0  0  0
    5.2350   -0.4450   -0.9810 C   0  0  0  0  0  0  0  0  0  0  0  0
    6.0920   -1.0000   -1.7150 O   0  0  0  0  0  0  0  0  0  0  0  0
    5.7230    0.3160    0.0850 O   0  0  0  0  0  0  0  0  0  0  0  0
    7.0890    0.4660    0.3390 C   0  0  0  0  0  0  0  0  0  0  0  0
    0.6000   -0.6900    1.8140 O   0  0  0  0  0  0  0  0  0  0  0  0
   -2.8900    2.7850   -1.1150 C   0  0  0  0  0  0  0  0  0  0  0  0
   -3.2690    2.4070   -2.4240 N   0  0  0  0  0  0  0  0  0  0  0  0
   -2.2920    4.3090   -0.9320 S   0  0  0  0  0  0  0  0  0  0  0  0
  1  2  1  0
  2  3  1  0
  3  4  2  0
  3  5  1  0
  5  6  1  0
  6  7  2  0
  6  8  1  0
  8  9  1  6
  8 26  1  0
  9 10  1  0
 10 11  2  0
 12 10  1  1
 12 13  1  0
 12 25  1  0
 14 13  1  6
 14 15  1  0
 14 17  1  0
 15 16  1  6
 15 25  1  0
 16 17  1  0
 17 18  1  1
 17 19  1  0
 19 20  1  1
 19 21  1  0
 21 22  2  0
 21 23  1  0
 23 24  1  0
 26 27  1  0
 26 28  2  0
M  END
