
     RDKit          3D

 28 29  0  0  0  0  0  0  0  0999 V2000
   -0.9380    1.4540    1.9390 C   0  0  0  0  0  0  0  0  0  0  0  0
   -1.0190    1.9420    0.5110 C   0  0  1  0  0  0  0  0  0  0  0  0
   -2.3840    2.4170    0.1420 C   0  0  0  0  0  0  0  0  0  0  0  0
   -3.4670    1.5110    0.2500 N   0  0  0  0  0  0  0  0  0  0  0  0
   -3.6130    0.3200   -0.4820 C   0  0  0  0  0  0  0  0  0  0  0  0
   -2.7840   -0.0650   -1.3310 O   0  0  0  0  0  0  0  0  0  0  0  0
   -4.8330   -0.5180   -0.2170 C   0  0  0  0  0  0  0  0  0  0  0  0
   -4.8250   -1.7510   -1.0860 C   0  0  1  0  0  0  0  0  0  0  0  0
   -3.6520   -2.5560   -0.8200 N   0  0  0  0  0  0  0  0  0  0  0  0
   -6.0650   -2.5530   -0.7280 C   0  0  0  0  0  0  0  0  0  0  0  0
   -5.9830   -2.8690    0.6210 O   0  0  0  0  0  0  0  0  0  0  0  0
   -0.1020    3.1640    0.3330 C   0  0  0  0  0  0  0  0  0  0  0  0
    1.2710    2.6270    0.0830 C   0  0  2  0  0  0  0  0  0  0  0  0
    2.1230    3.6840   -0.1240 O   0  0  0  0  0  0  0  0  0  0  0  0
    1.1690    1.7570   -1.1530 C   0  0  1  0  0  0  0  0  0  0  0  0
    2.3330    0.8590   -1.3010 C   0  0  0  0  0  0  0  0  0  0  0  0
    3.0220    0.9890   -2.3490 O   0  0  0  0  0  0  0  0  0  0  0  0
    2.6810   -0.0930   -0.3550 O   0  0  0  0  0  0  0  0  0  0  0  0
    3.8100   -0.8900   -0.6050 C   0  0  1  0  0  0  0  0  0  0  0  0
    4.8930   -0.7030    0.4520 C   0  0  0  0  0  0  0  0  0  0  0  0
    5.6610   -2.0190    0.2850 C   0  0  1  0  0  0  0  0  0  0  0  0
    6.5810   -2.2800    1.3800 C   0  0  0  0  0  0  0  0  0  0  0  0
    6.4090   -3.2520    2.1440 O   0  0  0  0  0  0  0  0  0  0  0  0
    7.6630   -1.4510    1.5910 O   0  0  0  0  0  0  0  0  0  0  0  0
    4.6060   -2.9440    0.1900 O   0  0  0  0  0  0  0  0  0  0  0  0
    3.5320   -2.3440   -0.4760 C   0  0  0  0  0  0  0  0  0  0  0  0
    2.4870   -2.8860   -0.9130 O   0  0  0  0  0  0  0  0  0  0  0  0
   -0.3400    0.8090   -0.7000 S   0  0  0  0  0  0  0  0  0  0  0  0
  2  1  1  1
  2  3  1  0
  2 12  1  0
  2 28  1  0
  3  4  1  0
  4  5  1  0
  5  6  2  0
  5  7  1  0
  7  8  1  0
  8  9  1  1
  8 10  1  0
 10 11  1  0
 12 13  1  0
 13 14  1  6
 13 15  1  0
 15 16  1  1
 15 28  1  0
 16 17  2  0
 16 18  1  0
 19 18  1  1
 19 20  1  0
 19 26  1  0
 20 21  1  0
 21 22  1  1
 21 25  1  0
 22 23  2  0
 22 24  1  0
 25 26  1  0
 26 27  2  0
M  END
