
     RDKit          3D

 21 23  0  0  0  0  0  0  0  0999 V2000
   -1.8880   -1.5710    1.9100 N   0  0  0  0  0  0  0  0  0  0  0  0
   -2.4790   -1.9030    0.6730 C   0  0  0  0  0  0  0  0  0  0  0  0
   -3.3230   -2.8360    0.6740 O   0  0  0  0  0  0  0  0  0  0  0  0
   -2.1910   -1.2540   -0.6150 C   0  0  0  0  0  0  0  0  0  0  0  0
   -1.2190   -0.2040   -0.5260 N   0  0  0  0  0  0  0  0  0  0  0  0
    0.1310   -0.2730   -0.6530 C   0  0  0  0  0  0  0  0  0  0  0  0
    0.6810    0.9810   -0.4950 C   0  0  0  0  0  0  0  0  0  0  0  0
   -0.3510    1.8390   -0.2670 C   0  0  0  0  0  0  0  0  0  0  0  0
   -0.3300    3.2000   -0.0460 C   0  0  0  0  0  0  0  0  0  0  0  0
   -1.5020    3.8650    0.1620 C   0  0  0  0  0  0  0  0  0  0  0  0
   -1.5470    5.6110    0.4510 Cl  0  0  0  0  0  0  0  0  0  0  0  0
   -2.6820    3.1480    0.1460 C   0  0  0  0  0  0  0  0  0  0  0  0
   -2.6910    1.7900   -0.0750 C   0  0  0  0  0  0  0  0  0  0  0  0
   -1.5060    1.0930   -0.2900 C   0  0  0  0  0  0  0  0  0  0  0  0
    2.1740    1.0960   -0.6040 C   0  0  0  0  0  0  0  0  0  0  0  0
    2.7170   -0.1130    0.1430 C   0  0  0  0  0  0  0  0  0  0  0  0
    2.3830   -1.3500   -0.6670 C   0  0  1  0  0  0  0  0  0  0  0  0
    2.9620   -2.5000    0.0550 C   0  0  0  0  0  0  0  0  0  0  0  0
    3.8120   -3.2090   -0.5170 O   0  0  0  0  0  0  0  0  0  0  0  0
    2.5850   -2.8070    1.3430 O   0  0  0  0  0  0  0  0  0  0  0  0
    0.9180   -1.5020   -0.9210 C   0  0  0  0  0  0  0  0  0  0  0  0
  1  2  1  0
  2  3  2  0
  2  4  1  0
  4  5  1  0
  5  6  1  0
  5 14  1  0
  6  7  2  0
  6 21  1  0
  7  8  1  0
  7 15  1  0
  8  9  2  0
  8 14  1  0
  9 10  1  0
 10 11  1  0
 10 12  2  0
 12 13  1  0
 13 14  2  0
 15 16  1  0
 16 17  1  0
 17 18  1  1
 17 21  1  0
 18 19  2  0
 18 20  1  0
M  END
