
     RDKit          3D

 21 22  0  0  0  0  0  0  0  0999 V2000
   -3.1040   -3.4020   -0.4360 C   0  0  0  0  0  0  0  0  0  0  0  0
   -2.3460   -2.3470   -1.1900 C   0  0  0  0  0  0  0  0  0  0  0  0
   -1.3890   -1.7190   -0.2860 N   0  0  0  0  0  0  0  0  0  0  0  0
   -1.3170   -0.2980   -0.5170 C   0  0  0  0  0  0  0  0  0  0  0  0
   -0.6950    0.4660    0.6340 C   0  0  2  0  0  0  0  0  0  0  0  0
   -1.4510    0.2650    1.8130 O   0  0  0  0  0  0  0  0  0  0  0  0
   -0.8810    1.9250    0.2810 C   0  0  1  0  0  0  0  0  0  0  0  0
   -0.1980    2.2960   -0.8610 O   0  0  0  0  0  0  0  0  0  0  0  0
   -0.8630    3.4120   -1.3370 C   0  0  0  0  0  0  0  0  0  0  0  0
   -2.2820    3.1660   -0.9300 C   0  0  0  0  0  0  0  0  0  0  0  0
   -2.2340    2.0310   -0.1320 O   0  0  0  0  0  0  0  0  0  0  0  0
    0.6990    0.0560    0.9020 C   0  0  2  0  0  0  0  0  0  0  0  0
    1.2330    0.6220    2.2000 C   0  0  0  0  0  0  0  0  0  0  0  0
    1.5380    2.0170    2.1630 N   0  0  0  0  0  0  0  0  0  0  0  0
    1.5710    0.2010   -0.1470 O   0  0  0  0  0  0  0  0  0  0  0  0
    2.1320   -0.9440   -0.6260 C   0  0  1  0  0  0  0  0  0  0  0  0
    1.9530   -1.1300   -2.1190 C   0  0  0  0  0  0  0  0  0  0  0  0
    3.2520   -1.2360   -2.6150 O   0  0  0  0  0  0  0  0  0  0  0  0
    4.0050   -0.5050   -1.8210 O   0  0  0  0  0  0  0  0  0  0  0  0
    3.6560   -0.8260   -0.5250 C   0  0  2  0  0  0  0  0  0  0  0  0
    4.2110   -2.0220   -0.1210 O   0  0  0  0  0  0  0  0  0  0  0  0
  1  2  1  0
  2  3  1  0
  3  4  1  0
  4  5  1  0
  5  6  1  1
  5  7  1  0
  5 12  1  0
  7  8  1  6
  7 11  1  0
  8  9  1  0
  9 10  1  0
 10 11  1  0
 12 13  1  1
 12 15  1  0
 13 14  1  0
 16 15  1  6
 16 17  1  0
 16 20  1  0
 17 18  1  0
 18 19  1  0
 19 20  1  0
 20 21  1  6
M  CHG  2   3   1  14   1
M  END
