
     RDKit          3D

 21 21  0  0  0  0  0  0  0  0999 V2000
    2.5970   -1.2120    1.9720 C   0  0  0  0  0  0  0  0  0  0  0  0
    2.5850   -0.0400    1.0490 C   0  0  2  0  0  0  0  0  0  0  0  0
    3.2940    1.1670    1.6260 C   0  0  0  0  0  0  0  0  0  0  0  0
    4.6070    0.7910    2.1170 N   0  0  0  0  0  0  0  0  0  0  0  0
    1.3010    0.2920    0.5610 O   0  0  0  0  0  0  0  0  0  0  0  0
    0.9430    0.2400   -0.7670 C   0  0  0  0  0  0  0  0  0  0  0  0
    1.8580   -0.1340   -1.5610 O   0  0  0  0  0  0  0  0  0  0  0  0
   -0.4350    0.5980   -1.2700 C   0  0  1  0  0  0  0  0  0  0  0  0
   -0.3800    0.4130   -2.7020 O   0  0  0  0  0  0  0  0  0  0  0  0
   -0.2380   -0.8540   -3.2540 C   0  0  0  0  0  0  0  0  0  0  0  0
   -0.0070   -0.8290   -4.4870 O   0  0  0  0  0  0  0  0  0  0  0  0
   -0.3120   -2.1820   -2.6490 C   0  0  0  0  0  0  0  0  0  0  0  0
   -0.0270   -2.2530   -1.3220 O   0  0  0  0  0  0  0  0  0  0  0  0
   -0.7890   -1.6500   -0.4180 C   0  0  0  0  0  0  0  0  0  0  0  0
   -1.4660   -0.3690   -0.7970 C   0  0  2  0  0  0  0  0  0  0  0  0
   -2.3560   -0.6920   -1.8600 O   0  0  0  0  0  0  0  0  0  0  0  0
   -2.3660    0.1060    0.2980 C   0  0  1  0  0  0  0  0  0  0  0  0
   -1.6650    0.5000    1.5530 C   0  0  0  0  0  0  0  0  0  0  0  0
   -2.6610    0.9290    2.5230 N   0  0  0  0  0  0  0  0  0  0  0  0
   -3.3550    1.1510   -0.0970 C   0  0  0  0  0  0  0  0  0  0  0  0
   -2.7610    2.3150   -0.5770 O   0  0  0  0  0  0  0  0  0  0  0  0
  2  1  1  1
  2  3  1  0
  2  5  1  0
  3  4  1  0
  5  6  1  0
  6  7  2  0
  8  6  1  1
  8  9  1  0
  8 15  1  0
  9 10  1  0
 10 11  2  0
 10 12  1  0
 12 13  1  0
 13 14  1  0
 14 15  1  0
 15 16  1  6
 15 17  1  0
 17 18  1  1
 17 20  1  0
 18 19  1  0
 20 21  1  0
M  CHG  2   4   1  19   1
M  END
