
     RDKit          3D

 20 21  0  0  0  0  0  0  0  0999 V2000
    5.0640   -0.8580    2.4190 N   0  0  0  0  0  0  0  0  0  0  0  0
    4.2940   -0.8200    1.3220 O   0  0  0  0  0  0  0  0  0  0  0  0
    4.4460    0.3820    0.6380 C   0  0  1  0  0  0  0  0  0  0  0  0
    4.9800    0.1780   -0.7490 C   0  0  0  0  0  0  0  0  0  0  0  0
    3.8840    0.7740   -1.6070 C   0  0  0  0  0  0  0  0  0  0  0  0
    2.6800    0.5980   -0.7020 C   0  0  2  0  0  0  0  0  0  0  0  0
    1.6260    1.4140   -1.0670 O   0  0  0  0  0  0  0  0  0  0  0  0
    0.4920    0.5710   -1.2240 C   0  0  0  0  0  0  0  0  0  0  0  0
   -0.7070    1.4250   -1.6280 C   0  0  0  0  0  0  0  0  0  0  0  0
   -1.8610    0.7650   -1.8260 O   0  0  0  0  0  0  0  0  0  0  0  0
   -2.4190    0.0300   -0.8730 C   0  0  2  0  0  0  0  0  0  0  0  0
   -1.5590   -1.0120   -0.4360 O   0  0  0  0  0  0  0  0  0  0  0  0
   -3.5960   -0.8190   -1.5180 C   0  0  0  0  0  0  0  0  0  0  0  0
   -3.9130   -1.9440   -0.5990 C   0  0  0  0  0  0  0  0  0  0  0  0
   -4.1810   -1.5160    0.8180 C   0  0  0  0  0  0  0  0  0  0  0  0
   -3.2690   -0.4610    1.3230 C   0  0  1  0  0  0  0  0  0  0  0  0
   -2.0500   -0.9800    1.6960 O   0  0  0  0  0  0  0  0  0  0  0  0
   -3.1110    0.6600    0.2880 C   0  0  1  0  0  0  0  0  0  0  0  0
   -2.5310    1.8200    0.8690 N   0  0  0  0  0  0  0  0  0  0  0  0
    3.2040    0.9910    0.5290 O   0  0  0  0  0  0  0  0  0  0  0  0
  1  2  1  0
  3  2  1  6
  3  4  1  0
  3 20  1  0
  4  5  1  0
  5  6  1  0
  6  7  1  6
  6 20  1  0
  7  8  1  0
  8  9  1  0
  9 10  1  0
 10 11  1  0
 11 12  1  1
 11 13  1  0
 11 18  1  0
 13 14  1  0
 14 15  1  0
 15 16  1  0
 16 17  1  6
 16 18  1  0
 18 19  1  1
M  CHG  2   1   1  19   1
M  END
