
     RDKit          3D

 20 22  0  0  0  0  0  0  0  0999 V2000
   -3.4830    0.1600   -2.0070 C   0  0  0  0  0  0  0  0  0  0  0  0
   -3.3040   -0.0580   -0.5310 C   0  0  2  0  0  0  0  0  0  0  0  0
   -1.9980    0.4250    0.0260 C   0  0  0  0  0  0  0  0  0  0  0  0
   -1.9990    1.3020    0.9140 O   0  0  0  0  0  0  0  0  0  0  0  0
   -0.7660   -0.0840   -0.4260 N   0  0  0  0  0  0  0  0  0  0  0  0
    0.5320    0.2970    0.0220 C   0  0  0  0  0  0  0  0  0  0  0  0
    0.8200    1.3210    0.8770 C   0  0  0  0  0  0  0  0  0  0  0  0
    2.1100    1.6270    1.2780 C   0  0  0  0  0  0  0  0  0  0  0  0
    3.1510    0.8640    0.7940 C   0  0  0  0  0  0  0  0  0  0  0  0
    4.4230    1.1630    1.1880 N   0  0  0  0  0  0  0  0  0  0  0  0
    5.4480    0.4280    0.7250 C   0  0  0  0  0  0  0  0  0  0  0  0
    6.6250    0.7330    1.1120 O   0  0  0  0  0  0  0  0  0  0  0  0
    5.2490   -0.6230   -0.1410 C   0  0  0  0  0  0  0  0  0  0  0  0
    6.3420   -1.3680   -0.6040 O   0  0  0  0  0  0  0  0  0  0  0  0
    3.9900   -0.9430   -0.5500 C   0  0  0  0  0  0  0  0  0  0  0  0
    2.9270   -0.1850   -0.0730 C   0  0  0  0  0  0  0  0  0  0  0  0
    1.6370   -0.4390   -0.4330 C   0  0  0  0  0  0  0  0  0  0  0  0
   -3.6740   -1.4480   -0.0550 C   0  0  0  0  0  0  0  0  0  0  0  0
   -4.4050   -0.8050    1.1050 C   0  0  0  0  0  0  0  0  0  0  0  0
   -4.4520    0.4820    0.2870 C   0  0  0  0  0  0  0  0  0  0  0  0
  2  1  1  6
  2  3  1  0
  2 18  1  0
  2 20  1  0
  3  4  2  0
  3  5  1  0
  5  6  1  0
  6  7  2  0
  6 17  1  0
  7  8  1  0
  8  9  2  0
  9 10  1  0
  9 16  1  0
 10 11  1  0
 11 12  2  0
 11 13  1  0
 13 14  1  0
 13 15  2  0
 15 16  1  0
 16 17  2  0
 18 19  1  0
 19 20  1  0
M  END
