
     RDKit          3D

 21 22  0  0  0  0  0  0  0  0999 V2000
    5.2200    1.5850   -0.5350 N   0  0  0  0  0  0  0  0  0  0  0  0
    4.5030    1.6200    0.7470 C   0  0  0  0  0  0  0  0  0  0  0  0
    3.8890    0.2480    0.9380 C   0  0  1  0  0  0  0  0  0  0  0  0
    2.9590    0.1840    2.1140 C   0  0  0  0  0  0  0  0  0  0  0  0
    1.7070   -0.0920    1.5610 O   0  0  0  0  0  0  0  0  0  0  0  0
    1.8100    0.5360    0.3300 C   0  0  2  0  0  0  0  0  0  0  0  0
    0.7570    0.1440   -0.6440 C   0  0  2  0  0  0  0  0  0  0  0  0
   -0.5330    0.4030   -0.2580 O   0  0  0  0  0  0  0  0  0  0  0  0
   -1.3130   -0.1920   -1.2220 C   0  0  2  0  0  0  0  0  0  0  0  0
   -2.6740   -0.6170   -0.8280 C   0  0  0  0  0  0  0  0  0  0  0  0
   -3.5220    0.5260   -0.3700 C   0  0  1  0  0  0  0  0  0  0  0  0
   -3.6640    1.4950   -1.3640 O   0  0  0  0  0  0  0  0  0  0  0  0
   -4.9550    0.0200   -0.0670 C   0  0  0  0  0  0  0  0  0  0  0  0
   -4.8840   -0.9430    0.9110 O   0  0  0  0  0  0  0  0  0  0  0  0
   -3.0260    1.0650    0.9390 C   0  0  0  0  0  0  0  0  0  0  0  0
   -2.8910   -0.0190    1.8060 O   0  0  0  0  0  0  0  0  0  0  0  0
   -0.5510   -1.4160   -1.7150 C   0  0  2  0  0  0  0  0  0  0  0  0
   -1.2730   -2.5830   -1.5500 O   0  0  0  0  0  0  0  0  0  0  0  0
    0.6930   -1.3670   -0.8530 C   0  0  2  0  0  0  0  0  0  0  0  0
    0.3970   -2.0300    0.3960 N   0  0  0  0  0  0  0  0  0  0  0  0
    3.0280    0.0400   -0.1400 O   0  0  0  0  0  0  0  0  0  0  0  0
  1  2  1  0
  3  2  1  6
  3  4  1  0
  3 21  1  0
  4  5  1  0
  6  5  1  1
  6  7  1  0
  6 21  1  0
  7  8  1  1
  7 19  1  0
  8  9  1  0
  9 10  1  1
  9 17  1  0
 10 11  1  0
 11 12  1  6
 11 13  1  0
 11 15  1  0
 13 14  1  0
 15 16  1  0
 17 18  1  1
 17 19  1  0
 19 20  1  1
M  CHG  2   1   1  20   1
M  END
