
     RDKit          3D

 20 21  0  0  0  0  0  0  0  0999 V2000
   -0.2930    2.6300    2.5520 N   0  0  0  0  0  0  0  0  0  0  0  0
   -1.2440    1.7050    1.9670 C   0  0  0  0  0  0  0  0  0  0  0  0
   -0.7860    1.2000    0.6210 C   0  0  1  0  0  0  0  0  0  0  0  0
    0.4320    0.5220    0.6680 O   0  0  0  0  0  0  0  0  0  0  0  0
    1.5670    0.9580    0.0120 C   0  0  0  0  0  0  0  0  0  0  0  0
    1.4330    2.0130   -0.6600 O   0  0  0  0  0  0  0  0  0  0  0  0
    2.8210    0.2060    0.1280 C   0  0  1  0  0  0  0  0  0  0  0  0
    2.5980   -1.2500   -0.1010 C   0  0  0  0  0  0  0  0  0  0  0  0
    3.7300   -1.9730    0.3070 O   0  0  0  0  0  0  0  0  0  0  0  0
    4.8470   -1.1750    0.4150 C   0  0  0  0  0  0  0  0  0  0  0  0
    4.8650   -0.1790   -0.7210 C   0  0  0  0  0  0  0  0  0  0  0  0
    3.8510    0.7590   -0.6340 O   0  0  0  0  0  0  0  0  0  0  0  0
   -1.8210    0.3240    0.0060 C   0  0  1  0  0  0  0  0  0  0  0  0
   -3.0840    0.9340   -0.0150 O   0  0  0  0  0  0  0  0  0  0  0  0
   -4.0190   -0.1020    0.0870 C   0  0  0  0  0  0  0  0  0  0  0  0
   -3.7970   -1.1240   -1.0090 C   0  0  2  0  0  0  0  0  0  0  0  0
   -3.2710   -2.2720   -0.4250 O   0  0  0  0  0  0  0  0  0  0  0  0
   -2.7930   -0.6250   -2.0210 C   0  0  0  0  0  0  0  0  0  0  0  0
   -1.5430   -0.0630   -1.4310 C   0  0  2  0  0  0  0  0  0  0  0  0
   -0.5010   -1.0590   -1.5260 N   0  0  0  0  0  0  0  0  0  0  0  0
  1  2  1  0
  3  2  1  1
  3  4  1  0
  3 13  1  0
  4  5  1  0
  5  6  2  0
  7  5  1  6
  7  8  1  0
  7 12  1  0
  8  9  1  0
  9 10  1  0
 10 11  1  0
 11 12  1  0
 13 14  1  6
 13 19  1  0
 14 15  1  0
 15 16  1  0
 16 17  1  1
 16 18  1  0
 18 19  1  0
 19 20  1  1
M  CHG  2   1   1  20   1
M  END
