
     RDKit          3D

 20 21  0  0  0  0  0  0  0  0999 V2000
   -5.3240   -0.7560    0.0330 N   0  0  0  0  0  0  0  0  0  0  0  0
   -4.0230   -0.7060    0.6680 C   0  0  0  0  0  0  0  0  0  0  0  0
   -2.9980   -0.0330   -0.2460 C   0  0  1  0  0  0  0  0  0  0  0  0
   -3.3770    1.2500   -0.5410 O   0  0  0  0  0  0  0  0  0  0  0  0
   -2.6090    2.1330    0.1690 C   0  0  0  0  0  0  0  0  0  0  0  0
   -1.6820    1.4300    0.8950 O   0  0  0  0  0  0  0  0  0  0  0  0
   -1.7180    0.1190    0.4980 C   0  0  2  0  0  0  0  0  0  0  0  0
   -0.5080   -0.2740   -0.3330 C   0  0  1  0  0  0  0  0  0  0  0  0
   -0.4420    0.5350   -1.5010 N   0  0  0  0  0  0  0  0  0  0  0  0
    0.6790   -0.2390    0.5740 C   0  0  2  0  0  0  0  0  0  0  0  0
    0.9710    1.0850    1.2030 C   0  0  0  0  0  0  0  0  0  0  0  0
    2.2540    1.0290    1.7540 O   0  0  0  0  0  0  0  0  0  0  0  0
    2.5580   -0.2130    2.2500 C   0  0  0  0  0  0  0  0  0  0  0  0
    2.7810   -1.2520    1.1760 C   0  0  0  0  0  0  0  0  0  0  0  0
    1.9080   -0.8810   -0.0060 C   0  0  2  0  0  0  0  0  0  0  0  0
    2.7150    0.0090   -0.9050 C   0  0  0  0  0  0  0  0  0  0  0  0
    3.8260   -0.7920   -1.3450 O   0  0  0  0  0  0  0  0  0  0  0  0
    4.7760   -0.2600   -2.1990 C   0  0  0  0  0  0  0  0  0  0  0  0
    4.6370    0.9170   -2.5690 O   0  0  0  0  0  0  0  0  0  0  0  0
    5.8260   -1.0770   -2.5910 O   0  0  0  0  0  0  0  0  0  0  0  0
  1  2  1  0
  3  2  1  1
  3  4  1  0
  3  7  1  0
  4  5  1  0
  5  6  1  0
  7  6  1  6
  7  8  1  0
  8  9  1  6
  8 10  1  0
 10 11  1  6
 10 15  1  0
 11 12  1  0
 12 13  1  0
 13 14  1  0
 14 15  1  0
 15 16  1  6
 16 17  1  0
 17 18  1  0
 18 19  2  0
 18 20  1  0
M  CHG  2   1   1   9   1
M  END
