
     RDKit          3D

 19 20  0  0  0  0  0  0  0  0999 V2000
    5.3550   -0.6140    1.5780 N   0  0  0  0  0  0  0  0  0  0  0  0
    4.3790   -0.2420    0.6280 C   0  0  0  0  0  0  0  0  0  0  0  0
    3.1950    0.1600    0.9960 C   0  0  0  0  0  0  0  0  0  0  0  0
    2.2090    0.5400   -0.0220 C   0  0  0  0  0  0  0  0  0  0  0  0
    0.9660    0.9620    0.4280 O   0  0  0  0  0  0  0  0  0  0  0  0
   -0.1840    0.2610   -0.0010 C   0  0  0  0  0  0  0  0  0  0  0  0
   -1.4180    0.8810    0.6110 C   0  0  0  0  0  0  0  0  0  0  0  0
   -2.6850    0.2490    0.2690 C   0  0  0  0  0  0  0  0  0  0  0  0
   -2.8750   -1.0520   -0.1410 C   0  0  0  0  0  0  0  0  0  0  0  0
   -4.1480   -1.5440   -0.4230 C   0  0  0  0  0  0  0  0  0  0  0  0
   -4.3960   -3.1940   -0.9460 Cl  0  0  0  0  0  0  0  0  0  0  0  0
   -5.2640   -0.7400   -0.3010 C   0  0  0  0  0  0  0  0  0  0  0  0
   -6.8630   -1.3990   -0.6620 Cl  0  0  0  0  0  0  0  0  0  0  0  0
   -5.0890    0.5530    0.1050 C   0  0  0  0  0  0  0  0  0  0  0  0
   -3.8370    1.0330    0.3810 C   0  0  0  0  0  0  0  0  0  0  0  0
   -3.6630    2.6950    0.8930 Cl  0  0  0  0  0  0  0  0  0  0  0  0
    2.5350    0.4670   -1.2780 C   0  0  0  0  0  0  0  0  0  0  0  0
    3.8570    0.0190   -1.7480 C   0  0  0  0  0  0  0  0  0  0  0  0
    4.7360   -0.3220   -0.7050 O   0  0  0  0  0  0  0  0  0  0  0  0
  1  2  1  0
  2  3  2  0
  2 19  1  0
  3  4  1  0
  4  5  1  0
  4 17  2  0
  5  6  1  0
  6  7  1  0
  7  8  1  0
  8  9  2  0
  8 15  1  0
  9 10  1  0
 10 11  1  0
 10 12  2  0
 12 13  1  0
 12 14  1  0
 14 15  2  0
 15 16  1  0
 17 18  1  0
 18 19  1  0
M  END
