
     RDKit          3D

 19 20  0  0  0  0  0  0  0  0999 V2000
    4.4320   -0.3150    1.3690 C   0  0  0  0  0  0  0  0  0  0  0  0
    3.7600   -0.7160    0.1990 O   0  0  0  0  0  0  0  0  0  0  0  0
    3.2270    0.2040   -0.6900 C   0  0  0  0  0  0  0  0  0  0  0  0
    4.0770    0.8930   -1.4300 C   0  0  0  0  0  0  0  0  0  0  0  0
    5.7800    0.6130   -1.2510 Cl  0  0  0  0  0  0  0  0  0  0  0  0
    1.7840    0.4110   -0.8130 C   0  0  0  0  0  0  0  0  0  0  0  0
    0.8590   -0.2020   -0.1560 C   0  0  0  0  0  0  0  0  0  0  0  0
    0.8840   -1.2720    0.8970 C   0  0  0  0  0  0  0  0  0  0  0  0
   -0.1960   -0.7640    1.7590 N   0  0  0  0  0  0  0  0  0  0  0  0
   -1.2390   -0.3070    0.8820 C   0  0  0  0  0  0  0  0  0  0  0  0
   -2.6040   -0.1690    0.9930 C   0  0  0  0  0  0  0  0  0  0  0  0
   -3.3420    0.3110   -0.0610 C   0  0  0  0  0  0  0  0  0  0  0  0
   -4.7150    0.4530    0.0430 O   0  0  0  0  0  0  0  0  0  0  0  0
   -5.3510    0.0980    1.2470 C   0  0  0  0  0  0  0  0  0  0  0  0
   -2.7080    0.6520   -1.2260 C   0  0  0  0  0  0  0  0  0  0  0  0
   -3.5980    1.2680   -2.6020 Cl  0  0  0  0  0  0  0  0  0  0  0  0
   -1.3230    0.5260   -1.3780 C   0  0  0  0  0  0  0  0  0  0  0  0
   -0.5570    0.9660   -2.8980 Cl  0  0  0  0  0  0  0  0  0  0  0  0
   -0.5970    0.0440   -0.3120 C   0  0  0  0  0  0  0  0  0  0  0  0
  1  2  1  0
  2  3  1  0
  3  4  2  3
  3  6  1  0
  4  5  1  0
  6  7  2  3
  7  8  1  0
  7 19  1  0
  8  9  1  0
  9 10  1  0
 10 11  2  0
 10 19  1  0
 11 12  1  0
 12 13  1  0
 12 15  2  0
 13 14  1  0
 15 16  1  0
 15 17  1  0
 17 18  1  0
 17 19  2  0
M  END
