
     RDKit          3D

 19 20  0  0  0  0  0  0  0  0999 V2000
   -4.5720    0.8500    0.9460 C   0  0  0  0  0  0  0  0  0  0  0  0
   -4.0430   -0.4340    1.4980 C   0  0  0  0  0  0  0  0  0  0  0  0
   -2.6020   -0.6280    1.1610 C   0  0  0  0  0  0  0  0  0  0  0  0
   -1.8690   -1.7290    1.5480 C   0  0  0  0  0  0  0  0  0  0  0  0
   -0.6090   -1.5120    1.0380 C   0  0  0  0  0  0  0  0  0  0  0  0
   -0.6060   -0.3100    0.3680 C   0  0  0  0  0  0  0  0  0  0  0  0
    0.5330    0.3080   -0.3280 C   0  0  0  0  0  0  0  0  0  0  0  0
    0.4120    1.5220   -0.9670 C   0  0  0  0  0  0  0  0  0  0  0  0
    1.5070    2.0330   -1.5900 C   0  0  0  0  0  0  0  0  0  0  0  0
    1.3770    3.5750   -2.4090 Cl  0  0  0  0  0  0  0  0  0  0  0  0
    2.7610    1.3670   -1.6060 C   0  0  0  0  0  0  0  0  0  0  0  0
    3.7940    1.9500   -2.2490 O   0  0  0  0  0  0  0  0  0  0  0  0
    2.8350    0.1770   -0.9650 C   0  0  0  0  0  0  0  0  0  0  0  0
    4.0090   -0.6800   -0.8500 C   0  0  0  0  0  0  0  0  0  0  0  0
    5.5170   -0.2250   -1.5690 Cl  0  0  0  0  0  0  0  0  0  0  0  0
    3.9600   -1.8290   -0.1950 C   0  0  0  0  0  0  0  0  0  0  0  0
    5.3760   -2.8270   -0.0760 Cl  0  0  0  0  0  0  0  0  0  0  0  0
    1.7130   -0.3110   -0.3470 N   0  0  0  0  0  0  0  0  0  0  0  0
   -1.8120    0.1690    0.4730 O   0  0  0  0  0  0  0  0  0  0  0  0
  1  2  1  0
  2  3  1  0
  3  4  2  0
  3 19  1  0
  4  5  1  0
  5  6  2  0
  6  7  1  0
  6 19  1  0
  7  8  2  0
  7 18  1  0
  8  9  1  0
  9 10  1  0
  9 11  2  0
 11 12  1  0
 11 13  1  0
 13 14  1  0
 13 18  2  0
 14 15  1  0
 14 16  2  3
 16 17  1  0
M  END
