
     RDKit          3D

 19 19  0  0  0  0  0  0  0  0999 V2000
   -3.3640   -1.7370    0.9490 C   0  0  0  0  0  0  0  0  0  0  0  0
   -3.9090   -0.5100    0.4170 C   0  0  0  0  0  0  0  0  0  0  0  0
   -3.1170    0.5310   -0.1070 C   0  0  0  0  0  0  0  0  0  0  0  0
   -1.7440    0.2420   -0.0550 C   0  0  0  0  0  0  0  0  0  0  0  0
   -0.5540    0.6280   -0.3020 C   0  0  0  0  0  0  0  0  0  0  0  0
   -0.0200    2.0990   -1.0090 Cl  0  0  0  0  0  0  0  0  0  0  0  0
    0.5390   -0.3660    0.0910 C   0  0  0  0  0  0  0  0  0  0  0  0
    0.2430   -1.4600    0.6110 O   0  0  0  0  0  0  0  0  0  0  0  0
    1.8630   -0.0680   -0.1240 O   0  0  0  0  0  0  0  0  0  0  0  0
    2.8850   -0.9590    0.2260 C   0  0  1  0  0  0  0  0  0  0  0  0
    3.8050   -1.2820   -0.9260 C   0  0  0  0  0  0  0  0  0  0  0  0
    4.7480   -0.1270   -1.0250 C   0  0  0  0  0  0  0  0  0  0  0  0
    4.9630    0.2730    0.4150 C   0  0  0  0  0  0  0  0  0  0  0  0
    3.8310   -0.3090    1.2120 C   0  0  0  0  0  0  0  0  0  0  0  0
   -3.9080    1.6210   -0.5620 C   0  0  0  0  0  0  0  0  0  0  0  0
   -5.3890    1.3010   -0.3290 N   0  0  0  0  0  0  0  0  0  0  0  0
   -3.8450    2.7670   -1.0930 C   0  0  0  0  0  0  0  0  0  0  0  0
   -2.4820    3.6750   -1.5900 Cl  0  0  0  0  0  0  0  0  0  0  0  0
   -5.4550    3.6070   -1.3850 Cl  0  0  0  0  0  0  0  0  0  0  0  0
  1  2  1  0
  2  3  2  3
  3  4  1  0
  3 15  1  0
  4  5  2  3
  5  6  1  0
  5  7  1  0
  7  8  2  0
  7  9  1  0
 10  9  1  6
 10 11  1  0
 10 14  1  0
 11 12  1  0
 12 13  1  0
 13 14  1  0
 15 16  1  0
 15 17  2  3
 17 18  1  0
 17 19  1  0
M  END
