
     RDKit          3D

 25 27  0  0  0  0  0  0  0  0999 V2000
    5.8820    2.8320   -0.3220 O   0  0  0  0  0  0  0  0  0  0  0  0
    5.3790    1.6840   -0.0020 C   0  0  0  0  0  0  0  0  0  0  0  0
    5.7100    0.6630   -0.8320 O   0  0  0  0  0  0  0  0  0  0  0  0
    4.5110    1.5990    1.1790 C   0  0  0  0  0  0  0  0  0  0  0  0
    3.0920    1.5420    0.6840 N   0  0  0  0  0  0  0  0  0  0  0  0
    2.7010    0.3500    0.0230 C   0  0  0  0  0  0  0  0  0  0  0  0
    3.7000   -0.5270    0.0380 O   0  0  0  0  0  0  0  0  0  0  0  0
    1.5760   -0.0690   -0.6230 C   0  0  0  0  0  0  0  0  0  0  0  0
    0.2550   -0.4600   -0.2620 N   0  0  0  0  0  0  0  0  0  0  0  0
   -0.9050    0.2140   -0.3850 C   0  0  0  0  0  0  0  0  0  0  0  0
   -1.9300   -0.6200   -0.0870 C   0  0  0  0  0  0  0  0  0  0  0  0
   -1.4150   -1.8500    0.2420 C   0  0  0  0  0  0  0  0  0  0  0  0
   -2.0010   -3.0560    0.6200 C   0  0  0  0  0  0  0  0  0  0  0  0
   -1.1530   -4.1350    0.8800 C   0  0  0  0  0  0  0  0  0  0  0  0
   -1.8510   -5.8680    1.3530 Br  0  0  0  0  0  0  0  0  0  0  0  0
    0.2090   -4.0260    0.7820 C   0  0  0  0  0  0  0  0  0  0  0  0
    0.7450   -2.8150    0.4070 C   0  0  0  0  0  0  0  0  0  0  0  0
   -0.0690   -1.7300    0.1340 C   0  0  0  0  0  0  0  0  0  0  0  0
   -3.3810   -0.2360   -0.2890 C   0  0  0  0  0  0  0  0  0  0  0  0
   -3.4020    0.9470   -1.2550 C   0  0  0  0  0  0  0  0  0  0  0  0
   -2.5930    2.0220   -0.5620 C   0  0  1  0  0  0  0  0  0  0  0  0
   -3.0880    2.0400    0.8320 C   0  0  0  0  0  0  0  0  0  0  0  0
   -2.4410    1.7080    1.8330 O   0  0  0  0  0  0  0  0  0  0  0  0
   -4.4140    2.4640    0.9880 O   0  0  0  0  0  0  0  0  0  0  0  0
   -1.1410    1.6690   -0.7170 C   0  0  0  0  0  0  0  0  0  0  0  0
  1  2  2  0
  2  3  1  0
  2  4  1  0
  4  5  1  0
  5  6  1  0
  6  7  2  0
  6  8  1  0
  8  9  1  0
  9 10  1  0
  9 18  1  0
 10 11  2  0
 10 25  1  0
 11 12  1  0
 11 19  1  0
 12 13  2  0
 12 18  1  0
 13 14  1  0
 14 15  1  0
 14 16  2  0
 16 17  1  0
 17 18  2  0
 19 20  1  0
 20 21  1  0
 21 22  1  1
 21 25  1  0
 22 23  2  0
 22 24  1  0
M  END
