
     RDKit          3D

 14 14  0  0  0  0  0  0  0  0999 V2000
   -2.0500    1.5200   -1.1870 N   0  0  0  0  0  0  0  0  0  0  0  0
   -1.3800    1.6820    0.0620 C   0  0  2  0  0  0  0  0  0  0  0  0
   -0.4420    2.7070   -0.0830 O   0  0  0  0  0  0  0  0  0  0  0  0
   -0.6670    0.4390    0.5390 C   0  0  1  0  0  0  0  0  0  0  0  0
   -1.6070   -0.6380    0.9720 C   0  0  0  0  0  0  0  0  0  0  0  0
   -2.5430   -1.1200   -0.0880 C   0  0  1  0  0  0  0  0  0  0  0  0
   -1.8430   -1.6420   -1.1740 O   0  0  0  0  0  0  0  0  0  0  0  0
   -3.2660   -2.1970    0.4590 O   0  0  0  0  0  0  0  0  0  0  0  0
    0.2990    0.0100   -0.3410 O   0  0  0  0  0  0  0  0  0  0  0  0
    1.5690    0.1090    0.1750 C   0  0  1  0  0  0  0  0  0  0  0  0
    2.2360   -1.2710    0.2000 C   0  0  0  0  0  0  0  0  0  0  0  0
    3.6310   -0.9610   -0.2900 C   0  0  0  0  0  0  0  0  0  0  0  0
    3.7700    0.4050   -0.2060 O   0  0  0  0  0  0  0  0  0  0  0  0
    2.5240    0.8940   -0.6590 C   0  0  0  0  0  0  0  0  0  0  0  0
  2  1  1  6
  2  3  1  0
  2  4  1  0
  4  5  1  6
  4  9  1  0
  5  6  1  0
  6  7  1  6
  6  8  1  0
 10  9  1  6
 10 11  1  0
 10 14  1  0
 11 12  1  0
 12 13  1  0
 13 14  1  0
M  END
