
     RDKit          3D

 15 15  0  0  0  0  0  0  0  0999 V2000
    5.1390   -0.1130    1.0500 N   0  0  0  0  0  0  0  0  0  0  0  0
    3.9290   -0.6710    1.0020 O   0  0  0  0  0  0  0  0  0  0  0  0
    3.0860    0.1190    0.2210 C   0  0  0  0  0  0  0  0  0  0  0  0
    1.6930   -0.4740    0.1360 C   0  0  2  0  0  0  0  0  0  0  0  0
    1.8520   -1.7460   -0.4480 O   0  0  0  0  0  0  0  0  0  0  0  0
    0.8750    0.4310   -0.7370 C   0  0  2  0  0  0  0  0  0  0  0  0
    0.7660    1.6570   -0.0930 O   0  0  0  0  0  0  0  0  0  0  0  0
   -0.4580   -0.1130   -1.1220 C   0  0  1  0  0  0  0  0  0  0  0  0
   -0.2840   -1.3410   -1.7630 O   0  0  0  0  0  0  0  0  0  0  0  0
   -1.4330   -0.2800   -0.0200 C   0  0  2  0  0  0  0  0  0  0  0  0
   -2.7690   -0.6800   -0.6190 C   0  0  0  0  0  0  0  0  0  0  0  0
   -3.5080    0.4540   -0.9420 O   0  0  0  0  0  0  0  0  0  0  0  0
   -4.0320    0.9810    0.2420 C   0  0  0  0  0  0  0  0  0  0  0  0
   -2.9190    0.9280    1.2680 C   0  0  0  0  0  0  0  0  0  0  0  0
   -1.6550    0.9190    0.6680 O   0  0  0  0  0  0  0  0  0  0  0  0
  1  2  1  0
  2  3  1  0
  3  4  1  0
  4  5  1  6
  4  6  1  0
  6  7  1  1
  6  8  1  0
  8  9  1  1
  8 10  1  0
 10 11  1  6
 10 15  1  0
 11 12  1  0
 12 13  1  0
 13 14  1  0
 14 15  1  0
M  END
