
     RDKit          3D

 15 15  0  0  0  0  0  0  0  0999 V2000
    3.6360    0.4310   -0.5980 O   0  0  0  0  0  0  0  0  0  0  0  0
    2.3730    0.2700   -0.0040 C   0  0  2  0  0  0  0  0  0  0  0  0
    1.5640   -0.7430   -0.7720 C   0  0  0  0  0  0  0  0  0  0  0  0
    1.2600   -1.8940    0.0630 N   0  0  0  0  0  0  0  0  0  0  0  0
   -0.1010   -2.3430   -0.0830 C   0  0  2  0  0  0  0  0  0  0  0  0
   -0.6010   -2.8900    1.1010 O   0  0  0  0  0  0  0  0  0  0  0  0
   -0.1410   -3.3290   -1.0830 O   0  0  0  0  0  0  0  0  0  0  0  0
   -0.8720   -1.2880   -0.5260 O   0  0  0  0  0  0  0  0  0  0  0  0
   -2.1700   -1.3040   -0.0360 C   0  0  0  0  0  0  0  0  0  0  0  0
   -2.6900    0.1350   -0.1670 C   0  0  0  0  0  0  0  0  0  0  0  0
   -1.9610    0.8930    0.7290 O   0  0  0  0  0  0  0  0  0  0  0  0
   -1.7890    2.2040    0.3530 C   0  0  0  0  0  0  0  0  0  0  0  0
   -0.2940    2.4990    0.4090 C   0  0  0  0  0  0  0  0  0  0  0  0
    0.4120    1.6080   -0.3910 O   0  0  0  0  0  0  0  0  0  0  0  0
    1.7320    1.6280    0.0340 C   0  0  0  0  0  0  0  0  0  0  0  0
  2  1  1  6
  2  3  1  0
  2 15  1  0
  3  4  1  0
  4  5  1  0
  5  6  1  1
  5  7  1  0
  5  8  1  0
  8  9  1  0
  9 10  1  0
 10 11  1  0
 11 12  1  0
 12 13  1  0
 13 14  1  0
 14 15  1  0
M  END
