
     RDKit          3D

 14 14  0  0  0  0  0  0  0  0999 V2000
   -1.2480   -1.6350   -0.4270 C   0  0  0  0  0  0  0  0  0  0  0  0
   -0.9740   -0.2130    0.0180 C   0  0  2  0  0  0  0  0  0  0  0  0
    0.4280   -0.1390    0.6200 C   0  0  1  0  0  0  0  0  0  0  0  0
    0.5440   -0.8730    1.8400 N   0  0  0  0  0  0  0  0  0  0  0  0
    1.3550   -0.6580   -0.2870 O   0  0  0  0  0  0  0  0  0  0  0  0
    2.2940    0.2780   -0.6680 C   0  0  2  0  0  0  0  0  0  0  0  0
    2.2170    0.3750   -2.0770 O   0  0  0  0  0  0  0  0  0  0  0  0
    3.6660   -0.2980   -0.3140 C   0  0  0  0  0  0  0  0  0  0  0  0
    3.6850   -0.5160    1.0620 O   0  0  0  0  0  0  0  0  0  0  0  0
   -1.9880    0.2780    0.9790 C   0  0  0  0  0  0  0  0  0  0  0  0
   -2.7740    1.4570    0.5730 C   0  0  0  0  0  0  0  0  0  0  0  0
   -2.6610    1.8500   -0.7290 O   0  0  0  0  0  0  0  0  0  0  0  0
   -2.2390    0.7980   -1.5240 C   0  0  0  0  0  0  0  0  0  0  0  0
   -0.9110    0.5540   -1.1610 O   0  0  0  0  0  0  0  0  0  0  0  0
  2  1  1  6
  2  3  1  0
  2 10  1  0
  2 14  1  0
  3  4  1  1
  3  5  1  0
  5  6  1  0
  6  7  1  6
  6  8  1  0
  8  9  1  0
 10 11  1  0
 11 12  1  0
 12 13  1  0
 13 14  1  0
M  END
