
     RDKit          3D

 15 15  0  0  0  0  0  0  0  0999 V2000
    1.9480    0.8840    0.7360 C   0  0  0  0  0  0  0  0  0  0  0  0
    1.2720   -0.1100   -0.2010 C   0  0  2  0  0  0  0  0  0  0  0  0
    2.1720   -0.3130   -1.3420 C   0  0  0  0  0  0  0  0  0  0  0  0
    3.4440   -0.8950   -1.1490 N   0  0  0  0  0  0  0  0  0  0  0  0
    1.8190    0.0270   -2.4850 O   0  0  0  0  0  0  0  0  0  0  0  0
    0.0590    0.4780   -0.5850 O   0  0  0  0  0  0  0  0  0  0  0  0
   -0.7240    0.5830    0.5610 C   0  0  1  0  0  0  0  0  0  0  0  0
   -1.6780    1.7480    0.4860 C   0  0  0  0  0  0  0  0  0  0  0  0
   -2.5590    1.6620   -0.5860 O   0  0  0  0  0  0  0  0  0  0  0  0
   -1.3820   -0.7220    0.8640 C   0  0  1  0  0  0  0  0  0  0  0  0
   -2.3670   -1.1720   -0.1750 C   0  0  0  0  0  0  0  0  0  0  0  0
   -1.8440   -1.3320   -1.4290 O   0  0  0  0  0  0  0  0  0  0  0  0
   -0.3130   -1.6730    1.0040 O   0  0  0  0  0  0  0  0  0  0  0  0
    0.9480   -1.3740    0.5060 C   0  0  0  0  0  0  0  0  0  0  0  0
    1.8490   -2.2350    0.6740 O   0  0  0  0  0  0  0  0  0  0  0  0
  2  1  1  1
  2  3  1  0
  2  6  1  0
  2 14  1  0
  3  4  1  0
  3  5  2  0
  6  7  1  0
  7  8  1  6
  7 10  1  0
  8  9  1  0
 10 11  1  6
 10 13  1  0
 11 12  1  0
 13 14  1  0
 14 15  2  0
M  END
