
     RDKit          3D

 14 14  0  0  0  0  0  0  0  0999 V2000
   -3.2030    1.1650   -1.1580 C   0  0  0  0  0  0  0  0  0  0  0  0
   -2.2240    0.2630   -1.5800 O   0  0  0  0  0  0  0  0  0  0  0  0
   -1.1720   -0.1910   -0.8160 C   0  0  0  0  0  0  0  0  0  0  0  0
   -1.4040   -0.8030    0.3250 C   0  0  0  0  0  0  0  0  0  0  0  0
   -2.7180   -1.0200    0.8170 N   0  0  0  0  0  0  0  0  0  0  0  0
   -0.2240   -1.2740    1.1120 C   0  0  1  0  0  0  0  0  0  0  0  0
   -0.4030   -2.6600    1.2920 O   0  0  0  0  0  0  0  0  0  0  0  0
    1.0840   -1.0210    0.4380 C   0  0  2  0  0  0  0  0  0  0  0  0
    1.6660    0.2050    0.8460 O   0  0  0  0  0  0  0  0  0  0  0  0
    2.8850    0.5950    0.3160 C   0  0  0  0  0  0  0  0  0  0  0  0
    3.2300    1.8690    0.2120 C   0  0  0  0  0  0  0  0  0  0  0  0
    4.4370    2.2690   -0.3130 O   0  0  0  0  0  0  0  0  0  0  0  0
    0.9840   -1.0580   -0.9310 O   0  0  0  0  0  0  0  0  0  0  0  0
    0.2030    0.0360   -1.3290 C   0  0  0  0  0  0  0  0  0  0  0  0
  1  2  1  0
  2  3  1  0
  3  4  2  0
  3 14  1  0
  4  5  1  0
  4  6  1  0
  6  7  1  6
  6  8  1  0
  8  9  1  6
  8 13  1  0
  9 10  1  0
 10 11  2  3
 11 12  1  0
 13 14  1  0
M  END
