
     RDKit          3D

 11 11  0  0  0  0  0  0  0  0999 V2000
   -3.3480   -0.0740    0.3110 N   0  0  0  0  0  0  0  0  0  0  0  0
   -1.9500   -0.0400    0.1650 C   0  0  0  0  0  0  0  0  0  0  0  0
   -1.0860   -0.3130    1.2110 C   0  0  0  0  0  0  0  0  0  0  0  0
    0.2840   -0.2710    1.0360 C   0  0  0  0  0  0  0  0  0  0  0  0
    0.7940    0.0490   -0.2060 C   0  0  0  0  0  0  0  0  0  0  0  0
    2.1460    0.1070   -0.4430 O   0  0  0  0  0  0  0  0  0  0  0  0
    3.0610   -0.1600    0.5790 C   0  0  0  0  0  0  0  0  0  0  0  0
    2.9170    0.7200    1.6520 F   0  0  0  0  0  0  0  0  0  0  0  0
   -0.0530    0.3290   -1.2770 C   0  0  0  0  0  0  0  0  0  0  0  0
    0.4400    0.6500   -2.5180 O   0  0  0  0  0  0  0  0  0  0  0  0
   -1.4170    0.2790   -1.0700 C   0  0  0  0  0  0  0  0  0  0  0  0
  1  2  1  0
  2  3  2  0
  2 11  1  0
  3  4  1  0
  4  5  2  0
  5  6  1  0
  5  9  1  0
  6  7  1  0
  7  8  1  0
  9 10  1  0
  9 11  2  0
M  END
