
     RDKit          3D

 10 10  0  0  0  0  0  0  0  0999 V2000
   -3.9190   -0.8570    0.5020 N   0  0  0  0  0  0  0  0  0  0  0  0
   -2.4890   -0.7170    0.4600 C   0  0  0  0  0  0  0  0  0  0  0  0
   -1.9360    0.4210    0.1080 C   0  0  0  0  0  0  0  0  0  0  0  0
   -0.4990    0.5490    0.0690 C   0  0  0  0  0  0  0  0  0  0  0  0
    0.1620    1.7190   -0.2920 C   0  0  0  0  0  0  0  0  0  0  0  0
    1.4910    1.4380   -0.2050 C   0  0  0  0  0  0  0  0  0  0  0  0
    1.6280    0.1200    0.2030 C   0  0  0  0  0  0  0  0  0  0  0  0
    2.9350   -0.5610    0.4140 C   0  0  0  0  0  0  0  0  0  0  0  0
    3.3890   -1.1790   -0.7450 O   0  0  0  0  0  0  0  0  0  0  0  0
    0.4310   -0.3370    0.3430 O   0  0  0  0  0  0  0  0  0  0  0  0
  1  2  1  0
  2  3  2  3
  3  4  1  0
  4  5  2  0
  4 10  1  0
  5  6  1  0
  6  7  2  0
  7  8  1  0
  7 10  1  0
  8  9  1  0
M  END
