
     RDKit          3D

 11 11  0  0  0  0  0  0  0  0999 V2000
    1.6490    1.8880    1.4680 C   0  0  0  0  0  0  0  0  0  0  0  0
    1.7750    1.0080    0.3900 O   0  0  0  0  0  0  0  0  0  0  0  0
    0.7740    0.2070   -0.0970 C   0  0  0  0  0  0  0  0  0  0  0  0
   -0.4830    0.2350    0.4940 C   0  0  0  0  0  0  0  0  0  0  0  0
   -1.5050   -0.5610    0.0220 C   0  0  0  0  0  0  0  0  0  0  0  0
   -2.8080   -0.5740    0.5860 N   0  0  0  0  0  0  0  0  0  0  0  0
   -1.2390   -1.3830   -1.0520 C   0  0  0  0  0  0  0  0  0  0  0  0
   -2.2340   -2.1710   -1.5260 F   0  0  0  0  0  0  0  0  0  0  0  0
    0.0130   -1.4190   -1.6500 C   0  0  0  0  0  0  0  0  0  0  0  0
    1.0280   -0.6190   -1.1710 C   0  0  0  0  0  0  0  0  0  0  0  0
    2.3020   -0.6490   -1.7710 O   0  0  0  0  0  0  0  0  0  0  0  0
  1  2  1  0
  2  3  1  0
  3  4  2  0
  3 10  1  0
  4  5  1  0
  5  6  1  0
  5  7  2  0
  7  8  1  0
  7  9  1  0
  9 10  2  0
 10 11  1  0
M  END
