
     RDKit          3D

 11 11  0  0  0  0  0  0  0  0999 V2000
   -3.0840   -0.1180    0.8510 N   0  0  0  0  0  0  0  0  0  0  0  0
   -1.7340   -0.0750    0.4120 C   0  0  0  0  0  0  0  0  0  0  0  0
   -0.6780    0.1640    1.2760 C   0  0  0  0  0  0  0  0  0  0  0  0
    0.6400    0.2130    0.8950 C   0  0  0  0  0  0  0  0  0  0  0  0
    0.9430    0.0150   -0.4280 C   0  0  0  0  0  0  0  0  0  0  0  0
    2.2840    0.0600   -0.8520 O   0  0  0  0  0  0  0  0  0  0  0  0
    3.3370    0.3000    0.0230 C   0  0  0  0  0  0  0  0  0  0  0  0
    3.4600   -0.6150    1.0350 F   0  0  0  0  0  0  0  0  0  0  0  0
   -0.0760   -0.2250   -1.3170 C   0  0  0  0  0  0  0  0  0  0  0  0
   -1.3840   -0.2690   -0.9110 C   0  0  0  0  0  0  0  0  0  0  0  0
   -2.4350   -0.5110   -1.7960 O   0  0  0  0  0  0  0  0  0  0  0  0
  1  2  1  0
  2  3  2  0
  2 10  1  0
  3  4  1  0
  4  5  2  0
  5  6  1  0
  5  9  1  0
  6  7  1  0
  7  8  1  0
  9 10  2  0
 10 11  1  0
M  END
