
     RDKit          3D

 11 11  0  0  0  0  0  0  0  0999 V2000
   -2.0070   -1.6720   -0.1470 N   0  0  0  0  0  0  0  0  0  0  0  0
   -1.1460   -0.5220   -0.1610 C   0  0  0  0  0  0  0  0  0  0  0  0
    0.1950   -0.6270    0.1530 C   0  0  0  0  0  0  0  0  0  0  0  0
    1.0230    0.4780    0.1400 C   0  0  0  0  0  0  0  0  0  0  0  0
    2.3540    0.4200    0.4430 O   0  0  0  0  0  0  0  0  0  0  0  0
    3.0260   -0.7800    0.8040 C   0  0  0  0  0  0  0  0  0  0  0  0
    2.5050   -1.3610    1.9270 F   0  0  0  0  0  0  0  0  0  0  0  0
    0.4850    1.7030   -0.1960 C   0  0  0  0  0  0  0  0  0  0  0  0
   -0.8590    1.7950   -0.5080 C   0  0  0  0  0  0  0  0  0  0  0  0
   -1.6950    0.6980   -0.4980 C   0  0  0  0  0  0  0  0  0  0  0  0
   -3.0400    0.8130   -0.8150 O   0  0  0  0  0  0  0  0  0  0  0  0
  1  2  1  0
  2  3  2  0
  2 10  1  0
  3  4  1  0
  4  5  1  0
  4  8  2  0
  5  6  1  0
  6  7  1  0
  8  9  1  0
  9 10  2  0
 10 11  1  0
M  END
