
     RDKit          3D

 10 10  0  0  0  0  0  0  0  0999 V2000
    0.5800    1.9330    0.3050 N   0  0  0  0  0  0  0  0  0  0  0  0
   -0.2010    0.7550    0.1830 C   0  0  0  0  0  0  0  0  0  0  0  0
   -1.5540    0.7610    0.4340 C   0  0  0  0  0  0  0  0  0  0  0  0
   -2.2730   -0.4050    0.3040 C   0  0  0  0  0  0  0  0  0  0  0  0
   -1.6200   -1.5670   -0.0800 C   0  0  0  0  0  0  0  0  0  0  0  0
   -0.2660   -1.5980   -0.3380 C   0  0  0  0  0  0  0  0  0  0  0  0
    0.4310   -0.4230   -0.2010 C   0  0  0  0  0  0  0  0  0  0  0  0
    1.8600   -0.4290   -0.4660 C   0  0  0  0  0  0  0  0  0  0  0  0
    2.4400   -1.4730   -0.8100 O   0  0  0  0  0  0  0  0  0  0  0  0
    2.5970    0.7290   -0.3410 O   0  0  0  0  0  0  0  0  0  0  0  0
  1  2  1  0
  2  3  2  0
  2  7  1  0
  3  4  1  0
  4  5  2  0
  5  6  1  0
  6  7  2  0
  7  8  1  0
  8  9  2  0
  8 10  1  0
M  END
