
     RDKit          3D

 22 23  0  0  0  0  0  0  0  0999 V2000
   -0.6230    0.3120    1.3970 O   0  0  0  0  0  0  0  0  0  0  0  0
   -0.3210   -0.0630    0.2570 C   0  0  0  0  0  0  0  0  0  0  0  0
   -1.2230   -0.7050   -0.5930 N   0  0  0  0  0  0  0  0  0  0  0  0
   -2.5780   -1.0110   -0.3140 C   0  0  0  0  0  0  0  0  0  0  0  0
   -3.4830    0.1310   -0.0910 C   0  0  2  0  0  0  0  0  0  0  0  0
   -3.4540    0.9750   -1.2260 O   0  0  0  0  0  0  0  0  0  0  0  0
   -3.4880    0.8500    1.1850 C   0  0  0  0  0  0  0  0  0  0  0  0
   -4.8040    1.2450    1.4710 O   0  0  0  0  0  0  0  0  0  0  0  0
   -5.6370    0.7610    0.5030 C   0  0  0  0  0  0  0  0  0  0  0  0
   -4.9410   -0.4630   -0.0520 C   0  0  1  0  0  0  0  0  0  0  0  0
   -5.3450   -0.7970   -1.3210 O   0  0  0  0  0  0  0  0  0  0  0  0
    1.0710    0.1940   -0.1980 C   0  0  1  0  0  0  0  0  0  0  0  0
    1.8220    0.8400    0.7780 O   0  0  0  0  0  0  0  0  0  0  0  0
    2.7070   -0.1340    1.2790 C   0  0  0  0  0  0  0  0  0  0  0  0
    3.2210   -0.7150    0.0060 C   0  0  2  0  0  0  0  0  0  0  0  0
    3.9070   -1.8960    0.0830 O   0  0  0  0  0  0  0  0  0  0  0  0
    3.8050    0.2920   -0.9130 C   0  0  0  0  0  0  0  0  0  0  0  0
    5.0820    0.6740   -0.7920 O   0  0  0  0  0  0  0  0  0  0  0  0
    5.4620    1.2140    0.3940 C   0  0  0  0  0  0  0  0  0  0  0  0
    4.7650    2.3580    0.7720 O   0  0  0  0  0  0  0  0  0  0  0  0
    1.7930   -1.0490   -0.6160 C   0  0  1  0  0  0  0  0  0  0  0  0
    1.2770   -2.1430    0.0490 O   0  0  0  0  0  0  0  0  0  0  0  0
  1  2  2  0
  2  3  1  0
 12  2  1  1
  3  4  1  0
  4  5  1  0
  5  6  1  6
  5  7  1  0
  5 10  1  0
  7  8  1  0
  8  9  1  0
  9 10  1  0
 10 11  1  6
 12 13  1  0
 12 21  1  0
 13 14  1  0
 14 15  1  0
 15 16  1  1
 15 17  1  0
 15 21  1  0
 17 18  1  0
 18 19  1  0
 19 20  1  0
 21 22  1  1
M  END
