
     RDKit          3D

 23 23  0  0  0  0  0  0  0  0999 V2000
    0.3820    1.3120    1.3090 C   0  0  0  0  0  0  0  0  0  0  0  0
    0.1800    1.4640   -0.2020 C   0  0  1  0  0  0  0  0  0  0  0  0
    0.2550    2.9450   -0.4720 C   0  0  1  0  0  0  0  0  0  0  0  0
    1.4930    3.4170   -0.0540 O   0  0  0  0  0  0  0  0  0  0  0  0
    0.0890    3.2810   -1.9310 C   0  0  0  0  0  0  0  0  0  0  0  0
   -1.1380    2.8350   -2.4230 O   0  0  0  0  0  0  0  0  0  0  0  0
    1.1650    0.8090   -0.8810 O   0  0  0  0  0  0  0  0  0  0  0  0
    1.0940   -0.5450   -0.9390 C   0  0  1  0  0  0  0  0  0  0  0  0
    2.3520   -1.1050   -0.3540 C   0  0  0  0  0  0  0  0  0  0  0  0
    2.2620   -1.9910    0.5140 O   0  0  0  0  0  0  0  0  0  0  0  0
    3.5980   -0.6920   -0.7260 O   0  0  0  0  0  0  0  0  0  0  0  0
    4.8360   -1.1120   -0.2740 C   0  0  0  0  0  0  0  0  0  0  0  0
    5.1420   -0.9090    1.1660 C   0  0  0  0  0  0  0  0  0  0  0  0
    4.2910   -1.5460    2.0450 O   0  0  0  0  0  0  0  0  0  0  0  0
   -0.0270   -1.1640   -0.3600 N   0  0  0  0  0  0  0  0  0  0  0  0
   -1.1460   -0.3280   -0.0610 C   0  0  2  0  0  0  0  0  0  0  0  0
   -2.2990   -0.9660   -0.5620 O   0  0  0  0  0  0  0  0  0  0  0  0
   -3.2240   -1.2350    0.4150 C   0  0  2  0  0  0  0  0  0  0  0  0
   -3.5420   -2.7080    0.5600 C   0  0  0  0  0  0  0  0  0  0  0  0
   -4.0520   -3.2620   -0.5880 O   0  0  0  0  0  0  0  0  0  0  0  0
   -4.5170   -0.5050    0.0540 C   0  0  0  0  0  0  0  0  0  0  0  0
   -5.5030   -0.7340    1.0050 O   0  0  0  0  0  0  0  0  0  0  0  0
   -1.0470    0.9430   -0.6050 O   0  0  0  0  0  0  0  0  0  0  0  0
  2  1  1  1
  2  3  1  0
  2  7  1  0
  2 23  1  0
  3  4  1  6
  3  5  1  0
  5  6  1  0
  7  8  1  0
  8  9  1  1
  8 15  1  0
  9 10  2  0
  9 11  1  0
 11 12  1  0
 12 13  1  0
 13 14  1  0
 15 16  1  0
 16 17  1  6
 16 23  1  0
 17 18  1  0
 18 19  1  6
 18 21  1  0
 19 20  1  0
 21 22  1  0
M  END
