
     RDKit          3D

  9  9  0  0  0  0  0  0  0  0999 V2000
    3.0760   -0.6910    0.8410 O   0  0  0  0  0  0  0  0  0  0  0  0
    2.5450   -0.3910   -0.4220 C   0  0  0  0  0  0  0  0  0  0  0  0
    1.1420    0.0610   -0.2340 C   0  0  0  0  0  0  0  0  0  0  0  0
    0.6670    1.3460   -0.0260 C   0  0  0  0  0  0  0  0  0  0  0  0
   -0.6730    1.2890    0.0910 N   0  0  0  0  0  0  0  0  0  0  0  0
   -1.0860    0.0300   -0.0320 C   0  0  0  0  0  0  0  0  0  0  0  0
   -2.4760   -0.5270    0.0260 C   0  0  0  0  0  0  0  0  0  0  0  0
   -3.3960    0.4830    0.2400 O   0  0  0  0  0  0  0  0  0  0  0  0
    0.0330   -0.7550   -0.2360 C   0  0  0  0  0  0  0  0  0  0  0  0
  1  2  1  0
  2  3  1  0
  3  4  2  0
  3  9  1  0
  4  5  1  0
  5  6  1  0
  6  7  1  0
  6  9  2  0
  7  8  1  0
M  END
