
     RDKit          3D

 23 24  0  0  0  0  0  0  0  0999 V2000
   -5.6230   -1.2540    0.3460 N   0  0  0  0  0  0  0  0  0  0  0  0
   -4.7610   -0.1980   -0.0860 C   0  0  0  0  0  0  0  0  0  0  0  0
   -3.9500    0.3840    1.0570 C   0  0  0  0  0  0  0  0  0  0  0  0
   -3.0480    1.4970    0.5720 C   0  0  1  0  0  0  0  0  0  0  0  0
   -2.3280    2.0010    1.6270 O   0  0  0  0  0  0  0  0  0  0  0  0
   -1.0770    1.3950    1.5800 C   0  0  0  0  0  0  0  0  0  0  0  0
   -1.0300    0.5850    0.3200 C   0  0  2  0  0  0  0  0  0  0  0  0
   -1.2140   -0.7790    0.5600 O   0  0  0  0  0  0  0  0  0  0  0  0
    0.2420    0.7600   -0.4320 C   0  0  0  0  0  0  0  0  0  0  0  0
    0.6430    1.9010   -0.7760 O   0  0  0  0  0  0  0  0  0  0  0  0
    1.0480   -0.3110   -0.7920 O   0  0  0  0  0  0  0  0  0  0  0  0
    2.2350   -0.1110   -1.4980 C   0  0  2  0  0  0  0  0  0  0  0  0
    2.2010   -0.9720   -2.7050 C   0  0  0  0  0  0  0  0  0  0  0  0
    1.9400   -0.5600   -3.8570 O   0  0  0  0  0  0  0  0  0  0  0  0
    2.5080   -2.2510   -2.2780 O   0  0  0  0  0  0  0  0  0  0  0  0
    2.9340   -2.2240   -0.9060 C   0  0  0  0  0  0  0  0  0  0  0  0
    3.3830   -0.7930   -0.7700 C   0  0  2  0  0  0  0  0  0  0  0  0
    3.5320   -0.3350    0.6410 C   0  0  2  0  0  0  0  0  0  0  0  0
    2.4360   -0.5550    1.4330 O   0  0  0  0  0  0  0  0  0  0  0  0
    3.9420    1.0980    0.6100 C   0  0  0  0  0  0  0  0  0  0  0  0
    3.3470    1.9920    1.2380 O   0  0  0  0  0  0  0  0  0  0  0  0
    5.0630    1.3950   -0.1860 O   0  0  0  0  0  0  0  0  0  0  0  0
   -2.1330    1.0340   -0.3800 O   0  0  0  0  0  0  0  0  0  0  0  0
  1  2  1  0
  2  3  1  0
  4  3  1  1
  4  5  1  0
  4 23  1  0
  5  6  1  0
  6  7  1  0
  7  8  1  1
  7  9  1  0
  7 23  1  0
  9 10  2  0
  9 11  1  0
 12 11  1  1
 12 13  1  0
 12 17  1  0
 13 14  2  0
 13 15  1  0
 15 16  1  0
 17 16  1  1
 17 18  1  0
 18 19  1  1
 18 20  1  0
 20 21  2  0
 20 22  1  0
M  END
