
     RDKit          3D

 23 23  0  0  0  0  0  0  0  0999 V2000
   -4.0800    2.5990   -1.0890 C   0  0  0  0  0  0  0  0  0  0  0  0
   -3.7230    2.4080    0.2250 O   0  0  0  0  0  0  0  0  0  0  0  0
   -3.1040    1.2180    0.4970 C   0  0  2  0  0  0  0  0  0  0  0  0
   -3.8650    0.3220    1.4290 C   0  0  1  0  0  0  0  0  0  0  0  0
   -4.0840   -1.0390    0.8750 C   0  0  0  0  0  0  0  0  0  0  0  0
   -3.5270   -2.1750    1.5020 N   0  0  0  0  0  0  0  0  0  0  0  0
   -4.7700   -1.2380   -0.1680 O   0  0  0  0  0  0  0  0  0  0  0  0
   -3.0740    0.2310    2.5780 O   0  0  0  0  0  0  0  0  0  0  0  0
   -1.9250    0.9700    2.4780 C   0  0  0  0  0  0  0  0  0  0  0  0
   -1.1710    1.2860    3.4320 O   0  0  0  0  0  0  0  0  0  0  0  0
   -1.7160    1.3420    1.0300 C   0  0  2  0  0  0  0  0  0  0  0  0
   -1.2340    2.6460    1.0590 O   0  0  0  0  0  0  0  0  0  0  0  0
   -0.8080    0.4400    0.5370 O   0  0  0  0  0  0  0  0  0  0  0  0
   -0.3930    0.6940   -0.7560 C   0  0  0  0  0  0  0  0  0  0  0  0
    0.6070   -0.3290   -1.2480 C   0  0  0  0  0  0  0  0  0  0  0  0
    1.7170   -0.2940   -0.4070 O   0  0  0  0  0  0  0  0  0  0  0  0
    2.6860   -1.1920   -0.7740 C   0  0  2  0  0  0  0  0  0  0  0  0
    2.8500   -2.2380    0.3000 C   0  0  0  0  0  0  0  0  0  0  0  0
    3.8470   -3.1660   -0.0740 O   0  0  0  0  0  0  0  0  0  0  0  0
    3.9640   -0.5280   -1.1530 C   0  0  2  0  0  0  0  0  0  0  0  0
    4.9370   -1.4310   -1.5210 O   0  0  0  0  0  0  0  0  0  0  0  0
    4.4940    0.4080   -0.1060 C   0  0  0  0  0  0  0  0  0  0  0  0
    5.5860    1.0810   -0.6520 O   0  0  0  0  0  0  0  0  0  0  0  0
  1  2  1  0
  3  2  1  1
  3  4  1  0
  3 11  1  0
  4  5  1  6
  4  8  1  0
  5  6  1  0
  5  7  2  0
  8  9  1  0
  9 10  2  0
  9 11  1  0
 11 12  1  1
 11 13  1  0
 13 14  1  0
 14 15  1  0
 15 16  1  0
 16 17  1  0
 17 18  1  1
 17 20  1  0
 18 19  1  0
 20 21  1  1
 20 22  1  0
 22 23  1  0
M  END
