
     RDKit          3D

 22 22  0  0  0  0  0  0  0  0999 V2000
   -3.2230   -0.8830   -0.2070 C   0  0  0  0  0  0  0  0  0  0  0  0
   -1.9250   -0.5340    0.4820 C   0  0  2  0  0  0  0  0  0  0  0  0
   -1.8290   -1.4760    1.5500 O   0  0  0  0  0  0  0  0  0  0  0  0
   -2.0140    0.7820    1.1440 C   0  0  2  0  0  0  0  0  0  0  0  0
   -3.1850    0.7790    1.9320 O   0  0  0  0  0  0  0  0  0  0  0  0
   -2.0250    1.9960    0.2960 C   0  0  0  0  0  0  0  0  0  0  0  0
   -3.1450    2.0770   -0.6720 C   0  0  0  0  0  0  0  0  0  0  0  0
   -2.9360    1.8760   -1.8910 O   0  0  0  0  0  0  0  0  0  0  0  0
   -4.4580    2.3710   -0.2920 O   0  0  0  0  0  0  0  0  0  0  0  0
   -0.8050   -0.7490   -0.4630 C   0  0  2  0  0  0  0  0  0  0  0  0
   -0.8290   -2.2170   -0.8520 C   0  0  1  0  0  0  0  0  0  0  0  0
    0.2420   -2.4810   -1.7990 N   0  0  0  0  0  0  0  0  0  0  0  0
   -0.3920   -2.8060    0.3830 O   0  0  0  0  0  0  0  0  0  0  0  0
    0.5370   -1.9380    0.9860 C   0  0  0  0  0  0  0  0  0  0  0  0
    1.1580   -2.2710    2.0150 O   0  0  0  0  0  0  0  0  0  0  0  0
    0.5620   -0.7260    0.1870 C   0  0  2  0  0  0  0  0  0  0  0  0
    0.8260    0.4520    0.8400 O   0  0  0  0  0  0  0  0  0  0  0  0
    1.9040    1.1130    0.2480 C   0  0  0  0  0  0  0  0  0  0  0  0
    3.0570    0.3680    0.2880 O   0  0  0  0  0  0  0  0  0  0  0  0
    4.1000    1.0460   -0.3090 C   0  0  0  0  0  0  0  0  0  0  0  0
    5.3890    0.2350   -0.2340 C   0  0  0  0  0  0  0  0  0  0  0  0
    6.4330    0.9260   -0.8390 O   0  0  0  0  0  0  0  0  0  0  0  0
  2  1  1  6
  2  3  1  0
  2  4  1  0
  2 10  1  0
  4  5  1  6
  4  6  1  0
  6  7  1  0
  7  8  2  0
  7  9  1  0
 10 11  1  1
 10 16  1  0
 11 12  1  6
 11 13  1  0
 13 14  1  0
 14 15  2  0
 14 16  1  0
 16 17  1  1
 17 18  1  0
 18 19  1  0
 19 20  1  0
 20 21  1  0
 21 22  1  0
M  END
