
     RDKit          3D

 27 29  0  0  0  0  0  0  0  0999 V2000
   -6.7200   -1.8560    0.9730 N   0  0  0  0  0  0  0  0  0  0  0  0
   -5.4440   -1.6790    0.4010 C   0  0  0  0  0  0  0  0  0  0  0  0
   -4.7800   -2.7450   -0.0520 N   0  0  0  0  0  0  0  0  0  0  0  0
   -3.5540   -2.6390   -0.6100 C   0  0  0  0  0  0  0  0  0  0  0  0
   -2.9990   -1.4190   -0.7060 N   0  0  0  0  0  0  0  0  0  0  0  0
   -3.5880   -0.2840   -0.2780 C   0  0  0  0  0  0  0  0  0  0  0  0
   -4.8530   -0.4460    0.2910 C   0  0  0  0  0  0  0  0  0  0  0  0
   -5.2330    0.8130    0.6380 N   0  0  0  0  0  0  0  0  0  0  0  0
   -4.2660    1.6870    0.3040 C   0  0  0  0  0  0  0  0  0  0  0  0
   -3.2410    1.0140   -0.2650 N   0  0  0  0  0  0  0  0  0  0  0  0
   -2.0280    1.5800   -0.7560 C   0  0  2  0  0  0  0  0  0  0  0  0
   -1.1930    0.5580   -1.1990 O   0  0  0  0  0  0  0  0  0  0  0  0
    0.0890    1.0540   -1.2390 C   0  0  2  0  0  0  0  0  0  0  0  0
    1.0120    0.0420   -0.6300 C   0  0  0  0  0  0  0  0  0  0  0  0
    2.3340    0.4820   -0.6380 O   0  0  0  0  0  0  0  0  0  0  0  0
    3.2000   -0.8110    0.0870 P   0  0  0  0  0  0  0  0  0  0  0  0
    2.9460   -1.5920   -1.2000 O   0  0  0  0  0  0  0  0  0  0  0  0
    2.3730   -1.7890    1.0910 O   0  0  0  0  0  0  0  0  0  0  0  0
    4.8130   -0.8680   -0.0600 O   0  0  0  0  0  0  0  0  0  0  0  0
    5.8370   -0.8790    1.0620 P   0  0  0  0  0  0  0  0  0  0  0  0
    5.1240    0.5050    1.6760 O   0  0  0  0  0  0  0  0  0  0  0  0
    5.2420   -2.3350    1.6110 O   0  0  0  0  0  0  0  0  0  0  0  0
    7.1680   -0.7870    0.1620 O   0  0  0  0  0  0  0  0  0  0  0  0
    0.1270    2.2940   -0.3710 C   0  0  1  0  0  0  0  0  0  0  0  0
    0.1030    3.3900   -1.2450 O   0  0  0  0  0  0  0  0  0  0  0  0
   -1.1950    2.1720    0.3620 C   0  0  1  0  0  0  0  0  0  0  0  0
   -1.6690    3.3690    0.8280 O   0  0  0  0  0  0  0  0  0  0  0  0
  1  2  1  0
  2  3  2  0
  2  7  1  0
  3  4  1  0
  4  5  2  0
  5  6  1  0
  6  7  2  0
  6 10  1  0
  7  8  1  0
  8  9  2  0
  9 10  1  0
 11 10  1  1
 11 12  1  0
 11 26  1  0
 12 13  1  0
 13 14  1  1
 13 24  1  0
 14 15  1  0
 15 16  1  0
 16 17  1  0
 16 18  1  0
 16 19  1  0
 19 20  1  0
 20 21  1  0
 20 22  1  0
 20 23  1  0
 24 25  1  6
 24 26  1  0
 26 27  1  6
M  END
