
     RDKit          3D

 20 21  0  0  0  0  0  0  0  0999 V2000
    6.6210    1.5950   -0.2700 O   0  0  0  0  0  0  0  0  0  0  0  0
    5.4540    1.1240   -0.2240 C   0  0  0  0  0  0  0  0  0  0  0  0
    5.1040   -0.0780    0.4530 N   0  0  0  0  0  0  0  0  0  0  0  0
    3.7870   -0.4470   -0.0330 C   0  0  0  0  0  0  0  0  0  0  0  0
    3.3910    0.6300   -1.0050 C   0  0  1  0  0  0  0  0  0  0  0  0
    2.0050    1.0470   -0.6970 C   0  0  0  0  0  0  0  0  0  0  0  0
    1.6750    2.1840   -0.3140 O   0  0  0  0  0  0  0  0  0  0  0  0
    1.0040    0.1030   -0.8470 O   0  0  0  0  0  0  0  0  0  0  0  0
   -0.3540    0.3690   -0.5880 C   0  0  1  0  0  0  0  0  0  0  0  0
   -1.2450    0.0660   -1.7090 C   0  0  0  0  0  0  0  0  0  0  0  0
   -1.1890    0.5680   -2.8090 O   0  0  0  0  0  0  0  0  0  0  0  0
   -2.2270   -0.9540   -1.2750 C   0  0  0  0  0  0  0  0  0  0  0  0
   -2.2020   -0.8500    0.1680 N   0  0  0  0  0  0  0  0  0  0  0  0
   -3.3230   -1.1170    1.0850 C   0  0  0  0  0  0  0  0  0  0  0  0
   -4.2350    0.4780    1.3260 P   0  0  0  0  0  0  0  0  0  0  0  0
   -4.5880    0.7490    3.0130 O   0  0  0  0  0  0  0  0  0  0  0  0
   -5.6990    0.5080    0.4010 O   0  0  0  0  0  0  0  0  0  0  0  0
   -0.8910   -0.4520    0.5190 C   0  0  0  0  0  0  0  0  0  0  0  0
   -0.2960   -0.7610    1.6090 O   0  0  0  0  0  0  0  0  0  0  0  0
    4.3180    1.6800   -0.8140 O   0  0  0  0  0  0  0  0  0  0  0  0
  1  2  2  0
  2  3  1  0
  2 20  1  0
  3  4  1  0
  4  5  1  0
  5  6  1  1
  5 20  1  0
  6  7  2  0
  6  8  1  0
  9  8  1  6
  9 10  1  0
  9 18  1  0
 10 11  2  0
 10 12  1  0
 12 13  1  0
 13 14  1  0
 13 18  1  0
 14 15  1  0
 15 16  1  0
 15 17  1  0
 18 19  2  0
M  END
