
     RDKit          3D

 20 21  0  0  0  0  0  0  0  0999 V2000
   -5.5890   -2.2920    0.9010 O   0  0  0  0  0  0  0  0  0  0  0  0
   -4.5440   -1.7560    0.5260 C   0  0  0  0  0  0  0  0  0  0  0  0
   -4.2550   -0.3000    0.6870 C   0  0  0  0  0  0  0  0  0  0  0  0
   -2.9630   -0.0550   -0.0570 C   0  0  2  0  0  0  0  0  0  0  0  0
   -2.6360   -1.3610   -0.6980 C   0  0  0  0  0  0  0  0  0  0  0  0
   -3.4790   -2.3460   -0.0990 O   0  0  0  0  0  0  0  0  0  0  0  0
   -1.9900    0.4440    0.7860 O   0  0  0  0  0  0  0  0  0  0  0  0
   -1.2760    1.4470    0.1140 C   0  0  1  0  0  0  0  0  0  0  0  0
   -0.0350    0.8480   -0.4710 C   0  0  0  0  0  0  0  0  0  0  0  0
   -0.0490    0.0100   -1.4060 O   0  0  0  0  0  0  0  0  0  0  0  0
    1.2150    1.2690    0.0680 N   0  0  0  0  0  0  0  0  0  0  0  0
    2.4650    0.7900   -0.3650 C   0  0  0  0  0  0  0  0  0  0  0  0
    2.8290   -0.6380    0.0290 C   0  0  0  0  0  0  0  0  0  0  0  0
    4.0580   -0.8390   -0.6420 O   0  0  0  0  0  0  0  0  0  0  0  0
    5.3630   -0.8140    0.5780 P   0  0  0  0  0  0  0  0  0  0  0  0
    6.6200   -1.9030    0.1080 O   0  0  0  0  0  0  0  0  0  0  0  0
    6.1230    0.8500    0.3450 O   0  0  0  0  0  0  0  0  0  0  0  0
   -2.1230    1.8950   -0.9430 N   0  0  0  0  0  0  0  0  0  0  0  0
   -3.1870    1.0060   -1.0590 C   0  0  0  0  0  0  0  0  0  0  0  0
   -4.1220    1.1590   -1.8980 O   0  0  0  0  0  0  0  0  0  0  0  0
  1  2  2  0
  2  3  1  0
  2  6  1  0
  4  3  1  1
  4  5  1  0
  4  7  1  0
  4 19  1  0
  5  6  1  0
  7  8  1  0
  8  9  1  6
  8 18  1  0
  9 10  2  0
  9 11  1  0
 11 12  1  0
 12 13  1  0
 13 14  1  0
 14 15  1  0
 15 16  1  0
 15 17  1  0
 18 19  1  0
 19 20  2  0
M  END
