
     RDKit          3D

 21 21  0  0  0  0  0  0  0  0999 V2000
    0.5470   -1.8360   -0.3480 O   0  0  0  0  0  0  0  0  0  0  0  0
    0.9080   -0.7080    0.0380 C   0  0  0  0  0  0  0  0  0  0  0  0
    2.2780   -0.4990    0.3610 N   0  0  0  0  0  0  0  0  0  0  0  0
    3.2510   -1.5650    0.2510 C   0  0  0  0  0  0  0  0  0  0  0  0
    4.5880   -0.9910    0.6700 C   0  0  0  0  0  0  0  0  0  0  0  0
    4.9130    0.0760   -0.1830 O   0  0  0  0  0  0  0  0  0  0  0  0
    6.4320    0.7740    0.2480 P   0  0  0  0  0  0  0  0  0  0  0  0
    6.9860    0.2080    1.7700 O   0  0  0  0  0  0  0  0  0  0  0  0
    7.6410    0.4880   -0.9590 O   0  0  0  0  0  0  0  0  0  0  0  0
   -0.0750    0.2990    0.1300 N   0  0  0  0  0  0  0  0  0  0  0  0
   -1.4820    0.0790   -0.2040 C   0  0  2  0  0  0  0  0  0  0  0  0
   -1.8210    0.9350   -1.3590 C   0  0  0  0  0  0  0  0  0  0  0  0
   -3.1440    1.3040   -1.4800 O   0  0  0  0  0  0  0  0  0  0  0  0
   -4.0390    0.2760   -1.4350 C   0  0  0  0  0  0  0  0  0  0  0  0
   -4.6660    0.2420   -0.0570 C   0  0  1  0  0  0  0  0  0  0  0  0
   -5.7740    1.0900    0.0070 O   0  0  0  0  0  0  0  0  0  0  0  0
   -5.0390   -1.0470    0.3190 O   0  0  0  0  0  0  0  0  0  0  0  0
   -5.9030   -1.5290   -0.5170 O   0  0  0  0  0  0  0  0  0  0  0  0
   -3.6270    0.7730    0.8860 C   0  0  0  0  0  0  0  0  0  0  0  0
   -3.9380    1.7080    1.5750 O   0  0  0  0  0  0  0  0  0  0  0  0
   -2.2740    0.2540    1.0400 C   0  0  0  0  0  0  0  0  0  0  0  0
  1  2  2  0
  2  3  1  0
  2 10  1  0
  3  4  1  0
  4  5  1  0
  5  6  1  0
  6  7  1  0
  7  8  1  0
  7  9  1  0
 11 10  1  1
 11 12  1  0
 11 21  1  0
 12 13  1  0
 13 14  1  0
 14 15  1  0
 15 16  1  6
 15 17  1  0
 15 19  1  0
 17 18  1  0
 19 20  2  0
 19 21  1  0
M  END
