
     RDKit          3D

 21 22  0  0  0  0  0  0  0  0999 V2000
    1.4150    0.3810   -1.1300 O   0  0  0  0  0  0  0  0  0  0  0  0
    0.6160    0.0280   -0.2250 C   0  0  0  0  0  0  0  0  0  0  0  0
    1.0970    0.0600    1.0750 O   0  0  0  0  0  0  0  0  0  0  0  0
    2.3800    0.4480    1.4490 C   0  0  0  0  0  0  0  0  0  0  0  0
    3.4810   -0.3780    0.8540 C   0  0  0  0  0  0  0  0  0  0  0  0
    4.6940    0.1520    1.3360 O   0  0  0  0  0  0  0  0  0  0  0  0
    6.0640   -0.6870    0.7450 P   0  0  0  0  0  0  0  0  0  0  0  0
    7.3560    0.4520    0.4880 O   0  0  0  0  0  0  0  0  0  0  0  0
    5.7780   -1.4900   -0.7600 O   0  0  0  0  0  0  0  0  0  0  0  0
   -0.7170   -0.3830   -0.5360 N   0  0  0  0  0  0  0  0  0  0  0  0
   -1.1270   -0.3820   -1.9270 C   0  0  0  0  0  0  0  0  0  0  0  0
   -2.1810    0.6810   -2.0950 C   0  0  0  0  0  0  0  0  0  0  0  0
   -2.9860    0.8890   -0.8570 C   0  0  1  0  0  0  0  0  0  0  0  0
   -4.3040    1.2600   -1.1000 O   0  0  0  0  0  0  0  0  0  0  0  0
   -4.8000    1.8870   -0.0550 O   0  0  0  0  0  0  0  0  0  0  0  0
   -4.7460    1.1040    1.0590 N   0  0  0  0  0  0  0  0  0  0  0  0
   -3.9440   -0.0510    1.1320 C   0  0  0  0  0  0  0  0  0  0  0  0
   -3.9900   -0.7860    2.1280 O   0  0  0  0  0  0  0  0  0  0  0  0
   -3.0480   -0.3760    0.0100 C   0  0  1  0  0  0  0  0  0  0  0  0
   -3.6760   -1.4110   -0.7200 O   0  0  0  0  0  0  0  0  0  0  0  0
   -1.6670   -0.7940    0.4470 C   0  0  0  0  0  0  0  0  0  0  0  0
  1  2  2  0
  2  3  1  0
  2 10  1  0
  3  4  1  0
  4  5  1  0
  5  6  1  0
  6  7  1  0
  7  8  1  0
  7  9  1  0
 10 11  1  0
 10 21  1  0
 11 12  1  0
 13 12  1  6
 13 14  1  0
 13 19  1  0
 14 15  1  0
 15 16  1  0
 16 17  1  0
 17 18  2  0
 17 19  1  0
 19 20  1  6
 19 21  1  0
M  END
