
     RDKit          3D

 20 20  0  0  0  0  0  0  0  0999 V2000
   -1.6180   -1.7520    1.6550 N   0  0  0  0  0  0  0  0  0  0  0  0
   -2.4250   -0.7380    1.0030 C   0  0  2  0  0  0  0  0  0  0  0  0
   -3.6780   -1.3860    0.5020 C   0  0  0  0  0  0  0  0  0  0  0  0
   -4.5840   -0.3970    0.1790 O   0  0  0  0  0  0  0  0  0  0  0  0
   -4.2150    0.4720   -1.2290 P   0  0  0  0  0  0  0  0  0  0  0  0
   -4.3730    2.1640   -1.1090 O   0  0  0  0  0  0  0  0  0  0  0  0
   -2.9070   -0.0850   -2.1360 O   0  0  0  0  0  0  0  0  0  0  0  0
   -1.8550   -0.6100   -1.4360 C   0  0  0  0  0  0  0  0  0  0  0  0
   -1.6640    0.0050   -0.0650 C   0  0  1  0  0  0  0  0  0  0  0  0
   -2.0570    1.3260   -0.1740 O   0  0  0  0  0  0  0  0  0  0  0  0
   -0.2360   -0.0290    0.3410 C   0  0  0  0  0  0  0  0  0  0  0  0
    0.3720   -1.1090    0.5110 O   0  0  0  0  0  0  0  0  0  0  0  0
    0.4430    1.1920    0.5390 N   0  0  0  0  0  0  0  0  0  0  0  0
    1.7880    1.4000    0.8920 C   0  0  0  0  0  0  0  0  0  0  0  0
    2.8560    1.0820   -0.0600 C   0  0  0  0  0  0  0  0  0  0  0  0
    2.9300   -0.3160   -0.5380 C   0  0  0  0  0  0  0  0  0  0  0  0
    4.0560   -0.5120   -1.4180 O   0  0  0  0  0  0  0  0  0  0  0  0
    5.3480   -0.3480   -1.0190 C   0  0  0  0  0  0  0  0  0  0  0  0
    5.6660   -0.0220    0.1330 O   0  0  0  0  0  0  0  0  0  0  0  0
    6.3960   -0.5480   -1.9180 O   0  0  0  0  0  0  0  0  0  0  0  0
  2  1  1  6
  2  3  1  0
  2  9  1  0
  3  4  1  0
  4  5  1  0
  5  6  1  0
  5  7  1  0
  7  8  1  0
  8  9  1  0
  9 10  1  6
  9 11  1  0
 11 12  2  0
 11 13  1  0
 13 14  1  0
 14 15  1  0
 15 16  1  0
 16 17  1  0
 17 18  1  0
 18 19  2  0
 18 20  1  0
M  END
