
     RDKit          3D

 21 22  0  0  0  0  0  0  0  0999 V2000
    6.9620   -2.5930    0.7340 O   0  0  0  0  0  0  0  0  0  0  0  0
    5.9140   -1.4850    1.0580 P   0  0  0  0  0  0  0  0  0  0  0  0
    4.7510   -1.1000   -0.1460 O   0  0  0  0  0  0  0  0  0  0  0  0
    3.6120   -0.4690    0.4150 C   0  0  0  0  0  0  0  0  0  0  0  0
    2.6940   -0.1930   -0.7320 C   0  0  0  0  0  0  0  0  0  0  0  0
    1.4670    0.4450   -0.4110 N   0  0  0  0  0  0  0  0  0  0  0  0
    1.3980    1.8720   -0.4140 C   0  0  0  0  0  0  0  0  0  0  0  0
    2.4600    2.5180   -0.7110 O   0  0  0  0  0  0  0  0  0  0  0  0
    0.2270    2.5510   -0.1080 O   0  0  0  0  0  0  0  0  0  0  0  0
   -0.9540    1.9010    0.2210 C   0  0  0  0  0  0  0  0  0  0  0  0
   -1.9150    2.5320    0.7830 O   0  0  0  0  0  0  0  0  0  0  0  0
   -1.0650    0.4600   -0.0960 C   0  0  2  0  0  0  0  0  0  0  0  0
   -1.6880    0.1930   -1.4360 C   0  0  0  0  0  0  0  0  0  0  0  0
   -3.0610    0.3210   -1.1300 O   0  0  0  0  0  0  0  0  0  0  0  0
   -3.1280   -0.5270   -0.0100 C   0  0  2  0  0  0  0  0  0  0  0  0
   -4.4240   -0.4520    0.6530 C   0  0  0  0  0  0  0  0  0  0  0  0
   -4.4890   -0.0940    1.8500 O   0  0  0  0  0  0  0  0  0  0  0  0
   -5.5950   -0.7660   -0.0070 O   0  0  0  0  0  0  0  0  0  0  0  0
   -2.0120   -0.1710    0.8060 N   0  0  0  0  0  0  0  0  0  0  0  0
    0.2550   -0.2200   -0.0740 C   0  0  0  0  0  0  0  0  0  0  0  0
    0.3170   -1.4130    0.2480 O   0  0  0  0  0  0  0  0  0  0  0  0
  1  2  2  0
  2  3  1  0
  3  4  1  0
  4  5  1  0
  5  6  1  0
  6  7  1  0
  6 20  1  0
  7  8  2  0
  7  9  1  0
  9 10  1  0
 10 11  2  0
 10 12  1  0
 12 13  1  6
 12 19  1  0
 12 20  1  0
 13 14  1  0
 14 15  1  0
 15 16  1  1
 15 19  1  0
 16 17  2  0
 16 18  1  0
 20 21  2  0
M  END
