
     RDKit          3D

 20 21  0  0  0  0  0  0  0  0999 V2000
   -2.3800   -2.6870    1.8400 N   0  0  0  0  0  0  0  0  0  0  0  0
   -2.3770   -1.6660    1.0460 C   0  0  0  0  0  0  0  0  0  0  0  0
   -1.1350   -1.0320    0.7620 N   0  0  0  0  0  0  0  0  0  0  0  0
   -0.8750   -0.0180    0.0070 C   0  0  0  0  0  0  0  0  0  0  0  0
    0.5220    0.4080   -0.0850 C   0  0  0  0  0  0  0  0  0  0  0  0
    0.9410    1.4170   -0.8080 C   0  0  0  0  0  0  0  0  0  0  0  0
    2.3160    1.4940   -0.6290 O   0  0  0  0  0  0  0  0  0  0  0  0
    2.6700    0.6830    0.4730 C   0  0  2  0  0  0  0  0  0  0  0  0
    3.8870   -0.1200    0.1010 C   0  0  0  0  0  0  0  0  0  0  0  0
    4.9640    0.7120   -0.2200 O   0  0  0  0  0  0  0  0  0  0  0  0
    6.3670   -0.1760   -0.6480 P   0  0  0  0  0  0  0  0  0  0  0  0
    7.6160   -0.0990    0.5250 O   0  0  0  0  0  0  0  0  0  0  0  0
    6.0120   -1.7790   -1.1510 O   0  0  0  0  0  0  0  0  0  0  0  0
    1.5680   -0.1890    0.5680 O   0  0  0  0  0  0  0  0  0  0  0  0
   -1.8120    0.6970   -0.7200 O   0  0  0  0  0  0  0  0  0  0  0  0
   -3.1170    0.3770   -1.1550 C   0  0  0  0  0  0  0  0  0  0  0  0
   -3.9850    0.0040    0.0420 C   0  0  1  0  0  0  0  0  0  0  0  0
   -5.4340   -0.0540   -0.3670 C   0  0  0  0  0  0  0  0  0  0  0  0
   -6.1740   -0.3930    0.7750 O   0  0  0  0  0  0  0  0  0  0  0  0
   -3.6240   -1.2750    0.5300 O   0  0  0  0  0  0  0  0  0  0  0  0
  1  2  2  0
  2  3  1  0
  2 20  1  0
  3  4  2  0
  4  5  1  0
  4 15  1  0
  5  6  2  0
  5 14  1  0
  6  7  1  0
  7  8  1  0
  8  9  1  6
  8 14  1  0
  9 10  1  0
 10 11  1  0
 11 12  1  0
 11 13  1  0
 15 16  1  0
 16 17  1  0
 17 18  1  6
 17 20  1  0
 18 19  1  0
M  END
