
     RDKit          3D

 35 38  0  0  0  0  0  0  0  0999 V2000
   -3.3770    2.1230   -1.2990 C   0  0  0  0  0  0  0  0  0  0  0  0
   -2.9650    1.8210    0.0290 O   0  0  0  0  0  0  0  0  0  0  0  0
   -2.5440    0.5280    0.2950 C   0  0  0  0  0  0  0  0  0  0  0  0
   -1.2720    0.2490    0.1570 C   0  0  0  0  0  0  0  0  0  0  0  0
   -0.3290    1.3130   -0.2730 C   0  0  0  0  0  0  0  0  0  0  0  0
   -0.4480    2.5650    0.3410 C   0  0  0  0  0  0  0  0  0  0  0  0
    0.3990    3.5710   -0.0580 C   0  0  0  0  0  0  0  0  0  0  0  0
    1.3410    3.3510   -1.0370 C   0  0  0  0  0  0  0  0  0  0  0  0
    2.4050    4.6690   -1.5140 Cl  0  0  0  0  0  0  0  0  0  0  0  0
    1.4590    2.1250   -1.6390 C   0  0  0  0  0  0  0  0  0  0  0  0
    0.5990    1.0920   -1.2390 C   0  0  0  0  0  0  0  0  0  0  0  0
    0.7510   -0.2050   -1.9380 C   0  0  0  0  0  0  0  0  0  0  0  0
   -0.3640   -0.8140   -2.4660 C   0  0  0  0  0  0  0  0  0  0  0  0
   -0.1430   -2.0050   -3.1730 C   0  0  0  0  0  0  0  0  0  0  0  0
    1.1340   -2.4880   -3.3000 C   0  0  0  0  0  0  0  0  0  0  0  0
    2.2220   -1.8630   -2.7650 C   0  0  0  0  0  0  0  0  0  0  0  0
    2.0270   -0.6990   -2.0690 C   0  0  0  0  0  0  0  0  0  0  0  0
    3.1810   -0.1530   -1.4520 C   0  0  0  0  0  0  0  0  0  0  0  0
    4.3250    0.0790   -1.9670 O   0  0  0  0  0  0  0  0  0  0  0  0
    3.1990    0.2200   -0.0810 N   0  0  0  0  0  0  0  0  0  0  0  0
    4.4390    0.6600    0.4540 C   0  0  0  0  0  0  0  0  0  0  0  0
    4.3530    1.7810    0.9060 N   0  0  0  0  0  0  0  0  0  0  0  0
    5.3320    2.6050    1.5060 C   0  0  0  0  0  0  0  0  0  0  0  0
    6.3520    1.6470    2.6700 S   0  0  0  0  0  0  0  0  0  0  0  0
    6.3610   -0.0050    1.9410 C   0  0  0  0  0  0  0  0  0  0  0  0
    5.4880   -0.2780    1.0090 C   0  0  0  0  0  0  0  0  0  0  0  0
    5.3520   -1.7040    0.6890 C   0  0  0  0  0  0  0  0  0  0  0  0
    6.0170   -2.5530    1.2900 O   0  0  0  0  0  0  0  0  0  0  0  0
   -3.5260   -0.4510    0.7130 C   0  0  0  0  0  0  0  0  0  0  0  0
   -4.8840   -0.0980    0.8270 C   0  0  0  0  0  0  0  0  0  0  0  0
   -5.8530   -0.9930    1.2230 C   0  0  0  0  0  0  0  0  0  0  0  0
   -5.5350   -2.2950    1.5300 C   0  0  0  0  0  0  0  0  0  0  0  0
   -6.5850   -3.2690    1.9610 C   0  0  0  0  0  0  0  0  0  0  0  0
   -4.2120   -2.6740    1.4270 C   0  0  0  0  0  0  0  0  0  0  0  0
   -3.2440   -1.7570    1.0250 C   0  0  0  0  0  0  0  0  0  0  0  0
  1  2  1  0
  2  3  1  0
  3  4  2  3
  3 29  1  0
  4  5  1  0
  5  6  2  0
  5 11  1  0
  6  7  1  0
  7  8  2  0
  8  9  1  0
  8 10  1  0
 10 11  2  0
 11 12  1  0
 12 13  2  0
 12 17  1  0
 13 14  1  0
 14 15  2  0
 15 16  1  0
 16 17  2  0
 17 18  1  0
 18 19  2  0
 18 20  1  0
 20 21  1  0
 21 22  2  0
 21 26  1  0
 22 23  1  0
 23 24  1  0
 24 25  1  0
 25 26  2  0
 26 27  1  0
 27 28  2  0
 29 30  2  0
 29 35  1  0
 30 31  1  0
 31 32  2  0
 32 33  1  0
 32 34  1  0
 34 35  2  0
M  END
