
     RDKit          3D

 35 38  0  0  0  0  0  0  0  0999 V2000
    2.5580   -4.6010    1.7040 C   0  0  0  0  0  0  0  0  0  0  0  0
    2.9400   -3.1870    1.4710 C   0  0  0  0  0  0  0  0  0  0  0  0
    4.0620   -2.9190    0.8560 C   0  0  0  0  0  0  0  0  0  0  0  0
    4.4340   -1.5230    0.6290 C   0  0  0  0  0  0  0  0  0  0  0  0
    5.5580   -1.2410    0.0130 C   0  0  0  0  0  0  0  0  0  0  0  0
    5.9920    0.1160   -0.2470 C   0  0  0  0  0  0  0  0  0  0  0  0
    5.2500    1.2030    0.1370 C   0  0  0  0  0  0  0  0  0  0  0  0
    5.7020    2.4900   -0.1320 C   0  0  0  0  0  0  0  0  0  0  0  0
    6.8970    2.6360   -0.7840 C   0  0  0  0  0  0  0  0  0  0  0  0
    7.4190    3.9900   -1.0920 C   0  0  0  0  0  0  0  0  0  0  0  0
    7.6620    1.5600   -1.1810 C   0  0  0  0  0  0  0  0  0  0  0  0
    7.2050    0.3000   -0.9100 C   0  0  0  0  0  0  0  0  0  0  0  0
    2.1070   -2.1330    1.9050 N   0  0  0  0  0  0  0  0  0  0  0  0
    0.8170   -1.8970    1.2870 C   0  0  0  0  0  0  0  0  0  0  0  0
    0.3760   -2.6990    0.2610 C   0  0  0  0  0  0  0  0  0  0  0  0
   -0.8480   -2.4650   -0.3170 C   0  0  0  0  0  0  0  0  0  0  0  0
   -1.6720   -1.4250    0.1070 C   0  0  0  0  0  0  0  0  0  0  0  0
   -3.1710   -1.0910   -0.7440 S   0  0  2  0  0  0  0  0  0  0  0  0
   -3.6120   -2.6160   -0.8220 O   0  0  0  0  0  0  0  0  0  0  0  0
   -3.1170   -1.1130   -2.2020 O   0  0  0  0  0  0  0  0  0  0  0  0
   -4.4560   -0.6040    0.1980 N   0  0  0  0  0  0  0  0  0  0  0  0
   -5.0090   -1.4620    1.2800 C   0  0  0  0  0  0  0  0  0  0  0  0
   -6.5160   -1.5230    1.2230 C   0  0  0  0  0  0  0  0  0  0  0  0
   -6.9550   -0.1730    1.4520 O   0  0  0  0  0  0  0  0  0  0  0  0
   -6.3620    0.8210    0.6730 C   0  0  0  0  0  0  0  0  0  0  0  0
   -7.0310    2.0050    0.5390 C   0  0  0  0  0  0  0  0  0  0  0  0
   -6.5060    3.0250   -0.2160 C   0  0  0  0  0  0  0  0  0  0  0  0
   -5.3000    2.8240   -0.8280 C   0  0  0  0  0  0  0  0  0  0  0  0
   -4.6860    3.9030   -1.6620 C   0  0  0  0  0  0  0  0  0  0  0  0
   -4.5670    1.6190   -0.7210 C   0  0  0  0  0  0  0  0  0  0  0  0
   -3.3100    1.4320   -1.4110 C   0  0  0  0  0  0  0  0  0  0  0  0
   -5.1330    0.6320    0.0450 C   0  0  0  0  0  0  0  0  0  0  0  0
   -1.2190   -0.6530    1.1170 C   0  0  0  0  0  0  0  0  0  0  0  0
   -2.2200    0.6180    1.7740 Cl  0  0  0  0  0  0  0  0  0  0  0  0
    0.0220   -0.8670    1.7230 C   0  0  0  0  0  0  0  0  0  0  0  0
  1  2  1  0
  2  3  2  3
  2 13  1  0
  3  4  1  0
  4  5  2  3
  5  6  1  0
  6  7  2  0
  6 12  1  0
  7  8  1  0
  8  9  2  0
  9 10  1  0
  9 11  1  0
 11 12  2  0
 13 14  1  0
 14 15  2  0
 14 35  1  0
 15 16  1  0
 16 17  2  0
 17 18  1  0
 17 33  1  0
 18 19  2  0
 18 20  2  0
 18 21  1  6
 21 22  1  0
 21 32  1  0
 22 23  1  0
 23 24  1  0
 24 25  1  0
 25 26  2  0
 25 32  1  0
 26 27  1  0
 27 28  2  0
 28 29  1  0
 28 30  1  0
 30 31  1  0
 30 32  2  0
 33 34  1  0
 33 35  2  0
M  END
