
     RDKit          3D

 35 38  0  0  0  0  0  0  0  0999 V2000
   -2.4670    5.9870   -0.7020 C   0  0  0  0  0  0  0  0  0  0  0  0
   -2.2000    5.0670    0.1590 C   0  0  0  0  0  0  0  0  0  0  0  0
   -2.6930    3.7100    0.0340 C   0  0  0  0  0  0  0  0  0  0  0  0
   -1.8340    2.6570    0.3770 C   0  0  0  0  0  0  0  0  0  0  0  0
   -2.2140    1.3420    0.3160 C   0  0  0  0  0  0  0  0  0  0  0  0
   -1.3060    0.2820    0.8440 C   0  0  0  0  0  0  0  0  0  0  0  0
   -0.5980    0.7220    1.8050 N   0  0  0  0  0  0  0  0  0  0  0  0
    0.3420    0.3130    2.6460 N   0  0  0  0  0  0  0  0  0  0  0  0
    1.6650    0.0340    2.1280 C   0  0  0  0  0  0  0  0  0  0  0  0
    1.8880    0.1870    0.8980 O   0  0  0  0  0  0  0  0  0  0  0  0
    2.7550   -0.4290    3.0330 C   0  0  0  0  0  0  0  0  0  0  0  0
    3.9180   -0.6210    2.2910 O   0  0  0  0  0  0  0  0  0  0  0  0
    4.0280   -1.5060    1.2380 C   0  0  0  0  0  0  0  0  0  0  0  0
    3.0380   -2.1800    0.9190 O   0  0  0  0  0  0  0  0  0  0  0  0
    5.3180   -1.5870    0.5640 C   0  0  0  0  0  0  0  0  0  0  0  0
    5.4830   -2.4550   -0.4900 C   0  0  0  0  0  0  0  0  0  0  0  0
    6.7060   -2.5540   -1.1560 C   0  0  0  0  0  0  0  0  0  0  0  0
    7.7730   -1.7620   -0.7460 C   0  0  0  0  0  0  0  0  0  0  0  0
    7.6190   -0.8870    0.3130 C   0  0  0  0  0  0  0  0  0  0  0  0
    6.3970   -0.8200    0.9410 C   0  0  0  0  0  0  0  0  0  0  0  0
   -1.2560   -1.1020    0.4460 C   0  0  0  0  0  0  0  0  0  0  0  0
   -0.9360   -2.0200    1.4760 C   0  0  0  0  0  0  0  0  0  0  0  0
   -1.0190   -3.3510    1.2300 C   0  0  0  0  0  0  0  0  0  0  0  0
   -1.3980   -3.8520    0.0270 C   0  0  0  0  0  0  0  0  0  0  0  0
   -1.7230   -2.9880   -1.0300 C   0  0  0  0  0  0  0  0  0  0  0  0
   -1.6400   -1.6390   -0.7870 C   0  0  0  0  0  0  0  0  0  0  0  0
   -1.7970   -0.7230   -1.9490 C   0  0  0  0  0  0  0  0  0  0  0  0
   -3.0920   -0.9560   -2.6550 C   0  0  0  0  0  0  0  0  0  0  0  0
   -2.8680   -2.5860   -3.5110 S   0  0  0  0  0  0  0  0  0  0  0  0
   -2.0780   -3.6510   -2.3090 C   0  0  0  0  0  0  0  0  0  0  0  0
   -3.4900    1.0830   -0.0990 C   0  0  0  0  0  0  0  0  0  0  0  0
   -4.3380    2.0980   -0.4360 C   0  0  0  0  0  0  0  0  0  0  0  0
   -5.9940    1.7820   -0.9770 Cl  0  0  0  0  0  0  0  0  0  0  0  0
   -3.9690    3.4480   -0.3800 C   0  0  0  0  0  0  0  0  0  0  0  0
   -4.9430    4.5090   -0.7190 C   0  0  0  0  0  0  0  0  0  0  0  0
  1  2  2  0
  2  3  1  0
  3  4  2  0
  3 34  1  0
  4  5  1  0
  5  6  1  0
  5 31  2  0
  6  7  2  3
  6 21  1  0
  7  8  1  0
  8  9  1  0
  9 10  2  0
  9 11  1  0
 11 12  1  0
 12 13  1  0
 13 14  2  0
 13 15  1  0
 15 16  2  0
 15 20  1  0
 16 17  1  0
 17 18  2  0
 18 19  1  0
 19 20  2  0
 21 22  2  0
 21 26  1  0
 22 23  1  0
 23 24  2  0
 24 25  1  0
 25 26  2  0
 25 30  1  0
 26 27  1  0
 27 28  1  0
 28 29  1  0
 29 30  1  0
 31 32  1  0
 32 33  1  0
 32 34  2  0
 34 35  1  0
M  END
