
     RDKit          3D

 35 38  0  0  0  0  0  0  0  0999 V2000
   -3.9760    1.6360   -5.2000 C   0  0  0  0  0  0  0  0  0  0  0  0
   -4.0640    2.2960   -4.0650 C   0  0  0  0  0  0  0  0  0  0  0  0
   -3.4080    1.8010   -2.8720 C   0  0  0  0  0  0  0  0  0  0  0  0
   -3.5050    2.4580   -1.7800 O   0  0  0  0  0  0  0  0  0  0  0  0
   -2.6560    0.6300   -2.8240 O   0  0  0  0  0  0  0  0  0  0  0  0
   -2.0100    0.0970   -1.7310 C   0  0  0  0  0  0  0  0  0  0  0  0
   -2.7550   -0.4190   -0.5890 C   0  0  0  0  0  0  0  0  0  0  0  0
   -1.9460   -0.7780    0.5070 C   0  0  0  0  0  0  0  0  0  0  0  0
   -0.5280   -0.5470    0.3650 N   0  0  0  0  0  0  0  0  0  0  0  0
    0.0760    0.6430    0.7530 C   0  0  0  0  0  0  0  0  0  0  0  0
   -0.7990    1.4910    1.2470 O   0  0  0  0  0  0  0  0  0  0  0  0
    1.4340    1.0080    0.6770 C   0  0  0  0  0  0  0  0  0  0  0  0
    2.5240    0.4800    0.2720 C   0  0  0  0  0  0  0  0  0  0  0  0
    2.7820   -0.8060   -0.3110 C   0  0  0  0  0  0  0  0  0  0  0  0
    3.9660   -1.2750   -0.6270 C   0  0  0  0  0  0  0  0  0  0  0  0
    5.2140   -0.6100   -0.4600 C   0  0  0  0  0  0  0  0  0  0  0  0
    5.3990    0.5800    0.0290 C   0  0  0  0  0  0  0  0  0  0  0  0
    6.7460    1.1670    0.1580 C   0  0  0  0  0  0  0  0  0  0  0  0
    6.8080    2.4390    0.7200 C   0  0  0  0  0  0  0  0  0  0  0  0
    8.0090    3.0900    0.8900 C   0  0  0  0  0  0  0  0  0  0  0  0
    9.1430    2.4330    0.4800 C   0  0  0  0  0  0  0  0  0  0  0  0
    9.1010    1.1810   -0.0760 C   0  0  0  0  0  0  0  0  0  0  0  0
   10.5730    0.3590   -0.5960 Cl  0  0  0  0  0  0  0  0  0  0  0  0
    7.8820    0.5150   -0.2500 C   0  0  0  0  0  0  0  0  0  0  0  0
    3.9970    1.5360    0.5040 S   0  0  0  0  0  0  0  0  0  0  0  0
   -2.4870   -1.3160    1.6340 C   0  0  0  0  0  0  0  0  0  0  0  0
   -1.5870   -1.6840    2.7840 C   0  0  0  0  0  0  0  0  0  0  0  0
   -3.8660   -1.5210    1.7190 C   0  0  0  0  0  0  0  0  0  0  0  0
   -4.6400   -1.1710    0.6520 C   0  0  0  0  0  0  0  0  0  0  0  0
   -5.9470   -1.4640    0.9740 C   0  0  0  0  0  0  0  0  0  0  0  0
   -5.8960   -1.9860    2.2450 C   0  0  0  0  0  0  0  0  0  0  0  0
   -4.6260   -2.0160    2.6900 N   0  0  0  0  0  0  0  0  0  0  0  0
   -4.2100   -2.5080    4.0040 C   0  0  0  0  0  0  0  0  0  0  0  0
   -4.0980   -0.6090   -0.5380 C   0  0  0  0  0  0  0  0  0  0  0  0
   -5.0500   -0.3590   -1.6500 C   0  0  0  0  0  0  0  0  0  0  0  0
  1  2  2  0
  2  3  1  0
  3  4  2  0
  3  5  1  0
  5  6  1  0
  6  7  1  0
  7  8  2  0
  7 34  1  0
  8  9  1  0
  8 26  1  0
  9 10  1  0
 10 11  2  0
 10 12  1  0
 12 13  2  3
 13 14  1  0
 13 25  1  0
 14 15  2  0
 15 16  1  0
 16 17  2  0
 17 18  1  0
 17 25  1  0
 18 19  2  0
 18 24  1  0
 19 20  1  0
 20 21  2  0
 21 22  1  0
 22 23  1  0
 22 24  2  0
 26 27  1  0
 26 28  2  0
 28 29  1  0
 28 32  1  0
 29 30  1  0
 29 34  2  0
 30 31  2  0
 31 32  1  0
 32 33  1  0
 34 35  1  0
M  END
