
     RDKit          3D

 35 38  0  0  0  0  0  0  0  0999 V2000
   -3.8410   -1.7050   -0.5290 C   0  0  0  0  0  0  0  0  0  0  0  0
   -3.2220   -1.2350    0.7180 C   0  0  0  0  0  0  0  0  0  0  0  0
   -2.4470   -2.1580    1.3020 C   0  0  0  0  0  0  0  0  0  0  0  0
   -2.2220   -3.5190    0.7700 C   0  0  0  0  0  0  0  0  0  0  0  0
   -0.4810   -3.7280    0.3850 S   0  0  0  0  0  0  0  0  0  0  0  0
   -0.1710   -3.0490   -0.9580 O   0  0  0  0  0  0  0  0  0  0  0  0
   -3.1530    0.1100    1.1560 C   0  0  0  0  0  0  0  0  0  0  0  0
   -3.9930    1.0270    0.7630 C   0  0  0  0  0  0  0  0  0  0  0  0
   -5.1190    0.9840   -0.0810 C   0  0  0  0  0  0  0  0  0  0  0  0
   -5.7650    2.1140   -0.4560 C   0  0  0  0  0  0  0  0  0  0  0  0
   -6.8990    1.7700   -1.3410 C   0  0  0  0  0  0  0  0  0  0  0  0
   -6.5920    0.4950   -1.6410 C   0  0  0  0  0  0  0  0  0  0  0  0
   -6.0600   -0.0280   -0.5430 C   0  0  0  0  0  0  0  0  0  0  0  0
   -3.6630    2.3850    1.4380 C   0  0  0  0  0  0  0  0  0  0  0  0
   -2.2800    2.6960    0.9010 C   0  0  0  0  0  0  0  0  0  0  0  0
   -1.4190    1.7410    1.5380 N   0  0  0  0  0  0  0  0  0  0  0  0
   -0.0390    1.9750    1.6330 C   0  0  0  0  0  0  0  0  0  0  0  0
    0.7320    1.1540    2.1910 O   0  0  0  0  0  0  0  0  0  0  0  0
    0.5390    3.2130    1.0680 C   0  0  0  0  0  0  0  0  0  0  0  0
    2.0180    3.1970    1.2450 C   0  0  0  0  0  0  0  0  0  0  0  0
    2.5650    2.0050    0.4900 C   0  0  0  0  0  0  0  0  0  0  0  0
    1.7980    1.2930   -0.1720 O   0  0  0  0  0  0  0  0  0  0  0  0
    3.9450    1.7320    0.5610 N   0  0  0  0  0  0  0  0  0  0  0  0
    4.5610    0.6540   -0.1020 C   0  0  0  0  0  0  0  0  0  0  0  0
    5.8920    0.3480    0.2320 C   0  0  0  0  0  0  0  0  0  0  0  0
    6.5970   -0.6730   -0.3580 C   0  0  0  0  0  0  0  0  0  0  0  0
    6.0210   -1.4640   -1.3280 C   0  0  0  0  0  0  0  0  0  0  0  0
    6.7310   -2.5010   -1.9300 C   0  0  0  0  0  0  0  0  0  0  0  0
    6.0820   -3.2440   -2.8910 C   0  0  0  0  0  0  0  0  0  0  0  0
    6.9390   -4.5560   -3.6730 Cl  0  0  0  0  0  0  0  0  0  0  0  0
    4.7830   -2.9960   -3.2620 C   0  0  0  0  0  0  0  0  0  0  0  0
    4.1030   -1.9600   -2.6460 C   0  0  0  0  0  0  0  0  0  0  0  0
    4.7170   -1.1920   -1.6790 C   0  0  0  0  0  0  0  0  0  0  0  0
    4.0180   -0.1460   -1.0650 C   0  0  0  0  0  0  0  0  0  0  0  0
   -1.9870    0.5340    2.0840 C   0  0  0  0  0  0  0  0  0  0  0  0
  1  2  1  0
  2  3  2  3
  2  7  1  0
  3  4  1  0
  4  5  1  0
  5  6  2  0
  7  8  2  0
  7 35  1  0
  8  9  1  0
  8 14  1  0
  9 10  2  0
  9 13  1  0
 10 11  1  0
 11 12  2  0
 12 13  2  0
 14 15  1  0
 15 16  1  0
 16 17  1  0
 16 35  1  0
 17 18  2  0
 17 19  1  0
 19 20  1  0
 20 21  1  0
 21 22  2  0
 21 23  1  0
 23 24  1  0
 24 25  2  0
 24 34  1  0
 25 26  1  0
 26 27  2  0
 27 28  1  0
 27 33  1  0
 28 29  2  0
 29 30  1  0
 29 31  1  0
 31 32  2  0
 32 33  1  0
 33 34  2  0
M  END
