
     RDKit          3D

 35 38  0  0  0  0  0  0  0  0999 V2000
   -6.1620   -2.8090   -0.0380 C   0  0  0  0  0  0  0  0  0  0  0  0
   -5.2760   -3.9790    0.1850 C   0  0  0  0  0  0  0  0  0  0  0  0
   -3.8640   -3.8500    0.3780 C   0  0  0  0  0  0  0  0  0  0  0  0
   -2.9510   -2.9250    0.4550 C   0  0  0  0  0  0  0  0  0  0  0  0
   -3.1510   -1.5360    0.3520 C   0  0  0  0  0  0  0  0  0  0  0  0
   -2.3310   -0.4760    0.3640 C   0  0  0  0  0  0  0  0  0  0  0  0
   -0.9040   -0.4820    0.4790 C   0  0  0  0  0  0  0  0  0  0  0  0
   -0.1770    0.5740    0.7130 C   0  0  0  0  0  0  0  0  0  0  0  0
   -0.7260    2.1830    0.9980 S   0  0  2  0  0  0  0  0  0  0  0  0
    0.2830    2.6390    2.5390 C   0  0  0  0  0  0  0  0  0  0  0  0
   -2.0720    2.3600    1.6170 O   0  0  0  0  0  0  0  0  0  0  0  0
   -0.2950    3.2110    0.0470 O   0  0  0  0  0  0  0  0  0  0  0  0
    1.3150    0.5380    0.5000 C   0  0  0  0  0  0  0  0  0  0  0  0
    1.9180   -0.5080    0.0840 C   0  0  0  0  0  0  0  0  0  0  0  0
    3.3850   -0.5280   -0.1190 C   0  0  0  0  0  0  0  0  0  0  0  0
    4.0170   -1.6580   -0.6340 C   0  0  0  0  0  0  0  0  0  0  0  0
    5.3810   -1.6930   -0.8140 C   0  0  0  0  0  0  0  0  0  0  0  0
    6.1830   -0.6120   -0.4940 C   0  0  0  0  0  0  0  0  0  0  0  0
    5.5950    0.5080    0.0100 C   0  0  0  0  0  0  0  0  0  0  0  0
    4.1940    0.5280    0.1900 C   0  0  0  0  0  0  0  0  0  0  0  0
    6.3780    1.6940    0.3720 C   0  0  0  0  0  0  0  0  0  0  0  0
    7.7850    1.5990    0.1670 N   0  0  0  0  0  0  0  0  0  0  0  0
    8.3990    0.4420   -0.3550 C   0  0  0  0  0  0  0  0  0  0  0  0
    9.6610    0.4450   -0.5070 O   0  0  0  0  0  0  0  0  0  0  0  0
    7.5990   -0.6720   -0.6890 N   0  0  0  0  0  0  0  0  0  0  0  0
    1.1970   -1.7230   -0.2140 C   0  0  0  0  0  0  0  0  0  0  0  0
   -0.1970   -1.8260    0.2750 C   0  0  0  0  0  0  0  0  0  0  0  0
   -3.1540    0.7190   -0.0560 C   0  0  0  0  0  0  0  0  0  0  0  0
   -2.6380    1.4880   -1.0980 C   0  0  0  0  0  0  0  0  0  0  0  0
   -3.3780    2.5740   -1.5190 C   0  0  0  0  0  0  0  0  0  0  0  0
   -2.8320    3.4070   -2.6370 C   0  0  0  0  0  0  0  0  0  0  0  0
   -4.5860    2.8770   -0.9220 C   0  0  0  0  0  0  0  0  0  0  0  0
   -5.1090    2.1280    0.1090 C   0  0  0  0  0  0  0  0  0  0  0  0
   -4.3520    1.0300    0.5310 C   0  0  0  0  0  0  0  0  0  0  0  0
   -4.9920    0.1880    1.9200 Cl  0  0  0  0  0  0  0  0  0  0  0  0
  1  2  1  0
  2  3  1  0
  3  4  2  3
  4  5  1  0
  5  6  2  3
  6  7  1  0
  6 28  1  0
  7  8  2  0
  7 27  1  0
  8  9  1  0
  8 13  1  0
  9 10  1  1
  9 11  2  0
  9 12  2  0
 13 14  2  0
 14 15  1  0
 14 26  1  0
 15 16  2  0
 15 20  1  0
 16 17  1  0
 17 18  2  0
 18 19  1  0
 18 25  1  0
 19 20  2  0
 19 21  1  0
 21 22  1  0
 22 23  1  0
 23 24  2  0
 23 25  1  0
 26 27  1  0
 28 29  2  0
 28 34  1  0
 29 30  1  0
 30 31  1  0
 30 32  2  0
 32 33  1  0
 33 34  2  0
 34 35  1  0
M  END
