
     RDKit          3D

 35 38  0  0  0  0  0  0  0  0999 V2000
   -5.2620    2.6860   -2.2340 C   0  0  0  0  0  0  0  0  0  0  0  0
   -6.3400    2.2930   -1.3390 C   0  0  0  0  0  0  0  0  0  0  0  0
   -7.7290    3.4090   -1.2090 Cl  0  0  0  0  0  0  0  0  0  0  0  0
   -6.4130    1.1820   -0.6130 C   0  0  0  0  0  0  0  0  0  0  0  0
   -7.5890    0.9440    0.2320 C   0  0  0  0  0  0  0  0  0  0  0  0
   -5.2710    0.2690   -0.6310 C   0  0  0  0  0  0  0  0  0  0  0  0
   -4.7850   -0.1950    0.6120 C   0  0  0  0  0  0  0  0  0  0  0  0
   -3.6850   -0.9920    0.6630 C   0  0  0  0  0  0  0  0  0  0  0  0
   -2.9870   -1.3910   -0.4930 C   0  0  0  0  0  0  0  0  0  0  0  0
   -1.8080   -2.1940   -0.2990 N   0  0  0  0  0  0  0  0  0  0  0  0
   -0.7580   -2.2140   -1.2060 C   0  0  0  0  0  0  0  0  0  0  0  0
   -0.8430   -1.5240   -2.2720 O   0  0  0  0  0  0  0  0  0  0  0  0
    0.5220   -3.0160   -1.0230 C   0  0  0  0  0  0  0  0  0  0  0  0
    0.9390   -3.6710   -2.1860 C   0  0  0  0  0  0  0  0  0  0  0  0
    2.3450   -4.6410   -1.6280 S   0  0  0  0  0  0  0  0  0  0  0  0
    2.2750   -4.1220    0.0390 C   0  0  0  0  0  0  0  0  0  0  0  0
    3.1970   -4.5690    1.1040 C   0  0  0  0  0  0  0  0  0  0  0  0
    1.1890   -3.2320    0.1080 C   0  0  0  0  0  0  0  0  0  0  0  0
    1.0200   -2.5510    1.4370 C   0  0  0  0  0  0  0  0  0  0  0  0
    1.8740   -1.3960    1.7410 C   0  0  0  0  0  0  0  0  0  0  0  0
    1.7470   -0.2240    0.9000 C   0  0  0  0  0  0  0  0  0  0  0  0
    0.9490   -0.1640   -0.0480 O   0  0  0  0  0  0  0  0  0  0  0  0
    2.5790    0.9640    1.1520 N   0  0  0  0  0  0  0  0  0  0  0  0
    3.4750    0.7750    2.2430 C   0  0  0  0  0  0  0  0  0  0  0  0
    4.3180    1.9580    2.5800 C   0  0  0  0  0  0  0  0  0  0  0  0
    5.2800    2.2120    1.4510 C   0  0  0  0  0  0  0  0  0  0  0  0
    6.5000    2.1550    1.6790 O   0  0  0  0  0  0  0  0  0  0  0  0
    4.8480    2.5240    0.0830 C   0  0  0  0  0  0  0  0  0  0  0  0
    5.6690    2.9200   -0.8570 C   0  0  0  0  0  0  0  0  0  0  0  0
    4.9410    3.1570   -2.1260 C   0  0  0  0  0  0  0  0  0  0  0  0
    3.5370    2.8300   -1.7710 C   0  0  0  0  0  0  0  0  0  0  0  0
    3.5070    2.4700   -0.5020 C   0  0  0  0  0  0  0  0  0  0  0  0
    2.2930    2.0650    0.2510 C   0  0  0  0  0  0  0  0  0  0  0  0
   -3.4520   -0.9560   -1.6950 C   0  0  0  0  0  0  0  0  0  0  0  0
   -4.5880   -0.1330   -1.7220 C   0  0  0  0  0  0  0  0  0  0  0  0
  1  2  1  0
  2  3  1  0
  2  4  2  3
  4  5  1  0
  4  6  1  0
  6  7  2  0
  6 35  1  0
  7  8  1  0
  8  9  2  0
  9 10  1  0
  9 34  1  0
 10 11  1  0
 11 12  2  0
 11 13  1  0
 13 14  2  0
 13 18  1  0
 14 15  1  0
 15 16  1  0
 16 17  1  0
 16 18  2  0
 18 19  1  0
 19 20  1  0
 20 21  1  0
 21 22  2  0
 21 23  1  0
 23 24  1  0
 23 33  1  0
 24 25  1  0
 25 26  1  0
 26 27  2  0
 26 28  1  0
 28 29  2  0
 28 32  1  0
 29 30  1  0
 30 31  1  0
 31 32  2  0
 32 33  1  0
 34 35  2  0
M  END
