
     RDKit          3D

 12 12  0  0  0  0  0  0  0  0999 V2000
   -0.2410    2.1280    0.0190 C   0  0  0  0  0  0  0  0  0  0  0  0
    0.1640    0.6530   -0.1180 C   0  0  1  0  0  0  0  0  0  0  0  0
    0.7820    0.5390   -1.5030 C   0  0  0  0  0  0  0  0  0  0  0  0
    1.8000    1.5120   -1.5740 O   0  0  0  0  0  0  0  0  0  0  0  0
    1.1070    0.4250    0.8750 O   0  0  0  0  0  0  0  0  0  0  0  0
    1.3830   -0.9090    1.0240 C   0  0  1  0  0  0  0  0  0  0  0  0
    2.5120   -1.0270    1.8590 O   0  0  0  0  0  0  0  0  0  0  0  0
    0.3350   -1.5910    1.5700 O   0  0  0  0  0  0  0  0  0  0  0  0
   -0.9090   -1.1510    1.2600 C   0  0  0  0  0  0  0  0  0  0  0  0
   -1.0080   -0.2470    0.0740 C   0  0  2  0  0  0  0  0  0  0  0  0
   -1.3360   -1.0500   -1.1890 C   0  0  0  0  0  0  0  0  0  0  0  0
   -2.1520    0.5590    0.2900 O   0  0  0  0  0  0  0  0  0  0  0  0
  2  1  1  1
  2  3  1  0
  2  5  1  0
  2 10  1  0
  3  4  1  0
  5  6  1  0
  6  7  1  1
  6  8  1  0
  8  9  1  0
  9 10  1  0
 10 11  1  6
 10 12  1  0
M  END
