
     RDKit          3D

 12 13  0  0  0  0  0  0  0  0999 V2000
   -0.3050    0.2840   -2.6210 C   0  0  0  0  0  0  0  0  0  0  0  0
    0.4660    0.2630   -1.3640 C   0  0  0  0  0  0  0  0  0  0  0  0
    1.7830    0.5040   -1.2100 N   0  0  0  0  0  0  0  0  0  0  0  0
    2.1540    0.4010    0.0530 N   0  0  0  0  0  0  0  0  0  0  0  0
    3.5080    0.6060    0.5220 C   0  0  0  0  0  0  0  0  0  0  0  0
    1.0450    0.0840    0.7420 C   0  0  0  0  0  0  0  0  0  0  0  0
   -0.0550   -0.0150   -0.1220 C   0  0  0  0  0  0  0  0  0  0  0  0
   -1.4070   -0.3440    0.3040 C   0  0  0  0  0  0  0  0  0  0  0  0
   -1.8040   -0.6070    1.6150 C   0  0  0  0  0  0  0  0  0  0  0  0
   -3.1560   -0.8760    1.6060 C   0  0  0  0  0  0  0  0  0  0  0  0
   -3.5530   -0.7780    0.3390 N   0  0  0  0  0  0  0  0  0  0  0  0
   -2.5060   -0.4590   -0.4460 N   0  0  0  0  0  0  0  0  0  0  0  0
  1  2  1  0
  2  3  2  0
  2  7  1  0
  3  4  1  0
  4  5  1  0
  4  6  1  0
  6  7  2  0
  7  8  1  0
  8  9  2  0
  8 12  1  0
  9 10  1  0
 10 11  2  0
 11 12  1  0
M  END
