
     RDKit          3D

 13 13  0  0  0  0  0  0  0  0999 V2000
    4.4600   -0.2190    0.9380 O   0  0  0  0  0  0  0  0  0  0  0  0
    3.1890   -0.4950    0.3800 C   0  0  0  0  0  0  0  0  0  0  0  0
    2.3330    0.6940    0.6700 C   0  0  1  0  0  0  0  0  0  0  0  0
    2.9670    1.8000    0.0540 O   0  0  0  0  0  0  0  0  0  0  0  0
    0.9550    0.6350    0.1040 C   0  0  0  0  0  0  0  0  0  0  0  0
    0.1130   -0.5030    0.5690 C   0  0  2  0  0  0  0  0  0  0  0  0
    0.6390   -1.7570    0.2730 O   0  0  0  0  0  0  0  0  0  0  0  0
   -1.2290   -0.4100   -0.1210 C   0  0  1  0  0  0  0  0  0  0  0  0
   -2.1160   -1.3740    0.2920 O   0  0  0  0  0  0  0  0  0  0  0  0
   -3.3930   -0.8720    0.0480 C   0  0  0  0  0  0  0  0  0  0  0  0
   -3.1250    0.5550   -0.4470 C   0  0  1  0  0  0  0  0  0  0  0  0
   -4.0920    1.4330   -0.0160 O   0  0  0  0  0  0  0  0  0  0  0  0
   -1.8820    0.7900    0.1640 O   0  0  0  0  0  0  0  0  0  0  0  0
  1  2  1  0
  2  3  1  0
  3  4  1  6
  3  5  1  0
  5  6  1  0
  6  7  1  6
  6  8  1  0
  8  9  1  1
  8 13  1  0
  9 10  1  0
 10 11  1  0
 11 12  1  1
 11 13  1  0
M  END
