
     RDKit          3D

 13 13  0  0  0  0  0  0  0  0999 V2000
   -4.0790   -0.9440   -1.2450 O   0  0  0  0  0  0  0  0  0  0  0  0
   -2.8080   -1.2340   -0.7570 C   0  0  0  0  0  0  0  0  0  0  0  0
   -2.2160    0.0060   -0.1000 C   0  0  2  0  0  0  0  0  0  0  0  0
   -2.1210    1.0390   -1.0220 O   0  0  0  0  0  0  0  0  0  0  0  0
   -0.9490    1.7470   -0.6950 C   0  0  0  0  0  0  0  0  0  0  0  0
    0.0140    0.5640   -0.5400 C   0  0  1  0  0  0  0  0  0  0  0  0
    1.1980    0.9180    0.0370 O   0  0  0  0  0  0  0  0  0  0  0  0
    2.2770    0.4840   -0.6910 C   0  0  1  0  0  0  0  0  0  0  0  0
    2.9890    1.5970   -1.1280 O   0  0  0  0  0  0  0  0  0  0  0  0
    3.1830   -0.4510    0.0890 C   0  0  0  0  0  0  0  0  0  0  0  0
    3.6940    0.1660    1.2250 O   0  0  0  0  0  0  0  0  0  0  0  0
   -0.8440   -0.2500    0.4400 C   0  0  2  0  0  0  0  0  0  0  0  0
   -0.4550   -1.5580    0.4320 O   0  0  0  0  0  0  0  0  0  0  0  0
  1  2  1  0
  3  2  1  6
  3  4  1  0
  3 12  1  0
  4  5  1  0
  5  6  1  0
  6  7  1  1
  6 12  1  0
  7  8  1  0
  8  9  1  1
  8 10  1  0
 10 11  1  0
 12 13  1  6
M  END
