
     RDKit          3D

 12 12  0  0  0  0  0  0  0  0999 V2000
    3.2780    1.3330    0.2860 O   0  0  0  0  0  0  0  0  0  0  0  0
    2.6080    0.4730   -0.5600 C   0  0  0  0  0  0  0  0  0  0  0  0
    1.5870   -0.3380    0.2450 C   0  0  1  0  0  0  0  0  0  0  0  0
    0.7160    0.6110    0.9870 C   0  0  0  0  0  0  0  0  0  0  0  0
   -0.7250    0.1850    1.0820 C   0  0  0  0  0  0  0  0  0  0  0  0
   -1.2330   -0.4950   -0.1470 C   0  0  1  0  0  0  0  0  0  0  0  0
   -1.6030   -1.8320    0.1260 O   0  0  0  0  0  0  0  0  0  0  0  0
   -2.4950    0.1830   -0.6660 C   0  0  0  0  0  0  0  0  0  0  0  0
   -2.2190    1.4980   -0.9570 O   0  0  0  0  0  0  0  0  0  0  0  0
   -0.1800   -0.5730   -1.2320 C   0  0  2  0  0  0  0  0  0  0  0  0
   -0.6470   -1.4000   -2.2430 O   0  0  0  0  0  0  0  0  0  0  0  0
    0.9460   -1.1740   -0.6240 O   0  0  0  0  0  0  0  0  0  0  0  0
  1  2  1  0
  3  2  1  6
  3  4  1  0
  3 12  1  0
  4  5  1  0
  5  6  1  0
  6  7  1  1
  6  8  1  0
  6 10  1  0
  8  9  1  0
 10 11  1  6
 10 12  1  0
M  END
