
     RDKit          3D

 13 13  0  0  0  0  0  0  0  0999 V2000
    3.4710   -1.5270   -1.1210 O   0  0  0  0  0  0  0  0  0  0  0  0
    3.7210   -0.5290   -0.1990 C   0  0  0  0  0  0  0  0  0  0  0  0
    2.5000   -0.2920    0.7010 C   0  0  0  0  0  0  0  0  0  0  0  0
    1.4670    0.0760   -0.1160 O   0  0  0  0  0  0  0  0  0  0  0  0
    0.2800    0.3310    0.5300 C   0  0  0  0  0  0  0  0  0  0  0  0
   -0.7350    0.7150   -0.4910 C   0  0  1  0  0  0  0  0  0  0  0  0
   -0.2530    1.8690   -1.1460 O   0  0  0  0  0  0  0  0  0  0  0  0
   -0.8570   -0.2770   -1.4240 O   0  0  0  0  0  0  0  0  0  0  0  0
   -1.5410   -1.3730   -0.9190 C   0  0  0  0  0  0  0  0  0  0  0  0
   -2.9360   -0.8850   -0.5580 C   0  0  0  0  0  0  0  0  0  0  0  0
   -2.7640   -0.0470    0.5590 O   0  0  0  0  0  0  0  0  0  0  0  0
   -2.0770    1.0780    0.0830 C   0  0  1  0  0  0  0  0  0  0  0  0
   -2.0010    2.0920    1.0140 O   0  0  0  0  0  0  0  0  0  0  0  0
  1  2  1  0
  2  3  1  0
  3  4  1  0
  4  5  1  0
  5  6  1  0
  6  7  1  6
  6  8  1  0
  6 12  1  0
  8  9  1  0
  9 10  1  0
 10 11  1  0
 11 12  1  0
 12 13  1  1
M  END
