
     RDKit          3D

 13 13  0  0  0  0  0  0  0  0999 V2000
    0.9600   -1.4390   -1.1770 C   0  0  0  0  0  0  0  0  0  0  0  0
    0.1570   -0.3490   -0.5070 C   0  0  2  0  0  0  0  0  0  0  0  0
   -1.2890   -0.7870   -0.5500 C   0  0  0  0  0  0  0  0  0  0  0  0
   -2.2570    0.1570    0.0610 C   0  0  2  0  0  0  0  0  0  0  0  0
   -2.0430    0.4190    1.4090 O   0  0  0  0  0  0  0  0  0  0  0  0
   -3.5260   -0.4640   -0.0090 O   0  0  0  0  0  0  0  0  0  0  0  0
    0.2650    0.8390   -1.1910 O   0  0  0  0  0  0  0  0  0  0  0  0
    0.7020    1.7740   -0.2800 C   0  0  1  0  0  0  0  0  0  0  0  0
    0.1640    3.0440   -0.5120 O   0  0  0  0  0  0  0  0  0  0  0  0
    0.3880    1.3180    0.9830 O   0  0  0  0  0  0  0  0  0  0  0  0
    0.5950   -0.0620    0.8910 C   0  0  2  0  0  0  0  0  0  0  0  0
    2.0450   -0.3010    1.1640 C   0  0  0  0  0  0  0  0  0  0  0  0
    2.4390   -1.6070    1.1180 O   0  0  0  0  0  0  0  0  0  0  0  0
  2  1  1  6
  2  3  1  0
  2  7  1  0
  2 11  1  0
  3  4  1  0
  4  5  1  1
  4  6  1  0
  7  8  1  0
  8  9  1  6
  8 10  1  0
 10 11  1  0
 11 12  1  6
 12 13  1  0
M  END
