
     RDKit          3D

 12 12  0  0  0  0  0  0  0  0999 V2000
   -0.3230    1.0630    1.8750 C   0  0  0  0  0  0  0  0  0  0  0  0
   -0.2730    0.6380    0.4020 C   0  0  1  0  0  0  0  0  0  0  0  0
   -1.6140    0.9420   -0.1820 C   0  0  0  0  0  0  0  0  0  0  0  0
   -2.6490    0.2020    0.3320 O   0  0  0  0  0  0  0  0  0  0  0  0
    0.6620    1.4580   -0.2120 O   0  0  0  0  0  0  0  0  0  0  0  0
    1.7900    0.7300   -0.4660 C   0  0  2  0  0  0  0  0  0  0  0  0
    2.4490    1.1300   -1.6290 O   0  0  0  0  0  0  0  0  0  0  0  0
    1.3150   -0.6950   -0.6900 C   0  0  1  0  0  0  0  0  0  0  0  0
    2.3030   -1.5720   -0.3230 O   0  0  0  0  0  0  0  0  0  0  0  0
    0.1670   -0.7590    0.3200 C   0  0  2  0  0  0  0  0  0  0  0  0
   -0.8270   -1.7410   -0.2140 C   0  0  0  0  0  0  0  0  0  0  0  0
   -1.2320   -1.4380   -1.5110 O   0  0  0  0  0  0  0  0  0  0  0  0
  2  1  1  1
  2  3  1  0
  2  5  1  0
  2 10  1  0
  3  4  1  0
  5  6  1  0
  6  7  1  6
  6  8  1  0
  8  9  1  1
  8 10  1  0
 10 11  1  6
 11 12  1  0
M  END
