
     RDKit          3D

 13 13  0  0  0  0  0  0  0  0999 V2000
    0.6810   -1.7140    0.2510 C   0  0  0  0  0  0  0  0  0  0  0  0
    0.4620   -0.2890   -0.1760 C   0  0  1  0  0  0  0  0  0  0  0  0
    1.8250    0.3910   -0.2500 C   0  0  0  0  0  0  0  0  0  0  0  0
    2.4690    0.3580    0.9730 O   0  0  0  0  0  0  0  0  0  0  0  0
    3.7050    0.7720    0.7850 O   0  0  0  0  0  0  0  0  0  0  0  0
   -0.1250   -0.1750   -1.5680 C   0  0  0  0  0  0  0  0  0  0  0  0
   -1.4560   -0.5810   -1.5950 O   0  0  0  0  0  0  0  0  0  0  0  0
   -2.1770    0.4580   -0.9900 C   0  0  0  0  0  0  0  0  0  0  0  0
   -1.8620    0.4320    0.4760 C   0  0  1  0  0  0  0  0  0  0  0  0
   -2.4530   -0.6780    1.0520 O   0  0  0  0  0  0  0  0  0  0  0  0
   -0.4010    0.4590    0.7920 C   0  0  2  0  0  0  0  0  0  0  0  0
    0.0240    1.7900    0.8410 O   0  0  0  0  0  0  0  0  0  0  0  0
   -0.2270   -0.0770    2.0620 O   0  0  0  0  0  0  0  0  0  0  0  0
  2  1  1  1
  2  3  1  0
  2  6  1  0
  2 11  1  0
  3  4  1  0
  4  5  1  0
  6  7  1  0
  7  8  1  0
  8  9  1  0
  9 10  1  6
  9 11  1  0
 11 12  1  1
 11 13  1  0
M  END
