
     RDKit          3D

 38 40  0  0  0  0  0  0  0  0999 V2000
   -5.9510   -5.3290   -2.6020 C   0  0  0  0  0  0  0  0  0  0  0  0
   -6.1560   -4.7220   -1.2200 C   0  0  0  0  0  0  0  0  0  0  0  0
   -4.9580   -3.9440   -0.8840 C   0  0  0  0  0  0  0  0  0  0  0  0
   -5.0350   -2.6320   -0.6220 C   0  0  0  0  0  0  0  0  0  0  0  0
   -3.8630   -1.8580   -0.2930 C   0  0  0  0  0  0  0  0  0  0  0  0
   -3.8840   -0.5740   -0.0230 C   0  0  0  0  0  0  0  0  0  0  0  0
   -4.9500    0.4000    0.0350 C   0  0  0  0  0  0  0  0  0  0  0  0
   -6.1640    0.1220   -0.2010 O   0  0  0  0  0  0  0  0  0  0  0  0
   -4.3580    1.6980    0.4060 C   0  0  0  0  0  0  0  0  0  0  0  0
   -2.9650    1.4290    0.5430 N   0  0  0  0  0  0  0  0  0  0  0  0
   -2.6630    0.2050    0.3180 C   0  0  0  0  0  0  0  0  0  0  0  0
   -1.3780   -0.2710    0.3950 O   0  0  0  0  0  0  0  0  0  0  0  0
   -0.3220    0.1100    1.1810 C   0  0  2  0  0  0  0  0  0  0  0  0
   -0.6760    0.0070    2.6820 C   0  0  0  0  0  0  0  0  0  0  0  0
    0.2750    1.4350    0.9520 C   0  0  2  0  0  0  0  0  0  0  0  0
    1.5650    1.5990    1.7910 C   0  0  0  0  0  0  0  0  0  0  0  0
    2.4350    0.5070    1.5210 N   0  0  0  0  0  0  0  0  0  0  0  0
    3.0210    0.1630    0.2740 C   0  0  0  0  0  0  0  0  0  0  0  0
    2.7640    0.8960   -0.7080 O   0  0  0  0  0  0  0  0  0  0  0  0
    3.9000   -0.9880    0.0770 C   0  0  0  0  0  0  0  0  0  0  0  0
    3.7130   -2.2100    0.7090 C   0  0  0  0  0  0  0  0  0  0  0  0
    4.5950   -3.2620    0.4820 C   0  0  0  0  0  0  0  0  0  0  0  0
    5.6690   -3.1050   -0.3730 C   0  0  0  0  0  0  0  0  0  0  0  0
    6.6340   -4.1980   -0.6500 C   0  0  0  0  0  0  0  0  0  0  0  0
    8.0110   -4.2340    0.5980 P   0  0  0  0  0  0  0  0  0  0  0  0
    8.5970   -5.8560    0.7900 O   0  0  0  0  0  0  0  0  0  0  0  0
    7.3730   -3.6740    2.1290 O   0  0  0  0  0  0  0  0  0  0  0  0
    5.8740   -1.8920   -1.0140 C   0  0  0  0  0  0  0  0  0  0  0  0
    4.9770   -0.8530   -0.7720 C   0  0  0  0  0  0  0  0  0  0  0  0
   -0.5870    2.4800    1.1840 O   0  0  0  0  0  0  0  0  0  0  0  0
   -0.7350    3.6620    0.5110 C   0  0  0  0  0  0  0  0  0  0  0  0
   -1.6920    4.5720    0.9150 C   0  0  0  0  0  0  0  0  0  0  0  0
   -1.8850    5.7690    0.2830 C   0  0  0  0  0  0  0  0  0  0  0  0
   -1.1090    6.1530   -0.8330 C   0  0  0  0  0  0  0  0  0  0  0  0
   -1.2860    7.2650   -1.4200 O   0  0  0  0  0  0  0  0  0  0  0  0
   -1.3830    8.3540   -2.0790 C   0  0  0  0  0  0  0  0  0  0  0  0
   -0.1450    5.2170   -1.2260 C   0  0  0  0  0  0  0  0  0  0  0  0
    0.0330    4.0160   -0.5760 C   0  0  0  0  0  0  0  0  0  0  0  0
  1  2  1  0
  2  3  1  0
  3  4  2  3
  4  5  1  0
  5  6  2  3
  6  7  1  0
  6 11  1  0
  7  8  2  0
  7  9  1  0
  9 10  1  0
 10 11  2  0
 11 12  1  0
 12 13  1  0
 13 14  1  1
 13 15  1  0
 15 16  1  1
 15 30  1  0
 16 17  1  0
 17 18  1  0
 18 19  2  0
 18 20  1  0
 20 21  2  0
 20 29  1  0
 21 22  1  0
 22 23  2  0
 23 24  1  0
 23 28  1  0
 24 25  1  0
 25 26  1  0
 25 27  1  0
 28 29  2  0
 30 31  1  0
 31 32  2  0
 31 38  1  0
 32 33  1  0
 33 34  2  0
 34 35  1  0
 34 37  1  0
 35 36  1  0
 37 38  2  0
M  END
