
     RDKit          3D

 38 40  0  0  0  0  0  0  0  0999 V2000
    6.9700    0.5680    2.1130 C   0  0  0  0  0  0  0  0  0  0  0  0
    7.2140    1.5040    1.0450 C   0  0  0  0  0  0  0  0  0  0  0  0
    6.5790    1.6390   -0.1000 C   0  0  0  0  0  0  0  0  0  0  0  0
    7.0760    2.7110   -1.0030 C   0  0  0  0  0  0  0  0  0  0  0  0
    6.6180    3.0120   -2.1520 C   0  0  0  0  0  0  0  0  0  0  0  0
    7.4890    4.4240   -3.0170 P   0  0  0  0  0  0  0  0  0  0  0  0
    6.6680    4.7970   -4.4850 O   0  0  0  0  0  0  0  0  0  0  0  0
    7.4360    5.7590   -1.9140 O   0  0  0  0  0  0  0  0  0  0  0  0
    5.4620    0.8740   -0.5400 C   0  0  0  0  0  0  0  0  0  0  0  0
    4.9410    1.1210   -1.7030 O   0  0  0  0  0  0  0  0  0  0  0  0
    4.8130   -0.1570    0.1400 N   0  0  0  0  0  0  0  0  0  0  0  0
    3.6490   -0.8370   -0.4990 C   0  0  1  0  0  0  0  0  0  0  0  0
    3.8040   -2.3200   -0.4830 C   0  0  0  0  0  0  0  0  0  0  0  0
    2.4590   -0.3630    0.3180 C   0  0  0  0  0  0  0  0  0  0  0  0
    1.2670   -0.8800   -0.1250 O   0  0  0  0  0  0  0  0  0  0  0  0
    0.2370   -0.3980    0.6490 C   0  0  2  0  0  0  0  0  0  0  0  0
   -0.5680   -1.6110    1.1500 C   0  0  0  0  0  0  0  0  0  0  0  0
   -1.9210   -1.1700    0.9790 N   0  0  0  0  0  0  0  0  0  0  0  0
   -3.0920   -1.9380    1.0640 C   0  0  0  0  0  0  0  0  0  0  0  0
   -4.1990   -1.3160    0.8400 O   0  0  0  0  0  0  0  0  0  0  0  0
   -3.2200   -3.3410    1.3670 C   0  0  0  0  0  0  0  0  0  0  0  0
   -2.2390   -4.1890    1.7920 C   0  0  0  0  0  0  0  0  0  0  0  0
   -2.4100   -5.5570    2.0310 C   0  0  0  0  0  0  0  0  0  0  0  0
   -3.6350   -6.1160    1.8360 C   0  0  0  0  0  0  0  0  0  0  0  0
   -4.6570   -5.3040    1.4100 C   0  0  0  0  0  0  0  0  0  0  0  0
   -6.0120   -5.9200    1.1910 C   0  0  0  0  0  0  0  0  0  0  0  0
   -4.4770   -3.9700    1.1790 C   0  0  0  0  0  0  0  0  0  0  0  0
   -1.8310    0.2620    0.7220 C   0  0  2  0  0  0  0  0  0  0  0  0
   -2.9580    0.8510    0.0150 C   0  0  0  0  0  0  0  0  0  0  0  0
   -3.4870    0.3420   -1.1610 C   0  0  0  0  0  0  0  0  0  0  0  0
   -4.5460    0.9650   -1.7520 C   0  0  0  0  0  0  0  0  0  0  0  0
   -5.1450    2.0980   -1.2490 C   0  0  0  0  0  0  0  0  0  0  0  0
   -6.2030    2.6780   -1.8850 O   0  0  0  0  0  0  0  0  0  0  0  0
   -6.8770    3.8320   -1.4470 C   0  0  0  0  0  0  0  0  0  0  0  0
   -6.0250    5.0530   -1.3400 C   0  0  0  0  0  0  0  0  0  0  0  0
   -4.6190    2.6000   -0.0840 C   0  0  0  0  0  0  0  0  0  0  0  0
   -3.5380    1.9950    0.5530 C   0  0  0  0  0  0  0  0  0  0  0  0
   -0.6990    0.3140   -0.1250 O   0  0  0  0  0  0  0  0  0  0  0  0
  1  2  1  0
  2  3  2  3
  3  4  1  0
  3  9  1  0
  4  5  2  3
  5  6  1  0
  6  7  1  0
  6  8  1  0
  9 10  2  0
  9 11  1  0
 11 12  1  0
 12 13  1  1
 12 14  1  0
 14 15  1  0
 16 15  1  6
 16 17  1  0
 16 38  1  0
 17 18  1  0
 18 19  1  0
 18 28  1  0
 19 20  2  0
 19 21  1  0
 21 22  2  0
 21 27  1  0
 22 23  1  0
 23 24  2  0
 24 25  1  0
 25 26  1  0
 25 27  2  0
 28 29  1  6
 28 38  1  0
 29 30  2  0
 29 37  1  0
 30 31  1  0
 31 32  2  0
 32 33  1  0
 32 36  1  0
 33 34  1  0
 34 35  1  0
 36 37  2  0
M  END
