
     RDKit          3D

 38 40  0  0  0  0  0  0  0  0999 V2000
   -2.4480    7.2430   -0.5280 C   0  0  0  0  0  0  0  0  0  0  0  0
   -2.2750    6.2130   -1.4960 O   0  0  0  0  0  0  0  0  0  0  0  0
   -1.7920    4.9830   -1.0410 C   0  0  0  0  0  0  0  0  0  0  0  0
   -1.4920    4.7630    0.2840 C   0  0  0  0  0  0  0  0  0  0  0  0
   -1.0170    3.5620    0.7480 C   0  0  0  0  0  0  0  0  0  0  0  0
   -0.8190    2.5030   -0.1240 C   0  0  0  0  0  0  0  0  0  0  0  0
   -0.3200    1.2260    0.3430 C   0  0  0  0  0  0  0  0  0  0  0  0
   -0.0570    1.0590    1.5480 O   0  0  0  0  0  0  0  0  0  0  0  0
   -0.1200    0.1610   -0.5120 O   0  0  0  0  0  0  0  0  0  0  0  0
    0.3620   -1.0930   -0.0910 C   0  0  2  0  0  0  0  0  0  0  0  0
    1.7160   -1.3750   -0.6370 C   0  0  0  0  0  0  0  0  0  0  0  0
    2.2340   -2.4730   -0.3050 O   0  0  0  0  0  0  0  0  0  0  0  0
    2.4460   -0.5280   -1.4770 N   0  0  0  0  0  0  0  0  0  0  0  0
    3.7560   -0.9300   -1.9360 C   0  0  0  0  0  0  0  0  0  0  0  0
    4.7910   -0.7850   -0.8850 C   0  0  0  0  0  0  0  0  0  0  0  0
    4.4370   -0.3940    0.3850 C   0  0  0  0  0  0  0  0  0  0  0  0
    5.4330   -0.2630    1.3580 C   0  0  0  0  0  0  0  0  0  0  0  0
    6.7560   -0.5220    1.0510 C   0  0  0  0  0  0  0  0  0  0  0  0
    7.1230   -0.9120   -0.2090 C   0  0  0  0  0  0  0  0  0  0  0  0
    8.4480   -1.1710   -0.5160 O   0  0  0  0  0  0  0  0  0  0  0  0
    9.4170   -1.0270    0.4920 C   0  0  0  0  0  0  0  0  0  0  0  0
    6.1120   -1.0340   -1.1550 C   0  0  0  0  0  0  0  0  0  0  0  0
   -0.6010   -2.2250   -0.3100 C   0  0  1  0  0  0  0  0  0  0  0  0
   -0.0910   -3.5460    0.1400 C   0  0  0  0  0  0  0  0  0  0  0  0
   -1.9020   -1.9490    0.3450 C   0  0  0  0  0  0  0  0  0  0  0  0
   -2.2840   -2.6840    1.3100 O   0  0  0  0  0  0  0  0  0  0  0  0
   -2.7710   -0.8930   -0.0400 N   0  0  0  0  0  0  0  0  0  0  0  0
   -4.0330   -0.6310    0.5930 C   0  0  0  0  0  0  0  0  0  0  0  0
   -5.0310   -1.6890    0.4140 C   0  0  0  0  0  0  0  0  0  0  0  0
   -4.8060   -2.8020   -0.3340 C   0  0  0  0  0  0  0  0  0  0  0  0
   -5.8060   -3.7550   -0.4760 C   0  0  0  0  0  0  0  0  0  0  0  0
   -7.0190   -3.5550    0.1470 C   0  0  0  0  0  0  0  0  0  0  0  0
   -7.2620   -2.4400    0.9040 C   0  0  0  0  0  0  0  0  0  0  0  0
   -6.2610   -1.5190    1.0270 C   0  0  0  0  0  0  0  0  0  0  0  0
   -6.5730   -0.0130    2.0440 P   0  0  0  0  0  0  0  0  0  0  0  0
   -7.7600    0.9180    1.7470 O   0  0  0  0  0  0  0  0  0  0  0  0
   -1.1220    2.7290   -1.4540 C   0  0  0  0  0  0  0  0  0  0  0  0
   -1.5990    3.9330   -1.9230 C   0  0  0  0  0  0  0  0  0  0  0  0
  1  2  1  0
  2  3  1  0
  3  4  2  0
  3 38  1  0
  4  5  1  0
  5  6  2  0
  6  7  1  0
  6 37  1  0
  7  8  2  0
  7  9  1  0
 10  9  1  6
 10 11  1  0
 10 23  1  0
 11 12  2  0
 11 13  1  0
 13 14  1  0
 14 15  1  0
 15 16  2  0
 15 22  1  0
 16 17  1  0
 17 18  2  0
 18 19  1  0
 19 20  1  0
 19 22  2  0
 20 21  1  0
 23 24  1  1
 23 25  1  0
 25 26  2  0
 25 27  1  0
 27 28  1  0
 28 29  1  0
 29 30  2  0
 29 34  1  0
 30 31  1  0
 31 32  2  0
 32 33  1  0
 33 34  2  0
 34 35  1  0
 35 36  2  0
 37 38  2  0
M  END
