
     RDKit          3D

 32 36  0  0  0  0  0  0  0  0999 V2000
   -4.2100   -2.5310   -0.8270 O   0  0  0  0  0  0  0  0  0  0  0  0
   -3.7740   -1.5000   -0.0130 C   0  0  2  0  0  0  0  0  0  0  0  0
   -3.7760   -0.1740   -0.7610 C   0  0  1  0  0  0  0  0  0  0  0  0
   -4.8380    0.7120   -0.1560 C   0  0  0  0  0  0  0  0  0  0  0  0
   -6.0550    0.1340   -0.3420 O   0  0  0  0  0  0  0  0  0  0  0  0
   -7.2940    1.0380    0.2890 P   0  0  0  0  0  0  0  0  0  0  0  0
   -7.2650    0.1500    1.5490 O   0  0  0  0  0  0  0  0  0  0  0  0
   -6.9310    2.1290   -0.7600 O   0  0  0  0  0  0  0  0  0  0  0  0
   -8.8090    0.7170   -0.1720 O   0  0  0  0  0  0  0  0  0  0  0  0
   -2.5000    0.3550   -0.6090 O   0  0  0  0  0  0  0  0  0  0  0  0
   -1.7050   -0.7760   -0.7860 C   0  0  1  0  0  0  0  0  0  0  0  0
   -0.3110   -0.5220   -0.5850 N   0  0  0  0  0  0  0  0  0  0  0  0
    0.6690   -1.3520   -0.9870 C   0  0  0  0  0  0  0  0  0  0  0  0
    1.8710   -0.8340   -0.6520 N   0  0  0  0  0  0  0  0  0  0  0  0
    1.6540    0.3350   -0.0330 C   0  0  0  0  0  0  0  0  0  0  0  0
    2.5460    1.2500    0.5000 C   0  0  0  0  0  0  0  0  0  0  0  0
    3.9790    1.0100    0.4380 C   0  0  0  0  0  0  0  0  0  0  0  0
    4.8280    2.0310    0.0640 C   0  0  0  0  0  0  0  0  0  0  0  0
    6.2070    1.8040    0.0020 C   0  0  0  0  0  0  0  0  0  0  0  0
    6.7360    0.5720    0.3100 C   0  0  0  0  0  0  0  0  0  0  0  0
    8.0810    0.2900    0.2670 C   0  0  0  0  0  0  0  0  0  0  0  0
    8.5490   -0.9660    0.5880 C   0  0  0  0  0  0  0  0  0  0  0  0
    7.7020   -1.9740    0.9580 C   0  0  0  0  0  0  0  0  0  0  0  0
    6.3620   -1.7230    1.0090 C   0  0  0  0  0  0  0  0  0  0  0  0
    5.8870   -0.4600    0.6870 C   0  0  0  0  0  0  0  0  0  0  0  0
    4.5400   -0.2070    0.7380 C   0  0  0  0  0  0  0  0  0  0  0  0
    2.0060    2.3520    1.0690 N   0  0  0  0  0  0  0  0  0  0  0  0
    0.6690    2.5220    1.0980 C   0  0  0  0  0  0  0  0  0  0  0  0
   -0.1830    1.6350    0.5820 N   0  0  0  0  0  0  0  0  0  0  0  0
    0.2890    0.5240    0.0050 C   0  0  0  0  0  0  0  0  0  0  0  0
   -2.2940   -1.7240    0.2380 C   0  0  2  0  0  0  0  0  0  0  0  0
   -1.9440   -3.0430   -0.0460 O   0  0  0  0  0  0  0  0  0  0  0  0
  2  1  1  6
  2  3  1  0
  2 31  1  0
  3  4  1  1
  3 10  1  0
  4  5  1  0
  5  6  1  0
  6  7  1  0
  6  8  1  0
  6  9  1  0
 10 11  1  0
 11 12  1  1
 11 31  1  0
 12 13  1  0
 12 30  1  0
 13 14  2  0
 14 15  1  0
 15 16  2  0
 15 30  1  0
 16 17  1  0
 16 27  1  0
 17 18  2  0
 17 26  1  0
 18 19  1  0
 19 20  2  0
 20 21  1  0
 20 25  1  0
 21 22  2  0
 22 23  1  0
 23 24  2  0
 24 25  1  0
 25 26  2  0
 27 28  2  0
 28 29  1  0
 29 30  2  0
 31 32  1  6
M  END
