
     RDKit          3D

 38 40  0  0  0  0  0  0  0  0999 V2000
   -4.7940    5.5680    0.8040 C   0  0  0  0  0  0  0  0  0  0  0  0
   -3.9790    5.1070   -0.3570 C   0  0  0  0  0  0  0  0  0  0  0  0
   -2.8250    4.4040    0.0630 O   0  0  0  0  0  0  0  0  0  0  0  0
   -1.9840    3.9400   -1.3610 P   0  0  0  0  0  0  0  0  0  0  0  0
   -3.1000    3.6890   -2.6560 O   0  0  0  0  0  0  0  0  0  0  0  0
   -1.0060    2.3550   -1.1270 C   0  0  0  0  0  0  0  0  0  0  0  0
   -1.6660    1.2970   -1.9680 C   0  0  0  0  0  0  0  0  0  0  0  0
   -1.1040    0.0590   -1.9110 O   0  0  0  0  0  0  0  0  0  0  0  0
   -1.1970   -0.4680   -0.6390 C   0  0  2  0  0  0  0  0  0  0  0  0
    0.0540   -0.8090   -0.0140 C   0  0  0  0  0  0  0  0  0  0  0  0
    1.1970   -0.2180   -0.3670 C   0  0  0  0  0  0  0  0  0  0  0  0
    2.4220   -0.5990    0.2920 C   0  0  0  0  0  0  0  0  0  0  0  0
    3.5930   -0.0220   -0.0290 C   0  0  0  0  0  0  0  0  0  0  0  0
    3.6050    0.9470   -1.0000 O   0  0  0  0  0  0  0  0  0  0  0  0
    3.3040    2.3020   -0.8860 C   0  0  1  0  0  0  0  0  0  0  0  0
    4.2180    3.0410    0.0600 C   0  0  0  0  0  0  0  0  0  0  0  0
    5.0330    3.4170   -1.1560 C   0  0  0  0  0  0  0  0  0  0  0  0
    3.8450    3.1320   -1.9960 C   0  0  0  0  0  0  0  0  0  0  0  0
    3.4930    3.4570   -3.1170 O   0  0  0  0  0  0  0  0  0  0  0  0
    4.7550   -0.5020    0.7040 C   0  0  0  0  0  0  0  0  0  0  0  0
    4.5770   -1.4850    1.6630 O   0  0  0  0  0  0  0  0  0  0  0  0
    5.9770   -0.0640    0.5180 C   0  0  0  0  0  0  0  0  0  0  0  0
    7.0700   -0.5840    1.2770 N   0  0  0  0  0  0  0  0  0  0  0  0
    8.3870   -0.1100    1.0750 C   0  0  0  0  0  0  0  0  0  0  0  0
    9.4600   -0.7220    1.9250 C   0  0  0  0  0  0  0  0  0  0  0  0
    8.6160    0.7780    0.2220 O   0  0  0  0  0  0  0  0  0  0  0  0
    0.1020   -1.8220    0.9990 N   0  0  0  0  0  0  0  0  0  0  0  0
   -0.8540   -2.6530    1.1730 C   0  0  0  0  0  0  0  0  0  0  0  0
   -2.0520   -2.5740    0.3210 C   0  0  0  0  0  0  0  0  0  0  0  0
   -3.0060   -3.6000    0.4440 C   0  0  0  0  0  0  0  0  0  0  0  0
   -4.0610   -3.6200   -0.4320 C   0  0  0  0  0  0  0  0  0  0  0  0
   -5.0830   -4.6250   -0.3640 C   0  0  0  0  0  0  0  0  0  0  0  0
   -5.6530   -4.9950    0.7400 C   0  0  0  0  0  0  0  0  0  0  0  0
   -6.7200   -6.0670    0.7070 C   0  0  0  0  0  0  0  0  0  0  0  0
   -5.3260   -4.3970    2.0480 C   0  0  0  0  0  0  0  0  0  0  0  0
   -4.1660   -2.6310   -1.4200 C   0  0  0  0  0  0  0  0  0  0  0  0
   -3.2280   -1.6340   -1.5280 C   0  0  0  0  0  0  0  0  0  0  0  0
   -2.1690   -1.6200   -0.6380 C   0  0  0  0  0  0  0  0  0  0  0  0
  1  2  1  0
  2  3  1  0
  3  4  1  0
  4  5  1  0
  4  6  1  0
  6  7  1  0
  7  8  1  0
  9  8  1  6
  9 10  1  0
  9 38  1  0
 10 11  2  3
 10 27  1  0
 11 12  1  0
 12 13  2  3
 13 14  1  0
 13 20  1  0
 15 14  1  6
 15 16  1  0
 15 18  1  0
 16 17  1  0
 17 18  1  0
 18 19  2  0
 20 21  1  0
 20 22  2  3
 22 23  1  0
 23 24  1  0
 24 25  1  0
 24 26  2  0
 27 28  2  0
 28 29  1  0
 29 30  2  0
 29 38  1  0
 30 31  1  0
 31 32  1  0
 31 36  2  0
 32 33  2  3
 33 34  1  0
 33 35  1  0
 36 37  1  0
 37 38  2  0
M  END
