
     RDKit          3D

 38 40  0  0  0  0  0  0  0  0999 V2000
   -4.7080    0.2900   -2.8160 C   0  0  0  0  0  0  0  0  0  0  0  0
   -4.8500    0.3240   -1.2890 C   0  0  0  0  0  0  0  0  0  0  0  0
   -3.7400   -0.4480   -0.6810 C   0  0  0  0  0  0  0  0  0  0  0  0
   -2.8700    0.0690    0.1440 C   0  0  0  0  0  0  0  0  0  0  0  0
   -2.9870    1.5210    0.4980 C   0  0  0  0  0  0  0  0  0  0  0  0
   -1.8250    2.1750    0.5340 C   0  0  0  0  0  0  0  0  0  0  0  0
   -0.5640    1.4400    0.2650 C   0  0  0  0  0  0  0  0  0  0  0  0
    0.9650    2.4600    0.0030 P   0  0  0  0  0  0  0  0  0  0  0  0
    1.0300    3.1700   -1.5430 O   0  0  0  0  0  0  0  0  0  0  0  0
    1.1830    4.5310   -1.4730 C   0  0  0  0  0  0  0  0  0  0  0  0
    1.2330    5.0440   -2.9080 C   0  0  0  0  0  0  0  0  0  0  0  0
    1.3960    3.4340    1.3000 O   0  0  0  0  0  0  0  0  0  0  0  0
    0.4000    4.0360    2.0150 C   0  0  0  0  0  0  0  0  0  0  0  0
    1.0700    4.8440    3.1200 C   0  0  0  0  0  0  0  0  0  0  0  0
   -0.5030    0.1840    0.0460 C   0  0  0  0  0  0  0  0  0  0  0  0
    0.5590   -0.7350   -0.2730 N   0  0  0  0  0  0  0  0  0  0  0  0
    1.8830   -0.5760    0.0680 C   0  0  0  0  0  0  0  0  0  0  0  0
    2.2650    0.5610    0.6430 O   0  0  0  0  0  0  0  0  0  0  0  0
    3.0380   -1.4080   -0.0600 C   0  0  0  0  0  0  0  0  0  0  0  0
    3.0830   -2.7460    0.0720 C   0  0  0  0  0  0  0  0  0  0  0  0
    4.2160   -3.5250   -0.1770 C   0  0  0  0  0  0  0  0  0  0  0  0
    5.3530   -2.8860   -0.5780 C   0  0  0  0  0  0  0  0  0  0  0  0
    6.4860   -3.6860   -0.8260 O   0  0  0  0  0  0  0  0  0  0  0  0
    5.3880   -1.5250   -0.7330 C   0  0  0  0  0  0  0  0  0  0  0  0
    4.2510   -0.8050   -0.4770 C   0  0  0  0  0  0  0  0  0  0  0  0
    0.0840   -1.6210   -1.3400 C   0  0  1  0  0  0  0  0  0  0  0  0
    0.5710   -1.0310   -2.6860 C   0  0  0  0  0  0  0  0  0  0  0  0
    1.5320   -2.0630   -3.1720 C   0  0  0  0  0  0  0  0  0  0  0  0
    1.3680   -3.2040   -2.4420 O   0  0  0  0  0  0  0  0  0  0  0  0
    0.3550   -3.0080   -1.5010 C   0  0  0  0  0  0  0  0  0  0  0  0
   -1.7240   -0.5640    0.7800 C   0  0  2  0  0  0  0  0  0  0  0  0
   -1.4870   -1.9370    0.6230 N   0  0  0  0  0  0  0  0  0  0  0  0
   -2.3660   -2.9330    1.0440 C   0  0  0  0  0  0  0  0  0  0  0  0
   -2.6020   -3.1670    2.4910 C   0  0  0  0  0  0  0  0  0  0  0  0
   -3.5280   -4.2280    2.6310 O   0  0  0  0  0  0  0  0  0  0  0  0
   -1.6700   -0.1340    2.0490 O   0  0  0  0  0  0  0  0  0  0  0  0
   -0.9820   -0.2790    3.1020 C   0  0  0  0  0  0  0  0  0  0  0  0
    0.4820    0.0960    3.2030 C   0  0  0  0  0  0  0  0  0  0  0  0
  1  2  1  0
  2  3  1  0
  3  4  2  3
  4  5  1  0
  4 31  1  0
  5  6  2  0
  6  7  1  0
  7  8  1  0
  7 15  2  0
  8  9  1  0
  8 12  1  0
  9 10  1  0
 10 11  1  0
 12 13  1  0
 13 14  1  0
 15 16  1  0
 15 31  1  0
 16 17  1  0
 26 16  1  1
 17 18  2  0
 17 19  1  0
 19 20  2  0
 19 25  1  0
 20 21  1  0
 21 22  2  0
 22 23  1  0
 22 24  1  0
 24 25  2  0
 26 27  1  0
 26 30  1  0
 27 28  1  0
 28 29  1  0
 29 30  1  0
 31 32  1  1
 31 36  1  0
 32 33  1  0
 33 34  1  0
 34 35  1  0
 36 37  1  0
 37 38  1  0
M  END
