
     RDKit          3D

 15 15  0  0  0  0  0  0  0  0999 V2000
   -4.3050    1.1910    0.3530 N   0  0  0  0  0  0  0  0  0  0  0  0
   -3.3880    0.8600    1.2500 O   0  0  0  0  0  0  0  0  0  0  0  0
   -2.4860   -0.0950    0.8670 C   0  0  0  0  0  0  0  0  0  0  0  0
   -1.6470    0.5920   -0.2270 C   0  0  2  0  0  0  0  0  0  0  0  0
   -2.5640    1.0490   -1.2300 O   0  0  0  0  0  0  0  0  0  0  0  0
   -0.7030   -0.3200   -0.8880 C   0  0  2  0  0  0  0  0  0  0  0  0
   -1.4810   -1.3370   -1.4680 O   0  0  0  0  0  0  0  0  0  0  0  0
    0.2230   -1.0530    0.0790 C   0  0  1  0  0  0  0  0  0  0  0  0
    0.7960   -2.0500   -0.7150 O   0  0  0  0  0  0  0  0  0  0  0  0
    1.2770   -0.2020    0.6450 C   0  0  2  0  0  0  0  0  0  0  0  0
    1.6760    1.0380   -0.0170 C   0  0  0  0  0  0  0  0  0  0  0  0
    2.9880    1.4380    0.2740 O   0  0  0  0  0  0  0  0  0  0  0  0
    3.9170    0.4550    0.0860 C   0  0  0  0  0  0  0  0  0  0  0  0
    3.2680   -0.8990   -0.1130 C   0  0  0  0  0  0  0  0  0  0  0  0
    2.3800   -1.0420    0.9830 O   0  0  0  0  0  0  0  0  0  0  0  0
  1  2  1  0
  2  3  1  0
  3  4  1  0
  4  5  1  6
  4  6  1  0
  6  7  1  1
  6  8  1  0
  8  9  1  6
  8 10  1  0
 10 11  1  6
 10 15  1  0
 11 12  1  0
 12 13  1  0
 13 14  1  0
 14 15  1  0
M  END
