
     RDKit          3D

 15 15  0  0  0  0  0  0  0  0999 V2000
    4.4120   -0.2730    0.6120 C   0  0  0  0  0  0  0  0  0  0  0  0
    3.0020   -0.5870    0.2930 C   0  0  0  0  0  0  0  0  0  0  0  0
    2.7250   -1.6880   -0.2750 O   0  0  0  0  0  0  0  0  0  0  0  0
    1.9400    0.3100    0.6050 N   0  0  0  0  0  0  0  0  0  0  0  0
    0.6060   -0.0480    0.2740 C   0  0  1  0  0  0  0  0  0  0  0  0
   -0.3310    0.0020    1.4840 C   0  0  2  0  0  0  0  0  0  0  0  0
    0.2540   -0.4400    2.6310 O   0  0  0  0  0  0  0  0  0  0  0  0
   -1.4320   -0.7380    1.0760 O   0  0  0  0  0  0  0  0  0  0  0  0
   -2.2010    0.0380    0.2590 C   0  0  2  0  0  0  0  0  0  0  0  0
   -3.2590   -0.8550   -0.3970 C   0  0  0  0  0  0  0  0  0  0  0  0
   -4.0730   -1.4610    0.5280 O   0  0  0  0  0  0  0  0  0  0  0  0
   -1.5040    0.7760   -0.8140 C   0  0  2  0  0  0  0  0  0  0  0  0
   -1.7870    0.2230   -2.0860 O   0  0  0  0  0  0  0  0  0  0  0  0
   -0.0420    0.9260   -0.7030 C   0  0  2  0  0  0  0  0  0  0  0  0
    0.6020    0.7510   -1.9410 O   0  0  0  0  0  0  0  0  0  0  0  0
  1  2  1  0
  2  3  2  0
  2  4  1  0
  5  4  1  1
  5  6  1  0
  5 14  1  0
  6  7  1  1
  6  8  1  0
  8  9  1  0
  9 10  1  6
  9 12  1  0
 10 11  1  0
 12 13  1  6
 12 14  1  0
 14 15  1  6
M  END
