
     RDKit          3D

 14 14  0  0  0  0  0  0  0  0999 V2000
   -1.5300    2.0600    0.2410 N   0  0  0  0  0  0  0  0  0  0  0  0
   -0.2710    1.7790   -0.3350 C   0  0  0  0  0  0  0  0  0  0  0  0
    0.3090    0.4120    0.0810 C   0  0  2  0  0  0  0  0  0  0  0  0
    0.4830    0.3550    1.5470 C   0  0  0  0  0  0  0  0  0  0  0  0
   -0.0990   -0.4700    2.2830 O   0  0  0  0  0  0  0  0  0  0  0  0
    1.3360    1.2460    2.2230 O   0  0  0  0  0  0  0  0  0  0  0  0
    1.7410    0.5040   -0.4880 C   0  0  0  0  0  0  0  0  0  0  0  0
    2.3300   -0.8650   -0.4280 C   0  0  0  0  0  0  0  0  0  0  0  0
    1.6400   -1.6340   -1.3620 O   0  0  0  0  0  0  0  0  0  0  0  0
    0.3430   -1.8590   -1.0430 C   0  0  0  0  0  0  0  0  0  0  0  0
   -0.4510   -0.6910   -0.5330 C   0  0  2  0  0  0  0  0  0  0  0  0
   -1.1190   -0.1330   -1.6600 O   0  0  0  0  0  0  0  0  0  0  0  0
   -1.5570   -1.2900    0.3070 C   0  0  0  0  0  0  0  0  0  0  0  0
   -2.4920   -0.3770    0.7490 O   0  0  0  0  0  0  0  0  0  0  0  0
  1  2  1  0
  3  2  1  1
  3  4  1  0
  3  7  1  0
  3 11  1  0
  4  5  2  0
  4  6  1  0
  7  8  1  0
  8  9  1  0
  9 10  1  0
 10 11  1  0
 11 12  1  6
 11 13  1  0
 13 14  1  0
M  END
