
     RDKit          3D

 15 15  0  0  0  0  0  0  0  0999 V2000
    4.6600   -1.6610   -0.0720 N   0  0  0  0  0  0  0  0  0  0  0  0
    4.0040   -0.6080    0.4580 O   0  0  0  0  0  0  0  0  0  0  0  0
    2.6640   -0.5890    0.0350 C   0  0  0  0  0  0  0  0  0  0  0  0
    2.0290    0.6090    0.6740 C   0  0  1  0  0  0  0  0  0  0  0  0
    2.7160    1.7650    0.2500 O   0  0  0  0  0  0  0  0  0  0  0  0
    0.5860    0.8240    0.1720 C   0  0  2  0  0  0  0  0  0  0  0  0
    0.2180    2.0230    0.8390 O   0  0  0  0  0  0  0  0  0  0  0  0
   -0.2780   -0.3230    0.5130 C   0  0  0  0  0  0  0  0  0  0  0  0
   -1.6780   -0.1880    0.0260 C   0  0  1  0  0  0  0  0  0  0  0  0
   -2.3530    1.0080    0.5980 C   0  0  0  0  0  0  0  0  0  0  0  0
   -3.6800    1.0950    0.1360 O   0  0  0  0  0  0  0  0  0  0  0  0
   -1.7850   -0.2600   -1.4790 C   0  0  0  0  0  0  0  0  0  0  0  0
   -3.1650   -0.5430   -1.5930 O   0  0  0  0  0  0  0  0  0  0  0  0
   -3.4540   -1.3540   -0.5250 C   0  0  0  0  0  0  0  0  0  0  0  0
   -2.4410   -1.3150    0.4020 O   0  0  0  0  0  0  0  0  0  0  0  0
  1  2  1  0
  2  3  1  0
  3  4  1  0
  4  5  1  6
  4  6  1  0
  6  7  1  1
  6  8  1  0
  9  8  1  6
  9 10  1  0
  9 12  1  0
  9 15  1  0
 10 11  1  0
 12 13  1  0
 13 14  1  0
 14 15  1  0
M  END
