
     RDKit          3D

 14 14  0  0  0  0  0  0  0  0999 V2000
   -0.4810    2.5780    0.0300 N   0  0  0  0  0  0  0  0  0  0  0  0
   -1.4190    1.4640   -0.1970 C   0  0  2  0  0  0  0  0  0  0  0  0
   -2.5120    1.6810    0.6470 O   0  0  0  0  0  0  0  0  0  0  0  0
   -0.7250    0.1470    0.0660 C   0  0  1  0  0  0  0  0  0  0  0  0
   -1.5450   -1.0470   -0.3440 C   0  0  0  0  0  0  0  0  0  0  0  0
   -2.8610   -1.2010    0.3230 C   0  0  1  0  0  0  0  0  0  0  0  0
   -2.7160   -1.3070    1.7070 O   0  0  0  0  0  0  0  0  0  0  0  0
   -3.8640   -0.3650   -0.0900 O   0  0  0  0  0  0  0  0  0  0  0  0
    0.3780    0.1320   -0.8380 O   0  0  0  0  0  0  0  0  0  0  0  0
    1.5840    0.0370   -0.1560 C   0  0  1  0  0  0  0  0  0  0  0  0
    2.3650   -1.2010   -0.6170 C   0  0  0  0  0  0  0  0  0  0  0  0
    3.6950   -0.6200   -1.0360 C   0  0  0  0  0  0  0  0  0  0  0  0
    3.7710    0.5960   -0.3570 O   0  0  0  0  0  0  0  0  0  0  0  0
    2.4980    1.1380   -0.6400 C   0  0  0  0  0  0  0  0  0  0  0  0
  2  1  1  1
  2  3  1  0
  2  4  1  0
  4  5  1  6
  4  9  1  0
  5  6  1  0
  6  7  1  1
  6  8  1  0
 10  9  1  6
 10 11  1  0
 10 14  1  0
 11 12  1  0
 12 13  1  0
 13 14  1  0
M  END
