
     RDKit          3D

 14 14  0  0  0  0  0  0  0  0999 V2000
   -1.5710   -1.4050   -0.3590 C   0  0  0  0  0  0  0  0  0  0  0  0
   -1.0050   -0.0310   -0.0980 C   0  0  2  0  0  0  0  0  0  0  0  0
    0.4740   -0.2060    0.1810 C   0  0  1  0  0  0  0  0  0  0  0  0
    0.5530   -1.1660    1.2940 N   0  0  0  0  0  0  0  0  0  0  0  0
    1.1690   -0.6950   -0.8880 O   0  0  0  0  0  0  0  0  0  0  0  0
    2.2390    0.1410   -1.1680 C   0  0  2  0  0  0  0  0  0  0  0  0
    2.0950    0.6410   -2.4680 O   0  0  0  0  0  0  0  0  0  0  0  0
    3.5580   -0.6030   -1.1030 C   0  0  0  0  0  0  0  0  0  0  0  0
    4.5850    0.2710   -1.3880 O   0  0  0  0  0  0  0  0  0  0  0  0
   -1.6020    0.5870    1.1600 C   0  0  0  0  0  0  0  0  0  0  0  0
   -3.0770    0.7800    0.8930 C   0  0  0  0  0  0  0  0  0  0  0  0
   -3.2100    1.5750   -0.2150 O   0  0  0  0  0  0  0  0  0  0  0  0
   -2.5270    1.1520   -1.3240 C   0  0  0  0  0  0  0  0  0  0  0  0
   -1.2090    0.8550   -1.1320 O   0  0  0  0  0  0  0  0  0  0  0  0
  2  1  1  6
  2  3  1  0
  2 10  1  0
  2 14  1  0
  3  4  1  1
  3  5  1  0
  5  6  1  0
  6  7  1  6
  6  8  1  0
  8  9  1  0
 10 11  1  0
 11 12  1  0
 12 13  1  0
 13 14  1  0
M  END
