
     RDKit          3D

 15 15  0  0  0  0  0  0  0  0999 V2000
    2.5770    1.1770   -0.1370 C   0  0  0  0  0  0  0  0  0  0  0  0
    1.3850    0.2330   -0.1250 C   0  0  2  0  0  0  0  0  0  0  0  0
    1.6730   -0.8810   -1.0640 C   0  0  0  0  0  0  0  0  0  0  0  0
    2.7620   -1.7380   -0.8080 N   0  0  0  0  0  0  0  0  0  0  0  0
    0.9500   -1.0540   -2.0750 O   0  0  0  0  0  0  0  0  0  0  0  0
    0.3010    0.9110   -0.5770 O   0  0  0  0  0  0  0  0  0  0  0  0
   -0.7820    0.9970    0.2360 C   0  0  1  0  0  0  0  0  0  0  0  0
   -1.9270    1.5170   -0.6130 C   0  0  0  0  0  0  0  0  0  0  0  0
   -3.0970    1.6530    0.0940 O   0  0  0  0  0  0  0  0  0  0  0  0
   -1.1580   -0.2830    0.9360 C   0  0  1  0  0  0  0  0  0  0  0  0
   -1.9530   -1.2200    0.0750 C   0  0  0  0  0  0  0  0  0  0  0  0
   -2.3450   -2.2950    0.8860 O   0  0  0  0  0  0  0  0  0  0  0  0
   -0.0290   -0.9690    1.4430 O   0  0  0  0  0  0  0  0  0  0  0  0
    1.2040   -0.3880    1.2080 C   0  0  0  0  0  0  0  0  0  0  0  0
    2.1550   -0.3510    2.0210 O   0  0  0  0  0  0  0  0  0  0  0  0
  2  1  1  1
  2  3  1  0
  2  6  1  0
  2 14  1  0
  3  4  1  0
  3  5  2  0
  6  7  1  0
  7  8  1  6
  7 10  1  0
  8  9  1  0
 10 11  1  6
 10 13  1  0
 11 12  1  0
 13 14  1  0
 14 15  2  0
M  END
