
     RDKit          3D

 14 14  0  0  0  0  0  0  0  0999 V2000
   -3.6750   -0.1240   -0.1650 C   0  0  0  0  0  0  0  0  0  0  0  0
   -2.6110   -0.6390   -0.9780 O   0  0  0  0  0  0  0  0  0  0  0  0
   -1.3150   -0.4850   -0.4690 C   0  0  0  0  0  0  0  0  0  0  0  0
   -0.4620   -1.4820   -0.6450 C   0  0  0  0  0  0  0  0  0  0  0  0
   -0.8510   -2.6670   -1.3260 N   0  0  0  0  0  0  0  0  0  0  0  0
    0.9020   -1.2780   -0.0900 C   0  0  1  0  0  0  0  0  0  0  0  0
    1.8720   -1.9460   -0.8230 O   0  0  0  0  0  0  0  0  0  0  0  0
    1.1950    0.2120   -0.2290 C   0  0  2  0  0  0  0  0  0  0  0  0
    2.5100    0.5020    0.2680 O   0  0  0  0  0  0  0  0  0  0  0  0
    2.9050    1.8290    0.2000 C   0  0  0  0  0  0  0  0  0  0  0  0
    2.5830    2.6460    1.1810 C   0  0  0  0  0  0  0  0  0  0  0  0
    1.8580    2.1990    2.2760 O   0  0  0  0  0  0  0  0  0  0  0  0
    0.3130    0.9760    0.4940 O   0  0  0  0  0  0  0  0  0  0  0  0
   -1.0080    0.7730    0.2190 C   0  0  0  0  0  0  0  0  0  0  0  0
  1  2  1  0
  2  3  1  0
  3  4  2  0
  3 14  1  0
  4  5  1  0
  4  6  1  0
  6  7  1  6
  6  8  1  0
  8  9  1  1
  8 13  1  0
  9 10  1  0
 10 11  2  3
 11 12  1  0
 13 14  1  0
M  END
