
     RDKit          3D

 35 36  0  0  0  0  0  0  0  0999 V2000
    7.1050    0.1820    2.8440 C   0  0  0  0  0  0  0  0  0  0  0  0
    6.3750    0.7050    1.7950 O   0  0  0  0  0  0  0  0  0  0  0  0
    5.4730   -0.1960    1.2910 C   0  0  0  0  0  0  0  0  0  0  0  0
    4.6780    0.3520    0.1620 C   0  0  2  0  0  0  0  0  0  0  0  0
    3.9760    1.5150    0.5930 O   0  0  0  0  0  0  0  0  0  0  0  0
    3.5580   -0.5970   -0.2640 C   0  0  0  0  0  0  0  0  0  0  0  0
    2.7100   -0.8570    0.8040 O   0  0  0  0  0  0  0  0  0  0  0  0
    1.7040   -1.7330    0.4650 C   0  0  0  0  0  0  0  0  0  0  0  0
    0.7950   -1.2660   -0.6430 C   0  0  2  0  0  0  0  0  0  0  0  0
    0.1760   -0.0760   -0.3190 O   0  0  0  0  0  0  0  0  0  0  0  0
   -1.1490    0.0030   -0.6990 C   0  0  0  0  0  0  0  0  0  0  0  0
   -1.9250   -0.9230    0.2400 C   0  0  1  0  0  0  0  0  0  0  0  0
   -1.5640   -0.5730    1.5390 O   0  0  0  0  0  0  0  0  0  0  0  0
   -3.3980   -0.7930    0.0160 C   0  0  0  0  0  0  0  0  0  0  0  0
   -3.7660    0.5210    0.2400 O   0  0  0  0  0  0  0  0  0  0  0  0
   -5.0980    0.7720    0.0680 C   0  0  2  0  0  0  0  0  0  0  0  0
   -5.5190    0.4850   -1.2150 O   0  0  0  0  0  0  0  0  0  0  0  0
   -5.2920    2.2840    0.2560 C   0  0  0  0  0  0  0  0  0  0  0  0
   -6.6860    2.5530   -0.1700 C   0  0  0  0  0  0  0  0  0  0  0  0
   -6.9760    3.6740   -0.6390 O   0  0  0  0  0  0  0  0  0  0  0  0
   -7.6080    1.5310   -0.0220 O   0  0  0  0  0  0  0  0  0  0  0  0
   -7.3820    0.6460    1.0860 C   0  0  1  0  0  0  0  0  0  0  0  0
   -7.6320    1.3240    2.2720 O   0  0  0  0  0  0  0  0  0  0  0  0
   -8.3380   -0.3670    0.9850 O   0  0  0  0  0  0  0  0  0  0  0  0
   -9.5550    0.2270    1.0470 N   0  0  0  0  0  0  0  0  0  0  0  0
   -5.9780    0.0860    1.0820 C   0  0  0  0  0  0  0  0  0  0  0  0
   -1.4060   -2.3200   -0.0200 C   0  0  0  0  0  0  0  0  0  0  0  0
   -0.2460   -2.3270   -0.9700 C   0  0  2  0  0  0  0  0  0  0  0  0
    0.3240   -3.6040   -0.9600 O   0  0  0  0  0  0  0  0  0  0  0  0
    5.4590    0.7710   -1.0340 C   0  0  1  0  0  0  0  0  0  0  0  0
    6.4700    1.8740   -0.7600 C   0  0  0  0  0  0  0  0  0  0  0  0
    5.7910    2.9820   -0.2790 O   0  0  0  0  0  0  0  0  0  0  0  0
    6.1470   -0.3370   -1.7360 C   0  0  0  0  0  0  0  0  0  0  0  0
    6.8690   -0.0220   -2.9140 N   0  0  0  0  0  0  0  0  0  0  0  0
    6.1190   -1.5120   -1.3420 O   0  0  0  0  0  0  0  0  0  0  0  0
  1  2  1  0
  2  3  1  0
  3  4  1  0
  4  5  1  1
  4  6  1  0
  4 30  1  0
  6  7  1  0
  7  8  1  0
  9  8  1  1
  9 10  1  0
  9 28  1  0
 10 11  1  0
 11 12  1  0
 12 13  1  1
 12 14  1  0
 12 27  1  0
 14 15  1  0
 15 16  1  0
 16 17  1  6
 16 18  1  0
 16 26  1  0
 18 19  1  0
 19 20  2  0
 19 21  1  0
 21 22  1  0
 22 23  1  1
 22 24  1  0
 22 26  1  0
 24 25  1  0
 27 28  1  0
 28 29  1  1
 30 31  1  1
 30 33  1  0
 31 32  1  0
 33 34  1  0
 33 35  2  0
M  END
