
     RDKit          3D

 35 35  0  0  0  0  0  0  0  0999 V2000
    1.8260    1.4610    0.6760 O   0  0  0  0  0  0  0  0  0  0  0  0
    1.9050    0.2240    0.3810 C   0  0  0  0  0  0  0  0  0  0  0  0
    0.9530   -0.4050   -0.4550 N   0  0  0  0  0  0  0  0  0  0  0  0
   -0.1720    0.3160   -1.0130 C   0  0  1  0  0  0  0  0  0  0  0  0
   -0.3320    0.0330   -2.3350 O   0  0  0  0  0  0  0  0  0  0  0  0
   -1.4270    0.0320   -0.1850 C   0  0  1  0  0  0  0  0  0  0  0  0
   -2.5260    0.7040   -0.6890 O   0  0  0  0  0  0  0  0  0  0  0  0
   -2.4280    2.0410   -0.8590 C   0  0  0  0  0  0  0  0  0  0  0  0
   -3.8400    2.6160   -0.6360 C   0  0  0  0  0  0  0  0  0  0  0  0
   -4.7640    1.9400   -1.4280 O   0  0  0  0  0  0  0  0  0  0  0  0
   -5.9950    1.9990   -0.7790 C   0  0  0  0  0  0  0  0  0  0  0  0
   -6.6880    0.6710   -1.0210 C   0  0  2  0  0  0  0  0  0  0  0  0
   -8.0070    0.8410   -0.6380 O   0  0  0  0  0  0  0  0  0  0  0  0
   -6.0350   -0.4420   -0.2390 C   0  0  0  0  0  0  0  0  0  0  0  0
   -4.8220   -0.0860    0.2830 O   0  0  0  0  0  0  0  0  0  0  0  0
   -4.0640   -1.0830    0.8400 C   0  0  1  0  0  0  0  0  0  0  0  0
   -4.8790   -2.0940    1.6470 C   0  0  0  0  0  0  0  0  0  0  0  0
   -5.8300   -2.7490    0.9160 O   0  0  0  0  0  0  0  0  0  0  0  0
   -3.1460   -1.7900   -0.0970 C   0  0  0  0  0  0  0  0  0  0  0  0
   -1.6860   -1.4250    0.0270 C   0  0  2  0  0  0  0  0  0  0  0  0
   -1.0780   -2.0190    1.2520 C   0  0  0  0  0  0  0  0  0  0  0  0
   -1.5010   -1.4330    2.4510 O   0  0  0  0  0  0  0  0  0  0  0  0
    2.9920   -0.4770    0.9370 N   0  0  0  0  0  0  0  0  0  0  0  0
    3.9380    0.2190    1.7940 C   0  0  1  0  0  0  0  0  0  0  0  0
    3.8180   -0.3550    3.2100 C   0  0  0  0  0  0  0  0  0  0  0  0
    2.5070   -0.1570    3.6700 O   0  0  0  0  0  0  0  0  0  0  0  0
    5.2340   -0.0330    1.3590 O   0  0  0  0  0  0  0  0  0  0  0  0
    6.1460    0.9340    0.9930 C   0  0  0  0  0  0  0  0  0  0  0  0
    5.7990    2.1420    1.0430 O   0  0  0  0  0  0  0  0  0  0  0  0
    7.5280    0.6420    0.5390 C   0  0  1  0  0  0  0  0  0  0  0  0
    7.8340   -0.7190    0.5860 O   0  0  0  0  0  0  0  0  0  0  0  0
    7.6500    1.1210   -0.9140 C   0  0  2  0  0  0  0  0  0  0  0  0
    7.3350    2.4610   -0.9420 O   0  0  0  0  0  0  0  0  0  0  0  0
    6.7270    0.2790   -1.7970 C   0  0  0  0  0  0  0  0  0  0  0  0
    7.0870   -1.0630   -1.7340 O   0  0  0  0  0  0  0  0  0  0  0  0
  1  2  2  0
  2  3  1  0
  2 23  1  0
  3  4  1  0
  4  5  1  6
  4  6  1  0
  6  7  1  6
  6 20  1  0
  7  8  1  0
  8  9  1  0
  9 10  1  0
 10 11  1  0
 11 12  1  0
 12 13  1  1
 12 14  1  0
 14 15  1  0
 15 16  1  0
 16 17  1  6
 16 19  1  0
 17 18  1  0
 19 20  1  0
 20 21  1  1
 21 22  1  0
 23 24  1  0
 24 25  1  1
 24 27  1  0
 25 26  1  0
 27 28  1  0
 28 29  2  0
 28 30  1  0
 30 31  1  6
 30 32  1  0
 32 33  1  1
 32 34  1  0
 34 35  1  0
M  END
