
     RDKit          3D

 37 41  0  0  0  0  0  0  0  0999 V2000
   -6.7280    2.6080    2.5310 N   0  0  0  0  0  0  0  0  0  0  0  0
   -5.3260    2.5470    2.6470 C   0  0  0  0  0  0  0  0  0  0  0  0
   -4.7730    3.2550    3.5170 O   0  0  0  0  0  0  0  0  0  0  0  0
   -4.5340    1.6920    1.7910 C   0  0  0  0  0  0  0  0  0  0  0  0
   -3.1750    1.5580    1.8160 C   0  0  0  0  0  0  0  0  0  0  0  0
   -2.2170    2.2090    2.6630 N   0  0  0  0  0  0  0  0  0  0  0  0
   -2.8410    0.6550    0.8550 N   0  0  0  0  0  0  0  0  0  0  0  0
   -1.5010    0.2280    0.5730 C   0  0  0  0  0  0  0  0  0  0  0  0
   -0.4820    1.1240    0.3630 C   0  0  0  0  0  0  0  0  0  0  0  0
    0.8350    0.6980    0.0980 C   0  0  0  0  0  0  0  0  0  0  0  0
    1.1740   -0.6250    0.0380 C   0  0  0  0  0  0  0  0  0  0  0  0
    2.4680   -1.1390   -0.1980 N   0  0  0  0  0  0  0  0  0  0  0  0
    3.6730   -0.4280   -0.3300 C   0  0  0  0  0  0  0  0  0  0  0  0
    3.6380    0.8000   -0.2380 O   0  0  0  0  0  0  0  0  0  0  0  0
    4.9180   -1.0480   -0.5600 N   0  0  0  0  0  0  0  0  0  0  0  0
    6.1550   -0.3970   -0.7050 C   0  0  0  0  0  0  0  0  0  0  0  0
    6.3650    0.9340   -0.9260 C   0  0  0  0  0  0  0  0  0  0  0  0
    7.6450    1.4970   -1.0330 C   0  0  0  0  0  0  0  0  0  0  0  0
    8.7630    0.7020   -0.9150 C   0  0  0  0  0  0  0  0  0  0  0  0
    8.5850   -0.6440   -0.6920 C   0  0  0  0  0  0  0  0  0  0  0  0
    9.8010   -1.4910   -0.5600 C   0  0  2  0  0  0  0  0  0  0  0  0
    9.6050   -2.7770   -1.0370 F   0  0  0  0  0  0  0  0  0  0  0  0
   10.1330   -1.5450    0.7970 F   0  0  0  0  0  0  0  0  0  0  0  0
   10.8570   -0.9480   -1.2330 F   0  0  0  0  0  0  0  0  0  0  0  0
    7.3230   -1.1750   -0.5920 C   0  0  0  0  0  0  0  0  0  0  0  0
    0.1120   -1.5270    0.2570 C   0  0  0  0  0  0  0  0  0  0  0  0
   -1.1670   -1.1040    0.5120 C   0  0  0  0  0  0  0  0  0  0  0  0
   -3.9320    0.2080    0.2170 C   0  0  0  0  0  0  0  0  0  0  0  0
   -4.1000   -0.6810   -0.7920 N   0  0  0  0  0  0  0  0  0  0  0  0
   -5.3330   -0.9660   -1.2650 C   0  0  0  0  0  0  0  0  0  0  0  0
   -5.5490   -1.8680   -2.2920 C   0  0  0  0  0  0  0  0  0  0  0  0
   -6.8020   -2.1690   -2.7830 C   0  0  0  0  0  0  0  0  0  0  0  0
   -7.8780   -1.5290   -2.2080 C   0  0  0  0  0  0  0  0  0  0  0  0
   -7.6750   -0.6180   -1.1730 C   0  0  0  0  0  0  0  0  0  0  0  0
   -6.4140   -0.3270   -0.6920 C   0  0  0  0  0  0  0  0  0  0  0  0
   -6.2270    0.5560    0.3120 N   0  0  0  0  0  0  0  0  0  0  0  0
   -5.0080    0.8500    0.7930 C   0  0  0  0  0  0  0  0  0  0  0  0
  1  2  1  0
  2  3  2  0
  2  4  1  0
  4  5  2  0
  4 37  1  0
  5  6  1  0
  5  7  1  0
  7  8  1  0
  7 28  1  0
  8  9  2  0
  8 27  1  0
  9 10  1  0
 10 11  2  0
 11 12  1  0
 11 26  1  0
 12 13  1  0
 13 14  2  0
 13 15  1  0
 15 16  1  0
 16 17  2  0
 16 25  1  0
 17 18  1  0
 18 19  2  0
 19 20  1  0
 20 21  1  0
 20 25  2  0
 21 22  1  6
 21 23  1  0
 21 24  1  0
 26 27  2  0
 28 29  2  0
 28 37  1  0
 29 30  1  0
 30 31  2  0
 30 35  1  0
 31 32  1  0
 32 33  2  0
 33 34  1  0
 34 35  2  0
 35 36  1  0
 36 37  2  0
M  END
