
     RDKit          3D

 36 36  0  0  0  0  0  0  0  0999 V2000
    6.1660    0.4590    0.0060 C   0  0  0  0  0  0  0  0  0  0  0  0
    4.7130    0.2600   -0.3640 C   0  0  1  0  0  0  0  0  0  0  0  0
    4.5310    0.9360   -1.5800 O   0  0  0  0  0  0  0  0  0  0  0  0
    4.5500   -1.2100   -0.6690 C   0  0  2  0  0  0  0  0  0  0  0  0
    4.6980   -2.0110    0.4450 O   0  0  0  0  0  0  0  0  0  0  0  0
    5.6070   -1.5230   -1.5580 O   0  0  0  0  0  0  0  0  0  0  0  0
    5.1840   -1.9420   -2.7460 N   0  0  0  0  0  0  0  0  0  0  0  0
    3.8260    0.7680    0.7000 C   0  0  1  0  0  0  0  0  0  0  0  0
    4.0590    2.2440    0.9140 C   0  0  0  0  0  0  0  0  0  0  0  0
    5.3490    2.5470    1.2940 O   0  0  0  0  0  0  0  0  0  0  0  0
    2.3800    0.6070    0.4350 C   0  0  0  0  0  0  0  0  0  0  0  0
    1.9890    0.0980   -0.6420 O   0  0  0  0  0  0  0  0  0  0  0  0
    1.4570    1.0100    1.3570 O   0  0  0  0  0  0  0  0  0  0  0  0
    0.0610    0.9050    1.2090 C   0  0  1  0  0  0  0  0  0  0  0  0
   -0.5230    1.4610    2.4400 N   0  0  0  0  0  0  0  0  0  0  0  0
   -0.4300    1.7150    0.1730 O   0  0  0  0  0  0  0  0  0  0  0  0
   -1.7790    1.9490    0.4880 C   0  0  1  0  0  0  0  0  0  0  0  0
   -2.3210    2.8890   -0.5530 C   0  0  0  0  0  0  0  0  0  0  0  0
   -1.6070    3.3250   -1.4940 O   0  0  0  0  0  0  0  0  0  0  0  0
   -3.6420    3.3140   -0.5150 O   0  0  0  0  0  0  0  0  0  0  0  0
   -4.2280    4.1830   -1.4370 C   0  0  0  0  0  0  0  0  0  0  0  0
   -3.5590    5.5050   -1.4850 C   0  0  0  0  0  0  0  0  0  0  0  0
   -2.5750    5.7370   -0.7410 O   0  0  0  0  0  0  0  0  0  0  0  0
   -3.9840    6.5130   -2.3330 O   0  0  0  0  0  0  0  0  0  0  0  0
   -2.4800    0.6340    0.4930 C   0  0  0  0  0  0  0  0  0  0  0  0
   -1.5490   -0.5490    0.3990 C   0  0  2  0  0  0  0  0  0  0  0  0
   -1.3520   -0.8500   -1.0650 C   0  0  0  0  0  0  0  0  0  0  0  0
   -2.2380   -1.7860    1.0140 C   0  0  1  0  0  0  0  0  0  0  0  0
   -1.2170   -2.8850    0.9500 C   0  0  0  0  0  0  0  0  0  0  0  0
   -2.4780   -1.5550    2.3740 O   0  0  0  0  0  0  0  0  0  0  0  0
   -3.4620   -2.1410    0.2640 C   0  0  0  0  0  0  0  0  0  0  0  0
   -4.2760   -3.2820    0.7050 C   0  0  1  0  0  0  0  0  0  0  0  0
   -5.3950   -3.3330   -0.1930 O   0  0  0  0  0  0  0  0  0  0  0  0
   -3.6930   -4.6490    0.6380 C   0  0  0  0  0  0  0  0  0  0  0  0
   -3.3010   -5.0110   -0.6670 O   0  0  0  0  0  0  0  0  0  0  0  0
   -0.3730   -0.3840    1.0750 O   0  0  0  0  0  0  0  0  0  0  0  0
  2  1  1  1
  2  3  1  0
  2  4  1  0
  2  8  1  0
  4  5  1  1
  4  6  1  0
  6  7  1  0
  8  9  1  6
  8 11  1  0
  9 10  1  0
 11 12  2  0
 11 13  1  0
 13 14  1  0
 14 15  1  1
 14 16  1  0
 14 36  1  0
 16 17  1  0
 17 18  1  6
 17 25  1  0
 18 19  2  0
 18 20  1  0
 20 21  1  0
 21 22  1  0
 22 23  2  0
 22 24  1  0
 25 26  1  0
 26 27  1  6
 26 28  1  0
 26 36  1  0
 28 29  1  1
 28 30  1  0
 28 31  1  0
 31 32  1  0
 32 33  1  6
 32 34  1  0
 34 35  1  0
M  END
