
     RDKit          3D

 36 37  0  0  0  0  0  0  0  0999 V2000
   -0.8050    3.6290   -2.1220 C   0  0  0  0  0  0  0  0  0  0  0  0
   -0.8580    2.6730   -0.9480 C   0  0  2  0  0  0  0  0  0  0  0  0
   -0.2290    1.4510   -1.2320 O   0  0  0  0  0  0  0  0  0  0  0  0
    0.8370    0.9830   -0.5090 C   0  0  0  0  0  0  0  0  0  0  0  0
    1.2480    1.7120    0.4530 O   0  0  0  0  0  0  0  0  0  0  0  0
    1.4820   -0.2530   -0.7860 N   0  0  0  0  0  0  0  0  0  0  0  0
    2.6000   -0.6410    0.0510 C   0  0  1  0  0  0  0  0  0  0  0  0
    2.3140   -1.8590    0.6730 O   0  0  0  0  0  0  0  0  0  0  0  0
    3.8350   -0.8580   -0.8130 C   0  0  1  0  0  0  0  0  0  0  0  0
    3.5700   -1.8640   -1.7330 O   0  0  0  0  0  0  0  0  0  0  0  0
    4.2020    0.3780   -1.5120 C   0  0  0  0  0  0  0  0  0  0  0  0
    4.5390    1.5800   -0.8490 N   0  0  0  0  0  0  0  0  0  0  0  0
    4.2260    0.3950   -2.7630 O   0  0  0  0  0  0  0  0  0  0  0  0
    4.9310   -1.3410    0.1110 C   0  0  1  0  0  0  0  0  0  0  0  0
    6.1660   -1.7640   -0.6220 C   0  0  0  0  0  0  0  0  0  0  0  0
    6.9580   -2.4740    0.2830 O   0  0  0  0  0  0  0  0  0  0  0  0
    7.3320   -1.6200    1.3250 C   0  0  0  0  0  0  0  0  0  0  0  0
    6.1330   -0.9910    1.9770 C   0  0  0  0  0  0  0  0  0  0  0  0
    5.2610   -0.4010    1.0650 O   0  0  0  0  0  0  0  0  0  0  0  0
   -2.3050    2.4820   -0.6160 C   0  0  0  0  0  0  0  0  0  0  0  0
   -3.0630    3.4130   -0.3230 O   0  0  0  0  0  0  0  0  0  0  0  0
   -2.8420    1.2170   -0.6310 O   0  0  0  0  0  0  0  0  0  0  0  0
   -4.1450    0.8350   -0.3500 C   0  0  1  0  0  0  0  0  0  0  0  0
   -4.9290    0.4480   -1.5790 C   0  0  2  0  0  0  0  0  0  0  0  0
   -6.2080    0.0770   -1.1960 O   0  0  0  0  0  0  0  0  0  0  0  0
   -4.2770   -0.5420   -2.4720 C   0  0  0  0  0  0  0  0  0  0  0  0
   -4.1550   -1.8150   -1.9400 O   0  0  0  0  0  0  0  0  0  0  0  0
   -4.1420   -0.1520    0.7500 C   0  0  2  0  0  0  0  0  0  0  0  0
   -3.3900   -1.3020    0.4550 O   0  0  0  0  0  0  0  0  0  0  0  0
   -5.5270   -0.6620    1.0990 C   0  0  0  0  0  0  0  0  0  0  0  0
   -5.4630   -1.2350    2.4540 C   0  0  0  0  0  0  0  0  0  0  0  0
   -6.4980   -1.4140    3.1410 O   0  0  0  0  0  0  0  0  0  0  0  0
   -4.2450   -1.5880    2.9870 O   0  0  0  0  0  0  0  0  0  0  0  0
   -3.1130   -0.7510    2.8590 C   0  0  0  0  0  0  0  0  0  0  0  0
   -3.5640    0.4410    2.0010 C   0  0  1  0  0  0  0  0  0  0  0  0
   -2.5180    1.2990    1.7800 O   0  0  0  0  0  0  0  0  0  0  0  0
  2  1  1  6
  2  3  1  0
  2 20  1  0
  3  4  1  0
  4  5  2  0
  4  6  1  0
  6  7  1  0
  7  8  1  6
  7  9  1  0
  9 10  1  6
  9 11  1  0
  9 14  1  0
 11 12  1  0
 11 13  2  0
 14 15  1  6
 14 19  1  0
 15 16  1  0
 16 17  1  0
 17 18  1  0
 18 19  1  0
 20 21  2  0
 20 22  1  0
 23 22  1  6
 23 24  1  0
 23 28  1  0
 24 25  1  1
 24 26  1  0
 26 27  1  0
 28 29  1  6
 28 30  1  0
 28 35  1  0
 30 31  1  0
 31 32  2  0
 31 33  1  0
 33 34  1  0
 34 35  1  0
 35 36  1  6
M  END
