
     RDKit          3D

 37 40  0  0  0  0  0  0  0  0999 V2000
   -6.9360    4.4450   -0.8770 C   0  0  0  0  0  0  0  0  0  0  0  0
   -6.1350    3.2140   -1.2830 C   0  0  0  0  0  0  0  0  0  0  0  0
   -5.6840    2.5390   -0.0790 N   0  0  0  0  0  0  0  0  0  0  0  0
   -4.9430    1.3400   -0.3780 C   0  0  1  0  0  0  0  0  0  0  0  0
   -3.7030    1.6860   -1.1260 C   0  0  0  0  0  0  0  0  0  0  0  0
   -2.7090    2.4710   -0.3510 C   0  0  0  0  0  0  0  0  0  0  0  0
   -2.8730    2.5680    1.1080 C   0  0  0  0  0  0  0  0  0  0  0  0
   -3.8890    1.7260    1.7780 C   0  0  0  0  0  0  0  0  0  0  0  0
   -4.5060    0.6610    0.9090 C   0  0  2  0  0  0  0  0  0  0  0  0
   -3.5450   -0.3200    0.6960 O   0  0  0  0  0  0  0  0  0  0  0  0
   -3.5770   -1.6440    1.0080 C   0  0  0  0  0  0  0  0  0  0  0  0
   -4.6340   -2.2620    1.6170 C   0  0  0  0  0  0  0  0  0  0  0  0
   -4.5620   -3.6100    1.8880 C   0  0  0  0  0  0  0  0  0  0  0  0
   -3.4450   -4.3780    1.5650 C   0  0  0  0  0  0  0  0  0  0  0  0
   -3.4770   -5.7280    1.8830 O   0  0  0  0  0  0  0  0  0  0  0  0
   -2.3720   -6.5340    1.5740 C   0  0  0  0  0  0  0  0  0  0  0  0
   -2.4060   -3.7360    0.9580 C   0  0  0  0  0  0  0  0  0  0  0  0
   -2.4400   -2.3910    0.6710 C   0  0  0  0  0  0  0  0  0  0  0  0
   -1.3260   -1.7480   -0.0020 C   0  0  0  0  0  0  0  0  0  0  0  0
   -0.0410   -1.8450    0.3190 C   0  0  0  0  0  0  0  0  0  0  0  0
    0.3030   -2.6910    1.4840 C   0  0  0  0  0  0  0  0  0  0  0  0
    0.9390   -1.1240   -0.4640 C   0  0  0  0  0  0  0  0  0  0  0  0
    0.4550   -0.4120   -1.4290 O   0  0  0  0  0  0  0  0  0  0  0  0
    2.3170   -1.0890   -0.3260 N   0  0  0  0  0  0  0  0  0  0  0  0
    3.1450   -1.7930    0.6290 C   0  0  0  0  0  0  0  0  0  0  0  0
    4.5750   -1.8880    0.0540 C   0  0  0  0  0  0  0  0  0  0  0  0
    5.2010   -0.5770   -0.0150 N   0  0  0  0  0  0  0  0  0  0  0  0
    6.1760   -0.5540   -1.1030 C   0  0  0  0  0  0  0  0  0  0  0  0
    6.8920    0.7290   -1.1960 C   0  0  0  0  0  0  0  0  0  0  0  0
    7.6250    1.0340   -2.3400 C   0  0  0  0  0  0  0  0  0  0  0  0
    8.3060    2.2260   -2.4360 C   0  0  0  0  0  0  0  0  0  0  0  0
    8.2820    3.1230   -1.4340 N   0  0  0  0  0  0  0  0  0  0  0  0
    7.5670    2.8090   -0.3360 C   0  0  0  0  0  0  0  0  0  0  0  0
    7.5490    3.7630    0.7210 N   0  0  0  0  0  0  0  0  0  0  0  0
    6.8960    1.6510   -0.2230 N   0  0  0  0  0  0  0  0  0  0  0  0
    4.1860    0.4070   -0.3580 C   0  0  0  0  0  0  0  0  0  0  0  0
    3.1090   -0.2260   -1.2460 C   0  0  0  0  0  0  0  0  0  0  0  0
  1  2  1  0
  2  3  1  0
  4  3  1  1
  4  5  1  0
  4  9  1  0
  5  6  1  0
  6  7  1  0
  7  8  1  0
  8  9  1  0
  9 10  1  6
 10 11  1  0
 11 12  2  0
 11 18  1  0
 12 13  1  0
 13 14  2  0
 14 15  1  0
 14 17  1  0
 15 16  1  0
 17 18  2  0
 18 19  1  0
 19 20  2  3
 20 21  1  0
 20 22  1  0
 22 23  2  0
 22 24  1  0
 24 25  1  0
 24 37  1  0
 25 26  1  0
 26 27  1  0
 27 28  1  0
 27 36  1  0
 28 29  1  0
 29 30  2  0
 29 35  1  0
 30 31  1  0
 31 32  2  0
 32 33  1  0
 33 34  1  0
 33 35  2  0
 36 37  1  0
M  CHG  1  32   1
M  END
