
     RDKit          3D

 37 40  0  0  0  0  0  0  0  0999 V2000
    3.3140   -1.0630   -1.8830 C   0  0  0  0  0  0  0  0  0  0  0  0
    2.1080   -0.2790   -1.5020 C   0  0  0  0  0  0  0  0  0  0  0  0
    0.9520   -0.5130   -2.2650 C   0  0  0  0  0  0  0  0  0  0  0  0
   -0.2040    0.1580   -1.9200 C   0  0  0  0  0  0  0  0  0  0  0  0
   -0.2440    1.0390   -0.8600 C   0  0  0  0  0  0  0  0  0  0  0  0
    0.9050    1.2290   -0.1560 C   0  0  0  0  0  0  0  0  0  0  0  0
    2.1260    0.5770   -0.4510 C   0  0  0  0  0  0  0  0  0  0  0  0
    3.2860    0.8880    0.3130 C   0  0  0  0  0  0  0  0  0  0  0  0
    3.0670    1.2540    1.5400 O   0  0  0  0  0  0  0  0  0  0  0  0
    4.6470    0.8650   -0.0550 N   0  0  0  0  0  0  0  0  0  0  0  0
    5.7120    1.2100    0.8820 C   0  0  2  0  0  0  0  0  0  0  0  0
    6.3450    2.5500    0.4730 C   0  0  0  0  0  0  0  0  0  0  0  0
    6.7880    0.2250    0.9240 C   0  0  0  0  0  0  0  0  0  0  0  0
    7.3920   -0.3150   -0.1940 C   0  0  0  0  0  0  0  0  0  0  0  0
    8.3890   -1.2320   -0.1690 C   0  0  0  0  0  0  0  0  0  0  0  0
    8.8600   -1.6810    1.0450 C   0  0  0  0  0  0  0  0  0  0  0  0
    9.9310   -2.6660    1.1330 C   0  0  0  0  0  0  0  0  0  0  0  0
   10.3780   -3.0930    2.2210 O   0  0  0  0  0  0  0  0  0  0  0  0
    8.2760   -1.1610    2.2060 C   0  0  0  0  0  0  0  0  0  0  0  0
    7.2620   -0.2280    2.1540 C   0  0  0  0  0  0  0  0  0  0  0  0
   -1.5070    1.7380   -0.5460 C   0  0  2  0  0  0  0  0  0  0  0  0
   -1.9370    1.5720    0.8310 N   0  0  0  0  0  0  0  0  0  0  0  0
   -2.6000    0.3410    1.1090 C   0  0  0  0  0  0  0  0  0  0  0  0
   -4.0970    0.5000    1.0590 C   0  0  0  0  0  0  0  0  0  0  0  0
   -4.9660   -0.5010    0.5960 C   0  0  0  0  0  0  0  0  0  0  0  0
   -6.2310   -0.0120    0.6950 C   0  0  0  0  0  0  0  0  0  0  0  0
   -7.4860   -0.6470    0.3510 C   0  0  0  0  0  0  0  0  0  0  0  0
   -8.5500    0.0620    0.5380 O   0  0  0  0  0  0  0  0  0  0  0  0
   -7.6670   -1.9200   -0.1520 N   0  0  0  0  0  0  0  0  0  0  0  0
   -9.0580   -2.3570   -0.4400 C   0  0  0  0  0  0  0  0  0  0  0  0
   -6.6510   -2.8860   -0.4260 C   0  0  0  0  0  0  0  0  0  0  0  0
   -6.1370    1.2660    1.2070 N   0  0  0  0  0  0  0  0  0  0  0  0
   -7.2700    2.1610    1.4680 C   0  0  0  0  0  0  0  0  0  0  0  0
   -4.8720    1.4980    1.3960 N   0  0  0  0  0  0  0  0  0  0  0  0
   -2.5890    1.5760   -1.5530 C   0  0  0  0  0  0  0  0  0  0  0  0
   -2.6440    0.2450   -2.2380 C   0  0  0  0  0  0  0  0  0  0  0  0
   -1.3420   -0.1370   -2.7410 N   0  0  0  0  0  0  0  0  0  0  0  0
  1  2  1  0
  2  3  2  0
  2  7  1  0
  3  4  1  0
  4  5  2  0
  4 37  1  0
  5  6  1  0
  5 21  1  0
  6  7  2  0
  7  8  1  0
  8  9  2  0
  8 10  1  0
 10 11  1  0
 11 12  1  6
 11 13  1  0
 13 14  2  0
 13 20  1  0
 14 15  1  0
 15 16  2  0
 16 17  1  0
 16 19  1  0
 17 18  2  0
 19 20  2  0
 21 22  1  1
 21 35  1  0
 22 23  1  0
 23 24  1  0
 24 25  1  0
 24 34  2  0
 25 26  2  0
 26 27  1  0
 26 32  1  0
 27 28  2  0
 27 29  1  0
 29 30  1  0
 29 31  1  0
 32 33  1  0
 32 34  1  0
 35 36  1  0
 36 37  1  0
M  CHG  1  22   1
M  END
