
     RDKit          3D

 35 36  0  0  0  0  0  0  0  0999 V2000
   -5.5280    2.9830   -2.4050 C   0  0  0  0  0  0  0  0  0  0  0  0
   -4.5180    2.0330   -2.4440 O   0  0  0  0  0  0  0  0  0  0  0  0
   -4.3440    1.3470   -1.2600 C   0  0  1  0  0  0  0  0  0  0  0  0
   -4.6320    0.0190   -1.4750 O   0  0  0  0  0  0  0  0  0  0  0  0
   -2.9150    1.5330   -0.7140 C   0  0  1  0  0  0  0  0  0  0  0  0
   -2.8840    2.9690   -0.5460 O   0  0  0  0  0  0  0  0  0  0  0  0
   -2.7690    1.0230    0.6600 C   0  0  1  0  0  0  0  0  0  0  0  0
   -3.1940   -0.3620    0.9710 C   0  0  0  0  0  0  0  0  0  0  0  0
   -2.5570   -1.5780    0.5310 C   0  0  1  0  0  0  0  0  0  0  0  0
   -3.6480   -2.6660    0.3080 C   0  0  0  0  0  0  0  0  0  0  0  0
   -4.3850   -2.8280    1.4530 O   0  0  0  0  0  0  0  0  0  0  0  0
   -1.7840   -1.6120   -0.7380 C   0  0  0  0  0  0  0  0  0  0  0  0
   -1.4390   -2.9090   -1.1300 O   0  0  0  0  0  0  0  0  0  0  0  0
   -1.8400   -2.1610    1.5870 O   0  0  0  0  0  0  0  0  0  0  0  0
   -0.6140   -2.2370    2.0620 C   0  0  0  0  0  0  0  0  0  0  0  0
   -0.2570   -1.5560    3.0960 O   0  0  0  0  0  0  0  0  0  0  0  0
    0.4760   -3.0770    1.5080 C   0  0  1  0  0  0  0  0  0  0  0  0
    1.5470   -3.3720    2.5780 C   0  0  0  0  0  0  0  0  0  0  0  0
   -0.0190   -4.3720    1.1940 O   0  0  0  0  0  0  0  0  0  0  0  0
    1.1680   -2.5410    0.4590 O   0  0  0  0  0  0  0  0  0  0  0  0
    2.2140   -1.7200    0.7200 C   0  0  0  0  0  0  0  0  0  0  0  0
    2.2010   -0.3980   -0.0470 C   0  0  2  0  0  0  0  0  0  0  0  0
    3.3770   -0.1610   -0.6780 O   0  0  0  0  0  0  0  0  0  0  0  0
    3.9080    1.0830   -0.7030 C   0  0  2  0  0  0  0  0  0  0  0  0
    5.2860    1.0520   -0.4870 O   0  0  0  0  0  0  0  0  0  0  0  0
    6.0260    1.4650   -1.5900 C   0  0  0  0  0  0  0  0  0  0  0  0
    7.5190    1.4080   -1.2860 C   0  0  0  0  0  0  0  0  0  0  0  0
    8.2230    1.8280   -2.4130 O   0  0  0  0  0  0  0  0  0  0  0  0
    3.3000    2.0870    0.2120 C   0  0  0  0  0  0  0  0  0  0  0  0
    2.7930    1.4240    1.2960 O   0  0  0  0  0  0  0  0  0  0  0  0
    1.7020    0.6600    0.8630 C   0  0  1  0  0  0  0  0  0  0  0  0
    0.7170    1.5670    0.3060 N   0  0  0  0  0  0  0  0  0  0  0  0
   -0.4220    2.1070    0.9580 C   0  0  0  0  0  0  0  0  0  0  0  0
   -0.3260    3.4100    1.1670 O   0  0  0  0  0  0  0  0  0  0  0  0
   -1.6030    1.4780    1.4020 N   0  0  0  0  0  0  0  0  0  0  0  0
  1  2  1  0
  2  3  1  0
  3  4  1  6
  3  5  1  0
  5  6  1  1
  5  7  1  0
  7  8  1  6
  7 35  1  0
  8  9  1  0
  9 10  1  6
  9 12  1  0
  9 14  1  0
 10 11  1  0
 12 13  1  0
 14 15  1  0
 15 16  2  0
 15 17  1  0
 17 18  1  1
 17 19  1  0
 17 20  1  0
 20 21  1  0
 22 21  1  1
 22 23  1  0
 22 31  1  0
 23 24  1  0
 24 25  1  1
 24 29  1  0
 25 26  1  0
 26 27  1  0
 27 28  1  0
 29 30  1  0
 30 31  1  0
 31 32  1  6
 32 33  1  0
 33 34  2  0
 33 35  1  0
M  END
