
     RDKit          3D

 35 35  0  0  0  0  0  0  0  0999 V2000
    1.5680   -1.3430   -1.2130 C   0  0  0  0  0  0  0  0  0  0  0  0
    0.7330   -0.3570   -0.4260 C   0  0  1  0  0  0  0  0  0  0  0  0
    1.4070    0.9870   -0.4410 C   0  0  0  0  0  0  0  0  0  0  0  0
    2.5880    1.1660    0.1340 O   0  0  0  0  0  0  0  0  0  0  0  0
    3.7490    0.6130   -0.2330 C   0  0  1  0  0  0  0  0  0  0  0  0
    4.8310    1.6740   -0.5160 C   0  0  1  0  0  0  0  0  0  0  0  0
    4.3610    2.5470   -1.5910 N   0  0  0  0  0  0  0  0  0  0  0  0
    5.0810    2.4540    0.5900 O   0  0  0  0  0  0  0  0  0  0  0  0
    4.2650   -0.1920    0.9760 C   0  0  2  0  0  0  0  0  0  0  0  0
    4.4480    0.6910    2.0110 O   0  0  0  0  0  0  0  0  0  0  0  0
    5.4580   -0.9950    0.5890 C   0  0  0  0  0  0  0  0  0  0  0  0
    5.8330   -1.7430    1.7100 O   0  0  0  0  0  0  0  0  0  0  0  0
   -0.5900   -0.1320   -1.1910 C   0  0  0  0  0  0  0  0  0  0  0  0
   -1.6280    0.5440   -0.3420 C   0  0  1  0  0  0  0  0  0  0  0  0
   -2.1430    1.6880   -0.9030 O   0  0  0  0  0  0  0  0  0  0  0  0
   -1.8950    2.8890   -0.3720 C   0  0  0  0  0  0  0  0  0  0  0  0
   -2.3370    3.0050    1.0570 C   0  0  2  0  0  0  0  0  0  0  0  0
   -3.7080    2.7990    1.1330 O   0  0  0  0  0  0  0  0  0  0  0  0
   -2.0780    4.4470    1.4680 C   0  0  0  0  0  0  0  0  0  0  0  0
   -0.7240    4.7170    1.4120 O   0  0  0  0  0  0  0  0  0  0  0  0
   -2.5260   -0.3780    0.0350 O   0  0  0  0  0  0  0  0  0  0  0  0
   -3.3640   -1.0320   -0.7550 C   0  0  2  0  0  0  0  0  0  0  0  0
   -4.4690   -0.2850   -1.4050 C   0  0  0  0  0  0  0  0  0  0  0  0
   -5.3000   -0.8100   -2.1800 O   0  0  0  0  0  0  0  0  0  0  0  0
   -4.6190    1.0580   -1.1660 O   0  0  0  0  0  0  0  0  0  0  0  0
   -3.9000   -2.3360   -0.1560 C   0  0  1  0  0  0  0  0  0  0  0  0
   -4.0800   -3.4130   -1.2170 C   0  0  0  0  0  0  0  0  0  0  0  0
   -4.9050   -4.4000   -0.6770 O   0  0  0  0  0  0  0  0  0  0  0  0
   -3.3540   -2.8260    0.9250 O   0  0  0  0  0  0  0  0  0  0  0  0
   -2.1000   -2.8350    1.3060 C   0  0  0  0  0  0  0  0  0  0  0  0
   -1.0690   -3.5380    0.4650 C   0  0  0  0  0  0  0  0  0  0  0  0
    0.2330   -3.2720    0.9330 O   0  0  0  0  0  0  0  0  0  0  0  0
    0.7050   -2.1010    1.4420 C   0  0  0  0  0  0  0  0  0  0  0  0
    1.4020   -2.2140    2.5250 O   0  0  0  0  0  0  0  0  0  0  0  0
    0.5240   -0.7950    0.9330 N   0  0  0  0  0  0  0  0  0  0  0  0
  2  1  1  6
  2  3  1  0
  2 13  1  0
  2 35  1  0
  3  4  1  0
  5  4  1  1
  5  6  1  0
  5  9  1  0
  6  7  1  6
  6  8  1  0
  9 10  1  1
  9 11  1  0
 11 12  1  0
 13 14  1  0
 14 15  1  6
 14 21  1  0
 15 16  1  0
 16 17  1  0
 17 18  1  6
 17 19  1  0
 19 20  1  0
 21 22  1  0
 22 23  1  1
 22 26  1  0
 23 24  2  0
 23 25  1  0
 26 27  1  6
 26 29  1  0
 27 28  1  0
 29 30  1  0
 30 31  1  0
 31 32  1  0
 32 33  1  0
 33 34  2  0
 33 35  1  0
M  END
