
     RDKit          3D

 35 36  0  0  0  0  0  0  0  0999 V2000
    0.2610    2.6310   -1.9450 N   0  0  0  0  0  0  0  0  0  0  0  0
    0.2820    2.3820   -0.6320 O   0  0  0  0  0  0  0  0  0  0  0  0
   -0.3030    1.1540   -0.2930 C   0  0  2  0  0  0  0  0  0  0  0  0
   -1.4310    1.3590    0.6940 C   0  0  0  0  0  0  0  0  0  0  0  0
   -2.7730    0.9310    0.1580 C   0  0  2  0  0  0  0  0  0  0  0  0
   -2.5730    0.5520   -1.1710 O   0  0  0  0  0  0  0  0  0  0  0  0
   -3.7650    2.0570    0.1210 C   0  0  0  0  0  0  0  0  0  0  0  0
   -3.2730    3.1850   -0.7640 C   0  0  0  0  0  0  0  0  0  0  0  0
   -4.2330    4.1980   -0.7600 O   0  0  0  0  0  0  0  0  0  0  0  0
   -3.2470   -0.2960    0.8680 C   0  0  1  0  0  0  0  0  0  0  0  0
   -4.2150   -0.0770    1.9750 C   0  0  0  0  0  0  0  0  0  0  0  0
   -5.1700   -1.2490    1.8180 C   0  0  0  0  0  0  0  0  0  0  0  0
   -4.7320   -1.9900    0.7380 O   0  0  0  0  0  0  0  0  0  0  0  0
   -4.0280   -1.1300   -0.0980 C   0  0  0  0  0  0  0  0  0  0  0  0
   -2.1260   -0.9170    1.4370 O   0  0  0  0  0  0  0  0  0  0  0  0
   -1.5690   -2.1340    1.2640 C   0  0  0  0  0  0  0  0  0  0  0  0
   -1.6440   -3.1510    2.0010 O   0  0  0  0  0  0  0  0  0  0  0  0
   -0.7420   -2.3410    0.0440 C   0  0  2  0  0  0  0  0  0  0  0  0
   -0.9860   -3.7610   -0.4860 C   0  0  0  0  0  0  0  0  0  0  0  0
   -0.7690   -4.7160    0.4880 O   0  0  0  0  0  0  0  0  0  0  0  0
    0.5890   -2.2360    0.4840 O   0  0  0  0  0  0  0  0  0  0  0  0
    1.5150   -2.3480   -0.5180 C   0  0  0  0  0  0  0  0  0  0  0  0
    1.4370   -1.2170   -1.4950 C   0  0  2  0  0  0  0  0  0  0  0  0
    2.4720   -1.4180   -2.4290 O   0  0  0  0  0  0  0  0  0  0  0  0
    1.7450    0.0750   -0.7450 C   0  0  2  0  0  0  0  0  0  0  0  0
    2.9960   -0.1000   -0.1370 O   0  0  0  0  0  0  0  0  0  0  0  0
    3.9360    0.7890   -0.6680 C   0  0  0  0  0  0  0  0  0  0  0  0
    5.2470    0.5400    0.0340 C   0  0  2  0  0  0  0  0  0  0  0  0
    5.6490   -0.9240   -0.1490 C   0  0  0  0  0  0  0  0  0  0  0  0
    5.8610   -1.1710   -1.5040 O   0  0  0  0  0  0  0  0  0  0  0  0
    5.0350    0.7750    1.4220 O   0  0  0  0  0  0  0  0  0  0  0  0
    5.7660    1.7150    2.1270 C   0  0  0  0  0  0  0  0  0  0  0  0
    6.6440    2.3690    1.4860 O   0  0  0  0  0  0  0  0  0  0  0  0
    5.6070    1.9850    3.4610 O   0  0  0  0  0  0  0  0  0  0  0  0
    0.7470    0.3270    0.2710 N   0  0  0  0  0  0  0  0  0  0  0  0
  1  2  1  0
  3  2  1  1
  3  4  1  0
  3 35  1  0
  4  5  1  0
  5  6  1  6
  5  7  1  0
  5 10  1  0
  7  8  1  0
  8  9  1  0
 10 11  1  1
 10 14  1  0
 10 15  1  0
 11 12  1  0
 12 13  1  0
 13 14  1  0
 15 16  1  0
 16 17  2  0
 16 18  1  0
 18 19  1  1
 18 21  1  0
 19 20  1  0
 21 22  1  0
 22 23  1  0
 23 24  1  6
 23 25  1  0
 25 26  1  1
 25 35  1  0
 26 27  1  0
 28 27  1  6
 28 29  1  0
 28 31  1  0
 29 30  1  0
 31 32  1  0
 32 33  2  0
 32 34  1  0
M  END
