
     RDKit          3D

 20 20  0  0  0  0  0  0  0  0999 V2000
    5.6760    2.3490   -0.3410 C   0  0  0  0  0  0  0  0  0  0  0  0
    4.3470    2.2240    0.0400 O   0  0  0  0  0  0  0  0  0  0  0  0
    3.6350    1.7500   -0.9760 O   0  0  0  0  0  0  0  0  0  0  0  0
    3.4830    0.3500   -0.8310 C   0  0  0  0  0  0  0  0  0  0  0  0
    2.6210    0.0940    0.7730 P   0  0  0  0  0  0  0  0  0  0  0  0
    2.2430   -1.6140    1.0150 O   0  0  0  0  0  0  0  0  0  0  0  0
    0.8730   -1.6410    0.6920 C   0  0  2  0  0  0  0  0  0  0  0  0
    0.2130   -2.9400    0.6620 C   0  0  0  0  0  0  0  0  0  0  0  0
    0.6380   -3.7770   -0.3740 O   0  0  0  0  0  0  0  0  0  0  0  0
    0.7940   -0.8610   -0.5090 N   0  0  0  0  0  0  0  0  0  0  0  0
    0.2070    0.4340   -0.2220 C   0  0  1  0  0  0  0  0  0  0  0  0
   -1.0730    0.1250    0.4920 C   0  0  0  0  0  0  0  0  0  0  0  0
   -1.2080    0.3800    1.7260 O   0  0  0  0  0  0  0  0  0  0  0  0
   -2.1050   -0.4610   -0.1750 O   0  0  0  0  0  0  0  0  0  0  0  0
   -3.3580   -0.8540    0.2690 C   0  0  0  0  0  0  0  0  0  0  0  0
   -4.4420    0.0890    0.2990 C   0  0  0  0  0  0  0  0  0  0  0  0
   -5.5080   -0.1740    0.9280 O   0  0  0  0  0  0  0  0  0  0  0  0
   -4.3260    1.3200   -0.3930 O   0  0  0  0  0  0  0  0  0  0  0  0
   -5.4900    2.1630   -0.3410 C   0  0  0  0  0  0  0  0  0  0  0  0
    1.1250    0.9580    0.7720 O   0  0  0  0  0  0  0  0  0  0  0  0
  1  2  1  0
  2  3  1  0
  3  4  1  0
  4  5  1  0
  5  6  1  0
  5 20  1  0
  6  7  1  0
  7  8  1  6
  7 10  1  0
  8  9  1  0
 10 11  1  0
 11 12  1  1
 11 20  1  0
 12 13  2  0
 12 14  1  0
 14 15  1  0
 15 16  1  0
 16 17  2  0
 16 18  1  0
 18 19  1  0
M  END
