
     RDKit          3D

 20 20  0  0  0  0  0  0  0  0999 V2000
   -3.8350   -1.8580   -1.6080 O   0  0  0  0  0  0  0  0  0  0  0  0
   -3.0630   -1.2250   -0.8260 C   0  0  0  0  0  0  0  0  0  0  0  0
   -2.7270   -1.8130    0.3780 O   0  0  0  0  0  0  0  0  0  0  0  0
   -2.5630    0.0730   -1.2100 C   0  0  0  0  0  0  0  0  0  0  0  0
   -1.7660    0.8570   -0.5430 C   0  0  0  0  0  0  0  0  0  0  0  0
   -1.3000    2.2070   -1.0370 C   0  0  0  0  0  0  0  0  0  0  0  0
   -1.1550    2.8980    0.2370 N   0  0  0  0  0  0  0  0  0  0  0  0
   -0.7720    1.9390    1.1870 C   0  0  0  0  0  0  0  0  0  0  0  0
   -1.1220    0.7210    0.7500 C   0  0  0  0  0  0  0  0  0  0  0  0
   -0.8930   -0.4480    1.4330 O   0  0  0  0  0  0  0  0  0  0  0  0
    0.3420   -0.8850    1.6660 O   0  0  0  0  0  0  0  0  0  0  0  0
    0.8960   -1.5160    0.5290 C   0  0  1  0  0  0  0  0  0  0  0  0
    2.1460   -0.7490    0.1400 C   0  0  0  0  0  0  0  0  0  0  0  0
    1.8580    0.5920   -0.1660 O   0  0  0  0  0  0  0  0  0  0  0  0
    2.8370    1.4950   -0.5490 C   0  0  0  0  0  0  0  0  0  0  0  0
    4.0200    1.0430   -0.6090 O   0  0  0  0  0  0  0  0  0  0  0  0
    2.5660    2.8200   -0.8530 O   0  0  0  0  0  0  0  0  0  0  0  0
    1.2300   -2.9120    0.9090 C   0  0  0  0  0  0  0  0  0  0  0  0
    1.0260   -3.3800    2.0630 O   0  0  0  0  0  0  0  0  0  0  0  0
    1.7940   -3.7530   -0.0400 O   0  0  0  0  0  0  0  0  0  0  0  0
  1  2  2  0
  2  3  1  0
  2  4  1  0
  4  5  2  3
  5  6  1  0
  5  9  1  0
  6  7  1  0
  7  8  1  0
  8  9  2  0
  9 10  1  0
 10 11  1  0
 11 12  1  0
 12 13  1  1
 12 18  1  0
 13 14  1  0
 14 15  1  0
 15 16  2  0
 15 17  1  0
 18 19  2  0
 18 20  1  0
M  END
