
     RDKit          3D

 20 19  0  0  0  0  0  0  0  0999 V2000
   -3.4410   -2.3830   -0.5070 O   0  0  0  0  0  0  0  0  0  0  0  0
   -2.7520   -2.3830    0.5430 C   0  0  0  0  0  0  0  0  0  0  0  0
   -2.4760   -3.6320    1.1060 O   0  0  0  0  0  0  0  0  0  0  0  0
   -2.2330   -1.1750    1.1960 C   0  0  0  0  0  0  0  0  0  0  0  0
   -2.6280    0.0570    0.4530 C   0  0  2  0  0  0  0  0  0  0  0  0
   -2.0880    1.3030    1.1350 C   0  0  0  0  0  0  0  0  0  0  0  0
   -0.5990    1.3050    1.2250 C   0  0  0  0  0  0  0  0  0  0  0  0
    0.0270    1.2490   -0.0360 O   0  0  0  0  0  0  0  0  0  0  0  0
    1.4230    1.2430   -0.1130 C   0  0  0  0  0  0  0  0  0  0  0  0
    2.0470    1.2910    0.9840 O   0  0  0  0  0  0  0  0  0  0  0  0
    2.1070    1.1900   -1.2960 O   0  0  0  0  0  0  0  0  0  0  0  0
    3.5110    1.1850   -1.3440 C   0  0  0  0  0  0  0  0  0  0  0  0
    4.1340    0.0020   -0.6270 C   0  0  0  0  0  0  0  0  0  0  0  0
    5.9820    0.0870   -0.7490 P   0  0  0  0  0  0  0  0  0  0  0  0
    6.5910   -1.3020   -1.5920 O   0  0  0  0  0  0  0  0  0  0  0  0
    6.6640    0.2130    0.8320 O   0  0  0  0  0  0  0  0  0  0  0  0
   -4.0660    0.2250    0.3980 N   0  0  0  0  0  0  0  0  0  0  0  0
   -4.7320    0.3560   -0.8430 C   0  0  0  0  0  0  0  0  0  0  0  0
   -4.0280    0.3220   -1.8870 O   0  0  0  0  0  0  0  0  0  0  0  0
   -6.1290    0.5190   -0.9190 O   0  0  0  0  0  0  0  0  0  0  0  0
  1  2  2  0
  2  3  1  0
  2  4  1  0
  5  4  1  1
  5  6  1  0
  5 17  1  0
  6  7  1  0
  7  8  1  0
  8  9  1  0
  9 10  2  0
  9 11  1  0
 11 12  1  0
 12 13  1  0
 13 14  1  0
 14 15  1  0
 14 16  1  0
 17 18  1  0
 18 19  2  0
 18 20  1  0
M  END
