
     RDKit          3D

 28 28  0  0  0  0  0  0  0  0999 V2000
    3.2720   -3.6670   -0.3580 C   0  0  0  0  0  0  0  0  0  0  0  0
    2.4610   -2.4340   -0.2150 C   0  0  0  0  0  0  0  0  0  0  0  0
    1.1360   -2.3440   -0.2030 N   0  0  0  0  0  0  0  0  0  0  0  0
    0.7280   -1.1130   -0.0610 N   0  0  0  0  0  0  0  0  0  0  0  0
   -0.6670   -0.6440   -0.0060 C   0  0  0  0  0  0  0  0  0  0  0  0
   -1.1380   -0.3250   -1.3830 C   0  0  0  0  0  0  0  0  0  0  0  0
   -2.5590    0.1450   -1.3740 C   0  0  0  0  0  0  0  0  0  0  0  0
   -2.7560    1.3790   -0.5610 C   0  0  0  0  0  0  0  0  0  0  0  0
   -4.1210    1.8530   -0.5560 N   0  0  0  0  0  0  0  0  0  0  0  0
   -5.1740    1.0440   -0.0530 C   0  0  0  0  0  0  0  0  0  0  0  0
   -4.9980   -0.1100    0.4120 O   0  0  0  0  0  0  0  0  0  0  0  0
   -6.4980    1.5120   -0.0530 O   0  0  0  0  0  0  0  0  0  0  0  0
   -7.5360    0.6930    0.4510 C   0  0  2  0  0  0  0  0  0  0  0  0
   -7.6640   -0.6100   -0.2960 C   0  0  0  0  0  0  0  0  0  0  0  0
   -8.8410    1.4630    0.2260 C   0  0  0  0  0  0  0  0  0  0  0  0
   -7.3720    0.4310    1.9340 C   0  0  0  0  0  0  0  0  0  0  0  0
    1.8270   -0.3370    0.0260 C   0  0  0  0  0  0  0  0  0  0  0  0
    2.9490   -1.1210   -0.0660 C   0  0  0  0  0  0  0  0  0  0  0  0
    4.3140   -0.7580   -0.0090 N   0  0  0  0  0  0  0  0  0  0  0  0
    4.7130    0.6070    0.0640 C   0  0  2  0  0  0  0  0  0  0  0  0
    4.4550    1.4340   -1.1490 C   0  0  0  0  0  0  0  0  0  0  0  0
    5.1700    0.9010   -2.3760 C   0  0  0  0  0  0  0  0  0  0  0  0
    4.7930   -0.3850   -2.7030 O   0  0  0  0  0  0  0  0  0  0  0  0
    6.2050    0.6820    0.4310 C   0  0  0  0  0  0  0  0  0  0  0  0
    6.3420    0.0650    1.6480 O   0  0  0  0  0  0  0  0  0  0  0  0
    7.9430    0.0370    2.2490 P   0  0  0  0  0  0  0  0  0  0  0  0
    8.5450   -1.5910    2.1570 O   0  0  0  0  0  0  0  0  0  0  0  0
    9.0240    1.0730    1.4160 O   0  0  0  0  0  0  0  0  0  0  0  0
  1  2  1  0
  2  3  2  0
  2 18  1  0
  3  4  1  0
  4  5  1  0
  4 17  1  0
  5  6  1  0
  6  7  1  0
  7  8  1  0
  8  9  1  0
  9 10  1  0
 10 11  2  0
 10 12  1  0
 12 13  1  0
 13 14  1  6
 13 15  1  0
 13 16  1  0
 17 18  2  0
 18 19  1  0
 19 20  1  0
 20 21  1  6
 20 24  1  0
 21 22  1  0
 22 23  1  0
 24 25  1  0
 25 26  1  0
 26 27  1  0
 26 28  1  0
M  END
