
     RDKit          3D

 20 20  0  0  0  0  0  0  0  0999 V2000
    3.7860   -1.5490   -0.0280 O   0  0  0  0  0  0  0  0  0  0  0  0
    4.5140   -0.5430    0.2290 C   0  0  0  0  0  0  0  0  0  0  0  0
    5.1900   -0.5330    1.4550 O   0  0  0  0  0  0  0  0  0  0  0  0
    4.6210    0.4820   -0.6750 O   0  0  0  0  0  0  0  0  0  0  0  0
    3.8930    0.3880   -1.9070 C   0  0  0  0  0  0  0  0  0  0  0  0
    2.4550    0.2920   -1.5100 C   0  0  0  0  0  0  0  0  0  0  0  0
    2.0350    0.9230   -0.4800 N   0  0  0  0  0  0  0  0  0  0  0  0
    0.6710    0.8360   -0.0980 C   0  0  0  0  0  0  0  0  0  0  0  0
    0.0980   -0.3410   -0.1960 C   0  0  0  0  0  0  0  0  0  0  0  0
   -1.2000   -0.7310    0.0980 O   0  0  0  0  0  0  0  0  0  0  0  0
   -2.1280   -0.1600    1.0040 C   0  0  2  0  0  0  0  0  0  0  0  0
   -3.1630    0.6260    0.2600 C   0  0  0  0  0  0  0  0  0  0  0  0
   -3.8550   -0.2070   -0.6370 O   0  0  0  0  0  0  0  0  0  0  0  0
   -4.5920   -1.2880   -0.2400 C   0  0  0  0  0  0  0  0  0  0  0  0
   -4.7040   -1.6110    0.9560 O   0  0  0  0  0  0  0  0  0  0  0  0
   -5.2700   -2.1010   -1.1620 O   0  0  0  0  0  0  0  0  0  0  0  0
   -1.4190    0.7780    1.9470 C   0  0  0  0  0  0  0  0  0  0  0  0
   -1.5510    0.5840    3.1760 O   0  0  0  0  0  0  0  0  0  0  0  0
   -0.6350    1.8370    1.5760 O   0  0  0  0  0  0  0  0  0  0  0  0
    0.0440    2.1070    0.3740 C   0  0  0  0  0  0  0  0  0  0  0  0
  1  2  2  0
  2  3  1  0
  2  4  1  0
  4  5  1  0
  5  6  1  0
  6  7  2  3
  7  8  1  0
  8  9  2  0
  8 20  1  0
  9 10  1  0
 10 11  1  0
 11 12  1  6
 11 17  1  0
 12 13  1  0
 13 14  1  0
 14 15  2  0
 14 16  1  0
 17 18  2  0
 17 19  1  0
 19 20  1  0
M  END
