
     RDKit          3D

 20 20  0  0  0  0  0  0  0  0999 V2000
    5.0170   -0.6910    1.1490 N   0  0  0  0  0  0  0  0  0  0  0  0
    4.4640   -0.3470   -0.1100 C   0  0  0  0  0  0  0  0  0  0  0  0
    4.9270    0.6070   -0.7700 O   0  0  0  0  0  0  0  0  0  0  0  0
    3.4030   -1.0830   -0.5980 O   0  0  0  0  0  0  0  0  0  0  0  0
    2.8930   -0.7310   -1.8040 O   0  0  0  0  0  0  0  0  0  0  0  0
    1.2600   -0.2330   -1.5230 P   0  0  0  0  0  0  0  0  0  0  0  0
    1.2940    1.3230   -0.5340 C   0  0  0  0  0  0  0  0  0  0  0  0
   -0.0430    2.0530   -0.5620 C   0  0  0  0  0  0  0  0  0  0  0  0
   -0.4000    2.4730    0.7360 O   0  0  0  0  0  0  0  0  0  0  0  0
   -1.4880    2.0200    1.4440 C   0  0  0  0  0  0  0  0  0  0  0  0
   -1.4040    1.5800    2.6420 O   0  0  0  0  0  0  0  0  0  0  0  0
   -2.8340    2.0240    0.8330 C   0  0  0  0  0  0  0  0  0  0  0  0
   -2.9710    1.1490   -0.2470 O   0  0  0  0  0  0  0  0  0  0  0  0
   -2.9600   -0.2340   -0.1640 C   0  0  0  0  0  0  0  0  0  0  0  0
   -3.7590   -0.9140   -0.8550 O   0  0  0  0  0  0  0  0  0  0  0  0
   -2.0230   -0.9330    0.7250 C   0  0  0  0  0  0  0  0  0  0  0  0
   -1.8480   -2.3850    0.3760 C   0  0  0  0  0  0  0  0  0  0  0  0
   -1.6210   -2.6150   -0.9580 O   0  0  0  0  0  0  0  0  0  0  0  0
   -0.6160   -1.8960   -1.5230 C   0  0  0  0  0  0  0  0  0  0  0  0
    0.3970   -1.5090   -0.6850 O   0  0  0  0  0  0  0  0  0  0  0  0
  1  2  1  0
  2  3  2  0
  2  4  1  0
  4  5  1  0
  5  6  1  0
  6  7  1  0
  6 20  1  0
  7  8  1  0
  8  9  1  0
  9 10  1  0
 10 11  2  0
 10 12  1  0
 12 13  1  0
 13 14  1  0
 14 15  2  0
 14 16  1  0
 16 17  1  0
 17 18  1  0
 18 19  1  0
 19 20  1  0
M  END
