
     RDKit          3D

 14 13  0  0  0  0  0  0  0  0999 V2000
   -2.2610    0.8050    1.6400 O   0  0  0  0  0  0  0  0  0  0  0  0
   -2.3050    0.3020    0.5270 C   0  0  0  0  0  0  0  0  0  0  0  0
   -3.2730    0.8440   -0.3790 N   0  0  0  0  0  0  0  0  0  0  0  0
   -4.1020    1.8890   -0.0910 O   0  0  0  0  0  0  0  0  0  0  0  0
   -1.5160   -0.7710   -0.0100 C   0  0  2  0  0  0  0  0  0  0  0  0
   -2.3670   -1.8660   -0.2730 O   0  0  0  0  0  0  0  0  0  0  0  0
   -0.3300   -1.2400    0.6810 C   0  0  2  0  0  0  0  0  0  0  0  0
   -0.5650   -2.0870    1.7210 O   0  0  0  0  0  0  0  0  0  0  0  0
    0.6450   -0.1200    1.1800 C   0  0  0  0  0  0  0  0  0  0  0  0
    1.0040    0.6050    0.0720 O   0  0  0  0  0  0  0  0  0  0  0  0
    2.5700    0.7460   -0.2680 P   0  0  0  0  0  0  0  0  0  0  0  0
    2.5490    1.9240   -1.1570 O   0  0  0  0  0  0  0  0  0  0  0  0
    3.0130   -0.2610   -1.6230 O   0  0  0  0  0  0  0  0  0  0  0  0
    3.7530    1.3710    0.6530 O   0  0  0  0  0  0  0  0  0  0  0  0
  1  2  2  0
  2  3  1  0
  2  5  1  0
  3  4  1  0
  5  6  1  1
  5  7  1  0
  7  8  1  1
  7  9  1  0
  9 10  1  0
 10 11  1  0
 11 12  1  0
 11 13  1  0
 11 14  1  0
M  END
