
     RDKit          3D

 33 36  0  0  0  0  0  0  0  0999 V2000
   -7.9150   -3.0260   -0.1400 C   0  0  0  0  0  0  0  0  0  0  0  0
   -7.8340   -1.9200    0.5830 C   0  0  0  0  0  0  0  0  0  0  0  0
   -6.5810   -1.2340    0.9750 C   0  0  0  0  0  0  0  0  0  0  0  0
   -5.4120   -1.8950    0.3530 C   0  0  1  0  0  0  0  0  0  0  0  0
   -5.4620   -1.8630   -1.1460 C   0  0  0  0  0  0  0  0  0  0  0  0
   -4.1350   -1.4830    0.8830 N   0  0  0  0  0  0  0  0  0  0  0  0
   -3.9180   -0.0730    0.8950 C   0  0  0  0  0  0  0  0  0  0  0  0
   -2.6760    0.3090    0.1520 C   0  0  0  0  0  0  0  0  0  0  0  0
   -1.7980   -0.4550   -0.4680 N   0  0  0  0  0  0  0  0  0  0  0  0
   -0.7990    0.3170   -1.0230 C   0  0  0  0  0  0  0  0  0  0  0  0
    0.4630   -0.4170   -1.9740 S   0  0  0  0  0  0  0  0  0  0  0  0
    1.7930    0.5720   -2.5300 C   0  0  0  0  0  0  0  0  0  0  0  0
    2.8290    0.8370   -1.4680 C   0  0  0  0  0  0  0  0  0  0  0  0
    3.3930   -0.4930   -1.0550 C   0  0  0  0  0  0  0  0  0  0  0  0
    3.0150   -1.6570   -1.4360 N   0  0  0  0  0  0  0  0  0  0  0  0
    3.8110   -2.6610   -0.8050 C   0  0  0  0  0  0  0  0  0  0  0  0
    3.7020   -3.9600   -0.9610 C   0  0  0  0  0  0  0  0  0  0  0  0
    2.4870   -4.6020   -2.0290 Cl  0  0  0  0  0  0  0  0  0  0  0  0
    4.7580   -1.9380    0.0400 C   0  0  0  0  0  0  0  0  0  0  0  0
    5.7850   -2.3270    0.8840 C   0  0  0  0  0  0  0  0  0  0  0  0
    6.5260   -1.3580    1.5510 C   0  0  0  0  0  0  0  0  0  0  0  0
    7.4680   -1.6790    2.3260 O   0  0  0  0  0  0  0  0  0  0  0  0
    6.2900   -0.0450    1.4140 N   0  0  0  0  0  0  0  0  0  0  0  0
    7.0910    0.9440    2.1150 C   0  0  0  0  0  0  0  0  0  0  0  0
    8.2600    1.2780    1.1740 C   0  0  0  0  0  0  0  0  0  0  0  0
    5.2860    0.3280    0.5900 C   0  0  0  0  0  0  0  0  0  0  0  0
    4.5150   -0.5980   -0.1000 C   0  0  0  0  0  0  0  0  0  0  0  0
   -1.0710    1.6140   -0.7340 N   0  0  0  0  0  0  0  0  0  0  0  0
   -2.2060    1.6170   -0.0210 C   0  0  0  0  0  0  0  0  0  0  0  0
   -2.7860    2.8830    0.4510 C   0  0  0  0  0  0  0  0  0  0  0  0
   -1.7210    3.8850    0.7130 C   0  0  0  0  0  0  0  0  0  0  0  0
   -0.7880    4.0690   -0.4400 C   0  0  0  0  0  0  0  0  0  0  0  0
   -0.3700    2.8230   -1.1130 C   0  0  0  0  0  0  0  0  0  0  0  0
  1  2  2  0
  2  3  1  0
  3  4  1  0
  4  5  1  6
  4  6  1  0
  6  7  1  0
  7  8  1  0
  8  9  1  0
  8 29  2  0
  9 10  2  0
 10 11  1  0
 10 28  1  0
 11 12  1  0
 12 13  1  0
 13 14  1  0
 14 15  2  0
 14 27  1  0
 15 16  1  0
 16 17  2  3
 16 19  1  0
 17 18  1  0
 19 20  2  0
 19 27  1  0
 20 21  1  0
 21 22  2  0
 21 23  1  0
 23 24  1  0
 23 26  1  0
 24 25  1  0
 26 27  2  0
 28 29  1  0
 28 33  1  0
 29 30  1  0
 30 31  1  0
 31 32  1  0
 32 33  1  0
M  CHG  1   6   1
M  END
