
     RDKit          3D

 34 37  0  0  0  0  0  0  0  0999 V2000
   -3.5920   -4.1490    0.4650 C   0  0  0  0  0  0  0  0  0  0  0  0
   -4.4990   -3.2490   -0.1890 N   0  0  0  0  0  0  0  0  0  0  0  0
   -3.9240   -2.5240   -1.2770 C   0  0  1  0  0  0  0  0  0  0  0  0
   -3.5030   -3.5340   -2.3440 C   0  0  0  0  0  0  0  0  0  0  0  0
   -5.1670   -1.4680   -1.9880 Cl  0  0  0  0  0  0  0  0  0  0  0  0
   -2.7230   -1.7070   -0.9470 C   0  0  0  0  0  0  0  0  0  0  0  0
   -3.0110   -0.6510    0.1080 C   0  0  0  0  0  0  0  0  0  0  0  0
   -1.8090    0.1200    0.3930 N   0  0  0  0  0  0  0  0  0  0  0  0
   -1.4010    1.2520   -0.1980 C   0  0  0  0  0  0  0  0  0  0  0  0
   -2.0740    2.0420   -1.2590 C   0  0  0  0  0  0  0  0  0  0  0  0
   -2.6820    3.2980   -0.7850 C   0  0  0  0  0  0  0  0  0  0  0  0
   -2.3470    4.5000   -1.2400 C   0  0  0  0  0  0  0  0  0  0  0  0
   -3.1340    5.5490   -0.5670 C   0  0  1  0  0  0  0  0  0  0  0  0
   -3.9230    6.2780   -1.6330 C   0  0  0  0  0  0  0  0  0  0  0  0
   -3.9550    4.7990    0.3230 N   0  0  0  0  0  0  0  0  0  0  0  0
   -3.7110    3.5140    0.2130 C   0  0  0  0  0  0  0  0  0  0  0  0
   -4.4170    2.5100    1.0180 C   0  0  0  0  0  0  0  0  0  0  0  0
   -0.2210    1.5630    0.3940 N   0  0  0  0  0  0  0  0  0  0  0  0
    0.0920    0.6670    1.3120 N   0  0  0  0  0  0  0  0  0  0  0  0
    1.2810    0.6970    2.1270 C   0  0  0  0  0  0  0  0  0  0  0  0
    2.4060   -0.0600    1.4390 C   0  0  0  0  0  0  0  0  0  0  0  0
    3.2890    0.0390    0.6980 N   0  0  0  0  0  0  0  0  0  0  0  0
    4.1390   -0.8470    0.2730 C   0  0  0  0  0  0  0  0  0  0  0  0
    5.2600   -0.5660   -0.7110 C   0  0  0  0  0  0  0  0  0  0  0  0
    6.5550   -0.4890    0.0390 C   0  0  0  0  0  0  0  0  0  0  0  0
    7.5950   -1.2720   -0.1560 C   0  0  0  0  0  0  0  0  0  0  0  0
    8.6590   -0.8690    0.7810 C   0  0  0  0  0  0  0  0  0  0  0  0
    8.0770    0.2540    1.5360 C   0  0  0  0  0  0  0  0  0  0  0  0
    6.8560    0.4620    1.0940 C   0  0  0  0  0  0  0  0  0  0  0  0
    3.9820   -2.1220    0.7720 C   0  0  0  0  0  0  0  0  0  0  0  0
    4.7010   -3.3780    0.5590 C   0  0  0  0  0  0  0  0  0  0  0  0
    2.5610   -1.9030    1.8530 S   0  0  0  0  0  0  0  0  0  0  0  0
   -0.8880   -0.2380    1.3220 C   0  0  0  0  0  0  0  0  0  0  0  0
   -0.9000   -1.2340    2.0880 O   0  0  0  0  0  0  0  0  0  0  0  0
  1  2  1  0
  2  3  1  0
  3  4  1  6
  3  5  1  0
  3  6  1  0
  6  7  1  0
  7  8  1  0
  8  9  1  0
  8 33  1  0
  9 10  1  0
  9 18  2  0
 10 11  1  0
 11 12  2  0
 11 16  1  0
 12 13  1  0
 13 14  1  6
 13 15  1  0
 15 16  2  0
 16 17  1  0
 18 19  1  0
 19 20  1  0
 19 33  1  0
 20 21  1  0
 21 22  2  0
 21 32  1  0
 22 23  1  0
 23 24  1  0
 23 30  2  0
 24 25  1  0
 25 26  2  0
 25 29  1  0
 26 27  1  0
 27 28  1  0
 28 29  2  0
 30 31  1  0
 30 32  1  0
 33 34  2  0
M  CHG  1   2   1
M  END
