
     RDKit          3D

 35 38  0  0  0  0  0  0  0  0999 V2000
    9.0160    1.3770    0.5460 C   0  0  0  0  0  0  0  0  0  0  0  0
    8.8650    0.0460   -0.0800 C   0  0  0  0  0  0  0  0  0  0  0  0
    9.8260   -0.6100   -0.7610 N   0  0  0  0  0  0  0  0  0  0  0  0
    9.3520   -1.7940   -1.1920 C   0  0  0  0  0  0  0  0  0  0  0  0
    8.0640   -1.8750   -0.7670 C   0  0  0  0  0  0  0  0  0  0  0  0
    7.7340   -0.7300   -0.0670 C   0  0  0  0  0  0  0  0  0  0  0  0
    6.1500   -0.4150    0.6720 S   0  0  0  0  0  0  0  0  0  0  0  0
    5.0950    0.3960   -0.5700 C   0  0  2  0  0  0  0  0  0  0  0  0
    5.6310    1.7590   -0.8890 C   0  0  0  0  0  0  0  0  0  0  0  0
    3.6880    0.4530   -0.1250 C   0  0  0  0  0  0  0  0  0  0  0  0
    2.7650   -0.4410   -0.6490 C   0  0  0  0  0  0  0  0  0  0  0  0
    1.4260   -0.4060   -0.2490 C   0  0  0  0  0  0  0  0  0  0  0  0
    0.9690    0.4970    0.6660 C   0  0  0  0  0  0  0  0  0  0  0  0
   -0.4290    0.5620    1.0680 C   0  0  0  0  0  0  0  0  0  0  0  0
   -0.8080    1.5460    1.7640 O   0  0  0  0  0  0  0  0  0  0  0  0
   -1.3570   -0.4660    0.6850 C   0  0  0  0  0  0  0  0  0  0  0  0
   -0.9920   -1.7990    0.8640 C   0  0  0  0  0  0  0  0  0  0  0  0
   -1.8800   -2.7720    0.5330 C   0  0  0  0  0  0  0  0  0  0  0  0
   -3.1360   -2.4500    0.0230 C   0  0  0  0  0  0  0  0  0  0  0  0
   -4.0830   -3.5240   -0.3130 C   0  0  0  0  0  0  0  0  0  0  0  0
   -5.1580   -3.7390    0.7300 C   0  0  0  0  0  0  0  0  0  0  0  0
   -6.0220   -4.7650    0.3540 O   0  0  0  0  0  0  0  0  0  0  0  0
   -3.4840   -1.1370   -0.1490 C   0  0  0  0  0  0  0  0  0  0  0  0
   -2.6010   -0.1300    0.1800 C   0  0  0  0  0  0  0  0  0  0  0  0
   -3.2150    1.1950   -0.0910 C   0  0  0  0  0  0  0  0  0  0  0  0
   -4.6820    0.8350    0.0620 C   0  0  1  0  0  0  0  0  0  0  0  0
   -4.9620    0.6410    1.5220 C   0  0  0  0  0  0  0  0  0  0  0  0
   -5.5920    1.8450   -0.5820 C   0  0  2  0  0  0  0  0  0  0  0  0
   -5.3890    3.1940    0.0490 C   0  0  0  0  0  0  0  0  0  0  0  0
   -7.0190    1.4140   -0.3190 C   0  0  0  0  0  0  0  0  0  0  0  0
   -5.3680    1.8660   -1.9560 O   0  0  0  0  0  0  0  0  0  0  0  0
   -4.7040   -0.4930   -0.6780 C   0  0  0  0  0  0  0  0  0  0  0  0
    1.8990    1.4020    1.1960 C   0  0  0  0  0  0  0  0  0  0  0  0
    1.4150    2.3110    2.1220 O   0  0  0  0  0  0  0  0  0  0  0  0
    3.2110    1.3520    0.7900 C   0  0  0  0  0  0  0  0  0  0  0  0
  1  2  1  0
  2  3  1  0
  2  6  2  0
  3  4  1  0
  4  5  2  0
  5  6  1  0
  6  7  1  0
  7  8  1  0
  8  9  1  1
  8 10  1  0
 10 11  2  0
 10 35  1  0
 11 12  1  0
 12 13  2  0
 13 14  1  0
 13 33  1  0
 14 15  2  0
 14 16  1  0
 16 17  2  0
 16 24  1  0
 17 18  1  0
 18 19  2  0
 19 20  1  0
 19 23  1  0
 20 21  1  0
 21 22  1  0
 23 24  2  0
 23 32  1  0
 24 25  1  0
 25 26  1  0
 26 27  1  1
 26 28  1  0
 26 32  1  0
 28 29  1  1
 28 30  1  0
 28 31  1  0
 33 34  1  0
 33 35  2  0
M  END
