
     RDKit          3D

 35 38  0  0  0  0  0  0  0  0999 V2000
   -3.2850   -0.1760    5.7090 C   0  0  0  0  0  0  0  0  0  0  0  0
   -3.7260   -0.2220    4.2230 C   0  0  0  0  0  0  0  0  0  0  0  0
   -2.6500    0.7730    3.2220 S   0  0  0  0  0  0  0  0  0  0  0  0
   -3.0200    0.8300    1.4970 C   0  0  0  0  0  0  0  0  0  0  0  0
   -4.2300    1.0960    0.9730 C   0  0  0  0  0  0  0  0  0  0  0  0
   -5.4360    1.3880    1.7280 C   0  0  0  0  0  0  0  0  0  0  0  0
   -6.6310    1.5910    1.2960 C   0  0  0  0  0  0  0  0  0  0  0  0
   -7.6080    1.8710    2.3300 O   0  0  0  0  0  0  0  0  0  0  0  0
   -7.1830    1.5780   -0.0570 C   0  0  0  0  0  0  0  0  0  0  0  0
   -8.4870    0.7190   -0.0710 C   0  0  0  0  0  0  0  0  0  0  0  0
   -4.1000    1.1920   -0.4860 C   0  0  0  0  0  0  0  0  0  0  0  0
   -2.6040    1.6820   -0.6120 C   0  0  0  0  0  0  0  0  0  0  0  0
   -2.0190    0.7650    0.3940 C   0  0  0  0  0  0  0  0  0  0  0  0
   -0.9470   -0.0150    0.3460 C   0  0  0  0  0  0  0  0  0  0  0  0
   -0.6050   -0.9630    1.3920 C   0  0  0  0  0  0  0  0  0  0  0  0
   -1.3710   -1.2200    2.3480 O   0  0  0  0  0  0  0  0  0  0  0  0
    0.6710   -1.6660    1.3520 C   0  0  0  0  0  0  0  0  0  0  0  0
    0.9990   -2.6420    2.4380 C   0  0  0  0  0  0  0  0  0  0  0  0
    1.4790   -1.4190    0.3620 C   0  0  0  0  0  0  0  0  0  0  0  0
    1.2250   -0.4970   -0.7110 C   0  0  0  0  0  0  0  0  0  0  0  0
    2.2140   -0.0580   -1.6730 C   0  0  0  0  0  0  0  0  0  0  0  0
    1.7000    0.5630   -2.7330 O   0  0  0  0  0  0  0  0  0  0  0  0
    3.6470   -0.1240   -1.7750 C   0  0  0  0  0  0  0  0  0  0  0  0
    4.1870    0.0590   -3.0830 C   0  0  0  0  0  0  0  0  0  0  0  0
    5.4970   -0.1340   -3.4080 C   0  0  0  0  0  0  0  0  0  0  0  0
    6.3430   -0.5270   -2.4100 C   0  0  0  0  0  0  0  0  0  0  0  0
    5.8820   -0.7140   -1.1430 C   0  0  0  0  0  0  0  0  0  0  0  0
    6.8130   -1.1390   -0.0530 C   0  0  0  0  0  0  0  0  0  0  0  0
    4.5100   -0.5090   -0.8070 C   0  0  0  0  0  0  0  0  0  0  0  0
    4.2040   -0.6970    0.4560 O   0  0  0  0  0  0  0  0  0  0  0  0
    7.7140   -0.6560   -2.9750 C   0  0  0  0  0  0  0  0  0  0  0  0
    7.4380   -0.9090   -4.4360 C   0  0  0  0  0  0  0  0  0  0  0  0
    6.2640   -0.0100   -4.6980 C   0  0  0  0  0  0  0  0  0  0  0  0
    0.0410    0.1940   -0.7350 C   0  0  0  0  0  0  0  0  0  0  0  0
   -0.1890    1.0990   -1.7960 N   0  0  0  0  0  0  0  0  0  0  0  0
  1  2  1  0
  2  3  1  0
  3  4  1  0
  4  5  2  0
  4 13  1  0
  5  6  1  0
  5 11  1  0
  6  7  2  3
  7  8  1  0
  7  9  1  0
  9 10  1  0
 11 12  1  0
 12 13  1  0
 13 14  2  3
 14 15  1  0
 14 34  1  0
 15 16  2  0
 15 17  1  0
 17 18  1  0
 17 19  2  0
 19 20  1  0
 20 21  1  0
 20 34  2  0
 21 22  2  0
 21 23  1  0
 23 24  2  0
 23 29  1  0
 24 25  1  0
 25 26  2  0
 25 33  1  0
 26 27  1  0
 26 31  1  0
 27 28  1  0
 27 29  2  0
 29 30  1  0
 31 32  1  0
 32 33  1  0
 34 35  1  0
M  END
