
     RDKit          3D

 35 38  0  0  0  0  0  0  0  0999 V2000
    7.3910   -4.5490    0.9650 C   0  0  0  0  0  0  0  0  0  0  0  0
    5.6030   -4.3480    1.1940 S   0  0  0  0  0  0  0  0  0  0  0  0
    5.0560   -2.9640    0.1690 C   0  0  0  0  0  0  0  0  0  0  0  0
    5.9390   -2.2600   -0.6080 C   0  0  0  0  0  0  0  0  0  0  0  0
    5.5500   -1.2080   -1.3920 C   0  0  0  0  0  0  0  0  0  0  0  0
    4.1910   -0.8590   -1.3810 C   0  0  0  0  0  0  0  0  0  0  0  0
    3.2610   -1.5170   -0.6300 C   0  0  0  0  0  0  0  0  0  0  0  0
    1.8860   -1.1910   -0.5720 N   0  0  0  0  0  0  0  0  0  0  0  0
    1.2580   -0.0200   -1.0490 C   0  0  0  0  0  0  0  0  0  0  0  0
    1.9690    0.8550   -1.5850 O   0  0  0  0  0  0  0  0  0  0  0  0
   -0.2230    0.1700   -0.9170 C   0  0  2  0  0  0  0  0  0  0  0  0
   -0.5780    1.5570   -1.3400 C   0  0  0  0  0  0  0  0  0  0  0  0
    0.0390    2.6600   -0.5390 C   0  0  0  0  0  0  0  0  0  0  0  0
   -0.4210    4.0150   -1.0890 C   0  0  2  0  0  0  0  0  0  0  0  0
   -0.0360    4.1420   -2.4000 O   0  0  0  0  0  0  0  0  0  0  0  0
    0.1010    5.1090   -0.2320 C   0  0  0  0  0  0  0  0  0  0  0  0
    0.9000    6.0660   -0.6750 C   0  0  0  0  0  0  0  0  0  0  0  0
    1.1920    6.9560    0.4820 C   0  0  0  0  0  0  0  0  0  0  0  0
    0.4620    6.3840    1.6250 C   0  0  0  0  0  0  0  0  0  0  0  0
   -0.1700    5.3000    1.1740 C   0  0  0  0  0  0  0  0  0  0  0  0
   -0.6440   -0.0300    0.5230 C   0  0  0  0  0  0  0  0  0  0  0  0
   -2.1300    0.0540    0.6280 C   0  0  0  0  0  0  0  0  0  0  0  0
   -2.8410   -1.0310   -0.1430 C   0  0  2  0  0  0  0  0  0  0  0  0
   -3.8610   -0.3940   -1.0900 C   0  0  0  0  0  0  0  0  0  0  0  0
   -3.5880   -1.9520    0.7460 C   0  0  0  0  0  0  0  0  0  0  0  0
   -3.3510   -3.3060    0.8280 C   0  0  0  0  0  0  0  0  0  0  0  0
   -4.0410   -4.1570    1.6490 C   0  0  0  0  0  0  0  0  0  0  0  0
   -3.7370   -5.5320    1.6740 O   0  0  0  0  0  0  0  0  0  0  0  0
   -5.0400   -3.6540    2.4520 C   0  0  0  0  0  0  0  0  0  0  0  0
   -5.3080   -2.3080    2.4010 C   0  0  0  0  0  0  0  0  0  0  0  0
   -4.5910   -1.4660    1.5570 C   0  0  0  0  0  0  0  0  0  0  0  0
   -4.8820   -0.1180    1.5260 O   0  0  0  0  0  0  0  0  0  0  0  0
   -1.8320   -1.7600   -0.9660 C   0  0  0  0  0  0  0  0  0  0  0  0
   -0.9970   -0.8020   -1.7610 C   0  0  0  0  0  0  0  0  0  0  0  0
    3.7470   -2.5770    0.1390 C   0  0  0  0  0  0  0  0  0  0  0  0
  1  2  1  0
  2  3  1  0
  3  4  2  0
  3 35  1  0
  4  5  1  0
  5  6  2  0
  6  7  1  0
  7  8  1  0
  7 35  2  0
  8  9  1  0
  9 10  2  0
  9 11  1  0
 11 12  1  6
 11 21  1  0
 11 34  1  0
 12 13  1  0
 13 14  1  0
 14 15  1  6
 14 16  1  0
 16 17  2  0
 16 20  1  0
 17 18  1  0
 18 19  1  0
 19 20  2  0
 21 22  1  0
 22 23  1  0
 23 24  1  6
 23 25  1  0
 23 33  1  0
 25 26  2  0
 25 31  1  0
 26 27  1  0
 27 28  1  0
 27 29  2  0
 29 30  1  0
 30 31  2  0
 31 32  1  0
 33 34  1  0
M  END
