
     RDKit          3D

 34 38  0  0  0  0  0  0  0  0999 V2000
   -4.4930   -2.5330    1.7050 C   0  0  0  0  0  0  0  0  0  0  0  0
   -5.3270   -2.6120    0.4330 C   0  0  0  0  0  0  0  0  0  0  0  0
   -5.0330   -1.4200   -0.3320 N   0  0  0  0  0  0  0  0  0  0  0  0
   -3.7250   -1.2740   -0.8940 C   0  0  0  0  0  0  0  0  0  0  0  0
   -3.3940    0.0590   -1.4730 C   0  0  0  0  0  0  0  0  0  0  0  0
   -3.3200    1.1690   -0.4850 C   0  0  0  0  0  0  0  0  0  0  0  0
   -2.2380    0.9650    0.5660 C   0  0  0  0  0  0  0  0  0  0  0  0
   -0.9070    0.9000   -0.0320 N   0  0  1  0  0  0  0  0  0  0  0  0
   -0.4090    2.2070   -0.3060 C   0  0  0  0  0  0  0  0  0  0  0  0
    0.7410    2.4500    0.6180 C   0  0  0  0  0  0  0  0  0  0  0  0
    0.7800    1.2350    1.5330 C   0  0  2  0  0  0  0  0  0  0  0  0
    2.2260    0.9100    1.6850 C   0  0  0  0  0  0  0  0  0  0  0  0
    2.6960    0.9670    2.8360 O   0  0  0  0  0  0  0  0  0  0  0  0
    3.0480    0.5570    0.6030 N   0  0  0  0  0  0  0  0  0  0  0  0
    4.4290    0.2560    0.6340 C   0  0  0  0  0  0  0  0  0  0  0  0
    5.2330    0.4090    1.7150 C   0  0  0  0  0  0  0  0  0  0  0  0
    6.5840    0.1000    1.5960 C   0  0  0  0  0  0  0  0  0  0  0  0
    7.1390   -0.3560    0.4190 C   0  0  0  0  0  0  0  0  0  0  0  0
    6.2980   -0.5020   -0.6620 C   0  0  0  0  0  0  0  0  0  0  0  0
    4.9770   -0.2070   -0.5650 C   0  0  0  0  0  0  0  0  0  0  0  0
    7.1370   -0.9580   -1.6750 C   0  0  0  0  0  0  0  0  0  0  0  0
    8.4470   -1.0720   -1.1830 C   0  0  0  0  0  0  0  0  0  0  0  0
    8.4210   -0.7100    0.0580 N   0  0  0  0  0  0  0  0  0  0  0  0
    9.6850   -0.7360    0.7930 C   0  0  0  0  0  0  0  0  0  0  0  0
   10.8600   -0.8220   -0.5920 S   0  0  0  0  0  0  0  0  0  0  0  0
    9.6810   -1.4690   -1.7440 N   0  0  0  0  0  0  0  0  0  0  0  0
   -0.0340    0.1990    0.8570 C   0  0  0  0  0  0  0  0  0  0  0  0
   -6.1300   -0.5030   -0.5420 C   0  0  0  0  0  0  0  0  0  0  0  0
   -6.6970   -0.4450   -1.8210 C   0  0  0  0  0  0  0  0  0  0  0  0
   -7.7530    0.3790   -2.1060 C   0  0  0  0  0  0  0  0  0  0  0  0
   -8.2250    1.1480   -1.0660 C   0  0  0  0  0  0  0  0  0  0  0  0
   -9.5650    2.2230   -1.3620 Cl  0  0  0  0  0  0  0  0  0  0  0  0
   -7.6780    1.1010    0.1950 C   0  0  0  0  0  0  0  0  0  0  0  0
   -6.6470    0.2730    0.4060 N   0  0  0  0  0  0  0  0  0  0  0  0
  1  2  1  0
  2  3  1  0
  3  4  1  0
  3 28  1  0
  4  5  1  0
  5  6  1  0
  6  7  1  0
  8  7  1  1
  8  9  1  0
  8 27  1  0
  9 10  1  0
 10 11  1  0
 11 12  1  6
 11 27  1  0
 12 13  2  0
 12 14  1  0
 14 15  1  0
 15 16  2  0
 15 20  1  0
 16 17  1  0
 17 18  2  0
 18 19  1  0
 18 23  1  0
 19 20  2  0
 19 21  1  0
 21 22  2  0
 22 23  1  0
 22 26  1  0
 23 24  1  0
 24 25  1  0
 25 26  1  0
 28 29  2  0
 28 34  1  0
 29 30  1  0
 30 31  2  0
 31 32  1  0
 31 33  1  0
 33 34  2  0
M  CHG  1   8   1
M  END
