
     RDKit          3D

 35 38  0  0  0  0  0  0  0  0999 V2000
   -2.6030   -2.4520   -0.4210 C   0  0  0  0  0  0  0  0  0  0  0  0
   -3.8360   -1.6170   -0.5290 C   0  0  0  0  0  0  0  0  0  0  0  0
   -5.0470   -2.0750   -0.0350 C   0  0  0  0  0  0  0  0  0  0  0  0
   -6.1620   -1.2800   -0.1670 C   0  0  0  0  0  0  0  0  0  0  0  0
   -7.4390   -1.8140    0.3780 C   0  0  0  0  0  0  0  0  0  0  0  0
   -6.1180   -0.0600   -0.7650 C   0  0  0  0  0  0  0  0  0  0  0  0
   -7.3520    0.7770   -0.8870 C   0  0  2  0  0  0  0  0  0  0  0  0
   -7.0370    2.0630   -1.6170 C   0  0  0  0  0  0  0  0  0  0  0  0
   -7.8720    1.1550    0.4900 C   0  0  0  0  0  0  0  0  0  0  0  0
   -4.9190    0.3870   -1.2510 C   0  0  0  0  0  0  0  0  0  0  0  0
   -3.7740   -0.4030   -1.1280 C   0  0  0  0  0  0  0  0  0  0  0  0
   -2.5130    0.1350   -1.6510 C   0  0  0  0  0  0  0  0  0  0  0  0
   -1.6220    0.6980   -0.6070 C   0  0  0  0  0  0  0  0  0  0  0  0
   -1.8900    1.9590   -0.0490 C   0  0  0  0  0  0  0  0  0  0  0  0
   -1.0710    2.5090    0.9080 C   0  0  0  0  0  0  0  0  0  0  0  0
    0.0370    1.8170    1.3370 C   0  0  0  0  0  0  0  0  0  0  0  0
    0.8700    2.3780    2.3130 O   0  0  0  0  0  0  0  0  0  0  0  0
    0.3490    0.5760    0.8250 C   0  0  0  0  0  0  0  0  0  0  0  0
    1.5590   -0.1780    1.2970 C   0  0  0  0  0  0  0  0  0  0  0  0
    2.7450    0.4290    0.6860 C   0  0  0  0  0  0  0  0  0  0  0  0
    2.5530    1.4180   -0.1010 O   0  0  0  0  0  0  0  0  0  0  0  0
    4.1200   -0.0110    0.9080 C   0  0  0  0  0  0  0  0  0  0  0  0
    4.6080   -1.0270    1.6920 C   0  0  0  0  0  0  0  0  0  0  0  0
    3.7960   -1.9500    2.5360 C   0  0  0  0  0  0  0  0  0  0  0  0
    5.9640   -1.0280    1.5560 N   0  0  0  0  0  0  0  0  0  0  0  0
    6.3570   -0.0500    0.7130 C   0  0  0  0  0  0  0  0  0  0  0  0
    5.2350    0.5680    0.3200 C   0  0  0  0  0  0  0  0  0  0  0  0
    5.7370    1.8850   -0.8100 S   0  0  0  0  0  0  0  0  0  0  0  0
    7.5050    1.6580   -0.5150 C   0  0  0  0  0  0  0  0  0  0  0  0
    8.3390    2.4400   -0.8790 O   0  0  0  0  0  0  0  0  0  0  0  0
    7.6340    0.4220    0.1970 C   0  0  2  0  0  0  0  0  0  0  0  0
    8.1990   -0.6420   -0.7240 C   0  0  0  0  0  0  0  0  0  0  0  0
    9.5290   -0.2110   -1.2940 C   0  0  0  0  0  0  0  0  0  0  0  0
   10.4240    0.0040   -0.2440 O   0  0  0  0  0  0  0  0  0  0  0  0
   -0.5100    0.0570   -0.1450 C   0  0  0  0  0  0  0  0  0  0  0  0
  1  2  1  0
  2  3  2  0
  2 11  1  0
  3  4  1  0
  4  5  1  0
  4  6  2  0
  6  7  1  0
  6 10  1  0
  7  8  1  6
  7  9  1  0
 10 11  2  0
 11 12  1  0
 12 13  1  0
 13 14  2  0
 13 35  1  0
 14 15  1  0
 15 16  2  0
 16 17  1  0
 16 18  1  0
 18 19  1  0
 18 35  2  0
 19 20  1  0
 20 21  2  0
 20 22  1  0
 22 23  2  0
 22 27  1  0
 23 24  1  0
 23 25  1  0
 25 26  1  0
 26 27  2  0
 26 31  1  0
 27 28  1  0
 28 29  1  0
 29 30  2  0
 29 31  1  0
 31 32  1  6
 32 33  1  0
 33 34  1  0
M  END
