
     RDKit          3D

 26 28  0  0  0  0  0  0  0  0999 V2000
   -4.5250   -2.5520   -0.1050 C   0  0  0  0  0  0  0  0  0  0  0  0
   -4.8200   -1.0640   -0.2040 C   0  0  0  0  0  0  0  0  0  0  0  0
   -3.5870   -0.3290   -0.7500 C   0  0  1  0  0  0  0  0  0  0  0  0
   -3.8090    1.0040   -0.8540 O   0  0  0  0  0  0  0  0  0  0  0  0
   -3.3980    1.8470    0.1140 C   0  0  1  0  0  0  0  0  0  0  0  0
   -3.0900    3.1910   -0.5720 C   0  0  0  0  0  0  0  0  0  0  0  0
   -4.4260    2.1730    1.1700 C   0  0  0  0  0  0  0  0  0  0  0  0
   -5.5220    2.7650    0.5640 O   0  0  0  0  0  0  0  0  0  0  0  0
   -2.1200    1.4770    0.8330 C   0  0  0  0  0  0  0  0  0  0  0  0
   -1.4140    0.4730   -0.0480 C   0  0  1  0  0  0  0  0  0  0  0  0
   -0.1050   -0.0170    0.5710 C   0  0  0  0  0  0  0  0  0  0  0  0
    0.6570   -0.6830   -0.5240 C   0  0  1  0  0  0  0  0  0  0  0  0
    1.6780   -1.6720   -0.1330 C   0  0  2  0  0  0  0  0  0  0  0  0
    1.0960   -2.7120    0.5960 O   0  0  0  0  0  0  0  0  0  0  0  0
    2.9580   -1.1750    0.4550 C   0  0  2  0  0  0  0  0  0  0  0  0
    2.8680   -0.3920    1.7070 C   0  0  0  0  0  0  0  0  0  0  0  0
    3.2310    1.0460    1.6540 C   0  0  0  0  0  0  0  0  0  0  0  0
    3.7490    1.5040    0.4650 O   0  0  0  0  0  0  0  0  0  0  0  0
    4.6530    0.6120   -0.1060 C   0  0  1  0  0  0  0  0  0  0  0  0
    5.2550    1.3120   -1.3080 C   0  0  0  0  0  0  0  0  0  0  0  0
    5.7530    0.2400    0.8320 C   0  0  0  0  0  0  0  0  0  0  0  0
    3.8600   -0.5480   -0.6080 C   0  0  1  0  0  0  0  0  0  0  0  0
    4.7350   -1.4600   -1.1790 O   0  0  0  0  0  0  0  0  0  0  0  0
   -0.3400   -1.3910   -1.4530 C   0  0  0  0  0  0  0  0  0  0  0  0
   -1.5710   -1.8510   -0.7160 C   0  0  0  0  0  0  0  0  0  0  0  0
   -2.3370   -0.7530   -0.0650 C   0  0  2  0  0  0  0  0  0  0  0  0
  1  2  1  0
  3  2  1  1
  3  4  1  0
  3 26  1  0
  4  5  1  0
  5  6  1  6
  5  7  1  0
  5  9  1  0
  7  8  1  0
 10  9  1  1
 10 11  1  0
 10 26  1  0
 12 11  1  1
 12 13  1  0
 12 24  1  0
 13 14  1  1
 13 15  1  0
 15 16  1  1
 15 22  1  0
 16 17  1  0
 17 18  1  0
 18 19  1  0
 19 20  1  6
 19 21  1  0
 19 22  1  0
 22 23  1  1
 24 25  1  0
 26 25  1  6
M  END
