
     RDKit          3D

 26 29  0  0  0  0  0  0  0  0999 V2000
    3.6830   -1.5820    1.7640 O   0  0  0  0  0  0  0  0  0  0  0  0
    2.6750   -1.2400    0.8680 C   0  0  1  0  0  0  0  0  0  0  0  0
    1.3570   -1.5210    1.5870 C   0  0  0  0  0  0  0  0  0  0  0  0
    0.2730   -1.3610    0.5440 C   0  0  0  0  0  0  0  0  0  0  0  0
    0.3090   -0.0090   -0.1140 C   0  0  1  0  0  0  0  0  0  0  0  0
    0.5530   -0.2010   -1.4750 O   0  0  0  0  0  0  0  0  0  0  0  0
   -1.0270    0.6370    0.0270 C   0  0  2  0  0  0  0  0  0  0  0  0
   -1.4760    0.8540    1.4330 C   0  0  0  0  0  0  0  0  0  0  0  0
   -2.8590    1.4610    1.4120 C   0  0  0  0  0  0  0  0  0  0  0  0
   -3.4450    1.4480    0.1620 O   0  0  0  0  0  0  0  0  0  0  0  0
   -3.4580    0.2110   -0.4390 C   0  0  1  0  0  0  0  0  0  0  0  0
   -4.0870   -0.8230    0.4580 C   0  0  0  0  0  0  0  0  0  0  0  0
   -5.5040   -0.3640    0.7410 C   0  0  0  0  0  0  0  0  0  0  0  0
   -6.2920   -0.6100   -0.5380 C   0  0  1  0  0  0  0  0  0  0  0  0
   -7.3810    0.2570   -0.6120 O   0  0  0  0  0  0  0  0  0  0  0  0
   -5.4360   -0.6120   -1.7520 C   0  0  0  0  0  0  0  0  0  0  0  0
   -4.2640    0.3100   -1.7010 C   0  0  0  0  0  0  0  0  0  0  0  0
   -2.0340   -0.1770   -0.7430 C   0  0  0  0  0  0  0  0  0  0  0  0
    1.3970    0.8830    0.4130 C   0  0  0  0  0  0  0  0  0  0  0  0
    2.7210    0.2210    0.5830 C   0  0  2  0  0  0  0  0  0  0  0  0
    3.6230    0.4380   -0.6400 C   0  0  0  0  0  0  0  0  0  0  0  0
    5.0280   -0.0860   -0.3340 C   0  0  1  0  0  0  0  0  0  0  0  0
    5.9510    0.0990   -1.4900 C   0  0  0  0  0  0  0  0  0  0  0  0
    6.7900    1.2800   -1.0520 C   0  0  0  0  0  0  0  0  0  0  0  0
    6.6160    1.2930    0.4250 C   0  0  0  0  0  0  0  0  0  0  0  0
    5.5650    0.5010    0.7750 O   0  0  0  0  0  0  0  0  0  0  0  0
  2  1  1  1
  2  3  1  0
  2 20  1  0
  3  4  1  0
  4  5  1  0
  5  6  1  6
  5  7  1  0
  5 19  1  0
  7  8  1  1
  7 18  1  0
  8  9  1  0
  9 10  1  0
 10 11  1  0
 11 12  1  1
 11 17  1  0
 11 18  1  0
 12 13  1  0
 13 14  1  0
 14 15  1  6
 14 16  1  0
 16 17  1  0
 19 20  1  0
 20 21  1  6
 22 21  1  6
 22 23  1  0
 22 26  1  0
 23 24  1  0
 24 25  1  0
 25 26  1  0
M  END
