
     RDKit          3D

 26 29  0  0  0  0  0  0  0  0999 V2000
   -3.2180   -0.3620    2.4810 O   0  0  0  0  0  0  0  0  0  0  0  0
   -1.9860    0.0390    2.0930 C   0  0  0  0  0  0  0  0  0  0  0  0
   -1.5160   -0.4110    0.7300 C   0  0  2  0  0  0  0  0  0  0  0  0
   -2.1620    0.3060   -0.4130 C   0  0  1  0  0  0  0  0  0  0  0  0
   -1.3830   -0.1110   -1.5590 O   0  0  0  0  0  0  0  0  0  0  0  0
   -3.5500    0.0980   -0.7950 C   0  0  1  0  0  0  0  0  0  0  0  0
   -4.6570    0.3950    0.1330 C   0  0  0  0  0  0  0  0  0  0  0  0
   -5.8320    0.7170   -0.8350 C   0  0  0  0  0  0  0  0  0  0  0  0
   -5.1550    1.6390   -1.7940 C   0  0  0  0  0  0  0  0  0  0  0  0
   -3.7980    1.0560   -1.9910 C   0  0  1  0  0  0  0  0  0  0  0  0
   -2.8810    2.1220   -1.9310 O   0  0  0  0  0  0  0  0  0  0  0  0
   -1.6220   -1.8880    0.6270 C   0  0  0  0  0  0  0  0  0  0  0  0
   -0.8260   -2.5350    1.7370 C   0  0  0  0  0  0  0  0  0  0  0  0
    0.5230   -1.8910    1.9170 C   0  0  0  0  0  0  0  0  0  0  0  0
    0.8010   -0.7690    1.0030 C   0  0  1  0  0  0  0  0  0  0  0  0
    1.8530    0.1120    1.7030 C   0  0  0  0  0  0  0  0  0  0  0  0
    2.7260    0.8000    0.6420 C   0  0  0  0  0  0  0  0  0  0  0  0
    3.7080   -0.2430    0.1970 C   0  0  2  0  0  0  0  0  0  0  0  0
    4.6080    0.1790   -0.9160 C   0  0  2  0  0  0  0  0  0  0  0  0
    5.4400    1.3890   -0.5440 C   0  0  0  0  0  0  0  0  0  0  0  0
    5.7100    1.9700   -1.9190 C   0  0  0  0  0  0  0  0  0  0  0  0
    4.5870    1.7320   -2.6610 O   0  0  0  0  0  0  0  0  0  0  0  0
    3.9460    0.6120   -2.1710 C   0  0  0  0  0  0  0  0  0  0  0  0
    2.9700   -1.5090   -0.0490 C   0  0  0  0  0  0  0  0  0  0  0  0
    1.4900   -1.3210   -0.2520 C   0  0  0  0  0  0  0  0  0  0  0  0
   -0.1770    0.0460    0.6020 O   0  0  0  0  0  0  0  0  0  0  0  0
  1  2  1  0
  3  2  1  1
  3  4  1  0
  3 12  1  0
  3 26  1  0
  4  5  1  6
  4  6  1  0
  6  7  1  1
  6 10  1  0
  7  8  1  0
  8  9  1  0
  9 10  1  0
 10 11  1  1
 12 13  1  0
 13 14  1  0
 15 14  1  1
 15 16  1  0
 15 25  1  0
 15 26  1  0
 16 17  1  0
 18 17  1  6
 18 19  1  0
 18 24  1  0
 19 20  1  1
 19 23  1  0
 20 21  1  0
 21 22  1  0
 22 23  1  0
 24 25  1  0
M  END
