
     RDKit          3D

 26 28  0  0  0  0  0  0  0  0999 V2000
   -1.3750    4.6400    0.9060 C   0  0  0  0  0  0  0  0  0  0  0  0
   -1.4020    3.6410   -0.2350 C   0  0  2  0  0  0  0  0  0  0  0  0
   -2.6900    3.5320   -0.6990 O   0  0  0  0  0  0  0  0  0  0  0  0
   -0.8000    2.3210    0.2020 C   0  0  1  0  0  0  0  0  0  0  0  0
   -1.5600    1.7370    1.3520 C   0  0  0  0  0  0  0  0  0  0  0  0
   -1.5080    0.2570    1.4890 C   0  0  0  0  0  0  0  0  0  0  0  0
   -1.5160   -0.5100    0.1890 C   0  0  2  0  0  0  0  0  0  0  0  0
   -2.8240   -0.2030   -0.5010 C   0  0  0  0  0  0  0  0  0  0  0  0
   -3.9540   -1.0430    0.0570 C   0  0  0  0  0  0  0  0  0  0  0  0
   -4.1800   -2.1820   -0.6770 O   0  0  0  0  0  0  0  0  0  0  0  0
   -3.3730   -3.1910   -0.1530 C   0  0  0  0  0  0  0  0  0  0  0  0
   -1.9440   -2.8750   -0.5480 C   0  0  1  0  0  0  0  0  0  0  0  0
   -1.1760   -4.1920   -0.5160 C   0  0  0  0  0  0  0  0  0  0  0  0
   -1.8520   -2.4030   -1.8510 O   0  0  0  0  0  0  0  0  0  0  0  0
   -1.3410   -1.9710    0.4700 C   0  0  0  0  0  0  0  0  0  0  0  0
   -0.3710    0.0060   -0.6410 C   0  0  2  0  0  0  0  0  0  0  0  0
    0.9610   -0.0630    0.0260 C   0  0  0  0  0  0  0  0  0  0  0  0
    2.0450    0.4660   -0.8840 C   0  0  2  0  0  0  0  0  0  0  0  0
    2.0350   -0.3260   -2.0310 O   0  0  0  0  0  0  0  0  0  0  0  0
    3.4200    0.2840   -0.2700 C   0  0  1  0  0  0  0  0  0  0  0  0
    3.5870    0.9960    1.0280 C   0  0  0  0  0  0  0  0  0  0  0  0
    3.7630   -1.1730   -0.0750 C   0  0  0  0  0  0  0  0  0  0  0  0
    5.2870   -1.1460   -0.1140 C   0  0  0  0  0  0  0  0  0  0  0  0
    5.5740    0.1390   -0.8440 C   0  0  0  0  0  0  0  0  0  0  0  0
    4.3610    0.6970   -1.1820 O   0  0  0  0  0  0  0  0  0  0  0  0
   -0.7370    1.4290   -1.0030 C   0  0  0  0  0  0  0  0  0  0  0  0
  2  1  1  1
  2  3  1  0
  2  4  1  0
  4  5  1  1
  4 26  1  0
  5  6  1  0
  7  6  1  1
  7  8  1  0
  7 15  1  0
  7 16  1  0
  8  9  1  0
  9 10  1  0
 10 11  1  0
 11 12  1  0
 12 13  1  6
 12 14  1  0
 12 15  1  0
 16 17  1  1
 16 26  1  0
 17 18  1  0
 18 19  1  6
 18 20  1  0
 20 21  1  1
 20 22  1  0
 20 25  1  0
 22 23  1  0
 23 24  1  0
 24 25  1  0
M  END
