
     RDKit          3D

 26 28  0  0  0  0  0  0  0  0999 V2000
    3.5650    0.3250   -1.4190 C   0  0  0  0  0  0  0  0  0  0  0  0
    3.0590   -0.8610   -0.6840 C   0  0  1  0  0  0  0  0  0  0  0  0
    2.5450   -1.9520   -1.6260 C   0  0  0  0  0  0  0  0  0  0  0  0
    4.1400   -1.5170    0.1590 C   0  0  0  0  0  0  0  0  0  0  0  0
    1.9150   -0.5310    0.2920 C   0  0  1  0  0  0  0  0  0  0  0  0
    2.3930    0.4450    1.2930 C   0  0  0  0  0  0  0  0  0  0  0  0
    1.2400    0.9200    2.0950 C   0  0  0  0  0  0  0  0  0  0  0  0
   -0.0280    1.2320    1.4000 C   0  0  1  0  0  0  0  0  0  0  0  0
   -0.1130    2.6300    1.3710 O   0  0  0  0  0  0  0  0  0  0  0  0
    0.7110    3.2080    0.4360 C   0  0  0  0  0  0  0  0  0  0  0  0
   -0.2610    3.7660   -0.6060 C   0  0  0  0  0  0  0  0  0  0  0  0
   -1.4010    2.7990   -0.7090 C   0  0  2  0  0  0  0  0  0  0  0  0
   -2.5470    3.1070    0.2080 C   0  0  0  0  0  0  0  0  0  0  0  0
   -3.0190    4.3960   -0.1310 O   0  0  0  0  0  0  0  0  0  0  0  0
   -1.0810    1.3720   -0.9070 C   0  0  0  0  0  0  0  0  0  0  0  0
   -0.4050    0.5490    0.1510 C   0  0  2  0  0  0  0  0  0  0  0  0
   -1.4200   -0.6000    0.3940 C   0  0  2  0  0  0  0  0  0  0  0  0
   -2.5230    0.0790    0.9770 O   0  0  0  0  0  0  0  0  0  0  0  0
   -1.0220   -1.6540    1.3150 C   0  0  0  0  0  0  0  0  0  0  0  0
   -2.3000   -2.3780    1.7650 C   0  0  0  0  0  0  0  0  0  0  0  0
   -2.3930   -3.6540    1.1570 O   0  0  0  0  0  0  0  0  0  0  0  0
   -2.8560   -3.4080   -0.1310 C   0  0  0  0  0  0  0  0  0  0  0  0
   -1.8940   -2.6790   -0.9990 C   0  0  1  0  0  0  0  0  0  0  0  0
   -2.3150   -2.9340   -2.3350 O   0  0  0  0  0  0  0  0  0  0  0  0
   -1.9320   -1.1790   -0.8810 C   0  0  0  0  0  0  0  0  0  0  0  0
    0.7650   -0.1520   -0.5340 C   0  0  0  0  0  0  0  0  0  0  0  0
  2  1  1  6
  2  3  1  0
  2  4  1  0
  2  5  1  0
  5  6  1  1
  5 26  1  0
  6  7  1  0
  8  7  1  6
  8  9  1  0
  8 16  1  0
  9 10  1  0
 10 11  1  0
 11 12  1  0
 12 13  1  1
 12 15  1  0
 13 14  1  0
 16 15  1  6
 16 17  1  0
 16 26  1  0
 17 18  1  1
 17 19  1  0
 17 25  1  0
 19 20  1  0
 20 21  1  0
 21 22  1  0
 22 23  1  0
 23 24  1  6
 23 25  1  0
M  END
