
     RDKit          3D

 26 29  0  0  0  0  0  0  0  0999 V2000
    1.7240    1.9460    2.3630 O   0  0  0  0  0  0  0  0  0  0  0  0
    1.8130    0.8540    1.4830 C   0  0  1  0  0  0  0  0  0  0  0  0
    0.4720    0.1620    1.5070 C   0  0  0  0  0  0  0  0  0  0  0  0
   -0.3460    0.7690    0.3880 C   0  0  1  0  0  0  0  0  0  0  0  0
   -1.2970   -0.2130   -0.2100 C   0  0  0  0  0  0  0  0  0  0  0  0
   -2.3000   -0.8690    0.6370 C   0  0  1  0  0  0  0  0  0  0  0  0
   -3.3060   -0.0600    1.3550 C   0  0  0  0  0  0  0  0  0  0  0  0
   -4.4350    0.4610    0.4560 C   0  0  0  0  0  0  0  0  0  0  0  0
   -5.3720   -0.6810    0.1280 C   0  0  0  0  0  0  0  0  0  0  0  0
   -5.0800   -1.7510    0.9690 O   0  0  0  0  0  0  0  0  0  0  0  0
   -4.1440   -2.5520    0.3790 C   0  0  0  0  0  0  0  0  0  0  0  0
   -3.0090   -1.8800   -0.2940 C   0  0  2  0  0  0  0  0  0  0  0  0
   -2.0280   -2.8550   -0.5650 O   0  0  0  0  0  0  0  0  0  0  0  0
   -0.9970    2.0540    0.6790 C   0  0  0  0  0  0  0  0  0  0  0  0
   -0.3880    3.3050    0.1600 C   0  0  0  0  0  0  0  0  0  0  0  0
    0.2370    3.2250   -1.1870 C   0  0  0  0  0  0  0  0  0  0  0  0
    0.3500    1.8190   -1.7180 C   0  0  0  0  0  0  0  0  0  0  0  0
    0.7800    0.8960   -0.6510 C   0  0  1  0  0  0  0  0  0  0  0  0
    2.0330    1.2380    0.0800 C   0  0  2  0  0  0  0  0  0  0  0  0
    3.2760    0.7480   -0.5950 C   0  0  2  0  0  0  0  0  0  0  0  0
    3.2020    1.2950   -1.9160 O   0  0  0  0  0  0  0  0  0  0  0  0
    3.4170   -0.7130   -0.7970 C   0  0  2  0  0  0  0  0  0  0  0  0
    3.6810   -1.5240    0.4500 C   0  0  0  0  0  0  0  0  0  0  0  0
    4.4210   -2.7300   -0.1100 C   0  0  0  0  0  0  0  0  0  0  0  0
    5.0280   -2.1670   -1.3600 C   0  0  0  0  0  0  0  0  0  0  0  0
    4.5680   -0.9010   -1.5850 O   0  0  0  0  0  0  0  0  0  0  0  0
  2  1  1  1
  2  3  1  0
 19  2  1  1
  3  4  1  0
  4  5  1  6
  4 14  1  0
  4 18  1  0
  6  5  1  6
  6  7  1  0
  6 12  1  0
  7  8  1  0
  8  9  1  0
  9 10  1  0
 10 11  1  0
 11 12  1  0
 12 13  1  1
 14 15  1  0
 15 16  1  0
 16 17  1  0
 18 17  1  6
 18 19  1  0
 19 20  1  0
 20 21  1  6
 20 22  1  0
 22 23  1  1
 22 26  1  0
 23 24  1  0
 24 25  1  0
 25 26  1  0
M  END
