
     RDKit          3D

 31 34  0  0  0  0  0  0  0  0999 V2000
    7.1190    2.4170    2.0720 C   0  0  0  0  0  0  0  0  0  0  0  0
    5.8570    1.8460    1.5430 C   0  0  0  0  0  0  0  0  0  0  0  0
    4.6400    2.3780    1.8920 C   0  0  0  0  0  0  0  0  0  0  0  0
    3.4720    1.8340    1.3510 C   0  0  0  0  0  0  0  0  0  0  0  0
    3.4580    0.7810    0.4750 C   0  0  0  0  0  0  0  0  0  0  0  0
    2.3160    0.1710   -0.1100 C   0  0  0  0  0  0  0  0  0  0  0  0
    0.9830    0.6660    0.0540 N   0  0  0  0  0  0  0  0  0  0  0  0
   -0.0410   -0.0910   -0.5450 C   0  0  0  0  0  0  0  0  0  0  0  0
    0.4180   -1.1840   -1.1160 O   0  0  0  0  0  0  0  0  0  0  0  0
   -1.3650    0.0500   -0.6720 O   0  0  0  0  0  0  0  0  0  0  0  0
   -2.1640   -0.8610   -1.2990 C   0  0  2  0  0  0  0  0  0  0  0  0
   -2.4040   -0.6790   -2.7990 C   0  0  0  0  0  0  0  0  0  0  0  0
   -3.2500   -1.5380   -0.5970 C   0  0  0  0  0  0  0  0  0  0  0  0
   -3.2030   -2.8900   -0.2290 C   0  0  0  0  0  0  0  0  0  0  0  0
   -4.1730   -3.5120    0.5170 C   0  0  0  0  0  0  0  0  0  0  0  0
   -5.2690   -2.7790    0.9350 C   0  0  0  0  0  0  0  0  0  0  0  0
   -5.3500   -1.4480    0.5880 C   0  0  0  0  0  0  0  0  0  0  0  0
   -4.3870   -0.8270   -0.1510 C   0  0  0  0  0  0  0  0  0  0  0  0
   -4.3940    0.5240   -0.5800 N   0  0  0  0  0  0  0  0  0  0  0  0
   -5.5450    1.2790   -0.8540 C   0  0  0  0  0  0  0  0  0  0  0  0
   -6.5810    1.4410    0.1720 C   0  0  0  0  0  0  0  0  0  0  0  0
   -6.5180    1.9730    1.4260 C   0  0  0  0  0  0  0  0  0  0  0  0
   -7.7550    1.9400    2.0050 N   0  0  0  0  0  0  0  0  0  0  0  0
   -8.6090    1.3990    1.1540 N   0  0  0  0  0  0  0  0  0  0  0  0
   -7.9410    1.0750    0.0200 C   0  0  0  0  0  0  0  0  0  0  0  0
    4.7240    0.2480    0.1310 C   0  0  0  0  0  0  0  0  0  0  0  0
    5.8650    0.7960    0.6710 C   0  0  0  0  0  0  0  0  0  0  0  0
    7.1780    0.2250    0.2100 C   0  0  0  0  0  0  0  0  0  0  0  0
    7.0580   -1.2610    0.0580 C   0  0  0  0  0  0  0  0  0  0  0  0
    5.9520   -1.6940   -0.8360 C   0  0  0  0  0  0  0  0  0  0  0  0
    4.7710   -0.8500   -0.7740 N   0  0  0  0  0  0  0  0  0  0  0  0
  1  2  1  0
  2  3  2  0
  2 27  1  0
  3  4  1  0
  4  5  2  0
  5  6  1  0
  5 26  1  0
  6  7  1  0
  7  8  1  0
  8  9  2  0
  8 10  1  0
 10 11  1  0
 11 12  1  6
 11 13  1  0
 13 14  2  0
 13 18  1  0
 14 15  1  0
 15 16  2  0
 16 17  1  0
 17 18  2  0
 18 19  1  0
 19 20  1  0
 20 21  1  0
 21 22  1  0
 21 25  2  0
 22 23  2  0
 23 24  1  0
 24 25  1  0
 26 27  2  0
 26 31  1  0
 27 28  1  0
 28 29  1  0
 29 30  1  0
 30 31  1  0
M  END
