
     RDKit          3D

 29 31  0  0  0  0  0  0  0  0999 V2000
   -9.0020    0.3000   -0.5170 C   0  0  0  0  0  0  0  0  0  0  0  0
   -8.5290    0.9010    0.7830 C   0  0  0  0  0  0  0  0  0  0  0  0
   -7.1050    1.1460    0.7550 N   0  0  0  0  0  0  0  0  0  0  0  0
   -6.1800    0.0890    0.5870 C   0  0  0  0  0  0  0  0  0  0  0  0
   -6.5630   -1.2120    0.4790 C   0  0  0  0  0  0  0  0  0  0  0  0
   -5.6640   -2.2410    0.3130 C   0  0  0  0  0  0  0  0  0  0  0  0
   -4.3050   -1.9120    0.2550 C   0  0  0  0  0  0  0  0  0  0  0  0
   -3.4470   -2.9590    0.0900 O   0  0  0  0  0  0  0  0  0  0  0  0
   -3.8490   -0.6060    0.3580 C   0  0  0  0  0  0  0  0  0  0  0  0
   -2.4720   -0.3020    0.2970 N   0  0  0  0  0  0  0  0  0  0  0  0
   -1.8840    0.9610    0.3870 C   0  0  0  0  0  0  0  0  0  0  0  0
   -2.5620    1.9840    0.5370 O   0  0  0  0  0  0  0  0  0  0  0  0
   -0.4490    1.1570    0.3110 N   0  0  0  0  0  0  0  0  0  0  0  0
    0.1200    2.4400    0.4000 C   0  0  0  0  0  0  0  0  0  0  0  0
    1.4030    2.5930    0.5770 C   0  0  0  0  0  0  0  0  0  0  0  0
    2.3380    1.4290    0.6940 C   0  0  0  0  0  0  0  0  0  0  0  0
    3.4990    1.6150    1.2680 C   0  0  0  0  0  0  0  0  0  0  0  0
    4.6450    0.8060    1.5710 C   0  0  0  0  0  0  0  0  0  0  0  0
    4.7530   -0.5560    1.2440 N   0  0  0  0  0  0  0  0  0  0  0  0
    4.9950   -0.8000   -0.1600 C   0  0  0  0  0  0  0  0  0  0  0  0
    6.4460   -0.8210   -0.5040 C   0  0  0  0  0  0  0  0  0  0  0  0
    7.5130   -0.6470    0.2360 C   0  0  0  0  0  0  0  0  0  0  0  0
    8.7200   -0.7730   -0.6190 C   0  0  0  0  0  0  0  0  0  0  0  0
    8.1640   -1.0470   -1.9690 C   0  0  0  0  0  0  0  0  0  0  0  0
    6.8640   -1.0730   -1.8980 C   0  0  0  0  0  0  0  0  0  0  0  0
    6.0650   -1.2990   -2.9610 F   0  0  0  0  0  0  0  0  0  0  0  0
    1.8290    0.1800    0.1300 C   0  0  0  0  0  0  0  0  0  0  0  0
    0.3460    0.0010    0.1430 C   0  0  0  0  0  0  0  0  0  0  0  0
   -4.8090    0.3610    0.5220 C   0  0  0  0  0  0  0  0  0  0  0  0
  1  2  1  0
  2  3  1  0
  3  4  1  0
  4  5  2  0
  4 29  1  0
  5  6  1  0
  6  7  2  0
  7  8  1  0
  7  9  1  0
  9 10  1  0
  9 29  2  0
 10 11  1  0
 11 12  2  0
 11 13  1  0
 13 14  1  0
 13 28  1  0
 14 15  2  0
 15 16  1  0
 16 17  2  3
 16 27  1  0
 17 18  1  0
 18 19  1  0
 19 20  1  0
 20 21  1  0
 21 22  2  0
 21 25  1  0
 22 23  1  0
 23 24  1  0
 24 25  2  0
 25 26  1  0
 27 28  1  0
M  CHG  1  19   1
M  END
