
     RDKit          3D

 29 31  0  0  0  0  0  0  0  0999 V2000
    9.5540   -0.6990    0.8440 C   0  0  0  0  0  0  0  0  0  0  0  0
    8.1530   -0.4300    0.9160 O   0  0  0  0  0  0  0  0  0  0  0  0
    7.2400   -0.9750    0.0390 C   0  0  0  0  0  0  0  0  0  0  0  0
    7.6510   -1.7430   -0.8670 O   0  0  0  0  0  0  0  0  0  0  0  0
    5.8500   -0.7090    0.1090 N   0  0  0  0  0  0  0  0  0  0  0  0
    4.9060   -1.2710   -0.7950 C   0  0  0  0  0  0  0  0  0  0  0  0
    3.8300   -0.2860   -1.2200 C   0  0  0  0  0  0  0  0  0  0  0  0
    3.4840    0.6450   -0.2180 N   0  0  0  0  0  0  0  0  0  0  0  0
    2.3470    0.4120    0.5690 C   0  0  0  0  0  0  0  0  0  0  0  0
    1.0890    0.5340   -0.2130 C   0  0  0  0  0  0  0  0  0  0  0  0
    1.0670    0.9200   -1.5300 C   0  0  0  0  0  0  0  0  0  0  0  0
   -0.1290    1.0530   -2.2280 C   0  0  0  0  0  0  0  0  0  0  0  0
   -1.3320    0.7890   -1.5760 C   0  0  0  0  0  0  0  0  0  0  0  0
   -1.3350    0.4060   -0.2710 C   0  0  0  0  0  0  0  0  0  0  0  0
   -2.4960    0.1180    0.4750 N   0  0  0  0  0  0  0  0  0  0  0  0
   -3.8450    0.1660    0.0340 C   0  0  0  0  0  0  0  0  0  0  0  0
   -4.0680    0.4940   -1.1300 O   0  0  0  0  0  0  0  0  0  0  0  0
   -4.9180   -0.1580    0.9170 N   0  0  0  0  0  0  0  0  0  0  0  0
   -6.2830   -0.1350    0.5770 C   0  0  0  0  0  0  0  0  0  0  0  0
   -6.8170    0.4000   -0.5720 C   0  0  0  0  0  0  0  0  0  0  0  0
   -8.1850    0.3750   -0.8540 C   0  0  0  0  0  0  0  0  0  0  0  0
   -9.0530   -0.2040    0.0370 C   0  0  0  0  0  0  0  0  0  0  0  0
  -10.5320   -0.2540   -0.2260 C   0  0  0  0  0  0  0  0  0  0  0  0
   -8.5260   -0.7240    1.1560 N   0  0  0  0  0  0  0  0  0  0  0  0
   -7.2210   -0.7140    1.4520 C   0  0  0  0  0  0  0  0  0  0  0  0
   -0.1320    0.2760    0.4160 C   0  0  0  0  0  0  0  0  0  0  0  0
   -0.0950   -0.0990    1.7030 F   0  0  0  0  0  0  0  0  0  0  0  0
    4.5890    1.2710    0.4520 C   0  0  0  0  0  0  0  0  0  0  0  0
    5.3750    0.1740    1.1510 C   0  0  0  0  0  0  0  0  0  0  0  0
  1  2  1  0
  2  3  1  0
  3  4  2  0
  3  5  1  0
  5  6  1  0
  5 29  1  0
  6  7  1  0
  7  8  1  0
  8  9  1  0
  8 28  1  0
  9 10  1  0
 10 11  2  0
 10 26  1  0
 11 12  1  0
 12 13  2  0
 13 14  1  0
 14 15  1  0
 14 26  2  0
 15 16  1  0
 16 17  2  0
 16 18  1  0
 18 19  1  0
 19 20  2  0
 19 25  1  0
 20 21  1  0
 21 22  2  0
 22 23  1  0
 22 24  1  0
 24 25  2  0
 26 27  1  0
 28 29  1  0
M  END
