
     RDKit          3D

 29 31  0  0  0  0  0  0  0  0999 V2000
   -4.0060   -1.3260   -1.7460 C   0  0  0  0  0  0  0  0  0  0  0  0
   -4.9400   -0.6270   -0.8200 C   0  0  0  0  0  0  0  0  0  0  0  0
   -6.2280   -0.4750   -1.2050 C   0  0  0  0  0  0  0  0  0  0  0  0
   -7.2380    0.1820   -0.4100 C   0  0  0  0  0  0  0  0  0  0  0  0
   -6.9440    0.6850    0.7750 C   0  0  0  0  0  0  0  0  0  0  0  0
   -8.1620    1.3040    1.3810 C   0  0  0  0  0  0  0  0  0  0  0  0
   -8.9770    1.6260    0.1310 C   0  0  0  0  0  0  0  0  0  0  0  0
   -8.6820    0.4100   -0.7200 C   0  0  0  0  0  0  0  0  0  0  0  0
   -5.6210    0.5530    1.2200 N   0  0  0  0  0  0  0  0  0  0  0  0
   -4.5610   -0.1010    0.4590 C   0  0  0  0  0  0  0  0  0  0  0  0
   -3.3770   -0.1690    0.9820 C   0  0  0  0  0  0  0  0  0  0  0  0
   -2.1710   -0.7460    0.4860 C   0  0  0  0  0  0  0  0  0  0  0  0
   -1.0650   -0.6590    1.2760 C   0  0  0  0  0  0  0  0  0  0  0  0
    0.2250   -1.2290    0.8420 C   0  0  1  0  0  0  0  0  0  0  0  0
    0.4500   -1.0900   -0.6530 C   0  0  0  0  0  0  0  0  0  0  0  0
    1.8060   -0.4700   -0.6740 C   0  0  0  0  0  0  0  0  0  0  0  0
    2.6210   -0.5720   -1.6510 N   0  0  0  0  0  0  0  0  0  0  0  0
    3.8830   -0.0050   -1.6910 N   0  0  0  0  0  0  0  0  0  0  0  0
    4.9050   -0.5340   -0.8590 C   0  0  0  0  0  0  0  0  0  0  0  0
    4.7060   -1.4980   -0.0850 O   0  0  0  0  0  0  0  0  0  0  0  0
    6.2480    0.0790   -0.9110 C   0  0  0  0  0  0  0  0  0  0  0  0
    7.1490   -0.6520    0.0560 C   0  0  0  0  0  0  0  0  0  0  0  0
    8.5190   -0.0160   -0.0090 C   0  0  0  0  0  0  0  0  0  0  0  0
    8.5920    1.3830    0.3390 C   0  0  0  0  0  0  0  0  0  0  0  0
    9.6240    2.1080    0.3540 N   0  0  0  0  0  0  0  0  0  0  0  0
    9.5110   -0.7900   -0.3720 C   0  0  0  0  0  0  0  0  0  0  0  0
   10.7590   -0.3250   -0.4610 F   0  0  0  0  0  0  0  0  0  0  0  0
    1.9220    0.2270    0.6340 C   0  0  0  0  0  0  0  0  0  0  0  0
    1.2750   -0.6290    1.4860 O   0  0  0  0  0  0  0  0  0  0  0  0
  1  2  1  0
  2  3  2  0
  2 10  1  0
  3  4  1  0
  4  5  2  0
  4  8  1  0
  5  6  1  0
  5  9  1  0
  6  7  1  0
  7  8  1  0
  9 10  1  0
 10 11  2  3
 11 12  1  0
 12 13  2  3
 14 13  1  1
 14 15  1  0
 14 29  1  0
 15 16  1  0
 16 17  2  3
 16 28  1  0
 17 18  1  0
 18 19  1  0
 19 20  2  0
 19 21  1  0
 21 22  1  0
 22 23  1  0
 23 24  1  0
 23 26  2  3
 24 25  2  0
 26 27  1  0
 28 29  1  0
M  CHG  1  25   1
M  END
