
     RDKit          3D

 31 34  0  0  0  0  0  0  0  0999 V2000
    5.4860    2.5220    2.3610 N   0  0  0  0  0  0  0  0  0  0  0  0
    4.3430    1.8610    1.8500 C   0  0  0  0  0  0  0  0  0  0  0  0
    3.1310    2.0040    2.5350 C   0  0  0  0  0  0  0  0  0  0  0  0
    2.0020    1.3850    2.0860 C   0  0  0  0  0  0  0  0  0  0  0  0
    2.0340    0.5940    0.9280 C   0  0  0  0  0  0  0  0  0  0  0  0
    0.8210   -0.0520    0.5040 N   0  0  0  0  0  0  0  0  0  0  0  0
   -0.2330    0.4930   -0.1180 C   0  0  0  0  0  0  0  0  0  0  0  0
   -1.2290   -0.4740   -0.3270 C   0  0  0  0  0  0  0  0  0  0  0  0
   -2.5450   -0.2420   -0.9100 C   0  0  0  0  0  0  0  0  0  0  0  0
   -2.6190    0.5670   -1.8380 O   0  0  0  0  0  0  0  0  0  0  0  0
   -3.6830   -0.9090   -0.4340 N   0  0  0  0  0  0  0  0  0  0  0  0
   -5.0000   -0.7870   -0.8960 C   0  0  0  0  0  0  0  0  0  0  0  0
   -5.7680    0.4650   -0.7640 C   0  0  0  0  0  0  0  0  0  0  0  0
   -5.2730    1.7030   -1.3990 C   0  0  0  0  0  0  0  0  0  0  0  0
   -6.2690    2.8640   -1.2200 C   0  0  0  0  0  0  0  0  0  0  0  0
   -6.4850    3.1650    0.1130 O   0  0  0  0  0  0  0  0  0  0  0  0
   -0.6820   -1.6140    0.2110 C   0  0  0  0  0  0  0  0  0  0  0  0
   -1.2940   -2.9310    0.2140 C   0  0  0  0  0  0  0  0  0  0  0  0
   -1.2040   -3.6910    1.3600 C   0  0  0  0  0  0  0  0  0  0  0  0
   -1.7790   -4.9610    1.3760 C   0  0  0  0  0  0  0  0  0  0  0  0
   -2.4000   -5.4140    0.2930 N   0  0  0  0  0  0  0  0  0  0  0  0
   -2.4950   -4.6770   -0.8380 C   0  0  0  0  0  0  0  0  0  0  0  0
   -1.9430   -3.4110   -0.9110 C   0  0  0  0  0  0  0  0  0  0  0  0
    0.5600   -1.3230    0.7060 N   0  0  0  0  0  0  0  0  0  0  0  0
    3.2240    0.4780    0.2890 C   0  0  0  0  0  0  0  0  0  0  0  0
    4.4060    1.0970    0.7160 C   0  0  0  0  0  0  0  0  0  0  0  0
    5.6360    0.8730   -0.0640 C   0  0  0  0  0  0  0  0  0  0  0  0
    6.8460    1.2980    0.1900 C   0  0  0  0  0  0  0  0  0  0  0  0
    7.8230    0.8470   -0.8670 C   0  0  0  0  0  0  0  0  0  0  0  0
    6.9410    0.0900   -1.7750 C   0  0  0  0  0  0  0  0  0  0  0  0
    5.7180    0.1200   -1.2990 C   0  0  0  0  0  0  0  0  0  0  0  0
  1  2  1  0
  2  3  2  0
  2 26  1  0
  3  4  1  0
  4  5  2  0
  5  6  1  0
  5 25  1  0
  6  7  1  0
  6 24  1  0
  7  8  2  0
  8  9  1  0
  8 17  1  0
  9 10  2  0
  9 11  1  0
 11 12  1  0
 12 13  1  0
 13 14  1  0
 14 15  1  0
 15 16  1  0
 17 18  1  0
 17 24  2  0
 18 19  2  0
 18 23  1  0
 19 20  1  0
 20 21  2  0
 21 22  1  0
 22 23  2  0
 25 26  2  0
 26 27  1  0
 27 28  2  0
 27 31  1  0
 28 29  1  0
 29 30  1  0
 30 31  2  0
M  END
