
     RDKit          3D

 31 34  0  0  0  0  0  0  0  0999 V2000
    8.2670   -0.2880    0.1540 C   0  0  0  0  0  0  0  0  0  0  0  0
    7.4040   -0.0020    1.2210 N   0  0  0  0  0  0  0  0  0  0  0  0
    6.1170   -0.6550    1.2860 C   0  0  0  0  0  0  0  0  0  0  0  0
    5.5050   -0.5800   -0.1000 C   0  0  0  0  0  0  0  0  0  0  0  0
    6.0310   -1.4350   -1.1300 C   0  0  0  0  0  0  0  0  0  0  0  0
    5.2360   -1.2870   -2.1710 N   0  0  0  0  0  0  0  0  0  0  0  0
    4.2570   -0.4080   -1.8750 C   0  0  0  0  0  0  0  0  0  0  0  0
    3.2870    0.1600   -2.8220 C   0  0  0  0  0  0  0  0  0  0  0  0
    4.4360    0.0290   -0.5570 C   0  0  0  0  0  0  0  0  0  0  0  0
    3.6280    1.1330   -0.0010 C   0  0  0  0  0  0  0  0  0  0  0  0
    2.3530    1.0390   -0.1120 C   0  0  0  0  0  0  0  0  0  0  0  0
    1.2780    1.9130    0.2740 C   0  0  0  0  0  0  0  0  0  0  0  0
    1.4500    3.0580    0.7210 O   0  0  0  0  0  0  0  0  0  0  0  0
   -0.0320    1.3500    0.0890 N   0  0  0  0  0  0  0  0  0  0  0  0
   -0.3090    0.1910    0.9670 C   0  0  0  0  0  0  0  0  0  0  0  0
   -1.3950    0.7600    1.8930 C   0  0  0  0  0  0  0  0  0  0  0  0
   -2.2260    1.7720    1.2180 C   0  0  0  0  0  0  0  0  0  0  0  0
   -2.3380    1.2970   -0.3700 C   0  0  2  0  0  0  0  0  0  0  0  0
   -2.6680    0.0000   -0.1970 O   0  0  0  0  0  0  0  0  0  0  0  0
   -3.7650   -0.7380    0.0670 C   0  0  0  0  0  0  0  0  0  0  0  0
   -3.5640   -1.9310    0.8140 C   0  0  0  0  0  0  0  0  0  0  0  0
   -4.6060   -2.7220    1.1610 C   0  0  0  0  0  0  0  0  0  0  0  0
   -5.8400   -2.3870    0.8030 N   0  0  0  0  0  0  0  0  0  0  0  0
   -6.0990   -1.2710    0.0840 C   0  0  0  0  0  0  0  0  0  0  0  0
   -7.3720   -1.0280   -0.3290 C   0  0  0  0  0  0  0  0  0  0  0  0
   -8.4010   -1.8640    0.2050 N   0  0  0  0  0  0  0  0  0  0  0  0
   -7.6460    0.0210   -1.1310 C   0  0  0  0  0  0  0  0  0  0  0  0
   -6.6140    0.8640   -1.5380 C   0  0  0  0  0  0  0  0  0  0  0  0
   -5.3400    0.6130   -1.1160 C   0  0  0  0  0  0  0  0  0  0  0  0
   -5.0380   -0.4500   -0.2870 C   0  0  0  0  0  0  0  0  0  0  0  0
   -0.9960    1.6340   -0.9130 C   0  0  0  0  0  0  0  0  0  0  0  0
  1  2  1  0
  2  3  1  0
  3  4  1  0
  4  5  2  0
  4  9  1  0
  5  6  1  0
  6  7  1  0
  7  8  1  0
  7  9  2  0
  9 10  1  0
 10 11  2  3
 11 12  1  0
 12 13  2  0
 12 14  1  0
 14 15  1  0
 14 31  1  0
 15 16  1  0
 16 17  1  0
 17 18  1  0
 18 19  1  1
 18 31  1  0
 19 20  1  0
 20 21  2  0
 20 30  1  0
 21 22  1  0
 22 23  2  0
 23 24  1  0
 24 25  2  0
 24 30  1  0
 25 26  1  0
 25 27  1  0
 27 28  2  0
 28 29  1  0
 29 30  2  0
M  END
