
     RDKit          3D

 29 31  0  0  0  0  0  0  0  0999 V2000
   -6.8100    1.6040    1.7920 C   0  0  0  0  0  0  0  0  0  0  0  0
   -6.1080    2.3430    0.6400 C   0  0  0  0  0  0  0  0  0  0  0  0
   -5.2080    1.3200    0.0140 C   0  0  0  0  0  0  0  0  0  0  0  0
   -3.8990    1.2350    0.4850 C   0  0  0  0  0  0  0  0  0  0  0  0
   -3.0800    0.2360    0.0760 C   0  0  0  0  0  0  0  0  0  0  0  0
   -1.8740   -0.2540    0.7110 C   0  0  0  0  0  0  0  0  0  0  0  0
   -0.5580    0.1060    0.3220 N   0  0  0  0  0  0  0  0  0  0  0  0
    0.3650   -0.9690    0.6170 C   0  0  0  0  0  0  0  0  0  0  0  0
   -0.2130   -2.0110    1.2270 O   0  0  0  0  0  0  0  0  0  0  0  0
    1.7460   -1.2020    0.3970 C   0  0  0  0  0  0  0  0  0  0  0  0
    2.0540   -2.5650    0.0540 C   0  0  0  0  0  0  0  0  0  0  0  0
    3.2720   -2.9940   -0.1870 N   0  0  0  0  0  0  0  0  0  0  0  0
    4.3310   -2.1730   -0.1260 C   0  0  0  0  0  0  0  0  0  0  0  0
    5.5590   -2.7360   -0.3710 N   0  0  0  0  0  0  0  0  0  0  0  0
    6.6110   -1.9390   -0.2810 C   0  0  0  0  0  0  0  0  0  0  0  0
    6.5170   -0.6090    0.0320 C   0  0  0  0  0  0  0  0  0  0  0  0
    5.2650   -0.0490    0.2730 C   0  0  0  0  0  0  0  0  0  0  0  0
    5.1800    1.1800    0.5890 N   0  0  0  0  0  0  0  0  0  0  0  0
    6.3450    2.0740    0.7200 C   0  0  0  0  0  0  0  0  0  0  0  0
    6.6160    2.7490   -0.6130 C   0  0  0  0  0  0  0  0  0  0  0  0
    7.7040    3.5640   -0.4470 F   0  0  0  0  0  0  0  0  0  0  0  0
    4.1170   -0.8390    0.1980 C   0  0  0  0  0  0  0  0  0  0  0  0
    2.8370   -0.3900    0.4480 C   0  0  0  0  0  0  0  0  0  0  0  0
    2.6510    0.8030    0.7350 O   0  0  0  0  0  0  0  0  0  0  0  0
   -3.5930   -0.7190   -0.8600 C   0  0  0  0  0  0  0  0  0  0  0  0
   -2.6080   -1.7410   -1.3340 C   0  0  0  0  0  0  0  0  0  0  0  0
   -4.8510   -0.6210   -1.3040 C   0  0  0  0  0  0  0  0  0  0  0  0
   -5.6880    0.4030   -0.8760 C   0  0  0  0  0  0  0  0  0  0  0  0
   -7.0450    0.4610   -1.4230 C   0  0  0  0  0  0  0  0  0  0  0  0
  1  2  1  0
  2  3  1  0
  3  4  2  0
  3 28  1  0
  4  5  1  0
  5  6  1  0
  5 25  2  0
  6  7  1  0
  7  8  1  0
  8  9  2  0
  8 10  1  0
 10 11  2  0
 10 23  1  0
 11 12  1  0
 12 13  1  0
 13 14  1  0
 13 22  2  0
 14 15  1  0
 15 16  2  0
 16 17  1  0
 17 18  2  3
 17 22  1  0
 18 19  1  0
 19 20  1  0
 20 21  1  0
 22 23  1  0
 23 24  2  0
 25 26  1  0
 25 27  1  0
 27 28  2  0
 28 29  1  0
M  CHG  1  18   1
M  END
