
     RDKit          3D

 18 18  0  0  0  0  0  0  0  0999 V2000
    3.9220   -0.6580   -2.2100 C   0  0  0  0  0  0  0  0  0  0  0  0
    3.3800   -0.2670   -1.0680 C   0  0  0  0  0  0  0  0  0  0  0  0
    2.2720   -0.8260   -0.4470 O   0  0  0  0  0  0  0  0  0  0  0  0
    1.9450   -0.1330    0.7250 C   0  0  2  0  0  0  0  0  0  0  0  0
    0.5130   -0.0810    1.0070 C   0  0  0  0  0  0  0  0  0  0  0  0
    0.1100    0.5150    2.0320 O   0  0  0  0  0  0  0  0  0  0  0  0
   -0.4380   -0.6900    0.1480 N   0  0  0  0  0  0  0  0  0  0  0  0
   -1.8350   -0.6510    0.4040 C   0  0  0  0  0  0  0  0  0  0  0  0
   -2.2910   -0.0720    1.4090 O   0  0  0  0  0  0  0  0  0  0  0  0
   -2.7760   -1.3080   -0.5340 C   0  0  0  0  0  0  0  0  0  0  0  0
   -4.1090   -1.1790   -0.1410 O   0  0  0  0  0  0  0  0  0  0  0  0
   -4.7190    0.0620    0.0070 C   0  0  0  0  0  0  0  0  0  0  0  0
   -6.0810    0.1940    0.4090 N   0  0  0  0  0  0  0  0  0  0  0  0
   -4.0490    1.0930   -0.2180 O   0  0  0  0  0  0  0  0  0  0  0  0
    2.5160    1.2520    0.4450 C   0  0  1  0  0  0  0  0  0  0  0  0
    2.7170    1.9840    1.5960 O   0  0  0  0  0  0  0  0  0  0  0  0
    3.8400    0.8530   -0.2080 C   0  0  1  0  0  0  0  0  0  0  0  0
    4.6330    0.3650    0.8260 F   0  0  0  0  0  0  0  0  0  0  0  0
  1  2  2  0
  2  3  1  0
  2 17  1  0
  3  4  1  0
  4  5  1  6
  4 15  1  0
  5  6  2  0
  5  7  1  0
  7  8  1  0
  8  9  2  0
  8 10  1  0
 10 11  1  0
 11 12  1  0
 12 13  1  0
 12 14  2  0
 15 16  1  1
 15 17  1  0
 17 18  1  1
M  END
