
     RDKit          3D

 17 17  0  0  0  0  0  0  0  0999 V2000
    2.1250   -1.1540   -1.2630 C   0  0  0  0  0  0  0  0  0  0  0  0
    2.3450   -0.5460    0.0950 C   0  0  1  0  0  0  0  0  0  0  0  0
    3.1320   -1.4900    0.8160 O   0  0  0  0  0  0  0  0  0  0  0  0
    3.1340    0.6840    0.0610 C   0  0  0  0  0  0  0  0  0  0  0  0
    2.7090    1.6840   -0.5540 O   0  0  0  0  0  0  0  0  0  0  0  0
    4.3480    0.7970    0.6870 O   0  0  0  0  0  0  0  0  0  0  0  0
    5.0700    1.9380    0.6500 O   0  0  0  0  0  0  0  0  0  0  0  0
    1.0500   -0.4460    0.8070 C   0  0  0  0  0  0  0  0  0  0  0  0
    0.9950   -1.1240    1.9090 O   0  0  0  0  0  0  0  0  0  0  0  0
   -0.0760    0.2910    0.3990 N   0  0  0  0  0  0  0  0  0  0  0  0
   -0.2070    1.1010   -0.7840 C   0  0  0  0  0  0  0  0  0  0  0  0
   -1.6760    1.1650   -1.2000 C   0  0  0  0  0  0  0  0  0  0  0  0
   -2.3850   -0.0210   -0.8940 N   0  0  0  0  0  0  0  0  0  0  0  0
   -2.2930   -0.5280    0.4220 C   0  0  2  0  0  0  0  0  0  0  0  0
   -3.6240   -0.5660    1.1340 C   0  0  0  0  0  0  0  0  0  0  0  0
   -4.4930   -1.3710    0.4360 O   0  0  0  0  0  0  0  0  0  0  0  0
   -1.2800    0.2610    1.2130 C   0  0  0  0  0  0  0  0  0  0  0  0
  2  1  1  6
  2  3  1  0
  2  4  1  0
  2  8  1  0
  4  5  2  0
  4  6  1  0
  6  7  1  0
  8  9  2  0
  8 10  1  0
 10 11  1  0
 10 17  1  0
 11 12  1  0
 12 13  1  0
 13 14  1  0
 14 15  1  1
 14 17  1  0
 15 16  1  0
M  END
