
     RDKit          3D

 17 17  0  0  0  0  0  0  0  0999 V2000
    4.0830   -1.1160   -0.3590 C   0  0  0  0  0  0  0  0  0  0  0  0
    3.1380    0.0730   -0.3300 C   0  0  1  0  0  0  0  0  0  0  0  0
    1.9950   -0.2570    0.4390 O   0  0  0  0  0  0  0  0  0  0  0  0
    0.7160   -0.2780   -0.0930 C   0  0  0  0  0  0  0  0  0  0  0  0
    0.5870    0.0100   -1.3080 O   0  0  0  0  0  0  0  0  0  0  0  0
   -0.4590   -0.6280    0.7390 C   0  0  0  0  0  0  0  0  0  0  0  0
   -1.7090   -0.5680   -0.1050 C   0  0  1  0  0  0  0  0  0  0  0  0
   -2.8830   -0.8980    0.6500 N   0  0  0  0  0  0  0  0  0  0  0  0
   -4.0970   -0.4690    0.0280 C   0  0  1  0  0  0  0  0  0  0  0  0
   -4.5450    0.7420    0.5790 O   0  0  0  0  0  0  0  0  0  0  0  0
   -3.9330   -0.2200   -1.4710 C   0  0  0  0  0  0  0  0  0  0  0  0
   -3.0160    0.8850   -1.5600 O   0  0  0  0  0  0  0  0  0  0  0  0
   -1.9150    0.7840   -0.6900 C   0  0  0  0  0  0  0  0  0  0  0  0
   -1.1720    1.7680   -0.4370 O   0  0  0  0  0  0  0  0  0  0  0  0
    3.7700    1.2560    0.2810 C   0  0  0  0  0  0  0  0  0  0  0  0
    4.9860    1.2600    0.7310 N   0  0  0  0  0  0  0  0  0  0  0  0
    3.0330    2.4170    0.3790 O   0  0  0  0  0  0  0  0  0  0  0  0
  2  1  1  1
  2  3  1  0
  2 15  1  0
  3  4  1  0
  4  5  2  0
  4  6  1  0
  7  6  1  1
  7  8  1  0
  7 13  1  0
  8  9  1  0
  9 10  1  1
  9 11  1  0
 11 12  1  0
 12 13  1  0
 13 14  2  0
 15 16  2  0
 15 17  1  0
M  END
