
     RDKit          3D

 17 18  0  0  0  0  0  0  0  0999 V2000
    0.5810   -1.1140   -1.0630 O   0  0  0  0  0  0  0  0  0  0  0  0
    0.1730   -0.2920   -0.2060 C   0  0  0  0  0  0  0  0  0  0  0  0
    1.1300    0.6110    0.3320 N   0  0  0  0  0  0  0  0  0  0  0  0
    2.5090    0.6670   -0.0130 C   0  0  2  0  0  0  0  0  0  0  0  0
    3.4360    0.5120    1.1860 C   0  0  0  0  0  0  0  0  0  0  0  0
    4.6990    1.1400    0.6890 C   0  0  0  0  0  0  0  0  0  0  0  0
    4.3520    1.9210   -0.4560 O   0  0  0  0  0  0  0  0  0  0  0  0
    2.9570    1.9490   -0.5710 C   0  0  0  0  0  0  0  0  0  0  0  0
    2.3400    2.9160   -1.0630 O   0  0  0  0  0  0  0  0  0  0  0  0
   -1.1970   -0.3000    0.1810 N   0  0  0  0  0  0  0  0  0  0  0  0
   -2.1390   -1.2460   -0.4010 C   0  0  1  0  0  0  0  0  0  0  0  0
   -2.8680   -2.0150    0.6380 C   0  0  0  0  0  0  0  0  0  0  0  0
   -2.4440   -3.1130    1.1220 O   0  0  0  0  0  0  0  0  0  0  0  0
   -4.0360   -1.3390    0.9590 O   0  0  0  0  0  0  0  0  0  0  0  0
   -4.1340   -0.1500    0.1680 C   0  0  0  0  0  0  0  0  0  0  0  0
   -3.2640   -0.4560   -1.0380 C   0  0  2  0  0  0  0  0  0  0  0  0
   -3.9710   -1.2470   -1.9270 O   0  0  0  0  0  0  0  0  0  0  0  0
  1  2  2  0
  2  3  1  0
  2 10  1  0
  4  3  1  1
  4  5  1  0
  4  8  1  0
  5  6  1  0
  6  7  1  0
  7  8  1  0
  8  9  2  0
 11 10  1  1
 11 12  1  0
 11 16  1  0
 12 13  2  0
 12 14  1  0
 14 15  1  0
 15 16  1  0
 16 17  1  6
M  END
