
     RDKit          3D

 17 17  0  0  0  0  0  0  0  0999 V2000
   -2.7850   -2.1570   -0.4930 N   0  0  0  0  0  0  0  0  0  0  0  0
   -2.2720   -0.7950   -0.5750 C   0  0  0  0  0  0  0  0  0  0  0  0
   -1.8490   -0.3360    0.7790 C   0  0  2  0  0  0  0  0  0  0  0  0
   -1.3460    0.9100    0.9030 O   0  0  0  0  0  0  0  0  0  0  0  0
   -1.4470    1.8120   -0.1130 C   0  0  0  0  0  0  0  0  0  0  0  0
   -0.1970    2.6430   -0.3100 C   0  0  0  0  0  0  0  0  0  0  0  0
    0.8410    2.1600    0.5020 O   0  0  0  0  0  0  0  0  0  0  0  0
    2.1820    2.0290    0.2750 C   0  0  0  0  0  0  0  0  0  0  0  0
    2.9840    2.7770    0.9390 O   0  0  0  0  0  0  0  0  0  0  0  0
    2.8460    1.1590   -0.6170 N   0  0  0  0  0  0  0  0  0  0  0  0
    2.7300   -0.2980   -0.6490 C   0  0  0  0  0  0  0  0  0  0  0  0
    1.3860   -0.6070   -0.0510 C   0  0  2  0  0  0  0  0  0  0  0  0
    1.4730   -0.2700    1.2910 O   0  0  0  0  0  0  0  0  0  0  0  0
    0.9360   -2.0140   -0.1460 C   0  0  0  0  0  0  0  0  0  0  0  0
   -0.1110   -2.2190    0.7620 O   0  0  0  0  0  0  0  0  0  0  0  0
   -0.9750   -1.3790    1.3840 C   0  0  0  0  0  0  0  0  0  0  0  0
   -1.0700   -1.4790    2.6630 O   0  0  0  0  0  0  0  0  0  0  0  0
  1  2  1  0
  3  2  1  6
  3  4  1  0
  3 16  1  0
  4  5  1  0
  5  6  1  0
  6  7  1  0
  7  8  1  0
  8  9  2  0
  8 10  1  0
 10 11  1  0
 11 12  1  0
 12 13  1  1
 12 14  1  0
 14 15  1  0
 15 16  1  0
 16 17  2  0
M  END
