
     RDKit          3D

 17 17  0  0  0  0  0  0  0  0999 V2000
   -2.6880    1.5210   -1.6350 O   0  0  0  0  0  0  0  0  0  0  0  0
   -2.4170    0.6550   -0.7390 C   0  0  0  0  0  0  0  0  0  0  0  0
   -1.8550    1.2080    0.5240 C   0  0  0  0  0  0  0  0  0  0  0  0
   -0.9120    2.1970    0.2690 O   0  0  0  0  0  0  0  0  0  0  0  0
    0.3200    2.3950    0.7940 C   0  0  0  0  0  0  0  0  0  0  0  0
    1.3710    1.6400    0.4480 C   0  0  0  0  0  0  0  0  0  0  0  0
    1.3360    0.5300   -0.5160 C   0  0  1  0  0  0  0  0  0  0  0  0
    2.5010    0.7750   -1.4880 C   0  0  0  0  0  0  0  0  0  0  0  0
    3.6960    0.7890   -0.7840 O   0  0  0  0  0  0  0  0  0  0  0  0
    1.5130   -0.8210    0.1400 C   0  0  1  0  0  0  0  0  0  0  0  0
    1.5790   -0.7020    1.5350 O   0  0  0  0  0  0  0  0  0  0  0  0
    0.3370   -1.6910   -0.2750 C   0  0  0  0  0  0  0  0  0  0  0  0
   -0.4410   -2.0930    0.8110 O   0  0  0  0  0  0  0  0  0  0  0  0
   -1.8220   -2.0260    0.9420 C   0  0  0  0  0  0  0  0  0  0  0  0
   -2.2790   -2.2300    2.1330 O   0  0  0  0  0  0  0  0  0  0  0  0
   -2.7330   -1.7570   -0.1170 N   0  0  0  0  0  0  0  0  0  0  0  0
   -2.6640   -0.6890   -1.0140 N   0  0  0  0  0  0  0  0  0  0  0  0
  1  2  2  0
  2  3  1  0
  2 17  1  0
  3  4  1  0
  4  5  1  0
  5  6  2  0
  6  7  1  0
  7  8  1  6
  7 10  1  0
  8  9  1  0
 10 11  1  1
 10 12  1  0
 12 13  1  0
 13 14  1  0
 14 15  2  0
 14 16  1  0
 16 17  1  0
M  END
