
     RDKit          3D

 18 18  0  0  0  0  0  0  0  0999 V2000
    5.8000    1.2740    1.6490 N   0  0  0  0  0  0  0  0  0  0  0  0
    4.9690    0.8970    0.5630 C   0  0  0  0  0  0  0  0  0  0  0  0
    5.3180    1.1070   -0.6150 O   0  0  0  0  0  0  0  0  0  0  0  0
    3.7070    0.2620    0.8340 N   0  0  0  0  0  0  0  0  0  0  0  0
    2.8640   -0.1210   -0.2430 C   0  0  0  0  0  0  0  0  0  0  0  0
    3.2740    0.1190   -1.4060 O   0  0  0  0  0  0  0  0  0  0  0  0
    1.5820   -0.7650   -0.0020 C   0  0  0  0  0  0  0  0  0  0  0  0
    1.1880   -0.9970    1.1590 O   0  0  0  0  0  0  0  0  0  0  0  0
    0.8050   -1.1150   -1.0760 O   0  0  0  0  0  0  0  0  0  0  0  0
   -0.4470   -1.7360   -0.9650 C   0  0  0  0  0  0  0  0  0  0  0  0
   -1.4490   -0.8910   -0.2210 C   0  0  2  0  0  0  0  0  0  0  0  0
   -2.7500   -1.6410   -0.0050 C   0  0  0  0  0  0  0  0  0  0  0  0
   -3.6220   -0.8070    0.6890 O   0  0  0  0  0  0  0  0  0  0  0  0
   -3.9230    0.2480   -0.2040 C   0  0  0  0  0  0  0  0  0  0  0  0
   -2.6740    1.0600   -0.3520 C   0  0  1  0  0  0  0  0  0  0  0  0
   -2.2250    1.6280    0.9970 C   0  0  0  0  0  0  0  0  0  0  0  0
   -3.2260    2.4460    1.5230 F   0  0  0  0  0  0  0  0  0  0  0  0
   -1.6430    0.3140   -0.8630 O   0  0  0  0  0  0  0  0  0  0  0  0
  1  2  1  0
  2  3  2  0
  2  4  1  0
  4  5  1  0
  5  6  2  0
  5  7  1  0
  7  8  2  0
  7  9  1  0
  9 10  1  0
 11 10  1  6
 11 12  1  0
 11 18  1  0
 12 13  1  0
 13 14  1  0
 14 15  1  0
 15 16  1  1
 15 18  1  0
 16 17  1  0
M  END
