
     RDKit          3D

 18 19  0  0  0  0  0  0  0  0999 V2000
    5.1220    0.2850    1.1390 O   0  0  0  0  0  0  0  0  0  0  0  0
    3.9380    0.1990    0.7040 C   0  0  0  0  0  0  0  0  0  0  0  0
    3.5340   -0.8170   -0.0790 N   0  0  0  0  0  0  0  0  0  0  0  0
    2.2840   -0.9360   -0.5560 C   0  0  0  0  0  0  0  0  0  0  0  0
    1.9930   -1.9230   -1.2850 O   0  0  0  0  0  0  0  0  0  0  0  0
    1.3670   -0.0040   -0.2500 N   0  0  0  0  0  0  0  0  0  0  0  0
    0.0220   -0.1180   -0.7530 C   0  0  2  0  0  0  0  0  0  0  0  0
   -0.6830    1.0380   -0.4470 O   0  0  0  0  0  0  0  0  0  0  0  0
   -2.0110    0.7130   -0.3160 C   0  0  2  0  0  0  0  0  0  0  0  0
   -2.4860    0.9950    1.1170 C   0  0  0  0  0  0  0  0  0  0  0  0
   -2.3220    2.3440    1.4170 O   0  0  0  0  0  0  0  0  0  0  0  0
   -2.1570   -0.7830   -0.5080 C   0  0  1  0  0  0  0  0  0  0  0  0
   -2.3150   -1.0700   -1.8440 O   0  0  0  0  0  0  0  0  0  0  0  0
   -0.7780   -1.1900   -0.0270 C   0  0  1  0  0  0  0  0  0  0  0  0
   -0.4370   -2.4670   -0.4190 O   0  0  0  0  0  0  0  0  0  0  0  0
    1.7180    1.0390    0.5340 C   0  0  0  0  0  0  0  0  0  0  0  0
    2.9910    1.1590    1.0200 C   0  0  0  0  0  0  0  0  0  0  0  0
    3.3410    2.1900    1.7960 F   0  0  0  0  0  0  0  0  0  0  0  0
  1  2  2  0
  2  3  1  0
  2 17  1  0
  3  4  1  0
  4  5  2  0
  4  6  1  0
  7  6  1  1
  6 16  1  0
  7  8  1  0
  7 14  1  0
  8  9  1  0
  9 10  1  1
  9 12  1  0
 10 11  1  0
 12 13  1  6
 12 14  1  0
 14 15  1  6
 16 17  2  0
 17 18  1  0
M  END
