
     RDKit          3D

 16 17  0  0  0  0  0  0  0  0999 V2000
   -4.4190   -0.8690   -0.8470 C   0  0  0  0  0  0  0  0  0  0  0  0
   -3.0770   -0.7990   -0.1490 C   0  0  2  0  0  0  0  0  0  0  0  0
   -3.3150   -0.1000    1.1750 C   0  0  0  0  0  0  0  0  0  0  0  0
   -2.0750    0.1530    1.9370 C   0  0  0  0  0  0  0  0  0  0  0  0
   -0.8700    0.5760    1.1240 C   0  0  0  0  0  0  0  0  0  0  0  0
   -0.7280   -0.1590   -0.1660 C   0  0  2  0  0  0  0  0  0  0  0  0
    0.3880    0.3160   -1.0080 C   0  0  0  0  0  0  0  0  0  0  0  0
    1.7730    0.2520   -0.5410 C   0  0  1  0  0  0  0  0  0  0  0  0
    2.1580    1.0060    0.6960 C   0  0  0  0  0  0  0  0  0  0  0  0
    3.6630    1.3360    0.4730 C   0  0  0  0  0  0  0  0  0  0  0  0
    4.3800    0.0260    0.2530 C   0  0  2  0  0  0  0  0  0  0  0  0
    5.5700    0.3310   -0.4290 O   0  0  0  0  0  0  0  0  0  0  0  0
    3.6380   -0.9920   -0.5260 C   0  0  0  0  0  0  0  0  0  0  0  0
    2.2760   -1.0470   -0.3520 O   0  0  0  0  0  0  0  0  0  0  0  0
   -2.0740    0.0030   -0.9090 C   0  0  1  0  0  0  0  0  0  0  0  0
   -1.9170   -0.4150   -2.2880 N   0  0  0  0  0  0  0  0  0  0  0  0
  2  1  1  6
  2  3  1  0
  2 15  1  0
  3  4  1  0
  4  5  1  0
  5  6  1  0
  6  7  1  6
  6 15  1  0
  8  7  1  1
  8  9  1  0
  8 14  1  0
  9 10  1  0
 10 11  1  0
 11 12  1  6
 11 13  1  0
 13 14  1  0
 15 16  1  6
M  CHG  1  16   1
M  END
