
     RDKit          3D

 16 17  0  0  0  0  0  0  0  0999 V2000
    0.5210   -0.7010    1.6810 N   0  0  0  0  0  0  0  0  0  0  0  0
    0.2870   -0.4480    0.2830 C   0  0  2  0  0  0  0  0  0  0  0  0
    1.1870    0.5330   -0.3560 C   0  0  0  0  0  0  0  0  0  0  0  0
    2.6060    0.1830   -0.3550 C   0  0  0  0  0  0  0  0  0  0  0  0
    3.1240   -0.9280    0.1370 C   0  0  0  0  0  0  0  0  0  0  0  0
    4.5800   -1.2480    0.1210 C   0  0  0  0  0  0  0  0  0  0  0  0
    5.3620   -0.2600   -0.4710 O   0  0  0  0  0  0  0  0  0  0  0  0
    4.8630    0.9190   -1.0000 C   0  0  0  0  0  0  0  0  0  0  0  0
    3.5790    1.1230   -0.9450 C   0  0  0  0  0  0  0  0  0  0  0  0
   -1.1750   -0.1960    0.0550 C   0  0  1  0  0  0  0  0  0  0  0  0
   -1.7800    0.8620    0.8880 C   0  0  0  0  0  0  0  0  0  0  0  0
   -2.8910    1.5250    0.0900 C   0  0  0  0  0  0  0  0  0  0  0  0
   -4.0390    0.5970   -0.1430 C   0  0  0  0  0  0  0  0  0  0  0  0
   -3.7470   -0.6390   -0.8790 C   0  0  0  0  0  0  0  0  0  0  0  0
   -2.5390   -0.6650   -1.7390 C   0  0  0  0  0  0  0  0  0  0  0  0
   -1.4660    0.0560   -1.2870 O   0  0  0  0  0  0  0  0  0  0  0  0
  2  1  1  1
  2  3  1  0
  2 10  1  0
  3  4  1  0
  4  5  2  0
  4  9  1  0
  5  6  1  0
  6  7  1  0
  7  8  1  0
  8  9  2  0
 10 11  1  1
 10 16  1  0
 11 12  1  0
 12 13  1  0
 13 14  1  0
 14 15  1  0
 15 16  1  0
M  CHG  1   1   1
M  END
