
     RDKit          3D

 16 17  0  0  0  0  0  0  0  0999 V2000
   -1.8720    1.1990   -1.3110 N   0  0  0  0  0  0  0  0  0  0  0  0
   -1.4210   -0.0860   -0.8630 C   0  0  1  0  0  0  0  0  0  0  0  0
    0.1200   -0.0420   -0.7430 C   0  0  0  0  0  0  0  0  0  0  0  0
    0.4110    0.3000    0.6590 C   0  0  0  0  0  0  0  0  0  0  0  0
    1.5390    0.4800    1.2970 C   0  0  0  0  0  0  0  0  0  0  0  0
    2.8660    0.3750    0.7250 C   0  0  0  0  0  0  0  0  0  0  0  0
    3.9670    0.5780    1.4540 C   0  0  0  0  0  0  0  0  0  0  0  0
    5.1270    0.3950    0.5720 C   0  0  0  0  0  0  0  0  0  0  0  0
    4.5380    0.0660   -0.7330 C   0  0  0  0  0  0  0  0  0  0  0  0
    3.2110    0.0560   -0.6390 C   0  0  0  0  0  0  0  0  0  0  0  0
   -0.9280    0.4240    1.3150 C   0  0  0  0  0  0  0  0  0  0  0  0
   -1.1450    1.1360    2.3230 O   0  0  0  0  0  0  0  0  0  0  0  0
   -1.8170   -0.4430    0.5140 C   0  0  1  0  0  0  0  0  0  0  0  0
   -3.2640   -0.2730    0.8410 C   0  0  0  0  0  0  0  0  0  0  0  0
   -4.0690   -1.1530   -0.0880 C   0  0  0  0  0  0  0  0  0  0  0  0
   -3.6970   -2.4820    0.0860 O   0  0  0  0  0  0  0  0  0  0  0  0
  2  1  1  1
  2  3  1  0
  2 13  1  0
  3  4  1  0
  4  5  2  3
  4 11  1  0
  5  6  1  0
  6  7  2  0
  6 10  1  0
  7  8  1  0
  8  9  1  0
  9 10  2  0
 11 12  2  0
 11 13  1  0
 13 14  1  6
 14 15  1  0
 15 16  1  0
M  CHG  1   1   1
M  END
