
     RDKit          3D

 16 17  0  0  0  0  0  0  0  0999 V2000
   -3.5340   -1.5570   -0.0910 C   0  0  0  0  0  0  0  0  0  0  0  0
   -2.2320   -0.7910   -0.1690 C   0  0  2  0  0  0  0  0  0  0  0  0
   -2.2300    0.1960    0.8910 N   0  0  0  0  0  0  0  0  0  0  0  0
   -1.2920    1.2130    0.4330 C   0  0  1  0  0  0  0  0  0  0  0  0
    0.0560    0.7310    0.4700 C   0  0  0  0  0  0  0  0  0  0  0  0
    1.2080    0.3110    0.5220 C   0  0  0  0  0  0  0  0  0  0  0  0
    2.5840   -0.2000    0.5770 C   0  0  0  0  0  0  0  0  0  0  0  0
    2.9520   -1.1300    1.5560 C   0  0  0  0  0  0  0  0  0  0  0  0
    4.2200   -1.5840    1.7020 C   0  0  0  0  0  0  0  0  0  0  0  0
    5.1820   -1.0870    0.8250 C   0  0  0  0  0  0  0  0  0  0  0  0
    4.8360   -0.1760   -0.1420 C   0  0  0  0  0  0  0  0  0  0  0  0
    3.5550    0.2640   -0.2710 C   0  0  0  0  0  0  0  0  0  0  0  0
   -1.7110    1.3870   -1.0330 C   0  0  2  0  0  0  0  0  0  0  0  0
   -2.7270    2.3390   -1.1700 O   0  0  0  0  0  0  0  0  0  0  0  0
   -2.1450    0.0230   -1.4200 C   0  0  2  0  0  0  0  0  0  0  0  0
   -3.3400    0.0040   -2.1480 O   0  0  0  0  0  0  0  0  0  0  0  0
  2  1  1  6
  2  3  1  0
  2 15  1  0
  3  4  1  0
  4  5  1  6
  4 13  1  0
  5  6  3  0
  6  7  1  0
  7  8  2  0
  7 12  1  0
  8  9  1  0
  9 10  2  0
 10 11  1  0
 11 12  2  0
 13 14  1  1
 13 15  1  0
 15 16  1  1
M  CHG  1   3   1
M  END
