
     RDKit          3D

 16 17  0  0  0  0  0  0  0  0999 V2000
   -0.8860    1.2310   -1.3340 C   0  0  0  0  0  0  0  0  0  0  0  0
   -1.1270   -0.1470   -0.7680 C   0  0  1  0  0  0  0  0  0  0  0  0
   -0.2130   -0.4750    0.2980 N   0  0  0  0  0  0  0  0  0  0  0  0
    1.1650   -0.3180   -0.0420 C   0  0  2  0  0  0  0  0  0  0  0  0
    1.9670   -1.5850    0.2890 C   0  0  0  0  0  0  0  0  0  0  0  0
    3.3640   -1.3240   -0.2870 C   0  0  0  0  0  0  0  0  0  0  0  0
    3.9860   -0.2840    0.6430 C   0  0  0  0  0  0  0  0  0  0  0  0
    3.2090    0.9830    0.6230 C   0  0  1  0  0  0  0  0  0  0  0  0
    3.5510    1.7370   -0.5130 O   0  0  0  0  0  0  0  0  0  0  0  0
    1.7310    0.8170    0.7660 C   0  0  0  0  0  0  0  0  0  0  0  0
   -2.5000   -0.1760   -0.1960 C   0  0  0  0  0  0  0  0  0  0  0  0
   -3.3160    0.8660   -0.2140 C   0  0  0  0  0  0  0  0  0  0  0  0
   -4.6790    0.8690    0.3440 C   0  0  0  0  0  0  0  0  0  0  0  0
   -5.0710   -0.3400    0.9140 O   0  0  0  0  0  0  0  0  0  0  0  0
   -4.2350   -1.4460    0.9460 C   0  0  0  0  0  0  0  0  0  0  0  0
   -3.0150   -1.3970    0.4290 C   0  0  0  0  0  0  0  0  0  0  0  0
  2  1  1  1
  2  3  1  0
  2 11  1  0
  4  3  1  1
  4  5  1  0
  4 10  1  0
  5  6  1  0
  6  7  1  0
  7  8  1  0
  8  9  1  6
  8 10  1  0
 11 12  2  0
 11 16  1  0
 12 13  1  0
 13 14  1  0
 14 15  1  0
 15 16  2  0
M  CHG  1   3   1
M  END
