
     RDKit          3D

 16 16  0  0  0  0  0  0  0  0999 V2000
   -2.2740   -2.4940   -0.1520 C   0  0  0  0  0  0  0  0  0  0  0  0
   -2.0110   -1.0810   -0.6310 C   0  0  2  0  0  0  0  0  0  0  0  0
   -2.0470   -1.0210   -2.0170 O   0  0  0  0  0  0  0  0  0  0  0  0
   -0.7380   -0.5170   -0.0920 C   0  0  0  0  0  0  0  0  0  0  0  0
    0.1390   -1.4670    0.6410 C   0  0  0  0  0  0  0  0  0  0  0  0
    1.5310   -0.9650    0.5080 C   0  0  0  0  0  0  0  0  0  0  0  0
    2.0410    0.2220    0.8320 C   0  0  0  0  0  0  0  0  0  0  0  0
    3.5330    0.3110    0.5330 C   0  0  0  0  0  0  0  0  0  0  0  0
    4.1000   -0.8890    0.0160 N   0  0  0  0  0  0  0  0  0  0  0  0
    1.3740    1.3630    1.4390 C   0  0  0  0  0  0  0  0  0  0  0  0
    0.6760    2.4030    1.0100 C   0  0  0  0  0  0  0  0  0  0  0  0
    0.2710    2.8640   -0.2860 C   0  0  0  0  0  0  0  0  0  0  0  0
   -0.6650    2.5290   -1.1590 C   0  0  0  0  0  0  0  0  0  0  0  0
   -1.5940    1.5610   -1.0570 O   0  0  0  0  0  0  0  0  0  0  0  0
   -2.8340    1.2660   -0.6370 C   0  0  0  0  0  0  0  0  0  0  0  0
   -3.0980   -0.1370   -0.1410 C   0  0  0  0  0  0  0  0  0  0  0  0
  2  1  1  6
  2  3  1  0
  2  4  1  0
  2 16  1  0
  4  5  1  0
  5  6  1  0
  6  7  2  0
  7  8  1  0
  7 10  1  0
  8  9  1  0
 10 11  2  0
 11 12  1  0
 12 13  2  0
 13 14  1  0
 14 15  1  0
 15 16  1  0
M  CHG  1   9   1
M  END
