
     RDKit          3D

 16 17  0  0  0  0  0  0  0  0999 V2000
   -4.4000   -0.5580    0.4130 C   0  0  0  0  0  0  0  0  0  0  0  0
   -3.3540    0.4310    0.8160 C   0  0  0  0  0  0  0  0  0  0  0  0
   -2.3790    0.7620   -0.2830 C   0  0  2  0  0  0  0  0  0  0  0  0
   -3.0750    1.3570   -1.4880 C   0  0  0  0  0  0  0  0  0  0  0  0
   -1.5830   -0.4160   -0.7480 C   0  0  1  0  0  0  0  0  0  0  0  0
   -0.6900    0.0340   -1.7980 N   0  0  0  0  0  0  0  0  0  0  0  0
   -0.8160   -1.0710    0.3370 C   0  0  0  0  0  0  0  0  0  0  0  0
    0.4690   -0.8770    0.5300 C   0  0  0  0  0  0  0  0  0  0  0  0
    1.2860   -1.5020    1.5960 C   0  0  0  0  0  0  0  0  0  0  0  0
    2.6570   -1.5620    0.9090 C   0  0  0  0  0  0  0  0  0  0  0  0
    2.6550   -0.2190    0.1990 C   0  0  1  0  0  0  0  0  0  0  0  0
    3.1150    0.8160    1.1790 C   0  0  0  0  0  0  0  0  0  0  0  0
    4.0160    1.6850    0.3180 C   0  0  0  0  0  0  0  0  0  0  0  0
    4.5780    0.8220   -0.5920 O   0  0  0  0  0  0  0  0  0  0  0  0
    3.6510   -0.1450   -0.9080 C   0  0  0  0  0  0  0  0  0  0  0  0
    1.3290   -0.0580   -0.2080 O   0  0  0  0  0  0  0  0  0  0  0  0
  1  2  1  0
  2  3  1  0
  3  4  1  6
  3  5  1  0
  5  6  1  6
  5  7  1  0
  7  8  2  3
  8  9  1  0
  8 16  1  0
  9 10  1  0
 11 10  1  1
 11 12  1  0
 11 15  1  0
 11 16  1  0
 12 13  1  0
 13 14  1  0
 14 15  1  0
M  CHG  1   6   1
M  END
