
     RDKit          3D

 28 29  0  0  0  0  0  0  0  0999 V2000
   -2.6660   -1.9160    2.2290 C   0  0  0  0  0  0  0  0  0  0  0  0
   -3.1380   -1.2400    1.1250 O   0  0  0  0  0  0  0  0  0  0  0  0
   -3.5070    0.0610    1.3490 C   0  0  2  0  0  0  0  0  0  0  0  0
   -4.9540    0.3520    1.1310 C   0  0  0  0  0  0  0  0  0  0  0  0
   -5.2780    0.8950   -0.2360 C   0  0  0  0  0  0  0  0  0  0  0  0
   -4.1740    0.5330   -1.2250 C   0  0  1  0  0  0  0  0  0  0  0  0
   -4.5470    1.0280   -2.5910 C   0  0  0  0  0  0  0  0  0  0  0  0
   -3.5080    0.6780   -3.4760 O   0  0  0  0  0  0  0  0  0  0  0  0
   -2.9830    1.3530   -0.7510 C   0  0  2  0  0  0  0  0  0  0  0  0
   -1.9370    1.2950   -1.6680 O   0  0  0  0  0  0  0  0  0  0  0  0
   -2.5580    0.9650    0.6230 C   0  0  2  0  0  0  0  0  0  0  0  0
   -1.2680    0.2790    0.4780 N   0  0  0  0  0  0  0  0  0  0  0  0
   -0.0640    0.7750    0.9860 C   0  0  0  0  0  0  0  0  0  0  0  0
   -0.0860    1.8690    1.6020 O   0  0  0  0  0  0  0  0  0  0  0  0
    1.1840   -0.0050    0.7810 C   0  0  2  0  0  0  0  0  0  0  0  0
    2.1280    0.8350   -0.0580 C   0  0  0  0  0  0  0  0  0  0  0  0
    3.2470    0.1230   -0.4180 O   0  0  0  0  0  0  0  0  0  0  0  0
    3.3390   -1.1250    0.1760 C   0  0  2  0  0  0  0  0  0  0  0  0
    4.4570   -1.8720   -0.5240 C   0  0  2  0  0  0  0  0  0  0  0  0
    4.5850   -3.1300    0.0400 O   0  0  0  0  0  0  0  0  0  0  0  0
    5.7360   -1.1450   -0.4450 C   0  0  0  0  0  0  0  0  0  0  0  0
    6.7220   -1.6940    0.0800 O   0  0  0  0  0  0  0  0  0  0  0  0
    5.9100    0.1440   -0.9310 O   0  0  0  0  0  0  0  0  0  0  0  0
    7.1410    0.7670   -0.8240 C   0  0  0  0  0  0  0  0  0  0  0  0
    7.2710    2.0850   -1.3360 N   0  0  0  0  0  0  0  0  0  0  0  0
    8.1450    0.2190   -0.2940 O   0  0  0  0  0  0  0  0  0  0  0  0
    2.0650   -1.9140   -0.0800 C   0  0  0  0  0  0  0  0  0  0  0  0
    0.9260   -1.1630    0.0770 O   0  0  0  0  0  0  0  0  0  0  0  0
  1  2  1  0
  3  2  1  6
  3  4  1  0
  3 11  1  0
  4  5  1  0
  5  6  1  0
  6  7  1  6
  6  9  1  0
  7  8  1  0
  9 10  1  6
  9 11  1  0
 11 12  1  6
 12 13  1  0
 13 14  2  0
 15 13  1  6
 15 16  1  0
 15 28  1  0
 16 17  1  0
 17 18  1  0
 18 19  1  0
 18 27  1  6
 19 20  1  1
 19 21  1  0
 21 22  2  0
 21 23  1  0
 23 24  1  0
 24 25  1  0
 24 26  2  0
 27 28  1  0
M  END
