
     RDKit          3D

 16 17  0  0  0  0  0  0  0  0999 V2000
   -1.6190    3.1390    0.3620 C   0  0  0  0  0  0  0  0  0  0  0  0
   -1.0780    2.0850   -0.5100 N   0  0  0  0  0  0  0  0  0  0  0  0
   -1.1410    0.8590    0.2260 C   0  0  1  0  0  0  0  0  0  0  0  0
   -2.5270    0.3180    0.1640 C   0  0  0  0  0  0  0  0  0  0  0  0
   -2.6300   -0.9470    1.0280 C   0  0  0  0  0  0  0  0  0  0  0  0
   -1.7050   -1.9460    0.3220 C   0  0  2  0  0  0  0  0  0  0  0  0
   -1.8880   -3.3340    0.8220 C   0  0  0  0  0  0  0  0  0  0  0  0
   -0.2990   -1.4340    0.5330 C   0  0  0  0  0  0  0  0  0  0  0  0
   -0.0760   -0.1280   -0.1710 C   0  0  1  0  0  0  0  0  0  0  0  0
   -0.0070   -0.3800   -1.6390 C   0  0  0  0  0  0  0  0  0  0  0  0
    1.5030   -0.6180   -1.8050 C   0  0  0  0  0  0  0  0  0  0  0  0
    2.0000    0.4190   -0.8180 C   0  0  2  0  0  0  0  0  0  0  0  0
    3.4270    0.0690   -0.4450 C   0  0  0  0  0  0  0  0  0  0  0  0
    4.0020    1.0560    0.5390 C   0  0  0  0  0  0  0  0  0  0  0  0
    3.2800    1.1070    1.7210 O   0  0  0  0  0  0  0  0  0  0  0  0
    1.1420    0.3790    0.2470 O   0  0  0  0  0  0  0  0  0  0  0  0
  1  2  1  0
  3  2  1  6
  3  4  1  0
  3  9  1  0
  4  5  1  0
  5  6  1  0
  6  7  1  1
  6  8  1  0
  9  8  1  1
  9 10  1  0
  9 16  1  0
 10 11  1  0
 11 12  1  0
 12 13  1  1
 12 16  1  0
 13 14  1  0
 14 15  1  0
M  CHG  1   2   1
M  END
