
     RDKit          3D

 19 20  0  0  0  0  0  0  0  0999 V2000
    3.2950   -2.5670    1.0090 C   0  0  0  0  0  0  0  0  0  0  0  0
    3.4710   -1.1860    0.7240 N   0  0  0  0  0  0  0  0  0  0  0  0
    2.8200   -0.4380   -0.0590 C   0  0  0  0  0  0  0  0  0  0  0  0
    1.7280   -0.9200   -0.8220 N   0  0  0  0  0  0  0  0  0  0  0  0
    0.7330   -1.7950   -0.2970 C   0  0  1  0  0  0  0  0  0  0  0  0
    0.0470   -1.2630    0.9360 C   0  0  0  0  0  0  0  0  0  0  0  0
   -1.0610   -0.4480    0.3800 C   0  0  0  0  0  0  0  0  0  0  0  0
   -1.9350    0.1880    1.0650 N   0  0  0  0  0  0  0  0  0  0  0  0
   -2.9700    0.9500    0.4910 C   0  0  0  0  0  0  0  0  0  0  0  0
   -4.0710    0.3740    0.0550 C   0  0  0  0  0  0  0  0  0  0  0  0
   -4.2850   -1.0300    0.1340 N   0  0  0  0  0  0  0  0  0  0  0  0
   -5.0880    1.1330   -0.5110 O   0  0  0  0  0  0  0  0  0  0  0  0
   -6.2380    1.3690    0.2940 C   0  0  0  0  0  0  0  0  0  0  0  0
   -0.9300   -0.5330   -1.0920 C   0  0  0  0  0  0  0  0  0  0  0  0
   -0.3280   -1.7770   -1.2540 O   0  0  0  0  0  0  0  0  0  0  0  0
    3.1860    1.0060   -0.2320 C   0  0  0  0  0  0  0  0  0  0  0  0
    4.1190    1.7150    0.3100 C   0  0  0  0  0  0  0  0  0  0  0  0
    3.7480    2.9200   -0.3980 C   0  0  0  0  0  0  0  0  0  0  0  0
    2.6940    2.1230   -1.0280 C   0  0  0  0  0  0  0  0  0  0  0  0
  1  2  1  0
  2  3  2  3
  3  4  1  0
  3 16  1  0
  5  4  1  6
  5  6  1  0
  5 15  1  0
  6  7  1  0
  7  8  2  3
  7 14  1  0
  8  9  1  0
  9 10  2  3
 10 11  1  0
 10 12  1  0
 12 13  1  0
 14 15  1  0
 16 17  2  0
 16 19  1  0
 17 18  1  0
 18 19  1  0
M  CHG  1   2   1
M  END
