
     RDKit          3D

 19 21  0  0  0  0  0  0  0  0999 V2000
   -0.1280   -2.5670   -0.7130 C   0  0  0  0  0  0  0  0  0  0  0  0
    0.0810   -1.2330   -1.0940 O   0  0  0  0  0  0  0  0  0  0  0  0
   -0.4030   -0.1190   -0.5160 C   0  0  0  0  0  0  0  0  0  0  0  0
   -1.6610    0.2510   -0.6980 C   0  0  0  0  0  0  0  0  0  0  0  0
   -2.8390   -0.5210   -0.7170 N   0  0  0  0  0  0  0  0  0  0  0  0
   -3.9770   -0.1660    0.1720 C   0  0  0  0  0  0  0  0  0  0  0  0
   -3.4650    0.8880    1.0610 N   0  0  0  0  0  0  0  0  0  0  0  0
   -2.1080    0.8120    1.4380 C   0  0  0  0  0  0  0  0  0  0  0  0
   -1.0980    1.6950    0.7370 C   0  0  2  0  0  0  0  0  0  0  0  0
   -1.5970    1.7030   -0.7040 N   0  0  0  0  0  0  0  0  0  0  0  0
    0.1700    0.9240    0.3790 C   0  0  0  0  0  0  0  0  0  0  0  0
    1.3940    1.0440    0.6780 C   0  0  0  0  0  0  0  0  0  0  0  0
    2.5130    0.2400    0.2520 C   0  0  0  0  0  0  0  0  0  0  0  0
    3.7660    0.7460   -0.0790 C   0  0  0  0  0  0  0  0  0  0  0  0
    4.5540   -0.3060   -0.4280 C   0  0  0  0  0  0  0  0  0  0  0  0
    5.9200   -0.3050   -0.8440 C   0  0  0  0  0  0  0  0  0  0  0  0
    7.0430   -0.2990   -1.1650 N   0  0  0  0  0  0  0  0  0  0  0  0
    3.7500   -1.4380   -0.2970 C   0  0  0  0  0  0  0  0  0  0  0  0
    2.5810   -1.0570    0.0990 O   0  0  0  0  0  0  0  0  0  0  0  0
  1  2  1  0
  2  3  1  0
  3  4  2  0
  3 11  1  0
  4  5  1  0
  4 10  1  0
  5  6  1  0
  6  7  1  0
  7  8  1  0
  9  8  1  1
  9 10  1  0
  9 11  1  0
 11 12  2  3
 12 13  1  0
 13 14  2  0
 13 19  1  0
 14 15  1  0
 15 16  1  0
 15 18  2  0
 16 17  3  0
 18 19  1  0
M  CHG  1  10   1
M  END
