
     RDKit          3D

 10 10  0  0  0  0  0  0  0  0999 V2000
    2.0370   -1.1160    1.3460 O   0  0  0  0  0  0  0  0  0  0  0  0
    2.2890   -0.5670    0.0950 C   0  0  0  0  0  0  0  0  0  0  0  0
    1.0270   -0.0020   -0.5200 C   0  0  1  0  0  0  0  0  0  0  0  0
    0.0700   -1.0130   -0.6710 O   0  0  0  0  0  0  0  0  0  0  0  0
   -0.8680   -0.8980    0.3530 C   0  0  0  0  0  0  0  0  0  0  0  0
   -1.7150    0.3350    0.0050 C   0  0  1  0  0  0  0  0  0  0  0  0
   -2.4230    0.7210    1.1260 O   0  0  0  0  0  0  0  0  0  0  0  0
   -0.7020    1.4080   -0.3600 C   0  0  2  0  0  0  0  0  0  0  0  0
   -0.5030    1.3540   -1.7480 O   0  0  0  0  0  0  0  0  0  0  0  0
    0.4940    1.0270    0.2550 O   0  0  0  0  0  0  0  0  0  0  0  0
  1  2  1  0
  3  2  1  1
  3  4  1  0
  3 10  1  0
  4  5  1  0
  5  6  1  0
  6  7  1  1
  6  8  1  0
  8  9  1  6
  8 10  1  0
M  END
