
     RDKit          3D

 19 21  0  0  0  0  0  0  0  0999 V2000
    1.7480    1.4960   -0.1660 C   0  0  0  0  0  0  0  0  0  0  0  0
    1.5420    0.0160   -0.5140 C   0  0  1  0  0  0  0  0  0  0  0  0
    2.6710   -0.7290    0.1610 C   0  0  0  0  0  0  0  0  0  0  0  0
    3.9810   -0.2020   -0.3840 C   0  0  0  0  0  0  0  0  0  0  0  0
    5.1510   -0.9330    0.2770 C   0  0  0  0  0  0  0  0  0  0  0  0
    6.3580   -0.4490   -0.2230 O   0  0  0  0  0  0  0  0  0  0  0  0
    0.2240   -0.3560    0.0530 C   0  0  0  0  0  0  0  0  0  0  0  0
    0.0300   -1.2120    0.9900 N   0  0  0  0  0  0  0  0  0  0  0  0
   -1.2850   -1.5340    1.4890 C   0  0  0  0  0  0  0  0  0  0  0  0
   -1.4550   -2.6460    2.1100 O   0  0  0  0  0  0  0  0  0  0  0  0
   -2.3740   -0.6220    1.2890 C   0  0  2  0  0  0  0  0  0  0  0  0
   -3.7000   -1.1580    1.0520 N   0  0  0  0  0  0  0  0  0  0  0  0
   -4.3870   -0.0670    0.3940 C   0  0  0  0  0  0  0  0  0  0  0  0
   -5.6060    0.4270    0.1570 N   0  0  0  0  0  0  0  0  0  0  0  0
   -5.4880    1.5640   -0.5880 C   0  0  0  0  0  0  0  0  0  0  0  0
   -4.1380    1.7350   -0.7920 C   0  0  0  0  0  0  0  0  0  0  0  0
   -3.4640    0.7440   -0.1960 N   0  0  0  0  0  0  0  0  0  0  0  0
   -2.1430    0.2120    0.0540 C   0  0  0  0  0  0  0  0  0  0  0  0
   -0.9470    0.3720   -0.4230 C   0  0  0  0  0  0  0  0  0  0  0  0
  2  1  1  1
  2  3  1  0
  2  7  1  0
  3  4  1  0
  4  5  1  0
  5  6  1  0
  7  8  2  0
  7 19  1  0
  8  9  1  0
  9 10  2  0
  9 11  1  0
 11 12  1  6
 11 18  1  0
 12 13  1  0
 13 14  2  0
 13 17  1  0
 14 15  1  0
 15 16  2  0
 16 17  1  0
 17 18  1  0
 18 19  2  0
M  CHG  1  14   1
M  END
