
     RDKit          3D

 19 21  0  0  0  0  0  0  0  0999 V2000
   -3.8010   -1.8110   -0.7250 C   0  0  0  0  0  0  0  0  0  0  0  0
   -2.9470   -0.5980   -0.7600 C   0  0  2  0  0  0  0  0  0  0  0  0
   -1.9620   -0.5480    0.3140 N   0  0  0  0  0  0  0  0  0  0  0  0
   -1.5810    0.8390    0.4590 C   0  0  1  0  0  0  0  0  0  0  0  0
   -0.1840    1.0270    0.0130 C   0  0  0  0  0  0  0  0  0  0  0  0
    0.8540    0.1920    0.3540 C   0  0  0  0  0  0  0  0  0  0  0  0
    1.9780    0.6550   -0.2210 N   0  0  0  0  0  0  0  0  0  0  0  0
    3.2450    0.0310   -0.0760 C   0  0  0  0  0  0  0  0  0  0  0  0
    3.3350   -1.3330   -0.0840 C   0  0  0  0  0  0  0  0  0  0  0  0
    4.5940   -1.8950    0.0600 C   0  0  0  0  0  0  0  0  0  0  0  0
    5.7230   -1.1170    0.2060 C   0  0  0  0  0  0  0  0  0  0  0  0
    5.6140    0.2390    0.2110 C   0  0  0  0  0  0  0  0  0  0  0  0
    4.3560    0.7990    0.0670 C   0  0  0  0  0  0  0  0  0  0  0  0
    1.6620    1.7450   -0.9010 N   0  0  0  0  0  0  0  0  0  0  0  0
    0.3620    1.9750   -0.7650 N   0  0  0  0  0  0  0  0  0  0  0  0
   -2.5540    1.6550   -0.3570 C   0  0  2  0  0  0  0  0  0  0  0  0
   -2.9100    2.8430    0.2550 O   0  0  0  0  0  0  0  0  0  0  0  0
   -3.7290    0.6870   -0.4590 C   0  0  2  0  0  0  0  0  0  0  0  0
   -4.3070    0.6370    0.8020 O   0  0  0  0  0  0  0  0  0  0  0  0
  2  1  1  1
  2  3  1  0
  2 18  1  0
  3  4  1  0
  4  5  1  6
  4 16  1  0
  5  6  2  0
  5 15  1  0
  6  7  1  0
  7  8  1  0
  7 14  1  0
  8  9  2  0
  8 13  1  0
  9 10  1  0
 10 11  2  0
 11 12  1  0
 12 13  2  0
 14 15  2  0
 16 17  1  1
 16 18  1  0
 18 19  1  1
M  CHG  1   3   1
M  END
