
     RDKit          3D

 19 21  0  0  0  0  0  0  0  0999 V2000
   -2.8380    1.7550   -0.5780 C   0  0  0  0  0  0  0  0  0  0  0  0
   -2.8590    0.2330   -0.4030 C   0  0  1  0  0  0  0  0  0  0  0  0
   -1.4480   -0.3010   -0.3750 C   0  0  2  0  0  0  0  0  0  0  0  0
   -1.4710   -1.6650   -0.2290 O   0  0  0  0  0  0  0  0  0  0  0  0
   -0.7200    0.4170    0.7410 C   0  0  0  0  0  0  0  0  0  0  0  0
    0.7060   -0.0610    0.8380 C   0  0  0  0  0  0  0  0  0  0  0  0
    1.7750    0.4460    0.2010 N   0  0  0  0  0  0  0  0  0  0  0  0
    2.8860   -0.2330    0.5280 C   0  0  0  0  0  0  0  0  0  0  0  0
    4.2580   -0.0110    0.0620 C   0  0  0  0  0  0  0  0  0  0  0  0
    5.3430   -0.6870    0.3930 C   0  0  0  0  0  0  0  0  0  0  0  0
    6.4900   -0.1640   -0.2740 N   0  0  0  0  0  0  0  0  0  0  0  0
    6.0000    0.9050   -1.0500 C   0  0  0  0  0  0  0  0  0  0  0  0
    4.6930    1.0190   -0.8730 C   0  0  0  0  0  0  0  0  0  0  0  0
    2.4770   -1.1800    1.3900 N   0  0  0  0  0  0  0  0  0  0  0  0
    1.1680   -1.0820    1.5800 N   0  0  0  0  0  0  0  0  0  0  0  0
   -3.6050   -0.0410    0.8730 C   0  0  0  0  0  0  0  0  0  0  0  0
   -5.0160   -0.2670    0.3100 C   0  0  0  0  0  0  0  0  0  0  0  0
   -4.6430   -0.9920   -0.9700 C   0  0  0  0  0  0  0  0  0  0  0  0
   -3.5570   -0.3090   -1.4450 O   0  0  0  0  0  0  0  0  0  0  0  0
  2  1  1  6
  2  3  1  0
  2 16  1  0
  2 19  1  0
  3  4  1  1
  3  5  1  0
  5  6  1  0
  6  7  2  0
  6 15  1  0
  7  8  1  0
  8  9  1  0
  8 14  2  0
  9 10  2  0
  9 13  1  0
 10 11  1  0
 11 12  1  0
 12 13  2  0
 14 15  1  0
 16 17  1  0
 17 18  1  0
 18 19  1  0
M  CHG  1  11   1
M  END
