
     RDKit          3D

 19 21  0  0  0  0  0  0  0  0999 V2000
   -3.9480   -1.0980    0.3870 C   0  0  0  0  0  0  0  0  0  0  0  0
   -2.8770   -0.5670   -0.5620 C   0  0  2  0  0  0  0  0  0  0  0  0
   -1.6520   -1.4260   -0.5480 C   0  0  0  0  0  0  0  0  0  0  0  0
   -0.9810   -1.2400    0.8040 C   0  0  0  0  0  0  0  0  0  0  0  0
   -0.4910    0.1660    0.9870 C   0  0  1  0  0  0  0  0  0  0  0  0
    0.8290    0.3820    0.3150 C   0  0  0  0  0  0  0  0  0  0  0  0
    0.9360    1.2460   -0.5880 O   0  0  0  0  0  0  0  0  0  0  0  0
    1.9660   -0.3710    0.6770 N   0  0  0  0  0  0  0  0  0  0  0  0
    3.2490   -0.2290    0.0910 C   0  0  0  0  0  0  0  0  0  0  0  0
    3.6240    0.6390   -0.9080 C   0  0  0  0  0  0  0  0  0  0  0  0
    4.9450    0.4200   -1.1450 N   0  0  0  0  0  0  0  0  0  0  0  0
    5.3950   -0.5330   -0.3460 C   0  0  0  0  0  0  0  0  0  0  0  0
    4.3800   -0.9680    0.4410 C   0  0  0  0  0  0  0  0  0  0  0  0
    4.4010   -1.9600    1.4280 O   0  0  0  0  0  0  0  0  0  0  0  0
   -1.4560    1.1450    0.5410 N   0  0  0  0  0  0  0  0  0  0  0  0
   -1.4980    2.4840    0.7060 C   0  0  0  0  0  0  0  0  0  0  0  0
   -2.6160    3.0050    0.1020 C   0  0  0  0  0  0  0  0  0  0  0  0
   -3.2580    1.9570   -0.4360 N   0  0  0  0  0  0  0  0  0  0  0  0
   -2.5460    0.8190   -0.1660 C   0  0  0  0  0  0  0  0  0  0  0  0
  2  1  1  1
  2  3  1  0
  2 19  1  0
  3  4  1  0
  4  5  1  0
  5  6  1  6
  5 15  1  0
  6  7  2  0
  6  8  1  0
  8  9  1  0
  9 10  2  0
  9 13  1  0
 10 11  1  0
 11 12  1  0
 12 13  2  0
 13 14  1  0
 15 16  1  0
 15 19  1  0
 16 17  2  0
 17 18  1  0
 18 19  2  0
M  CHG  1  18   1
M  END
