
     RDKit          3D

 19 21  0  0  0  0  0  0  0  0999 V2000
   -2.8620   -2.0770    1.0400 C   0  0  0  0  0  0  0  0  0  0  0  0
   -1.3990   -1.6130    0.7700 C   0  0  0  0  0  0  0  0  0  0  0  0
   -1.5130   -0.3090    0.1450 C   0  0  1  0  0  0  0  0  0  0  0  0
   -2.2690    0.6240    1.1230 C   0  0  0  0  0  0  0  0  0  0  0  0
   -3.0000    1.5610    0.2990 N   0  0  0  0  0  0  0  0  0  0  0  0
   -2.1970    2.0940   -0.7340 C   0  0  0  0  0  0  0  0  0  0  0  0
   -2.6460    2.8620   -1.6280 O   0  0  0  0  0  0  0  0  0  0  0  0
   -0.7820    1.7500   -0.7830 C   0  0  0  0  0  0  0  0  0  0  0  0
    0.2980    2.4070   -1.1890 N   0  0  0  0  0  0  0  0  0  0  0  0
    1.4120    1.6380   -1.0160 C   0  0  0  0  0  0  0  0  0  0  0  0
    2.7990    1.9750   -1.3300 C   0  0  0  0  0  0  0  0  0  0  0  0
    0.9700    0.4420   -0.4700 C   0  0  0  0  0  0  0  0  0  0  0  0
    1.8110   -0.7080   -0.0940 C   0  0  0  0  0  0  0  0  0  0  0  0
    1.4660   -1.8190    0.4080 N   0  0  0  0  0  0  0  0  0  0  0  0
    2.4600   -2.7120    0.6590 N   0  0  0  0  0  0  0  0  0  0  0  0
    3.6640   -2.0940    0.2590 C   0  0  0  0  0  0  0  0  0  0  0  0
    4.8330   -2.6030    0.3290 O   0  0  0  0  0  0  0  0  0  0  0  0
    3.2760   -0.7590   -0.2450 C   0  0  0  0  0  0  0  0  0  0  0  0
   -0.3900    0.4660   -0.3090 C   0  0  0  0  0  0  0  0  0  0  0  0
  1  2  1  0
  3  2  1  1
  3  4  1  0
  3 19  1  0
  4  5  1  0
  5  6  1  0
  6  7  2  0
  6  8  1  0
  8  9  1  0
  8 19  2  0
  9 10  1  0
 10 11  1  0
 10 12  2  0
 12 13  1  0
 12 19  1  0
 13 14  2  0
 13 18  1  0
 14 15  1  0
 15 16  1  0
 16 17  2  0
 16 18  1  0
M  CHG  1   5   1
M  END
