
     RDKit          3D

 19 20  0  0  0  0  0  0  0  0999 V2000
    3.3940   -2.4850    0.5650 C   0  0  0  0  0  0  0  0  0  0  0  0
    2.6640   -1.5320   -0.1690 O   0  0  0  0  0  0  0  0  0  0  0  0
    1.3090   -1.5970   -0.2350 C   0  0  0  0  0  0  0  0  0  0  0  0
    0.3910   -0.6610   -0.1220 C   0  0  0  0  0  0  0  0  0  0  0  0
   -1.0600   -0.9420   -0.2250 C   0  0  0  0  0  0  0  0  0  0  0  0
   -1.9560   -1.9180   -0.4220 C   0  0  0  0  0  0  0  0  0  0  0  0
   -3.3060   -1.2990   -0.3700 C   0  0  0  0  0  0  0  0  0  0  0  0
   -3.0510    0.1230   -0.1240 C   0  0  0  0  0  0  0  0  0  0  0  0
   -1.7300    0.3020   -0.0440 C   0  0  0  0  0  0  0  0  0  0  0  0
   -0.6510    1.2880    0.1600 C   0  0  0  0  0  0  0  0  0  0  0  0
   -0.9160    2.6140    0.3530 O   0  0  0  0  0  0  0  0  0  0  0  0
   -0.1710    3.7110    0.0390 C   0  0  1  0  0  0  0  0  0  0  0  0
    0.2860    3.8360   -1.2640 F   0  0  0  0  0  0  0  0  0  0  0  0
   -1.3410    4.6490   -0.1840 F   0  0  0  0  0  0  0  0  0  0  0  0
    0.4210    4.4620    0.9930 F   0  0  0  0  0  0  0  0  0  0  0  0
    0.5170    0.7620    0.1200 N   0  0  0  0  0  0  0  0  0  0  0  0
    1.7450    1.4350    0.2260 C   0  0  0  0  0  0  0  0  0  0  0  0
    1.9920    2.5490    0.5940 O   0  0  0  0  0  0  0  0  0  0  0  0
    2.8960    0.7450   -0.1540 O   0  0  0  0  0  0  0  0  0  0  0  0
  1  2  1  0
  2  3  1  0
  3  4  2  3
  4  5  1  0
  4 16  1  0
  5  6  2  0
  5  9  1  0
  6  7  1  0
  7  8  1  0
  8  9  2  0
  9 10  1  0
 10 11  1  0
 10 16  2  0
 11 12  1  0
 12 13  1  6
 12 14  1  0
 12 15  1  0
 16 17  1  0
 17 18  2  0
 17 19  1  0
M  CHG  2  16   1  19  -1
M  END
