
     RDKit          3D

 19 20  0  0  0  0  0  0  0  0999 V2000
   -1.6550    2.0650   -0.1300 C   0  0  0  0  0  0  0  0  0  0  0  0
   -1.5170    0.7700   -0.0290 C   0  0  0  0  0  0  0  0  0  0  0  0
   -2.5800   -0.1870    0.2240 C   0  0  0  0  0  0  0  0  0  0  0  0
   -3.8280    0.1760    0.3790 C   0  0  0  0  0  0  0  0  0  0  0  0
   -4.3200    1.4500    0.3320 O   0  0  0  0  0  0  0  0  0  0  0  0
   -2.2260   -1.5500    0.3000 O   0  0  0  0  0  0  0  0  0  0  0  0
   -0.9260   -2.0460    0.2970 C   0  0  0  0  0  0  0  0  0  0  0  0
   -0.0960   -1.2430   -0.6360 C   0  0  1  0  0  0  0  0  0  0  0  0
   -0.1640    0.1790   -0.1780 C   0  0  0  0  0  0  0  0  0  0  0  0
    1.0470    0.6100   -0.0020 C   0  0  0  0  0  0  0  0  0  0  0  0
    1.9730   -0.4870   -0.3270 C   0  0  0  0  0  0  0  0  0  0  0  0
    3.4460   -0.3830   -0.2470 C   0  0  0  0  0  0  0  0  0  0  0  0
    4.1680   -1.3790   -0.5460 O   0  0  0  0  0  0  0  0  0  0  0  0
    4.0790    0.8700    0.1770 C   0  0  1  0  0  0  0  0  0  0  0  0
    5.4530    0.7370    0.1770 F   0  0  0  0  0  0  0  0  0  0  0  0
    3.7900    1.9340   -0.6760 F   0  0  0  0  0  0  0  0  0  0  0  0
    3.7200    1.2140    1.4800 F   0  0  0  0  0  0  0  0  0  0  0  0
    1.2940   -1.5220   -0.6810 N   0  0  0  0  0  0  0  0  0  0  0  0
    1.8580   -2.7140   -1.0470 O   0  0  0  0  0  0  0  0  0  0  0  0
  1  2  2  0
  2  3  1  0
  2  9  1  0
  3  4  2  3
  3  6  1  0
  4  5  1  0
  6  7  1  0
  8  7  1  1
  8  9  1  0
  8 18  1  0
  9 10  2  0
 10 11  1  0
 11 12  1  0
 11 18  2  0
 12 13  2  0
 12 14  1  0
 14 15  1  1
 14 16  1  0
 14 17  1  0
 18 19  1  0
M  CHG  2  18   1  19  -1
M  END
