
     RDKit          3D

 18 19  0  0  0  0  0  0  0  0999 V2000
    5.2780   -0.0610    1.3680 O   0  0  0  0  0  0  0  0  0  0  0  0
    4.8200    0.0130    0.0620 C   0  0  0  0  0  0  0  0  0  0  0  0
    3.4470   -0.5250   -0.0080 C   0  0  0  0  0  0  0  0  0  0  0  0
    2.2740    0.1490    0.1440 C   0  0  0  0  0  0  0  0  0  0  0  0
    1.2840   -0.7320    0.0010 N   0  0  0  0  0  0  0  0  0  0  0  0
   -0.1350   -0.5400    0.0680 C   0  0  1  0  0  0  0  0  0  0  0  0
   -0.5070    0.7380    0.4380 O   0  0  0  0  0  0  0  0  0  0  0  0
   -1.7750    1.0880    0.0450 C   0  0  2  0  0  0  0  0  0  0  0  0
   -2.4180    2.0130    1.0700 C   0  0  0  0  0  0  0  0  0  0  0  0
   -1.5960    3.1570    1.1510 O   0  0  0  0  0  0  0  0  0  0  0  0
   -2.7040   -0.0750   -0.1440 C   0  0  1  0  0  0  0  0  0  0  0  0
   -3.9100    0.4090   -0.6560 O   0  0  0  0  0  0  0  0  0  0  0  0
   -2.1730   -1.0900   -1.1280 C   0  0  2  0  0  0  0  0  0  0  0  0
   -2.3880   -2.3670   -0.6260 O   0  0  0  0  0  0  0  0  0  0  0  0
   -0.7040   -0.7940   -1.3170 C   0  0  2  0  0  0  0  0  0  0  0  0
   -0.0320   -1.7990   -1.9840 O   0  0  0  0  0  0  0  0  0  0  0  0
    1.8400   -1.9040   -0.2300 N   0  0  0  0  0  0  0  0  0  0  0  0
    3.1360   -1.8050   -0.2400 N   0  0  0  0  0  0  0  0  0  0  0  0
  1  2  1  0
  2  3  1  0
  3  4  2  0
  3 18  1  0
  4  5  1  0
  6  5  1  6
  5 17  1  0
  6  7  1  0
  6 15  1  0
  7  8  1  0
  8  9  1  1
  8 11  1  0
  9 10  1  0
 11 12  1  6
 11 13  1  0
 13 14  1  1
 13 15  1  0
 15 16  1  1
 17 18  2  0
M  END
