
     RDKit          3D

 19 20  0  0  0  0  0  0  0  0999 V2000
    4.8880    0.5320   -1.1400 C   0  0  0  0  0  0  0  0  0  0  0  0
    3.7220   -0.2590   -0.6040 C   0  0  1  0  0  0  0  0  0  0  0  0
    3.5370   -0.0800    0.8880 C   0  0  0  0  0  0  0  0  0  0  0  0
    2.0680   -0.2730    1.0080 C   0  0  0  0  0  0  0  0  0  0  0  0
    1.5000   -0.0910   -0.1700 C   0  0  0  0  0  0  0  0  0  0  0  0
    0.0550   -0.2000   -0.4380 C   0  0  0  0  0  0  0  0  0  0  0  0
   -0.4110   -0.0120   -1.5890 O   0  0  0  0  0  0  0  0  0  0  0  0
   -0.8440   -0.5140    0.5700 O   0  0  0  0  0  0  0  0  0  0  0  0
   -2.2010   -0.6220    0.3420 C   0  0  0  0  0  0  0  0  0  0  0  0
   -2.8690   -1.7020   -0.0040 C   0  0  0  0  0  0  0  0  0  0  0  0
   -4.3270   -1.3640   -0.1460 C   0  0  0  0  0  0  0  0  0  0  0  0
   -4.3500    0.0320    0.1670 N   0  0  0  0  0  0  0  0  0  0  0  0
   -5.5330    0.7720    0.1580 O   0  0  0  0  0  0  0  0  0  0  0  0
   -3.1690    0.4800    0.4460 C   0  0  0  0  0  0  0  0  0  0  0  0
   -2.8960    1.8920    0.8080 C   0  0  2  0  0  0  0  0  0  0  0  0
   -4.0640    2.6000    0.7930 F   0  0  0  0  0  0  0  0  0  0  0  0
   -2.0590    2.4710   -0.1430 F   0  0  0  0  0  0  0  0  0  0  0  0
   -2.2880    1.9490    2.0470 F   0  0  0  0  0  0  0  0  0  0  0  0
    2.4840    0.2160   -1.0990 O   0  0  0  0  0  0  0  0  0  0  0  0
  2  1  1  6
  2  3  1  0
  2 19  1  0
  3  4  1  0
  4  5  2  0
  5  6  1  0
  5 19  1  0
  6  7  2  0
  6  8  1  0
  8  9  1  0
  9 10  2  0
  9 14  1  0
 10 11  1  0
 11 12  1  0
 12 13  1  0
 12 14  2  0
 14 15  1  0
 15 16  1  1
 15 17  1  0
 15 18  1  0
M  CHG  2  12   1  13  -1
M  END
