
     RDKit          3D

 19 19  0  0  0  0  0  0  0  0999 V2000
    1.2630   -1.1760   -2.2630 O   0  0  0  0  0  0  0  0  0  0  0  0
    1.1980   -0.1840   -1.4690 C   0  0  0  0  0  0  0  0  0  0  0  0
    0.5100    0.9980   -2.1230 C   0  0  0  0  0  0  0  0  0  0  0  0
    0.0910    1.8140   -1.0780 O   0  0  0  0  0  0  0  0  0  0  0  0
   -1.3000    1.7890   -1.1100 C   0  0  0  0  0  0  0  0  0  0  0  0
   -1.8830    0.4010   -1.1360 C   0  0  0  0  0  0  0  0  0  0  0  0
   -2.4700    0.1570    0.1650 N   0  0  0  0  0  0  0  0  0  0  0  0
   -3.2910    1.2210    0.5820 O   0  0  0  0  0  0  0  0  0  0  0  0
   -2.2790   -0.8910    0.8800 C   0  0  0  0  0  0  0  0  0  0  0  0
   -1.4950   -2.0830    0.6860 C   0  0  0  0  0  0  0  0  0  0  0  0
   -0.2120   -2.3030    0.9440 C   0  0  0  0  0  0  0  0  0  0  0  0
    0.2060   -3.5970    0.6200 F   0  0  0  0  0  0  0  0  0  0  0  0
    0.8010   -1.4680    1.5530 C   0  0  0  0  0  0  0  0  0  0  0  0
    1.5630   -0.5130    1.0270 C   0  0  0  0  0  0  0  0  0  0  0  0
    2.5100    0.1550    1.9590 C   0  0  0  0  0  0  0  0  0  0  0  0
    3.3140    1.1160    1.5530 C   0  0  0  0  0  0  0  0  0  0  0  0
    4.1540    1.6940    2.4220 F   0  0  0  0  0  0  0  0  0  0  0  0
    3.2980    1.5250    0.2550 F   0  0  0  0  0  0  0  0  0  0  0  0
    1.6190   -0.0450   -0.2390 O   0  0  0  0  0  0  0  0  0  0  0  0
  1  2  2  0
  2  3  1  0
  2 19  1  0
  3  4  1  0
  4  5  1  0
  5  6  1  0
  6  7  1  0
  7  8  1  0
  7  9  2  0
  9 10  1  0
 10 11  2  0
 11 12  1  0
 11 13  1  0
 13 14  2  0
 14 15  1  0
 14 19  1  0
 15 16  2  3
 16 17  1  0
 16 18  1  0
M  CHG  2   7   1   8  -1
M  END
