
     RDKit          3D

 23 23  0  0  0  0  0  0  0  0999 V2000
    6.9310    0.4880    0.1150 C   0  0  0  0  0  0  0  0  0  0  0  0
    5.6290    0.8430   -0.1900 O   0  0  0  0  0  0  0  0  0  0  0  0
    4.9010   -0.2350   -0.7050 C   0  0  0  0  0  0  0  0  0  0  0  0
    3.4820    0.1810   -1.0290 C   0  0  2  0  0  0  0  0  0  0  0  0
    3.4540    1.1900   -1.9620 O   0  0  0  0  0  0  0  0  0  0  0  0
    2.8170    0.5580    0.2690 C   0  0  1  0  0  0  0  0  0  0  0  0
    3.4600    1.6620    0.8280 O   0  0  0  0  0  0  0  0  0  0  0  0
    1.3610    0.9210    0.0980 C   0  0  2  0  0  0  0  0  0  0  0  0
    0.8570    1.2190    1.3620 O   0  0  0  0  0  0  0  0  0  0  0  0
    0.4110   -0.0470    1.7820 C   0  0  0  0  0  0  0  0  0  0  0  0
   -0.3450   -0.4850    0.5010 C   0  0  1  0  0  0  0  0  0  0  0  0
   -1.5140    0.2120    0.5190 O   0  0  0  0  0  0  0  0  0  0  0  0
   -2.6700   -0.5790    0.5150 C   0  0  2  0  0  0  0  0  0  0  0  0
   -2.6490   -1.4020    1.6150 O   0  0  0  0  0  0  0  0  0  0  0  0
   -2.7670   -1.2940   -0.7850 C   0  0  0  0  0  0  0  0  0  0  0  0
   -2.8910   -0.3550   -1.9620 C   0  0  0  0  0  0  0  0  0  0  0  0
   -1.8400    0.5210   -2.1100 O   0  0  0  0  0  0  0  0  0  0  0  0
   -3.8810    0.3580    0.7040 C   0  0  2  0  0  0  0  0  0  0  0  0
   -3.7090    1.0580    1.9180 O   0  0  0  0  0  0  0  0  0  0  0  0
   -5.1490   -0.4160    0.8360 C   0  0  2  0  0  0  0  0  0  0  0  0
   -5.5200   -1.1410   -0.2580 O   0  0  0  0  0  0  0  0  0  0  0  0
   -6.2300    0.4340    1.1460 O   0  0  0  0  0  0  0  0  0  0  0  0
    0.5950   -0.0750   -0.4430 O   0  0  0  0  0  0  0  0  0  0  0  0
  1  2  1  0
  2  3  1  0
  3  4  1  0
  4  5  1  6
  4  6  1  0
  6  7  1  6
  6  8  1  0
  8  9  1  1
  8 23  1  0
  9 10  1  0
 10 11  1  0
 11 12  1  6
 11 23  1  0
 12 13  1  0
 13 14  1  1
 13 15  1  0
 13 18  1  0
 15 16  1  0
 16 17  1  0
 18 19  1  1
 18 20  1  0
 20 21  1  6
 20 22  1  0
M  END
