
     RDKit          3D

 22 22  0  0  0  0  0  0  0  0999 V2000
   -0.4070    1.7500   -0.8140 C   0  0  0  0  0  0  0  0  0  0  0  0
   -1.4930    0.7550   -0.5090 C   0  0  1  0  0  0  0  0  0  0  0  0
   -2.5130    1.0100   -1.4140 O   0  0  0  0  0  0  0  0  0  0  0  0
   -3.6100    0.2390   -1.3280 C   0  0  2  0  0  0  0  0  0  0  0  0
   -4.5500    0.8590   -0.2830 C   0  0  0  0  0  0  0  0  0  0  0  0
   -4.8480    2.1410   -0.7600 O   0  0  0  0  0  0  0  0  0  0  0  0
   -3.4750   -1.0780   -1.0260 O   0  0  0  0  0  0  0  0  0  0  0  0
   -2.4120   -1.4390   -0.2470 C   0  0  1  0  0  0  0  0  0  0  0  0
   -2.1610   -2.8040   -0.3490 O   0  0  0  0  0  0  0  0  0  0  0  0
   -1.1340   -0.6730   -0.6190 C   0  0  1  0  0  0  0  0  0  0  0  0
   -0.8630   -0.9590   -1.9580 O   0  0  0  0  0  0  0  0  0  0  0  0
   -0.0480   -1.2080    0.2220 C   0  0  2  0  0  0  0  0  0  0  0  0
   -0.2760   -1.0560    1.7180 C   0  0  0  0  0  0  0  0  0  0  0  0
   -0.4130    0.2450    2.1200 O   0  0  0  0  0  0  0  0  0  0  0  0
    1.3260   -0.9430   -0.2040 C   0  0  0  0  0  0  0  0  0  0  0  0
    1.5310   -0.3710   -1.3020 O   0  0  0  0  0  0  0  0  0  0  0  0
    2.4510   -1.2800    0.5240 O   0  0  0  0  0  0  0  0  0  0  0  0
    3.7610   -1.0430    0.1450 C   0  0  0  0  0  0  0  0  0  0  0  0
    4.1380    0.3780   -0.0680 C   0  0  2  0  0  0  0  0  0  0  0  0
    5.5030    0.3870   -0.4500 O   0  0  0  0  0  0  0  0  0  0  0  0
    4.0910    1.1920    1.2170 C   0  0  0  0  0  0  0  0  0  0  0  0
    2.7750    1.2380    1.6690 O   0  0  0  0  0  0  0  0  0  0  0  0
  2  1  1  6
  2  3  1  0
  2 10  1  0
  3  4  1  0
  4  5  1  1
  4  7  1  0
  5  6  1  0
  7  8  1  0
  8  9  1  6
  8 10  1  0
 10 11  1  6
 10 12  1  0
 12 13  1  1
 12 15  1  0
 13 14  1  0
 15 16  2  0
 15 17  1  0
 17 18  1  0
 18 19  1  0
 19 20  1  1
 19 21  1  0
 21 22  1  0
M  END
