
     RDKit          3D

 22 23  0  0  0  0  0  0  0  0999 V2000
    4.3700   -0.7760   -1.0090 C   0  0  0  0  0  0  0  0  0  0  0  0
    3.2770   -1.5490   -1.3070 O   0  0  0  0  0  0  0  0  0  0  0  0
    2.0520   -0.9910   -0.9770 C   0  0  0  0  0  0  0  0  0  0  0  0
    2.0060   -0.7400    0.4890 C   0  0  2  0  0  0  0  0  0  0  0  0
    2.1810   -1.9670    1.1550 O   0  0  0  0  0  0  0  0  0  0  0  0
    0.6650   -0.1180    0.9160 C   0  0  2  0  0  0  0  0  0  0  0  0
    0.7280   -0.1050    2.4510 C   0  0  0  0  0  0  0  0  0  0  0  0
   -0.3130   -1.0090    0.5660 O   0  0  0  0  0  0  0  0  0  0  0  0
   -1.5460   -0.4080    0.5050 C   0  0  2  0  0  0  0  0  0  0  0  0
   -2.6780   -1.3840    0.3340 C   0  0  2  0  0  0  0  0  0  0  0  0
   -2.6910   -2.2580    1.4040 O   0  0  0  0  0  0  0  0  0  0  0  0
   -2.5630   -2.1960   -0.9270 C   0  0  0  0  0  0  0  0  0  0  0  0
   -2.5430   -1.3920   -2.0710 O   0  0  0  0  0  0  0  0  0  0  0  0
   -1.5030    0.5630   -0.4720 O   0  0  0  0  0  0  0  0  0  0  0  0
   -0.6230    1.5430   -0.0760 C   0  0  1  0  0  0  0  0  0  0  0  0
    0.5740    1.1260    0.3890 O   0  0  0  0  0  0  0  0  0  0  0  0
   -0.3840    2.4220   -1.2670 C   0  0  0  0  0  0  0  0  0  0  0  0
   -0.0690    2.0940   -2.4400 O   0  0  0  0  0  0  0  0  0  0  0  0
   -0.5650    3.7460   -0.8900 O   0  0  0  0  0  0  0  0  0  0  0  0
   -0.7120    3.8380    0.5150 C   0  0  0  0  0  0  0  0  0  0  0  0
   -1.3610    2.4930    0.8350 C   0  0  1  0  0  0  0  0  0  0  0  0
   -2.6840    2.5900    0.4250 O   0  0  0  0  0  0  0  0  0  0  0  0
  1  2  1  0
  2  3  1  0
  3  4  1  0
  4  5  1  1
  4  6  1  0
  6  7  1  1
  6  8  1  0
  6 16  1  0
  9  8  1  6
  9 10  1  0
  9 14  1  0
 10 11  1  1
 10 12  1  0
 12 13  1  0
 15 14  1  6
 15 16  1  0
 15 17  1  0
 15 21  1  0
 17 18  2  0
 17 19  1  0
 19 20  1  0
 20 21  1  0
 21 22  1  6
M  END
