
     RDKit          3D

 22 23  0  0  0  0  0  0  0  0999 V2000
    4.9980    0.1980    1.3170 O   0  0  0  0  0  0  0  0  0  0  0  0
    4.3390    0.9180    0.5010 C   0  0  0  0  0  0  0  0  0  0  0  0
    5.0470    1.7390   -0.3770 O   0  0  0  0  0  0  0  0  0  0  0  0
    2.9760    0.8290    0.5490 O   0  0  0  0  0  0  0  0  0  0  0  0
    2.2370    0.0230    1.4090 C   0  0  0  0  0  0  0  0  0  0  0  0
    0.7650    0.1360    1.2320 C   0  0  2  0  0  0  0  0  0  0  0  0
    0.2120   -0.7310    2.2220 O   0  0  0  0  0  0  0  0  0  0  0  0
    0.2230   -0.2740   -0.1100 C   0  0  1  0  0  0  0  0  0  0  0  0
    0.7770    0.5300   -1.2310 C   0  0  0  0  0  0  0  0  0  0  0  0
    0.2440    0.1380   -2.4650 O   0  0  0  0  0  0  0  0  0  0  0  0
    0.8040   -1.6930   -0.3140 C   0  0  0  0  0  0  0  0  0  0  0  0
    0.3450   -2.3170   -1.5770 C   0  0  0  0  0  0  0  0  0  0  0  0
   -0.9830   -2.1090   -1.8730 O   0  0  0  0  0  0  0  0  0  0  0  0
   -1.7040   -1.7570   -0.7640 C   0  0  0  0  0  0  0  0  0  0  0  0
   -1.2490   -0.4470   -0.1270 C   0  0  1  0  0  0  0  0  0  0  0  0
   -1.8370   -0.4670    1.1600 O   0  0  0  0  0  0  0  0  0  0  0  0
   -3.1900   -0.5310    0.8090 C   0  0  0  0  0  0  0  0  0  0  0  0
   -3.3460    0.0960   -0.4220 O   0  0  0  0  0  0  0  0  0  0  0  0
   -2.0640    0.6350   -0.7300 C   0  0  1  0  0  0  0  0  0  0  0  0
   -2.0610    1.9350    0.0320 C   0  0  2  0  0  0  0  0  0  0  0  0
   -2.2220    1.7410    1.3980 O   0  0  0  0  0  0  0  0  0  0  0  0
   -3.2320    2.6140   -0.3890 O   0  0  0  0  0  0  0  0  0  0  0  0
  1  2  2  0
  2  3  1  0
  2  4  1  0
  4  5  1  0
  5  6  1  0
  6  7  1  1
  6  8  1  0
  8  9  1  6
  8 11  1  0
  8 15  1  0
  9 10  1  0
 11 12  1  0
 12 13  1  0
 13 14  1  0
 15 14  1  6
 15 16  1  0
 15 19  1  0
 16 17  1  0
 17 18  1  0
 19 18  1  1
 19 20  1  0
 20 21  1  1
 20 22  1  0
M  END
