
     RDKit          3D

 23 24  0  0  0  0  0  0  0  0999 V2000
   -2.7510   -2.1710   -1.6220 O   0  0  0  0  0  0  0  0  0  0  0  0
   -2.8630   -1.1480   -0.8950 C   0  0  0  0  0  0  0  0  0  0  0  0
   -3.1000   -1.2010    0.4750 O   0  0  0  0  0  0  0  0  0  0  0  0
   -2.3710   -0.3650    1.3520 C   0  0  2  0  0  0  0  0  0  0  0  0
   -3.2500    0.3470    2.3340 C   0  0  0  0  0  0  0  0  0  0  0  0
   -2.5700    1.1680    3.1980 O   0  0  0  0  0  0  0  0  0  0  0  0
   -1.5060    0.5290    0.5190 C   0  0  1  0  0  0  0  0  0  0  0  0
   -0.5810   -0.3210   -0.1350 O   0  0  0  0  0  0  0  0  0  0  0  0
    0.7220   -0.0060    0.1670 C   0  0  2  0  0  0  0  0  0  0  0  0
    1.3610    0.3620   -1.0110 O   0  0  0  0  0  0  0  0  0  0  0  0
    2.6700    0.7780   -0.8010 C   0  0  2  0  0  0  0  0  0  0  0  0
    3.3640    0.7910   -2.1480 C   0  0  0  0  0  0  0  0  0  0  0  0
    4.6950    1.1990   -2.0450 O   0  0  0  0  0  0  0  0  0  0  0  0
    3.4360   -0.1950    0.0750 C   0  0  1  0  0  0  0  0  0  0  0  0
    3.4160    0.3000    1.3810 O   0  0  0  0  0  0  0  0  0  0  0  0
    2.6540   -1.4920    0.0910 C   0  0  2  0  0  0  0  0  0  0  0  0
    2.4460   -1.9950   -1.1850 O   0  0  0  0  0  0  0  0  0  0  0  0
    1.3570   -1.2100    0.8130 C   0  0  2  0  0  0  0  0  0  0  0  0
    0.5100   -2.3120    0.8230 O   0  0  0  0  0  0  0  0  0  0  0  0
   -2.2610    1.2260   -0.5940 C   0  0  2  0  0  0  0  0  0  0  0  0
   -3.3690    1.9260   -0.1450 O   0  0  0  0  0  0  0  0  0  0  0  0
   -2.7330    0.1650   -1.5570 C   0  0  2  0  0  0  0  0  0  0  0  0
   -3.9970    0.5080   -2.0580 O   0  0  0  0  0  0  0  0  0  0  0  0
  1  2  2  0
  2  3  1  0
  2 22  1  0
  3  4  1  0
  4  5  1  6
  4  7  1  0
  5  6  1  0
  7  8  1  6
  7 20  1  0
  9  8  1  6
  9 10  1  0
  9 18  1  0
 10 11  1  0
 11 12  1  6
 11 14  1  0
 12 13  1  0
 14 15  1  1
 14 16  1  0
 16 17  1  6
 16 18  1  0
 18 19  1  6
 20 21  1  1
 20 22  1  0
 22 23  1  1
M  END
