
     RDKit          3D

 22 22  0  0  0  0  0  0  0  0999 V2000
    0.9140    2.9880   -2.8170 O   0  0  0  0  0  0  0  0  0  0  0  0
    0.6320    2.4570   -1.7180 C   0  0  0  0  0  0  0  0  0  0  0  0
    1.7420    1.8780   -0.9250 C   0  0  0  0  0  0  0  0  0  0  0  0
    1.3120    1.4590    0.2880 O   0  0  0  0  0  0  0  0  0  0  0  0
    1.5160    0.1260    0.5850 C   0  0  2  0  0  0  0  0  0  0  0  0
    2.8840   -0.1810    1.1070 C   0  0  2  0  0  0  0  0  0  0  0  0
    3.1140    0.5300    2.2740 O   0  0  0  0  0  0  0  0  0  0  0  0
    3.9790    0.0070    0.0920 C   0  0  0  0  0  0  0  0  0  0  0  0
    5.2040   -0.4240    0.6050 O   0  0  0  0  0  0  0  0  0  0  0  0
    1.0560   -0.8150   -0.4900 C   0  0  0  0  0  0  0  0  0  0  0  0
    0.2360   -1.8440    0.0290 O   0  0  0  0  0  0  0  0  0  0  0  0
   -0.5700   -2.4110   -0.9220 C   0  0  0  0  0  0  0  0  0  0  0  0
   -2.0140   -1.9710   -0.8060 C   0  0  1  0  0  0  0  0  0  0  0  0
   -2.8920   -3.0590   -0.9530 O   0  0  0  0  0  0  0  0  0  0  0  0
   -2.2980   -1.3110    0.5150 C   0  0  2  0  0  0  0  0  0  0  0  0
   -2.8250   -2.2080    1.4380 O   0  0  0  0  0  0  0  0  0  0  0  0
   -3.2470   -0.1520    0.2880 C   0  0  2  0  0  0  0  0  0  0  0  0
   -4.2570   -0.5090   -0.6300 O   0  0  0  0  0  0  0  0  0  0  0  0
   -2.5990    0.9450   -0.2640 O   0  0  0  0  0  0  0  0  0  0  0  0
   -1.9480    1.7020    0.7070 C   0  0  0  0  0  0  0  0  0  0  0  0
   -1.0830    2.7520    0.0540 C   0  0  0  0  0  0  0  0  0  0  0  0
   -0.6450    2.3870   -1.2190 O   0  0  0  0  0  0  0  0  0  0  0  0
  1  2  2  0
  2  3  1  0
  2 22  1  0
  3  4  1  0
  4  5  1  0
  5  6  1  0
  5 10  1  6
  6  7  1  1
  6  8  1  0
  8  9  1  0
 10 11  1  0
 11 12  1  0
 12 13  1  0
 13 14  1  1
 13 15  1  0
 15 16  1  1
 15 17  1  0
 17 18  1  6
 17 19  1  0
 19 20  1  0
 20 21  1  0
 21 22  1  0
M  END
