
     RDKit          3D

 22 23  0  0  0  0  0  0  0  0999 V2000
    0.0820   -0.6770   -1.3020 O   0  0  0  0  0  0  0  0  0  0  0  0
   -0.2220   -0.6740   -0.0800 C   0  0  0  0  0  0  0  0  0  0  0  0
    0.7130   -0.9420    0.8450 O   0  0  0  0  0  0  0  0  0  0  0  0
    2.0360   -1.2260    0.6960 C   0  0  0  0  0  0  0  0  0  0  0  0
    3.0000   -0.2200    0.2050 C   0  0  2  0  0  0  0  0  0  0  0  0
    2.9060    0.2580   -1.1970 C   0  0  0  0  0  0  0  0  0  0  0  0
    2.9570   -0.7530   -2.1540 O   0  0  0  0  0  0  0  0  0  0  0  0
    4.2750   -0.8870    0.2610 O   0  0  0  0  0  0  0  0  0  0  0  0
    5.1880    0.0830    0.6300 C   0  0  0  0  0  0  0  0  0  0  0  0
    4.5230    0.6930    1.7070 O   0  0  0  0  0  0  0  0  0  0  0  0
    3.2480    0.9050    1.1890 C   0  0  1  0  0  0  0  0  0  0  0  0
    3.2700    2.1370    0.5380 O   0  0  0  0  0  0  0  0  0  0  0  0
   -1.6710   -0.3590    0.2940 C   0  0  1  0  0  0  0  0  0  0  0  0
   -1.7220   -0.4230    1.6830 O   0  0  0  0  0  0  0  0  0  0  0  0
   -1.9390    1.0260   -0.1360 C   0  0  0  0  0  0  0  0  0  0  0  0
   -3.0950    1.1940   -1.0760 C   0  0  2  0  0  0  0  0  0  0  0  0
   -3.5160    2.5340   -1.0020 O   0  0  0  0  0  0  0  0  0  0  0  0
   -4.2430    0.3640   -0.5350 C   0  0  2  0  0  0  0  0  0  0  0  0
   -4.5390    0.6720    0.7760 O   0  0  0  0  0  0  0  0  0  0  0  0
   -3.8650   -1.0800   -0.7240 C   0  0  0  0  0  0  0  0  0  0  0  0
   -2.5000   -1.4300   -0.2920 C   0  0  2  0  0  0  0  0  0  0  0  0
   -2.6010   -2.4680    0.6650 O   0  0  0  0  0  0  0  0  0  0  0  0
  1  2  2  0
  2  3  1  0
  2 13  1  0
  3  4  1  0
  5  4  1  1
  5  6  1  0
  5  8  1  0
  5 11  1  0
  6  7  1  0
  8  9  1  0
  9 10  1  0
 10 11  1  0
 11 12  1  6
 13 14  1  1
 13 15  1  0
 13 21  1  0
 15 16  1  0
 16 17  1  1
 16 18  1  0
 18 19  1  1
 18 20  1  0
 20 21  1  0
 21 22  1  1
M  END
