
     RDKit          3D

 22 22  0  0  0  0  0  0  0  0999 V2000
   -2.3420   -2.6430   -1.7880 O   0  0  0  0  0  0  0  0  0  0  0  0
   -2.0380   -2.4290   -0.4460 C   0  0  0  0  0  0  0  0  0  0  0  0
   -1.0250   -1.3030   -0.3110 C   0  0  2  0  0  0  0  0  0  0  0  0
   -0.7000   -1.0640    1.0110 O   0  0  0  0  0  0  0  0  0  0  0  0
   -1.5690   -0.0670   -0.9880 C   0  0  0  0  0  0  0  0  0  0  0  0
   -1.6180    1.0920   -0.0200 C   0  0  1  0  0  0  0  0  0  0  0  0
   -1.8840    2.3400   -0.8340 C   0  0  0  0  0  0  0  0  0  0  0  0
   -2.0090    3.4750   -0.0680 O   0  0  0  0  0  0  0  0  0  0  0  0
   -2.8520    0.8880    0.8610 C   0  0  2  0  0  0  0  0  0  0  0  0
   -4.0060    0.8300    0.0810 O   0  0  0  0  0  0  0  0  0  0  0  0
   -2.9320    1.8490    1.8520 O   0  0  0  0  0  0  0  0  0  0  0  0
   -0.4650    1.1530    0.7190 O   0  0  0  0  0  0  0  0  0  0  0  0
    0.5720    1.6130   -0.0590 C   0  0  0  0  0  0  0  0  0  0  0  0
    1.9020    1.6300    0.6340 C   0  0  0  0  0  0  0  0  0  0  0  0
    2.8580    1.1880   -0.2890 O   0  0  0  0  0  0  0  0  0  0  0  0
    3.7890    0.3720    0.3140 C   0  0  2  0  0  0  0  0  0  0  0  0
    5.0490    1.0120    0.3270 O   0  0  0  0  0  0  0  0  0  0  0  0
    3.9580   -0.8540   -0.5660 C   0  0  0  0  0  0  0  0  0  0  0  0
    2.7450   -1.4650   -0.8450 O   0  0  0  0  0  0  0  0  0  0  0  0
    2.1380   -2.0020    0.2730 C   0  0  0  0  0  0  0  0  0  0  0  0
    0.8220   -2.6180   -0.1750 C   0  0  0  0  0  0  0  0  0  0  0  0
    0.1530   -1.6880   -0.9600 O   0  0  0  0  0  0  0  0  0  0  0  0
  1  2  1  0
  2  3  1  0
  3  4  1  1
  3  5  1  0
  3 22  1  0
  5  6  1  0
  6  7  1  6
  6  9  1  0
  6 12  1  0
  7  8  1  0
  9 10  1  6
  9 11  1  0
 12 13  1  0
 13 14  1  0
 14 15  1  0
 15 16  1  0
 16 17  1  6
 16 18  1  0
 18 19  1  0
 19 20  1  0
 20 21  1  0
 21 22  1  0
M  END
