
     RDKit          3D

 23 23  0  0  0  0  0  0  0  0999 V2000
   -3.5810   -1.0610   -1.2950 O   0  0  0  0  0  0  0  0  0  0  0  0
   -3.4410   -0.8610    0.0800 C   0  0  2  0  0  0  0  0  0  0  0  0
   -4.5700   -0.0990    0.4660 O   0  0  0  0  0  0  0  0  0  0  0  0
   -2.2340   -0.0670    0.4050 C   0  0  2  0  0  0  0  0  0  0  0  0
   -2.3960    1.3120   -0.2470 C   0  0  0  0  0  0  0  0  0  0  0  0
   -1.1440    1.7670   -0.6880 O   0  0  0  0  0  0  0  0  0  0  0  0
   -0.6670    2.8090    0.0720 C   0  0  1  0  0  0  0  0  0  0  0  0
   -0.5680    2.5420    1.4180 O   0  0  0  0  0  0  0  0  0  0  0  0
    0.6320    3.2750   -0.5300 C   0  0  1  0  0  0  0  0  0  0  0  0
    0.7400    4.6500   -0.3240 O   0  0  0  0  0  0  0  0  0  0  0  0
    1.8350    2.6260    0.0740 C   0  0  0  0  0  0  0  0  0  0  0  0
    2.0890    1.4240   -0.5580 O   0  0  0  0  0  0  0  0  0  0  0  0
    3.1850    0.7610   -0.0550 C   0  0  0  0  0  0  0  0  0  0  0  0
    3.1100   -0.7190   -0.4360 C   0  0  0  0  0  0  0  0  0  0  0  0
    2.2140   -1.4400    0.5230 C   0  0  1  0  0  0  0  0  0  0  0  0
    1.4030   -0.5310    1.1560 O   0  0  0  0  0  0  0  0  0  0  0  0
    1.4750   -2.5930   -0.0980 C   0  0  1  0  0  0  0  0  0  0  0  0
    1.1540   -3.4930    0.8950 O   0  0  0  0  0  0  0  0  0  0  0  0
    0.3280   -2.1860   -0.9590 C   0  0  1  0  0  0  0  0  0  0  0  0
    0.1060   -3.2060   -1.8880 O   0  0  0  0  0  0  0  0  0  0  0  0
   -0.9430   -1.9140   -0.1490 C   0  0  1  0  0  0  0  0  0  0  0  0
   -0.7700   -2.5090    1.1110 O   0  0  0  0  0  0  0  0  0  0  0  0
   -1.0400   -0.5700    0.0290 O   0  0  0  0  0  0  0  0  0  0  0  0
  2  1  1  6
  2  3  1  0
  2  4  1  0
  4  5  1  6
  4 23  1  0
  5  6  1  0
  6  7  1  0
  7  8  1  1
  7  9  1  0
  9 10  1  1
  9 11  1  0
 11 12  1  0
 12 13  1  0
 13 14  1  0
 14 15  1  0
 15 16  1  6
 15 17  1  0
 17 18  1  1
 17 19  1  0
 19 20  1  6
 19 21  1  0
 21 22  1  1
 21 23  1  0
M  END
