
     RDKit          3D

 11 11  0  0  0  0  0  0  0  0999 V2000
    2.9410    0.3290    0.8390 C   0  0  0  0  0  0  0  0  0  0  0  0
    2.6070    0.6560   -0.5850 C   0  0  0  0  0  0  0  0  0  0  0  0
    1.3320    1.1670   -0.7850 O   0  0  0  0  0  0  0  0  0  0  0  0
    0.1500    0.5210   -0.4800 C   0  0  0  0  0  0  0  0  0  0  0  0
    0.1490   -0.7430    0.0730 C   0  0  0  0  0  0  0  0  0  0  0  0
   -1.0530   -1.3620    0.3670 C   0  0  0  0  0  0  0  0  0  0  0  0
   -2.2780   -0.7730    0.1330 C   0  0  0  0  0  0  0  0  0  0  0  0
   -3.4790   -1.4330    0.4450 O   0  0  0  0  0  0  0  0  0  0  0  0
   -2.2740    0.4890   -0.4190 C   0  0  0  0  0  0  0  0  0  0  0  0
   -3.4520    1.1380   -0.6800 O   0  0  0  0  0  0  0  0  0  0  0  0
   -1.0760    1.1100   -0.7130 C   0  0  0  0  0  0  0  0  0  0  0  0
  1  2  1  0
  2  3  1  0
  3  4  1  0
  4  5  2  0
  4 11  1  0
  5  6  1  0
  6  7  2  0
  7  8  1  0
  7  9  1  0
  9 10  1  0
  9 11  2  0
M  END
