
     RDKit          3D

 23 24  0  0  0  0  0  0  0  0999 V2000
   -3.2810   -2.8520   -1.4770 O   0  0  0  0  0  0  0  0  0  0  0  0
   -3.8320   -1.6030   -1.1970 C   0  0  0  0  0  0  0  0  0  0  0  0
   -3.0380   -0.8660   -0.1390 C   0  0  1  0  0  0  0  0  0  0  0  0
   -1.7490   -0.7030   -0.6250 O   0  0  0  0  0  0  0  0  0  0  0  0
   -0.9180   -0.0250    0.2570 C   0  0  1  0  0  0  0  0  0  0  0  0
    0.2920    0.1850   -0.4050 O   0  0  0  0  0  0  0  0  0  0  0  0
    1.3720   -0.3770    0.2690 C   0  0  2  0  0  0  0  0  0  0  0  0
    2.4470    0.6670    0.4890 C   0  0  1  0  0  0  0  0  0  0  0  0
    2.3340    1.3070    1.8540 C   0  0  0  0  0  0  0  0  0  0  0  0
    3.3640    2.2010    2.0350 O   0  0  0  0  0  0  0  0  0  0  0  0
    3.6850    0.0030    0.4330 O   0  0  0  0  0  0  0  0  0  0  0  0
    4.0480   -0.0050   -0.9280 C   0  0  1  0  0  0  0  0  0  0  0  0
    5.2800   -0.5830   -1.1370 O   0  0  0  0  0  0  0  0  0  0  0  0
    2.9350   -0.7090   -1.6620 C   0  0  1  0  0  0  0  0  0  0  0  0
    3.4960   -1.6690   -2.4710 O   0  0  0  0  0  0  0  0  0  0  0  0
    1.9770   -1.4040   -0.6990 C   0  0  1  0  0  0  0  0  0  0  0  0
    2.6450   -2.4080   -0.0300 O   0  0  0  0  0  0  0  0  0  0  0  0
   -1.5150    1.3300    0.5430 C   0  0  1  0  0  0  0  0  0  0  0  0
   -1.5920    2.0240   -0.6650 O   0  0  0  0  0  0  0  0  0  0  0  0
   -2.9250    1.2270    1.0960 C   0  0  1  0  0  0  0  0  0  0  0  0
   -3.4010    2.5210    1.2750 O   0  0  0  0  0  0  0  0  0  0  0  0
   -3.7330    0.4920    0.0290 C   0  0  2  0  0  0  0  0  0  0  0  0
   -5.0400    0.2970    0.3980 O   0  0  0  0  0  0  0  0  0  0  0  0
  1  2  1  0
  3  2  1  6
  3  4  1  0
  3 22  1  0
  4  5  1  0
  5  6  1  6
  5 18  1  0
  7  6  1  6
  7  8  1  0
  7 16  1  0
  8  9  1  1
  8 11  1  0
  9 10  1  0
 11 12  1  0
 12 13  1  1
 12 14  1  0
 14 15  1  6
 14 16  1  0
 16 17  1  1
 18 19  1  6
 18 20  1  0
 20 21  1  6
 20 22  1  0
 22 23  1  1
M  END
