
     RDKit          3D

 11 11  0  0  0  0  0  0  0  0999 V2000
    3.5510   -0.5430   -1.4350 O   0  0  0  0  0  0  0  0  0  0  0  0
    3.8140   -0.0320   -0.1730 C   0  0  0  0  0  0  0  0  0  0  0  0
    2.6650    0.8550    0.2240 C   0  0  0  0  0  0  0  0  0  0  0  0
    1.3870   -0.0000    0.2370 C   0  0  0  0  0  0  0  0  0  0  0  0
    0.2180    0.8420    0.6270 C   0  0  0  0  0  0  0  0  0  0  0  0
   -1.0380    0.0140    0.6540 C   0  0  2  0  0  0  0  0  0  0  0  0
   -1.2910   -0.5700   -0.7140 C   0  0  0  0  0  0  0  0  0  0  0  0
   -2.4630   -1.3000   -0.6680 O   0  0  0  0  0  0  0  0  0  0  0  0
   -3.5670   -0.6780   -0.1880 C   0  0  0  0  0  0  0  0  0  0  0  0
   -3.3330    0.3120    0.9090 C   0  0  0  0  0  0  0  0  0  0  0  0
   -2.0950    0.8850    0.9130 O   0  0  0  0  0  0  0  0  0  0  0  0
  1  2  1  0
  2  3  1  0
  3  4  1  0
  4  5  1  0
  6  5  1  6
  6  7  1  0
  6 11  1  0
  7  8  1  0
  8  9  1  0
  9 10  1  0
 10 11  1  0
M  END
