
     RDKit          3D

 11 10  0  0  0  0  0  0  0  0999 V2000
    0.3100   -2.3390   -0.4360 C   0  0  0  0  0  0  0  0  0  0  0  0
   -0.0880   -0.9570   -0.0670 C   0  0  0  0  0  0  0  0  0  0  0  0
    0.9450    0.0420    0.1320 C   0  0  0  0  0  0  0  0  0  0  0  0
    2.2310   -0.2910   -0.0200 C   0  0  0  0  0  0  0  0  0  0  0  0
    3.3150    0.6780    0.1690 C   0  0  0  0  0  0  0  0  0  0  0  0
    3.0140    1.8580    0.4840 O   0  0  0  0  0  0  0  0  0  0  0  0
    4.6360    0.3580    0.0180 O   0  0  0  0  0  0  0  0  0  0  0  0
   -1.3560   -0.6770    0.0700 C   0  0  0  0  0  0  0  0  0  0  0  0
   -1.9380    0.6410    0.4330 C   0  0  0  0  0  0  0  0  0  0  0  0
   -2.8570    1.0490   -0.7250 C   0  0  0  0  0  0  0  0  0  0  0  0
   -3.4530    2.2830   -0.4730 O   0  0  0  0  0  0  0  0  0  0  0  0
  1  2  1  0
  2  3  1  0
  2  8  2  3
  3  4  2  3
  4  5  1  0
  5  6  2  0
  5  7  1  0
  8  9  1  0
  9 10  1  0
 10 11  1  0
M  END
