
     RDKit          3D

 11 11  0  0  0  0  0  0  0  0999 V2000
   -0.6060    2.4350    0.0480 C   0  0  0  0  0  0  0  0  0  0  0  0
   -0.4750    1.2850   -0.8890 C   0  0  0  0  0  0  0  0  0  0  0  0
   -0.0370    0.0520   -0.1850 C   0  0  0  0  0  0  0  0  0  0  0  0
   -0.8620   -0.7210    0.6010 C   0  0  0  0  0  0  0  0  0  0  0  0
   -2.3120   -0.4940    0.8990 C   0  0  0  0  0  0  0  0  0  0  0  0
   -2.7400   -1.5200    1.7350 O   0  0  0  0  0  0  0  0  0  0  0  0
   -0.0790   -1.7560    1.0630 C   0  0  0  0  0  0  0  0  0  0  0  0
    1.1140   -1.6040    0.5850 O   0  0  0  0  0  0  0  0  0  0  0  0
    1.2040   -0.5420   -0.1690 C   0  0  0  0  0  0  0  0  0  0  0  0
    2.3450   -0.0700   -0.8490 O   0  0  0  0  0  0  0  0  0  0  0  0
    3.5480   -0.8220   -0.7130 C   0  0  0  0  0  0  0  0  0  0  0  0
  1  2  1  0
  2  3  1  0
  3  4  1  0
  3  9  2  0
  4  5  1  0
  4  7  2  0
  5  6  1  0
  7  8  1  0
  8  9  1  0
  9 10  1  0
 10 11  1  0
M  END
