
     RDKit          3D

 35 39  0  0  0  0  0  0  0  0999 V2000
    1.4820    6.4140    1.9550 C   0  0  0  0  0  0  0  0  0  0  0  0
    1.5400    4.9610    1.5910 C   0  0  0  0  0  0  0  0  0  0  0  0
    2.2850    4.4810    0.5650 C   0  0  0  0  0  0  0  0  0  0  0  0
    2.1350    3.1450    0.1550 C   0  0  0  0  0  0  0  0  0  0  0  0
    1.1920    2.3310    0.7370 C   0  0  0  0  0  0  0  0  0  0  0  0
    1.0810    0.9160    0.4480 C   0  0  1  0  0  0  0  0  0  0  0  0
   -0.0300    0.4580   -0.2870 N   0  0  0  0  0  0  0  0  0  0  0  0
   -0.9660   -0.5260    0.0510 C   0  0  0  0  0  0  0  0  0  0  0  0
   -0.7390   -1.4900    1.0360 C   0  0  0  0  0  0  0  0  0  0  0  0
   -1.7020   -2.4100    1.4120 C   0  0  0  0  0  0  0  0  0  0  0  0
   -2.9410   -2.3710    0.7980 C   0  0  0  0  0  0  0  0  0  0  0  0
   -3.1460   -1.3860   -0.1620 C   0  0  0  0  0  0  0  0  0  0  0  0
   -4.6260   -1.1210   -0.3030 N   0  0  0  0  0  0  0  0  0  0  0  0
   -5.3190   -0.6290    0.7880 C   0  0  0  0  0  0  0  0  0  0  0  0
   -6.6610   -0.7320    0.4740 C   0  0  0  0  0  0  0  0  0  0  0  0
   -6.7150   -1.2250   -0.7820 C   0  0  0  0  0  0  0  0  0  0  0  0
   -7.9870   -1.2990   -1.5870 C   0  0  1  0  0  0  0  0  0  0  0  0
   -7.9010   -2.1180   -2.6690 F   0  0  0  0  0  0  0  0  0  0  0  0
   -9.0090   -1.6510   -0.7830 F   0  0  0  0  0  0  0  0  0  0  0  0
   -8.2640    0.0030   -2.0580 F   0  0  0  0  0  0  0  0  0  0  0  0
   -5.4740   -1.4710   -1.1910 N   0  0  0  0  0  0  0  0  0  0  0  0
   -2.2300   -0.5620   -0.4940 C   0  0  0  0  0  0  0  0  0  0  0  0
    2.3390    0.2140    0.1090 C   0  0  0  0  0  0  0  0  0  0  0  0
    3.5090    0.3460    0.6430 N   0  0  0  0  0  0  0  0  0  0  0  0
    4.4070   -0.4830    0.1560 C   0  0  0  0  0  0  0  0  0  0  0  0
    3.6630   -1.2520   -0.7430 C   0  0  0  0  0  0  0  0  0  0  0  0
    4.2460   -2.3660   -1.5190 C   0  0  0  0  0  0  0  0  0  0  0  0
    5.5460   -2.3300   -2.0570 C   0  0  0  0  0  0  0  0  0  0  0  0
    5.8570   -3.5270   -2.3740 N   0  0  0  0  0  0  0  0  0  0  0  0
    4.9270   -4.3700   -2.2030 N   0  0  0  0  0  0  0  0  0  0  0  0
    4.9440   -5.7020   -2.5130 O   0  0  0  0  0  0  0  0  0  0  0  0
    3.8650   -3.6880   -1.6430 C   0  0  0  0  0  0  0  0  0  0  0  0
    2.4090   -0.8120   -0.7390 N   0  0  0  0  0  0  0  0  0  0  0  0
    0.4790    2.8910    1.7720 C   0  0  0  0  0  0  0  0  0  0  0  0
    0.6210    4.1810    2.1740 N   0  0  0  0  0  0  0  0  0  0  0  0
  1  2  1  0
  2  3  2  0
  2 35  1  0
  3  4  1  0
  4  5  2  0
  5  6  1  0
  5 34  1  0
  6  7  1  6
  6 23  1  0
  7  8  1  0
  8  9  2  0
  8 22  1  0
  9 10  1  0
 10 11  2  0
 11 12  1  0
 12 13  1  0
 12 22  2  0
 13 14  1  0
 13 21  1  0
 14 15  2  0
 15 16  1  0
 16 17  1  0
 16 21  2  0
 17 18  1  6
 17 19  1  0
 17 20  1  0
 23 24  1  0
 23 33  2  0
 24 25  1  0
 25 26  2  0
 26 27  1  0
 26 33  1  0
 27 28  2  0
 27 32  1  0
 28 29  1  0
 29 30  1  0
 30 31  1  0
 30 32  2  0
 34 35  2  0
M  CHG  3  30   1  31  -1  33   1
M  END
