
     RDKit          3D

 36 39  0  0  0  0  0  0  0  0999 V2000
   -4.4690   -2.3080    1.5430 C   0  0  0  0  0  0  0  0  0  0  0  0
   -4.5030   -1.7190    0.1420 C   0  0  1  0  0  0  0  0  0  0  0  0
   -3.7150   -2.6260   -0.8080 C   0  0  0  0  0  0  0  0  0  0  0  0
   -5.9280   -1.7510   -0.3450 C   0  0  0  0  0  0  0  0  0  0  0  0
   -3.9680   -0.3840    0.1800 N   0  0  0  0  0  0  0  0  0  0  0  0
   -4.7520    0.6990    0.2280 C   0  0  0  0  0  0  0  0  0  0  0  0
   -6.0260    0.6190    0.2370 O   0  0  0  0  0  0  0  0  0  0  0  0
   -4.1920    1.9820    0.2710 C   0  0  0  0  0  0  0  0  0  0  0  0
   -2.8280    2.1210    0.2640 C   0  0  0  0  0  0  0  0  0  0  0  0
   -2.2020    3.4800    0.3050 C   0  0  0  0  0  0  0  0  0  0  0  0
   -1.1550    3.5000   -0.6980 N   0  0  0  0  0  0  0  0  0  0  0  0
   -1.2480    4.6040   -1.4950 O   0  0  0  0  0  0  0  0  0  0  0  0
   -2.0490    1.0330    0.2170 N   0  0  0  0  0  0  0  0  0  0  0  0
   -2.6120   -0.1790    0.1760 C   0  0  0  0  0  0  0  0  0  0  0  0
   -1.9000   -1.2650    0.1240 N   0  0  0  0  0  0  0  0  0  0  0  0
   -0.4760   -1.2710    0.1120 C   0  0  0  0  0  0  0  0  0  0  0  0
    0.2470   -1.8720    1.1450 C   0  0  0  0  0  0  0  0  0  0  0  0
    1.6210   -1.8780    1.1120 C   0  0  0  0  0  0  0  0  0  0  0  0
    2.3500   -1.3100    0.0930 C   0  0  0  0  0  0  0  0  0  0  0  0
    3.7730   -1.3790    0.1460 N   0  0  0  0  0  0  0  0  0  0  0  0
    4.4850   -2.5150    0.2730 N   0  0  0  0  0  0  0  0  0  0  0  0
    5.7960   -2.2290    0.2950 C   0  0  0  0  0  0  0  0  0  0  0  0
    6.9380   -3.2040    0.4240 C   0  0  0  0  0  0  0  0  0  0  0  0
    7.3630   -3.6350   -0.8130 F   0  0  0  0  0  0  0  0  0  0  0  0
    5.8630   -0.8950    0.1780 N   0  0  0  0  0  0  0  0  0  0  0  0
    4.6290   -0.3450    0.0850 C   0  0  0  0  0  0  0  0  0  0  0  0
    4.3290    1.0900   -0.0520 C   0  0  0  0  0  0  0  0  0  0  0  0
    4.2600    1.6830   -1.2960 C   0  0  0  0  0  0  0  0  0  0  0  0
    4.4820    0.8990   -2.3770 F   0  0  0  0  0  0  0  0  0  0  0  0
    3.9760    3.0400   -1.4170 C   0  0  0  0  0  0  0  0  0  0  0  0
    3.7580    3.8240   -0.3460 N   0  0  0  0  0  0  0  0  0  0  0  0
    3.8250    3.2480    0.8710 C   0  0  0  0  0  0  0  0  0  0  0  0
    4.1060    1.8960    1.0460 C   0  0  0  0  0  0  0  0  0  0  0  0
    4.1710    1.3300    2.2720 F   0  0  0  0  0  0  0  0  0  0  0  0
    1.6430   -0.7190   -0.9220 C   0  0  0  0  0  0  0  0  0  0  0  0
    0.2530   -0.7020   -0.9080 C   0  0  0  0  0  0  0  0  0  0  0  0
  2  1  1  1
  2  3  1  0
  2  4  1  0
  2  5  1  0
  5  6  1  0
  5 14  1  0
  6  7  2  0
  6  8  1  0
  8  9  2  0
  9 10  1  0
  9 13  1  0
 10 11  1  0
 11 12  1  0
 13 14  1  0
 14 15  2  3
 15 16  1  0
 16 17  2  0
 16 36  1  0
 17 18  1  0
 18 19  2  0
 19 20  1  0
 19 35  1  0
 20 21  1  0
 20 26  1  0
 21 22  2  0
 22 23  1  0
 22 25  1  0
 23 24  1  0
 25 26  2  0
 26 27  1  0
 27 28  2  0
 27 33  1  0
 28 29  1  0
 28 30  1  0
 30 31  2  0
 31 32  1  0
 32 33  2  0
 33 34  1  0
 35 36  2  0
M  CHG  3  11   1  12  -1  31   1
M  END
