
     RDKit          3D

 36 40  0  0  0  0  0  0  0  0999 V2000
    0.9020   -3.0980   -0.6560 O   0  0  0  0  0  0  0  0  0  0  0  0
    0.4590   -1.9410   -0.7950 C   0  0  0  0  0  0  0  0  0  0  0  0
   -0.9380   -1.6450   -0.9470 N   0  0  0  0  0  0  0  0  0  0  0  0
   -0.9780   -0.2320   -1.0710 C   0  0  0  0  0  0  0  0  0  0  0  0
   -2.0810    0.4200   -1.2360 N   0  0  0  0  0  0  0  0  0  0  0  0
   -3.2980   -0.2210   -1.3030 N   0  0  0  0  0  0  0  0  0  0  0  0
   -3.9220   -0.7960   -0.3610 C   0  0  0  0  0  0  0  0  0  0  0  0
   -5.2510   -1.4650   -0.5570 C   0  0  0  0  0  0  0  0  0  0  0  0
   -5.0440   -2.7450    0.2310 C   0  0  0  0  0  0  0  0  0  0  0  0
   -4.2150   -2.3220    1.4100 C   0  0  0  0  0  0  0  0  0  0  0  0
   -3.6000   -0.9830    1.0680 C   0  0  0  0  0  0  0  0  0  0  0  0
    0.3770    0.3030   -0.9930 C   0  0  0  0  0  0  0  0  0  0  0  0
    0.6680    1.7160   -1.1090 C   0  0  0  0  0  0  0  0  0  0  0  0
    1.7050    2.1680   -1.8670 N   0  0  0  0  0  0  0  0  0  0  0  0
    1.7390    3.4880   -1.7810 N   0  0  0  0  0  0  0  0  0  0  0  0
    0.7370    3.8620   -0.9790 C   0  0  0  0  0  0  0  0  0  0  0  0
    0.0570    2.7570   -0.5490 N   0  0  0  0  0  0  0  0  0  0  0  0
   -1.0530    2.7130    0.3130 C   0  0  0  0  0  0  0  0  0  0  0  0
   -2.1920    3.4540   -0.0070 C   0  0  0  0  0  0  0  0  0  0  0  0
   -3.3030    3.4480    0.8130 C   0  0  0  0  0  0  0  0  0  0  0  0
   -3.3010    2.6970    1.9760 C   0  0  0  0  0  0  0  0  0  0  0  0
   -4.4170    2.7240    2.7480 F   0  0  0  0  0  0  0  0  0  0  0  0
   -2.1940    1.9580    2.3150 C   0  0  0  0  0  0  0  0  0  0  0  0
   -1.1020    1.9860    1.4750 C   0  0  0  0  0  0  0  0  0  0  0  0
    1.2380   -0.7300   -0.8260 C   0  0  0  0  0  0  0  0  0  0  0  0
    2.6390   -0.4690   -0.7160 N   0  0  0  0  0  0  0  0  0  0  0  0
    3.6560   -1.4230   -0.5420 C   0  0  0  0  0  0  0  0  0  0  0  0
    3.2840   -2.6280   -0.4790 O   0  0  0  0  0  0  0  0  0  0  0  0
    5.0680   -1.1770   -0.4280 C   0  0  0  0  0  0  0  0  0  0  0  0
    5.6700    0.0430   -0.4560 C   0  0  0  0  0  0  0  0  0  0  0  0
    4.9440    1.1650   -0.5980 F   0  0  0  0  0  0  0  0  0  0  0  0
    7.0640    0.1840   -0.3390 C   0  0  0  0  0  0  0  0  0  0  0  0
    7.8170   -0.9110   -0.1960 N   0  0  0  0  0  0  0  0  0  0  0  0
    7.3020   -2.1470   -0.1590 C   0  0  0  0  0  0  0  0  0  0  0  0
    5.9310   -2.2640   -0.2760 C   0  0  0  0  0  0  0  0  0  0  0  0
    5.3850   -3.5060   -0.2410 F   0  0  0  0  0  0  0  0  0  0  0  0
  1  2  2  0
  2  3  1  0
  2 25  1  0
  3  4  1  0
  4  5  2  3
  4 12  1  0
  5  6  1  0
  6  7  2  3
  7  8  1  0
  7 11  1  0
  8  9  1  0
  9 10  1  0
 10 11  1  0
 12 13  1  0
 12 25  2  0
 13 14  2  0
 13 17  1  0
 14 15  1  0
 15 16  2  0
 16 17  1  0
 17 18  1  0
 18 19  2  0
 18 24  1  0
 19 20  1  0
 20 21  2  0
 21 22  1  0
 21 23  1  0
 23 24  2  0
 25 26  1  0
 26 27  1  0
 27 28  2  0
 27 29  1  0
 29 30  2  0
 29 35  1  0
 30 31  1  0
 30 32  1  0
 32 33  2  0
 33 34  1  0
 34 35  2  0
 35 36  1  0
M  CHG  1  33   1
M  END
