
     RDKit          3D

 36 40  0  0  0  0  0  0  0  0999 V2000
   -1.3000    4.0800    1.8150 C   0  0  0  0  0  0  0  0  0  0  0  0
   -2.4980    4.3230    1.4250 C   0  0  0  0  0  0  0  0  0  0  0  0
   -3.5810    3.4430    1.0890 C   0  0  0  0  0  0  0  0  0  0  0  0
   -4.7400    3.9650    0.8110 C   0  0  0  0  0  0  0  0  0  0  0  0
   -3.3260    2.0220    0.8460 C   0  0  0  0  0  0  0  0  0  0  0  0
   -2.0730    1.6010    0.8410 N   0  0  0  0  0  0  0  0  0  0  0  0
   -1.6630    0.3500    0.5850 C   0  0  0  0  0  0  0  0  0  0  0  0
   -0.1610    0.1090    0.6790 C   0  0  0  0  0  0  0  0  0  0  0  0
    0.5430    0.5720   -0.4960 N   0  0  0  0  0  0  0  0  0  0  0  0
    0.3930    1.8600   -0.9580 C   0  0  0  0  0  0  0  0  0  0  0  0
    0.9930    1.9390   -2.1810 C   0  0  0  0  0  0  0  0  0  0  0  0
    1.5230    0.7090   -2.4830 N   0  0  0  0  0  0  0  0  0  0  0  0
    2.1580    0.4810   -3.6790 O   0  0  0  0  0  0  0  0  0  0  0  0
    1.2390   -0.0720   -1.4440 C   0  0  0  0  0  0  0  0  0  0  0  0
    1.8040   -1.4590   -1.2620 C   0  0  0  0  0  0  0  0  0  0  0  0
    3.1720   -1.3980   -0.8050 N   0  0  0  0  0  0  0  0  0  0  0  0
    4.2440   -1.4800   -1.5570 C   0  0  0  0  0  0  0  0  0  0  0  0
    4.2480   -1.8060   -2.9860 C   0  0  2  0  0  0  0  0  0  0  0  0
    5.2160   -2.8550   -3.1790 F   0  0  0  0  0  0  0  0  0  0  0  0
    4.8240   -0.7830   -3.7180 F   0  0  0  0  0  0  0  0  0  0  0  0
    3.1370   -2.3410   -3.5330 F   0  0  0  0  0  0  0  0  0  0  0  0
    5.5040   -1.2860   -1.0140 N   0  0  0  0  0  0  0  0  0  0  0  0
    5.7360   -1.0100    0.2570 C   0  0  0  0  0  0  0  0  0  0  0  0
    6.8020   -0.7340    1.0310 N   0  0  0  0  0  0  0  0  0  0  0  0
    6.4430   -0.4720    2.2700 C   0  0  0  0  0  0  0  0  0  0  0  0
    5.0710   -0.5820    2.3470 C   0  0  0  0  0  0  0  0  0  0  0  0
    4.6220   -0.9180    1.0760 C   0  0  0  0  0  0  0  0  0  0  0  0
    3.3880   -1.1200    0.4990 C   0  0  0  0  0  0  0  0  0  0  0  0
    2.4490   -1.0260    1.3380 O   0  0  0  0  0  0  0  0  0  0  0  0
   -2.6150   -0.5960    0.2990 C   0  0  0  0  0  0  0  0  0  0  0  0
   -3.9380   -0.2170    0.2830 C   0  0  0  0  0  0  0  0  0  0  0  0
   -5.0100   -1.0960    0.0350 N   0  0  0  0  0  0  0  0  0  0  0  0
   -4.9040   -2.5470   -0.2290 C   0  0  1  0  0  0  0  0  0  0  0  0
   -3.7180   -3.2630   -0.6510 C   0  0  0  0  0  0  0  0  0  0  0  0
   -3.9680   -3.2030    0.8110 C   0  0  0  0  0  0  0  0  0  0  0  0
   -4.2640    1.1170    0.5670 N   0  0  0  0  0  0  0  0  0  0  0  0
  1  2  2  0
  2  3  1  0
  3  4  2  0
  3  5  1  0
  5  6  2  0
  5 36  1  0
  6  7  1  0
  7  8  1  0
  7 30  2  0
  8  9  1  0
  9 10  1  0
  9 14  1  0
 10 11  2  0
 11 12  1  0
 12 13  1  0
 12 14  2  0
 14 15  1  0
 15 16  1  0
 16 17  1  0
 16 28  1  0
 17 18  1  0
 17 22  2  0
 18 19  1  1
 18 20  1  0
 18 21  1  0
 22 23  1  0
 23 24  1  0
 23 27  2  0
 24 25  1  0
 25 26  2  0
 26 27  1  0
 27 28  1  0
 28 29  2  0
 30 31  1  0
 31 32  1  0
 31 36  2  0
 33 32  1  1
 33 34  1  0
 33 35  1  0
 34 35  1  0
M  CHG  3  12   1  13  -1  36   1
M  END
