
     RDKit          3D

 36 40  0  0  0  0  0  0  0  0999 V2000
    4.5050    3.8400    0.1130 C   0  0  0  0  0  0  0  0  0  0  0  0
    3.9830    2.4780   -0.0570 C   0  0  0  0  0  0  0  0  0  0  0  0
    4.6830    1.3400   -0.3460 N   0  0  0  0  0  0  0  0  0  0  0  0
    3.8570    0.3180   -0.4210 N   0  0  0  0  0  0  0  0  0  0  0  0
    4.1620   -1.0400   -0.6990 C   0  0  0  0  0  0  0  0  0  0  0  0
    4.8810   -1.7330    0.1950 N   0  0  0  0  0  0  0  0  0  0  0  0
    5.2300   -3.0040    0.0510 C   0  0  0  0  0  0  0  0  0  0  0  0
    6.0270   -3.7050    1.0830 C   0  0  2  0  0  0  0  0  0  0  0  0
    7.2320   -4.0990    0.5100 F   0  0  0  0  0  0  0  0  0  0  0  0
    5.3800   -4.8420    1.5450 F   0  0  0  0  0  0  0  0  0  0  0  0
    4.8290   -3.6690   -1.1000 C   0  0  0  0  0  0  0  0  0  0  0  0
    4.0870   -2.9930   -2.0460 C   0  0  0  0  0  0  0  0  0  0  0  0
    3.7470   -1.6690   -1.8530 C   0  0  0  0  0  0  0  0  0  0  0  0
    3.0160   -1.0070   -2.7890 F   0  0  0  0  0  0  0  0  0  0  0  0
    2.5820    0.7300   -0.1860 C   0  0  0  0  0  0  0  0  0  0  0  0
    1.4010    0.0920   -0.1500 N   0  0  0  0  0  0  0  0  0  0  0  0
    0.2910    0.8100    0.1170 C   0  0  0  0  0  0  0  0  0  0  0  0
   -0.9790    0.1830    0.1710 N   0  0  0  0  0  0  0  0  0  0  0  0
   -2.2060    0.9200    0.4520 C   0  0  1  0  0  0  0  0  0  0  0  0
   -2.4550    1.9500   -0.6060 C   0  0  0  0  0  0  0  0  0  0  0  0
   -2.9890    1.0730   -1.7360 C   0  0  0  0  0  0  0  0  0  0  0  0
   -3.8000    0.0620   -0.9790 C   0  0  0  0  0  0  0  0  0  0  0  0
   -4.8580   -0.6920   -1.4550 C   0  0  0  0  0  0  0  0  0  0  0  0
   -5.4680   -1.5570   -0.5680 C   0  0  0  0  0  0  0  0  0  0  0  0
   -5.0220   -1.6470    0.7330 C   0  0  0  0  0  0  0  0  0  0  0  0
   -5.6850   -2.5800    1.6770 C   0  0  0  0  0  0  0  0  0  0  0  0
   -6.7720   -3.3040    1.0490 N   0  0  0  0  0  0  0  0  0  0  0  0
   -3.9790   -0.8960    1.1830 C   0  0  0  0  0  0  0  0  0  0  0  0
   -3.3450   -0.0150    0.3110 C   0  0  0  0  0  0  0  0  0  0  0  0
    0.3680    2.1350    0.3410 N   0  0  0  0  0  0  0  0  0  0  0  0
    1.5410    2.8130    0.3120 C   0  0  0  0  0  0  0  0  0  0  0  0
    1.5320    4.2430    0.5720 C   0  0  0  0  0  0  0  0  0  0  0  0
    0.1560    4.6740    0.8130 N   0  0  0  0  0  0  0  0  0  0  0  0
   -0.4500    5.5050    0.1490 O   0  0  0  0  0  0  0  0  0  0  0  0
   -0.4870    4.0850    1.8750 O   0  0  0  0  0  0  0  0  0  0  0  0
    2.6770    2.0930    0.0420 C   0  0  0  0  0  0  0  0  0  0  0  0
  1  2  1  0
  2  3  2  0
  2 36  1  0
  3  4  1  0
  4  5  1  0
  4 15  1  0
  5  6  2  0
  5 13  1  0
  6  7  1  0
  7  8  1  0
  7 11  2  0
  8  9  1  6
  8 10  1  0
 11 12  1  0
 12 13  2  0
 13 14  1  0
 15 16  2  0
 15 36  1  0
 16 17  1  0
 17 18  1  0
 17 30  2  0
 19 18  1  6
 19 20  1  0
 19 29  1  0
 20 21  1  0
 21 22  1  0
 22 23  2  0
 22 29  1  0
 23 24  1  0
 24 25  2  0
 25 26  1  0
 25 28  1  0
 26 27  1  0
 28 29  2  0
 30 31  1  0
 31 32  1  0
 31 36  2  0
 32 33  1  0
 33 34  2  0
 33 35  1  0
M  CHG  3  27   1  33   1  35  -1
M  END
