
     RDKit          3D

 36 39  0  0  0  0  0  0  0  0999 V2000
   -7.6580   -0.8210    1.3570 C   0  0  0  0  0  0  0  0  0  0  0  0
   -7.9230    0.0720    0.2230 C   0  0  0  0  0  0  0  0  0  0  0  0
   -7.0820    0.8840   -0.3040 C   0  0  0  0  0  0  0  0  0  0  0  0
   -7.6690    1.7030   -1.4820 C   0  0  0  0  0  0  0  0  0  0  0  0
   -5.7040    1.0620   -0.0320 N   0  0  0  0  0  0  0  0  0  0  0  0
   -5.0570    2.1970   -0.4120 N   0  0  0  0  0  0  0  0  0  0  0  0
   -3.7700    2.1530   -0.1250 C   0  0  0  0  0  0  0  0  0  0  0  0
   -3.5340    0.9510    0.4670 C   0  0  0  0  0  0  0  0  0  0  0  0
   -2.3510    0.3800    0.9640 C   0  0  0  0  0  0  0  0  0  0  0  0
   -1.0640    1.1040    0.8610 C   0  0  1  0  0  0  0  0  0  0  0  0
   -0.0920    0.7160    1.9140 C   0  0  0  0  0  0  0  0  0  0  0  0
   -0.4970    1.0140   -0.4820 N   0  0  0  0  0  0  0  0  0  0  0  0
    0.8880    0.6630   -0.5620 C   0  0  1  0  0  0  0  0  0  0  0  0
    1.2260   -0.7550   -0.2320 C   0  0  0  0  0  0  0  0  0  0  0  0
    2.7240   -0.8020    0.0160 C   0  0  0  0  0  0  0  0  0  0  0  0
    3.3870   -0.0860   -1.0580 N   0  0  0  0  0  0  0  0  0  0  0  0
    4.8190    0.0590   -0.9460 C   0  0  0  0  0  0  0  0  0  0  0  0
    5.5660   -0.2360    0.1430 N   0  0  0  0  0  0  0  0  0  0  0  0
    6.8490   -0.0090   -0.1400 C   0  0  0  0  0  0  0  0  0  0  0  0
    7.9770   -0.1980    0.7970 C   0  0  0  0  0  0  0  0  0  0  0  0
    7.4600   -0.6720    2.0590 N   0  0  0  0  0  0  0  0  0  0  0  0
    7.8970   -1.7380    2.5130 O   0  0  0  0  0  0  0  0  0  0  0  0
    6.5150    0.0020    2.7710 O   0  0  0  0  0  0  0  0  0  0  0  0
    6.9330    0.4350   -1.4180 C   0  0  0  0  0  0  0  0  0  0  0  0
    8.1730    0.8050   -2.1550 C   0  0  0  0  0  0  0  0  0  0  0  0
    5.6680    0.4700   -1.8980 N   0  0  0  0  0  0  0  0  0  0  0  0
    2.7360    0.4870   -2.1810 C   0  0  0  0  0  0  0  0  0  0  0  0
    1.2840    0.8190   -2.0300 C   0  0  0  0  0  0  0  0  0  0  0  0
   -2.4670   -0.8700    1.4970 C   0  0  0  0  0  0  0  0  0  0  0  0
   -3.6920   -1.5370    1.5400 C   0  0  0  0  0  0  0  0  0  0  0  0
   -3.7610   -2.9040    2.1060 C   0  0  1  0  0  0  0  0  0  0  0  0
   -4.5540   -3.0030    3.2100 F   0  0  0  0  0  0  0  0  0  0  0  0
   -4.2280   -3.7320    1.0970 F   0  0  0  0  0  0  0  0  0  0  0  0
   -2.4840   -3.3150    2.4290 F   0  0  0  0  0  0  0  0  0  0  0  0
   -4.7730   -0.9240    1.0460 N   0  0  0  0  0  0  0  0  0  0  0  0
   -4.7630    0.2910    0.5100 C   0  0  0  0  0  0  0  0  0  0  0  0
  1  2  1  0
  2  3  2  3
  3  4  1  0
  3  5  1  0
  5  6  1  0
  5 36  1  0
  6  7  2  0
  7  8  1  0
  8  9  2  0
  8 36  1  0
  9 10  1  0
  9 29  1  0
 10 11  1  1
 10 12  1  0
 13 12  1  6
 13 14  1  0
 13 28  1  0
 14 15  1  0
 15 16  1  0
 16 17  1  0
 16 27  1  0
 17 18  2  0
 17 26  1  0
 18 19  1  0
 19 20  1  0
 19 24  2  0
 20 21  1  0
 21 22  2  0
 21 23  1  0
 24 25  1  0
 24 26  1  0
 27 28  1  0
 29 30  2  0
 30 31  1  0
 30 35  1  0
 31 32  1  1
 31 33  1  0
 31 34  1  0
 35 36  2  0
M  CHG  3  12   1  21   1  23  -1
M  END
