
     RDKit          3D

 22 24  0  0  0  0  0  0  0  0999 V2000
   -2.8650    2.9470    1.0880 C   0  0  0  0  0  0  0  0  0  0  0  0
   -3.7060    1.8540    0.7750 O   0  0  0  0  0  0  0  0  0  0  0  0
   -3.1610    0.6860    0.3020 C   0  0  0  0  0  0  0  0  0  0  0  0
   -1.7980    0.5110    0.1090 C   0  0  0  0  0  0  0  0  0  0  0  0
   -1.2460   -0.6430   -0.3590 C   0  0  0  0  0  0  0  0  0  0  0  0
    0.1080   -0.9230   -0.5780 N   0  0  0  0  0  0  0  0  0  0  0  0
    1.2240   -0.0930   -0.2460 C   0  0  0  0  0  0  0  0  0  0  0  0
    0.9620    0.9940    0.2990 O   0  0  0  0  0  0  0  0  0  0  0  0
    2.5960   -0.5170   -0.5390 C   0  0  0  0  0  0  0  0  0  0  0  0
    3.6910    0.3490   -0.1820 C   0  0  0  0  0  0  0  0  0  0  0  0
    3.7000    1.5230    0.3940 C   0  0  0  0  0  0  0  0  0  0  0  0
    4.9690    2.1230    0.6090 O   0  0  0  0  0  0  0  0  0  0  0  0
    6.0340    1.3380    1.1470 C   0  0  0  0  0  0  0  0  0  0  0  0
    5.8370   -0.1320    0.8140 C   0  0  0  0  0  0  0  0  0  0  0  0
    5.0830   -0.1610   -0.5210 C   0  0  0  0  0  0  0  0  0  0  0  0
   -2.1500   -1.6870   -0.6480 C   0  0  0  0  0  0  0  0  0  0  0  0
   -3.4960   -1.5760   -0.4800 C   0  0  0  0  0  0  0  0  0  0  0  0
   -4.3720   -2.6010   -0.7650 C   0  0  0  0  0  0  0  0  0  0  0  0
   -5.7250   -2.4700   -0.5890 C   0  0  0  0  0  0  0  0  0  0  0  0
   -6.2270   -1.2870   -0.1150 C   0  0  0  0  0  0  0  0  0  0  0  0
   -5.3520   -0.2630    0.1700 C   0  0  0  0  0  0  0  0  0  0  0  0
   -3.9840   -0.3700    0.0010 C   0  0  0  0  0  0  0  0  0  0  0  0
  1  2  1  0
  2  3  1  0
  3  4  2  0
  3 22  1  0
  4  5  1  0
  5  6  1  0
  5 16  2  0
  6  7  1  0
  7  8  2  0
  7  9  1  0
  9 10  1  0
 10 11  2  0
 10 15  1  0
 11 12  1  0
 12 13  1  0
 13 14  1  0
 14 15  1  0
 16 17  1  0
 17 18  2  0
 17 22  1  0
 18 19  1  0
 19 20  2  0
 20 21  1  0
 21 22  2  0
M  END
