
     RDKit          3D

 22 24  0  0  0  0  0  0  0  0999 V2000
   -4.5390    1.8740   -0.4300 C   0  0  0  0  0  0  0  0  0  0  0  0
   -3.5560    1.1130   -1.2930 C   0  0  0  0  0  0  0  0  0  0  0  0
   -2.6440    0.2970   -0.4250 C   0  0  0  0  0  0  0  0  0  0  0  0
   -2.6950    0.2080    0.9480 C   0  0  0  0  0  0  0  0  0  0  0  0
   -1.6790   -0.6420    1.2910 C   0  0  0  0  0  0  0  0  0  0  0  0
   -1.0360   -1.0500    0.1390 C   0  0  0  0  0  0  0  0  0  0  0  0
    0.0890   -1.9510    0.0810 C   0  0  0  0  0  0  0  0  0  0  0  0
   -0.1090   -3.3020   -0.0750 C   0  0  0  0  0  0  0  0  0  0  0  0
    0.9610   -4.1890   -0.1480 C   0  0  0  0  0  0  0  0  0  0  0  0
    2.2470   -3.6920   -0.0610 C   0  0  0  0  0  0  0  0  0  0  0  0
    2.4580   -2.3540    0.0940 C   0  0  0  0  0  0  0  0  0  0  0  0
    1.3680   -1.4730    0.1670 C   0  0  0  0  0  0  0  0  0  0  0  0
    1.7370   -0.0740    0.3360 C   0  0  0  0  0  0  0  0  0  0  0  0
    2.2440    0.6770   -0.7180 C   0  0  0  0  0  0  0  0  0  0  0  0
    2.6230    2.0110   -0.5620 C   0  0  0  0  0  0  0  0  0  0  0  0
    3.1530    2.7570   -1.6890 C   0  0  0  0  0  0  0  0  0  0  0  0
    3.4940    3.9370   -1.5420 O   0  0  0  0  0  0  0  0  0  0  0  0
    2.4910    2.6090    0.6850 C   0  0  0  0  0  0  0  0  0  0  0  0
    1.9980    1.8680    1.7020 N   0  0  0  0  0  0  0  0  0  0  0  0
    1.6290    0.5680    1.5480 C   0  0  0  0  0  0  0  0  0  0  0  0
    1.1770   -0.0470    2.5650 O   0  0  0  0  0  0  0  0  0  0  0  0
   -1.6710   -0.4470   -0.8460 O   0  0  0  0  0  0  0  0  0  0  0  0
  1  2  1  0
  2  3  1  0
  3  4  2  0
  3 22  1  0
  4  5  1  0
  5  6  2  0
  6  7  1  0
  6 22  1  0
  7  8  2  0
  7 12  1  0
  8  9  1  0
  9 10  2  0
 10 11  1  0
 11 12  2  0
 12 13  1  0
 13 14  2  0
 13 20  1  0
 14 15  1  0
 15 16  1  0
 15 18  2  0
 16 17  2  0
 18 19  1  0
 19 20  1  0
 20 21  2  0
M  END
