
     RDKit          3D

 22 23  0  0  0  0  0  0  0  0999 V2000
    7.5240    0.2380    0.3810 C   0  0  0  0  0  0  0  0  0  0  0  0
    6.3430    0.3310    0.9160 C   0  0  0  0  0  0  0  0  0  0  0  0
    5.1490    0.2030    0.0620 C   0  0  0  0  0  0  0  0  0  0  0  0
    3.9680    0.2940    0.5890 C   0  0  0  0  0  0  0  0  0  0  0  0
    2.7080    0.1960   -0.0790 C   0  0  0  0  0  0  0  0  0  0  0  0
    1.5380    0.3250    0.6870 C   0  0  0  0  0  0  0  0  0  0  0  0
    0.2940    0.2430    0.1210 C   0  0  0  0  0  0  0  0  0  0  0  0
   -0.8350    0.3690    0.8700 C   0  0  0  0  0  0  0  0  0  0  0  0
   -0.8070    0.5850    2.2330 O   0  0  0  0  0  0  0  0  0  0  0  0
   -0.7970   -0.4920    3.1460 C   0  0  0  0  0  0  0  0  0  0  0  0
   -2.0750    0.2770    0.2420 C   0  0  0  0  0  0  0  0  0  0  0  0
   -3.2190    0.4060    1.0480 O   0  0  0  0  0  0  0  0  0  0  0  0
   -3.7290   -0.7890    1.6770 C   0  0  0  0  0  0  0  0  0  0  0  0
   -2.1940    0.0680   -1.0930 C   0  0  0  0  0  0  0  0  0  0  0  0
   -3.4440    0.0270   -1.8310 C   0  0  0  0  0  0  0  0  0  0  0  0
   -4.6370    0.2840   -1.3910 C   0  0  0  0  0  0  0  0  0  0  0  0
   -5.8030    0.1680   -2.3670 C   0  0  0  0  0  0  0  0  0  0  0  0
   -0.9960   -0.0550   -1.8190 C   0  0  0  0  0  0  0  0  0  0  0  0
    0.2540    0.0250   -1.2570 C   0  0  0  0  0  0  0  0  0  0  0  0
    1.3810   -0.0960   -1.9720 N   0  0  0  0  0  0  0  0  0  0  0  0
    2.6100   -0.0180   -1.4290 C   0  0  0  0  0  0  0  0  0  0  0  0
    3.6280   -0.1470   -2.2000 O   0  0  0  0  0  0  0  0  0  0  0  0
  1  2  2  0
  2  3  1  0
  3  4  2  3
  4  5  1  0
  5  6  2  0
  5 21  1  0
  6  7  1  0
  7  8  2  0
  7 19  1  0
  8  9  1  0
  8 11  1  0
  9 10  1  0
 11 12  1  0
 11 14  2  0
 12 13  1  0
 14 15  1  0
 14 18  1  0
 15 16  2  3
 16 17  1  0
 18 19  2  0
 19 20  1  0
 20 21  1  0
 21 22  2  0
M  END
