
     RDKit          3D

 22 23  0  0  0  0  0  0  0  0999 V2000
    5.0320    1.2350    0.3710 C   0  0  0  0  0  0  0  0  0  0  0  0
    3.7980    1.6470    0.3910 C   0  0  0  0  0  0  0  0  0  0  0  0
    3.4800    3.0400   -0.0160 C   0  0  0  0  0  0  0  0  0  0  0  0
    2.7210    0.8530    0.7780 O   0  0  0  0  0  0  0  0  0  0  0  0
    2.2570    0.7580    2.0670 C   0  0  0  0  0  0  0  0  0  0  0  0
    2.8370    1.4270    2.9610 O   0  0  0  0  0  0  0  0  0  0  0  0
    1.1130   -0.0820    2.4930 C   0  0  0  0  0  0  0  0  0  0  0  0
    0.5240   -0.8050    1.3890 N   0  0  0  0  0  0  0  0  0  0  0  0
   -0.4740   -0.2220    0.7020 C   0  0  0  0  0  0  0  0  0  0  0  0
   -1.1160   -0.8200   -0.3780 C   0  0  0  0  0  0  0  0  0  0  0  0
   -2.1790   -0.2140   -1.1190 C   0  0  0  0  0  0  0  0  0  0  0  0
   -2.6270    0.9880   -0.8120 C   0  0  0  0  0  0  0  0  0  0  0  0
   -3.7160    1.5950   -1.5810 C   0  0  0  0  0  0  0  0  0  0  0  0
   -4.1780    2.7900   -1.2930 C   0  0  0  0  0  0  0  0  0  0  0  0
   -3.6280    3.6010   -0.1730 C   0  0  0  0  0  0  0  0  0  0  0  0
   -0.7040   -2.0960   -0.7720 C   0  0  0  0  0  0  0  0  0  0  0  0
    0.3130   -2.6750   -0.0610 C   0  0  0  0  0  0  0  0  0  0  0  0
    0.9160   -2.0310    1.0060 C   0  0  0  0  0  0  0  0  0  0  0  0
    1.8530   -2.5550    1.6680 O   0  0  0  0  0  0  0  0  0  0  0  0
    0.6020   -4.0210   -0.6290 C   0  0  0  0  0  0  0  0  0  0  0  0
   -0.6290   -4.3310   -1.4560 C   0  0  0  0  0  0  0  0  0  0  0  0
   -1.1620   -2.9950   -1.8540 C   0  0  0  0  0  0  0  0  0  0  0  0
  1  2  2  0
  2  3  1  0
  2  4  1  0
  4  5  1  0
  5  6  2  0
  5  7  1  0
  7  8  1  0
  8  9  1  0
  8 18  1  0
  9 10  2  0
 10 11  1  0
 10 16  1  0
 11 12  2  3
 12 13  1  0
 13 14  2  3
 14 15  1  0
 16 17  2  0
 16 22  1  0
 17 18  1  0
 17 20  1  0
 18 19  2  0
 20 21  1  0
 21 22  1  0
M  END
