
     RDKit          3D

 22 24  0  0  0  0  0  0  0  0999 V2000
   -0.5150    3.8700   -0.7630 C   0  0  0  0  0  0  0  0  0  0  0  0
   -0.8880    2.4030   -0.7980 C   0  0  0  0  0  0  0  0  0  0  0  0
   -1.1070    1.8220    0.5770 C   0  0  0  0  0  0  0  0  0  0  0  0
   -1.4470    0.4060    0.4570 C   0  0  0  0  0  0  0  0  0  0  0  0
   -0.4310   -0.5340    0.2190 C   0  0  0  0  0  0  0  0  0  0  0  0
    0.8920   -0.0410    0.1320 N   0  0  0  0  0  0  0  0  0  0  0  0
    2.0460   -0.8150   -0.1180 C   0  0  0  0  0  0  0  0  0  0  0  0
    1.9430   -2.0580   -0.2850 O   0  0  0  0  0  0  0  0  0  0  0  0
    3.4150   -0.2260   -0.1960 C   0  0  0  0  0  0  0  0  0  0  0  0
    3.6460    1.0340   -0.0470 C   0  0  0  0  0  0  0  0  0  0  0  0
    5.0100    1.6050   -0.1280 C   0  0  0  0  0  0  0  0  0  0  0  0
    6.0340    0.5840   -0.3900 C   0  0  0  0  0  0  0  0  0  0  0  0
    5.7470   -0.6770   -0.5330 C   0  0  0  0  0  0  0  0  0  0  0  0
    4.4470   -1.1110   -0.4410 O   0  0  0  0  0  0  0  0  0  0  0  0
   -0.7560   -1.8610    0.0940 C   0  0  0  0  0  0  0  0  0  0  0  0
   -2.1150   -2.2620    0.2090 C   0  0  0  0  0  0  0  0  0  0  0  0
   -3.0860   -1.3650    0.4370 C   0  0  0  0  0  0  0  0  0  0  0  0
   -2.7600    0.0140    0.5670 C   0  0  0  0  0  0  0  0  0  0  0  0
   -3.8020    0.8580    0.7950 O   0  0  0  0  0  0  0  0  0  0  0  0
   -4.4050   -2.0300    0.5210 C   0  0  0  0  0  0  0  0  0  0  0  0
   -4.1110   -3.4930    0.4270 C   0  0  0  0  0  0  0  0  0  0  0  0
   -2.6640   -3.6310    0.0990 C   0  0  0  0  0  0  0  0  0  0  0  0
  1  2  1  0
  2  3  1  0
  3  4  1  0
  4  5  2  0
  4 18  1  0
  5  6  1  0
  5 15  1  0
  6  7  1  0
  7  8  2  0
  7  9  1  0
  9 10  2  0
  9 14  1  0
 10 11  1  0
 11 12  1  0
 12 13  2  0
 13 14  1  0
 15 16  2  0
 16 17  1  0
 16 22  1  0
 17 18  2  0
 17 20  1  0
 18 19  1  0
 20 21  1  0
 21 22  1  0
M  END
