
     RDKit          3D

 22 24  0  0  0  0  0  0  0  0999 V2000
   -6.8660   -1.5400   -0.2000 C   0  0  0  0  0  0  0  0  0  0  0  0
   -6.3150   -0.2230    0.3010 C   0  0  0  0  0  0  0  0  0  0  0  0
   -4.8570   -0.1620    0.1340 C   0  0  0  0  0  0  0  0  0  0  0  0
   -4.0600   -1.1560   -0.4050 C   0  0  0  0  0  0  0  0  0  0  0  0
   -2.7710   -0.6440   -0.3530 C   0  0  0  0  0  0  0  0  0  0  0  0
   -1.5830   -1.1650   -0.7380 C   0  0  0  0  0  0  0  0  0  0  0  0
   -0.4080   -0.4150   -0.5670 C   0  0  0  0  0  0  0  0  0  0  0  0
    0.7710   -1.0280   -1.0080 N   0  0  0  0  0  0  0  0  0  0  0  0
    2.0600   -0.6050   -0.6650 C   0  0  0  0  0  0  0  0  0  0  0  0
    2.2510    0.3680    0.0800 O   0  0  0  0  0  0  0  0  0  0  0  0
    3.2570   -1.3510   -1.2150 C   0  0  0  0  0  0  0  0  0  0  0  0
    4.4650   -0.6730   -0.6790 C   0  0  0  0  0  0  0  0  0  0  0  0
    5.1180   -0.9830    0.5150 C   0  0  0  0  0  0  0  0  0  0  0  0
    6.1670   -0.1040    0.5930 C   0  0  0  0  0  0  0  0  0  0  0  0
    6.1300    0.6990   -0.5240 C   0  0  0  0  0  0  0  0  0  0  0  0
    7.0970    1.7970   -0.8360 C   0  0  0  0  0  0  0  0  0  0  0  0
    5.1040    0.3190   -1.2410 O   0  0  0  0  0  0  0  0  0  0  0  0
   -0.5020    0.8440   -0.0060 C   0  0  0  0  0  0  0  0  0  0  0  0
   -1.7090    1.3820    0.3890 C   0  0  0  0  0  0  0  0  0  0  0  0
   -1.7610    2.7470    0.9910 C   0  0  0  0  0  0  0  0  0  0  0  0
   -2.8460    0.6280    0.2110 C   0  0  0  0  0  0  0  0  0  0  0  0
   -4.1090    0.8600    0.4800 O   0  0  0  0  0  0  0  0  0  0  0  0
  1  2  1  0
  2  3  1  0
  3  4  2  0
  3 22  1  0
  4  5  1  0
  5  6  2  0
  5 21  1  0
  6  7  1  0
  7  8  1  0
  7 18  2  0
  8  9  1  0
  9 10  2  0
  9 11  1  0
 11 12  1  0
 12 13  2  0
 12 17  1  0
 13 14  1  0
 14 15  2  0
 15 16  1  0
 15 17  1  0
 18 19  1  0
 19 20  1  0
 19 21  2  0
 21 22  1  0
M  END
