
     RDKit          3D

 22 24  0  0  0  0  0  0  0  0999 V2000
   -5.5220   -2.9410    0.2520 C   0  0  0  0  0  0  0  0  0  0  0  0
   -5.1700   -1.4770    0.0520 C   0  0  0  0  0  0  0  0  0  0  0  0
   -3.7710   -1.3930   -0.0470 O   0  0  0  0  0  0  0  0  0  0  0  0
   -3.0760   -0.2090   -0.2340 C   0  0  0  0  0  0  0  0  0  0  0  0
   -3.7140    1.0150   -0.3380 C   0  0  0  0  0  0  0  0  0  0  0  0
   -3.0170    2.1940   -0.5250 C   0  0  0  0  0  0  0  0  0  0  0  0
   -3.6840    3.4140   -0.6270 O   0  0  0  0  0  0  0  0  0  0  0  0
   -2.9850    4.6060   -0.8150 C   0  0  0  0  0  0  0  0  0  0  0  0
   -1.6440    2.0920   -0.6030 C   0  0  0  0  0  0  0  0  0  0  0  0
   -0.9650    0.8990   -0.5050 C   0  0  0  0  0  0  0  0  0  0  0  0
   -1.7020   -0.2730   -0.3160 C   0  0  0  0  0  0  0  0  0  0  0  0
   -1.0250   -1.4770   -0.2160 O   0  0  0  0  0  0  0  0  0  0  0  0
    0.2780   -1.5530    0.3880 C   0  0  0  0  0  0  0  0  0  0  0  0
    0.9190   -0.2110    0.5220 C   0  0  1  0  0  0  0  0  0  0  0  0
    2.3390   -0.2710    0.6490 N   0  0  0  0  0  0  0  0  0  0  0  0
    3.0250   -0.8220   -0.4900 C   0  0  0  0  0  0  0  0  0  0  0  0
    4.4930   -0.7900   -0.1940 C   0  0  0  0  0  0  0  0  0  0  0  0
    5.0980   -0.3470    0.8930 C   0  0  0  0  0  0  0  0  0  0  0  0
    6.5460   -0.5140    0.7400 C   0  0  0  0  0  0  0  0  0  0  0  0
    6.6980   -1.1210   -0.5980 C   0  0  0  0  0  0  0  0  0  0  0  0
    5.5080   -1.2710   -1.1180 C   0  0  0  0  0  0  0  0  0  0  0  0
    0.5040    0.7600   -0.5910 C   0  0  0  0  0  0  0  0  0  0  0  0
  1  2  1  0
  2  3  1  0
  3  4  1  0
  4  5  2  0
  4 11  1  0
  5  6  1  0
  6  7  1  0
  6  9  2  0
  7  8  1  0
  9 10  1  0
 10 11  2  0
 10 22  1  0
 11 12  1  0
 12 13  1  0
 13 14  1  0
 14 15  1  6
 14 22  1  0
 15 16  1  0
 16 17  1  0
 17 18  2  0
 17 21  1  0
 18 19  1  0
 19 20  1  0
 20 21  2  0
M  END
