
     RDKit          3D

 22 24  0  0  0  0  0  0  0  0999 V2000
    0.6470    4.2000    2.2810 C   0  0  0  0  0  0  0  0  0  0  0  0
    0.0810    3.3170    1.5280 C   0  0  0  0  0  0  0  0  0  0  0  0
   -1.2010    2.6820    1.8540 C   0  0  0  0  0  0  0  0  0  0  0  0
   -2.2050    2.5810    2.6990 C   0  0  0  0  0  0  0  0  0  0  0  0
   -3.1410    1.6140    2.1880 C   0  0  0  0  0  0  0  0  0  0  0  0
   -2.7310    1.1140    1.0380 C   0  0  0  0  0  0  0  0  0  0  0  0
   -1.4640    1.7700    0.7580 C   0  0  0  0  0  0  0  0  0  0  0  0
   -0.5090    1.8070   -0.1340 C   0  0  0  0  0  0  0  0  0  0  0  0
   -0.4730    1.0480   -1.2990 O   0  0  0  0  0  0  0  0  0  0  0  0
    0.1150   -0.2150   -1.3560 C   0  0  0  0  0  0  0  0  0  0  0  0
    0.6180   -0.6490   -0.3010 O   0  0  0  0  0  0  0  0  0  0  0  0
    0.1390   -1.0030   -2.6130 C   0  0  0  0  0  0  0  0  0  0  0  0
    0.7350   -2.2370   -2.4290 O   0  0  0  0  0  0  0  0  0  0  0  0
    0.3660   -3.2710   -1.6130 C   0  0  0  0  0  0  0  0  0  0  0  0
    1.1350   -4.4160   -1.5940 C   0  0  0  0  0  0  0  0  0  0  0  0
    0.8130   -5.4930   -0.7920 C   0  0  0  0  0  0  0  0  0  0  0  0
   -0.3130   -5.4460    0.0290 C   0  0  0  0  0  0  0  0  0  0  0  0
   -1.0490   -4.3280   -0.0010 N   0  0  0  0  0  0  0  0  0  0  0  0
   -0.7330   -3.2750   -0.7860 C   0  0  0  0  0  0  0  0  0  0  0  0
    0.5410    2.7730    0.2630 C   0  0  0  0  0  0  0  0  0  0  0  0
    1.6150    3.0270   -0.4260 C   0  0  0  0  0  0  0  0  0  0  0  0
    2.6940    3.9470   -0.1290 C   0  0  0  0  0  0  0  0  0  0  0  0
  1  2  2  0
  2  3  1  0
  2 20  1  0
  3  4  2  0
  3  7  1  0
  4  5  1  0
  5  6  2  0
  6  7  1  0
  7  8  2  0
  8  9  1  0
  8 20  1  0
  9 10  1  0
 10 11  2  0
 10 12  1  0
 12 13  1  0
 13 14  1  0
 14 15  2  0
 14 19  1  0
 15 16  1  0
 16 17  2  0
 17 18  1  0
 18 19  2  0
 20 21  2  3
 21 22  1  0
M  END
