
     RDKit          3D

 28 32  0  0  0  0  0  0  0  0999 V2000
   -2.4010    2.8770   -1.2090 C   0  0  0  0  0  0  0  0  0  0  0  0
   -2.2230    2.6410    0.1930 N   0  0  0  0  0  0  0  0  0  0  0  0
   -2.7630    3.3450    1.2030 N   0  0  0  0  0  0  0  0  0  0  0  0
   -2.3390    2.7890    2.3420 C   0  0  0  0  0  0  0  0  0  0  0  0
   -1.5520    1.7600    2.0260 N   0  0  0  0  0  0  0  0  0  0  0  0
   -1.4700    1.6550    0.6850 C   0  0  0  0  0  0  0  0  0  0  0  0
   -0.6700    0.6110   -0.0250 C   0  0  1  0  0  0  0  0  0  0  0  0
    0.6990    1.0150   -0.2990 C   0  0  0  0  0  0  0  0  0  0  0  0
    0.9880    1.9900   -1.1700 N   0  0  0  0  0  0  0  0  0  0  0  0
    2.1870    2.4240   -1.4810 N   0  0  0  0  0  0  0  0  0  0  0  0
    3.2830    1.8930   -0.9180 C   0  0  0  0  0  0  0  0  0  0  0  0
    4.4540    2.3050   -1.2120 O   0  0  0  0  0  0  0  0  0  0  0  0
    3.0930    0.8780   -0.0050 C   0  0  0  0  0  0  0  0  0  0  0  0
    4.2050    0.3200    0.5840 C   0  0  0  0  0  0  0  0  0  0  0  0
    4.0620   -0.6910    1.4970 C   0  0  0  0  0  0  0  0  0  0  0  0
    5.1670   -1.2290    2.0670 F   0  0  0  0  0  0  0  0  0  0  0  0
    2.8030   -1.1400    1.8180 C   0  0  0  0  0  0  0  0  0  0  0  0
    1.7030   -0.5690    1.2180 C   0  0  0  0  0  0  0  0  0  0  0  0
    1.8110    0.4510    0.2950 C   0  0  0  0  0  0  0  0  0  0  0  0
    0.4100   -1.0080    1.5230 N   0  0  0  0  0  0  0  0  0  0  0  0
   -0.7730   -0.6960    0.7520 C   0  0  2  0  0  0  0  0  0  0  0  0
   -1.1470   -1.8260   -0.1340 C   0  0  0  0  0  0  0  0  0  0  0  0
   -2.4690   -2.1970   -0.2110 C   0  0  0  0  0  0  0  0  0  0  0  0
   -2.9170   -3.2300   -1.0020 C   0  0  0  0  0  0  0  0  0  0  0  0
   -2.0210   -3.9280   -1.7500 C   0  0  0  0  0  0  0  0  0  0  0  0
   -2.4640   -4.9440   -2.5280 F   0  0  0  0  0  0  0  0  0  0  0  0
   -0.6870   -3.5870   -1.7010 C   0  0  0  0  0  0  0  0  0  0  0  0
   -0.2430   -2.5360   -0.8940 C   0  0  0  0  0  0  0  0  0  0  0  0
  1  2  1  0
  2  3  1  0
  2  6  1  0
  3  4  2  0
  4  5  1  0
  5  6  2  0
  7  6  1  1
  7  8  1  0
  7 21  1  0
  8  9  2  0
  8 19  1  0
  9 10  1  0
 10 11  1  0
 11 12  2  0
 11 13  1  0
 13 14  2  0
 13 19  1  0
 14 15  1  0
 15 16  1  0
 15 17  2  0
 17 18  1  0
 18 19  2  0
 18 20  1  0
 20 21  1  0
 21 22  1  6
 22 23  2  0
 22 28  1  0
 23 24  1  0
 24 25  2  0
 25 26  1  0
 25 27  1  0
 27 28  2  0
M  END
