
     RDKit          3D

 28 31  0  0  0  0  0  0  0  0999 V2000
   -8.0850   -1.9090    1.1340 C   0  0  0  0  0  0  0  0  0  0  0  0
   -6.6840   -1.6380    0.7790 C   0  0  0  0  0  0  0  0  0  0  0  0
   -6.1950   -0.4180    0.6390 C   0  0  0  0  0  0  0  0  0  0  0  0
   -4.8010   -0.1770    0.2860 C   0  0  0  0  0  0  0  0  0  0  0  0
   -4.2420    0.9840    0.1280 C   0  0  0  0  0  0  0  0  0  0  0  0
   -2.8530    1.1980   -0.2210 N   0  0  0  0  0  0  0  0  0  0  0  0
   -1.8180    0.3130    0.1640 C   0  0  0  0  0  0  0  0  0  0  0  0
   -2.0920   -0.7300    0.8650 O   0  0  0  0  0  0  0  0  0  0  0  0
   -0.4280    0.4860   -0.1760 C   0  0  0  0  0  0  0  0  0  0  0  0
    0.6100   -0.3780    0.2050 C   0  0  0  0  0  0  0  0  0  0  0  0
    1.8100    0.0810   -0.2840 C   0  0  0  0  0  0  0  0  0  0  0  0
    3.0980   -0.4950   -0.1270 N   0  0  0  0  0  0  0  0  0  0  0  0
    3.4780   -1.7000    0.5780 C   0  0  0  0  0  0  0  0  0  0  0  0
    4.5000   -2.3360   -0.3390 C   0  0  0  0  0  0  0  0  0  0  0  0
    5.2210   -1.1560   -0.9170 C   0  0  2  0  0  0  0  0  0  0  0  0
    6.5100   -0.8870   -0.2550 C   0  0  0  0  0  0  0  0  0  0  0  0
    6.7780   -0.6780    1.0760 C   0  0  0  0  0  0  0  0  0  0  0  0
    8.1370   -0.4700    1.1940 C   0  0  0  0  0  0  0  0  0  0  0  0
    8.6460   -0.5550   -0.0380 N   0  0  0  0  0  0  0  0  0  0  0  0
    7.6850   -0.8010   -0.8930 N   0  0  0  0  0  0  0  0  0  0  0  0
    4.3170    0.0520   -0.6750 C   0  0  0  0  0  0  0  0  0  0  0  0
    1.5070    1.2010   -0.9480 N   0  0  0  0  0  0  0  0  0  0  0  0
    0.1820    1.4320   -0.8780 N   0  0  0  0  0  0  0  0  0  0  0  0
   -2.7560    2.4310   -0.9740 C   0  0  0  0  0  0  0  0  0  0  0  0
   -4.1960    2.9710   -1.0190 C   0  0  0  0  0  0  0  0  0  0  0  0
   -4.8270    2.3570    0.2290 C   0  0  2  0  0  0  0  0  0  0  0  0
   -4.2520    2.9720    1.3100 F   0  0  0  0  0  0  0  0  0  0  0  0
   -6.1760    2.4060    0.1920 F   0  0  0  0  0  0  0  0  0  0  0  0
  1  2  1  0
  2  3  2  3
  3  4  1  0
  4  5  2  3
  5  6  1  0
  5 26  1  0
  6  7  1  0
  6 24  1  0
  7  8  2  0
  7  9  1  0
  9 10  2  0
  9 23  1  0
 10 11  1  0
 11 12  1  0
 11 22  2  0
 12 13  1  0
 12 21  1  0
 13 14  1  0
 14 15  1  0
 15 16  1  1
 15 21  1  0
 16 17  2  0
 16 20  1  0
 17 18  1  0
 18 19  2  0
 19 20  1  0
 22 23  1  0
 24 25  1  0
 25 26  1  0
 26 27  1  1
 26 28  1  0
M  END
