
     RDKit          3D

 28 32  0  0  0  0  0  0  0  0999 V2000
   -1.1340   -1.2810    1.2280 O   0  0  0  0  0  0  0  0  0  0  0  0
   -0.4430   -0.5410    0.4830 C   0  0  0  0  0  0  0  0  0  0  0  0
   -1.1200    0.3830   -0.3650 N   0  0  0  0  0  0  0  0  0  0  0  0
   -2.5420    0.4350   -0.3390 C   0  0  0  0  0  0  0  0  0  0  0  0
   -3.2180    1.3140   -1.1450 C   0  0  0  0  0  0  0  0  0  0  0  0
   -4.6030    1.4000   -1.1540 C   0  0  0  0  0  0  0  0  0  0  0  0
   -5.2480    2.3630   -2.0410 C   0  0  1  0  0  0  0  0  0  0  0  0
   -4.6830    3.6280   -1.8660 F   0  0  0  0  0  0  0  0  0  0  0  0
   -4.9190    2.0080   -3.3650 F   0  0  0  0  0  0  0  0  0  0  0  0
   -5.2900    0.5560   -0.3080 C   0  0  0  0  0  0  0  0  0  0  0  0
   -6.6590    0.5520   -0.2320 C   0  0  0  0  0  0  0  0  0  0  0  0
   -7.3380   -0.2960    0.6160 C   0  0  0  0  0  0  0  0  0  0  0  0
   -6.6740   -1.1810    1.4280 C   0  0  0  0  0  0  0  0  0  0  0  0
   -5.2960   -1.1770    1.3500 C   0  0  0  0  0  0  0  0  0  0  0  0
   -4.6030   -0.3410    0.5130 C   0  0  0  0  0  0  0  0  0  0  0  0
   -3.2630   -0.3580    0.4580 N   0  0  0  0  0  0  0  0  0  0  0  0
    0.9650   -0.6590    0.5220 N   0  0  0  0  0  0  0  0  0  0  0  0
    1.5700   -1.6170    1.4070 C   0  0  0  0  0  0  0  0  0  0  0  0
    2.7660   -0.9270    2.0790 C   0  0  0  0  0  0  0  0  0  0  0  0
    3.7450   -0.6780    0.9510 C   0  0  2  0  0  0  0  0  0  0  0  0
    4.8860    0.1050    1.3100 N   0  0  0  0  0  0  0  0  0  0  0  0
    5.0490    1.1190    0.3920 N   0  0  0  0  0  0  0  0  0  0  0  0
    6.3790    1.2500   -0.1210 C   0  0  0  0  0  0  0  0  0  0  0  0
    6.4460    0.2700   -1.2480 C   0  0  0  0  0  0  0  0  0  0  0  0
    5.0190   -0.1190   -1.5740 C   0  0  0  0  0  0  0  0  0  0  0  0
    4.2130    0.8340   -0.7550 C   0  0  1  0  0  0  0  0  0  0  0  0
    3.0790    0.1520   -0.1220 C   0  0  0  0  0  0  0  0  0  0  0  0
    1.8180    0.1300   -0.2790 N   0  0  0  0  0  0  0  0  0  0  0  0
  1  2  2  0
  2  3  1  0
  2 17  1  0
  3  4  1  0
  4  5  2  0
  4 16  1  0
  5  6  1  0
  6  7  1  0
  6 10  2  0
  7  8  1  1
  7  9  1  0
 10 11  1  0
 10 15  1  0
 11 12  2  0
 12 13  1  0
 13 14  2  0
 14 15  1  0
 15 16  2  0
 17 18  1  0
 17 28  1  0
 18 19  1  0
 20 19  1  1
 20 21  1  0
 20 27  1  0
 21 22  1  0
 22 23  1  0
 22 26  1  0
 23 24  1  0
 24 25  1  0
 26 25  1  6
 26 27  1  0
 27 28  2  0
M  END
