
     RDKit          3D

 27 30  0  0  0  0  0  0  0  0999 V2000
   -7.7710   -1.6660   -0.9920 C   0  0  0  0  0  0  0  0  0  0  0  0
   -6.4120   -1.5010   -0.5940 N   0  0  0  0  0  0  0  0  0  0  0  0
   -5.7990   -0.3870   -0.4750 C   0  0  0  0  0  0  0  0  0  0  0  0
   -4.4410   -0.2980   -0.0730 N   0  0  0  0  0  0  0  0  0  0  0  0
   -3.8030    0.8260    0.0520 C   0  0  0  0  0  0  0  0  0  0  0  0
   -2.4440    0.7880    0.4620 N   0  0  0  0  0  0  0  0  0  0  0  0
   -1.6970   -0.4170    0.3370 C   0  0  1  0  0  0  0  0  0  0  0  0
   -0.2460   -0.2340    0.8410 C   0  0  0  0  0  0  0  0  0  0  0  0
    0.1360   -1.6370    1.0940 C   0  0  0  0  0  0  0  0  0  0  0  0
    1.4000   -2.2910    0.9800 C   0  0  0  0  0  0  0  0  0  0  0  0
    2.5990   -1.9540    0.7640 C   0  0  0  0  0  0  0  0  0  0  0  0
    3.3930   -0.8030    0.5310 C   0  0  0  0  0  0  0  0  0  0  0  0
    4.5410   -0.9370   -0.2830 C   0  0  0  0  0  0  0  0  0  0  0  0
    5.4400    0.0630   -0.5230 C   0  0  0  0  0  0  0  0  0  0  0  0
    6.6080    0.1240   -1.2800 C   0  0  0  0  0  0  0  0  0  0  0  0
    7.2040   -0.9820   -2.0740 C   0  0  0  0  0  0  0  0  0  0  0  0
    7.0650    1.4120   -1.1250 C   0  0  0  0  0  0  0  0  0  0  0  0
    6.2180    2.0770   -0.3200 N   0  0  0  0  0  0  0  0  0  0  0  0
    5.2110    1.2800    0.0660 C   0  0  0  0  0  0  0  0  0  0  0  0
    4.1240    1.4990    0.8720 C   0  0  0  0  0  0  0  0  0  0  0  0
    3.2240    0.4270    1.0890 C   0  0  0  0  0  0  0  0  0  0  0  0
    2.2310    0.6570    1.9730 F   0  0  0  0  0  0  0  0  0  0  0  0
   -1.0000   -2.2670    1.3810 N   0  0  0  0  0  0  0  0  0  0  0  0
   -2.0660   -1.4080    1.3320 O   0  0  0  0  0  0  0  0  0  0  0  0
   -4.4410    2.1360   -0.2180 C   0  0  0  0  0  0  0  0  0  0  0  0
   -5.9430    2.0280   -0.1060 C   0  0  0  0  0  0  0  0  0  0  0  0
   -6.4660    0.8370   -0.7480 N   0  0  0  0  0  0  0  0  0  0  0  0
  1  2  1  0
  2  3  2  3
  3  4  1  0
  3 27  1  0
  4  5  2  0
  5  6  1  0
  5 25  1  0
  7  6  1  1
  7  8  1  0
  7 24  1  0
  8  9  1  0
  9 10  1  0
  9 23  2  0
 10 11  2  3
 11 12  1  0
 12 13  2  0
 12 21  1  0
 13 14  1  0
 14 15  1  0
 14 19  2  0
 15 16  1  0
 15 17  2  0
 17 18  1  0
 18 19  1  0
 19 20  1  0
 20 21  2  0
 21 22  1  0
 23 24  1  0
 25 26  1  0
 26 27  1  0
M  END
