
     RDKit          3D

 28 31  0  0  0  0  0  0  0  0999 V2000
   -2.8680    3.4140    2.6410 C   0  0  0  0  0  0  0  0  0  0  0  0
   -2.8620    2.9040    1.4370 C   0  0  0  0  0  0  0  0  0  0  0  0
   -1.6990    2.0390    1.0250 C   0  0  0  0  0  0  0  0  0  0  0  0
   -2.2120    0.6990    0.6690 C   0  0  1  0  0  0  0  0  0  0  0  0
   -3.2340    0.7490   -0.4790 C   0  0  0  0  0  0  0  0  0  0  0  0
   -3.3340   -0.7200   -0.7970 C   0  0  0  0  0  0  0  0  0  0  0  0
   -4.2720   -1.4920   -1.2550 C   0  0  0  0  0  0  0  0  0  0  0  0
   -4.1160   -2.9300   -1.4830 C   0  0  0  0  0  0  0  0  0  0  0  0
   -2.8330   -3.5240   -1.0290 C   0  0  1  0  0  0  0  0  0  0  0  0
   -3.1230   -4.4130    0.0020 F   0  0  0  0  0  0  0  0  0  0  0  0
   -2.3170   -4.2870   -2.0850 F   0  0  0  0  0  0  0  0  0  0  0  0
   -1.8360   -2.5670   -0.5240 C   0  0  0  0  0  0  0  0  0  0  0  0
   -2.0500   -1.2700   -0.4130 C   0  0  0  0  0  0  0  0  0  0  0  0
   -1.2010   -0.1910    0.0450 N   0  0  0  0  0  0  0  0  0  0  0  0
    0.1470    0.0490   -0.1280 C   0  0  0  0  0  0  0  0  0  0  0  0
    0.5950    1.0290    0.6300 O   0  0  0  0  0  0  0  0  0  0  0  0
    1.1490   -0.5760   -0.9910 C   0  0  2  0  0  0  0  0  0  0  0  0
    0.7080   -1.5560   -2.0170 C   0  0  0  0  0  0  0  0  0  0  0  0
    2.4170   -0.8500   -0.3880 N   0  0  0  0  0  0  0  0  0  0  0  0
    3.4400    0.0660   -0.0610 C   0  0  0  0  0  0  0  0  0  0  0  0
    3.3680    1.3940   -0.3900 C   0  0  0  0  0  0  0  0  0  0  0  0
    4.3860    2.2290   -0.0150 N   0  0  0  0  0  0  0  0  0  0  0  0
    5.4370    1.7410    0.6650 C   0  0  0  0  0  0  0  0  0  0  0  0
    6.5600    2.3150    1.1540 N   0  0  0  0  0  0  0  0  0  0  0  0
    7.3040    1.4070    1.7580 N   0  0  0  0  0  0  0  0  0  0  0  0
    6.7250    0.2010    1.7040 C   0  0  0  0  0  0  0  0  0  0  0  0
    5.5300    0.4090    1.0050 C   0  0  0  0  0  0  0  0  0  0  0  0
    4.5380   -0.3890    0.6380 N   0  0  0  0  0  0  0  0  0  0  0  0
  1  2  2  0
  2  3  1  0
  4  3  1  6
  4  5  1  0
  4 14  1  0
  5  6  1  0
  6  7  2  0
  6 13  1  0
  7  8  1  0
  8  9  1  0
  9 10  1  1
  9 11  1  0
  9 12  1  0
 12 13  2  0
 13 14  1  0
 14 15  1  0
 15 16  2  0
 15 17  1  0
 17 18  1  1
 17 19  1  0
 19 20  1  0
 20 21  2  0
 20 28  1  0
 21 22  1  0
 22 23  2  0
 23 24  1  0
 23 27  1  0
 24 25  1  0
 25 26  2  0
 26 27  1  0
 27 28  2  0
M  END
