
     RDKit          3D

 28 31  0  0  0  0  0  0  0  0999 V2000
    3.7150    1.3470   -3.9620 C   0  0  0  0  0  0  0  0  0  0  0  0
    3.7610    0.9900   -2.5240 C   0  0  0  0  0  0  0  0  0  0  0  0
    4.3300    1.7940   -1.5940 F   0  0  0  0  0  0  0  0  0  0  0  0
    3.2350   -0.1300   -2.1660 N   0  0  0  0  0  0  0  0  0  0  0  0
    3.2650   -0.5050   -0.7690 C   0  0  0  0  0  0  0  0  0  0  0  0
    4.4020   -0.5780   -0.1320 C   0  0  0  0  0  0  0  0  0  0  0  0
    5.5730   -0.3120   -0.7410 F   0  0  0  0  0  0  0  0  0  0  0  0
    2.0500   -0.7760   -0.1470 N   0  0  0  0  0  0  0  0  0  0  0  0
    1.6760   -1.9180    0.3520 C   0  0  0  0  0  0  0  0  0  0  0  0
    2.5660   -3.0180    0.2740 N   0  0  0  0  0  0  0  0  0  0  0  0
    2.2000   -4.2590    0.7560 N   0  0  0  0  0  0  0  0  0  0  0  0
    0.8960   -4.4330    1.3440 C   0  0  0  0  0  0  0  0  0  0  0  0
    0.4550   -5.5940    1.5250 O   0  0  0  0  0  0  0  0  0  0  0  0
    0.0950   -3.2740    1.7260 C   0  0  0  0  0  0  0  0  0  0  0  0
    0.3990   -2.0690    0.9280 N   0  0  0  0  0  0  0  0  0  0  0  0
   -0.6940   -1.1760    0.7610 C   0  0  0  0  0  0  0  0  0  0  0  0
   -0.4530    0.2110    0.3310 C   0  0  2  0  0  0  0  0  0  0  0  0
    0.3570    1.0520    1.2980 C   0  0  0  0  0  0  0  0  0  0  0  0
    0.8720    2.2530    0.5770 C   0  0  0  0  0  0  0  0  0  0  0  0
   -0.1640    2.9210   -0.2620 C   0  0  0  0  0  0  0  0  0  0  0  0
   -1.5210    2.3260   -0.1660 C   0  0  0  0  0  0  0  0  0  0  0  0
   -2.7360    2.8420   -0.3130 N   0  0  0  0  0  0  0  0  0  0  0  0
   -3.6940    1.9140   -0.1350 C   0  0  0  0  0  0  0  0  0  0  0  0
   -3.0540    0.7190    0.1440 C   0  0  0  0  0  0  0  0  0  0  0  0
   -1.7120    0.9870    0.1230 C   0  0  0  0  0  0  0  0  0  0  0  0
   -4.0840   -0.3620    0.3520 C   0  0  0  0  0  0  0  0  0  0  0  0
   -5.2520    0.4780    0.8300 C   0  0  0  0  0  0  0  0  0  0  0  0
   -5.1690    1.6490   -0.1180 C   0  0  0  0  0  0  0  0  0  0  0  0
  1  2  1  0
  2  3  1  0
  2  4  2  3
  4  5  1  0
  5  6  2  3
  5  8  1  0
  6  7  1  0
  8  9  2  3
  9 10  1  0
  9 15  1  0
 10 11  1  0
 11 12  1  0
 12 13  2  0
 12 14  1  0
 14 15  1  0
 15 16  1  0
 17 16  1  1
 17 18  1  0
 17 25  1  0
 18 19  1  0
 19 20  1  0
 20 21  1  0
 21 22  1  0
 21 25  2  0
 22 23  1  0
 23 24  2  0
 23 28  1  0
 24 25  1  0
 24 26  1  0
 26 27  1  0
 27 28  1  0
M  END
