
     RDKit          3D

 28 31  0  0  0  0  0  0  0  0999 V2000
   -1.9610    3.8430    2.2240 C   0  0  0  0  0  0  0  0  0  0  0  0
   -1.8560    3.2240    0.8790 C   0  0  0  0  0  0  0  0  0  0  0  0
   -2.3510    2.0310    0.6070 C   0  0  0  0  0  0  0  0  0  0  0  0
   -3.0430    1.1940    1.5630 C   0  0  0  0  0  0  0  0  0  0  0  0
   -3.3610    1.5280    2.8200 F   0  0  0  0  0  0  0  0  0  0  0  0
   -3.3030    0.0760    1.0030 N   0  0  0  0  0  0  0  0  0  0  0  0
   -2.8650   -0.0020   -0.2950 N   0  0  0  0  0  0  0  0  0  0  0  0
   -2.8250   -1.0420   -1.2790 C   0  0  0  0  0  0  0  0  0  0  0  0
   -1.4570   -1.3780   -1.4810 N   0  0  0  0  0  0  0  0  0  0  0  0
   -1.1400   -2.2940   -2.5060 C   0  0  0  0  0  0  0  0  0  0  0  0
   -1.6360   -3.6980   -2.2140 C   0  0  0  0  0  0  0  0  0  0  0  0
   -1.0150   -4.2100   -0.9350 C   0  0  0  0  0  0  0  0  0  0  0  0
   -0.5180   -0.3850   -1.1430 C   0  0  0  0  0  0  0  0  0  0  0  0
   -0.9910    1.0530   -1.2630 C   0  0  2  0  0  0  0  0  0  0  0  0
    0.0900    1.9020   -0.6940 C   0  0  0  0  0  0  0  0  0  0  0  0
    0.6560    2.7570   -1.4160 O   0  0  0  0  0  0  0  0  0  0  0  0
    0.5260    1.7930    0.6550 N   0  0  0  0  0  0  0  0  0  0  0  0
    1.6740    1.2430    0.8510 C   0  0  0  0  0  0  0  0  0  0  0  0
    2.2290    1.0640    2.0530 N   0  0  0  0  0  0  0  0  0  0  0  0
    3.4290    0.4640    1.9260 C   0  0  0  0  0  0  0  0  0  0  0  0
    4.3670    0.0760    2.8580 C   0  0  0  0  0  0  0  0  0  0  0  0
    5.5200   -0.5270    2.3980 C   0  0  0  0  0  0  0  0  0  0  0  0
    6.4630   -0.9190    3.2900 F   0  0  0  0  0  0  0  0  0  0  0  0
    5.7150   -0.7290    1.0430 C   0  0  0  0  0  0  0  0  0  0  0  0
    4.7590   -0.3250    0.2000 N   0  0  0  0  0  0  0  0  0  0  0  0
    3.6280    0.2610    0.5800 C   0  0  0  0  0  0  0  0  0  0  0  0
    2.5510    0.7410   -0.0510 N   0  0  0  0  0  0  0  0  0  0  0  0
   -2.3320    1.2950   -0.6580 C   0  0  2  0  0  0  0  0  0  0  0  0
  1  2  1  0
  2  3  2  3
  3  4  1  0
 28  3  1  1
  4  5  1  0
  4  6  2  0
  6  7  1  0
  7  8  1  0
  7 28  1  0
  8  9  1  0
  9 10  1  0
  9 13  1  0
 10 11  1  0
 11 12  1  0
 13 14  1  0
 14 15  1  1
 14 28  1  0
 15 16  2  0
 15 17  1  0
 17 18  2  3
 18 19  1  0
 18 27  1  0
 19 20  1  0
 20 21  2  0
 20 26  1  0
 21 22  1  0
 22 23  1  0
 22 24  2  0
 24 25  1  0
 25 26  2  0
 26 27  1  0
M  END
