
     RDKit          3D

 36 38  0  0  0  0  0  0  0  0999 V2000
   -6.5410   -0.6750    0.4930 C   0  0  0  0  0  0  0  0  0  0  0  0
   -5.2660    0.1010    0.5840 C   0  0  0  0  0  0  0  0  0  0  0  0
   -4.0440   -0.5400    0.3100 C   0  0  0  0  0  0  0  0  0  0  0  0
   -2.8480    0.1250    0.3790 C   0  0  0  0  0  0  0  0  0  0  0  0
   -1.6350   -0.5420    0.0990 N   0  0  0  0  0  0  0  0  0  0  0  0
   -1.4230   -1.8610   -0.2640 C   0  0  0  0  0  0  0  0  0  0  0  0
   -2.3790   -2.6540   -0.3880 O   0  0  0  0  0  0  0  0  0  0  0  0
   -0.0690   -2.4460   -0.5350 C   0  0  1  0  0  0  0  0  0  0  0  0
    0.8710   -1.4720   -0.3630 O   0  0  0  0  0  0  0  0  0  0  0  0
    2.2320   -1.5550   -0.5040 C   0  0  0  0  0  0  0  0  0  0  0  0
    2.6930   -2.6710   -0.8350 O   0  0  0  0  0  0  0  0  0  0  0  0
    3.1570   -0.4660   -0.3000 C   0  0  0  0  0  0  0  0  0  0  0  0
    3.7700   -0.1250    0.8630 C   0  0  0  0  0  0  0  0  0  0  0  0
    3.6180   -0.8120    2.1940 C   0  0  0  0  0  0  0  0  0  0  0  0
    4.5650    0.9440    0.6830 N   0  0  0  0  0  0  0  0  0  0  0  0
    4.4830    1.3310   -0.6400 C   0  0  0  0  0  0  0  0  0  0  0  0
    5.2540    2.4510   -1.1420 C   0  0  0  0  0  0  0  0  0  0  0  0
    6.1460    3.0650   -0.3400 C   0  0  0  0  0  0  0  0  0  0  0  0
    6.8800    4.1160   -0.7840 F   0  0  0  0  0  0  0  0  0  0  0  0
    5.0930    2.9990   -2.4950 C   0  0  1  0  0  0  0  0  0  0  0  0
    3.8720    3.6570   -2.6590 F   0  0  0  0  0  0  0  0  0  0  0  0
    6.0300    4.0550   -2.6780 F   0  0  0  0  0  0  0  0  0  0  0  0
    5.3450    2.1480   -3.5200 F   0  0  0  0  0  0  0  0  0  0  0  0
    3.6210    0.4660   -1.2370 C   0  0  0  0  0  0  0  0  0  0  0  0
    3.2030    0.4270   -2.6470 C   0  0  0  0  0  0  0  0  0  0  0  0
    0.0560   -3.6320    0.3990 C   0  0  0  0  0  0  0  0  0  0  0  0
   -0.7670   -4.6600   -0.3490 C   0  0  0  0  0  0  0  0  0  0  0  0
   -1.0920   -4.1250   -1.5730 O   0  0  0  0  0  0  0  0  0  0  0  0
   -0.1040   -3.1460   -1.8500 C   0  0  0  0  0  0  0  0  0  0  0  0
   -2.8400    1.4720    0.7300 C   0  0  0  0  0  0  0  0  0  0  0  0
   -1.5580    2.1730    0.8010 C   0  0  0  0  0  0  0  0  0  0  0  0
   -1.7370    3.5040    1.1650 O   0  0  0  0  0  0  0  0  0  0  0  0
   -4.0260    2.0930    0.9960 C   0  0  0  0  0  0  0  0  0  0  0  0
   -4.0400    3.7760    1.4370 Cl  0  0  0  0  0  0  0  0  0  0  0  0
   -5.2440    1.4230    0.9280 C   0  0  0  0  0  0  0  0  0  0  0  0
   -6.5280    2.1100    1.2190 C   0  0  0  0  0  0  0  0  0  0  0  0
  1  2  1  0
  2  3  2  0
  2 35  1  0
  3  4  1  0
  4  5  1  0
  4 30  2  0
  5  6  1  0
  6  7  2  0
  6  8  1  0
  8  9  1  6
  8 26  1  0
  8 29  1  0
  9 10  1  0
 10 11  2  0
 10 12  1  0
 12 13  2  0
 12 24  1  0
 13 14  1  0
 13 15  1  0
 15 16  1  0
 16 17  1  0
 16 24  2  0
 17 18  2  3
 17 20  1  0
 18 19  1  0
 20 21  1  6
 20 22  1  0
 20 23  1  0
 24 25  1  0
 26 27  1  0
 27 28  1  0
 28 29  1  0
 30 31  1  0
 30 33  1  0
 31 32  1  0
 33 34  1  0
 33 35  2  0
 35 36  1  0
M  END
