
     RDKit          3D

 36 38  0  0  0  0  0  0  0  0999 V2000
   -7.9140    2.0220   -1.5750 C   0  0  0  0  0  0  0  0  0  0  0  0
   -8.0750    1.4050   -0.2080 C   0  0  2  0  0  0  0  0  0  0  0  0
   -7.9500    2.5700    0.7980 C   0  0  0  0  0  0  0  0  0  0  0  0
   -6.9180    0.5330    0.0650 C   0  0  0  0  0  0  0  0  0  0  0  0
   -5.8130    0.5800   -0.7540 C   0  0  0  0  0  0  0  0  0  0  0  0
   -4.7000   -0.2090   -0.4960 C   0  0  0  0  0  0  0  0  0  0  0  0
   -3.6300   -0.1170   -1.3520 O   0  0  0  0  0  0  0  0  0  0  0  0
   -2.3660   -0.6700   -1.0910 C   0  0  0  0  0  0  0  0  0  0  0  0
   -1.4190    0.0470   -0.4020 C   0  0  0  0  0  0  0  0  0  0  0  0
   -0.1570   -0.4930   -0.1310 C   0  0  0  0  0  0  0  0  0  0  0  0
    0.2010   -1.7520   -0.5340 C   0  0  0  0  0  0  0  0  0  0  0  0
    1.4940   -2.3980   -0.2080 C   0  0  1  0  0  0  0  0  0  0  0  0
    2.0680   -3.1450   -1.1940 O   0  0  0  0  0  0  0  0  0  0  0  0
    2.4070   -1.6460    0.6860 C   0  0  0  0  0  0  0  0  0  0  0  0
    3.3420   -0.7320    0.1860 N   0  0  0  0  0  0  0  0  0  0  0  0
    4.4490   -1.0630   -0.6640 C   0  0  0  0  0  0  0  0  0  0  0  0
    4.5550   -2.2560   -1.0690 O   0  0  0  0  0  0  0  0  0  0  0  0
    5.4050   -0.0850   -1.0220 N   0  0  0  0  0  0  0  0  0  0  0  0
    6.5890   -0.3520   -1.8220 C   0  0  0  0  0  0  0  0  0  0  0  0
    7.6880    0.4260   -1.1190 C   0  0  0  0  0  0  0  0  0  0  0  0
    9.0210    0.1680   -1.1820 C   0  0  0  0  0  0  0  0  0  0  0  0
    9.6630    1.1170   -0.3770 C   0  0  0  0  0  0  0  0  0  0  0  0
    8.6490    1.9040    0.1310 C   0  0  0  0  0  0  0  0  0  0  0  0
    8.7810    3.0750    1.0660 C   0  0  2  0  0  0  0  0  0  0  0  0
    8.3560    4.1850    0.4000 F   0  0  0  0  0  0  0  0  0  0  0  0
   10.0900    3.1750    1.4770 F   0  0  0  0  0  0  0  0  0  0  0  0
    7.9770    2.8640    2.1880 F   0  0  0  0  0  0  0  0  0  0  0  0
    7.5030    1.4590   -0.3390 O   0  0  0  0  0  0  0  0  0  0  0  0
   -0.7810   -2.4610   -1.2400 C   0  0  0  0  0  0  0  0  0  0  0  0
   -0.3340   -4.0790   -1.7710 Cl  0  0  0  0  0  0  0  0  0  0  0  0
   -2.0320   -1.9440   -1.5150 C   0  0  0  0  0  0  0  0  0  0  0  0
   -4.6850   -1.0710    0.6170 C   0  0  0  0  0  0  0  0  0  0  0  0
   -5.7960   -1.1170    1.4400 C   0  0  0  0  0  0  0  0  0  0  0  0
   -5.7830   -1.9800    2.5480 O   0  0  0  0  0  0  0  0  0  0  0  0
   -6.8790   -0.3240    1.1510 C   0  0  0  0  0  0  0  0  0  0  0  0
   -7.9700   -0.3770    1.9580 F   0  0  0  0  0  0  0  0  0  0  0  0
  2  1  1  6
  2  3  1  0
  2  4  1  0
  4  5  2  0
  4 35  1  0
  5  6  1  0
  6  7  1  0
  6 32  2  0
  7  8  1  0
  8  9  2  0
  8 31  1  0
  9 10  1  0
 10 11  2  0
 11 12  1  0
 11 29  1  0
 12 13  1  6
 12 14  1  0
 14 15  1  0
 15 16  1  0
 16 17  2  0
 16 18  1  0
 18 19  1  0
 19 20  1  0
 20 21  2  0
 20 28  1  0
 21 22  1  0
 22 23  2  0
 23 24  1  0
 23 28  1  0
 24 25  1  6
 24 26  1  0
 24 27  1  0
 29 30  1  0
 29 31  2  0
 32 33  1  0
 33 34  1  0
 33 35  2  0
 35 36  1  0
M  END
