
     RDKit          3D

 37 40  0  0  0  0  0  0  0  0999 V2000
   -6.8400   -2.0780   -0.6070 C   0  0  0  0  0  0  0  0  0  0  0  0
   -7.0360   -0.7480    0.0070 C   0  0  1  0  0  0  0  0  0  0  0  0
   -7.2560   -0.7490    1.4940 C   0  0  0  0  0  0  0  0  0  0  0  0
   -7.1660    0.6670    1.9000 N   0  0  0  0  0  0  0  0  0  0  0  0
   -7.5990    0.6700    3.3040 C   0  0  0  0  0  0  0  0  0  0  0  0
   -8.1190    1.4280    1.1530 C   0  0  0  0  0  0  0  0  0  0  0  0
   -7.6060    1.9820   -0.1510 C   0  0  0  0  0  0  0  0  0  0  0  0
   -6.1290    1.6020   -0.3680 C   0  0  0  0  0  0  0  0  0  0  0  0
   -5.9310    0.2060   -0.2190 N   0  0  0  0  0  0  0  0  0  0  0  0
   -4.6590   -0.3610   -0.2810 C   0  0  0  0  0  0  0  0  0  0  0  0
   -4.5650   -1.6560   -0.0950 O   0  0  0  0  0  0  0  0  0  0  0  0
   -3.3670    0.2880   -0.5330 C   0  0  0  0  0  0  0  0  0  0  0  0
   -2.1330   -0.4120   -0.5270 C   0  0  0  0  0  0  0  0  0  0  0  0
   -1.1700    0.4900   -0.7830 C   0  0  0  0  0  0  0  0  0  0  0  0
    0.2420    0.2680   -0.8840 N   0  0  0  0  0  0  0  0  0  0  0  0
    0.8470   -0.9860   -0.7190 C   0  0  0  0  0  0  0  0  0  0  0  0
    0.0540   -2.0610   -0.5640 N   0  0  0  0  0  0  0  0  0  0  0  0
    0.4880   -3.3160   -0.4710 C   0  0  0  0  0  0  0  0  0  0  0  0
    1.8370   -3.5530   -0.5330 C   0  0  0  0  0  0  0  0  0  0  0  0
    2.6930   -2.4650   -0.6900 C   0  0  0  0  0  0  0  0  0  0  0  0
    2.2190   -1.1730   -0.7840 C   0  0  0  0  0  0  0  0  0  0  0  0
    3.1340   -0.0590   -0.8300 C   0  0  0  0  0  0  0  0  0  0  0  0
    2.6110    1.1280   -0.6260 O   0  0  0  0  0  0  0  0  0  0  0  0
    4.5230    0.0400   -1.0610 N   0  0  0  0  0  0  0  0  0  0  0  0
    5.4090   -1.0200   -1.3520 C   0  0  0  0  0  0  0  0  0  0  0  0
    6.7280   -0.6390   -1.9990 C   0  0  0  0  0  0  0  0  0  0  0  0
    7.1810    0.7350   -1.6920 C   0  0  0  0  0  0  0  0  0  0  0  0
    6.4690    1.3880   -0.5730 C   0  0  2  0  0  0  0  0  0  0  0  0
    6.6590    0.9290    0.8070 C   0  0  0  0  0  0  0  0  0  0  0  0
    8.0020    0.9730    1.4070 C   0  0  0  0  0  0  0  0  0  0  0  0
    8.2220    1.8260    2.4010 C   0  0  0  0  0  0  0  0  0  0  0  0
    9.8000    1.9040    3.1340 Cl  0  0  0  0  0  0  0  0  0  0  0  0
    9.1010    0.0690    1.0210 C   0  0  0  0  0  0  0  0  0  0  0  0
    8.5110   -1.6250    1.2020 Cl  0  0  0  0  0  0  0  0  0  0  0  0
    5.0120    1.4550   -0.9810 C   0  0  0  0  0  0  0  0  0  0  0  0
   -1.7680    1.6610   -0.9350 N   0  0  0  0  0  0  0  0  0  0  0  0
   -3.0790    1.5680   -0.7910 N   0  0  0  0  0  0  0  0  0  0  0  0
  2  1  1  1
  2  3  1  0
  2  9  1  0
  3  4  1  0
  4  5  1  0
  4  6  1  0
  6  7  1  0
  7  8  1  0
  8  9  1  0
  9 10  1  0
 10 11  2  0
 10 12  1  0
 12 13  2  0
 12 37  1  0
 13 14  1  0
 14 15  1  0
 14 36  2  0
 15 16  1  0
 16 17  2  0
 16 21  1  0
 17 18  1  0
 18 19  2  0
 19 20  1  0
 20 21  2  0
 21 22  1  0
 22 23  2  0
 22 24  1  0
 24 25  1  0
 24 35  1  0
 25 26  1  0
 26 27  1  0
 27 28  1  0
 28 29  1  1
 28 35  1  0
 29 30  1  0
 30 31  2  3
 30 33  1  0
 31 32  1  0
 33 34  1  0
 36 37  1  0
M  END
