
     RDKit          3D

 36 37  0  0  0  0  0  0  0  0999 V2000
   -3.4010    1.6710   -0.3640 C   0  0  0  0  0  0  0  0  0  0  0  0
   -4.7990    1.7870    0.0580 C   0  0  0  0  0  0  0  0  0  0  0  0
   -5.4170    2.9900   -0.2290 F   0  0  0  0  0  0  0  0  0  0  0  0
   -5.5300    0.8820    0.6720 C   0  0  0  0  0  0  0  0  0  0  0  0
   -4.9270   -0.4060    1.0020 C   0  0  0  0  0  0  0  0  0  0  0  0
   -5.5730   -1.6080    0.7480 C   0  0  0  0  0  0  0  0  0  0  0  0
   -5.0120   -2.8180    1.0410 C   0  0  0  0  0  0  0  0  0  0  0  0
   -5.6790   -4.0060    0.7750 O   0  0  0  0  0  0  0  0  0  0  0  0
   -3.7300   -2.8770    1.6270 C   0  0  0  0  0  0  0  0  0  0  0  0
   -3.0690   -1.7350    1.8900 C   0  0  0  0  0  0  0  0  0  0  0  0
   -1.6750   -1.6390    2.4670 C   0  0  0  0  0  0  0  0  0  0  0  0
   -0.7220   -1.2430    1.4160 C   0  0  0  0  0  0  0  0  0  0  0  0
   -1.2010   -1.2130    0.2230 O   0  0  0  0  0  0  0  0  0  0  0  0
    0.6740   -0.8890    1.6360 C   0  0  0  0  0  0  0  0  0  0  0  0
    1.4340   -0.5100    0.5720 C   0  0  0  0  0  0  0  0  0  0  0  0
    0.7140   -0.5220   -0.6690 N   0  0  0  0  0  0  0  0  0  0  0  0
    2.8010   -0.1080    0.6400 C   0  0  0  0  0  0  0  0  0  0  0  0
    3.6260    0.2620   -0.3030 C   0  0  0  0  0  0  0  0  0  0  0  0
    3.4840    0.3980   -1.7130 C   0  0  0  0  0  0  0  0  0  0  0  0
    2.3130    0.1150   -2.4040 O   0  0  0  0  0  0  0  0  0  0  0  0
    4.4660    0.7990   -2.4440 C   0  0  0  0  0  0  0  0  0  0  0  0
    5.7810    1.2270   -2.5840 C   0  0  0  0  0  0  0  0  0  0  0  0
    6.7060    1.4300   -1.4450 C   0  0  0  0  0  0  0  0  0  0  0  0
    6.2890    1.5290   -3.8210 C   0  0  0  0  0  0  0  0  0  0  0  0
    5.4100    1.3910   -4.9700 C   0  0  0  0  0  0  0  0  0  0  0  0
    7.9470    2.0650   -3.9710 Cl  0  0  0  0  0  0  0  0  0  0  0  0
    3.3900   -0.1240    2.0380 C   0  0  0  0  0  0  0  0  0  0  0  0
    4.6030    0.2250    2.1780 O   0  0  0  0  0  0  0  0  0  0  0  0
    2.5900   -0.5150    3.1030 N   0  0  0  0  0  0  0  0  0  0  0  0
    1.2340   -0.9070    2.9700 C   0  0  0  0  0  0  0  0  0  0  0  0
    0.5280   -1.2630    3.9610 O   0  0  0  0  0  0  0  0  0  0  0  0
   -3.6570   -0.5210    1.5850 C   0  0  0  0  0  0  0  0  0  0  0  0
   -6.9500    1.2080    0.9780 C   0  0  1  0  0  0  0  0  0  0  0  0
   -7.2210    2.5050    0.5400 F   0  0  0  0  0  0  0  0  0  0  0  0
   -7.8130    0.4010    0.2600 F   0  0  0  0  0  0  0  0  0  0  0  0
   -7.1740    1.1760    2.3400 F   0  0  0  0  0  0  0  0  0  0  0  0
  1  2  1  0
  2  3  1  0
  2  4  2  3
  4  5  1  0
  4 33  1  0
  5  6  2  0
  5 32  1  0
  6  7  1  0
  7  8  1  0
  7  9  2  0
  9 10  1  0
 10 11  1  0
 10 32  2  0
 11 12  1  0
 12 13  2  0
 12 14  1  0
 14 15  2  0
 14 30  1  0
 15 16  1  0
 15 17  1  0
 17 18  2  3
 17 27  1  0
 18 19  1  0
 19 20  1  0
 19 21  2  3
 21 22  1  0
 22 23  1  0
 22 24  2  3
 24 25  1  0
 24 26  1  0
 27 28  2  0
 27 29  1  0
 29 30  1  0
 30 31  2  0
 33 34  1  6
 33 35  1  0
 33 36  1  0
M  END
