
     RDKit          3D

 37 40  0  0  0  0  0  0  0  0999 V2000
   -0.0330   -0.0610    3.8650 C   0  0  0  0  0  0  0  0  0  0  0  0
   -0.0370   -0.4030    2.4340 C   0  0  0  0  0  0  0  0  0  0  0  0
    0.9030   -0.1000    1.5300 N   0  0  0  0  0  0  0  0  0  0  0  0
    0.5430   -0.6010    0.3530 C   0  0  0  0  0  0  0  0  0  0  0  0
    1.3820   -0.4840   -0.8970 C   0  0  1  0  0  0  0  0  0  0  0  0
    1.4690    0.8990   -1.3780 C   0  0  0  0  0  0  0  0  0  0  0  0
    2.8860    1.3500   -1.2240 C   0  0  0  0  0  0  0  0  0  0  0  0
    3.6390    0.2000   -0.8680 N   0  0  0  0  0  0  0  0  0  0  0  0
    4.5470    0.4910    0.2050 C   0  0  0  0  0  0  0  0  0  0  0  0
    5.6180    1.4660   -0.1860 C   0  0  0  0  0  0  0  0  0  0  0  0
    5.5750    2.8020    0.1550 C   0  0  0  0  0  0  0  0  0  0  0  0
    6.5770    3.6680   -0.2160 C   0  0  0  0  0  0  0  0  0  0  0  0
    7.6670    3.2230   -0.9530 C   0  0  0  0  0  0  0  0  0  0  0  0
    7.7490    1.8720   -1.3210 C   0  0  0  0  0  0  0  0  0  0  0  0
    8.9020    1.4170   -2.0840 C   0  0  0  0  0  0  0  0  0  0  0  0
    8.7690    0.5800   -3.0890 C   0  0  0  0  0  0  0  0  0  0  0  0
   10.1810    0.0450   -3.9870 Cl  0  0  0  0  0  0  0  0  0  0  0  0
    7.2270   -0.0380   -3.6160 Cl  0  0  0  0  0  0  0  0  0  0  0  0
    6.7150    1.0560   -0.9170 C   0  0  0  0  0  0  0  0  0  0  0  0
    2.7890   -0.9110   -0.6240 C   0  0  0  0  0  0  0  0  0  0  0  0
   -0.6370   -1.2250    0.5170 N   0  0  0  0  0  0  0  0  0  0  0  0
   -1.0590   -1.1430    1.7830 C   0  0  0  0  0  0  0  0  0  0  0  0
   -2.2420   -1.6390    2.4590 C   0  0  0  0  0  0  0  0  0  0  0  0
   -2.4010   -1.4200    3.7140 O   0  0  0  0  0  0  0  0  0  0  0  0
   -3.2550   -2.3610    1.8140 N   0  0  0  0  0  0  0  0  0  0  0  0
   -3.2980   -2.7080    0.4220 C   0  0  0  0  0  0  0  0  0  0  0  0
   -4.3820   -1.9220   -0.2540 C   0  0  0  0  0  0  0  0  0  0  0  0
   -5.5450   -1.8920    0.6110 N   0  0  0  0  0  0  0  0  0  0  0  0
   -6.6070   -1.0280    0.2840 C   0  0  0  0  0  0  0  0  0  0  0  0
   -7.6090   -0.9530    1.0130 O   0  0  0  0  0  0  0  0  0  0  0  0
   -6.5630   -0.2120   -0.9050 N   0  0  0  0  0  0  0  0  0  0  0  0
   -7.6980    0.6350   -1.1570 C   0  0  0  0  0  0  0  0  0  0  0  0
   -7.5680    1.4020   -2.4400 C   0  0  0  0  0  0  0  0  0  0  0  0
   -6.4420    2.2720   -2.4930 C   0  0  0  0  0  0  0  0  0  0  0  0
   -5.5110    2.9980   -2.5430 N   0  0  0  0  0  0  0  0  0  0  0  0
   -5.6730   -2.7260    1.7880 C   0  0  0  0  0  0  0  0  0  0  0  0
   -4.4250   -2.8590    2.5910 C   0  0  0  0  0  0  0  0  0  0  0  0
  1  2  1  0
  2  3  1  0
  2 22  2  0
  3  4  1  0
  5  4  1  1
  4 21  2  0
  5  6  1  0
  5 20  1  0
  6  7  1  0
  7  8  1  0
  8  9  1  0
  8 20  1  0
  9 10  1  0
 10 11  2  0
 10 19  1  0
 11 12  1  0
 12 13  2  0
 13 14  1  0
 14 15  1  0
 14 19  2  0
 15 16  2  3
 16 17  1  0
 16 18  1  0
 21 22  1  0
 22 23  1  0
 23 24  2  0
 23 25  1  0
 25 26  1  0
 25 37  1  0
 26 27  1  0
 27 28  1  0
 28 29  1  0
 28 36  1  0
 29 30  2  0
 29 31  1  0
 31 32  1  0
 32 33  1  0
 33 34  1  0
 34 35  3  0
 36 37  1  0
M  END
