
     RDKit          3D

 37 42  0  0  0  0  0  0  0  0999 V2000
    3.7920   -3.2910   -1.3280 C   0  0  0  0  0  0  0  0  0  0  0  0
    4.6610   -2.3480   -0.7420 O   0  0  0  0  0  0  0  0  0  0  0  0
    4.2590   -1.0290   -0.6160 C   0  0  0  0  0  0  0  0  0  0  0  0
    3.0210   -0.5860   -1.0470 C   0  0  0  0  0  0  0  0  0  0  0  0
    2.6110    0.7180   -0.9280 C   0  0  0  0  0  0  0  0  0  0  0  0
    1.2820    1.1780   -1.3940 C   0  0  0  0  0  0  0  0  0  0  0  0
    0.2940    0.4360   -1.9990 C   0  0  0  0  0  0  0  0  0  0  0  0
   -0.7560    1.2290   -2.2610 N   0  0  0  0  0  0  0  0  0  0  0  0
   -2.0110    0.8650   -2.8950 C   0  0  0  0  0  0  0  0  0  0  0  0
   -2.9280    0.4260   -1.7650 C   0  0  0  0  0  0  0  0  0  0  0  0
   -3.1710   -0.7800   -1.6340 O   0  0  0  0  0  0  0  0  0  0  0  0
   -3.4790    1.3770   -0.8950 N   0  0  0  0  0  0  0  0  0  0  0  0
   -4.3890    1.1970    0.1680 C   0  0  0  0  0  0  0  0  0  0  0  0
   -4.7110    2.2530    1.0500 C   0  0  0  0  0  0  0  0  0  0  0  0
   -5.6380    1.7830    1.9400 C   0  0  0  0  0  0  0  0  0  0  0  0
   -6.2320    2.6210    3.0480 C   0  0  2  0  0  0  0  0  0  0  0  0
   -6.3140    4.0870    2.8220 C   0  0  0  0  0  0  0  0  0  0  0  0
   -5.3090    3.6510    3.5990 C   0  0  0  0  0  0  0  0  0  0  0  0
   -5.8690    0.5360    1.6300 N   0  0  0  0  0  0  0  0  0  0  0  0
   -5.1180    0.1890    0.5660 N   0  0  0  0  0  0  0  0  0  0  0  0
   -5.2740   -1.1340    0.0710 C   0  0  0  0  0  0  0  0  0  0  0  0
   -4.6700   -2.2510    0.6220 C   0  0  0  0  0  0  0  0  0  0  0  0
   -4.8950   -3.5220    0.1330 C   0  0  0  0  0  0  0  0  0  0  0  0
   -5.7470   -3.7290   -0.9450 C   0  0  0  0  0  0  0  0  0  0  0  0
   -6.3640   -2.6220   -1.5130 C   0  0  0  0  0  0  0  0  0  0  0  0
   -6.1280   -1.3670   -1.0130 C   0  0  0  0  0  0  0  0  0  0  0  0
   -0.4070    2.4370   -1.8210 N   0  0  0  0  0  0  0  0  0  0  0  0
    0.8010    2.4300   -1.3010 N   0  0  0  0  0  0  0  0  0  0  0  0
    3.4730    1.6360   -0.3520 C   0  0  0  0  0  0  0  0  0  0  0  0
    4.7120    1.2300    0.0870 C   0  0  0  0  0  0  0  0  0  0  0  0
    5.1000   -0.1090   -0.0480 C   0  0  0  0  0  0  0  0  0  0  0  0
    6.4060   -0.4380    0.4420 N   0  0  0  0  0  0  0  0  0  0  0  0
    6.8190   -1.6340    0.8840 C   0  0  0  0  0  0  0  0  0  0  0  0
    8.1250   -1.5400    1.2690 N   0  0  0  0  0  0  0  0  0  0  0  0
    8.5120   -0.2710    1.0590 C   0  0  0  0  0  0  0  0  0  0  0  0
    9.8700    0.2290    1.3570 C   0  0  0  0  0  0  0  0  0  0  0  0
    7.4450    0.4260    0.5430 C   0  0  0  0  0  0  0  0  0  0  0  0
  1  2  1  0
  2  3  1  0
  3  4  2  0
  3 31  1  0
  4  5  1  0
  5  6  1  0
  5 29  2  0
  6  7  2  0
  6 28  1  0
  7  8  1  0
  8  9  1  0
  8 27  1  0
  9 10  1  0
 10 11  2  0
 10 12  1  0
 12 13  1  0
 13 14  2  0
 13 20  1  0
 14 15  1  0
 16 15  1  6
 15 19  2  0
 16 17  1  0
 16 18  1  0
 17 18  2  0
 19 20  1  0
 20 21  1  0
 21 22  2  0
 21 26  1  0
 22 23  1  0
 23 24  2  0
 24 25  1  0
 25 26  2  0
 27 28  2  0
 29 30  1  0
 30 31  2  0
 31 32  1  0
 32 33  1  0
 32 37  1  0
 33 34  2  0
 34 35  1  0
 35 36  1  0
 35 37  2  0
M  END
