
     RDKit          3D

 37 40  0  0  0  0  0  0  0  0999 V2000
   -6.5680    1.4020    2.1110 C   0  0  0  0  0  0  0  0  0  0  0  0
   -6.1160    0.7880    0.8030 C   0  0  0  0  0  0  0  0  0  0  0  0
   -5.8660   -0.6900    1.0560 C   0  0  0  0  0  0  0  0  0  0  0  0
   -5.3630   -1.3580   -0.2250 C   0  0  2  0  0  0  0  0  0  0  0  0
   -4.0650   -0.6490   -0.5200 C   0  0  0  0  0  0  0  0  0  0  0  0
   -3.8970    0.0010   -1.5900 C   0  0  0  0  0  0  0  0  0  0  0  0
   -2.7410    0.7480   -2.0420 C   0  0  0  0  0  0  0  0  0  0  0  0
   -2.7880    1.3210   -3.1870 O   0  0  0  0  0  0  0  0  0  0  0  0
   -1.5150    0.9460   -1.3590 N   0  0  0  0  0  0  0  0  0  0  0  0
   -0.5880    1.8080   -2.1630 C   0  0  0  0  0  0  0  0  0  0  0  0
   -0.7260    3.2130   -1.5710 C   0  0  0  0  0  0  0  0  0  0  0  0
   -0.7120    3.0350   -0.0510 C   0  0  0  0  0  0  0  0  0  0  0  0
    0.3470    2.1780    0.2730 N   0  0  0  0  0  0  0  0  0  0  0  0
    1.3590    2.7040    1.1730 C   0  0  0  0  0  0  0  0  0  0  0  0
    2.3060    1.6020    1.4010 N   0  0  0  0  0  0  0  0  0  0  0  0
    2.1520    0.7110    2.3220 N   0  0  0  0  0  0  0  0  0  0  0  0
    2.9690   -0.3440    2.5970 C   0  0  0  0  0  0  0  0  0  0  0  0
    4.0980   -0.4630    1.7920 C   0  0  0  0  0  0  0  0  0  0  0  0
    5.1220   -1.3650    1.7650 C   0  0  0  0  0  0  0  0  0  0  0  0
    5.2640   -2.4770    2.6850 N   0  0  0  0  0  0  0  0  0  0  0  0
    5.9490   -1.0320    0.7850 N   0  0  0  0  0  0  0  0  0  0  0  0
    7.1310   -1.6630    0.3550 C   0  0  0  0  0  0  0  0  0  0  0  0
    7.2590   -2.0060   -1.0500 C   0  0  0  0  0  0  0  0  0  0  0  0
    8.3980   -2.6120   -1.4490 C   0  0  0  0  0  0  0  0  0  0  0  0
    9.4510   -2.9410   -0.6870 C   0  0  0  0  0  0  0  0  0  0  0  0
   10.8820   -3.7220   -1.2780 Cl  0  0  0  0  0  0  0  0  0  0  0  0
    9.3600   -2.6140    0.7180 C   0  0  0  0  0  0  0  0  0  0  0  0
    8.2010   -2.0030    1.1010 C   0  0  0  0  0  0  0  0  0  0  0  0
    5.4520    0.1120    0.1760 N   0  0  0  0  0  0  0  0  0  0  0  0
    4.3100    0.4610    0.7960 C   0  0  0  0  0  0  0  0  0  0  0  0
    3.4030    1.4810    0.6200 C   0  0  0  0  0  0  0  0  0  0  0  0
    3.5680    2.3540   -0.2840 O   0  0  0  0  0  0  0  0  0  0  0  0
    0.1580    0.7980    0.3810 C   0  0  0  0  0  0  0  0  0  0  0  0
   -1.2440    0.3780   -0.0820 C   0  0  0  0  0  0  0  0  0  0  0  0
   -6.3020   -1.1620   -1.3550 C   0  0  0  0  0  0  0  0  0  0  0  0
   -7.6730   -1.7850   -1.0660 C   0  0  0  0  0  0  0  0  0  0  0  0
   -8.7390   -1.5560   -2.4600 Cl  0  0  0  0  0  0  0  0  0  0  0  0
  1  2  1  0
  2  3  1  0
  4  3  1  1
  4  5  1  0
  4 35  1  0
  5  6  2  3
  6  7  1  0
  7  8  2  0
  7  9  1  0
  9 10  1  0
  9 34  1  0
 10 11  1  0
 11 12  1  0
 12 13  1  0
 13 14  1  0
 13 33  1  0
 14 15  1  0
 15 16  1  0
 15 31  1  0
 16 17  2  0
 17 18  1  0
 18 19  2  0
 18 30  1  0
 19 20  1  0
 19 21  1  0
 21 22  1  0
 21 29  1  0
 22 23  2  0
 22 28  1  0
 23 24  1  0
 24 25  2  0
 25 26  1  0
 25 27  1  0
 27 28  2  0
 29 30  2  0
 30 31  1  0
 31 32  2  0
 33 34  1  0
 35 36  1  0
 36 37  1  0
M  END
