
     RDKit          3D

 37 40  0  0  0  0  0  0  0  0999 V2000
   -2.1920   -2.8570   -3.4230 C   0  0  0  0  0  0  0  0  0  0  0  0
   -3.0880   -2.0130   -3.6950 C   0  0  0  0  0  0  0  0  0  0  0  0
   -3.9180   -1.1170   -2.9990 C   0  0  0  0  0  0  0  0  0  0  0  0
   -4.8140   -0.4080   -3.8560 C   0  0  0  0  0  0  0  0  0  0  0  0
   -4.0750   -0.6050   -1.6480 C   0  0  0  0  0  0  0  0  0  0  0  0
   -5.1010    0.1910   -1.4390 N   0  0  0  0  0  0  0  0  0  0  0  0
   -5.4640    0.8030   -0.2440 C   0  0  1  0  0  0  0  0  0  0  0  0
   -5.7580    2.2900   -0.4280 C   0  0  0  0  0  0  0  0  0  0  0  0
   -7.0380    0.0360    0.2620 Cl  0  0  0  0  0  0  0  0  0  0  0  0
   -4.5370    0.5600    0.8650 C   0  0  0  0  0  0  0  0  0  0  0  0
   -4.6790    1.0760    2.0970 C   0  0  0  0  0  0  0  0  0  0  0  0
   -5.7900    1.9430    2.4520 C   0  0  0  0  0  0  0  0  0  0  0  0
   -3.3970   -0.3080    0.6400 C   0  0  0  0  0  0  0  0  0  0  0  0
   -3.1690   -0.8700   -0.5560 C   0  0  0  0  0  0  0  0  0  0  0  0
   -2.0030   -1.6500   -0.6270 N   0  0  0  0  0  0  0  0  0  0  0  0
   -0.6760   -1.1960   -0.9240 C   0  0  0  0  0  0  0  0  0  0  0  0
   -0.1250   -0.3520    0.2260 C   0  0  2  0  0  0  0  0  0  0  0  0
    1.2630    0.0680   -0.1990 C   0  0  0  0  0  0  0  0  0  0  0  0
    1.9900    0.8780    0.6630 N   0  0  0  0  0  0  0  0  0  0  0  0
    2.4570    0.3740    1.8800 C   0  0  0  0  0  0  0  0  0  0  0  0
    3.8850    0.7930    2.1960 C   0  0  0  0  0  0  0  0  0  0  0  0
    4.6770    0.8980    0.9880 N   0  0  0  0  0  0  0  0  0  0  0  0
    6.0280    0.4990    1.0400 C   0  0  0  0  0  0  0  0  0  0  0  0
    6.5260    0.0820    2.1340 O   0  0  0  0  0  0  0  0  0  0  0  0
    6.8430    0.5700   -0.1650 C   0  0  0  0  0  0  0  0  0  0  0  0
    6.5090    0.9470   -1.3510 O   0  0  0  0  0  0  0  0  0  0  0  0
    7.5100    0.8780   -2.1880 C   0  0  0  0  0  0  0  0  0  0  0  0
    8.6310    0.4130   -1.5200 C   0  0  0  0  0  0  0  0  0  0  0  0
    8.1960    0.2170   -0.2190 C   0  0  0  0  0  0  0  0  0  0  0  0
    9.1280   -0.3590    1.1350 Cl  0  0  0  0  0  0  0  0  0  0  0  0
    4.1350    1.4040   -0.2510 C   0  0  0  0  0  0  0  0  0  0  0  0
    2.7290    1.9110    0.0190 C   0  0  0  0  0  0  0  0  0  0  0  0
    0.0380   -1.2870    1.3990 C   0  0  0  0  0  0  0  0  0  0  0  0
    0.5680   -2.5290    1.1900 N   0  0  0  0  0  0  0  0  0  0  0  0
    0.5920   -3.1390    2.3850 C   0  0  0  0  0  0  0  0  0  0  0  0
    0.0800   -2.2580    3.2800 N   0  0  0  0  0  0  0  0  0  0  0  0
   -0.2570   -1.1300    2.6780 N   0  0  0  0  0  0  0  0  0  0  0  0
  1  2  2  0
  2  3  1  0
  3  4  2  0
  3  5  1  0
  5  6  2  0
  5 14  1  0
  6  7  1  0
  7  8  1  6
  7  9  1  0
  7 10  1  0
 10 11  2  3
 10 13  1  0
 11 12  1  0
 13 14  2  0
 14 15  1  0
 15 16  1  0
 17 16  1  6
 17 18  1  0
 17 33  1  0
 18 19  1  0
 19 20  1  0
 19 32  1  0
 20 21  1  0
 21 22  1  0
 22 23  1  0
 22 31  1  0
 23 24  2  0
 23 25  1  0
 25 26  1  0
 25 29  2  0
 26 27  1  0
 27 28  2  0
 28 29  1  0
 29 30  1  0
 31 32  1  0
 33 34  1  0
 33 37  2  0
 34 35  2  0
 35 36  1  0
 36 37  1  0
M  END
