
     RDKit          3D

 33 34  0  0  0  0  0  0  0  0999 V2000
    7.7540   -2.5370    0.2700 C   0  0  0  0  0  0  0  0  0  0  0  0
    7.8300   -1.1680    0.4420 O   0  0  0  0  0  0  0  0  0  0  0  0
    6.7070   -0.3520    0.1680 C   0  0  0  0  0  0  0  0  0  0  0  0
    6.8550    1.0000    0.3590 C   0  0  0  0  0  0  0  0  0  0  0  0
    5.7720    1.8220    0.0850 C   0  0  0  0  0  0  0  0  0  0  0  0
    4.5960    1.2810   -0.3620 C   0  0  0  0  0  0  0  0  0  0  0  0
    3.5540    2.1140   -0.6330 O   0  0  0  0  0  0  0  0  0  0  0  0
    3.5260    3.4990   -0.4760 C   0  0  0  0  0  0  0  0  0  0  0  0
    4.3700   -0.0780   -0.5750 C   0  0  0  0  0  0  0  0  0  0  0  0
    3.2830   -0.6440   -0.9640 O   0  0  0  0  0  0  0  0  0  0  0  0
    2.0570   -0.6170   -1.3980 C   0  0  1  0  0  0  0  0  0  0  0  0
    1.4100   -1.9310   -1.8200 C   0  0  0  0  0  0  0  0  0  0  0  0
    1.1010    0.1370   -0.4560 C   0  0  0  0  0  0  0  0  0  0  0  0
    1.4470    0.8410    0.4940 O   0  0  0  0  0  0  0  0  0  0  0  0
   -0.3030    0.0290   -0.6780 N   0  0  0  0  0  0  0  0  0  0  0  0
   -1.3210    0.7050   -0.0180 C   0  0  0  0  0  0  0  0  0  0  0  0
   -1.1920    2.1010    0.2090 C   0  0  0  0  0  0  0  0  0  0  0  0
   -2.2620    2.8250    0.5950 C   0  0  0  0  0  0  0  0  0  0  0  0
   -2.1470    4.2320    0.7540 N   0  0  0  0  0  0  0  0  0  0  0  0
   -3.5010    2.2090    0.7720 C   0  0  0  0  0  0  0  0  0  0  0  0
   -4.5760    3.0200    1.3830 C   0  0  0  0  0  0  0  0  0  0  0  0
   -5.9500    3.4200    0.2410 S   0  0  0  0  0  0  0  0  0  0  0  0
   -5.3140    4.6170   -0.9120 O   0  0  0  0  0  0  0  0  0  0  0  0
   -3.6220    0.8340    0.5430 C   0  0  0  0  0  0  0  0  0  0  0  0
   -2.5700    0.0720    0.1660 C   0  0  0  0  0  0  0  0  0  0  0  0
   -2.5420   -1.3960    0.1020 C   0  0  0  0  0  0  0  0  0  0  0  0
   -3.7250   -2.1160    0.4230 N   0  0  2  0  0  0  0  0  0  0  0  0
   -4.0340   -2.0470    1.8510 C   0  0  0  0  0  0  0  0  0  0  0  0
   -3.3680   -3.5540    0.2490 C   0  0  0  0  0  0  0  0  0  0  0  0
   -4.5880   -4.2770   -0.2580 C   0  0  0  0  0  0  0  0  0  0  0  0
   -5.7980   -3.5680   -0.4180 N   0  0  0  0  0  0  0  0  0  0  0  0
   -4.5190   -5.5190   -0.5290 O   0  0  0  0  0  0  0  0  0  0  0  0
    5.5330   -0.8610   -0.2710 C   0  0  0  0  0  0  0  0  0  0  0  0
  1  2  1  0
  2  3  1  0
  3  4  2  0
  3 33  1  0
  4  5  1  0
  5  6  2  0
  6  7  1  0
  6  9  1  0
  7  8  1  0
  9 10  1  0
  9 33  2  0
 10 11  1  0
 11 12  1  1
 11 13  1  0
 13 14  2  0
 13 15  1  0
 15 16  1  0
 16 17  2  0
 16 25  1  0
 17 18  1  0
 18 19  1  0
 18 20  2  0
 20 21  1  0
 20 24  1  0
 21 22  1  0
 22 23  1  0
 24 25  2  0
 25 26  1  0
 26 27  1  0
 27 28  1  1
 27 29  1  0
 29 30  1  0
 30 31  1  0
 30 32  2  0
M  CHG  1  27   1
M  END
