
     RDKit          3D

 33 34  0  0  0  0  0  0  0  0999 V2000
   -7.0050   -0.1760   -2.8600 C   0  0  0  0  0  0  0  0  0  0  0  0
   -7.5920   -0.3860   -1.4760 C   0  0  0  0  0  0  0  0  0  0  0  0
   -6.5240   -0.1990   -0.5130 N   0  0  0  0  0  0  0  0  0  0  0  0
   -6.6670    1.0880    0.0930 C   0  0  0  0  0  0  0  0  0  0  0  0
   -5.5190    2.0310   -0.1710 C   0  0  1  0  0  0  0  0  0  0  0  0
   -5.7960    3.2310    0.4680 O   0  0  0  0  0  0  0  0  0  0  0  0
   -5.5170    3.0060    1.8250 C   0  0  0  0  0  0  0  0  0  0  0  0
   -4.2790    2.1630    1.7530 C   0  0  0  0  0  0  0  0  0  0  0  0
   -3.2400    1.8920    2.5880 C   0  0  0  0  0  0  0  0  0  0  0  0
   -2.1990    1.0340    2.1920 C   0  0  0  0  0  0  0  0  0  0  0  0
   -2.1750    0.4300    0.9540 C   0  0  0  0  0  0  0  0  0  0  0  0
   -1.1490   -0.4340    0.5050 N   0  0  0  0  0  0  0  0  0  0  0  0
    0.1140   -0.6450    1.0840 C   0  0  0  0  0  0  0  0  0  0  0  0
    0.4190   -0.0040    2.1210 O   0  0  0  0  0  0  0  0  0  0  0  0
    1.1050   -1.6070    0.5050 C   0  0  2  0  0  0  0  0  0  0  0  0
    0.5660   -3.0410    0.5790 C   0  0  0  0  0  0  0  0  0  0  0  0
    2.2620   -1.5880    1.2830 O   0  0  0  0  0  0  0  0  0  0  0  0
    3.0580   -0.4950    1.4920 C   0  0  0  0  0  0  0  0  0  0  0  0
    2.7080    0.5810    0.9310 O   0  0  0  0  0  0  0  0  0  0  0  0
    4.2610   -0.6370    2.3440 C   0  0  0  0  0  0  0  0  0  0  0  0
    5.2740   -1.4730    1.6110 C   0  0  0  0  0  0  0  0  0  0  0  0
    5.6330   -0.8060    0.3200 C   0  0  0  0  0  0  0  0  0  0  0  0
    5.1280    0.3000    0.0510 O   0  0  0  0  0  0  0  0  0  0  0  0
    6.5280   -1.4110   -0.5870 N   0  0  0  0  0  0  0  0  0  0  0  0
    6.9650   -0.8720   -1.8220 C   0  0  0  0  0  0  0  0  0  0  0  0
    7.8410    0.3010   -1.7880 C   0  0  0  0  0  0  0  0  0  0  0  0
    7.4050    1.5440   -1.1230 C   0  0  0  0  0  0  0  0  0  0  0  0
    8.7580    2.7790   -1.4040 S   0  0  0  0  0  0  0  0  0  0  0  0
    1.4130   -1.3220   -0.9170 C   0  0  0  0  0  0  0  0  0  0  0  0
    0.4330   -1.2930   -1.9290 N   0  0  0  0  0  0  0  0  0  0  0  0
    2.6080   -1.0970   -1.2280 O   0  0  0  0  0  0  0  0  0  0  0  0
   -3.2550    0.7220    0.1090 C   0  0  0  0  0  0  0  0  0  0  0  0
   -4.2740    1.5680    0.5110 C   0  0  0  0  0  0  0  0  0  0  0  0
  1  2  1  0
  2  3  1  0
  3  4  1  0
  5  4  1  1
  5  6  1  0
  5 33  1  0
  6  7  1  0
  7  8  1  0
  8  9  2  0
  8 33  1  0
  9 10  1  0
 10 11  2  0
 11 12  1  0
 11 32  1  0
 12 13  1  0
 13 14  2  0
 13 15  1  0
 15 16  1  6
 15 17  1  0
 15 29  1  0
 17 18  1  0
 18 19  2  0
 18 20  1  0
 20 21  1  0
 21 22  1  0
 22 23  2  0
 22 24  1  0
 24 25  1  0
 25 26  1  0
 26 27  1  0
 27 28  1  0
 29 30  1  0
 29 31  2  0
 32 33  2  0
M  CHG  1   3   1
M  END
