
     RDKit          3D

 33 34  0  0  0  0  0  0  0  0999 V2000
    0.1880    5.0110    1.3130 C   0  0  0  0  0  0  0  0  0  0  0  0
    0.5510    3.5740    1.3010 C   0  0  0  0  0  0  0  0  0  0  0  0
    0.0080    2.7930    0.1110 C   0  0  2  0  0  0  0  0  0  0  0  0
   -1.4810    2.8910    0.1530 C   0  0  0  0  0  0  0  0  0  0  0  0
   -1.9950    1.5560    0.5750 C   0  0  0  0  0  0  0  0  0  0  0  0
   -1.6580    0.5160   -0.4530 C   0  0  2  0  0  0  0  0  0  0  0  0
   -1.7850    0.9760   -1.8450 C   0  0  0  0  0  0  0  0  0  0  0  0
   -3.0150    1.4740   -2.3270 N   0  0  0  0  0  0  0  0  0  0  0  0
   -2.2250   -0.7530   -0.0310 C   0  0  0  0  0  0  0  0  0  0  0  0
   -1.2930   -1.6580    0.2530 O   0  0  0  0  0  0  0  0  0  0  0  0
   -3.5000   -1.2560    0.1560 N   0  0  0  0  0  0  0  0  0  0  0  0
   -4.8020   -0.6810   -0.0460 C   0  0  0  0  0  0  0  0  0  0  0  0
   -5.4050   -0.9960   -1.4030 C   0  0  0  0  0  0  0  0  0  0  0  0
   -6.6460   -0.3760   -1.4530 O   0  0  0  0  0  0  0  0  0  0  0  0
   -3.5580   -2.6590    0.6520 C   0  0  0  0  0  0  0  0  0  0  0  0
   -3.5670   -2.7300    2.1370 C   0  0  0  0  0  0  0  0  0  0  0  0
   -3.6220   -4.4350    2.6940 S   0  0  2  0  0  0  0  0  0  0  0  0
   -2.4260   -4.7780    3.5190 O   0  0  0  0  0  0  0  0  0  0  0  0
   -3.7330   -5.3320    1.4890 O   0  0  0  0  0  0  0  0  0  0  0  0
   -0.1760    0.3340   -0.2810 N   0  0  0  0  0  0  0  0  0  0  0  0
    0.3700   -0.3910   -1.3610 C   0  0  0  0  0  0  0  0  0  0  0  0
    1.7570   -0.9190   -1.1740 C   0  0  0  0  0  0  0  0  0  0  0  0
    2.7720   -0.0080   -0.9810 O   0  0  0  0  0  0  0  0  0  0  0  0
    4.0990   -0.3140   -0.7520 C   0  0  0  0  0  0  0  0  0  0  0  0
    4.5890   -1.6040   -0.6750 C   0  0  0  0  0  0  0  0  0  0  0  0
    5.9330   -1.8670   -0.4380 C   0  0  0  0  0  0  0  0  0  0  0  0
    6.4240   -3.1550   -0.3590 O   0  0  0  0  0  0  0  0  0  0  0  0
    7.7750   -3.3870   -0.1160 C   0  0  0  0  0  0  0  0  0  0  0  0
    6.7990   -0.8040   -0.2770 C   0  0  0  0  0  0  0  0  0  0  0  0
    6.3410    0.4930   -0.3490 C   0  0  0  0  0  0  0  0  0  0  0  0
    4.9980    0.7230   -0.5860 C   0  0  0  0  0  0  0  0  0  0  0  0
    4.4980    2.0480   -0.6670 N   0  0  0  0  0  0  0  0  0  0  0  0
    0.4970    1.3750    0.3190 C   0  0  0  0  0  0  0  0  0  0  0  0
  1  2  1  0
  3  2  1  1
  3  4  1  0
  3 33  1  0
  4  5  1  0
  5  6  1  0
  6  7  1  6
  6  9  1  0
  6 20  1  0
  7  8  1  0
  9 10  2  0
  9 11  1  0
 11 12  1  0
 11 15  1  0
 12 13  1  0
 13 14  1  0
 15 16  1  0
 17 16  1  6
 17 18  2  0
 17 19  2  0
 20 21  1  0
 20 33  1  0
 21 22  1  0
 22 23  1  0
 23 24  1  0
 24 25  2  0
 24 31  1  0
 25 26  1  0
 26 27  1  0
 26 29  2  0
 27 28  1  0
 29 30  1  0
 30 31  2  0
 31 32  1  0
M  CHG  1   8   1
M  END
