
     RDKit          3D

 33 34  0  0  0  0  0  0  0  0999 V2000
    8.4110   -0.7450   -1.2800 C   0  0  0  0  0  0  0  0  0  0  0  0
    8.1450   -1.9660   -0.4170 C   0  0  0  0  0  0  0  0  0  0  0  0
    6.7860   -1.8790    0.1980 C   0  0  0  0  0  0  0  0  0  0  0  0
    5.6230   -2.3520   -0.3370 C   0  0  0  0  0  0  0  0  0  0  0  0
    4.6210   -2.0580    0.5590 C   0  0  0  0  0  0  0  0  0  0  0  0
    3.2030   -2.3800    0.4010 C   0  0  0  0  0  0  0  0  0  0  0  0
    2.4710   -1.3800   -0.3200 N   0  0  0  0  0  0  0  0  0  0  0  0
    2.0950   -0.1460    0.2870 C   0  0  0  0  0  0  0  0  0  0  0  0
    2.4440    0.0020    1.4840 O   0  0  0  0  0  0  0  0  0  0  0  0
    1.3450    0.8990   -0.4300 C   0  0  0  0  0  0  0  0  0  0  0  0
    1.0670    2.1240    0.3600 C   0  0  1  0  0  0  0  0  0  0  0  0
    2.3120    2.8440    0.8380 C   0  0  0  0  0  0  0  0  0  0  0  0
    3.2320    3.3180   -0.2110 C   0  0  0  0  0  0  0  0  0  0  0  0
    3.7880    2.4020   -1.0470 O   0  0  0  0  0  0  0  0  0  0  0  0
   -0.0680    3.2270   -0.4400 S   0  0  0  0  0  0  0  0  0  0  0  0
   -1.7280    2.4350   -0.4710 C   0  0  0  0  0  0  0  0  0  0  0  0
   -2.7560    3.1160   -1.2990 C   0  0  0  0  0  0  0  0  0  0  0  0
   -1.9330    1.3890    0.2320 C   0  0  0  0  0  0  0  0  0  0  0  0
   -3.0880    0.5650    0.4090 C   0  0  0  0  0  0  0  0  0  0  0  0
   -2.9920   -0.4600    1.2180 O   0  0  0  0  0  0  0  0  0  0  0  0
   -4.3420    0.6940   -0.1710 N   0  0  0  0  0  0  0  0  0  0  0  0
   -5.4490   -0.1730    0.0590 C   0  0  0  0  0  0  0  0  0  0  0  0
   -6.6590   -0.0210   -0.5210 C   0  0  0  0  0  0  0  0  0  0  0  0
   -6.9630    1.0880   -1.4760 C   0  0  0  0  0  0  0  0  0  0  0  0
   -7.5420   -1.0410   -0.0910 N   0  0  0  0  0  0  0  0  0  0  0  0
   -6.9810   -1.8330    0.7220 C   0  0  0  0  0  0  0  0  0  0  0  0
   -7.5490   -3.0080    1.3920 C   0  0  0  0  0  0  0  0  0  0  0  0
   -8.8880   -3.4140    1.1830 N   0  0  0  0  0  0  0  0  0  0  0  0
   -6.8280   -3.6660    2.1650 O   0  0  0  0  0  0  0  0  0  0  0  0
   -5.5930   -1.3420    0.8860 C   0  0  0  0  0  0  0  0  0  0  0  0
   -4.7770   -1.9050    1.6250 O   0  0  0  0  0  0  0  0  0  0  0  0
    5.2190   -1.4110    1.6150 C   0  0  0  0  0  0  0  0  0  0  0  0
    6.5000   -1.3360    1.3420 O   0  0  0  0  0  0  0  0  0  0  0  0
  1  2  1  0
  2  3  1  0
  3  4  2  0
  3 33  1  0
  4  5  1  0
  5  6  1  0
  5 32  2  0
  6  7  1  0
  7  8  1  0
  8  9  2  0
  8 10  1  0
 11 10  1  6
 11 12  1  0
 11 15  1  0
 12 13  1  0
 13 14  1  0
 15 16  1  0
 16 17  1  0
 16 18  2  3
 18 19  1  0
 19 20  2  0
 19 21  1  0
 21 22  1  0
 22 23  2  0
 22 30  1  0
 23 24  1  0
 23 25  1  0
 25 26  2  0
 26 27  1  0
 26 30  1  0
 27 28  1  0
 27 29  2  0
 30 31  2  0
 32 33  1  0
M  CHG  1  28   1
M  END
