
     RDKit          3D

 33 34  0  0  0  0  0  0  0  0999 V2000
    5.0170    1.8330    0.4230 O   0  0  0  0  0  0  0  0  0  0  0  0
    5.2270    0.6290    0.6520 C   0  0  0  0  0  0  0  0  0  0  0  0
    6.5890    0.2440    0.8700 N   0  0  0  0  0  0  0  0  0  0  0  0
    7.6200    1.2400    0.8140 C   0  0  0  0  0  0  0  0  0  0  0  0
    8.9480    0.5740    1.0760 C   0  0  2  0  0  0  0  0  0  0  0  0
    9.0040   -0.0340    2.3080 O   0  0  0  0  0  0  0  0  0  0  0  0
   10.0980    1.5610    0.9820 C   0  0  0  0  0  0  0  0  0  0  0  0
   11.2070    0.7040    0.4760 C   0  0  0  0  0  0  0  0  0  0  0  0
   10.6880   -0.4130   -0.1120 O   0  0  0  0  0  0  0  0  0  0  0  0
    9.3220   -0.3810   -0.0410 C   0  0  0  0  0  0  0  0  0  0  0  0
    4.1780   -0.2970    0.6930 N   0  0  0  0  0  0  0  0  0  0  0  0
    2.8180   -0.0090    0.4820 C   0  0  0  0  0  0  0  0  0  0  0  0
    1.8680   -0.9810    0.7960 C   0  0  0  0  0  0  0  0  0  0  0  0
    0.5070   -0.7920    0.6090 C   0  0  0  0  0  0  0  0  0  0  0  0
   -0.0150    0.3710    0.0980 C   0  0  0  0  0  0  0  0  0  0  0  0
   -1.4060    0.6460   -0.1610 C   0  0  0  0  0  0  0  0  0  0  0  0
   -1.6140    1.9020   -0.5330 O   0  0  0  0  0  0  0  0  0  0  0  0
   -2.5060   -0.1540   -0.0890 N   0  0  0  0  0  0  0  0  0  0  0  0
   -2.6080   -1.5300    0.2460 C   0  0  0  0  0  0  0  0  0  0  0  0
   -2.8000   -1.7050    1.7540 C   0  0  0  0  0  0  0  0  0  0  0  0
   -2.8880   -3.0790    1.9810 O   0  0  0  0  0  0  0  0  0  0  0  0
   -3.8190    0.5080   -0.4050 C   0  0  0  0  0  0  0  0  0  0  0  0
   -4.0640    0.3730   -1.8830 C   0  0  0  0  0  0  0  0  0  0  0  0
   -5.2950    0.9710   -2.3050 N   0  0  0  0  0  0  0  0  0  0  0  0
   -6.4680    0.2240   -1.9460 C   0  0  0  0  0  0  0  0  0  0  0  0
   -7.3210    0.9610   -0.9500 C   0  0  0  0  0  0  0  0  0  0  0  0
   -8.5180    0.1080   -0.6370 C   0  0  0  0  0  0  0  0  0  0  0  0
   -8.7270   -0.2870    0.6080 C   0  0  0  0  0  0  0  0  0  0  0  0
   -7.6180    0.1720    1.9210 S   0  0  0  0  0  0  0  0  0  0  0  0
   -9.4530   -0.2810   -1.7370 C   0  0  0  0  0  0  0  0  0  0  0  0
   -9.9680    0.9040   -2.2870 O   0  0  0  0  0  0  0  0  0  0  0  0
    0.9550    1.3400   -0.2130 C   0  0  0  0  0  0  0  0  0  0  0  0
    2.2970    1.1530   -0.0280 C   0  0  0  0  0  0  0  0  0  0  0  0
  1  2  2  0
  2  3  1  0
  2 11  1  0
  3  4  1  0
  4  5  1  0
  5  6  1  1
  5  7  1  0
  5 10  1  0
  7  8  1  0
  8  9  1  0
  9 10  1  0
 11 12  1  0
 12 13  2  0
 12 33  1  0
 13 14  1  0
 14 15  2  0
 15 16  1  0
 15 32  1  0
 16 17  2  0
 16 18  1  0
 18 19  1  0
 18 22  1  0
 19 20  1  0
 20 21  1  0
 22 23  1  0
 23 24  1  0
 24 25  1  0
 25 26  1  0
 26 27  1  0
 27 28  2  3
 27 30  1  0
 28 29  1  0
 30 31  1  0
 32 33  2  0
M  CHG  1  24   1
M  END
