
     RDKit          3D

 33 34  0  0  0  0  0  0  0  0999 V2000
    2.3020    1.4690   -2.3710 C   0  0  0  0  0  0  0  0  0  0  0  0
    1.1400    0.6780   -1.8050 C   0  0  0  0  0  0  0  0  0  0  0  0
    0.3460   -0.1350   -2.4670 N   0  0  0  0  0  0  0  0  0  0  0  0
   -0.6190   -0.6440   -1.6730 C   0  0  0  0  0  0  0  0  0  0  0  0
   -1.7010   -1.4410   -1.9630 C   0  0  0  0  0  0  0  0  0  0  0  0
   -2.6120   -1.6790   -0.9660 C   0  0  0  0  0  0  0  0  0  0  0  0
   -2.4620   -1.1350    0.3120 C   0  0  0  0  0  0  0  0  0  0  0  0
   -3.7550   -1.1440    1.1120 C   0  0  0  0  0  0  0  0  0  0  0  0
   -3.8890   -1.6500    2.1690 O   0  0  0  0  0  0  0  0  0  0  0  0
   -4.8230   -0.4780    0.4460 N   0  0  0  0  0  0  0  0  0  0  0  0
   -6.0290   -0.0900    0.3720 N   0  0  0  0  0  0  0  0  0  0  0  0
   -7.1610    0.3430    1.1100 C   0  0  0  0  0  0  0  0  0  0  0  0
   -7.0170    0.3710    2.3370 O   0  0  0  0  0  0  0  0  0  0  0  0
   -8.3430    0.7130    0.3190 C   0  0  0  0  0  0  0  0  0  0  0  0
   -9.5910    1.1230    0.9580 C   0  0  0  0  0  0  0  0  0  0  0  0
  -10.2000    0.0170    1.8140 C   0  0  0  0  0  0  0  0  0  0  0  0
  -11.4320    0.4880    2.3180 O   0  0  0  0  0  0  0  0  0  0  0  0
   -1.4000   -0.3810    0.6030 C   0  0  0  0  0  0  0  0  0  0  0  0
   -0.4290   -0.1160   -0.3970 C   0  0  0  0  0  0  0  0  0  0  0  0
    0.6680    0.6950   -0.4970 C   0  0  0  0  0  0  0  0  0  0  0  0
    1.2500    1.5510    0.5430 C   0  0  0  0  0  0  0  0  0  0  0  0
    2.5700    1.3160    0.9750 N   0  0  0  0  0  0  0  0  0  0  0  0
    3.3930    0.2310    0.7330 C   0  0  2  0  0  0  0  0  0  0  0  0
    2.9130   -0.9850    0.0420 C   0  0  0  0  0  0  0  0  0  0  0  0
    4.0860   -0.2970    2.0300 C   0  0  0  0  0  0  0  0  0  0  0  0
    4.6170    0.6580   -0.0700 C   0  0  0  0  0  0  0  0  0  0  0  0
    4.6890    1.8820   -0.3710 O   0  0  0  0  0  0  0  0  0  0  0  0
    5.6050   -0.2090   -0.4620 O   0  0  0  0  0  0  0  0  0  0  0  0
    6.6940    0.3280   -1.2220 C   0  0  0  0  0  0  0  0  0  0  0  0
    7.7060   -0.7860   -1.5200 C   0  0  0  0  0  0  0  0  0  0  0  0
    8.1830   -1.2450   -0.1360 C   0  0  0  0  0  0  0  0  0  0  0  0
    8.9160    0.1030    0.7820 S   0  0  0  0  0  0  0  0  0  0  0  0
   10.1400   -0.3950    1.5560 O   0  0  0  0  0  0  0  0  0  0  0  0
  1  2  1  0
  2  3  1  0
  2 20  2  0
  3  4  1  0
  4  5  2  0
  4 19  1  0
  5  6  1  0
  6  7  2  0
  7  8  1  0
  7 18  1  0
  8  9  2  0
  8 10  1  0
 10 11  1  0
 11 12  1  0
 12 13  2  0
 12 14  1  0
 14 15  1  0
 15 16  1  0
 16 17  1  0
 18 19  2  0
 19 20  1  0
 20 21  1  0
 21 22  1  0
 22 23  1  0
 23 24  1  6
 23 25  1  0
 23 26  1  0
 26 27  2  0
 26 28  1  0
 28 29  1  0
 29 30  1  0
 30 31  1  0
 31 32  1  0
 32 33  2  0
M  CHG  1  22   1
M  END
