
     RDKit          3D

 33 34  0  0  0  0  0  0  0  0999 V2000
    1.7220    0.8630   -2.5720 C   0  0  0  0  0  0  0  0  0  0  0  0
    2.3270    1.2900   -1.2530 C   0  0  0  0  0  0  0  0  0  0  0  0
    2.4730    0.1120   -0.4340 O   0  0  0  0  0  0  0  0  0  0  0  0
    3.0390    0.3630    0.8590 C   0  0  0  0  0  0  0  0  0  0  0  0
    2.2450    0.6060    1.8900 C   0  0  0  0  0  0  0  0  0  0  0  0
    0.8120    0.6940    2.1130 C   0  0  0  0  0  0  0  0  0  0  0  0
    0.4000    0.9770    3.2660 O   0  0  0  0  0  0  0  0  0  0  0  0
   -0.1680    0.4840    1.1350 N   0  0  0  0  0  0  0  0  0  0  0  0
   -1.5960    0.5800    1.3790 C   0  0  0  0  0  0  0  0  0  0  0  0
   -2.3330    0.2890    0.0940 C   0  0  1  0  0  0  0  0  0  0  0  0
   -2.0390   -1.0270   -0.4180 N   0  0  0  0  0  0  0  0  0  0  0  0
   -1.6160   -1.9820    0.5640 C   0  0  0  0  0  0  0  0  0  0  0  0
   -2.0340   -3.3940    0.1330 C   0  0  0  0  0  0  0  0  0  0  0  0
   -1.5860   -4.4020    1.1710 C   0  0  0  0  0  0  0  0  0  0  0  0
   -0.1840   -4.2950    1.2460 O   0  0  0  0  0  0  0  0  0  0  0  0
   -3.8100    0.5300    0.1850 C   0  0  1  0  0  0  0  0  0  0  0  0
   -4.2120    1.9190    0.5300 C   0  0  0  0  0  0  0  0  0  0  0  0
   -4.1640    2.9390   -0.5120 C   0  0  0  0  0  0  0  0  0  0  0  0
   -4.2490    2.4910   -1.9310 C   0  0  0  0  0  0  0  0  0  0  0  0
   -5.5410    1.8010   -2.2810 C   0  0  0  0  0  0  0  0  0  0  0  0
   -5.8330    0.7000   -1.3230 C   0  0  0  0  0  0  0  0  0  0  0  0
   -4.5080   -0.0120   -1.0300 C   0  0  0  0  0  0  0  0  0  0  0  0
    3.4290    0.8650    3.2800 S   0  0  0  0  0  0  0  0  0  0  0  0
    4.8770    0.6030    2.2630 C   0  0  0  0  0  0  0  0  0  0  0  0
    6.2510    0.6650    2.7580 C   0  0  0  0  0  0  0  0  0  0  0  0
    6.5380    0.9440    4.1140 N   0  0  0  0  0  0  0  0  0  0  0  0
    7.1660    0.4610    1.9300 O   0  0  0  0  0  0  0  0  0  0  0  0
    4.3840    0.3590    1.0390 C   0  0  0  0  0  0  0  0  0  0  0  0
    5.3290    0.0960   -0.0560 N   0  0  0  0  0  0  0  0  0  0  0  0
    5.7630   -1.2130   -0.3500 C   0  0  0  0  0  0  0  0  0  0  0  0
    5.3050   -2.1420    0.3640 O   0  0  0  0  0  0  0  0  0  0  0  0
    6.7150   -1.5310   -1.4450 C   0  0  0  0  0  0  0  0  0  0  0  0
    7.1260   -0.4180   -2.1350 O   0  0  0  0  0  0  0  0  0  0  0  0
  1  2  1  0
  2  3  1  0
  3  4  1  0
  4  5  2  0
  4 28  1  0
  5  6  1  0
  5 23  1  0
  6  7  2  0
  6  8  1  0
  8  9  1  0
 10  9  1  1
 10 11  1  0
 10 16  1  0
 11 12  1  0
 12 13  1  0
 13 14  1  0
 14 15  1  0
 16 17  1  6
 16 22  1  0
 17 18  1  0
 18 19  1  0
 19 20  1  0
 20 21  1  0
 21 22  1  0
 23 24  1  0
 24 25  1  0
 24 28  2  0
 25 26  1  0
 25 27  2  0
 28 29  1  0
 29 30  1  0
 30 31  2  0
 30 32  1  0
 32 33  1  0
M  CHG  1  11   1
M  END
