
     RDKit          3D

 33 34  0  0  0  0  0  0  0  0999 V2000
    7.2010   -1.8800   -1.4830 C   0  0  0  0  0  0  0  0  0  0  0  0
    6.5970   -0.6580   -1.3370 O   0  0  0  0  0  0  0  0  0  0  0  0
    6.1340   -0.4050   -0.0690 C   0  0  0  0  0  0  0  0  0  0  0  0
    5.1050   -1.3630    0.4380 C   0  0  0  0  0  0  0  0  0  0  0  0
    3.8650   -1.4870   -0.3580 C   0  0  0  0  0  0  0  0  0  0  0  0
    3.0290   -0.2380   -0.5200 C   0  0  0  0  0  0  0  0  0  0  0  0
    2.5740    0.3440    0.6800 N   0  0  0  0  0  0  0  0  0  0  0  0
    1.6580   -0.5720    1.3240 C   0  0  0  0  0  0  0  0  0  0  0  0
    2.1740    1.6950    0.7140 C   0  0  1  0  0  0  0  0  0  0  0  0
    1.5060    2.0190    1.9770 N   0  0  0  0  0  0  0  0  0  0  0  0
    0.1370    1.8260    2.2580 C   0  0  0  0  0  0  0  0  0  0  0  0
   -0.7860    1.3770    1.3660 C   0  0  0  0  0  0  0  0  0  0  0  0
   -2.1490    1.2020    1.6160 C   0  0  0  0  0  0  0  0  0  0  0  0
   -2.9960    0.7050    0.5490 C   0  0  0  0  0  0  0  0  0  0  0  0
   -4.2670    0.4600    0.5560 C   0  0  0  0  0  0  0  0  0  0  0  0
   -5.0910   -0.0370   -0.5230 C   0  0  0  0  0  0  0  0  0  0  0  0
   -6.3490   -0.1830   -0.1890 O   0  0  0  0  0  0  0  0  0  0  0  0
   -4.7960   -0.3860   -1.8360 N   0  0  0  0  0  0  0  0  0  0  0  0
   -3.5120   -0.3130   -2.4830 C   0  0  0  0  0  0  0  0  0  0  0  0
   -5.8730   -0.9060   -2.7040 C   0  0  0  0  0  0  0  0  0  0  0  0
   -6.9310   -0.1910   -2.9460 C   0  0  0  0  0  0  0  0  0  0  0  0
   -7.9690   -1.1790   -4.0220 S   0  0  0  0  0  0  0  0  0  0  0  0
   -7.1090   -2.7740   -3.6740 C   0  0  0  0  0  0  0  0  0  0  0  0
   -5.7590   -2.2100   -3.3080 C   0  0  0  0  0  0  0  0  0  0  0  0
   -2.6110    1.5000    2.8460 C   0  0  0  0  0  0  0  0  0  0  0  0
   -3.9330    1.3730    3.2230 O   0  0  0  0  0  0  0  0  0  0  0  0
   -1.6940    1.9750    3.8260 C   0  0  0  0  0  0  0  0  0  0  0  0
   -2.2330    2.2620    5.0670 O   0  0  0  0  0  0  0  0  0  0  0  0
   -0.3680    2.1300    3.5360 C   0  0  0  0  0  0  0  0  0  0  0  0
    0.5180    2.5880    4.4820 O   0  0  0  0  0  0  0  0  0  0  0  0
    3.2190    2.7000    0.4730 C   0  0  0  0  0  0  0  0  0  0  0  0
    3.8450    2.8650   -0.7730 N   0  0  0  0  0  0  0  0  0  0  0  0
    3.5940    3.4700    1.3840 O   0  0  0  0  0  0  0  0  0  0  0  0
  1  2  1  0
  2  3  1  0
  3  4  1  0
  4  5  1  0
  5  6  1  0
  6  7  1  0
  7  8  1  0
  7  9  1  0
  9 10  1  1
  9 31  1  0
 10 11  1  0
 11 12  2  0
 11 29  1  0
 12 13  1  0
 13 14  1  0
 13 25  2  0
 14 15  2  3
 15 16  1  0
 16 17  2  0
 16 18  1  0
 18 19  1  0
 18 20  1  0
 20 21  2  0
 20 24  1  0
 21 22  1  0
 22 23  1  0
 23 24  1  0
 25 26  1  0
 25 27  1  0
 27 28  1  0
 27 29  2  0
 29 30  1  0
 31 32  1  0
 31 33  2  0
M  CHG  1  32   1
M  END
