
     RDKit          3D

 32 35  0  0  0  0  0  0  0  0999 V2000
    0.9770   -1.8600   -2.1780 O   0  0  0  0  0  0  0  0  0  0  0  0
    0.4310   -0.7380   -2.0360 C   0  0  0  0  0  0  0  0  0  0  0  0
   -0.9650   -0.5110   -2.5040 C   0  0  0  0  0  0  0  0  0  0  0  0
   -1.9400   -0.7540   -1.4720 N   0  0  0  0  0  0  0  0  0  0  0  0
   -2.3930    0.1870   -0.6240 C   0  0  0  0  0  0  0  0  0  0  0  0
   -3.3100   -0.3450    0.2450 C   0  0  0  0  0  0  0  0  0  0  0  0
   -3.4400   -1.6810   -0.0700 C   0  0  0  0  0  0  0  0  0  0  0  0
   -4.1990   -2.7150    0.4430 C   0  0  0  0  0  0  0  0  0  0  0  0
   -4.1240   -3.9860   -0.0850 C   0  0  0  0  0  0  0  0  0  0  0  0
   -5.1710   -5.4290    0.6180 Br  0  0  0  0  0  0  0  0  0  0  0  0
   -3.2600   -4.1870   -1.1490 C   0  0  0  0  0  0  0  0  0  0  0  0
   -2.4990   -3.1630   -1.6680 C   0  0  0  0  0  0  0  0  0  0  0  0
   -2.5740   -1.8910   -1.1390 C   0  0  0  0  0  0  0  0  0  0  0  0
   -4.0020    0.4270    1.3080 C   0  0  0  0  0  0  0  0  0  0  0  0
   -3.6250    1.8700    1.3400 C   0  0  0  0  0  0  0  0  0  0  0  0
   -3.3670    2.3330   -0.0770 C   0  0  1  0  0  0  0  0  0  0  0  0
   -3.2520    3.7990   -0.1190 C   0  0  0  0  0  0  0  0  0  0  0  0
   -3.3670    4.4660    0.9390 O   0  0  0  0  0  0  0  0  0  0  0  0
   -3.0180    4.4870   -1.3030 O   0  0  0  0  0  0  0  0  0  0  0  0
   -2.0580    1.6520   -0.5030 C   0  0  0  0  0  0  0  0  0  0  0  0
    1.2180    0.2710   -1.4150 N   0  0  0  0  0  0  0  0  0  0  0  0
    2.5830    0.0270   -0.9660 C   0  0  2  0  0  0  0  0  0  0  0  0
    2.7340    0.2430    0.4970 C   0  0  0  0  0  0  0  0  0  0  0  0
    4.1000    0.0110    1.0050 C   0  0  0  0  0  0  0  0  0  0  0  0
    5.0160    1.0310    1.1460 C   0  0  0  0  0  0  0  0  0  0  0  0
    6.2990    0.8510    1.6070 C   0  0  0  0  0  0  0  0  0  0  0  0
    6.7050   -0.4100    1.9500 C   0  0  0  0  0  0  0  0  0  0  0  0
    5.8160   -1.4750    1.8270 C   0  0  0  0  0  0  0  0  0  0  0  0
    4.5370   -1.2670    1.3630 C   0  0  0  0  0  0  0  0  0  0  0  0
    3.4620    0.9270   -1.7310 C   0  0  0  0  0  0  0  0  0  0  0  0
    3.0030    1.7700   -2.5620 O   0  0  0  0  0  0  0  0  0  0  0  0
    4.8460    0.8820   -1.5700 O   0  0  0  0  0  0  0  0  0  0  0  0
  1  2  2  0
  2  3  1  0
  2 21  1  0
  3  4  1  0
  4  5  1  0
  4 13  1  0
  5  6  2  0
  5 20  1  0
  6  7  1  0
  6 14  1  0
  7  8  2  0
  7 13  1  0
  8  9  1  0
  9 10  1  0
  9 11  2  0
 11 12  1  0
 12 13  2  0
 14 15  1  0
 15 16  1  0
 16 17  1  1
 16 20  1  0
 17 18  2  0
 17 19  1  0
 21 22  1  0
 22 23  1  1
 22 30  1  0
 23 24  1  0
 24 25  2  0
 24 29  1  0
 25 26  1  0
 26 27  2  0
 27 28  1  0
 28 29  2  0
 30 31  2  0
 30 32  1  0
M  END
