
     RDKit          3D

 23 25  0  0  0  0  0  0  0  0999 V2000
    4.2460    2.1540   -0.9440 N   0  0  0  0  0  0  0  0  0  0  0  0
    3.3560    1.4030   -0.1400 C   0  0  0  0  0  0  0  0  0  0  0  0
    2.3030    1.9480    0.1920 O   0  0  0  0  0  0  0  0  0  0  0  0
    3.6430    0.0040    0.3050 C   0  0  0  0  0  0  0  0  0  0  0  0
    4.8840   -0.4220    0.2430 N   0  0  0  0  0  0  0  0  0  0  0  0
    5.2570   -1.5630    0.8010 C   0  0  0  0  0  0  0  0  0  0  0  0
    6.3720   -2.1620    0.8690 O   0  0  0  0  0  0  0  0  0  0  0  0
    3.7150   -2.2020    1.5430 S   0  0  0  0  0  0  0  0  0  0  0  0
    2.7130   -0.7380    0.9470 C   0  0  0  0  0  0  0  0  0  0  0  0
    1.3230   -0.8090    1.0810 N   0  0  0  0  0  0  0  0  0  0  0  0
    0.2860   -0.3490    0.2480 C   0  0  0  0  0  0  0  0  0  0  0  0
    0.6240    0.1860   -0.8240 O   0  0  0  0  0  0  0  0  0  0  0  0
   -1.1330   -0.4920    0.6200 C   0  0  0  0  0  0  0  0  0  0  0  0
   -1.5590   -1.1580    1.7470 C   0  0  0  0  0  0  0  0  0  0  0  0
   -2.8820   -1.3510    2.0930 C   0  0  0  0  0  0  0  0  0  0  0  0
   -3.3100   -2.3020    3.7040 Br  0  0  0  0  0  0  0  0  0  0  0  0
   -3.8500   -0.8540    1.2680 C   0  0  0  0  0  0  0  0  0  0  0  0
   -3.4950   -0.1680    0.1080 C   0  0  0  0  0  0  0  0  0  0  0  0
   -2.1290   -0.0010   -0.1860 C   0  0  0  0  0  0  0  0  0  0  0  0
   -1.8870    0.8280   -1.3290 N   0  0  0  0  0  0  0  0  0  0  0  0
   -2.8630    1.0010   -2.3740 C   0  0  0  0  0  0  0  0  0  0  0  0
   -4.2570    0.7960   -1.9560 C   0  0  0  0  0  0  0  0  0  0  0  0
   -4.5390    0.2490   -0.8020 C   0  0  0  0  0  0  0  0  0  0  0  0
  1  2  1  0
  2  3  2  0
  2  4  1  0
  4  5  1  0
  4  9  2  0
  5  6  1  0
  6  7  2  0
  6  8  1  0
  8  9  1  0
  9 10  1  0
 10 11  1  0
 11 12  2  0
 11 13  1  0
 13 14  2  0
 13 19  1  0
 14 15  1  0
 15 16  1  0
 15 17  2  0
 17 18  1  0
 18 19  2  0
 18 23  1  0
 19 20  1  0
 20 21  1  0
 21 22  1  0
 22 23  2  0
M  END
