
     RDKit          3D

 19 19  0  0  0  0  0  0  0  0999 V2000
   -1.1580    0.5910   -1.9910 C   0  0  0  0  0  0  0  0  0  0  0  0
   -0.1270    0.7900   -0.8630 C   0  0  1  0  0  0  0  0  0  0  0  0
    0.8970   -0.2900   -0.8680 C   0  0  1  0  0  0  0  0  0  0  0  0
    1.6810   -0.3650   -2.1640 C   0  0  0  0  0  0  0  0  0  0  0  0
    0.9150   -0.6110   -3.2670 O   0  0  0  0  0  0  0  0  0  0  0  0
    1.8330   -0.0310    0.1220 O   0  0  0  0  0  0  0  0  0  0  0  0
    2.0670   -1.0500    1.0020 C   0  0  0  0  0  0  0  0  0  0  0  0
    2.5900   -2.3210    0.3520 C   0  0  0  0  0  0  0  0  0  0  0  0
    2.7650   -3.2340    1.4180 O   0  0  0  0  0  0  0  0  0  0  0  0
    0.4240    2.1570   -1.0350 C   0  0  0  0  0  0  0  0  0  0  0  0
    0.6690    2.9120    0.2360 C   0  0  2  0  0  0  0  0  0  0  0  0
    1.8680    2.5340    0.8550 O   0  0  0  0  0  0  0  0  0  0  0  0
   -0.4660    2.8710    1.2060 C   0  0  0  0  0  0  0  0  0  0  0  0
   -1.5950    1.9720    0.7400 C   0  0  0  0  0  0  0  0  0  0  0  0
   -0.9450    0.6360    0.4150 C   0  0  1  0  0  0  0  0  0  0  0  0
   -1.9660   -0.2650    0.1990 O   0  0  0  0  0  0  0  0  0  0  0  0
   -2.0190   -1.3150    1.0850 C   0  0  0  0  0  0  0  0  0  0  0  0
   -3.2110   -2.1800    0.6660 C   0  0  0  0  0  0  0  0  0  0  0  0
   -3.3150   -3.2710    1.5380 O   0  0  0  0  0  0  0  0  0  0  0  0
  2  1  1  6
  2  3  1  0
  2 10  1  0
  2 15  1  0
  3  4  1  6
  3  6  1  0
  4  5  1  0
  6  7  1  0
  7  8  1  0
  8  9  1  0
 10 11  1  0
 11 12  1  1
 11 13  1  0
 13 14  1  0
 14 15  1  0
 15 16  1  6
 16 17  1  0
 17 18  1  0
 18 19  1  0
M  END
