
     RDKit          3D

 19 19  0  0  0  0  0  0  0  0999 V2000
   -5.4390    0.8360    0.5130 C   0  0  0  0  0  0  0  0  0  0  0  0
   -4.3150    0.0500    0.6730 O   0  0  0  0  0  0  0  0  0  0  0  0
   -3.3640    0.3190   -0.3280 C   0  0  0  0  0  0  0  0  0  0  0  0
   -2.1410   -0.5210   -0.1730 C   0  0  2  0  0  0  0  0  0  0  0  0
   -2.5230   -1.9960   -0.2600 C   0  0  0  0  0  0  0  0  0  0  0  0
   -3.1060   -2.2940   -1.4730 O   0  0  0  0  0  0  0  0  0  0  0  0
   -1.5090   -0.2940    1.1870 C   0  0  0  0  0  0  0  0  0  0  0  0
   -0.0170   -0.5570    1.0410 C   0  0  0  0  0  0  0  0  0  0  0  0
    0.5990    0.6540    0.3700 C   0  0  1  0  0  0  0  0  0  0  0  0
    0.6350    1.6860    1.3240 O   0  0  0  0  0  0  0  0  0  0  0  0
    1.8780    0.3920   -0.1080 O   0  0  0  0  0  0  0  0  0  0  0  0
    2.6680    0.0090    0.9720 C   0  0  0  0  0  0  0  0  0  0  0  0
    4.0690   -0.2820    0.4750 C   0  0  1  0  0  0  0  0  0  0  0  0
    4.1010   -1.3790   -0.5400 C   0  0  0  0  0  0  0  0  0  0  0  0
    4.6840    0.9930   -0.0820 C   0  0  0  0  0  0  0  0  0  0  0  0
    5.9700    0.6930   -0.5310 O   0  0  0  0  0  0  0  0  0  0  0  0
   -0.3440    1.0740   -0.7340 C   0  0  1  0  0  0  0  0  0  0  0  0
    0.3620    1.5470   -1.8270 O   0  0  0  0  0  0  0  0  0  0  0  0
   -1.1340   -0.1440   -1.2130 C   0  0  0  0  0  0  0  0  0  0  0  0
  1  2  1  0
  2  3  1  0
  4  3  1  1
  4  5  1  0
  4  7  1  0
  4 19  1  0
  5  6  1  0
  7  8  1  0
  8  9  1  0
  9 10  1  1
  9 11  1  0
  9 17  1  0
 11 12  1  0
 12 13  1  0
 13 14  1  6
 13 15  1  0
 15 16  1  0
 17 18  1  6
 17 19  1  0
M  END
