
     RDKit          3D

 19 19  0  0  0  0  0  0  0  0999 V2000
   -4.6250    2.6380    1.2150 C   0  0  0  0  0  0  0  0  0  0  0  0
   -4.1940    1.8540    0.1460 O   0  0  0  0  0  0  0  0  0  0  0  0
   -3.3710    0.8020    0.6050 C   0  0  1  0  0  0  0  0  0  0  0  0
   -4.0330   -0.3610    0.1510 O   0  0  0  0  0  0  0  0  0  0  0  0
   -2.0720    0.9220   -0.1140 C   0  0  0  0  0  0  0  0  0  0  0  0
   -1.0460   -0.1260    0.2560 C   0  0  1  0  0  0  0  0  0  0  0  0
   -1.5930   -1.4760   -0.0550 C   0  0  0  0  0  0  0  0  0  0  0  0
   -0.6040   -2.5880   -0.1200 C   0  0  0  0  0  0  0  0  0  0  0  0
    0.6670   -2.3130   -0.8270 C   0  0  0  0  0  0  0  0  0  0  0  0
    1.2150   -0.9090   -0.5530 C   0  0  2  0  0  0  0  0  0  0  0  0
    2.1750   -0.6650   -1.6890 C   0  0  0  0  0  0  0  0  0  0  0  0
    3.2180   -1.6030   -1.7330 O   0  0  0  0  0  0  0  0  0  0  0  0
    1.8900   -0.9370    0.7880 C   0  0  0  0  0  0  0  0  0  0  0  0
    2.4310    0.1730    1.2760 O   0  0  0  0  0  0  0  0  0  0  0  0
    3.4700    0.8440    0.7930 C   0  0  1  0  0  0  0  0  0  0  0  0
    3.1530    2.2650    0.3480 C   0  0  0  0  0  0  0  0  0  0  0  0
    4.5390    0.9780    1.7050 O   0  0  0  0  0  0  0  0  0  0  0  0
    0.1410    0.1280   -0.6430 C   0  0  1  0  0  0  0  0  0  0  0  0
   -0.3580    0.0810   -1.9660 O   0  0  0  0  0  0  0  0  0  0  0  0
  1  2  1  0
  2  3  1  0
  3  4  1  6
  3  5  1  0
  6  5  1  6
  6  7  1  0
  6 18  1  0
  7  8  1  0
  8  9  1  0
  9 10  1  0
 10 11  1  6
 10 13  1  0
 10 18  1  0
 11 12  1  0
 13 14  1  0
 14 15  1  0
 15 16  1  1
 15 17  1  0
 18 19  1  6
M  END
