
     RDKit          3D

 19 19  0  0  0  0  0  0  0  0999 V2000
    2.6490    0.5380    2.8440 C   0  0  0  0  0  0  0  0  0  0  0  0
    2.6030    0.8110    1.3720 C   0  0  1  0  0  0  0  0  0  0  0  0
    2.0840    2.1120    1.1540 O   0  0  0  0  0  0  0  0  0  0  0  0
    3.9460    0.7970    0.7210 C   0  0  0  0  0  0  0  0  0  0  0  0
    4.6190   -0.5220    0.8840 C   0  0  0  0  0  0  0  0  0  0  0  0
    5.8940   -0.4790    0.2640 O   0  0  0  0  0  0  0  0  0  0  0  0
    1.7100   -0.2080    0.7030 C   0  0  0  0  0  0  0  0  0  0  0  0
    1.7040    0.0670   -0.6430 O   0  0  0  0  0  0  0  0  0  0  0  0
    0.9160   -0.7320   -1.4020 C   0  0  0  0  0  0  0  0  0  0  0  0
   -0.4240   -0.7630   -1.2020 O   0  0  0  0  0  0  0  0  0  0  0  0
   -1.1360    0.3890   -1.3840 C   0  0  1  0  0  0  0  0  0  0  0  0
   -2.0320    0.2510   -2.6450 C   0  0  0  0  0  0  0  0  0  0  0  0
   -3.3090   -0.4710   -2.2720 C   0  0  0  0  0  0  0  0  0  0  0  0
   -3.1920   -1.3540   -1.0740 C   0  0  0  0  0  0  0  0  0  0  0  0
   -2.8990   -0.4880    0.1390 C   0  0  2  0  0  0  0  0  0  0  0  0
   -4.2150   -0.0310    0.7200 C   0  0  0  0  0  0  0  0  0  0  0  0
   -4.0200    0.7700    1.8390 O   0  0  0  0  0  0  0  0  0  0  0  0
   -2.0650    0.7090   -0.2770 C   0  0  1  0  0  0  0  0  0  0  0  0
   -1.4290    1.2750    0.7930 O   0  0  0  0  0  0  0  0  0  0  0  0
  2  1  1  1
  2  3  1  0
  2  4  1  0
  2  7  1  0
  4  5  1  0
  5  6  1  0
  7  8  1  0
  8  9  1  0
  9 10  1  0
 11 10  1  1
 11 12  1  0
 11 18  1  0
 12 13  1  0
 13 14  1  0
 14 15  1  0
 15 16  1  6
 15 18  1  0
 16 17  1  0
 18 19  1  1
M  END
