
     RDKit          3D

 23 24  0  0  0  0  0  0  0  0999 V2000
    0.0500    1.7450   -3.1120 C   0  0  0  0  0  0  0  0  0  0  0  0
    0.4250    1.0360   -1.8370 C   0  0  0  0  0  0  0  0  0  0  0  0
   -0.5470    0.4960   -0.9180 C   0  0  0  0  0  0  0  0  0  0  0  0
   -1.8240    0.5360   -1.0070 C   0  0  0  0  0  0  0  0  0  0  0  0
   -2.6260    1.1650   -2.0830 C   0  0  0  0  0  0  0  0  0  0  0  0
   -4.0450    1.4760   -1.5780 C   0  0  0  0  0  0  0  0  0  0  0  0
   -4.0510    1.7970   -0.0950 C   0  0  0  0  0  0  0  0  0  0  0  0
   -3.7500    0.4810    0.5730 C   0  0  0  0  0  0  0  0  0  0  0  0
   -4.4970   -0.0820    1.5550 C   0  0  0  0  0  0  0  0  0  0  0  0
   -4.1180   -1.3120    2.0560 C   0  0  0  0  0  0  0  0  0  0  0  0
   -3.0070   -1.9380    1.5590 C   0  0  0  0  0  0  0  0  0  0  0  0
   -2.2320   -1.3660    0.5470 C   0  0  0  0  0  0  0  0  0  0  0  0
   -1.0650   -2.0720   -0.0180 C   0  0  0  0  0  0  0  0  0  0  0  0
   -2.6090   -0.1520    0.0580 C   0  0  0  0  0  0  0  0  0  0  0  0
    1.7360    0.9150   -1.5860 C   0  0  0  0  0  0  0  0  0  0  0  0
    2.2270    0.2590   -0.4040 C   0  0  0  0  0  0  0  0  0  0  0  0
    3.5560    0.1560   -0.1850 C   0  0  0  0  0  0  0  0  0  0  0  0
    4.1230   -0.4890    0.9800 C   0  0  0  0  0  0  0  0  0  0  0  0
    3.3460   -1.1120    2.0700 C   0  0  0  0  0  0  0  0  0  0  0  0
    5.4610   -0.5520    1.1280 C   0  0  0  0  0  0  0  0  0  0  0  0
    6.1220   -1.1760    2.2580 C   0  0  0  0  0  0  0  0  0  0  0  0
    5.5990   -1.7270    3.2260 O   0  0  0  0  0  0  0  0  0  0  0  0
    7.5260   -1.1480    2.2460 O   0  0  0  0  0  0  0  0  0  0  0  0
  1  2  1  0
  2  3  1  0
  2 15  2  3
  3  4  2  3
  4  5  1  0
  4 14  1  0
  5  6  1  0
  6  7  1  0
  7  8  1  0
  8  9  2  0
  8 14  1  0
  9 10  1  0
 10 11  2  0
 11 12  1  0
 12 13  1  0
 12 14  2  0
 15 16  1  0
 16 17  2  3
 17 18  1  0
 18 19  1  0
 18 20  2  3
 20 21  1  0
 21 22  2  0
 21 23  1  0
M  END
