
     RDKit          3D

 19 19  0  0  0  0  0  0  0  0999 V2000
   -3.6480    2.1920   -0.3620 C   0  0  0  0  0  0  0  0  0  0  0  0
   -3.7310    1.3920    0.7340 O   0  0  0  0  0  0  0  0  0  0  0  0
   -3.1420    0.1610    0.6780 C   0  0  0  0  0  0  0  0  0  0  0  0
   -1.6640    0.1450    0.4420 C   0  0  1  0  0  0  0  0  0  0  0  0
   -1.0750    0.7740    1.5450 O   0  0  0  0  0  0  0  0  0  0  0  0
   -1.0650   -1.1330    0.0340 C   0  0  1  0  0  0  0  0  0  0  0  0
   -1.3560   -2.2760    1.0040 C   0  0  0  0  0  0  0  0  0  0  0  0
   -1.1120   -1.6210   -1.3490 C   0  0  0  0  0  0  0  0  0  0  0  0
   -2.4020   -1.8250   -2.0370 C   0  0  0  0  0  0  0  0  0  0  0  0
   -3.1730   -0.7050   -2.2670 O   0  0  0  0  0  0  0  0  0  0  0  0
    0.4740   -0.9000    0.3410 C   0  0  0  0  0  0  0  0  0  0  0  0
    1.0190    0.2480   -0.4170 C   0  0  0  0  0  0  0  0  0  0  0  0
    2.5140    0.4310   -0.0930 C   0  0  1  0  0  0  0  0  0  0  0  0
    2.9810    1.5160   -0.8240 O   0  0  0  0  0  0  0  0  0  0  0  0
    4.3610    1.6470   -0.7320 C   0  0  0  0  0  0  0  0  0  0  0  0
    4.8720    1.2020    0.6210 C   0  0  0  0  0  0  0  0  0  0  0  0
    3.9120    1.2820    1.6000 O   0  0  0  0  0  0  0  0  0  0  0  0
    2.7180    0.6750    1.3550 C   0  0  2  0  0  0  0  0  0  0  0  0
    2.7150   -0.5750    1.9900 O   0  0  0  0  0  0  0  0  0  0  0  0
  1  2  1  0
  2  3  1  0
  3  4  1  0
  4  5  1  1
  4  6  1  0
  6  7  1  1
  6  8  1  0
  6 11  1  0
  8  9  1  0
  9 10  1  0
 11 12  1  0
 13 12  1  1
 13 14  1  0
 13 18  1  0
 14 15  1  0
 15 16  1  0
 16 17  1  0
 17 18  1  0
 18 19  1  1
M  END
