
     RDKit          3D

 18 18  0  0  0  0  0  0  0  0999 V2000
   -0.8380    2.2640    0.0300 C   0  0  0  0  0  0  0  0  0  0  0  0
   -2.0430    1.3920   -0.0380 C   0  0  2  0  0  0  0  0  0  0  0  0
   -3.2050    2.1870    0.0330 O   0  0  0  0  0  0  0  0  0  0  0  0
   -2.1750    0.3480    0.9990 C   0  0  1  0  0  0  0  0  0  0  0  0
   -3.5270   -0.3430    0.7460 C   0  0  0  0  0  0  0  0  0  0  0  0
   -3.5860   -0.9580   -0.6020 C   0  0  0  0  0  0  0  0  0  0  0  0
   -4.8400   -1.6060   -0.7770 O   0  0  0  0  0  0  0  0  0  0  0  0
   -1.1170   -0.6760    1.1380 C   0  0  2  0  0  0  0  0  0  0  0  0
   -1.5550   -1.4860    2.2280 O   0  0  0  0  0  0  0  0  0  0  0  0
    0.1130   -0.2480    1.2260 O   0  0  0  0  0  0  0  0  0  0  0  0
    1.1190   -0.8090    0.5030 C   0  0  2  0  0  0  0  0  0  0  0  0
    2.2030   -1.4620    1.3160 C   0  0  0  0  0  0  0  0  0  0  0  0
    3.3020   -1.9050    0.3680 C   0  0  0  0  0  0  0  0  0  0  0  0
    3.9160   -0.7220   -0.0850 O   0  0  0  0  0  0  0  0  0  0  0  0
    3.0440   -0.1370   -0.9690 C   0  0  2  0  0  0  0  0  0  0  0  0
    3.6810    1.1830   -1.4240 C   0  0  0  0  0  0  0  0  0  0  0  0
    4.8920    0.9890   -2.0400 O   0  0  0  0  0  0  0  0  0  0  0  0
    1.7150    0.2410   -0.3670 C   0  0  0  0  0  0  0  0  0  0  0  0
  2  1  1  1
  2  3  1  0
  2  4  1  0
  4  5  1  6
  4  8  1  0
  5  6  1  0
  6  7  1  0
  8  9  1  1
  8 10  1  0
 11 10  1  1
 11 12  1  0
 11 18  1  0
 12 13  1  0
 13 14  1  0
 14 15  1  0
 15 16  1  1
 15 18  1  0
 16 17  1  0
M  END
