
     RDKit          3D

 19 19  0  0  0  0  0  0  0  0999 V2000
   -5.6860   -1.5310    0.1840 C   0  0  0  0  0  0  0  0  0  0  0  0
   -5.3380   -0.3790    0.8180 O   0  0  0  0  0  0  0  0  0  0  0  0
   -4.2860    0.2600    0.2240 C   0  0  0  0  0  0  0  0  0  0  0  0
   -2.9970   -0.5120    0.1670 C   0  0  0  0  0  0  0  0  0  0  0  0
   -1.9480    0.3270   -0.4920 C   0  0  1  0  0  0  0  0  0  0  0  0
   -1.7120    1.5720    0.3010 C   0  0  0  0  0  0  0  0  0  0  0  0
   -0.2090    1.5300    0.6470 C   0  0  0  0  0  0  0  0  0  0  0  0
    0.3370    0.7910   -0.5170 C   0  0  1  0  0  0  0  0  0  0  0  0
    0.2330    1.5840   -1.8160 C   0  0  0  0  0  0  0  0  0  0  0  0
    0.9330    2.7610   -1.7380 O   0  0  0  0  0  0  0  0  0  0  0  0
    1.7840    0.4040   -0.3840 C   0  0  2  0  0  0  0  0  0  0  0  0
    2.1630   -0.2790   -1.5180 O   0  0  0  0  0  0  0  0  0  0  0  0
    2.1830   -0.1790    0.9150 C   0  0  0  0  0  0  0  0  0  0  0  0
    3.5430   -0.2520    1.0720 O   0  0  0  0  0  0  0  0  0  0  0  0
    4.2560   -1.0040    0.1910 C   0  0  0  0  0  0  0  0  0  0  0  0
    5.7450   -0.9790    0.6060 C   0  0  0  0  0  0  0  0  0  0  0  0
    6.4270   -1.7680   -0.3360 O   0  0  0  0  0  0  0  0  0  0  0  0
   -0.6110   -0.3750   -0.6360 C   0  0  1  0  0  0  0  0  0  0  0  0
   -0.4780   -1.2810    0.3900 O   0  0  0  0  0  0  0  0  0  0  0  0
  1  2  1  0
  2  3  1  0
  3  4  1  0
  5  4  1  1
  5  6  1  0
  5 18  1  0
  6  7  1  0
  7  8  1  0
  8  9  1  6
  8 11  1  0
  8 18  1  0
  9 10  1  0
 11 12  1  6
 11 13  1  0
 13 14  1  0
 14 15  1  0
 15 16  1  0
 16 17  1  0
 18 19  1  1
M  END
