
     RDKit          3D

 13 13  0  0  0  0  0  0  0  0999 V2000
   -2.9640    0.9980   -0.4150 N   0  0  0  0  0  0  0  0  0  0  0  0
   -2.5170   -0.2870    0.0490 C   0  0  1  0  0  0  0  0  0  0  0  0
   -3.4350   -1.2390   -0.3670 O   0  0  0  0  0  0  0  0  0  0  0  0
   -1.1800   -0.6600   -0.5510 C   0  0  0  0  0  0  0  0  0  0  0  0
   -0.1050    0.3620   -0.1810 C   0  0  1  0  0  0  0  0  0  0  0  0
    0.0470    0.4350    1.1710 O   0  0  0  0  0  0  0  0  0  0  0  0
    1.1390   -0.2050    1.6890 C   0  0  0  0  0  0  0  0  0  0  0  0
    2.2810    0.4100    1.1220 O   0  0  0  0  0  0  0  0  0  0  0  0
    2.3510   -0.1650   -0.1680 C   0  0  2  0  0  0  0  0  0  0  0  0
    3.5740    0.1930   -0.8290 N   0  0  0  0  0  0  0  0  0  0  0  0
    3.7520    1.4950   -1.0050 O   0  0  0  0  0  0  0  0  0  0  0  0
    1.1180    0.0780   -0.9660 C   0  0  1  0  0  0  0  0  0  0  0  0
    0.9350   -1.0470   -1.8020 O   0  0  0  0  0  0  0  0  0  0  0  0
  2  1  1  6
  2  3  1  0
  2  4  1  0
  5  4  1  1
  5  6  1  0
  5 12  1  0
  6  7  1  0
  7  8  1  0
  8  9  1  0
  9 10  1  6
  9 12  1  0
 10 11  1  0
 12 13  1  1
M  CHG  1   1   1
M  END
