
     RDKit          3D

 16 16  0  0  0  0  0  0  0  0999 V2000
    3.3660    1.8180   -1.6260 C   0  0  0  0  0  0  0  0  0  0  0  0
    2.9500    0.5240   -1.4580 O   0  0  0  0  0  0  0  0  0  0  0  0
    2.6870    0.1550   -0.1740 C   0  0  2  0  0  0  0  0  0  0  0  0
    3.3540   -1.0740    0.1930 O   0  0  0  0  0  0  0  0  0  0  0  0
    2.6210   -1.5130    1.2970 N   0  0  0  0  0  0  0  0  0  0  0  0
    1.3680   -1.1490    1.1750 C   0  0  0  0  0  0  0  0  0  0  0  0
    0.2860   -1.4320    2.1510 C   0  0  0  0  0  0  0  0  0  0  0  0
    1.2550   -0.4350   -0.1060 C   0  0  1  0  0  0  0  0  0  0  0  0
    0.3110    0.5610   -0.2010 O   0  0  0  0  0  0  0  0  0  0  0  0
   -1.0850    0.4200   -0.2200 C   0  0  0  0  0  0  0  0  0  0  0  0
   -1.7670    1.1780    0.5830 C   0  0  0  0  0  0  0  0  0  0  0  0
   -3.2180    1.2190    0.7450 C   0  0  0  0  0  0  0  0  0  0  0  0
   -3.5150    0.8940    2.0880 O   0  0  0  0  0  0  0  0  0  0  0  0
   -1.7320   -0.5440   -1.1160 C   0  0  2  0  0  0  0  0  0  0  0  0
   -1.1220   -1.8650   -0.9380 N   0  0  0  0  0  0  0  0  0  0  0  0
   -1.6150   -0.2140   -2.4600 O   0  0  0  0  0  0  0  0  0  0  0  0
  1  2  1  0
  3  2  1  6
  3  4  1  0
  3  8  1  0
  4  5  1  0
  5  6  2  0
  6  7  1  0
  6  8  1  0
  8  9  1  1
  9 10  1  0
 10 11  2  3
 10 14  1  0
 11 12  1  0
 12 13  1  0
 14 15  1  6
 14 16  1  0
M  END
