
     RDKit          3D

 17 17  0  0  0  0  0  0  0  0999 V2000
   -3.1790    2.6410    0.2520 C   0  0  0  0  0  0  0  0  0  0  0  0
   -2.3600    1.5080    0.0640 O   0  0  0  0  0  0  0  0  0  0  0  0
   -2.9500    0.2750   -0.1740 C   0  0  0  0  0  0  0  0  0  0  0  0
   -4.2020    0.2230   -0.2120 O   0  0  0  0  0  0  0  0  0  0  0  0
   -2.1110   -0.9590   -0.3810 C   0  0  1  0  0  0  0  0  0  0  0  0
   -0.7550   -0.6580   -0.2950 O   0  0  0  0  0  0  0  0  0  0  0  0
    0.1590   -0.8480   -1.3180 C   0  0  0  0  0  0  0  0  0  0  0  0
   -0.2920   -1.3270   -2.3900 O   0  0  0  0  0  0  0  0  0  0  0  0
    1.6030   -0.5080   -1.1750 C   0  0  0  0  0  0  0  0  0  0  0  0
    2.4700   -0.6870   -2.1410 C   0  0  0  0  0  0  0  0  0  0  0  0
    4.0420   -0.1360   -1.4970 S   0  0  0  0  0  0  0  0  0  0  0  0
    3.2900    0.8330   -0.1080 C   0  0  2  0  0  0  0  0  0  0  0  0
    4.1780    0.7670    1.1000 C   0  0  0  0  0  0  0  0  0  0  0  0
    2.1020    0.0100    0.0250 N   0  0  0  0  0  0  0  0  0  0  0  0
   -2.4650   -1.8990    0.7070 C   0  0  0  0  0  0  0  0  0  0  0  0
   -1.4730   -2.3410    1.6220 N   0  0  0  0  0  0  0  0  0  0  0  0
   -3.6360   -2.3310    0.8530 O   0  0  0  0  0  0  0  0  0  0  0  0
  1  2  1  0
  2  3  1  0
  3  4  2  0
  3  5  1  0
  5  6  1  1
  5 15  1  0
  6  7  1  0
  7  8  2  0
  7  9  1  0
  9 10  2  0
  9 14  1  0
 10 11  1  0
 11 12  1  0
 12 13  1  1
 12 14  1  0
 15 16  1  0
 15 17  2  0
M  END
