
     RDKit          3D

 17 17  0  0  0  0  0  0  0  0999 V2000
   -3.9730    1.4260    0.0660 C   0  0  0  0  0  0  0  0  0  0  0  0
   -2.9440    1.2580   -1.0240 C   0  0  1  0  0  0  0  0  0  0  0  0
   -1.7000    1.8190   -0.5620 N   0  0  0  0  0  0  0  0  0  0  0  0
   -0.5200    1.0440   -0.5260 C   0  0  0  0  0  0  0  0  0  0  0  0
    0.6170    1.5820   -0.4800 O   0  0  0  0  0  0  0  0  0  0  0  0
   -0.5990   -0.4370   -0.5420 C   0  0  2  0  0  0  0  0  0  0  0  0
   -0.9510   -0.9030    0.8560 C   0  0  0  0  0  0  0  0  0  0  0  0
    0.6900   -1.0510   -0.9830 C   0  0  0  0  0  0  0  0  0  0  0  0
    0.7460   -1.8050   -1.9840 O   0  0  0  0  0  0  0  0  0  0  0  0
    1.8720   -0.7720   -0.2500 N   0  0  0  0  0  0  0  0  0  0  0  0
    3.1680   -1.3490   -0.6380 C   0  0  0  0  0  0  0  0  0  0  0  0
    4.2030   -0.8600    0.3350 C   0  0  2  0  0  0  0  0  0  0  0  0
    3.8980   -1.2480    1.6340 O   0  0  0  0  0  0  0  0  0  0  0  0
    4.3760    0.9290    0.2060 S   0  0  0  0  0  0  0  0  0  0  0  0
   -1.6420   -0.8370   -1.3940 O   0  0  0  0  0  0  0  0  0  0  0  0
   -2.8290   -0.1590   -1.3770 C   0  0  0  0  0  0  0  0  0  0  0  0
   -3.8930   -0.7790   -1.6800 O   0  0  0  0  0  0  0  0  0  0  0  0
  2  1  1  1
  2  3  1  0
  2 16  1  0
  3  4  1  0
  4  5  2  0
  4  6  1  0
  6  7  1  1
  6  8  1  0
  6 15  1  0
  8  9  2  0
  8 10  1  0
 10 11  1  0
 11 12  1  0
 12 13  1  1
 12 14  1  0
 15 16  1  0
 16 17  2  0
M  END
