
     RDKit          3D

 23 24  0  0  0  0  0  0  0  0999 V2000
   -0.5790    3.3400   -0.9590 C   0  0  0  0  0  0  0  0  0  0  0  0
    0.1210    2.0990   -0.4280 C   0  0  0  0  0  0  0  0  0  0  0  0
    1.3870    1.9010   -0.6690 C   0  0  0  0  0  0  0  0  0  0  0  0
    2.1590    0.7540   -0.2140 C   0  0  0  0  0  0  0  0  0  0  0  0
    3.4430    0.6620   -0.5210 C   0  0  0  0  0  0  0  0  0  0  0  0
    4.3260   -0.4290   -0.1300 C   0  0  0  0  0  0  0  0  0  0  0  0
    3.8970   -1.5920    0.6670 C   0  0  0  0  0  0  0  0  0  0  0  0
    5.5930   -0.3870   -0.5100 C   0  0  0  0  0  0  0  0  0  0  0  0
    6.5790   -1.4120   -0.1880 C   0  0  0  0  0  0  0  0  0  0  0  0
    6.3120   -2.4310    0.4830 O   0  0  0  0  0  0  0  0  0  0  0  0
    7.9000   -1.2940   -0.6270 O   0  0  0  0  0  0  0  0  0  0  0  0
   -0.6410    1.1190    0.3770 C   0  0  0  0  0  0  0  0  0  0  0  0
   -1.7380    0.5550   -0.4920 C   0  0  0  0  0  0  0  0  0  0  0  0
   -1.7310    0.7100   -1.8510 C   0  0  0  0  0  0  0  0  0  0  0  0
   -2.7150    0.2010   -2.6700 C   0  0  0  0  0  0  0  0  0  0  0  0
   -3.7370   -0.4920   -2.0360 C   0  0  0  0  0  0  0  0  0  0  0  0
   -3.7780   -0.6690   -0.6670 C   0  0  0  0  0  0  0  0  0  0  0  0
   -4.8000   -1.3570   -0.0460 C   0  0  0  0  0  0  0  0  0  0  0  0
   -4.8510   -1.5360    1.3220 C   0  0  0  0  0  0  0  0  0  0  0  0
   -3.8460   -1.0110    2.1070 C   0  0  0  0  0  0  0  0  0  0  0  0
   -3.9260   -1.2170    3.5780 C   0  0  0  0  0  0  0  0  0  0  0  0
   -2.8170   -0.3200    1.4950 C   0  0  0  0  0  0  0  0  0  0  0  0
   -2.7630   -0.1370    0.1170 C   0  0  0  0  0  0  0  0  0  0  0  0
  1  2  1  0
  2  3  2  3
  2 12  1  0
  3  4  1  0
  4  5  2  3
  5  6  1  0
  6  7  1  0
  6  8  2  3
  8  9  1  0
  9 10  2  0
  9 11  1  0
 12 13  1  0
 13 14  2  0
 13 23  1  0
 14 15  1  0
 15 16  2  0
 16 17  1  0
 17 18  2  0
 17 23  1  0
 18 19  1  0
 19 20  2  0
 20 21  1  0
 20 22  1  0
 22 23  2  0
M  END
