
     RDKit          3D

 12 12  0  0  0  0  0  0  0  0999 V2000
   -3.1810    0.9830    0.8310 C   0  0  0  0  0  0  0  0  0  0  0  0
   -2.2720    0.2960   -0.0290 N   0  0  0  0  0  0  0  0  0  0  0  0
   -1.4860   -0.7120    0.6580 C   0  0  0  0  0  0  0  0  0  0  0  0
   -0.1520   -0.7880   -0.0400 C   0  0  2  0  0  0  0  0  0  0  0  0
   -0.3150   -1.1400   -1.3800 O   0  0  0  0  0  0  0  0  0  0  0  0
    0.6670   -1.7870    0.5220 O   0  0  0  0  0  0  0  0  0  0  0  0
    1.8580   -1.5410   -0.2000 C   0  0  0  0  0  0  0  0  0  0  0  0
    2.1030   -0.0950    0.1820 C   0  0  1  0  0  0  0  0  0  0  0  0
    2.8550    0.6180   -0.8130 N   0  0  0  0  0  0  0  0  0  0  0  0
    3.0170    1.8840   -0.3790 O   0  0  0  0  0  0  0  0  0  0  0  0
    0.6700    0.4510    0.1510 C   0  0  2  0  0  0  0  0  0  0  0  0
    0.3510    1.0240    1.3970 O   0  0  0  0  0  0  0  0  0  0  0  0
  1  2  1  0
  2  3  1  0
  3  4  1  0
  4  5  1  6
  4  6  1  0
  4 11  1  0
  6  7  1  0
  7  8  1  0
  8  9  1  6
  8 11  1  0
  9 10  1  0
 11 12  1  1
M  CHG  1   2   1
M  END
