
     RDKit          3D

 16 16  0  0  0  0  0  0  0  0999 V2000
    5.4240    0.4900   -0.3630 C   0  0  0  0  0  0  0  0  0  0  0  0
    4.4650   -0.2060   -1.1960 N   0  0  0  0  0  0  0  0  0  0  0  0
    3.2620   -0.4220   -0.4520 C   0  0  0  0  0  0  0  0  0  0  0  0
    2.4980    0.8280   -0.1660 C   0  0  0  0  0  0  0  0  0  0  0  0
    1.3380    0.5350    0.5680 O   0  0  0  0  0  0  0  0  0  0  0  0
    0.3060   -0.2680    0.1790 C   0  0  0  0  0  0  0  0  0  0  0  0
    0.3720   -0.8240   -0.9630 O   0  0  0  0  0  0  0  0  0  0  0  0
   -0.9020   -0.5220    1.0440 C   0  0  1  0  0  0  0  0  0  0  0  0
   -0.9110    0.2550    2.2370 N   0  0  0  0  0  0  0  0  0  0  0  0
   -2.1270   -0.4880    0.2100 C   0  0  1  0  0  0  0  0  0  0  0  0
   -3.5990   -0.7890    1.2550 S   0  0  0  0  0  0  0  0  0  0  0  0
   -5.0430   -0.7350    0.1520 C   0  0  0  0  0  0  0  0  0  0  0  0
   -4.7680    0.2500   -0.9330 C   0  0  0  0  0  0  0  0  0  0  0  0
   -3.7080    1.1390   -0.6740 O   0  0  0  0  0  0  0  0  0  0  0  0
   -2.3700    0.7420   -0.5430 C   0  0  0  0  0  0  0  0  0  0  0  0
   -1.4780    1.4490   -1.0670 O   0  0  0  0  0  0  0  0  0  0  0  0
  1  2  1  0
  2  3  1  0
  3  4  1  0
  4  5  1  0
  5  6  1  0
  6  7  2  0
  6  8  1  0
  8  9  1  1
  8 10  1  0
 10 11  1  1
 10 15  1  0
 11 12  1  0
 12 13  1  0
 13 14  1  0
 14 15  1  0
 15 16  2  0
M  END
