
     RDKit          3D

 19 21  0  0  0  0  0  0  0  0999 V2000
    5.8710    1.0310    0.9700 C   0  0  0  0  0  0  0  0  0  0  0  0
    4.7870    0.4120    0.1550 C   0  0  0  0  0  0  0  0  0  0  0  0
    4.9270   -0.3010   -1.0240 C   0  0  0  0  0  0  0  0  0  0  0  0
    3.7500   -0.6640   -1.4140 O   0  0  0  0  0  0  0  0  0  0  0  0
    2.7960   -0.2640   -0.6040 C   0  0  0  0  0  0  0  0  0  0  0  0
    1.3670   -0.5310   -0.7950 C   0  0  0  0  0  0  0  0  0  0  0  0
    0.8130   -1.2350   -1.8530 C   0  0  0  0  0  0  0  0  0  0  0  0
   -0.5500   -1.2630   -1.6710 C   0  0  0  0  0  0  0  0  0  0  0  0
   -0.7760   -0.5610   -0.4860 C   0  0  0  0  0  0  0  0  0  0  0  0
   -2.0990   -0.3500    0.0740 C   0  0  0  0  0  0  0  0  0  0  0  0
   -2.2850    0.5310    1.0720 C   0  0  0  0  0  0  0  0  0  0  0  0
   -1.1990    1.2290    1.5530 O   0  0  0  0  0  0  0  0  0  0  0  0
   -3.6650    0.6730    1.5770 C   0  0  0  0  0  0  0  0  0  0  0  0
   -4.6820    0.8080    0.4700 C   0  0  0  0  0  0  0  0  0  0  0  0
   -4.5800   -0.2900   -0.5420 C   0  0  0  0  0  0  0  0  0  0  0  0
   -3.2720   -1.0410   -0.4120 C   0  0  0  0  0  0  0  0  0  0  0  0
   -3.2000   -2.2550   -0.7260 O   0  0  0  0  0  0  0  0  0  0  0  0
    0.3850   -0.1700   -0.0400 O   0  0  0  0  0  0  0  0  0  0  0  0
    3.4200    0.4250    0.4100 C   0  0  0  0  0  0  0  0  0  0  0  0
  1  2  1  0
  2  3  2  0
  2 19  1  0
  3  4  1  0
  4  5  1  0
  5  6  1  0
  5 19  2  0
  6  7  2  0
  6 18  1  0
  7  8  1  0
  8  9  2  0
  9 10  1  0
  9 18  1  0
 10 11  2  0
 10 16  1  0
 11 12  1  0
 11 13  1  0
 13 14  1  0
 14 15  1  0
 15 16  1  0
 16 17  2  0
M  END
