
     RDKit          3D

 19 20  0  0  0  0  0  0  0  0999 V2000
    6.1760    0.1270    0.3430 C   0  0  0  0  0  0  0  0  0  0  0  0
    4.7670    0.1040    0.2780 O   0  0  0  0  0  0  0  0  0  0  0  0
    4.0490   -0.3360   -0.8080 C   0  0  0  0  0  0  0  0  0  0  0  0
    4.7450   -0.7370   -1.7890 O   0  0  0  0  0  0  0  0  0  0  0  0
    2.5990   -0.3690   -0.8990 C   0  0  0  0  0  0  0  0  0  0  0  0
    1.8080    0.0300    0.0750 C   0  0  0  0  0  0  0  0  0  0  0  0
    2.4310    0.5440    1.3430 C   0  0  0  0  0  0  0  0  0  0  0  0
    0.3550   -0.0070   -0.0260 C   0  0  0  0  0  0  0  0  0  0  0  0
   -0.5140    0.3670    0.8870 C   0  0  0  0  0  0  0  0  0  0  0  0
   -1.8860    0.1890    0.4390 C   0  0  0  0  0  0  0  0  0  0  0  0
   -3.0940    0.4480    1.0660 C   0  0  0  0  0  0  0  0  0  0  0  0
   -4.2660    0.1770    0.3910 C   0  0  0  0  0  0  0  0  0  0  0  0
   -5.6020    0.4430    1.0350 C   0  0  0  0  0  0  0  0  0  0  0  0
   -4.2480   -0.3460   -0.8930 C   0  0  0  0  0  0  0  0  0  0  0  0
   -3.0430   -0.5890   -1.4790 C   0  0  0  0  0  0  0  0  0  0  0  0
   -2.9830   -1.1090   -2.7570 O   0  0  0  0  0  0  0  0  0  0  0  0
   -1.8560   -0.3290   -0.8320 C   0  0  0  0  0  0  0  0  0  0  0  0
   -0.4430   -0.4690   -1.1670 C   0  0  0  0  0  0  0  0  0  0  0  0
   -0.0690   -0.9200   -2.2720 O   0  0  0  0  0  0  0  0  0  0  0  0
  1  2  1  0
  2  3  1  0
  3  4  2  0
  3  5  1  0
  5  6  2  3
  6  7  1  0
  6  8  1  0
  8  9  2  0
  8 18  1  0
  9 10  1  0
 10 11  2  0
 10 17  1  0
 11 12  1  0
 12 13  1  0
 12 14  2  0
 14 15  1  0
 15 16  1  0
 15 17  2  0
 17 18  1  0
 18 19  2  0
M  END
