
     RDKit          3D

 19 21  0  0  0  0  0  0  0  0999 V2000
    5.8230    0.1260    0.1280 C   0  0  0  0  0  0  0  0  0  0  0  0
    4.3900   -0.2150    0.2890 C   0  0  0  0  0  0  0  0  0  0  0  0
    3.8760   -0.3950    1.4220 O   0  0  0  0  0  0  0  0  0  0  0  0
    3.5240   -0.3590   -0.8020 O   0  0  0  0  0  0  0  0  0  0  0  0
    2.1840   -0.6790   -0.6240 C   0  0  0  0  0  0  0  0  0  0  0  0
    1.7180   -1.9720   -0.5870 C   0  0  0  0  0  0  0  0  0  0  0  0
    0.3790   -2.2420   -0.4090 C   0  0  0  0  0  0  0  0  0  0  0  0
   -0.5190   -1.2010   -0.2630 C   0  0  0  0  0  0  0  0  0  0  0  0
   -1.8620   -1.3950   -0.0820 C   0  0  0  0  0  0  0  0  0  0  0  0
   -2.3240   -2.7150   -0.0470 O   0  0  0  0  0  0  0  0  0  0  0  0
   -2.7910   -0.3750    0.0670 C   0  0  0  0  0  0  0  0  0  0  0  0
   -4.2340   -0.6950    0.2590 C   0  0  0  0  0  0  0  0  0  0  0  0
   -2.3100    0.9140    0.0280 C   0  0  0  0  0  0  0  0  0  0  0  0
   -0.9660    1.1600   -0.1520 C   0  0  0  0  0  0  0  0  0  0  0  0
   -0.0710    0.1280   -0.2970 C   0  0  0  0  0  0  0  0  0  0  0  0
    1.2850    0.3450   -0.4790 C   0  0  0  0  0  0  0  0  0  0  0  0
   -0.8290    2.6290   -0.1390 C   0  0  0  0  0  0  0  0  0  0  0  0
   -2.1080    3.1000   -0.4870 O   0  0  0  0  0  0  0  0  0  0  0  0
   -2.9980    2.2300    0.1510 C   0  0  0  0  0  0  0  0  0  0  0  0
  1  2  1  0
  2  3  2  0
  2  4  1  0
  4  5  1  0
  5  6  2  0
  5 16  1  0
  6  7  1  0
  7  8  2  0
  8  9  1  0
  8 15  1  0
  9 10  1  0
  9 11  2  0
 11 12  1  0
 11 13  1  0
 13 14  2  0
 13 19  1  0
 14 15  1  0
 14 17  1  0
 15 16  2  0
 17 18  1  0
 18 19  1  0
M  END
