
     RDKit          3D

 19 21  0  0  0  0  0  0  0  0999 V2000
   -3.5660   -2.7840   -0.0200 C   0  0  0  0  0  0  0  0  0  0  0  0
   -2.3960   -2.2040   -0.0620 C   0  0  0  0  0  0  0  0  0  0  0  0
   -1.2800   -2.9410   -0.1300 O   0  0  0  0  0  0  0  0  0  0  0  0
   -0.0730   -2.4390   -0.1750 C   0  0  0  0  0  0  0  0  0  0  0  0
    0.9540   -3.1500   -0.2380 O   0  0  0  0  0  0  0  0  0  0  0  0
    0.0820   -1.0540   -0.1520 C   0  0  0  0  0  0  0  0  0  0  0  0
    1.1060   -0.1390   -0.1800 C   0  0  0  0  0  0  0  0  0  0  0  0
    2.5040   -0.4650   -0.2520 C   0  0  0  0  0  0  0  0  0  0  0  0
    3.4650    0.4460   -0.2770 C   0  0  0  0  0  0  0  0  0  0  0  0
    4.8680   -0.0050   -0.3520 C   0  0  0  0  0  0  0  0  0  0  0  0
    5.6210    0.4220    0.7400 O   0  0  0  0  0  0  0  0  0  0  0  0
    0.5770    1.0920   -0.1280 O   0  0  0  0  0  0  0  0  0  0  0  0
   -0.7230    1.0360   -0.0690 C   0  0  0  0  0  0  0  0  0  0  0  0
   -1.8110    1.9120    0.0010 C   0  0  0  0  0  0  0  0  0  0  0  0
   -1.5410    3.3460    0.0200 C   0  0  0  0  0  0  0  0  0  0  0  0
   -3.0980    1.4160    0.0500 C   0  0  0  0  0  0  0  0  0  0  0  0
   -3.3810    0.0390    0.0330 C   0  0  0  0  0  0  0  0  0  0  0  0
   -2.3070   -0.8270   -0.0360 C   0  0  0  0  0  0  0  0  0  0  0  0
   -1.0520   -0.2960   -0.0830 C   0  0  0  0  0  0  0  0  0  0  0  0
  1  2  2  0
  2  3  1  0
  2 18  1  0
  3  4  1  0
  4  5  2  0
  4  6  1  0
  6  7  2  0
  6 19  1  0
  7  8  1  0
  7 12  1  0
  8  9  2  3
  9 10  1  0
 10 11  1  0
 12 13  1  0
 13 14  1  0
 13 19  2  0
 14 15  1  0
 14 16  2  0
 16 17  1  0
 17 18  2  0
 18 19  1  0
M  END
