
     RDKit          3D

 17 18  0  0  0  0  0  0  0  0999 V2000
    5.3300    1.1400    0.4080 C   0  0  0  0  0  0  0  0  0  0  0  0
    3.9710    0.5290    0.2160 C   0  0  0  0  0  0  0  0  0  0  0  0
    3.3850   -0.0610    1.2480 N   0  0  0  0  0  0  0  0  0  0  0  0
    2.1690   -0.6380    1.1870 C   0  0  0  0  0  0  0  0  0  0  0  0
    1.4980   -0.6150   -0.0090 C   0  0  0  0  0  0  0  0  0  0  0  0
    0.1840   -1.2170   -0.1260 C   0  0  0  0  0  0  0  0  0  0  0  0
   -0.9010   -0.1710   -0.1390 C   0  0  0  0  0  0  0  0  0  0  0  0
   -0.5910    1.1950   -0.0240 C   0  0  0  0  0  0  0  0  0  0  0  0
   -2.1170    2.0330   -0.0810 S   0  0  0  0  0  0  0  0  0  0  0  0
   -3.1110    0.5690   -0.2550 C   0  0  0  0  0  0  0  0  0  0  0  0
   -4.6040    0.5580   -0.3670 C   0  0  0  0  0  0  0  0  0  0  0  0
   -5.0470    1.8720   -0.3110 O   0  0  0  0  0  0  0  0  0  0  0  0
   -2.2010   -0.4470   -0.2560 C   0  0  0  0  0  0  0  0  0  0  0  0
   -2.7440   -1.8690   -0.3930 C   0  0  0  0  0  0  0  0  0  0  0  0
    2.1170    0.0090   -1.0990 C   0  0  0  0  0  0  0  0  0  0  0  0
    1.4080    0.0190   -2.3160 N   0  0  0  0  0  0  0  0  0  0  0  0
    3.3470    0.5720   -0.9700 N   0  0  0  0  0  0  0  0  0  0  0  0
  1  2  1  0
  2  3  2  0
  2 17  1  0
  3  4  1  0
  4  5  2  0
  5  6  1  0
  5 15  1  0
  6  7  1  0
  7  8  2  0
  7 13  1  0
  8  9  1  0
  9 10  1  0
 10 11  1  0
 10 13  2  0
 11 12  1  0
 13 14  1  0
 15 16  1  0
 15 17  2  0
M  END
