
     RDKit          3D

 19 21  0  0  0  0  0  0  0  0999 V2000
    5.7830    0.6730    2.0370 O   0  0  0  0  0  0  0  0  0  0  0  0
    4.8570    0.2660    1.2660 C   0  0  0  0  0  0  0  0  0  0  0  0
    3.6020    0.5460    1.5160 O   0  0  0  0  0  0  0  0  0  0  0  0
    2.6290    0.1290    0.7210 C   0  0  0  0  0  0  0  0  0  0  0  0
    1.3110    0.4360    1.0040 C   0  0  0  0  0  0  0  0  0  0  0  0
    0.2740    0.0170    0.1980 C   0  0  0  0  0  0  0  0  0  0  0  0
   -1.0380    0.3430    0.5100 O   0  0  0  0  0  0  0  0  0  0  0  0
   -2.0480   -0.1150   -0.3540 C   0  0  0  0  0  0  0  0  0  0  0  0
   -3.3970    0.2900    0.0770 C   0  0  0  0  0  0  0  0  0  0  0  0
   -4.3760   -0.5440    0.3750 C   0  0  0  0  0  0  0  0  0  0  0  0
   -5.5590    0.2290    0.7580 C   0  0  0  0  0  0  0  0  0  0  0  0
   -5.1400    1.6450    0.6450 C   0  0  0  0  0  0  0  0  0  0  0  0
   -3.8680    1.6560    0.2440 C   0  0  0  0  0  0  0  0  0  0  0  0
    0.6250   -0.7270   -0.9100 C   0  0  0  0  0  0  0  0  0  0  0  0
    1.9300   -1.0450   -1.2110 C   0  0  0  0  0  0  0  0  0  0  0  0
    2.9480   -0.6160   -0.3910 C   0  0  0  0  0  0  0  0  0  0  0  0
    4.2650   -0.9270   -0.6790 C   0  0  0  0  0  0  0  0  0  0  0  0
    5.2360   -0.4700    0.1770 C   0  0  0  0  0  0  0  0  0  0  0  0
    6.5610   -0.7810   -0.1120 O   0  0  0  0  0  0  0  0  0  0  0  0
  1  2  2  0
  2  3  1  0
  2 18  1  0
  3  4  1  0
  4  5  2  0
  4 16  1  0
  5  6  1  0
  6  7  1  0
  6 14  2  0
  7  8  1  0
  8  9  1  0
  9 10  2  0
  9 13  1  0
 10 11  1  0
 11 12  1  0
 12 13  2  0
 14 15  1  0
 15 16  2  0
 16 17  1  0
 17 18  2  0
 18 19  1  0
M  END
