
     RDKit          3D

 19 21  0  0  0  0  0  0  0  0999 V2000
    4.8000   -0.6910    0.8930 C   0  0  0  0  0  0  0  0  0  0  0  0
    3.5090   -0.2000    0.2820 C   0  0  0  0  0  0  0  0  0  0  0  0
    2.3720   -0.3210    1.0960 C   0  0  0  0  0  0  0  0  0  0  0  0
    1.1340   -0.0370    0.5470 C   0  0  0  0  0  0  0  0  0  0  0  0
    1.0590    0.3400   -0.7570 C   0  0  0  0  0  0  0  0  0  0  0  0
    2.2180    0.4550   -1.5450 C   0  0  0  0  0  0  0  0  0  0  0  0
    3.4520    0.1800   -1.0000 C   0  0  0  0  0  0  0  0  0  0  0  0
    4.6060    0.2960   -1.7540 O   0  0  0  0  0  0  0  0  0  0  0  0
   -0.0690    0.5650   -1.6460 C   0  0  0  0  0  0  0  0  0  0  0  0
   -1.2190   -0.2120   -1.2060 O   0  0  0  0  0  0  0  0  0  0  0  0
   -1.9320   -0.0290   -0.0020 C   0  0  0  0  0  0  0  0  0  0  0  0
   -3.2700    0.1180   -0.1110 C   0  0  0  0  0  0  0  0  0  0  0  0
   -3.8710    0.1030   -1.4640 C   0  0  0  0  0  0  0  0  0  0  0  0
   -4.6820   -1.0620   -1.5190 O   0  0  0  0  0  0  0  0  0  0  0  0
   -4.0680    0.2960    1.0630 C   0  0  0  0  0  0  0  0  0  0  0  0
   -3.3790    0.3050    2.2340 C   0  0  0  0  0  0  0  0  0  0  0  0
   -2.0150    0.1570    2.3840 C   0  0  0  0  0  0  0  0  0  0  0  0
   -1.2550   -0.0260    1.2140 C   0  0  0  0  0  0  0  0  0  0  0  0
    0.0720   -0.1790    1.4640 O   0  0  0  0  0  0  0  0  0  0  0  0
  1  2  1  0
  2  3  2  0
  2  7  1  0
  3  4  1  0
  4  5  2  0
  4 19  1  0
  5  6  1  0
  5  9  1  0
  6  7  2  0
  7  8  1  0
  9 10  1  0
 10 11  1  0
 11 12  2  0
 11 18  1  0
 12 13  1  0
 12 15  1  0
 13 14  1  0
 15 16  2  0
 16 17  1  0
 17 18  2  0
 18 19  1  0
M  END
