
     RDKit          3D

 19 21  0  0  0  0  0  0  0  0999 V2000
    5.3890    2.2030    0.4370 O   0  0  0  0  0  0  0  0  0  0  0  0
    4.7090    1.0060    0.1870 C   0  0  0  0  0  0  0  0  0  0  0  0
    3.5710    1.0210   -0.4580 C   0  0  0  0  0  0  0  0  0  0  0  0
    2.9140   -0.2590   -0.6860 C   0  0  0  0  0  0  0  0  0  0  0  0
    1.7050   -0.3030   -1.3650 O   0  0  0  0  0  0  0  0  0  0  0  0
    0.5060   -0.2520   -0.6920 C   0  0  0  0  0  0  0  0  0  0  0  0
    0.5160   -0.1570    0.6770 C   0  0  0  0  0  0  0  0  0  0  0  0
   -0.6270   -0.1000    1.4340 C   0  0  0  0  0  0  0  0  0  0  0  0
   -1.8380   -0.1440    0.7490 C   0  0  0  0  0  0  0  0  0  0  0  0
   -1.8790   -0.2400   -0.6230 C   0  0  0  0  0  0  0  0  0  0  0  0
   -0.7190   -0.2950   -1.3600 C   0  0  0  0  0  0  0  0  0  0  0  0
   -3.2240   -0.2780   -1.2360 C   0  0  2  0  0  0  0  0  0  0  0  0
   -3.1930   -0.3570   -2.6190 O   0  0  0  0  0  0  0  0  0  0  0  0
   -3.9700    0.9160   -0.7270 C   0  0  0  0  0  0  0  0  0  0  0  0
   -4.1640    0.7640    0.7630 C   0  0  0  0  0  0  0  0  0  0  0  0
   -3.1520   -0.0940    1.4420 C   0  0  0  0  0  0  0  0  0  0  0  0
    3.4310   -1.4010   -0.2650 C   0  0  0  0  0  0  0  0  0  0  0  0
    4.7200   -1.4310    0.4680 C   0  0  0  0  0  0  0  0  0  0  0  0
    5.2760   -0.1560    0.6390 O   0  0  0  0  0  0  0  0  0  0  0  0
  1  2  1  0
  2  3  2  0
  2 19  1  0
  3  4  1  0
  4  5  1  0
  4 17  2  0
  5  6  1  0
  6  7  2  0
  6 11  1  0
  7  8  1  0
  8  9  2  0
  9 10  1  0
  9 16  1  0
 10 11  2  0
 10 12  1  0
 12 13  1  6
 12 14  1  0
 14 15  1  0
 15 16  1  0
 17 18  1  0
 18 19  1  0
M  END
