
     RDKit          3D

 19 20  0  0  0  0  0  0  0  0999 V2000
    0.3300   -0.8760    0.6890 O   0  0  0  0  0  0  0  0  0  0  0  0
    0.8190    0.2120    0.3160 C   0  0  0  0  0  0  0  0  0  0  0  0
   -0.0510    1.2510   -0.0630 N   0  0  0  0  0  0  0  0  0  0  0  0
   -1.4350    1.1330   -0.0450 N   0  0  0  0  0  0  0  0  0  0  0  0
   -2.1730    1.1640   -1.2460 C   0  0  0  0  0  0  0  0  0  0  0  0
   -1.5480    1.3030   -2.3410 O   0  0  0  0  0  0  0  0  0  0  0  0
   -3.6390    1.0370   -1.2000 C   0  0  2  0  0  0  0  0  0  0  0  0
   -4.4070    1.5780   -0.0340 C   0  0  0  0  0  0  0  0  0  0  0  0
   -4.2020    0.0850   -0.1760 C   0  0  1  0  0  0  0  0  0  0  0  0
   -5.4400   -0.7070   -0.5750 C   0  0  0  0  0  0  0  0  0  0  0  0
   -5.1390   -1.4700   -1.6790 F   0  0  0  0  0  0  0  0  0  0  0  0
    2.2780    0.3680    0.2870 C   0  0  0  0  0  0  0  0  0  0  0  0
    2.7600    1.4650   -0.0890 O   0  0  0  0  0  0  0  0  0  0  0  0
    3.1580   -0.6650    0.6640 N   0  0  0  0  0  0  0  0  0  0  0  0
    4.5810   -0.5910    0.6620 C   0  0  0  0  0  0  0  0  0  0  0  0
    5.3370    0.4810    0.3050 C   0  0  0  0  0  0  0  0  0  0  0  0
    6.6450    0.1570    0.4380 N   0  0  0  0  0  0  0  0  0  0  0  0
    6.6940   -1.0880    0.8690 N   0  0  0  0  0  0  0  0  0  0  0  0
    5.4630   -1.5930    1.0230 C   0  0  0  0  0  0  0  0  0  0  0  0
  1  2  2  0
  2  3  1  0
  2 12  1  0
  3  4  1  0
  4  5  1  0
  5  6  2  0
  7  5  1  1
  7  8  1  0
  7  9  1  0
  8  9  1  0
  9 10  1  6
 10 11  1  0
 12 13  2  0
 12 14  1  0
 14 15  1  0
 15 16  1  0
 15 19  2  0
 16 17  2  0
 17 18  1  0
 18 19  1  0
M  END
