
     RDKit          3D

 19 20  0  0  0  0  0  0  0  0999 V2000
    4.0440    2.4310    1.5920 N   0  0  0  0  0  0  0  0  0  0  0  0
    3.1230    1.6930    0.7630 C   0  0  0  0  0  0  0  0  0  0  0  0
    2.8140    2.0810   -0.3860 O   0  0  0  0  0  0  0  0  0  0  0  0
    2.5480    0.5170    1.2250 O   0  0  0  0  0  0  0  0  0  0  0  0
    1.6730   -0.1910    0.4490 C   0  0  0  0  0  0  0  0  0  0  0  0
    2.1170   -1.1410   -0.3720 C   0  0  0  0  0  0  0  0  0  0  0  0
    1.4100   -2.0240   -1.2880 C   0  0  0  0  0  0  0  0  0  0  0  0
    2.1820   -2.6890   -2.2780 N   0  0  0  0  0  0  0  0  0  0  0  0
    0.1400   -2.2280   -1.2440 N   0  0  0  0  0  0  0  0  0  0  0  0
   -0.9770   -1.8250   -0.4940 C   0  0  2  0  0  0  0  0  0  0  0  0
   -2.0740   -1.7900   -1.3700 F   0  0  0  0  0  0  0  0  0  0  0  0
   -0.9060   -0.5210    0.1310 N   0  0  0  0  0  0  0  0  0  0  0  0
   -2.1730    0.0990    0.2890 C   0  0  0  0  0  0  0  0  0  0  0  0
   -2.5490    1.2490   -0.2230 C   0  0  0  0  0  0  0  0  0  0  0  0
   -3.9370    1.5010    0.1970 C   0  0  0  0  0  0  0  0  0  0  0  0
   -4.2710    0.3250    1.0140 C   0  0  0  0  0  0  0  0  0  0  0  0
   -3.2490   -0.4440    1.0420 N   0  0  0  0  0  0  0  0  0  0  0  0
    0.2590    0.1520    0.5760 C   0  0  0  0  0  0  0  0  0  0  0  0
    0.0260    1.2070    1.1710 O   0  0  0  0  0  0  0  0  0  0  0  0
  1  2  1  0
  2  3  2  0
  2  4  1  0
  4  5  1  0
  5  6  2  0
  5 18  1  0
  6  7  1  0
  7  8  1  0
  7  9  2  0
  9 10  1  0
 10 11  1  6
 10 12  1  0
 12 13  1  0
 12 18  1  0
 13 14  2  0
 13 17  1  0
 14 15  1  0
 15 16  1  0
 16 17  2  0
 18 19  2  0
M  END
