
     RDKit          3D

 28 30  0  0  0  0  0  0  0  0999 V2000
    0.4140    4.6550   -2.6810 N   0  0  0  0  0  0  0  0  0  0  0  0
   -0.4550    3.4890   -2.6010 C   0  0  0  0  0  0  0  0  0  0  0  0
   -1.6160    3.4050   -3.2420 C   0  0  0  0  0  0  0  0  0  0  0  0
   -2.4820    2.2690   -3.1530 C   0  0  0  0  0  0  0  0  0  0  0  0
   -1.9950    1.2250   -2.3190 C   0  0  0  0  0  0  0  0  0  0  0  0
   -2.8870    0.0600   -2.2630 N   0  0  0  0  0  0  0  0  0  0  0  0
   -0.8800    1.2900   -1.6920 C   0  0  0  0  0  0  0  0  0  0  0  0
   -0.4450    0.2210   -0.6500 C   0  0  0  0  0  0  0  0  0  0  0  0
   -1.4800   -0.6650   -0.2910 C   0  0  0  0  0  0  0  0  0  0  0  0
   -2.3350   -1.4100   -0.0110 C   0  0  0  0  0  0  0  0  0  0  0  0
   -3.4610   -2.3780    0.3320 C   0  0  2  0  0  0  0  0  0  0  0  0
   -4.7270   -1.7980    0.7500 C   0  0  0  0  0  0  0  0  0  0  0  0
   -4.6260   -0.9810    1.9620 N   0  0  0  0  0  0  0  0  0  0  0  0
   -2.8770   -3.4840    1.1840 C   0  0  0  0  0  0  0  0  0  0  0  0
   -3.0830   -4.4660    0.0710 C   0  0  0  0  0  0  0  0  0  0  0  0
   -3.6230   -3.3940   -0.8020 C   0  0  0  0  0  0  0  0  0  0  0  0
    0.7280    0.2290   -0.4080 C   0  0  0  0  0  0  0  0  0  0  0  0
    1.6600   -0.5090    0.5000 C   0  0  0  0  0  0  0  0  0  0  0  0
    2.9110   -0.2040    0.4490 C   0  0  0  0  0  0  0  0  0  0  0  0
    3.9760   -0.8160    1.2680 C   0  0  0  0  0  0  0  0  0  0  0  0
    4.9040    0.2400    1.7260 C   0  0  0  0  0  0  0  0  0  0  0  0
    4.7850    0.9650    2.8860 C   0  0  0  0  0  0  0  0  0  0  0  0
    5.7390    1.9240    3.1880 C   0  0  0  0  0  0  0  0  0  0  0  0
    6.7870    2.1450    2.3380 C   0  0  0  0  0  0  0  0  0  0  0  0
    7.6200    3.0090    2.6360 O   0  0  0  0  0  0  0  0  0  0  0  0
    6.9030    1.4220    1.1870 N   0  0  0  0  0  0  0  0  0  0  0  0
    5.9950    0.5040    0.8920 C   0  0  0  0  0  0  0  0  0  0  0  0
   -0.0020    2.4330   -1.7800 C   0  0  0  0  0  0  0  0  0  0  0  0
  1  2  1  0
  2  3  2  0
  2 28  1  0
  3  4  1  0
  4  5  2  0
  5  6  1  0
  5  7  1  0
  7  8  1  0
  7 28  2  0
  8  9  1  0
  8 17  2  3
  9 10  3  0
 11 10  1  6
 11 12  1  0
 11 14  1  0
 11 16  1  0
 12 13  1  0
 14 15  1  0
 15 16  1  0
 17 18  1  0
 18 19  2  3
 19 20  1  0
 20 21  1  0
 21 22  1  0
 21 27  2  0
 22 23  2  0
 23 24  1  0
 24 25  2  0
 24 26  1  0
 26 27  1  0
M  CHG  1  13   1
M  END
