
     RDKit          3D

 19 20  0  0  0  0  0  0  0  0999 V2000
   -0.3400    3.3180   -0.3720 O   0  0  0  0  0  0  0  0  0  0  0  0
    0.0820    2.0900   -0.2340 C   0  0  0  0  0  0  0  0  0  0  0  0
   -0.5410    1.4020    0.8790 C   0  0  0  0  0  0  0  0  0  0  0  0
   -1.6280    0.4410    0.5480 C   0  0  0  0  0  0  0  0  0  0  0  0
   -2.7980    0.3880    1.2040 C   0  0  0  0  0  0  0  0  0  0  0  0
   -3.6110   -0.6850    0.5890 C   0  0  2  0  0  0  0  0  0  0  0  0
   -3.8400   -1.6200    1.5930 F   0  0  0  0  0  0  0  0  0  0  0  0
   -2.7530   -1.1540   -0.4160 N   0  0  0  0  0  0  0  0  0  0  0  0
   -1.6040   -0.5580   -0.4960 C   0  0  0  0  0  0  0  0  0  0  0  0
   -0.5800   -0.8830   -1.4660 C   0  0  0  0  0  0  0  0  0  0  0  0
    0.5730   -1.5180   -1.3410 C   0  0  0  0  0  0  0  0  0  0  0  0
    1.1760   -2.0860   -0.2020 N   0  0  0  0  0  0  0  0  0  0  0  0
    1.6540   -1.4760    0.9460 N   0  0  0  0  0  0  0  0  0  0  0  0
    2.5910   -0.4040    1.0470 C   0  0  0  0  0  0  0  0  0  0  0  0
    3.1480   -0.1510    2.1840 O   0  0  0  0  0  0  0  0  0  0  0  0
    2.9960    0.4510   -0.0080 N   0  0  0  0  0  0  0  0  0  0  0  0
    2.2290    0.9580   -1.0930 C   0  0  0  0  0  0  0  0  0  0  0  0
    2.8090    0.6780   -2.2350 O   0  0  0  0  0  0  0  0  0  0  0  0
    1.0480    1.6550   -1.1710 N   0  0  0  0  0  0  0  0  0  0  0  0
  1  2  2  0
  2  3  1  0
  2 19  1  0
  3  4  1  0
  4  5  2  0
  4  9  1  0
  5  6  1  0
  6  7  1  1
  6  8  1  0
  8  9  2  0
  9 10  1  0
 10 11  2  0
 11 12  1  0
 12 13  1  0
 13 14  1  0
 14 15  2  0
 14 16  1  0
 16 17  1  0
 17 18  2  0
 17 19  1  0
M  END
