
     RDKit          3D

 18 20  0  0  0  0  0  0  0  0999 V2000
   -1.9470   -1.9310    0.5970 N   0  0  0  0  0  0  0  0  0  0  0  0
   -2.4370   -0.5820    0.6800 C   0  0  1  0  0  0  0  0  0  0  0  0
   -1.5060    0.4450    0.1800 C   0  0  0  0  0  0  0  0  0  0  0  0
   -0.3340    0.9090   -0.0910 C   0  0  0  0  0  0  0  0  0  0  0  0
    0.9340    0.1780    0.1520 C   0  0  0  0  0  0  0  0  0  0  0  0
    0.9440   -0.9690    0.6520 O   0  0  0  0  0  0  0  0  0  0  0  0
    2.1750    0.7630   -0.1790 N   0  0  0  0  0  0  0  0  0  0  0  0
    3.4450    0.1620    0.0070 C   0  0  0  0  0  0  0  0  0  0  0  0
    4.6900    0.6730   -0.2910 C   0  0  0  0  0  0  0  0  0  0  0  0
    5.6390   -0.2210    0.0420 N   0  0  0  0  0  0  0  0  0  0  0  0
    5.0530   -1.2890    0.5450 N   0  0  0  0  0  0  0  0  0  0  0  0
    3.7010   -1.0760    0.5330 C   0  0  0  0  0  0  0  0  0  0  0  0
   -0.4440    2.2250   -0.6940 C   0  0  0  0  0  0  0  0  0  0  0  0
   -1.6750    2.5300   -0.7620 N   0  0  0  0  0  0  0  0  0  0  0  0
   -2.4800    1.5310   -0.2350 C   0  0  1  0  0  0  0  0  0  0  0  0
   -3.3990    0.8420   -0.9670 O   0  0  0  0  0  0  0  0  0  0  0  0
   -3.6070   -0.3720   -0.2870 C   0  0  2  0  0  0  0  0  0  0  0  0
   -4.8250   -0.3660    0.3900 O   0  0  0  0  0  0  0  0  0  0  0  0
  2  1  1  6
  2  3  1  0
  2 17  1  0
  3  4  2  0
  3 15  1  0
  4  5  1  0
  4 13  1  0
  5  6  2  0
  5  7  1  0
  7  8  1  0
  8  9  1  0
  8 12  2  0
  9 10  2  0
 10 11  1  0
 11 12  1  0
 13 14  2  0
 14 15  1  0
 15 16  1  6
 16 17  1  0
 17 18  1  1
M  CHG  1   1   1
M  END
