
     RDKit          3D

 28 30  0  0  0  0  0  0  0  0999 V2000
    1.8520   -0.6450    0.8430 C   0  0  0  0  0  0  0  0  0  0  0  0
    1.5680    0.5570    0.0920 C   0  0  0  0  0  0  0  0  0  0  0  0
    0.5770    0.7560   -0.7290 C   0  0  0  0  0  0  0  0  0  0  0  0
   -0.5000   -0.1550   -1.0970 C   0  0  0  0  0  0  0  0  0  0  0  0
   -1.4090    0.2630   -1.9630 C   0  0  0  0  0  0  0  0  0  0  0  0
   -1.4560    1.5570   -2.6020 C   0  0  0  0  0  0  0  0  0  0  0  0
   -2.3590    1.5380   -3.6180 C   0  0  0  0  0  0  0  0  0  0  0  0
   -2.9870    0.2440   -3.7570 C   0  0  0  0  0  0  0  0  0  0  0  0
   -2.6230   -0.4520   -2.4570 C   0  0  0  0  0  0  0  0  0  0  0  0
   -0.6490   -1.5060   -0.5960 C   0  0  0  0  0  0  0  0  0  0  0  0
   -0.3790   -2.5880   -1.4480 C   0  0  0  0  0  0  0  0  0  0  0  0
   -0.5360   -3.8770   -1.0490 C   0  0  0  0  0  0  0  0  0  0  0  0
   -0.9670   -4.2030    0.2190 C   0  0  0  0  0  0  0  0  0  0  0  0
   -1.1860   -5.6030    0.6650 C   0  0  0  0  0  0  0  0  0  0  0  0
   -1.2490   -3.1320    1.1010 C   0  0  0  0  0  0  0  0  0  0  0  0
   -1.0900   -1.8340    0.6840 C   0  0  0  0  0  0  0  0  0  0  0  0
   -1.5060   -0.9150    1.7560 C   0  0  0  0  0  0  0  0  0  0  0  0
   -1.5690   -1.7670    3.0000 C   0  0  0  0  0  0  0  0  0  0  0  0
   -1.6610   -3.1750    2.5100 C   0  0  0  0  0  0  0  0  0  0  0  0
    2.4830    1.7260    0.3150 C   0  0  0  0  0  0  0  0  0  0  0  0
    3.4910    1.6740    1.0790 C   0  0  0  0  0  0  0  0  0  0  0  0
    4.3960    2.8370    1.2960 C   0  0  0  0  0  0  0  0  0  0  0  0
    4.1480    4.0690    0.6260 N   0  0  0  0  0  0  0  0  0  0  0  0
    5.3920    2.7830    2.0590 O   0  0  0  0  0  0  0  0  0  0  0  0
    2.0890    2.9170   -0.3450 N   0  0  0  0  0  0  0  0  0  0  0  0
    1.2460    3.8520    0.3520 C   0  0  0  0  0  0  0  0  0  0  0  0
    0.7660    5.0600   -0.1960 N   0  0  0  0  0  0  0  0  0  0  0  0
    0.9610    3.4500    1.5610 N   0  0  0  0  0  0  0  0  0  0  0  0
  1  2  1  0
  2  3  2  3
  2 20  1  0
  3  4  1  0
  4  5  2  3
  4 10  1  0
  5  6  1  0
  5  9  1  0
  6  7  2  0
  7  8  1  0
  8  9  1  0
 10 11  2  0
 10 16  1  0
 11 12  1  0
 12 13  2  0
 13 14  1  0
 13 15  1  0
 15 16  2  0
 15 19  1  0
 16 17  1  0
 17 18  1  0
 18 19  1  0
 20 21  2  3
 20 25  1  0
 21 22  1  0
 22 23  1  0
 22 24  2  0
 25 26  1  0
 26 27  1  0
 26 28  2  0
M  CHG  1  28   1
M  END
