
     RDKit          3D

 19 21  0  0  0  0  0  0  0  0999 V2000
   -5.1950    0.7980    2.6380 O   0  0  0  0  0  0  0  0  0  0  0  0
   -4.4100    0.3990    1.7140 C   0  0  0  0  0  0  0  0  0  0  0  0
   -3.0900    0.5920    1.6090 N   0  0  0  0  0  0  0  0  0  0  0  0
   -2.6190    0.0160    0.4900 C   0  0  0  0  0  0  0  0  0  0  0  0
   -1.2830    0.0010    0.0310 N   0  0  0  0  0  0  0  0  0  0  0  0
   -0.9090   -0.6590   -1.1950 C   0  0  0  0  0  0  0  0  0  0  0  0
    0.5540   -0.5530   -1.4940 C   0  0  1  0  0  0  0  0  0  0  0  0
    0.9040    0.8760   -1.8240 C   0  0  0  0  0  0  0  0  0  0  0  0
    1.5110    1.5400   -0.7050 O   0  0  0  0  0  0  0  0  0  0  0  0
    2.4560    0.8940    0.0810 C   0  0  0  0  0  0  0  0  0  0  0  0
    2.3710   -0.4800    0.1760 C   0  0  0  0  0  0  0  0  0  0  0  0
    3.3130   -1.1430    0.9620 C   0  0  0  0  0  0  0  0  0  0  0  0
    4.3120   -0.4740    1.6370 C   0  0  0  0  0  0  0  0  0  0  0  0
    4.3580    0.8630    1.5160 N   0  0  0  0  0  0  0  0  0  0  0  0
    3.4580    1.5370    0.7610 C   0  0  0  0  0  0  0  0  0  0  0  0
    3.5040    2.8990    0.6380 F   0  0  0  0  0  0  0  0  0  0  0  0
    1.3680   -1.1160   -0.5050 O   0  0  0  0  0  0  0  0  0  0  0  0
   -3.7050   -0.5470   -0.0990 N   0  0  0  0  0  0  0  0  0  0  0  0
   -4.7760   -0.3140    0.6400 N   0  0  0  0  0  0  0  0  0  0  0  0
  1  2  2  0
  2  3  1  0
  2 19  1  0
  3  4  2  0
  4  5  1  0
  4 18  1  0
  5  6  1  0
  7  6  1  1
  7  8  1  0
  7 17  1  0
  8  9  1  0
  9 10  1  0
 10 11  2  0
 10 15  1  0
 11 12  1  0
 11 17  1  0
 12 13  2  0
 13 14  1  0
 14 15  2  0
 15 16  1  0
 18 19  1  0
M  END
