
     RDKit          3D

 20 20  0  0  0  0  0  0  0  0999 V2000
   -0.6850   -1.8920    0.3890 N   0  0  0  0  0  0  0  0  0  0  0  0
   -1.5010   -0.9580   -0.3630 C   0  0  2  0  0  0  0  0  0  0  0  0
   -2.5670   -1.6830   -1.1320 C   0  0  0  0  0  0  0  0  0  0  0  0
   -1.9290   -2.5780   -2.0190 O   0  0  0  0  0  0  0  0  0  0  0  0
   -0.6170   -0.0590   -1.1920 C   0  0  0  0  0  0  0  0  0  0  0  0
   -0.7430    0.9790   -0.0680 C   0  0  2  0  0  0  0  0  0  0  0  0
   -0.9370    2.2440   -0.5800 O   0  0  0  0  0  0  0  0  0  0  0  0
    0.4650    0.9020    0.8090 C   0  0  0  0  0  0  0  0  0  0  0  0
    1.5740    1.2540    0.0340 O   0  0  0  0  0  0  0  0  0  0  0  0
    2.7410    1.2000    0.8070 C   0  0  0  0  0  0  0  0  0  0  0  0
    3.8290    1.5440    0.0510 O   0  0  0  0  0  0  0  0  0  0  0  0
    4.0930    0.7760   -1.0450 C   0  0  0  0  0  0  0  0  0  0  0  0
    4.3590   -0.6700   -0.7910 C   0  0  0  0  0  0  0  0  0  0  0  0
    3.2990   -1.3310   -0.1800 O   0  0  0  0  0  0  0  0  0  0  0  0
   -1.9630    0.2440    0.3900 C   0  0  2  0  0  0  0  0  0  0  0  0
   -2.1100    0.0470    1.8740 C   0  0  0  0  0  0  0  0  0  0  0  0
   -2.5360    1.1680    2.5380 O   0  0  0  0  0  0  0  0  0  0  0  0
   -3.1840    0.8510   -0.2020 C   0  0  0  0  0  0  0  0  0  0  0  0
   -4.2470    0.9400    0.4870 O   0  0  0  0  0  0  0  0  0  0  0  0
   -3.2490    1.3410   -1.4920 O   0  0  0  0  0  0  0  0  0  0  0  0
  2  1  1  1
  2  3  1  0
  2  5  1  0
  2 15  1  0
  3  4  1  0
  5  6  1  0
  6  7  1  6
  6  8  1  0
  6 15  1  0
  8  9  1  0
  9 10  1  0
 10 11  1  0
 11 12  1  0
 12 13  1  0
 13 14  1  0
 15 16  1  1
 15 18  1  0
 16 17  1  0
 18 19  2  0
 18 20  1  0
M  END
