
     RDKit          3D

 10 11  0  0  0  0  0  0  0  0999 V2000
   -2.4750   -0.5190   -0.1540 N   0  0  0  0  0  0  0  0  0  0  0  0
   -1.2650    0.2400   -0.1420 C   0  0  0  0  0  0  0  0  0  0  0  0
   -1.2880    1.5750   -0.3150 N   0  0  0  0  0  0  0  0  0  0  0  0
   -0.1950    2.3250   -0.3130 N   0  0  0  0  0  0  0  0  0  0  0  0
    1.0350    1.8140   -0.1360 C   0  0  0  0  0  0  0  0  0  0  0  0
    1.1150    0.4490    0.0470 C   0  0  0  0  0  0  0  0  0  0  0  0
    2.1490   -0.4440    0.2550 C   0  0  0  0  0  0  0  0  0  0  0  0
    1.6260   -1.6790    0.3660 N   0  0  0  0  0  0  0  0  0  0  0  0
    0.3060   -1.6260    0.2400 N   0  0  0  0  0  0  0  0  0  0  0  0
   -0.0320   -0.3490    0.0450 C   0  0  0  0  0  0  0  0  0  0  0  0
  1  2  1  0
  2  3  2  0
  2 10  1  0
  3  4  1  0
  4  5  2  0
  5  6  1  0
  6  7  1  0
  6 10  2  0
  7  8  2  0
  8  9  1  0
  9 10  1  0
M  END
