
     RDKit          3D

 10 11  0  0  0  0  0  0  0  0999 V2000
   -1.9310   -1.1590   -0.0020 N   0  0  0  0  0  0  0  0  0  0  0  0
   -1.0440   -0.0450    0.0150 C   0  0  0  0  0  0  0  0  0  0  0  0
   -1.5250    1.2560    0.0630 C   0  0  0  0  0  0  0  0  0  0  0  0
   -0.6360    2.2560    0.0760 N   0  0  0  0  0  0  0  0  0  0  0  0
    0.6760    2.0780    0.0460 N   0  0  0  0  0  0  0  0  0  0  0  0
    1.1910    0.8530   -0.0010 C   0  0  0  0  0  0  0  0  0  0  0  0
    2.4600    0.4050   -0.0390 N   0  0  0  0  0  0  0  0  0  0  0  0
    2.3920   -0.9220   -0.0780 N   0  0  0  0  0  0  0  0  0  0  0  0
    1.1290   -1.3440   -0.0660 C   0  0  0  0  0  0  0  0  0  0  0  0
    0.3220   -0.2300   -0.0170 C   0  0  0  0  0  0  0  0  0  0  0  0
  1  2  1  0
  2  3  2  0
  2 10  1  0
  3  4  1  0
  4  5  2  0
  5  6  1  0
  6  7  1  0
  6 10  2  0
  7  8  1  0
  8  9  2  0
  9 10  1  0
M  END
