
     RDKit          3D

 20 20  0  0  0  0  0  0  0  0999 V2000
   -1.5320   -0.0500    1.3500 N   0  0  0  0  0  0  0  0  0  0  0  0
   -0.6410   -0.1580    0.2720 C   0  0  2  0  0  0  0  0  0  0  0  0
   -1.1210   -1.1500   -0.7000 C   0  0  2  0  0  0  0  0  0  0  0  0
   -0.4340   -1.1520   -1.9430 O   0  0  0  0  0  0  0  0  0  0  0  0
   -2.5710   -1.0280   -1.0570 C   0  0  0  0  0  0  0  0  0  0  0  0
   -3.0150   -0.0050   -1.8230 O   0  0  0  0  0  0  0  0  0  0  0  0
   -3.1400    1.3180   -1.7330 C   0  0  0  0  0  0  0  0  0  0  0  0
   -2.7900    1.8950   -0.6790 O   0  0  0  0  0  0  0  0  0  0  0  0
   -3.6580    2.1260   -2.7810 O   0  0  0  0  0  0  0  0  0  0  0  0
   -0.9130   -2.5700   -0.1160 C   0  0  0  0  0  0  0  0  0  0  0  0
    0.3710   -2.8150    0.2400 O   0  0  0  0  0  0  0  0  0  0  0  0
    1.2630   -1.7730    0.1670 C   0  0  0  0  0  0  0  0  0  0  0  0
    0.7440   -0.5170    0.8390 C   0  0  2  0  0  0  0  0  0  0  0  0
    0.5210   -0.8460    2.2920 C   0  0  0  0  0  0  0  0  0  0  0  0
   -0.0130    0.2820    2.9120 O   0  0  0  0  0  0  0  0  0  0  0  0
    1.6990    0.6150    0.7970 C   0  0  2  0  0  0  0  0  0  0  0  0
    1.1850    1.6590    1.5500 O   0  0  0  0  0  0  0  0  0  0  0  0
    2.0620    1.1230   -0.5570 C   0  0  0  0  0  0  0  0  0  0  0  0
    3.0400    2.2700   -0.3850 C   0  0  0  0  0  0  0  0  0  0  0  0
    3.4240    2.7950   -1.6200 O   0  0  0  0  0  0  0  0  0  0  0  0
  2  1  1  1
  2  3  1  0
  2 13  1  0
  3  4  1  6
  3  5  1  0
  3 10  1  0
  5  6  1  0
  6  7  1  0
  7  8  2  0
  7  9  1  0
 10 11  1  0
 11 12  1  0
 12 13  1  0
 13 14  1  1
 13 16  1  0
 14 15  1  0
 16 17  1  1
 16 18  1  0
 18 19  1  0
 19 20  1  0
M  END
