
     RDKit          3D

 10 11  0  0  0  0  0  0  0  0999 V2000
    3.3990    0.0130    0.3220 N   0  0  0  0  0  0  0  0  0  0  0  0
    1.9810   -0.0900    0.2250 C   0  0  0  0  0  0  0  0  0  0  0  0
    1.2580   -1.2350    0.0990 N   0  0  0  0  0  0  0  0  0  0  0  0
   -0.0440   -0.9040    0.0410 C   0  0  0  0  0  0  0  0  0  0  0  0
   -1.1920   -1.6100   -0.0810 N   0  0  0  0  0  0  0  0  0  0  0  0
   -2.3650   -0.9520   -0.1080 C   0  0  0  0  0  0  0  0  0  0  0  0
   -2.4580    0.4230   -0.0170 C   0  0  0  0  0  0  0  0  0  0  0  0
   -1.3370    1.1600    0.1050 N   0  0  0  0  0  0  0  0  0  0  0  0
   -0.1370    0.5500    0.1380 C   0  0  0  0  0  0  0  0  0  0  0  0
    1.1370    0.9650    0.2470 N   0  0  0  0  0  0  0  0  0  0  0  0
  1  2  1  0
  2  3  2  0
  2 10  1  0
  3  4  1  0
  4  5  2  0
  4  9  1  0
  5  6  1  0
  6  7  2  0
  7  8  1  0
  8  9  1  0
  9 10  2  0
M  END
