
     RDKit          3D

 10 11  0  0  0  0  0  0  0  0999 V2000
   -0.5980    2.0680   -0.0660 N   0  0  0  0  0  0  0  0  0  0  0  0
   -0.7870    0.7950    0.0310 C   0  0  0  0  0  0  0  0  0  0  0  0
   -2.0450    0.0790    0.2020 C   0  0  0  0  0  0  0  0  0  0  0  0
   -1.7940   -1.2200    0.2560 C   0  0  0  0  0  0  0  0  0  0  0  0
   -0.3340   -1.3850    0.1180 C   0  0  0  0  0  0  0  0  0  0  0  0
    0.6540   -2.3100    0.0730 N   0  0  0  0  0  0  0  0  0  0  0  0
    1.8000   -1.6700   -0.0820 N   0  0  0  0  0  0  0  0  0  0  0  0
    1.6000   -0.3380   -0.1430 C   0  0  0  0  0  0  0  0  0  0  0  0
    2.4990    0.7170   -0.2980 N   0  0  0  0  0  0  0  0  0  0  0  0
    0.2620   -0.1890   -0.0160 N   0  0  0  0  0  0  0  0  0  0  0  0
  1  2  2  0
  2  3  1  0
  2 10  1  0
  3  4  2  0
  4  5  1  0
  5  6  2  0
  5 10  1  0
  6  7  1  0
  7  8  2  0
  8  9  1  0
  8 10  1  0
M  END
