
     RDKit          3D

 21 20  0  0  0  0  0  0  0  0999 V2000
    4.9560    0.5630   -0.6440 N   0  0  0  0  0  0  0  0  0  0  0  0
    4.0080    1.6140   -0.5590 C   0  0  0  0  0  0  0  0  0  0  0  0
    4.3700    2.8960   -1.0330 N   0  0  0  0  0  0  0  0  0  0  0  0
    2.8310    1.4320   -0.0620 N   0  0  0  0  0  0  0  0  0  0  0  0
    2.3900    0.1860    0.4350 C   0  0  0  0  0  0  0  0  0  0  0  0
    1.7970   -0.6660   -0.3660 C   0  0  0  0  0  0  0  0  0  0  0  0
    1.3520   -1.9570    0.1990 C   0  0  0  0  0  0  0  0  0  0  0  0
   -0.1440   -2.1810    0.0770 C   0  0  2  0  0  0  0  0  0  0  0  0
   -0.8460   -1.1480    0.7660 N   0  0  0  0  0  0  0  0  0  0  0  0
   -1.6430   -0.3110   -0.1190 C   0  0  2  0  0  0  0  0  0  0  0  0
   -2.0990    0.8560    0.7220 C   0  0  0  0  0  0  0  0  0  0  0  0
   -2.9460    1.8260   -0.0450 C   0  0  0  0  0  0  0  0  0  0  0  0
   -3.3070    2.9220    0.8720 C   0  0  0  0  0  0  0  0  0  0  0  0
   -2.4500    3.7610    1.2060 O   0  0  0  0  0  0  0  0  0  0  0  0
   -4.5880    3.0190    1.3580 O   0  0  0  0  0  0  0  0  0  0  0  0
   -2.7190   -1.0320   -0.7750 C   0  0  0  0  0  0  0  0  0  0  0  0
   -2.9300   -2.2380   -0.4580 O   0  0  0  0  0  0  0  0  0  0  0  0
   -3.5360   -0.4820   -1.7350 O   0  0  0  0  0  0  0  0  0  0  0  0
   -0.3940   -3.5310    0.6200 C   0  0  0  0  0  0  0  0  0  0  0  0
   -1.1450   -3.7170    1.5920 O   0  0  0  0  0  0  0  0  0  0  0  0
    0.2350   -4.6090    0.0160 O   0  0  0  0  0  0  0  0  0  0  0  0
  1  2  1  0
  2  3  1  0
  2  4  2  3
  4  5  1  0
  5  6  2  3
  6  7  1  0
  8  7  1  1
  8  9  1  0
  8 19  1  0
  9 10  1  0
 10 11  1  1
 10 16  1  0
 11 12  1  0
 12 13  1  0
 13 14  2  0
 13 15  1  0
 16 17  2  0
 16 18  1  0
 19 20  2  0
 19 21  1  0
M  CHG  2   4   1   9   1
M  END
