
     RDKit          3D

 10 11  0  0  0  0  0  0  0  0999 V2000
    2.5830   -0.2110   -0.0280 N   0  0  0  0  0  0  0  0  0  0  0  0
    1.3100    0.4150   -0.0380 C   0  0  0  0  0  0  0  0  0  0  0  0
    0.9690    1.7050   -0.0900 N   0  0  0  0  0  0  0  0  0  0  0  0
   -0.3550    1.8370   -0.0770 N   0  0  0  0  0  0  0  0  0  0  0  0
   -0.9380    0.6270   -0.0170 C   0  0  0  0  0  0  0  0  0  0  0  0
   -2.2540    0.2300    0.0190 C   0  0  0  0  0  0  0  0  0  0  0  0
   -2.4880   -1.0880    0.0790 N   0  0  0  0  0  0  0  0  0  0  0  0
   -1.5020   -1.9710    0.1040 N   0  0  0  0  0  0  0  0  0  0  0  0
   -0.2010   -1.6340    0.0720 C   0  0  0  0  0  0  0  0  0  0  0  0
    0.1150   -0.2940    0.0090 C   0  0  0  0  0  0  0  0  0  0  0  0
  1  2  1  0
  2  3  2  0
  2 10  1  0
  3  4  1  0
  4  5  1  0
  5  6  2  0
  5 10  1  0
  6  7  1  0
  7  8  2  0
  8  9  1  0
  9 10  2  0
M  END
