
     RDKit          3D

 10 11  0  0  0  0  0  0  0  0999 V2000
    2.4960    0.4510   -0.0310 N   0  0  0  0  0  0  0  0  0  0  0  0
    1.2930   -0.3080   -0.0270 C   0  0  0  0  0  0  0  0  0  0  0  0
    1.2520   -1.6480   -0.0540 N   0  0  0  0  0  0  0  0  0  0  0  0
    0.1200   -2.3400   -0.0500 N   0  0  0  0  0  0  0  0  0  0  0  0
   -1.0890   -1.7590   -0.0190 C   0  0  0  0  0  0  0  0  0  0  0  0
   -1.1240   -0.3810    0.0100 C   0  0  0  0  0  0  0  0  0  0  0  0
   -2.1670    0.4670    0.0440 N   0  0  0  0  0  0  0  0  0  0  0  0
   -1.6630    1.6890    0.0600 N   0  0  0  0  0  0  0  0  0  0  0  0
   -0.3160    1.6540    0.0380 C   0  0  0  0  0  0  0  0  0  0  0  0
    0.0660    0.3350    0.0050 C   0  0  0  0  0  0  0  0  0  0  0  0
  1  2  1  0
  2  3  2  0
  2 10  1  0
  3  4  1  0
  4  5  2  0
  5  6  1  0
  6  7  1  0
  6 10  2  0
  7  8  1  0
  8  9  2  0
  9 10  1  0
M  END
