
     RDKit          3D

 21 20  0  0  0  0  0  0  0  0999 V2000
   -3.7770   -1.4830    1.1660 C   0  0  0  0  0  0  0  0  0  0  0  0
   -2.8180   -0.4160    0.6820 C   0  0  1  0  0  0  0  0  0  0  0  0
   -3.5180    0.7080    0.2930 O   0  0  0  0  0  0  0  0  0  0  0  0
   -1.9570   -0.0290    1.8640 C   0  0  0  0  0  0  0  0  0  0  0  0
   -1.2000   -1.0920    2.3440 O   0  0  0  0  0  0  0  0  0  0  0  0
   -2.0230   -0.9830   -0.4520 C   0  0  2  0  0  0  0  0  0  0  0  0
   -1.0510   -0.0330   -0.9680 N   0  0  0  0  0  0  0  0  0  0  0  0
    0.3090   -0.3580   -0.9890 C   0  0  0  0  0  0  0  0  0  0  0  0
    0.6460   -1.4870   -0.5470 O   0  0  0  0  0  0  0  0  0  0  0  0
    1.3760    0.5330   -1.4940 C   0  0  2  0  0  0  0  0  0  0  0  0
    1.1350    0.8750   -2.9500 C   0  0  0  0  0  0  0  0  0  0  0  0
   -0.1240    1.4380   -3.0810 O   0  0  0  0  0  0  0  0  0  0  0  0
    2.6110   -0.0180   -1.2820 O   0  0  0  0  0  0  0  0  0  0  0  0
    3.5050    0.6220   -0.5030 C   0  0  0  0  0  0  0  0  0  0  0  0
    2.9750    0.7410    0.9030 C   0  0  1  0  0  0  0  0  0  0  0  0
    2.7210   -0.4950    1.4950 O   0  0  0  0  0  0  0  0  0  0  0  0
    3.9270    1.5140    1.7960 C   0  0  0  0  0  0  0  0  0  0  0  0
    5.1380    0.8470    1.9740 O   0  0  0  0  0  0  0  0  0  0  0  0
   -2.9660   -1.2740   -1.5660 C   0  0  0  0  0  0  0  0  0  0  0  0
   -2.8560   -0.7390   -2.7150 O   0  0  0  0  0  0  0  0  0  0  0  0
   -3.9950   -2.1630   -1.3240 O   0  0  0  0  0  0  0  0  0  0  0  0
  2  1  1  1
  2  3  1  0
  2  4  1  0
  2  6  1  0
  4  5  1  0
  6  7  1  6
  6 19  1  0
  7  8  1  0
  8  9  2  0
  8 10  1  0
 10 11  1  6
 10 13  1  0
 11 12  1  0
 13 14  1  0
 14 15  1  0
 15 16  1  1
 15 17  1  0
 17 18  1  0
 19 20  2  0
 19 21  1  0
M  END
