
     RDKit          3D

 22 24  0  0  0  0  0  0  0  0999 V2000
   -5.6090   -1.4210   -2.4260 Cl  0  0  0  0  0  0  0  0  0  0  0  0
   -6.1430   -1.0720   -0.7780 C   0  0  0  0  0  0  0  0  0  0  0  0
   -5.5630    0.2720   -0.3370 C   0  0  0  0  0  0  0  0  0  0  0  0
   -4.1210    0.1970   -0.3800 N   0  0  1  0  0  0  0  0  0  0  0  0
   -3.4960    1.4730   -0.5600 C   0  0  0  0  0  0  0  0  0  0  0  0
   -2.0170    1.3590   -0.4600 C   0  0  0  0  0  0  0  0  0  0  0  0
   -1.4740    0.1370    0.1060 C   0  0  0  0  0  0  0  0  0  0  0  0
   -0.1480   -0.0320    0.1620 C   0  0  0  0  0  0  0  0  0  0  0  0
    0.6910    1.0250   -0.3510 C   0  0  0  0  0  0  0  0  0  0  0  0
    2.0000    1.0250   -0.3730 C   0  0  0  0  0  0  0  0  0  0  0  0
    2.8650   -0.0260    0.1070 C   0  0  0  0  0  0  0  0  0  0  0  0
    2.3690   -1.1580    0.6490 N   0  0  0  0  0  0  0  0  0  0  0  0
    3.1460   -2.1350    1.0960 C   0  0  0  0  0  0  0  0  0  0  0  0
    4.5150   -2.0130    1.0150 C   0  0  0  0  0  0  0  0  0  0  0  0
    5.0790   -0.8860    0.4750 C   0  0  0  0  0  0  0  0  0  0  0  0
    6.4720   -0.7740    0.3990 C   0  0  0  0  0  0  0  0  0  0  0  0
    7.0470    0.3540   -0.1420 C   0  0  0  0  0  0  0  0  0  0  0  0
    6.2320    1.3600   -0.6030 C   0  0  0  0  0  0  0  0  0  0  0  0
    4.8340    1.2560   -0.5300 C   0  0  0  0  0  0  0  0  0  0  0  0
    4.2520    0.1270    0.0120 C   0  0  0  0  0  0  0  0  0  0  0  0
   -2.3170   -0.9420    0.6260 C   0  0  0  0  0  0  0  0  0  0  0  0
   -3.6990   -0.4000    0.8960 C   0  0  0  0  0  0  0  0  0  0  0  0
  1  2  1  0
  2  3  1  0
  4  3  1  1
  4  5  1  0
  4 22  1  0
  5  6  1  0
  6  7  1  0
  7  8  2  3
  7 21  1  0
  8  9  1  0
  9 10  2  3
 10 11  1  0
 11 12  2  0
 11 20  1  0
 12 13  1  0
 13 14  2  0
 14 15  1  0
 15 16  2  0
 15 20  1  0
 16 17  1  0
 17 18  2  0
 18 19  1  0
 19 20  2  0
 21 22  1  0
M  CHG  1   4   1
M  END
