
     RDKit          3D

 20 20  0  0  0  0  0  0  0  0999 V2000
    4.1780    2.1590   -0.0110 N   0  0  0  0  0  0  0  0  0  0  0  0
    3.8950    0.7710    0.0560 C   0  0  0  0  0  0  0  0  0  0  0  0
    4.6150   -0.1140   -0.7800 N   0  0  0  0  0  0  0  0  0  0  0  0
    3.0080    0.3140    0.8540 N   0  0  0  0  0  0  0  0  0  0  0  0
    2.7470   -1.1050    0.8950 C   0  0  0  0  0  0  0  0  0  0  0  0
    1.6350   -1.3850   -0.0960 C   0  0  0  0  0  0  0  0  0  0  0  0
    0.3710   -0.5980    0.2910 C   0  0  0  0  0  0  0  0  0  0  0  0
   -0.7320   -0.8670   -0.7160 C   0  0  1  0  0  0  0  0  0  0  0  0
   -0.9500   -2.3270   -0.6460 C   0  0  0  0  0  0  0  0  0  0  0  0
   -1.7560   -2.9310    0.0930 O   0  0  0  0  0  0  0  0  0  0  0  0
   -0.2000   -3.1960   -1.4780 O   0  0  0  0  0  0  0  0  0  0  0  0
   -1.8330   -0.0230   -0.6680 N   0  0  1  0  0  0  0  0  0  0  0  0
   -3.0450   -0.3800   -0.0240 C   0  0  1  0  0  0  0  0  0  0  0  0
   -3.6770   -1.5270   -0.3320 O   0  0  0  0  0  0  0  0  0  0  0  0
   -2.8170   -0.0950    1.4490 C   0  0  0  0  0  0  0  0  0  0  0  0
   -2.0930    1.2560    1.3090 C   0  0  0  0  0  0  0  0  0  0  0  0
   -1.6030    1.2990   -0.1090 C   0  0  2  0  0  0  0  0  0  0  0  0
   -2.4240    2.3060   -0.8460 C   0  0  0  0  0  0  0  0  0  0  0  0
   -3.1250    1.9790   -1.8120 O   0  0  0  0  0  0  0  0  0  0  0  0
   -2.4320    3.6460   -0.4770 O   0  0  0  0  0  0  0  0  0  0  0  0
  1  2  1  0
  2  3  1  0
  2  4  2  3
  4  5  1  0
  5  6  1  0
  6  7  1  0
  8  7  1  1
  8  9  1  0
 12  8  1  1
  9 10  2  0
  9 11  1  0
 12 13  1  0
 12 17  1  0
 13 14  1  1
 13 15  1  0
 15 16  1  0
 16 17  1  0
 17 18  1  6
 18 19  2  0
 18 20  1  0
M  CHG  2   4   1  12   1
M  END
