
     RDKit          3D

 27 29  0  0  0  0  0  0  0  0999 V2000
    5.1780    0.4890   -2.0330 C   0  0  0  0  0  0  0  0  0  0  0  0
    4.9540   -0.1130   -0.8850 C   0  0  0  0  0  0  0  0  0  0  0  0
    4.6900    0.6720    0.3280 C   0  0  0  0  0  0  0  0  0  0  0  0
    3.3760    0.3360    0.8600 N   0  0  0  0  0  0  0  0  0  0  0  0
    3.0830   -0.5780    1.7120 O   0  0  0  0  0  0  0  0  0  0  0  0
    1.7880   -0.6110    1.9750 C   0  0  0  0  0  0  0  0  0  0  0  0
    1.3250   -1.4450    2.7900 O   0  0  0  0  0  0  0  0  0  0  0  0
    1.2050    0.3340    1.2530 N   0  0  0  0  0  0  0  0  0  0  0  0
   -0.1820    0.6820    1.1780 C   0  0  0  0  0  0  0  0  0  0  0  0
   -0.9700    0.0480    0.1010 C   0  0  1  0  0  0  0  0  0  0  0  0
   -1.1160   -1.3950    0.0730 C   0  0  0  0  0  0  0  0  0  0  0  0
   -1.2620   -2.2640    1.1250 C   0  0  0  0  0  0  0  0  0  0  0  0
   -1.3910   -3.5680    0.8650 C   0  0  0  0  0  0  0  0  0  0  0  0
   -1.3750   -3.9930   -0.4370 C   0  0  0  0  0  0  0  0  0  0  0  0
   -1.5110   -5.5730   -1.1940 Cl  0  0  0  0  0  0  0  0  0  0  0  0
   -1.1600   -2.3980   -1.3010 S   0  0  0  0  0  0  0  0  0  0  0  0
   -2.1530    0.8650   -0.2990 C   0  0  0  0  0  0  0  0  0  0  0  0
   -3.3330    0.7330    0.3940 C   0  0  0  0  0  0  0  0  0  0  0  0
   -3.5670   -0.2040    1.5040 C   0  0  0  0  0  0  0  0  0  0  0  0
   -4.6010    1.7590   -0.1500 S   0  0  0  0  0  0  0  0  0  0  0  0
   -4.1910    2.7650   -1.4490 C   0  0  0  0  0  0  0  0  0  0  0  0
   -4.9800    3.6020   -2.0060 O   0  0  0  0  0  0  0  0  0  0  0  0
   -2.9300    2.5990   -1.8510 N   0  0  0  0  0  0  0  0  0  0  0  0
   -2.0370    1.7790   -1.3600 C   0  0  0  0  0  0  0  0  0  0  0  0
   -0.8700    1.7970   -1.9200 O   0  0  0  0  0  0  0  0  0  0  0  0
    2.1970    0.9310    0.5520 C   0  0  0  0  0  0  0  0  0  0  0  0
    2.0800    1.8690   -0.2470 O   0  0  0  0  0  0  0  0  0  0  0  0
  1  2  2  0
  2  3  1  0
  3  4  1  0
  4  5  1  0
  4 26  1  0
  5  6  1  0
  6  7  2  0
  6  8  1  0
  8  9  1  0
  8 26  1  0
 10  9  1  1
 10 11  1  0
 10 17  1  0
 11 12  2  0
 11 16  1  0
 12 13  1  0
 13 14  2  0
 14 15  1  0
 14 16  1  0
 17 18  2  0
 17 24  1  0
 18 19  1  0
 18 20  1  0
 20 21  1  0
 21 22  2  0
 21 23  1  0
 23 24  1  0
 24 25  2  0
 26 27  2  0
M  END
