
     RDKit          3D

 22 24  0  0  0  0  0  0  0  0999 V2000
   -6.5460    0.9000   -0.9170 C   0  0  0  0  0  0  0  0  0  0  0  0
   -5.5230   -0.0580   -0.4210 C   0  0  0  0  0  0  0  0  0  0  0  0
   -5.8280   -1.2810    0.1280 C   0  0  0  0  0  0  0  0  0  0  0  0
   -4.8850   -2.1580    0.5830 C   0  0  0  0  0  0  0  0  0  0  0  0
   -5.2820   -3.7160    1.2810 Cl  0  0  0  0  0  0  0  0  0  0  0  0
   -3.5410   -1.7890    0.4840 C   0  0  0  0  0  0  0  0  0  0  0  0
   -3.1590   -0.5750   -0.0570 C   0  0  0  0  0  0  0  0  0  0  0  0
   -1.7560   -0.1600   -0.1900 C   0  0  0  0  0  0  0  0  0  0  0  0
   -0.7610   -0.9420    0.1570 C   0  0  0  0  0  0  0  0  0  0  0  0
    0.6710   -0.4960    0.0110 C   0  0  0  0  0  0  0  0  0  0  0  0
    0.8820    0.8840    0.1700 N   0  0  0  0  0  0  0  0  0  0  0  0
    1.8510    1.2170    1.1540 C   0  0  0  0  0  0  0  0  0  0  0  0
    3.1560    0.6280    0.7730 C   0  0  0  0  0  0  0  0  0  0  0  0
    3.6620   -0.4810    1.4100 C   0  0  0  0  0  0  0  0  0  0  0  0
    4.8960   -0.9680    0.9840 C   0  0  0  0  0  0  0  0  0  0  0  0
    5.6090   -0.3830   -0.0370 C   0  0  0  0  0  0  0  0  0  0  0  0
    6.9320   -0.8870   -0.5110 C   0  0  0  0  0  0  0  0  0  0  0  0
    5.0680    0.6980   -0.6250 N   0  0  0  0  0  0  0  0  0  0  0  0
    3.8860    1.1990   -0.2460 C   0  0  0  0  0  0  0  0  0  0  0  0
   -0.2050    1.7660    0.0090 C   0  0  0  0  0  0  0  0  0  0  0  0
   -1.3920    1.1780   -0.7100 C   0  0  0  0  0  0  0  0  0  0  0  0
   -4.1770    0.2540   -0.4940 C   0  0  0  0  0  0  0  0  0  0  0  0
  1  2  1  0
  2  3  2  0
  2 22  1  0
  3  4  1  0
  4  5  1  0
  4  6  2  0
  6  7  1  0
  7  8  1  0
  7 22  2  0
  8  9  2  0
  8 21  1  0
  9 10  1  0
 10 11  1  0
 11 12  1  0
 11 20  1  0
 12 13  1  0
 13 14  2  0
 13 19  1  0
 14 15  1  0
 15 16  2  0
 16 17  1  0
 16 18  1  0
 18 19  2  0
 20 21  1  0
M  CHG  1  18   1
M  END
