
     RDKit          3D

 22 23  0  0  0  0  0  0  0  0999 V2000
    1.6260   -1.9280   -2.8550 C   0  0  0  0  0  0  0  0  0  0  0  0
    1.8890   -1.4270   -1.6730 C   0  0  0  0  0  0  0  0  0  0  0  0
    1.6330   -0.0280   -1.2910 C   0  0  0  0  0  0  0  0  0  0  0  0
    0.6780    0.0770   -0.1310 N   0  0  0  0  0  0  0  0  0  0  0  0
   -0.5740   -0.3470   -0.6230 C   0  0  0  0  0  0  0  0  0  0  0  0
   -1.7070   -0.7340    0.2500 C   0  0  2  0  0  0  0  0  0  0  0  0
   -2.8250   -1.0760   -0.6050 N   0  0  2  0  0  0  0  0  0  0  0  0
   -3.8560   -0.0250   -0.4990 C   0  0  0  0  0  0  0  0  0  0  0  0
   -3.4620   -2.3150   -0.4630 C   0  0  0  0  0  0  0  0  0  0  0  0
   -2.1140    0.0550    1.4500 C   0  0  0  0  0  0  0  0  0  0  0  0
   -2.4810   -1.3170    2.0930 C   0  0  0  0  0  0  0  0  0  0  0  0
   -1.3410   -1.8010    1.2670 C   0  0  0  0  0  0  0  0  0  0  0  0
    0.7580    1.4980    0.1680 C   0  0  2  0  0  0  0  0  0  0  0  0
    0.2730    2.4310   -0.8680 C   0  0  0  0  0  0  0  0  0  0  0  0
    0.9360    3.8100   -0.7400 C   0  0  0  0  0  0  0  0  0  0  0  0
    1.0710    4.2410    0.6910 C   0  0  0  0  0  0  0  0  0  0  0  0
    1.9230    3.2460    1.3990 C   0  0  0  0  0  0  0  0  0  0  0  0
    2.1440    1.9820    0.5350 C   0  0  0  0  0  0  0  0  0  0  0  0
    2.4630   -2.3440   -0.6940 C   0  0  0  0  0  0  0  0  0  0  0  0
    2.7670   -4.0370   -1.1310 Cl  0  0  0  0  0  0  0  0  0  0  0  0
    2.7830   -2.0040    0.5370 C   0  0  0  0  0  0  0  0  0  0  0  0
    3.3620   -2.9820    1.4810 C   0  0  0  0  0  0  0  0  0  0  0  0
  1  2  2  0
  2  3  1  0
  2 19  1  0
  3  4  1  0
  4  5  1  0
 13  4  1  6
  6  5  1  6
  6  7  1  0
  6 10  1  0
  6 12  1  0
  7  8  1  1
  7  9  1  0
 10 11  1  0
 11 12  1  0
 13 14  1  0
 13 18  1  0
 14 15  1  0
 15 16  1  0
 16 17  1  0
 17 18  1  0
 19 20  1  0
 19 21  2  3
 21 22  1  0
M  CHG  1   7   1
M  END
