
     RDKit          3D

 22 24  0  0  0  0  0  0  0  0999 V2000
   -2.0720    1.5670   -2.5530 C   0  0  0  0  0  0  0  0  0  0  0  0
   -2.5910    0.1640   -2.3190 C   0  0  0  0  0  0  0  0  0  0  0  0
   -2.0670   -0.2570   -0.9730 C   0  0  0  0  0  0  0  0  0  0  0  0
   -2.9120   -0.5760   -0.0040 C   0  0  0  0  0  0  0  0  0  0  0  0
   -4.4020   -0.6000    0.0170 C   0  0  0  0  0  0  0  0  0  0  0  0
   -4.7450   -0.5100    1.4670 C   0  0  0  0  0  0  0  0  0  0  0  0
   -3.6410   -1.2930    2.1970 C   0  0  0  0  0  0  0  0  0  0  0  0
   -2.4540   -1.0070    1.3040 C   0  0  0  0  0  0  0  0  0  0  0  0
   -1.1560   -1.0800    1.5160 C   0  0  0  0  0  0  0  0  0  0  0  0
   -0.1010   -0.7650    0.5480 C   0  0  0  0  0  0  0  0  0  0  0  0
   -0.6120   -0.2990   -0.7460 C   0  0  0  0  0  0  0  0  0  0  0  0
    0.1130    0.0810   -1.7100 N   0  0  0  0  0  0  0  0  0  0  0  0
    1.5050    0.1410   -1.7610 N   0  0  0  0  0  0  0  0  0  0  0  0
    2.2560   -0.8000   -2.6030 C   0  0  0  0  0  0  0  0  0  0  0  0
    2.2240    1.1130   -1.0260 C   0  0  0  0  0  0  0  0  0  0  0  0
    3.0990    0.8220   -0.0700 C   0  0  0  0  0  0  0  0  0  0  0  0
    3.3860   -0.5440    0.2960 C   0  0  0  0  0  0  0  0  0  0  0  0
    4.2650   -0.7910    1.2480 C   0  0  0  0  0  0  0  0  0  0  0  0
    4.9620    0.2780    1.9500 C   0  0  0  0  0  0  0  0  0  0  0  0
    6.1340   -0.0590    3.2200 Cl  0  0  0  0  0  0  0  0  0  0  0  0
    4.7180    1.5090    1.6370 C   0  0  0  0  0  0  0  0  0  0  0  0
    3.7740    1.9400    0.6080 C   0  0  0  0  0  0  0  0  0  0  0  0
  1  2  1  0
  2  3  1  0
  3  4  2  0
  3 11  1  0
  4  5  1  0
  4  8  1  0
  5  6  1  0
  6  7  1  0
  7  8  1  0
  8  9  2  0
  9 10  1  0
 10 11  1  0
 11 12  2  3
 12 13  1  0
 13 14  1  0
 13 15  1  0
 15 16  2  3
 16 17  1  0
 16 22  1  0
 17 18  2  0
 18 19  1  0
 19 20  1  0
 19 21  2  0
 21 22  1  0
M  END
