
     RDKit          3D

 22 24  0  0  0  0  0  0  0  0999 V2000
   -1.1190   -2.7350    0.5710 C   0  0  0  0  0  0  0  0  0  0  0  0
   -1.5270   -1.9300   -0.6490 C   0  0  0  0  0  0  0  0  0  0  0  0
   -2.2630   -0.7320   -0.1740 C   0  0  0  0  0  0  0  0  0  0  0  0
   -3.6670   -0.8010   -0.1970 C   0  0  0  0  0  0  0  0  0  0  0  0
   -4.4660    0.2220    0.2540 C   0  0  0  0  0  0  0  0  0  0  0  0
   -3.8670    1.3430    0.7400 C   0  0  0  0  0  0  0  0  0  0  0  0
   -4.8310    2.6880    1.3330 Cl  0  0  0  0  0  0  0  0  0  0  0  0
   -2.5050    1.4560    0.7820 C   0  0  0  0  0  0  0  0  0  0  0  0
   -1.7010    0.4160    0.3230 C   0  0  0  0  0  0  0  0  0  0  0  0
   -0.2090    0.5420    0.3560 C   0  0  2  0  0  0  0  0  0  0  0  0
    0.0520    2.0170    0.7180 C   0  0  0  0  0  0  0  0  0  0  0  0
    1.4560    2.4790    0.4260 C   0  0  0  0  0  0  0  0  0  0  0  0
    1.6120    2.9490   -0.9910 C   0  0  0  0  0  0  0  0  0  0  0  0
    0.5330    2.5570   -1.9340 C   0  0  0  0  0  0  0  0  0  0  0  0
    0.1150    1.1440   -1.9480 C   0  0  0  0  0  0  0  0  0  0  0  0
    0.4790    0.3370   -0.8290 N   0  0  0  0  0  0  0  0  0  0  0  0
    1.6800   -0.3610   -0.9510 C   0  0  0  0  0  0  0  0  0  0  0  0
    2.1230   -1.2360    0.1240 C   0  0  0  0  0  0  0  0  0  0  0  0
    2.3140   -2.5570   -0.0680 C   0  0  0  0  0  0  0  0  0  0  0  0
    2.7560   -3.1930    1.1650 C   0  0  0  0  0  0  0  0  0  0  0  0
    2.8110   -2.1220    2.1080 N   0  0  0  0  0  0  0  0  0  0  0  0
    2.4570   -1.0450    1.5160 C   0  0  0  0  0  0  0  0  0  0  0  0
  1  2  1  0
  2  3  1  0
  3  4  2  0
  3  9  1  0
  4  5  1  0
  5  6  2  0
  6  7  1  0
  6  8  1  0
  8  9  2  0
 10  9  1  6
 10 11  1  0
 10 16  1  0
 11 12  1  0
 12 13  1  0
 13 14  1  0
 14 15  1  0
 15 16  1  0
 16 17  1  0
 17 18  1  0
 18 19  2  0
 18 22  1  0
 19 20  1  0
 20 21  1  0
 21 22  2  0
M  CHG  1  21   1
M  END
