
     RDKit          3D

 16 16  0  0  0  0  0  0  0  0999 V2000
   -0.7220    1.3580   -0.3360 C   0  0  0  0  0  0  0  0  0  0  0  0
   -1.9860    0.6310   -0.1950 C   0  0  0  0  0  0  0  0  0  0  0  0
   -1.9910   -0.6250    0.1770 C   0  0  0  0  0  0  0  0  0  0  0  0
   -0.9220   -1.5270    0.5130 C   0  0  0  0  0  0  0  0  0  0  0  0
    0.4570   -1.0980    0.6190 C   0  0  0  0  0  0  0  0  0  0  0  0
    0.7910   -0.2980    1.5270 O   0  0  0  0  0  0  0  0  0  0  0  0
    1.4470   -1.5190   -0.2210 O   0  0  0  0  0  0  0  0  0  0  0  0
    2.7760   -1.2920   -0.3420 C   0  0  0  0  0  0  0  0  0  0  0  0
    3.3290    0.0340   -0.6710 C   0  0  1  0  0  0  0  0  0  0  0  0
    3.0530    1.1550    0.2820 C   0  0  0  0  0  0  0  0  0  0  0  0
    4.8680   -0.0920   -0.7510 C   0  0  0  0  0  0  0  0  0  0  0  0
   -3.3680   -1.2030    0.2520 C   0  0  0  0  0  0  0  0  0  0  0  0
   -3.5120   -2.4540    0.2510 O   0  0  0  0  0  0  0  0  0  0  0  0
   -4.5840   -0.3890    0.3290 C   0  0  0  0  0  0  0  0  0  0  0  0
   -4.3730    1.0850    0.3140 C   0  0  0  0  0  0  0  0  0  0  0  0
   -3.1930    1.3500   -0.4790 N   0  0  0  0  0  0  0  0  0  0  0  0
  1  2  1  0
  2  3  2  0
  2 16  1  0
  3  4  1  0
  3 12  1  0
  4  5  1  0
  5  6  2  0
  5  7  1  0
  7  8  1  0
  8  9  1  0
  9 10  1  1
  9 11  1  0
 12 13  2  0
 12 14  1  0
 14 15  1  0
 15 16  1  0
M  END
