
     RDKit          3D

 23 24  0  0  0  0  0  0  0  0999 V2000
    1.8450    3.1280   -4.2150 C   0  0  0  0  0  0  0  0  0  0  0  0
    0.7670    2.2920   -3.6880 C   0  0  0  0  0  0  0  0  0  0  0  0
    0.7430    1.8950   -2.3930 C   0  0  0  0  0  0  0  0  0  0  0  0
   -0.3580    1.0730   -1.9590 C   0  0  0  0  0  0  0  0  0  0  0  0
   -0.5980    0.5800   -0.7800 C   0  0  0  0  0  0  0  0  0  0  0  0
   -1.8370   -0.2490   -0.6410 C   0  0  0  0  0  0  0  0  0  0  0  0
   -2.7120   -0.4310   -1.6860 C   0  0  0  0  0  0  0  0  0  0  0  0
   -3.8640   -1.2200   -1.5550 C   0  0  0  0  0  0  0  0  0  0  0  0
   -4.7990   -1.4100   -2.6870 C   0  0  0  0  0  0  0  0  0  0  0  0
   -4.1290   -1.8270   -0.3530 C   0  0  0  0  0  0  0  0  0  0  0  0
   -3.2810   -1.6700    0.7140 C   0  0  0  0  0  0  0  0  0  0  0  0
   -3.5800   -2.3330    2.0100 C   0  0  0  0  0  0  0  0  0  0  0  0
   -2.1530   -0.8810    0.5380 C   0  0  0  0  0  0  0  0  0  0  0  0
    0.2720    0.7900    0.4230 C   0  0  2  0  0  0  0  0  0  0  0  0
   -0.5490    1.3610    1.5200 C   0  0  0  0  0  0  0  0  0  0  0  0
    1.1820    1.8370    0.0920 O   0  0  0  0  0  0  0  0  0  0  0  0
    1.0940   -0.4140    0.7000 C   0  0  0  0  0  0  0  0  0  0  0  0
    2.0060   -0.3590    1.8700 C   0  0  1  0  0  0  0  0  0  0  0  0
    1.4470   -0.1590    3.0960 O   0  0  0  0  0  0  0  0  0  0  0  0
    2.7260   -1.7130    1.9270 C   0  0  0  0  0  0  0  0  0  0  0  0
    4.1660   -1.4350    2.2200 C   0  0  0  0  0  0  0  0  0  0  0  0
    4.1740    0.0150    2.6800 C   0  0  0  0  0  0  0  0  0  0  0  0
    3.1590    0.6020    1.6870 C   0  0  0  0  0  0  0  0  0  0  0  0
  1  2  1  0
  2  3  2  3
  3  4  1  0
  4  5  2  3
  5  6  1  0
  5 14  1  0
  6  7  2  0
  6 13  1  0
  7  8  1  0
  8  9  1  0
  8 10  2  0
 10 11  1  0
 11 12  1  0
 11 13  2  0
 14 15  1  1
 14 16  1  0
 14 17  1  0
 17 18  1  0
 18 19  1  1
 18 20  1  0
 18 23  1  0
 20 21  1  0
 21 22  1  0
 22 23  1  0
M  END
