
     RDKit          3D

 23 24  0  0  0  0  0  0  0  0999 V2000
   -2.0870   -4.3830    0.1290 C   0  0  0  0  0  0  0  0  0  0  0  0
   -2.6510   -3.2220    0.2000 C   0  0  0  0  0  0  0  0  0  0  0  0
   -2.0140   -1.9180    0.2890 C   0  0  0  0  0  0  0  0  0  0  0  0
   -2.8130   -0.8680    0.3510 C   0  0  0  0  0  0  0  0  0  0  0  0
   -2.3530    0.5430    0.4460 C   0  0  0  0  0  0  0  0  0  0  0  0
   -3.3100    1.3450    1.3170 C   0  0  0  0  0  0  0  0  0  0  0  0
   -3.1510    2.7970    0.9190 C   0  0  0  0  0  0  0  0  0  0  0  0
   -1.7130    3.2550    0.9750 C   0  0  0  0  0  0  0  0  0  0  0  0
   -1.0720    3.1310   -0.2630 O   0  0  0  0  0  0  0  0  0  0  0  0
    0.2920    2.8730   -0.0960 C   0  0  0  0  0  0  0  0  0  0  0  0
    0.8170    1.9260   -1.1410 C   0  0  0  0  0  0  0  0  0  0  0  0
    1.6470    0.8860   -0.4780 C   0  0  0  0  0  0  0  0  0  0  0  0
    2.8620    1.3280    0.0330 C   0  0  0  0  0  0  0  0  0  0  0  0
    3.7540    0.5030    0.6790 C   0  0  0  0  0  0  0  0  0  0  0  0
    5.0550    1.0070    1.2180 C   0  0  0  0  0  0  0  0  0  0  0  0
    5.2130    2.3500    0.9690 O   0  0  0  0  0  0  0  0  0  0  0  0
    3.4130   -0.8190    0.8170 C   0  0  0  0  0  0  0  0  0  0  0  0
    2.2120   -1.2880    0.3200 C   0  0  0  0  0  0  0  0  0  0  0  0
    1.3240   -0.4250   -0.3340 C   0  0  0  0  0  0  0  0  0  0  0  0
    0.0730   -1.0730   -0.8160 C   0  0  1  0  0  0  0  0  0  0  0  0
    0.5300   -1.9990   -1.9530 C   0  0  0  0  0  0  0  0  0  0  0  0
   -0.6190   -2.7480   -2.5700 C   0  0  0  0  0  0  0  0  0  0  0  0
   -0.5470   -1.8500    0.3020 C   0  0  0  0  0  0  0  0  0  0  0  0
  1  2  2  0
  2  3  1  0
  3  4  2  0
  3 23  1  0
  4  5  1  0
  5  6  1  0
  6  7  1  0
  7  8  1  0
  8  9  1  0
  9 10  1  0
 10 11  1  0
 11 12  1  0
 12 13  2  0
 12 19  1  0
 13 14  1  0
 14 15  1  0
 14 17  2  0
 15 16  1  0
 17 18  1  0
 18 19  2  0
 19 20  1  0
 20 21  1  6
 20 23  1  0
 21 22  1  0
M  END
