
     RDKit          3D

 23 24  0  0  0  0  0  0  0  0999 V2000
   -3.5200   -2.4380   -0.9860 C   0  0  0  0  0  0  0  0  0  0  0  0
   -4.0390   -1.0550   -0.8040 C   0  0  0  0  0  0  0  0  0  0  0  0
   -5.3040   -0.8380   -0.9790 C   0  0  0  0  0  0  0  0  0  0  0  0
   -5.8950    0.4840   -0.8210 C   0  0  0  0  0  0  0  0  0  0  0  0
   -4.9440    1.5220   -0.4510 C   0  0  0  0  0  0  0  0  0  0  0  0
   -3.6310    1.3260   -0.2640 C   0  0  0  0  0  0  0  0  0  0  0  0
   -2.7890    2.5030    0.1160 C   0  0  0  0  0  0  0  0  0  0  0  0
   -3.0740    0.0190   -0.4250 C   0  0  0  0  0  0  0  0  0  0  0  0
   -1.8250   -0.3050   -0.2690 C   0  0  0  0  0  0  0  0  0  0  0  0
   -0.6490    0.4450    0.0820 C   0  0  0  0  0  0  0  0  0  0  0  0
    0.5220   -0.2330    0.1590 C   0  0  0  0  0  0  0  0  0  0  0  0
    0.3820   -1.5740   -0.1220 O   0  0  0  0  0  0  0  0  0  0  0  0
    1.7380    0.4410    0.5020 C   0  0  0  0  0  0  0  0  0  0  0  0
    1.7630    1.7860    0.7910 C   0  0  0  0  0  0  0  0  0  0  0  0
    2.9440    2.4480    1.1150 C   0  0  0  0  0  0  0  0  0  0  0  0
    4.1440    1.7970    1.1640 C   0  0  0  0  0  0  0  0  0  0  0  0
    5.3800    2.4760    1.5000 C   0  0  0  0  0  0  0  0  0  0  0  0
    5.3900    3.6990    1.7660 O   0  0  0  0  0  0  0  0  0  0  0  0
    4.1210    0.4520    0.8760 C   0  0  0  0  0  0  0  0  0  0  0  0
    2.9650   -0.2270    0.5520 C   0  0  0  0  0  0  0  0  0  0  0  0
    3.0580   -1.6510    0.2560 C   0  0  2  0  0  0  0  0  0  0  0  0
    4.4580   -2.1450    0.6160 C   0  0  0  0  0  0  0  0  0  0  0  0
    2.9650   -1.8870   -1.2570 C   0  0  0  0  0  0  0  0  0  0  0  0
  1  2  1  0
  2  3  2  0
  2  8  1  0
  3  4  1  0
  4  5  1  0
  5  6  2  0
  6  7  1  0
  6  8  1  0
  8  9  2  3
  9 10  1  0
 10 11  2  3
 11 12  1  0
 11 13  1  0
 13 14  2  0
 13 20  1  0
 14 15  1  0
 15 16  2  0
 16 17  1  0
 16 19  1  0
 17 18  2  0
 19 20  2  0
 20 21  1  0
 21 22  1  6
 21 23  1  0
M  END
