
     RDKit          3D

 23 24  0  0  0  0  0  0  0  0999 V2000
    7.1450    0.3900   -2.6920 C   0  0  0  0  0  0  0  0  0  0  0  0
    5.8830    0.8340   -1.8870 C   0  0  0  0  0  0  0  0  0  0  0  0
    4.8630    1.2040   -1.2190 C   0  0  0  0  0  0  0  0  0  0  0  0
    3.7610    1.6210   -0.4950 C   0  0  0  0  0  0  0  0  0  0  0  0
    3.7410    2.4040    0.6790 C   0  0  0  0  0  0  0  0  0  0  0  0
    2.7540    2.8190    1.3910 C   0  0  0  0  0  0  0  0  0  0  0  0
    1.4370    2.3560    0.8870 C   0  0  0  0  0  0  0  0  0  0  0  0
    1.4080    1.5560   -0.2750 C   0  0  0  0  0  0  0  0  0  0  0  0
   -0.0250    0.8220   -0.5050 C   0  0  0  0  0  0  0  0  0  0  0  0
   -0.5010    0.6490    0.7680 C   0  0  0  0  0  0  0  0  0  0  0  0
   -1.7410    0.1080    1.2750 C   0  0  0  0  0  0  0  0  0  0  0  0
   -1.8490    0.7970    2.6830 C   0  0  0  0  0  0  0  0  0  0  0  0
   -2.9480    0.3980    3.3370 C   0  0  0  0  0  0  0  0  0  0  0  0
   -3.1660    1.1190    4.6490 O   0  0  0  0  0  0  0  0  0  0  0  0
   -3.8220   -0.4010    3.0310 C   0  0  0  0  0  0  0  0  0  0  0  0
   -3.8100   -1.1120    1.7030 C   0  0  0  0  0  0  0  0  0  0  0  0
   -2.5940   -0.6850    0.9290 C   0  0  0  0  0  0  0  0  0  0  0  0
   -2.5070   -1.5960   -0.2410 C   0  0  0  0  0  0  0  0  0  0  0  0
   -3.7480   -2.0510   -0.6830 C   0  0  0  0  0  0  0  0  0  0  0  0
   -3.8840   -2.9740   -1.7290 C   0  0  0  0  0  0  0  0  0  0  0  0
   -1.5120   -2.0940   -1.0390 O   0  0  0  0  0  0  0  0  0  0  0  0
   -0.9780   -2.0000   -2.2410 C   0  0  0  0  0  0  0  0  0  0  0  0
    2.4420    1.2080   -0.9440 C   0  0  0  0  0  0  0  0  0  0  0  0
  1  2  1  0
  2  3  3  0
  3  4  1  0
  4  5  2  0
  4 23  1  0
  5  6  1  0
  6  7  2  0
  7  8  1  0
  8  9  1  0
  8 23  2  0
  9 10  2  3
 10 11  1  0
 11 12  2  0
 11 17  1  0
 12 13  1  0
 13 14  1  0
 13 15  2  0
 15 16  1  0
 16 17  2  0
 17 18  1  0
 18 19  2  3
 18 21  1  0
 19 20  1  0
 21 22  1  0
M  END
