
     RDKit          3D

 23 24  0  0  0  0  0  0  0  0999 V2000
   -2.9910    1.9710   -3.6790 C   0  0  0  0  0  0  0  0  0  0  0  0
   -3.3080    1.0760   -2.5130 C   0  0  0  0  0  0  0  0  0  0  0  0
   -2.4540    0.9320   -1.5210 C   0  0  0  0  0  0  0  0  0  0  0  0
   -2.7090    0.0800   -0.3700 C   0  0  0  0  0  0  0  0  0  0  0  0
   -3.8960   -0.6410   -0.2540 C   0  0  0  0  0  0  0  0  0  0  0  0
   -4.1600   -1.4510    0.8280 C   0  0  0  0  0  0  0  0  0  0  0  0
   -5.4380   -2.2020    0.9160 C   0  0  0  0  0  0  0  0  0  0  0  0
   -3.2450   -1.5560    1.8140 C   0  0  0  0  0  0  0  0  0  0  0  0
   -3.4290   -2.4060    3.0330 C   0  0  0  0  0  0  0  0  0  0  0  0
   -2.0680   -0.8440    1.7040 C   0  0  0  0  0  0  0  0  0  0  0  0
   -1.7440   -0.0180    0.6490 C   0  0  0  0  0  0  0  0  0  0  0  0
   -0.5000    0.7010    0.5770 C   0  0  0  0  0  0  0  0  0  0  0  0
    0.4080    0.6340    1.5100 C   0  0  0  0  0  0  0  0  0  0  0  0
    1.7000    1.4040    1.3960 C   0  0  0  0  0  0  0  0  0  0  0  0
    2.8370    0.4650    1.4090 C   0  0  0  0  0  0  0  0  0  0  0  0
    3.7070    0.2700    0.4410 C   0  0  0  0  0  0  0  0  0  0  0  0
    4.8070   -0.6910    0.5600 C   0  0  0  0  0  0  0  0  0  0  0  0
    4.8380   -1.4690    1.5220 O   0  0  0  0  0  0  0  0  0  0  0  0
    5.8900   -0.7500   -0.4550 C   0  0  0  0  0  0  0  0  0  0  0  0
    6.1340    0.6020   -1.0840 C   0  0  0  0  0  0  0  0  0  0  0  0
    4.9190    1.3350   -1.5090 C   0  0  0  0  0  0  0  0  0  0  0  0
    3.6660    0.9700   -0.8500 C   0  0  0  0  0  0  0  0  0  0  0  0
    2.5230    1.2340   -1.3510 O   0  0  0  0  0  0  0  0  0  0  0  0
  1  2  1  0
  2  3  2  3
  3  4  1  0
  4  5  2  0
  4 11  1  0
  5  6  1  0
  6  7  1  0
  6  8  2  0
  8  9  1  0
  8 10  1  0
 10 11  2  0
 11 12  1  0
 12 13  2  3
 13 14  1  0
 14 15  1  0
 15 16  2  3
 16 17  1  0
 16 22  1  0
 17 18  2  0
 17 19  1  0
 19 20  1  0
 20 21  1  0
 21 22  1  0
 22 23  2  0
M  END
