
     RDKit          3D

 23 24  0  0  0  0  0  0  0  0999 V2000
   -0.1800   -2.7020   -2.4880 C   0  0  0  0  0  0  0  0  0  0  0  0
    0.3180   -1.6330   -1.5970 C   0  0  0  0  0  0  0  0  0  0  0  0
    1.6560   -1.4750   -1.6590 C   0  0  0  0  0  0  0  0  0  0  0  0
    2.3610   -0.4860   -0.8710 C   0  0  0  0  0  0  0  0  0  0  0  0
    3.6880   -0.4080   -1.0060 C   0  0  0  0  0  0  0  0  0  0  0  0
    4.5600    0.5060   -0.3120 C   0  0  0  0  0  0  0  0  0  0  0  0
    4.0420    1.4880    0.6540 C   0  0  0  0  0  0  0  0  0  0  0  0
    5.8730    0.5060   -0.5140 C   0  0  0  0  0  0  0  0  0  0  0  0
    6.7880    1.4010    0.1570 C   0  0  0  0  0  0  0  0  0  0  0  0
    6.4720    2.2700    0.9930 O   0  0  0  0  0  0  0  0  0  0  0  0
    8.1710    1.3280   -0.1220 O   0  0  0  0  0  0  0  0  0  0  0  0
   -0.4070   -0.7870   -0.7090 C   0  0  0  0  0  0  0  0  0  0  0  0
   -1.7090   -0.8240   -0.5370 C   0  0  0  0  0  0  0  0  0  0  0  0
   -2.6040   -1.7340   -1.2270 C   0  0  0  0  0  0  0  0  0  0  0  0
   -4.0010   -1.7740   -0.6230 C   0  0  0  0  0  0  0  0  0  0  0  0
   -4.0550   -1.5890    0.8530 C   0  0  0  0  0  0  0  0  0  0  0  0
   -3.4880   -0.2400    1.1300 C   0  0  0  0  0  0  0  0  0  0  0  0
   -4.0920    0.5890    2.0320 C   0  0  0  0  0  0  0  0  0  0  0  0
   -3.5400    1.8490    2.2650 C   0  0  0  0  0  0  0  0  0  0  0  0
   -4.1960    2.7550    3.2480 C   0  0  0  0  0  0  0  0  0  0  0  0
   -2.4150    2.1860    1.5710 C   0  0  0  0  0  0  0  0  0  0  0  0
   -1.7890    1.3410    0.6430 C   0  0  0  0  0  0  0  0  0  0  0  0
   -2.3430    0.1170    0.4300 C   0  0  0  0  0  0  0  0  0  0  0  0
  1  2  1  0
  2  3  2  3
  2 12  1  0
  3  4  1  0
  4  5  2  3
  5  6  1  0
  6  7  1  0
  6  8  2  3
  8  9  1  0
  9 10  2  0
  9 11  1  0
 12 13  2  3
 13 14  1  0
 13 23  1  0
 14 15  1  0
 15 16  1  0
 16 17  1  0
 17 18  2  0
 17 23  1  0
 18 19  1  0
 19 20  1  0
 19 21  2  0
 21 22  1  0
 22 23  2  0
M  END
