
     RDKit          3D

 11 11  0  0  0  0  0  0  0  0999 V2000
   -3.7590    0.7600    0.0100 O   0  0  0  0  0  0  0  0  0  0  0  0
   -3.5800   -0.5380   -0.4560 C   0  0  0  0  0  0  0  0  0  0  0  0
   -2.8540   -1.3460    0.6040 C   0  0  0  0  0  0  0  0  0  0  0  0
   -1.5030   -0.7390    0.9090 C   0  0  0  0  0  0  0  0  0  0  0  0
   -0.6790   -0.6910   -0.2110 O   0  0  0  0  0  0  0  0  0  0  0  0
    0.5170   -0.1340    0.1400 C   0  0  2  0  0  0  0  0  0  0  0  0
    0.8350    1.1120   -0.6990 C   0  0  0  0  0  0  0  0  0  0  0  0
    1.8390    1.8920    0.1450 C   0  0  0  0  0  0  0  0  0  0  0  0
    3.0420    1.0230    0.3220 C   0  0  0  0  0  0  0  0  0  0  0  0
    2.9490   -0.3020   -0.3750 C   0  0  0  0  0  0  0  0  0  0  0  0
    1.6960   -1.0620   -0.0700 C   0  0  0  0  0  0  0  0  0  0  0  0
  1  2  1  0
  2  3  1  0
  3  4  1  0
  4  5  1  0
  6  5  1  6
  6  7  1  0
  6 11  1  0
  7  8  1  0
  8  9  1  0
  9 10  1  0
 10 11  1  0
M  END
