
     RDKit          3D

 11 10  0  0  0  0  0  0  0  0999 V2000
   -4.4670   -0.0750    0.6100 C   0  0  0  0  0  0  0  0  0  0  0  0
   -3.1620   -0.7590    0.4150 C   0  0  0  0  0  0  0  0  0  0  0  0
   -2.1890   -0.2010   -0.2680 C   0  0  0  0  0  0  0  0  0  0  0  0
   -2.3870    1.1360   -0.8600 C   0  0  0  0  0  0  0  0  0  0  0  0
   -0.9000   -0.8950   -0.4510 C   0  0  0  0  0  0  0  0  0  0  0  0
    0.1050   -0.0830    0.1140 O   0  0  0  0  0  0  0  0  0  0  0  0
    1.4390   -0.3990    0.1350 C   0  0  0  0  0  0  0  0  0  0  0  0
    1.8300   -1.4680   -0.3700 O   0  0  0  0  0  0  0  0  0  0  0  0
    2.3520    0.5820    0.7760 C   0  0  0  0  0  0  0  0  0  0  0  0
    3.7930    0.1220    0.7370 C   0  0  0  0  0  0  0  0  0  0  0  0
    4.2840   -0.0750   -0.6720 C   0  0  0  0  0  0  0  0  0  0  0  0
  1  2  1  0
  2  3  2  3
  3  4  1  0
  3  5  1  0
  5  6  1  0
  6  7  1  0
  7  8  2  0
  7  9  1  0
  9 10  1  0
 10 11  1  0
M  END
