
     RDKit          3D

 11 11  0  0  0  0  0  0  0  0999 V2000
    3.6350    1.6070   -0.0140 C   0  0  0  0  0  0  0  0  0  0  0  0
    2.1600    1.5180   -0.1570 C   0  0  0  0  0  0  0  0  0  0  0  0
    1.4920    0.3970   -0.1640 C   0  0  0  0  0  0  0  0  0  0  0  0
    2.1980   -0.8880   -0.0260 C   0  0  0  0  0  0  0  0  0  0  0  0
    0.1250    0.4180   -0.3020 O   0  0  0  0  0  0  0  0  0  0  0  0
   -0.6390   -0.5300    0.3850 C   0  0  0  0  0  0  0  0  0  0  0  0
   -2.0920   -0.3940    0.1480 C   0  0  0  0  0  0  0  0  0  0  0  0
   -3.0360   -1.2100    0.7130 C   0  0  0  0  0  0  0  0  0  0  0  0
   -4.2590   -0.7680    0.2530 C   0  0  0  0  0  0  0  0  0  0  0  0
   -4.0030    0.3030   -0.5770 C   0  0  0  0  0  0  0  0  0  0  0  0
   -2.6950    0.4800   -0.6010 O   0  0  0  0  0  0  0  0  0  0  0  0
  1  2  1  0
  2  3  2  3
  3  4  1  0
  3  5  1  0
  5  6  1  0
  6  7  1  0
  7  8  2  0
  7 11  1  0
  8  9  1  0
  9 10  2  0
 10 11  1  0
M  END
