
     RDKit          3D

 11 11  0  0  0  0  0  0  0  0999 V2000
    3.5670    0.9920    0.5330 C   0  0  0  0  0  0  0  0  0  0  0  0
    2.4060    0.8170   -0.0860 C   0  0  0  0  0  0  0  0  0  0  0  0
    1.9330   -0.5440   -0.4250 C   0  0  0  0  0  0  0  0  0  0  0  0
    0.7390   -0.9400    0.1190 O   0  0  0  0  0  0  0  0  0  0  0  0
   -0.5350   -0.4780   -0.0070 C   0  0  0  0  0  0  0  0  0  0  0  0
   -0.8760    0.5760   -0.8180 C   0  0  0  0  0  0  0  0  0  0  0  0
   -2.1960    1.0340   -0.9280 C   0  0  0  0  0  0  0  0  0  0  0  0
   -3.2060    0.4320   -0.2160 C   0  0  0  0  0  0  0  0  0  0  0  0
   -2.8620   -0.6260    0.5970 C   0  0  0  0  0  0  0  0  0  0  0  0
   -1.5740   -1.0790    0.7100 C   0  0  0  0  0  0  0  0  0  0  0  0
   -1.2430   -2.1380    1.5260 O   0  0  0  0  0  0  0  0  0  0  0  0
  1  2  2  0
  2  3  1  0
  3  4  1  0
  4  5  1  0
  5  6  2  0
  5 10  1  0
  6  7  1  0
  7  8  2  0
  8  9  1  0
  9 10  2  0
 10 11  1  0
M  END
