
     RDKit          3D

 11 11  0  0  0  0  0  0  0  0999 V2000
   -2.6510    0.7040   -1.0210 C   0  0  0  0  0  0  0  0  0  0  0  0
   -2.5470   -0.5220   -0.2070 C   0  0  0  0  0  0  0  0  0  0  0  0
   -1.1790   -0.8560    0.2910 C   0  0  1  0  0  0  0  0  0  0  0  0
   -0.1790   -1.0670   -0.8270 C   0  0  0  0  0  0  0  0  0  0  0  0
    1.1850   -1.1830   -0.1300 C   0  0  0  0  0  0  0  0  0  0  0  0
    1.6390    0.2470    0.0880 C   0  0  2  0  0  0  0  0  0  0  0  0
    2.7180    0.3290    0.9910 O   0  0  0  0  0  0  0  0  0  0  0  0
    3.9470    0.8080    0.5710 C   0  0  0  0  0  0  0  0  0  0  0  0
    4.1470    1.1840   -0.6160 O   0  0  0  0  0  0  0  0  0  0  0  0
    0.4520    1.0270    0.5960 C   0  0  0  0  0  0  0  0  0  0  0  0
   -0.5990    0.1560    1.2310 C   0  0  0  0  0  0  0  0  0  0  0  0
  1  2  1  0
  3  2  1  6
  3  4  1  0
  3 11  1  0
  4  5  1  0
  5  6  1  0
  6  7  1  1
  6 10  1  0
  7  8  1  0
  8  9  2  0
 10 11  1  0
M  END
