
     RDKit          3D

 11 11  0  0  0  0  0  0  0  0999 V2000
    4.1970    0.1990    0.5440 C   0  0  0  0  0  0  0  0  0  0  0  0
    2.9510   -0.0390   -0.2370 C   0  0  0  0  0  0  0  0  0  0  0  0
    1.7930    0.0430    0.5150 O   0  0  0  0  0  0  0  0  0  0  0  0
    0.7220   -0.1980   -0.3330 C   0  0  1  0  0  0  0  0  0  0  0  0
   -0.1220   -1.3610    0.0880 C   0  0  0  0  0  0  0  0  0  0  0  0
   -1.5150   -1.1350   -0.5130 C   0  0  0  0  0  0  0  0  0  0  0  0
   -2.2230    0.0070    0.1790 C   0  0  1  0  0  0  0  0  0  0  0  0
   -3.1610    0.7400   -0.7650 C   0  0  0  0  0  0  0  0  0  0  0  0
   -2.9500   -0.4730    1.2640 O   0  0  0  0  0  0  0  0  0  0  0  0
   -1.1740    0.9740    0.6900 C   0  0  0  0  0  0  0  0  0  0  0  0
   -0.1080    1.0680   -0.3890 C   0  0  0  0  0  0  0  0  0  0  0  0
  1  2  1  0
  2  3  1  0
  4  3  1  1
  4  5  1  0
  4 11  1  0
  5  6  1  0
  6  7  1  0
  7  8  1  6
  7  9  1  0
  7 10  1  0
 10 11  1  0
M  END
