
     RDKit          3D

 16 17  0  0  0  0  0  0  0  0999 V2000
    2.5230   -0.4430   -1.5050 O   0  0  0  0  0  0  0  0  0  0  0  0
    2.0430    0.1290   -0.4840 C   0  0  0  0  0  0  0  0  0  0  0  0
    2.8790    0.9000    0.2720 O   0  0  0  0  0  0  0  0  0  0  0  0
    4.2140    1.1870    0.1480 C   0  0  0  0  0  0  0  0  0  0  0  0
    5.0810   -0.0200    0.3110 C   0  0  0  0  0  0  0  0  0  0  0  0
    4.7990   -0.9700   -0.6320 O   0  0  0  0  0  0  0  0  0  0  0  0
    0.6700   -0.0250   -0.1330 N   0  0  0  0  0  0  0  0  0  0  0  0
    0.0620    0.6030    1.0200 C   0  0  0  0  0  0  0  0  0  0  0  0
   -1.3270    0.0310    1.0460 C   0  0  1  0  0  0  0  0  0  0  0  0
   -2.6000    1.1870    1.5600 S   0  0  0  0  0  0  0  0  0  0  0  0
   -3.9180    1.1470    0.3390 C   0  0  0  0  0  0  0  0  0  0  0  0
   -4.0090   -0.0650   -0.4800 C   0  0  0  0  0  0  0  0  0  0  0  0
   -2.8170   -0.9390   -0.5770 C   0  0  2  0  0  0  0  0  0  0  0  0
   -2.9100   -1.9010    0.4560 O   0  0  0  0  0  0  0  0  0  0  0  0
   -1.5740   -0.1580   -0.4610 C   0  0  2  0  0  0  0  0  0  0  0  0
   -0.3080   -0.8170   -0.8620 C   0  0  0  0  0  0  0  0  0  0  0  0
  1  2  2  0
  2  3  1  0
  2  7  1  0
  3  4  1  0
  4  5  1  0
  5  6  1  0
  7  8  1  0
  7 16  1  0
  9  8  1  6
  9 10  1  0
  9 15  1  0
 10 11  1  0
 11 12  1  0
 12 13  1  0
 13 14  1  1
 13 15  1  0
 15 16  1  1
M  END
