
     RDKit          3D

 12 11  0  0  0  0  0  0  0  0999 V2000
   -3.1930    1.6410   -1.1300 N   0  0  0  0  0  0  0  0  0  0  0  0
   -2.1010    1.9470   -0.3760 O   0  0  0  0  0  0  0  0  0  0  0  0
   -1.2890    0.7860    0.0230 C   0  0  0  0  0  0  0  0  0  0  0  0
   -0.0680    0.9340   -0.2870 C   0  0  0  0  0  0  0  0  0  0  0  0
    1.0770    0.0890   -0.1060 C   0  0  0  0  0  0  0  0  0  0  0  0
    1.1300   -1.1900    0.4980 N   0  0  0  0  0  0  0  0  0  0  0  0
    2.2850    0.5250   -0.5520 C   0  0  0  0  0  0  0  0  0  0  0  0
    3.4290   -0.2630   -0.3980 N   0  0  0  0  0  0  0  0  0  0  0  0
    4.6730    0.2400   -0.2440 O   0  0  0  0  0  0  0  0  0  0  0  0
   -2.0710   -0.2240    0.6630 C   0  0  0  0  0  0  0  0  0  0  0  0
   -1.6610   -1.4670    1.1820 N   0  0  0  0  0  0  0  0  0  0  0  0
   -3.3600   -0.0220    0.8180 O   0  0  0  0  0  0  0  0  0  0  0  0
  1  2  1  0
  2  3  1  0
  3  4  2  3
  3 10  1  0
  4  5  1  0
  5  6  1  0
  5  7  2  3
  7  8  1  0
  8  9  1  0
 10 11  1  0
 10 12  2  0
M  CHG  1  11   1
M  END
