
     RDKit          3D

 11 10  0  0  0  0  0  0  0  0999 V2000
    0.7180   -2.1790   -0.9750 C   0  0  0  0  0  0  0  0  0  0  0  0
    0.9400   -0.8550   -0.8290 C   0  0  0  0  0  0  0  0  0  0  0  0
    2.0140   -0.2170   -1.5610 C   0  0  0  0  0  0  0  0  0  0  0  0
    2.3320    0.9610   -1.5320 N   0  0  0  0  0  0  0  0  0  0  0  0
    1.9790    2.1170   -0.9510 N   0  0  0  0  0  0  0  0  0  0  0  0
    0.0400   -0.1730    0.0870 C   0  0  0  0  0  0  0  0  0  0  0  0
   -0.8740   -0.8840    0.6690 N   0  0  0  0  0  0  0  0  0  0  0  0
   -1.8360   -0.3730    1.5940 C   0  0  2  0  0  0  0  0  0  0  0  0
   -2.1770    1.0040    1.2800 N   0  0  0  0  0  0  0  0  0  0  0  0
   -1.2540   -0.4600    2.8750 O   0  0  0  0  0  0  0  0  0  0  0  0
   -3.0360   -1.0920    1.5610 O   0  0  0  0  0  0  0  0  0  0  0  0
  1  2  2  0
  2  3  1  0
  2  6  1  0
  3  4  2  3
  4  5  1  0
  6  7  2  3
  7  8  1  0
  8  9  1  6
  8 10  1  0
  8 11  1  0
M  CHG  1   5   1
M  END
