
     RDKit          3D

 16 16  0  0  0  0  0  0  0  0999 V2000
   -0.3980    3.8280   -0.3510 C   0  0  0  0  0  0  0  0  0  0  0  0
   -0.2830    2.5120   -0.3270 C   0  0  0  0  0  0  0  0  0  0  0  0
    0.6310    1.9210    0.7070 C   0  0  0  0  0  0  0  0  0  0  0  0
    0.8200    0.5770    0.5510 O   0  0  0  0  0  0  0  0  0  0  0  0
    2.0290    0.1990    0.0410 C   0  0  1  0  0  0  0  0  0  0  0  0
    3.1440    0.9090    0.6400 N   0  0  0  0  0  0  0  0  0  0  0  0
    2.1900   -1.3050    0.3000 C   0  0  2  0  0  0  0  0  0  0  0  0
    2.6540   -1.9620   -0.8370 O   0  0  0  0  0  0  0  0  0  0  0  0
    0.9050   -1.9370    0.7300 C   0  0  0  0  0  0  0  0  0  0  0  0
    0.3500   -2.7740   -0.2320 O   0  0  0  0  0  0  0  0  0  0  0  0
   -1.0490   -2.8780   -0.0610 C   0  0  0  0  0  0  0  0  0  0  0  0
   -1.7530   -1.7400   -0.7750 C   0  0  0  0  0  0  0  0  0  0  0  0
   -2.8440   -1.2660   -0.0950 O   0  0  0  0  0  0  0  0  0  0  0  0
   -2.7380    0.0760    0.2680 C   0  0  0  0  0  0  0  0  0  0  0  0
   -2.7930    1.0140   -0.8910 C   0  0  0  0  0  0  0  0  0  0  0  0
   -1.1890    1.5460   -1.4860 S   0  0  0  0  0  0  0  0  0  0  0  0
  1  2  2  0
  2  3  1  0
  2 16  1  0
  3  4  1  0
  4  5  1  0
  5  6  1  1
  5  7  1  0
  7  8  1  6
  7  9  1  0
  9 10  1  0
 10 11  1  0
 11 12  1  0
 12 13  1  0
 13 14  1  0
 14 15  1  0
 15 16  1  0
M  END
