
     RDKit          3D

 12 12  0  0  0  0  0  0  0  0999 V2000
   -1.7740   -1.4910    1.5090 N   0  0  0  0  0  0  0  0  0  0  0  0
   -0.8440   -0.7060    0.7720 C   0  0  0  0  0  0  0  0  0  0  0  0
   -1.2730    0.3790    0.1400 C   0  0  0  0  0  0  0  0  0  0  0  0
   -2.7330    0.7080    0.2480 C   0  0  0  0  0  0  0  0  0  0  0  0
   -2.8920    1.9500    0.8260 O   0  0  0  0  0  0  0  0  0  0  0  0
   -0.3580    1.2030   -0.6210 C   0  0  0  0  0  0  0  0  0  0  0  0
    0.8780    0.9120   -0.7040 N   0  0  0  0  0  0  0  0  0  0  0  0
    1.4510   -0.2230   -0.0700 C   0  0  2  0  0  0  0  0  0  0  0  0
    2.4660    0.1680    0.8190 O   0  0  0  0  0  0  0  0  0  0  0  0
    2.0490   -0.9890   -1.1050 O   0  0  0  0  0  0  0  0  0  0  0  0
    2.9760   -0.2030   -1.6830 N   0  0  0  0  0  0  0  0  0  0  0  0
    0.5320   -1.0350    0.6830 N   0  0  0  0  0  0  0  0  0  0  0  0
  1  2  1  0
  2  3  2  0
  2 12  1  0
  3  4  1  0
  3  6  1  0
  4  5  1  0
  6  7  2  0
  7  8  1  0
  8  9  1  1
  8 10  1  0
  8 12  1  0
 10 11  1  0
M  CHG  1  11   1
M  END
