
     RDKit          3D

 12 11  0  0  0  0  0  0  0  0999 V2000
   -0.7280   -1.5260   -0.7500 N   0  0  0  0  0  0  0  0  0  0  0  0
   -0.7450   -0.1200   -0.9090 C   0  0  0  0  0  0  0  0  0  0  0  0
   -1.4800    0.4040   -1.8550 C   0  0  0  0  0  0  0  0  0  0  0  0
   -2.2650   -0.3970   -2.7320 N   0  0  0  0  0  0  0  0  0  0  0  0
   -2.1410   -0.3160   -4.1170 N   0  0  0  0  0  0  0  0  0  0  0  0
   -2.6120    0.6940   -4.7110 O   0  0  0  0  0  0  0  0  0  0  0  0
    0.0440    0.7040   -0.0280 C   0  0  0  0  0  0  0  0  0  0  0  0
    0.8020    0.1990    0.9440 C   0  0  0  0  0  0  0  0  0  0  0  0
    0.8470   -1.1640    1.1320 O   0  0  0  0  0  0  0  0  0  0  0  0
    1.5760    1.0600    1.8010 C   0  0  0  0  0  0  0  0  0  0  0  0
    2.3880    0.5360    2.8410 N   0  0  0  0  0  0  0  0  0  0  0  0
    1.5380    2.3040    1.6340 O   0  0  0  0  0  0  0  0  0  0  0  0
  1  2  1  0
  2  3  2  3
  2  7  1  0
  3  4  1  0
  4  5  1  0
  5  6  2  0
  7  8  2  3
  8  9  1  0
  8 10  1  0
 10 11  1  0
 10 12  2  0
M  CHG  1  11   1
M  END
