
     RDKit          3D

 12 11  0  0  0  0  0  0  0  0999 V2000
   -4.0980    0.5770   -0.4610 N   0  0  0  0  0  0  0  0  0  0  0  0
   -2.9240   -0.1930   -0.4880 C   0  0  0  0  0  0  0  0  0  0  0  0
   -2.9870   -1.5250   -0.7930 O   0  0  0  0  0  0  0  0  0  0  0  0
   -1.7840    0.3680   -0.2210 C   0  0  0  0  0  0  0  0  0  0  0  0
   -1.7090    1.7450    0.0960 N   0  0  0  0  0  0  0  0  0  0  0  0
   -0.5710   -0.4520   -0.2540 C   0  0  0  0  0  0  0  0  0  0  0  0
    0.5710    0.1040    0.0120 N   0  0  0  0  0  0  0  0  0  0  0  0
    1.7960   -0.6660   -0.0080 C   0  0  2  0  0  0  0  0  0  0  0  0
    1.9260   -1.2920    1.2120 O   0  0  0  0  0  0  0  0  0  0  0  0
    2.9210    0.2370   -0.2750 C   0  0  0  0  0  0  0  0  0  0  0  0
    3.9530    0.3570    0.6940 N   0  0  0  0  0  0  0  0  0  0  0  0
    2.9420    0.8640   -1.3240 O   0  0  0  0  0  0  0  0  0  0  0  0
  1  2  1  0
  2  3  1  0
  2  4  2  3
  4  5  1  0
  4  6  1  0
  6  7  2  3
  7  8  1  0
  8  9  1  1
  8 10  1  0
 10 11  1  0
 10 12  2  0
M  CHG  1  11   1
M  END
