
     RDKit          3D

 24 24  0  0  0  0  0  0  0  0999 V2000
   -3.0600   -4.0760   -0.0220 C   0  0  0  0  0  0  0  0  0  0  0  0
   -3.1030   -2.9750    0.6620 C   0  0  0  0  0  0  0  0  0  0  0  0
   -2.8970   -1.6660    0.0230 C   0  0  0  0  0  0  0  0  0  0  0  0
   -3.0050   -0.5150    0.6610 C   0  0  0  0  0  0  0  0  0  0  0  0
   -2.8120    0.6850    0.1040 C   0  0  0  0  0  0  0  0  0  0  0  0
   -1.7060    0.6440   -1.1340 C   0  0  0  0  0  0  0  0  0  0  0  0
   -0.8930    0.6220   -2.0150 C   0  0  0  0  0  0  0  0  0  0  0  0
    0.0550    0.5820   -3.0190 C   0  0  0  0  0  0  0  0  0  0  0  0
    1.3260    1.3220   -2.6290 C   0  0  0  0  0  0  0  0  0  0  0  0
    1.9510    0.6120   -1.4470 C   0  0  0  0  0  0  0  0  0  0  0  0
    3.2240    1.2370   -1.0090 C   0  0  0  0  0  0  0  0  0  0  0  0
    3.8750    0.4660    0.1390 C   0  0  0  0  0  0  0  0  0  0  0  0
    4.3300   -0.8920   -0.4010 C   0  0  0  0  0  0  0  0  0  0  0  0
    5.1460   -1.6570    0.5920 C   0  0  0  0  0  0  0  0  0  0  0  0
    6.3940   -0.8670    0.9360 C   0  0  0  0  0  0  0  0  0  0  0  0
   -2.8270    1.9520    0.2110 C   0  0  0  0  0  0  0  0  0  0  0  0
   -3.0870    2.9560    1.1670 C   0  0  0  0  0  0  0  0  0  0  0  0
   -3.4720    2.9280    2.3560 O   0  0  0  0  0  0  0  0  0  0  0  0
   -2.8450    4.4370    0.7230 C   0  0  0  0  0  0  0  0  0  0  0  0
   -1.9400    4.3840   -0.5250 C   0  0  0  0  0  0  0  0  0  0  0  0
   -3.3480   -0.6180    2.1130 C   0  0  0  0  0  0  0  0  0  0  0  0
   -3.5290   -1.7560    2.7220 C   0  0  0  0  0  0  0  0  0  0  0  0
   -3.4250   -3.0260    2.0600 N   0  0  0  0  0  0  0  0  0  0  0  0
   -3.6470   -4.2620    2.7570 C   0  0  0  0  0  0  0  0  0  0  0  0
  1  2  2  0
  2  3  1  0
  2 23  1  0
  3  4  2  0
  4  5  1  0
  4 21  1  0
  5  6  1  0
  5 16  2  3
  6  7  3  0
  7  8  1  0
  8  9  1  0
  9 10  1  0
 10 11  1  0
 11 12  1  0
 12 13  1  0
 13 14  1  0
 14 15  1  0
 16 17  1  0
 17 18  2  0
 17 19  1  0
 19 20  1  0
 21 22  2  0
 22 23  1  0
 23 24  1  0
M  END
