
     RDKit          3D

 24 25  0  0  0  0  0  0  0  0999 V2000
   -2.0560   -0.4110   -2.8520 C   0  0  0  0  0  0  0  0  0  0  0  0
   -1.6390   -1.6430   -2.1990 C   0  0  0  0  0  0  0  0  0  0  0  0
   -1.4690   -1.8380   -0.9360 C   0  0  0  0  0  0  0  0  0  0  0  0
   -1.0520   -3.1920   -0.5800 C   0  0  0  0  0  0  0  0  0  0  0  0
   -1.4250   -3.9430    0.4240 C   0  0  0  0  0  0  0  0  0  0  0  0
   -2.3930   -3.7120    1.5500 C   0  0  0  0  0  0  0  0  0  0  0  0
   -3.0120   -2.3300    1.2340 C   0  0  0  0  0  0  0  0  0  0  0  0
   -1.8730   -1.2860    1.3490 C   0  0  0  0  0  0  0  0  0  0  0  0
   -1.6600   -0.6280    0.0360 C   0  0  1  0  0  0  0  0  0  0  0  0
   -0.3520    0.0920   -0.1660 C   0  0  0  0  0  0  0  0  0  0  0  0
    0.7840   -0.5820   -0.3930 N   0  0  0  0  0  0  0  0  0  0  0  0
    1.9070   -0.0440   -0.9410 C   0  0  0  0  0  0  0  0  0  0  0  0
    3.0660   -0.8920   -1.2790 C   0  0  0  0  0  0  0  0  0  0  0  0
    4.2320   -1.0220   -0.4100 C   0  0  0  0  0  0  0  0  0  0  0  0
    4.9620    0.3210   -0.2100 C   0  0  0  0  0  0  0  0  0  0  0  0
    6.2560    0.0020    0.5200 C   0  0  0  0  0  0  0  0  0  0  0  0
    1.9000    1.3010   -1.2880 C   0  0  0  0  0  0  0  0  0  0  0  0
    0.7500    2.0480   -1.0650 C   0  0  0  0  0  0  0  0  0  0  0  0
    0.7810    3.2620   -1.3810 O   0  0  0  0  0  0  0  0  0  0  0  0
   -0.3530    1.4440   -0.5130 C   0  0  0  0  0  0  0  0  0  0  0  0
   -1.5470    2.2840   -0.0890 C   0  0  0  0  0  0  0  0  0  0  0  0
   -1.3970    2.4550    1.4400 C   0  0  0  0  0  0  0  0  0  0  0  0
   -2.5070    3.1900    2.0400 C   0  0  0  0  0  0  0  0  0  0  0  0
   -2.6480    4.6350    1.6030 C   0  0  0  0  0  0  0  0  0  0  0  0
  1  2  1  0
  2  3  2  3
  3  4  1  0
  3  9  1  0
  4  5  2  0
  5  6  1  0
  6  7  1  0
  7  8  1  0
  8  9  1  0
  9 10  1  1
 10 11  1  0
 10 20  2  0
 11 12  1  0
 12 13  1  0
 12 17  2  0
 13 14  1  0
 14 15  1  0
 15 16  1  0
 17 18  1  0
 18 19  2  0
 18 20  1  0
 20 21  1  0
 21 22  1  0
 22 23  1  0
 23 24  1  0
M  END
