
     RDKit          3D

 24 24  0  0  0  0  0  0  0  0999 V2000
   -1.0160    3.3630    2.1780 C   0  0  0  0  0  0  0  0  0  0  0  0
   -1.7900    2.8740    1.2400 C   0  0  0  0  0  0  0  0  0  0  0  0
   -3.2510    3.2820    1.3260 C   0  0  0  0  0  0  0  0  0  0  0  0
   -1.3490    2.0090    0.1360 C   0  0  0  0  0  0  0  0  0  0  0  0
   -2.3300    1.6110   -0.7040 C   0  0  0  0  0  0  0  0  0  0  0  0
   -2.2000    0.7680   -1.8620 C   0  0  0  0  0  0  0  0  0  0  0  0
   -1.9170   -0.5090   -1.9330 C   0  0  0  0  0  0  0  0  0  0  0  0
   -2.8010   -1.4180   -1.7710 C   0  0  0  0  0  0  0  0  0  0  0  0
   -2.5370   -2.5900   -0.9050 C   0  0  0  0  0  0  0  0  0  0  0  0
   -3.1720   -2.4770    0.4310 C   0  0  0  0  0  0  0  0  0  0  0  0
   -4.4340   -2.2450    0.4250 O   0  0  0  0  0  0  0  0  0  0  0  0
   -2.5370   -2.6000    1.6790 N   0  0  0  0  0  0  0  0  0  0  0  0
   -1.3790   -1.9140    2.1490 C   0  0  0  0  0  0  0  0  0  0  0  0
   -1.1860   -0.5430    1.4350 C   0  0  0  0  0  0  0  0  0  0  0  0
    0.0890   -0.6650    0.7080 C   0  0  0  0  0  0  0  0  0  0  0  0
    0.7430    0.6160    0.2030 C   0  0  0  0  0  0  0  0  0  0  0  0
    2.1390    0.3110   -0.1520 C   0  0  0  0  0  0  0  0  0  0  0  0
    2.9730    1.1900   -0.9660 C   0  0  0  0  0  0  0  0  0  0  0  0
    2.6900   -0.8620    0.1670 C   0  0  0  0  0  0  0  0  0  0  0  0
    4.0750   -1.1810   -0.1690 C   0  0  0  0  0  0  0  0  0  0  0  0
    4.2560   -2.4070   -1.0270 C   0  0  0  0  0  0  0  0  0  0  0  0
    3.5140   -2.2180   -2.3200 C   0  0  0  0  0  0  0  0  0  0  0  0
    0.0840    1.7230   -0.0100 C   0  0  0  0  0  0  0  0  0  0  0  0
    0.9390    2.9690   -0.2810 C   0  0  0  0  0  0  0  0  0  0  0  0
  1  2  2  0
  2  3  1  0
  2  4  1  0
  4  5  2  0
  4 23  1  0
  5  6  1  0
  6  7  2  0
  7  8  2  0
  8  9  1  0
  9 10  1  0
 10 11  2  0
 10 12  1  0
 12 13  1  0
 13 14  1  0
 14 15  1  0
 15 16  1  0
 16 17  1  0
 16 23  2  0
 17 18  1  0
 17 19  2  3
 19 20  1  0
 20 21  1  0
 21 22  1  0
 23 24  1  0
M  END
