
     RDKit          3D

 24 24  0  0  0  0  0  0  0  0999 V2000
    4.4180    1.4370   -1.4270 C   0  0  0  0  0  0  0  0  0  0  0  0
    4.0000    0.3690   -0.7590 C   0  0  0  0  0  0  0  0  0  0  0  0
    3.4710    0.4530    0.6070 C   0  0  0  0  0  0  0  0  0  0  0  0
    2.0810   -0.0200    0.7230 N   0  0  0  0  0  0  0  0  0  0  0  0
    0.9850    0.8280    0.5650 C   0  0  0  0  0  0  0  0  0  0  0  0
    1.0040    1.5490   -0.5000 O   0  0  0  0  0  0  0  0  0  0  0  0
   -0.1930    1.0190    1.4410 C   0  0  0  0  0  0  0  0  0  0  0  0
   -1.3600    1.6200    0.7640 C   0  0  0  0  0  0  0  0  0  0  0  0
   -1.3900    2.9360    0.6220 C   0  0  0  0  0  0  0  0  0  0  0  0
   -0.4760    3.9290    1.0250 C   0  0  0  0  0  0  0  0  0  0  0  0
   -0.8250    5.2150    0.6740 C   0  0  0  0  0  0  0  0  0  0  0  0
    0.7430    3.8640    1.8100 C   0  0  0  0  0  0  0  0  0  0  0  0
   -2.5540    0.8940    0.3170 C   0  0  0  0  0  0  0  0  0  0  0  0
   -2.9220   -0.1100   -0.3560 C   0  0  0  0  0  0  0  0  0  0  0  0
   -4.4850   -0.2800   -0.4050 C   0  0  0  0  0  0  0  0  0  0  0  0
   -2.3230   -1.1900   -1.1490 C   0  0  1  0  0  0  0  0  0  0  0  0
   -3.0300   -2.5240   -0.7990 C   0  0  0  0  0  0  0  0  0  0  0  0
   -2.6000   -0.9990   -2.6410 C   0  0  0  0  0  0  0  0  0  0  0  0
   -0.8930   -1.4030   -0.8680 C   0  0  0  0  0  0  0  0  0  0  0  0
   -0.3420   -2.7220   -1.3890 C   0  0  0  0  0  0  0  0  0  0  0  0
    0.6930   -3.1880   -0.3560 C   0  0  0  0  0  0  0  0  0  0  0  0
    1.8660   -2.2490   -0.2840 C   0  0  0  0  0  0  0  0  0  0  0  0
    1.9480   -1.4620    1.0030 C   0  0  1  0  0  0  0  0  0  0  0  0
    3.1310   -1.9870    1.7650 C   0  0  0  0  0  0  0  0  0  0  0  0
  1  2  2  0
  2  3  1  0
  3  4  1  0
  4  5  1  0
  4 23  1  0
  5  6  2  0
  5  7  1  0
  7  8  1  0
  8  9  2  3
  8 13  1  0
  9 10  1  0
 10 11  2  0
 10 12  1  0
 13 14  2  0
 14 15  1  0
 14 16  1  0
 16 17  1  1
 16 18  1  0
 16 19  1  0
 19 20  1  0
 20 21  1  0
 21 22  1  0
 22 23  1  0
 23 24  1  6
M  END
