
     RDKit          3D

 24 25  0  0  0  0  0  0  0  0999 V2000
    7.1860   -0.5350   -1.7530 C   0  0  0  0  0  0  0  0  0  0  0  0
    6.2880   -1.2470   -0.7580 C   0  0  0  0  0  0  0  0  0  0  0  0
    5.9330   -0.3920    0.3810 C   0  0  0  0  0  0  0  0  0  0  0  0
    4.7280   -0.0300    0.7320 C   0  0  0  0  0  0  0  0  0  0  0  0
    3.5120   -0.3980    0.0690 C   0  0  0  0  0  0  0  0  0  0  0  0
    2.2780   -0.0130    0.4760 C   0  0  0  0  0  0  0  0  0  0  0  0
    1.1910   -0.4870   -0.3390 C   0  0  0  0  0  0  0  0  0  0  0  0
   -0.0920   -0.4390   -0.3380 C   0  0  0  0  0  0  0  0  0  0  0  0
   -0.6520   -1.1800   -1.6100 C   0  0  0  0  0  0  0  0  0  0  0  0
   -1.0890   -0.1300    0.6520 C   0  0  0  0  0  0  0  0  0  0  0  0
   -0.7490   -0.1090    2.1050 C   0  0  0  0  0  0  0  0  0  0  0  0
   -2.3790   -0.0380    0.3210 C   0  0  0  0  0  0  0  0  0  0  0  0
   -3.2420    0.2890    1.4810 C   0  0  0  0  0  0  0  0  0  0  0  0
   -4.5390    0.9480    1.2090 C   0  0  0  0  0  0  0  0  0  0  0  0
   -5.1320    0.8900   -0.1210 C   0  0  0  0  0  0  0  0  0  0  0  0
   -5.1210   -0.3760   -0.8840 C   0  0  2  0  0  0  0  0  0  0  0  0
   -5.3550   -1.6180   -0.1220 C   0  0  0  0  0  0  0  0  0  0  0  0
   -3.7970   -0.3820   -1.6130 C   0  0  0  0  0  0  0  0  0  0  0  0
   -3.8370   -0.5760   -3.0870 C   0  0  0  0  0  0  0  0  0  0  0  0
   -2.6880   -0.2330   -1.0230 N   0  0  0  0  0  0  0  0  0  0  0  0
    2.1390    0.8940    1.6310 C   0  0  0  0  0  0  0  0  0  0  0  0
    3.3800    1.7510    1.9130 C   0  0  0  0  0  0  0  0  0  0  0  0
    4.5680    0.8330    1.9220 C   0  0  0  0  0  0  0  0  0  0  0  0
    5.3380    0.8150    2.8610 O   0  0  0  0  0  0  0  0  0  0  0  0
  1  2  1  0
  2  3  1  0
  3  4  2  3
  4  5  1  0
  4 23  1  0
  5  6  2  0
  6  7  1  0
  6 21  1  0
  7  8  2  3
  8  9  1  0
  8 10  1  0
 10 11  1  0
 10 12  2  3
 12 13  1  0
 12 20  1  0
 13 14  1  0
 14 15  1  0
 15 16  1  0
 16 17  1  1
 16 18  1  0
 18 19  1  0
 18 20  2  0
 21 22  1  0
 22 23  1  0
 23 24  2  0
M  END
