
     RDKit          3D

 24 25  0  0  0  0  0  0  0  0999 V2000
    4.8410   -3.2820   -0.3190 C   0  0  0  0  0  0  0  0  0  0  0  0
    3.6120   -2.4090   -0.5120 C   0  0  0  0  0  0  0  0  0  0  0  0
    3.7750   -1.2300    0.4160 C   0  0  0  0  0  0  0  0  0  0  0  0
    2.6500   -0.2650    0.3570 C   0  0  0  0  0  0  0  0  0  0  0  0
    2.8580    0.8880   -0.3550 N   0  0  0  0  0  0  0  0  0  0  0  0
    1.8920    1.7980   -0.4500 C   0  0  0  0  0  0  0  0  0  0  0  0
    0.6640    1.5440    0.1960 C   0  0  0  0  0  0  0  0  0  0  0  0
    0.4360    0.3910    0.9000 C   0  0  0  0  0  0  0  0  0  0  0  0
   -0.9200    0.0980    1.3270 C   0  0  0  0  0  0  0  0  0  0  0  0
   -1.5220   -0.5370   -0.0010 C   0  0  1  0  0  0  0  0  0  0  0  0
   -1.4980    0.3640   -1.0660 O   0  0  0  0  0  0  0  0  0  0  0  0
   -0.7810   -1.7100   -0.4810 C   0  0  0  0  0  0  0  0  0  0  0  0
   -1.5090   -2.1830   -1.7700 C   0  0  0  0  0  0  0  0  0  0  0  0
   -2.9830   -0.8640    0.1590 C   0  0  0  0  0  0  0  0  0  0  0  0
   -3.8440    0.3350    0.4780 C   0  0  0  0  0  0  0  0  0  0  0  0
   -5.3050   -0.1510    0.5860 C   0  0  0  0  0  0  0  0  0  0  0  0
    1.4740   -0.5560    0.9950 C   0  0  0  0  0  0  0  0  0  0  0  0
    1.2450   -1.7300    1.8320 C   0  0  0  0  0  0  0  0  0  0  0  0
   -0.4290    2.4990    0.4050 C   0  0  0  0  0  0  0  0  0  0  0  0
   -0.9730    2.4830    1.7620 C   0  0  0  0  0  0  0  0  0  0  0  0
   -0.7990    3.3820   -0.5220 C   0  0  0  0  0  0  0  0  0  0  0  0
   -0.2290    3.6020   -1.9020 C   0  0  0  0  0  0  0  0  0  0  0  0
    1.2670    3.7190   -1.8680 C   0  0  0  0  0  0  0  0  0  0  0  0
    2.1840    2.9740   -1.2650 C   0  0  0  0  0  0  0  0  0  0  0  0
  1  2  1  0
  2  3  1  0
  3  4  1  0
  4  5  2  0
  4 17  1  0
  5  6  1  0
  6  7  2  0
  6 24  1  0
  7  8  1  0
  7 19  1  0
  8  9  1  0
  8 17  2  0
  9 10  1  0
 10 11  1  6
 10 12  1  0
 10 14  1  0
 12 13  1  0
 14 15  1  0
 15 16  1  0
 17 18  1  0
 19 20  1  0
 19 21  2  0
 21 22  1  0
 22 23  1  0
 23 24  2  0
M  END
