
     RDKit          3D

 24 25  0  0  0  0  0  0  0  0999 V2000
    0.3710   -3.8990   -0.4070 C   0  0  0  0  0  0  0  0  0  0  0  0
    0.0900   -2.3970   -0.2400 C   0  0  0  0  0  0  0  0  0  0  0  0
   -1.1210   -1.9300   -0.0950 C   0  0  0  0  0  0  0  0  0  0  0  0
   -2.1520   -3.0530   -0.1130 C   0  0  0  0  0  0  0  0  0  0  0  0
   -1.5990   -0.5720   -0.0770 C   0  0  0  0  0  0  0  0  0  0  0  0
   -2.9370   -0.3920    0.1780 C   0  0  0  0  0  0  0  0  0  0  0  0
   -4.0920   -1.2620    0.4680 C   0  0  0  0  0  0  0  0  0  0  0  0
   -5.2820   -0.2960    0.5980 C   0  0  0  0  0  0  0  0  0  0  0  0
   -4.7380    1.0230    0.3850 C   0  0  0  0  0  0  0  0  0  0  0  0
   -3.4210    0.9750    0.1470 C   0  0  0  0  0  0  0  0  0  0  0  0
   -2.5950    2.0990   -0.1260 N   0  0  0  0  0  0  0  0  0  0  0  0
   -1.2180    1.8740   -0.3840 C   0  0  0  0  0  0  0  0  0  0  0  0
   -0.4300    3.0640   -0.6270 C   0  0  0  0  0  0  0  0  0  0  0  0
    0.7790    3.1010   -0.8770 O   0  0  0  0  0  0  0  0  0  0  0  0
   -1.0860    4.4290   -0.5870 C   0  0  0  0  0  0  0  0  0  0  0  0
   -1.6650    4.8130   -1.9150 C   0  0  0  0  0  0  0  0  0  0  0  0
   -0.7620    0.6210   -0.3590 C   0  0  0  0  0  0  0  0  0  0  0  0
    0.6690    0.4780   -0.7060 C   0  0  0  0  0  0  0  0  0  0  0  0
    1.5890    0.4720    0.4870 C   0  0  0  0  0  0  0  0  0  0  0  0
    2.9930    0.3040    0.0320 C   0  0  0  0  0  0  0  0  0  0  0  0
    3.8090   -0.6510    0.4090 C   0  0  0  0  0  0  0  0  0  0  0  0
    3.4130   -1.7050    1.3630 C   0  0  0  0  0  0  0  0  0  0  0  0
    5.2110   -0.7060   -0.1340 C   0  0  0  0  0  0  0  0  0  0  0  0
    6.2320   -0.6090    0.9810 C   0  0  0  0  0  0  0  0  0  0  0  0
  1  2  1  0
  2  3  2  3
  3  4  1  0
  3  5  1  0
  5  6  2  0
  5 17  1  0
  6  7  1  0
  6 10  1  0
  7  8  1  0
  8  9  1  0
  9 10  2  0
 10 11  1  0
 11 12  1  0
 12 13  1  0
 12 17  2  0
 13 14  2  0
 13 15  1  0
 15 16  1  0
 17 18  1  0
 18 19  1  0
 19 20  1  0
 20 21  2  3
 21 22  1  0
 21 23  1  0
 23 24  1  0
M  END
