
     RDKit          3D

 22 24  0  0  0  0  0  0  0  0999 V2000
   -4.5320   -0.4110    0.0650 C   0  0  0  0  0  0  0  0  0  0  0  0
   -3.5050    0.4200   -0.6390 C   0  0  0  0  0  0  0  0  0  0  0  0
   -3.5420    1.7120   -0.9680 N   0  0  0  0  0  0  0  0  0  0  0  0
   -2.4330    2.0790   -1.5850 N   0  0  0  0  0  0  0  0  0  0  0  0
   -1.6500    0.9870   -1.6590 C   0  0  0  0  0  0  0  0  0  0  0  0
   -2.2940   -0.0810   -1.0710 C   0  0  0  0  0  0  0  0  0  0  0  0
   -1.8000   -1.4720   -0.9290 C   0  0  0  0  0  0  0  0  0  0  0  0
   -2.0340   -2.3240   -1.8220 O   0  0  0  0  0  0  0  0  0  0  0  0
   -1.0560   -1.8710    0.2090 N   0  0  0  0  0  0  0  0  0  0  0  0
   -0.6090   -3.2170    0.2880 C   0  0  0  0  0  0  0  0  0  0  0  0
    0.0520   -3.6350    1.2660 O   0  0  0  0  0  0  0  0  0  0  0  0
   -0.7410   -0.9460    1.2890 C   0  0  0  0  0  0  0  0  0  0  0  0
    0.5420   -0.2500    1.0570 C   0  0  0  0  0  0  0  0  0  0  0  0
    1.3100   -0.4810   -0.0610 C   0  0  0  0  0  0  0  0  0  0  0  0
    2.5190    0.1980   -0.2450 C   0  0  0  0  0  0  0  0  0  0  0  0
    2.9620    1.1090    0.6860 C   0  0  0  0  0  0  0  0  0  0  0  0
    2.2040    1.3430    1.7970 C   0  0  0  0  0  0  0  0  0  0  0  0
    0.9950    0.6630    1.9810 C   0  0  0  0  0  0  0  0  0  0  0  0
    0.1010    1.0360    3.4370 Cl  0  0  0  0  0  0  0  0  0  0  0  0
    4.2630    1.6860    0.2550 C   0  0  0  0  0  0  0  0  0  0  0  0
    4.5030    0.9880   -1.0380 C   0  0  0  0  0  0  0  0  0  0  0  0
    3.5190    0.1610   -1.3020 C   0  0  0  0  0  0  0  0  0  0  0  0
  1  2  1  0
  2  3  2  0
  2  6  1  0
  3  4  1  0
  4  5  1  0
  5  6  2  0
  6  7  1  0
  7  8  2  0
  7  9  1  0
  9 10  1  0
  9 12  1  0
 10 11  2  0
 12 13  1  0
 13 14  2  0
 13 18  1  0
 14 15  1  0
 15 16  2  0
 15 22  1  0
 16 17  1  0
 16 20  1  0
 17 18  2  0
 18 19  1  0
 20 21  1  0
 21 22  2  0
M  END
