
     RDKit          3D

 22 23  0  0  0  0  0  0  0  0999 V2000
   -5.7020   -3.4800    1.2680 C   0  0  0  0  0  0  0  0  0  0  0  0
   -5.1680   -2.1170    1.6180 C   0  0  0  0  0  0  0  0  0  0  0  0
   -5.7390   -1.1900    2.2880 N   0  0  0  0  0  0  0  0  0  0  0  0
   -4.8880   -0.0540    2.3910 C   0  0  0  0  0  0  0  0  0  0  0  0
   -5.1220    1.0350    2.9760 O   0  0  0  0  0  0  0  0  0  0  0  0
   -3.6650   -0.3960    1.6770 C   0  0  0  0  0  0  0  0  0  0  0  0
   -2.4660    0.4580    1.4980 C   0  0  0  0  0  0  0  0  0  0  0  0
   -1.4420   -0.3040    0.6910 C   0  0  0  0  0  0  0  0  0  0  0  0
   -0.2070    0.4790    0.4640 C   0  0  0  0  0  0  0  0  0  0  0  0
   -0.0330    1.6490    0.8960 O   0  0  0  0  0  0  0  0  0  0  0  0
    0.8400   -0.1250   -0.2840 N   0  0  0  0  0  0  0  0  0  0  0  0
    2.0450    0.4950   -0.5690 N   0  0  0  0  0  0  0  0  0  0  0  0
    2.7230    0.3480   -1.6240 C   0  0  0  0  0  0  0  0  0  0  0  0
    2.3490   -0.5260   -2.7640 C   0  0  0  0  0  0  0  0  0  0  0  0
    3.2860   -0.4220   -3.6510 C   0  0  0  0  0  0  0  0  0  0  0  0
    4.3120    0.4830   -3.2020 C   0  0  0  0  0  0  0  0  0  0  0  0
    3.9810    0.9600   -1.9650 C   0  0  0  0  0  0  0  0  0  0  0  0
    4.8290    1.8840   -1.2530 C   0  0  0  0  0  0  0  0  0  0  0  0
    4.7840    2.4810   -0.1390 C   0  0  0  0  0  0  0  0  0  0  0  0
    3.8910    2.5730    1.0080 C   0  0  0  0  0  0  0  0  0  0  0  0
    4.8190    1.9730    2.4470 Cl  0  0  0  0  0  0  0  0  0  0  0  0
   -3.8690   -1.6370    1.2290 C   0  0  0  0  0  0  0  0  0  0  0  0
  1  2  1  0
  2  3  2  0
  2 22  1  0
  3  4  1  0
  4  5  2  0
  4  6  1  0
  6  7  1  0
  6 22  2  0
  7  8  1  0
  8  9  1  0
  9 10  2  0
  9 11  1  0
 11 12  1  0
 12 13  2  3
 13 14  1  0
 13 17  1  0
 14 15  2  0
 15 16  1  0
 16 17  2  0
 17 18  1  0
 18 19  2  3
 19 20  1  0
 20 21  1  0
M  END
