
     RDKit          3D

 22 24  0  0  0  0  0  0  0  0999 V2000
   -3.8310    4.9470    0.5720 O   0  0  0  0  0  0  0  0  0  0  0  0
   -2.8290    4.1920    0.4540 C   0  0  0  0  0  0  0  0  0  0  0  0
   -2.7810    2.7440    0.3940 C   0  0  0  0  0  0  0  0  0  0  0  0
   -1.5540    2.3130    0.2680 C   0  0  0  0  0  0  0  0  0  0  0  0
   -1.0300    0.9280    0.1680 C   0  0  0  0  0  0  0  0  0  0  0  0
   -1.9100    0.0300    0.2140 N   0  0  0  0  0  0  0  0  0  0  0  0
   -1.9290   -1.3390    0.1640 C   0  0  0  0  0  0  0  0  0  0  0  0
   -1.9960   -2.0450    1.3650 C   0  0  0  0  0  0  0  0  0  0  0  0
   -2.0280   -3.4000    1.3150 C   0  0  0  0  0  0  0  0  0  0  0  0
   -1.9970   -4.0890    0.1360 C   0  0  0  0  0  0  0  0  0  0  0  0
   -1.9310   -3.3310   -1.0250 C   0  0  0  0  0  0  0  0  0  0  0  0
   -1.8910   -4.2180   -2.5360 Cl  0  0  0  0  0  0  0  0  0  0  0  0
   -1.8970   -1.9910   -1.0190 N   0  0  0  0  0  0  0  0  0  0  0  0
    0.3170    0.7140    0.0390 O   0  0  0  0  0  0  0  0  0  0  0  0
    0.8440   -0.4940   -0.4280 C   0  0  0  0  0  0  0  0  0  0  0  0
    2.3300   -0.4660   -0.4890 C   0  0  0  0  0  0  0  0  0  0  0  0
    3.1530    0.5120   -0.1700 C   0  0  0  0  0  0  0  0  0  0  0  0
    4.5500    0.0960   -0.3890 C   0  0  0  0  0  0  0  0  0  0  0  0
    4.4070   -1.2880   -0.8890 C   0  0  0  0  0  0  0  0  0  0  0  0
    3.1240   -1.5960   -0.9410 C   0  0  0  0  0  0  0  0  0  0  0  0
   -0.6690    3.4930    0.2360 C   0  0  0  0  0  0  0  0  0  0  0  0
   -1.4950    4.6530    0.3520 N   0  0  0  0  0  0  0  0  0  0  0  0
  1  2  2  0
  2  3  1  0
  2 22  1  0
  3  4  2  0
  4  5  1  0
  4 21  1  0
  5  6  2  3
  5 14  1  0
  6  7  1  0
  7  8  2  0
  7 13  1  0
  8  9  1  0
  9 10  2  0
 10 11  1  0
 11 12  1  0
 11 13  2  0
 14 15  1  0
 15 16  1  0
 16 17  2  0
 16 20  1  0
 17 18  1  0
 18 19  1  0
 19 20  2  0
 21 22  1  0
M  END
