
     RDKit          3D

 17 19  0  0  0  0  0  0  0  0999 V2000
   -5.2910   -0.9220    0.1690 C   0  0  0  0  0  0  0  0  0  0  0  0
   -4.3700    0.0090    0.7660 N   0  0  0  0  0  0  0  0  0  0  0  0
   -2.9750    0.0010    0.5030 C   0  0  0  0  0  0  0  0  0  0  0  0
   -2.3200   -0.8600   -0.3260 N   0  0  0  0  0  0  0  0  0  0  0  0
   -1.0190   -0.5570   -0.3160 C   0  0  0  0  0  0  0  0  0  0  0  0
    0.0680   -1.0940   -0.9570 C   0  0  0  0  0  0  0  0  0  0  0  0
    1.3200   -0.5720   -0.7570 C   0  0  0  0  0  0  0  0  0  0  0  0
    2.4420   -1.0840   -1.3850 C   0  0  0  0  0  0  0  0  0  0  0  0
    2.2720   -2.0530   -2.1520 O   0  0  0  0  0  0  0  0  0  0  0  0
    3.6400   -0.5330   -1.1520 N   0  0  0  0  0  0  0  0  0  0  0  0
    3.8240    0.5050   -0.3310 C   0  0  0  0  0  0  0  0  0  0  0  0
    5.0880    1.0810   -0.0890 N   0  0  0  0  0  0  0  0  0  0  0  0
    2.7440    1.0060    0.2800 N   0  0  0  0  0  0  0  0  0  0  0  0
    1.5020    0.4950    0.0870 C   0  0  0  0  0  0  0  0  0  0  0  0
    0.4290    1.0500    0.7410 C   0  0  0  0  0  0  0  0  0  0  0  0
   -0.8240    0.5140    0.5300 C   0  0  0  0  0  0  0  0  0  0  0  0
   -2.0470    0.8110    0.9990 N   0  0  0  0  0  0  0  0  0  0  0  0
  1  2  1  0
  2  3  1  0
  3  4  2  0
  3 17  1  0
  4  5  1  0
  5  6  2  0
  5 16  1  0
  6  7  1  0
  7  8  1  0
  7 14  2  0
  8  9  2  0
  8 10  1  0
 10 11  2  0
 11 12  1  0
 11 13  1  0
 13 14  1  0
 14 15  1  0
 15 16  2  0
 16 17  1  0
M  CHG  1  10   1
M  END
