
     RDKit          3D

 22 24  0  0  0  0  0  0  0  0999 V2000
   -7.6520    0.3600   -0.3580 C   0  0  0  0  0  0  0  0  0  0  0  0
   -6.6680    0.4460    0.6550 O   0  0  0  0  0  0  0  0  0  0  0  0
   -5.3330    0.3800    0.3220 C   0  0  0  0  0  0  0  0  0  0  0  0
   -4.9480    0.2330   -0.9790 C   0  0  0  0  0  0  0  0  0  0  0  0
   -3.5850    0.1680   -1.2940 C   0  0  0  0  0  0  0  0  0  0  0  0
   -2.6220    0.2510   -0.3140 C   0  0  0  0  0  0  0  0  0  0  0  0
   -1.2020    0.1810   -0.6620 C   0  0  0  0  0  0  0  0  0  0  0  0
   -0.6690    0.0380   -1.8900 N   0  0  0  0  0  0  0  0  0  0  0  0
    0.6510    0.0170   -1.8120 N   0  0  0  0  0  0  0  0  0  0  0  0
    1.0060    0.1460   -0.5260 C   0  0  0  0  0  0  0  0  0  0  0  0
    2.3610    0.1800    0.0830 C   0  0  2  0  0  0  0  0  0  0  0  0
    2.9150    1.5580   -0.1190 C   0  0  0  0  0  0  0  0  0  0  0  0
    3.1730   -0.8350   -0.4640 O   0  0  0  0  0  0  0  0  0  0  0  0
    4.4810   -1.0390   -0.0850 C   0  0  0  0  0  0  0  0  0  0  0  0
    5.5160   -0.4730   -0.6660 C   0  0  0  0  0  0  0  0  0  0  0  0
    6.7600   -0.9210    0.0010 C   0  0  0  0  0  0  0  0  0  0  0  0
    6.2760   -1.8330    1.0560 C   0  0  0  0  0  0  0  0  0  0  0  0
    4.9570   -1.8930    0.9950 C   0  0  0  0  0  0  0  0  0  0  0  0
    3.8840   -2.8430    2.0340 Cl  0  0  0  0  0  0  0  0  0  0  0  0
   -0.1430    0.2460    0.1660 N   0  0  0  0  0  0  0  0  0  0  0  0
   -3.0620    0.3990    0.9800 C   0  0  0  0  0  0  0  0  0  0  0  0
   -4.3900    0.4670    1.3330 C   0  0  0  0  0  0  0  0  0  0  0  0
  1  2  1  0
  2  3  1  0
  3  4  2  0
  3 22  1  0
  4  5  1  0
  5  6  2  0
  6  7  1  0
  6 21  1  0
  7  8  2  0
  7 20  1  0
  8  9  1  0
  9 10  2  0
 10 11  1  0
 10 20  1  0
 11 12  1  6
 11 13  1  0
 13 14  1  0
 14 15  2  0
 14 18  1  0
 15 16  1  0
 16 17  1  0
 17 18  2  0
 18 19  1  0
 21 22  2  0
M  END
