
     RDKit          3D

 22 24  0  0  0  0  0  0  0  0999 V2000
   -3.9040   -2.2040   -0.0480 C   0  0  0  0  0  0  0  0  0  0  0  0
   -3.3630   -0.8960   -0.3470 N   0  0  0  0  0  0  0  0  0  0  0  0
   -1.9190   -0.7940   -0.5780 C   0  0  0  0  0  0  0  0  0  0  0  0
   -1.2200   -1.0600    0.7180 C   0  0  0  0  0  0  0  0  0  0  0  0
    0.2810   -1.0170    0.6430 C   0  0  0  0  0  0  0  0  0  0  0  0
    0.7260    0.3430    0.1830 C   0  0  0  0  0  0  0  0  0  0  0  0
    2.2350    0.3860    0.1150 C   0  0  0  0  0  0  0  0  0  0  0  0
    3.1030   -0.6470    0.4390 C   0  0  0  0  0  0  0  0  0  0  0  0
    4.4060   -0.1920    0.2360 C   0  0  0  0  0  0  0  0  0  0  0  0
    5.6200   -0.7360    0.3790 N   0  0  0  0  0  0  0  0  0  0  0  0
    6.7450   -0.0400    0.1000 C   0  0  0  0  0  0  0  0  0  0  0  0
    7.8940   -0.5480    0.2330 O   0  0  0  0  0  0  0  0  0  0  0  0
    6.6460    1.2630   -0.3440 C   0  0  0  0  0  0  0  0  0  0  0  0
    5.3980    1.8210   -0.4910 C   0  0  0  0  0  0  0  0  0  0  0  0
    5.2250    3.4670   -1.0510 Cl  0  0  0  0  0  0  0  0  0  0  0  0
    4.2460    1.1110   -0.2060 C   0  0  0  0  0  0  0  0  0  0  0  0
    2.9670    1.3900   -0.2550 O   0  0  0  0  0  0  0  0  0  0  0  0
   -4.2320    0.2160   -0.4000 C   0  0  0  0  0  0  0  0  0  0  0  0
   -3.9230    1.4660   -0.1740 C   0  0  0  0  0  0  0  0  0  0  0  0
   -5.1380    2.3100   -0.3380 C   0  0  0  0  0  0  0  0  0  0  0  0
   -6.1540    1.3660   -0.6830 N   0  0  0  0  0  0  0  0  0  0  0  0
   -5.6730    0.1590   -0.7290 C   0  0  0  0  0  0  0  0  0  0  0  0
  1  2  1  0
  2  3  1  0
  2 18  1  0
  3  4  1  0
  4  5  1  0
  5  6  1  0
  6  7  1  0
  7  8  2  0
  7 17  1  0
  8  9  1  0
  9 10  1  0
  9 16  2  0
 10 11  1  0
 11 12  2  0
 11 13  1  0
 13 14  2  0
 14 15  1  0
 14 16  1  0
 16 17  1  0
 18 19  2  0
 18 22  1  0
 19 20  1  0
 20 21  1  0
 21 22  2  0
M  END
