
     RDKit          3D

 22 24  0  0  0  0  0  0  0  0999 V2000
    2.3060   -2.4700    0.2850 C   0  0  0  0  0  0  0  0  0  0  0  0
    2.6530   -1.5350   -0.6600 O   0  0  0  0  0  0  0  0  0  0  0  0
    2.5270   -0.2220   -0.2840 C   0  0  1  0  0  0  0  0  0  0  0  0
    3.9850    0.3020    0.0660 C   0  0  0  0  0  0  0  0  0  0  0  0
    2.0430    0.7480   -1.2670 C   0  0  0  0  0  0  0  0  0  0  0  0
    0.7210    0.6270   -1.8950 C   0  0  0  0  0  0  0  0  0  0  0  0
   -0.3540    0.6840   -0.9340 N   0  0  0  0  0  0  0  0  0  0  0  0
   -0.8670    1.8320   -0.4680 C   0  0  0  0  0  0  0  0  0  0  0  0
   -0.5610    3.1610   -0.6820 C   0  0  0  0  0  0  0  0  0  0  0  0
   -1.2610    4.1710   -0.0630 C   0  0  0  0  0  0  0  0  0  0  0  0
   -2.2870    3.8590    0.7870 C   0  0  0  0  0  0  0  0  0  0  0  0
   -2.6150    2.5280    1.0200 C   0  0  0  0  0  0  0  0  0  0  0  0
   -3.9310    2.2030    2.1130 Cl  0  0  0  0  0  0  0  0  0  0  0  0
   -1.9190    1.5280    0.4040 C   0  0  0  0  0  0  0  0  0  0  0  0
   -2.0340    0.1600    0.4570 C   0  0  0  0  0  0  0  0  0  0  0  0
   -2.8690   -0.7150    1.1130 C   0  0  0  0  0  0  0  0  0  0  0  0
   -3.7780   -0.3720    1.8860 O   0  0  0  0  0  0  0  0  0  0  0  0
   -2.7020   -2.0330    0.9140 N   0  0  0  0  0  0  0  0  0  0  0  0
   -1.7650   -2.5440    0.1100 C   0  0  0  0  0  0  0  0  0  0  0  0
   -1.5910   -4.0080   -0.1010 C   0  0  0  0  0  0  0  0  0  0  0  0
   -0.9660   -1.6680   -0.5150 N   0  0  0  0  0  0  0  0  0  0  0  0
   -1.0350   -0.3320   -0.3970 C   0  0  0  0  0  0  0  0  0  0  0  0
  1  2  1  0
  2  3  1  0
  3  4  1  6
  3  5  1  0
  5  6  1  0
  6  7  1  0
  7  8  1  0
  7 22  1  0
  8  9  2  0
  8 14  1  0
  9 10  1  0
 10 11  2  0
 11 12  1  0
 12 13  1  0
 12 14  2  0
 14 15  1  0
 15 16  1  0
 15 22  2  0
 16 17  2  0
 16 18  1  0
 18 19  1  0
 19 20  1  0
 19 21  2  0
 21 22  1  0
M  END
