
     RDKit          3D

 22 24  0  0  0  0  0  0  0  0999 V2000
    1.6420   -0.6730   -2.3910 O   0  0  0  0  0  0  0  0  0  0  0  0
    0.9050   -0.5540   -1.3990 C   0  0  0  0  0  0  0  0  0  0  0  0
    1.3830   -0.0770   -0.1820 N   0  0  0  0  0  0  0  0  0  0  0  0
    2.7110    0.3210    0.0710 C   0  0  0  0  0  0  0  0  0  0  0  0
    3.7290    0.3610   -0.8370 C   0  0  0  0  0  0  0  0  0  0  0  0
    5.0310    0.7790   -0.5320 C   0  0  0  0  0  0  0  0  0  0  0  0
    5.3020    1.1660    0.7350 C   0  0  0  0  0  0  0  0  0  0  0  0
    4.3130    1.1430    1.6830 C   0  0  0  0  0  0  0  0  0  0  0  0
    3.0450    0.7340    1.3770 C   0  0  0  0  0  0  0  0  0  0  0  0
    1.8100    0.7130    2.6380 Cl  0  0  0  0  0  0  0  0  0  0  0  0
   -0.5150   -0.9630   -1.6290 C   0  0  1  0  0  0  0  0  0  0  0  0
   -0.4370   -2.4540   -1.9780 C   0  0  0  0  0  0  0  0  0  0  0  0
   -1.6640   -2.8050   -2.5090 O   0  0  0  0  0  0  0  0  0  0  0  0
   -2.7150   -2.1770   -1.8550 C   0  0  0  0  0  0  0  0  0  0  0  0
   -2.3220   -1.7900   -0.4030 C   0  0  0  0  0  0  0  0  0  0  0  0
   -1.3700   -0.7440   -0.5180 N   0  0  0  0  0  0  0  0  0  0  0  0
   -1.9160    0.5540   -0.4090 C   0  0  0  0  0  0  0  0  0  0  0  0
   -2.3610    1.0250    0.9170 C   0  0  0  0  0  0  0  0  0  0  0  0
   -1.8360    2.1010    1.5580 C   0  0  0  0  0  0  0  0  0  0  0  0
   -2.4990    2.3040    2.8570 C   0  0  0  0  0  0  0  0  0  0  0  0
   -3.4560    1.2490    2.8940 N   0  0  0  0  0  0  0  0  0  0  0  0
   -3.3700    0.5360    1.8010 C   0  0  0  0  0  0  0  0  0  0  0  0
  1  2  2  0
  2  3  1  0
 11  2  1  1
  3  4  1  0
  4  5  2  0
  4  9  1  0
  5  6  1  0
  6  7  2  0
  7  8  1  0
  8  9  2  0
  9 10  1  0
 11 12  1  0
 11 16  1  0
 12 13  1  0
 13 14  1  0
 14 15  1  0
 15 16  1  0
 16 17  1  0
 17 18  1  0
 18 19  2  0
 18 22  1  0
 19 20  1  0
 20 21  1  0
 21 22  2  0
M  END
