
     RDKit          3D

 22 24  0  0  0  0  0  0  0  0999 V2000
    4.6130    1.6600    0.2210 O   0  0  0  0  0  0  0  0  0  0  0  0
    4.7880    0.4360    0.3980 C   0  0  0  0  0  0  0  0  0  0  0  0
    3.8540   -0.5360   -0.0040 N   0  0  0  0  0  0  0  0  0  0  0  0
    2.6320   -0.2630   -0.6350 C   0  0  0  0  0  0  0  0  0  0  0  0
    2.0750    0.9830   -0.7310 C   0  0  0  0  0  0  0  0  0  0  0  0
    0.8590    1.1430   -1.4010 C   0  0  0  0  0  0  0  0  0  0  0  0
    0.2280    0.0610   -1.9560 C   0  0  0  0  0  0  0  0  0  0  0  0
   -0.9920    0.2150   -2.6290 N   0  0  0  0  0  0  0  0  0  0  0  0
   -2.1490    0.2230   -2.1080 C   0  0  0  0  0  0  0  0  0  0  0  0
   -2.4200    0.0720   -0.7180 N   0  0  0  0  0  0  0  0  0  0  0  0
   -2.6370    1.3110   -0.0470 C   0  0  0  0  0  0  0  0  0  0  0  0
   -3.2520    1.1720    1.3190 C   0  0  0  0  0  0  0  0  0  0  0  0
   -4.5790    0.4860    1.3150 C   0  0  0  0  0  0  0  0  0  0  0  0
   -4.6460   -0.7320    0.4560 C   0  0  0  0  0  0  0  0  0  0  0  0
   -3.4230   -1.5900    0.7820 C   0  0  0  0  0  0  0  0  0  0  0  0
   -2.4110   -1.3180   -0.3060 C   0  0  0  0  0  0  0  0  0  0  0  0
    0.7870   -1.1950   -1.8610 C   0  0  0  0  0  0  0  0  0  0  0  0
   -0.0390   -2.5470   -2.5770 Cl  0  0  0  0  0  0  0  0  0  0  0  0
    1.9750   -1.3560   -1.2080 C   0  0  0  0  0  0  0  0  0  0  0  0
    6.0650   -0.0080    1.0760 C   0  0  2  0  0  0  0  0  0  0  0  0
    6.8810    0.9750    1.7890 C   0  0  0  0  0  0  0  0  0  0  0  0
    7.2300    0.6700    0.4880 O   0  0  0  0  0  0  0  0  0  0  0  0
  1  2  2  0
  2  3  1  0
 20  2  1  6
  3  4  1  0
  4  5  2  0
  4 19  1  0
  5  6  1  0
  6  7  2  0
  7  8  1  0
  7 17  1  0
  8  9  2  3
  9 10  1  0
 10 11  1  0
 10 16  1  0
 11 12  1  0
 12 13  1  0
 13 14  1  0
 14 15  1  0
 15 16  1  0
 17 18  1  0
 17 19  2  0
 20 21  1  0
 20 22  1  0
 21 22  1  0
M  END
