
     RDKit          3D

 22 23  0  0  0  0  0  0  0  0999 V2000
    6.3990    0.0950    0.3940 C   0  0  0  0  0  0  0  0  0  0  0  0
    5.1090   -0.0260    0.1210 C   0  0  0  0  0  0  0  0  0  0  0  0
    4.7080   -1.0420   -0.8750 C   0  0  0  0  0  0  0  0  0  0  0  0
    3.2630   -1.0890   -1.1030 C   0  0  0  0  0  0  0  0  0  0  0  0
    2.4070   -0.3040   -0.4780 C   0  0  0  0  0  0  0  0  0  0  0  0
    2.8320    0.6770    0.4920 C   0  0  0  0  0  0  0  0  0  0  0  0
    1.8920    1.5790    1.2400 C   0  0  0  0  0  0  0  0  0  0  0  0
    0.9290    2.2150    0.4070 N   0  0  0  0  0  0  0  0  0  0  0  0
    1.2640    3.4910   -0.2780 C   0  0  0  0  0  0  0  0  0  0  0  0
   -0.3530    1.6970    0.1810 C   0  0  0  0  0  0  0  0  0  0  0  0
   -1.1130    2.3570   -0.6180 O   0  0  0  0  0  0  0  0  0  0  0  0
   -0.8350    0.4830    0.8010 C   0  0  0  0  0  0  0  0  0  0  0  0
   -0.1570   -0.2180    1.5750 O   0  0  0  0  0  0  0  0  0  0  0  0
   -2.1960    0.0870    0.4800 N   0  0  0  0  0  0  0  0  0  0  0  0
   -2.6730   -1.1230    1.1000 C   0  0  0  0  0  0  0  0  0  0  0  0
   -4.0620   -1.4320    0.7080 C   0  0  0  0  0  0  0  0  0  0  0  0
   -5.0880   -1.5400    1.5370 C   0  0  0  0  0  0  0  0  0  0  0  0
   -6.3270   -1.8590    0.7880 C   0  0  0  0  0  0  0  0  0  0  0  0
   -5.8440   -1.9180   -0.6150 C   0  0  0  0  0  0  0  0  0  0  0  0
   -4.5450   -1.6720   -0.6450 C   0  0  0  0  0  0  0  0  0  0  0  0
   -3.5370   -1.6360   -2.1000 Cl  0  0  0  0  0  0  0  0  0  0  0  0
    4.1160    0.7620    0.7340 N   0  0  0  0  0  0  0  0  0  0  0  0
  1  2  2  0
  2  3  1  0
  2 22  1  0
  3  4  1  0
  4  5  2  0
  5  6  1  0
  6  7  1  0
  6 22  2  0
  7  8  1  0
  8  9  1  0
  8 10  1  0
 10 11  2  0
 10 12  1  0
 12 13  2  0
 12 14  1  0
 14 15  1  0
 15 16  1  0
 16 17  2  0
 16 20  1  0
 17 18  1  0
 18 19  1  0
 19 20  2  0
 20 21  1  0
M  END
