
     RDKit          3D

 34 34  0  0  0  0  0  0  0  0999 V2000
   -5.7370    2.8160    0.1840 C   0  0  0  0  0  0  0  0  0  0  0  0
   -5.7520    1.7940   -0.9060 C   0  0  1  0  0  0  0  0  0  0  0  0
   -6.8750    0.7950   -0.7150 C   0  0  0  0  0  0  0  0  0  0  0  0
   -5.8350    2.3940   -2.2950 C   0  0  0  0  0  0  0  0  0  0  0  0
   -4.4990    1.0190   -0.8010 N   0  0  0  0  0  0  0  0  0  0  0  0
   -4.2200   -0.0290   -1.7080 C   0  0  0  0  0  0  0  0  0  0  0  0
   -5.0620   -0.2830   -2.6170 O   0  0  0  0  0  0  0  0  0  0  0  0
   -2.9900   -0.8360   -1.6460 C   0  0  0  0  0  0  0  0  0  0  0  0
   -2.2880   -0.5610   -0.4750 O   0  0  0  0  0  0  0  0  0  0  0  0
   -2.7500   -0.7970    0.8060 C   0  0  0  0  0  0  0  0  0  0  0  0
   -3.9880   -1.3540    0.9790 C   0  0  0  0  0  0  0  0  0  0  0  0
   -4.5120   -1.6170    2.2240 C   0  0  0  0  0  0  0  0  0  0  0  0
   -3.7390   -1.2960    3.3040 C   0  0  0  0  0  0  0  0  0  0  0  0
   -2.4690   -0.7240    3.1660 C   0  0  0  0  0  0  0  0  0  0  0  0
   -1.9530   -0.4660    1.9240 C   0  0  0  0  0  0  0  0  0  0  0  0
   -0.7620    0.0680    1.6590 O   0  0  0  0  0  0  0  0  0  0  0  0
    0.3400    0.5190    2.3140 C   0  0  0  0  0  0  0  0  0  0  0  0
    1.0740   -0.5170    3.1290 C   0  0  2  0  0  0  0  0  0  0  0  0
    2.2340   -0.0680    3.7160 O   0  0  0  0  0  0  0  0  0  0  0  0
    1.1050   -1.8620    2.5220 C   0  0  0  0  0  0  0  0  0  0  0  0
    1.9890   -2.1770    1.5650 O   0  0  0  0  0  0  0  0  0  0  0  0
    2.0170   -1.4700    0.4000 C   0  0  0  0  0  0  0  0  0  0  0  0
    3.0300   -2.1290   -0.5190 C   0  0  0  0  0  0  0  0  0  0  0  0
    3.6380   -3.1200   -0.1210 O   0  0  0  0  0  0  0  0  0  0  0  0
    3.2630   -1.6080   -1.8080 N   0  0  0  0  0  0  0  0  0  0  0  0
    4.1590   -2.1480   -2.7040 N   0  0  0  0  0  0  0  0  0  0  0  0
    5.7970   -2.0830   -2.2470 S   0  0  1  0  0  0  0  0  0  0  0  0
    6.0190   -2.2540   -0.7750 O   0  0  0  0  0  0  0  0  0  0  0  0
    6.5920   -3.1250   -3.0290 O   0  0  0  0  0  0  0  0  0  0  0  0
    6.5220   -0.5520   -2.6870 N   0  0  0  0  0  0  0  0  0  0  0  0
    6.3390    0.3040   -1.5160 C   0  0  0  0  0  0  0  0  0  0  0  0
    6.8940    1.6780   -1.6800 C   0  0  0  0  0  0  0  0  0  0  0  0
    6.6230    2.4220   -0.3810 C   0  0  0  0  0  0  0  0  0  0  0  0
    7.0930    3.7200   -0.4070 O   0  0  0  0  0  0  0  0  0  0  0  0
  2  1  1  1
  2  3  1  0
  2  4  1  0
  2  5  1  0
  5  6  1  0
  6  7  2  0
  6  8  1  0
  8  9  1  0
  9 10  1  0
 10 11  2  0
 10 15  1  0
 11 12  1  0
 12 13  2  0
 13 14  1  0
 14 15  2  0
 15 16  1  0
 16 17  1  0
 17 18  1  0
 18 19  1  6
 18 20  1  0
 20 21  1  0
 21 22  1  0
 22 23  1  0
 23 24  2  0
 23 25  1  0
 25 26  1  0
 27 26  1  1
 27 28  2  0
 27 29  2  0
 27 30  1  0
 30 31  1  0
 31 32  1  0
 32 33  1  0
 33 34  1  0
M  END
