
     RDKit          3D

 34 34  0  0  0  0  0  0  0  0999 V2000
   -0.7310    1.5540    3.2710 C   0  0  0  0  0  0  0  0  0  0  0  0
   -1.3560    0.3130    2.9810 O   0  0  0  0  0  0  0  0  0  0  0  0
   -0.9520   -0.4070    1.8560 C   0  0  0  0  0  0  0  0  0  0  0  0
    0.3010   -0.5440    1.5110 C   0  0  0  0  0  0  0  0  0  0  0  0
    0.7470   -1.4710    0.0720 S   0  0  0  0  0  0  0  0  0  0  0  0
    2.0340   -0.6180   -0.8970 C   0  0  0  0  0  0  0  0  0  0  0  0
    3.2970   -0.5640   -0.1240 C   0  0  0  0  0  0  0  0  0  0  0  0
    3.3460   -1.0610    1.0110 O   0  0  0  0  0  0  0  0  0  0  0  0
    4.4520    0.0390   -0.6440 N   0  0  0  0  0  0  0  0  0  0  0  0
    5.7270    0.1310    0.0560 C   0  0  1  0  0  0  0  0  0  0  0  0
    6.7040   -0.6770   -0.7130 C   0  0  0  0  0  0  0  0  0  0  0  0
    8.0950   -0.7420   -0.1610 C   0  0  0  0  0  0  0  0  0  0  0  0
    8.1960   -1.3770    1.2000 C   0  0  0  0  0  0  0  0  0  0  0  0
    7.4940   -0.7560    2.1920 O   0  0  0  0  0  0  0  0  0  0  0  0
    6.1150    1.5400    0.3490 C   0  0  0  0  0  0  0  0  0  0  0  0
    6.2730    2.4290   -0.7990 C   0  0  0  0  0  0  0  0  0  0  0  0
    6.1100    2.1620   -2.1560 N   0  0  0  0  0  0  0  0  0  0  0  0
    6.6120    3.6290   -0.5030 O   0  0  0  0  0  0  0  0  0  0  0  0
   -1.9860   -1.0490    1.0100 C   0  0  0  0  0  0  0  0  0  0  0  0
   -3.2570   -0.9470    1.3060 C   0  0  0  0  0  0  0  0  0  0  0  0
   -4.3030   -1.5710    0.4880 C   0  0  1  0  0  0  0  0  0  0  0  0
   -5.0000   -0.5930   -0.3470 N   0  0  0  0  0  0  0  0  0  0  0  0
   -6.3750   -0.3040   -0.2470 C   0  0  0  0  0  0  0  0  0  0  0  0
   -7.0220   -0.9400    0.6230 O   0  0  0  0  0  0  0  0  0  0  0  0
   -7.0650    0.6640   -1.0730 C   0  0  0  0  0  0  0  0  0  0  0  0
   -6.4590    1.3190   -1.9510 O   0  0  0  0  0  0  0  0  0  0  0  0
   -8.4500    0.8820   -0.8940 N   0  0  0  0  0  0  0  0  0  0  0  0
   -9.2020    1.8120   -1.6620 C   0  0  0  0  0  0  0  0  0  0  0  0
   -8.6310    2.4890   -2.5530 O   0  0  0  0  0  0  0  0  0  0  0  0
  -10.6740    2.0100   -1.4360 C   0  0  0  0  0  0  0  0  0  0  0  0
  -11.1330    1.1930   -0.4290 O   0  0  0  0  0  0  0  0  0  0  0  0
   -3.7960   -2.6330   -0.4600 C   0  0  0  0  0  0  0  0  0  0  0  0
   -2.5010   -2.1420   -1.0970 C   0  0  0  0  0  0  0  0  0  0  0  0
   -1.5850   -1.7600   -0.1000 O   0  0  0  0  0  0  0  0  0  0  0  0
  1  2  1  0
  2  3  1  0
  3  4  2  3
  3 19  1  0
  4  5  1  0
  5  6  1  0
  6  7  1  0
  7  8  2  0
  7  9  1  0
  9 10  1  0
 10 11  1  6
 10 15  1  0
 11 12  1  0
 12 13  1  0
 13 14  1  0
 15 16  1  0
 16 17  1  0
 16 18  2  0
 19 20  2  0
 19 34  1  0
 20 21  1  0
 21 22  1  6
 21 32  1  0
 22 23  1  0
 23 24  2  0
 23 25  1  0
 25 26  2  0
 25 27  1  0
 27 28  1  0
 28 29  2  0
 28 30  1  0
 30 31  1  0
 32 33  1  0
 33 34  1  0
M  END
