
     RDKit          3D

 33 33  0  0  0  0  0  0  0  0999 V2000
    6.8850   -4.3390   -3.7110 C   0  0  0  0  0  0  0  0  0  0  0  0
    7.2740   -3.6560   -2.5620 O   0  0  0  0  0  0  0  0  0  0  0  0
    6.2770   -2.7160   -2.2770 C   0  0  0  0  0  0  0  0  0  0  0  0
    6.5750   -1.9150   -1.0650 C   0  0  0  0  0  0  0  0  0  0  0  0
    5.4930   -0.9520   -0.8270 N   0  0  0  0  0  0  0  0  0  0  0  0
    4.1920   -1.4090   -0.5510 C   0  0  0  0  0  0  0  0  0  0  0  0
    4.0390   -2.7010   -0.5170 O   0  0  0  0  0  0  0  0  0  0  0  0
    3.0600   -0.5850   -0.3110 C   0  0  0  0  0  0  0  0  0  0  0  0
    3.0120    0.7140   -0.3020 C   0  0  0  0  0  0  0  0  0  0  0  0
    4.1300    1.4390   -0.5390 O   0  0  0  0  0  0  0  0  0  0  0  0
    4.4300    2.7770   -0.4890 C   0  0  0  0  0  0  0  0  0  0  0  0
    1.7170    1.3950   -0.0280 C   0  0  0  0  0  0  0  0  0  0  0  0
    1.3840    2.7080    0.0480 C   0  0  0  0  0  0  0  0  0  0  0  0
    0.0120    2.8200    0.3350 C   0  0  0  0  0  0  0  0  0  0  0  0
   -0.6550    4.0940    0.4920 C   0  0  0  0  0  0  0  0  0  0  0  0
   -0.0130    5.1880    0.2510 O   0  0  0  0  0  0  0  0  0  0  0  0
   -1.9820    4.2760    0.8950 N   0  0  0  0  0  0  0  0  0  0  0  0
   -2.5410    5.6330    1.0150 C   0  0  0  0  0  0  0  0  0  0  0  0
   -3.9520    5.5740    1.4530 C   0  0  0  0  0  0  0  0  0  0  0  0
   -4.7220    6.7390    1.6450 N   0  0  0  0  0  0  0  0  0  0  0  0
   -4.4730    4.4570    1.6590 O   0  0  0  0  0  0  0  0  0  0  0  0
   -0.4130    1.5260    0.4160 C   0  0  0  0  0  0  0  0  0  0  0  0
   -1.7810    1.0940    0.6990 C   0  0  0  0  0  0  0  0  0  0  0  0
   -1.8350   -0.4430    0.5740 C   0  0  0  0  0  0  0  0  0  0  0  0
   -3.2590   -0.8650    0.8700 C   0  0  0  0  0  0  0  0  0  0  0  0
   -3.4450   -2.6410    0.7380 S   0  0  0  0  0  0  0  0  0  0  0  0
   -5.1120   -3.1990    1.0940 C   0  0  2  0  0  0  0  0  0  0  0  0
   -5.5090   -2.9890    2.5270 C   0  0  0  0  0  0  0  0  0  0  0  0
   -4.6170   -3.7110    3.3550 O   0  0  0  0  0  0  0  0  0  0  0  0
   -5.3310   -4.6140    0.7180 C   0  0  0  0  0  0  0  0  0  0  0  0
   -6.6080   -5.1790    0.9420 N   0  0  0  0  0  0  0  0  0  0  0  0
   -4.3960   -5.2830    0.2140 O   0  0  0  0  0  0  0  0  0  0  0  0
    0.6210    0.7220    0.1960 O   0  0  0  0  0  0  0  0  0  0  0  0
  1  2  1  0
  2  3  1  0
  3  4  1  0
  4  5  1  0
  5  6  1  0
  6  7  2  0
  6  8  1  0
  8  9  2  3
  9 10  1  0
  9 12  1  0
 10 11  1  0
 12 13  2  0
 12 33  1  0
 13 14  1  0
 14 15  1  0
 14 22  2  0
 15 16  2  0
 15 17  1  0
 17 18  1  0
 18 19  1  0
 19 20  1  0
 19 21  2  0
 22 23  1  0
 22 33  1  0
 23 24  1  0
 24 25  1  0
 25 26  1  0
 26 27  1  0
 27 28  1  1
 27 30  1  0
 28 29  1  0
 30 31  1  0
 30 32  2  0
M  END
