
     RDKit          3D

 34 34  0  0  0  0  0  0  0  0999 V2000
   -9.7630    3.3050    0.1170 C   0  0  0  0  0  0  0  0  0  0  0  0
   -8.3820    3.3370   -0.1260 O   0  0  0  0  0  0  0  0  0  0  0  0
   -7.6030    2.2150   -0.0100 C   0  0  0  0  0  0  0  0  0  0  0  0
   -6.2310    2.2850   -0.2540 C   0  0  0  0  0  0  0  0  0  0  0  0
   -5.4170    1.1900   -0.1480 C   0  0  0  0  0  0  0  0  0  0  0  0
   -5.9220   -0.0510    0.2110 C   0  0  0  0  0  0  0  0  0  0  0  0
   -5.2560   -1.1170    0.3420 O   0  0  0  0  0  0  0  0  0  0  0  0
   -4.5240   -2.2150    0.4680 C   0  0  0  0  0  0  0  0  0  0  0  0
   -3.8850   -2.8710   -0.6830 C   0  0  0  0  0  0  0  0  0  0  0  0
   -2.8700   -2.1950   -1.5300 C   0  0  0  0  0  0  0  0  0  0  0  0
   -1.6720   -1.8030   -0.8550 C   0  0  0  0  0  0  0  0  0  0  0  0
   -1.3880   -1.4360    0.1970 O   0  0  0  0  0  0  0  0  0  0  0  0
   -0.3210   -1.9530   -1.9520 N   0  0  0  0  0  0  0  0  0  0  0  0
    0.6820   -1.5440   -1.0510 C   0  0  0  0  0  0  0  0  0  0  0  0
    0.7400   -1.0090    0.0150 O   0  0  0  0  0  0  0  0  0  0  0  0
    2.0120   -1.9130   -1.6590 N   0  0  0  0  0  0  0  0  0  0  0  0
    3.2150   -1.6250   -1.0120 C   0  0  0  0  0  0  0  0  0  0  0  0
    3.4530   -0.1580   -0.7890 C   0  0  0  0  0  0  0  0  0  0  0  0
    2.6240    0.6950   -1.0800 O   0  0  0  0  0  0  0  0  0  0  0  0
    4.7190    0.2170   -0.2170 N   0  0  0  0  0  0  0  0  0  0  0  0
    4.9300    1.6140   -0.0280 C   0  0  0  0  0  0  0  0  0  0  0  0
    6.4190    1.8480    0.4600 C   0  0  1  0  0  0  0  0  0  0  0  0
    6.4290    1.1010    1.7530 C   0  0  0  0  0  0  0  0  0  0  0  0
    7.6490    1.2140    2.3820 O   0  0  0  0  0  0  0  0  0  0  0  0
    7.2020    1.3630   -0.6810 C   0  0  0  0  0  0  0  0  0  0  0  0
    8.6240    1.3630   -0.9100 C   0  0  0  0  0  0  0  0  0  0  0  0
    9.7860    0.5270    0.0630 S   0  0  2  0  0  0  0  0  0  0  0  0
    9.5090   -1.1630    0.2290 N   0  0  0  0  0  0  0  0  0  0  0  0
   10.1550    1.2120    1.3100 O   0  0  0  0  0  0  0  0  0  0  0  0
   11.1570    0.5510   -0.7520 O   0  0  0  0  0  0  0  0  0  0  0  0
   -7.3350   -0.1340    0.4620 C   0  0  0  0  0  0  0  0  0  0  0  0
   -7.8640   -1.3620    0.8150 O   0  0  0  0  0  0  0  0  0  0  0  0
   -9.2640   -1.4190    1.0480 C   0  0  0  0  0  0  0  0  0  0  0  0
   -8.1060    0.9780    0.3460 C   0  0  0  0  0  0  0  0  0  0  0  0
  1  2  1  0
  2  3  1  0
  3  4  2  0
  3 34  1  0
  4  5  1  0
  5  6  2  0
  6  7  1  0
  6 31  1  0
  7  8  1  0
  8  9  1  0
  9 10  1  0
 10 11  1  0
 11 12  2  0
 11 13  1  0
 13 14  1  0
 14 15  2  0
 14 16  1  0
 16 17  1  0
 17 18  1  0
 18 19  2  0
 18 20  1  0
 20 21  1  0
 22 21  1  6
 22 23  1  0
 22 25  1  0
 23 24  1  0
 25 26  1  0
 26 27  1  0
 27 28  1  1
 27 29  2  0
 27 30  2  0
 31 32  1  0
 31 34  2  0
 32 33  1  0
M  END
