
     RDKit          3D

 34 38  0  0  0  0  0  0  0  0999 V2000
   -5.6120   -0.4100   -1.3320 C   0  0  0  0  0  0  0  0  0  0  0  0
   -4.5980    0.7000   -1.1290 C   0  0  1  0  0  0  0  0  0  0  0  0
   -4.5750    1.4280   -2.4970 C   0  0  0  0  0  0  0  0  0  0  0  0
   -5.1000    1.7240   -0.1570 C   0  0  1  0  0  0  0  0  0  0  0  0
   -6.4370    1.4230    0.1510 O   0  0  0  0  0  0  0  0  0  0  0  0
   -4.3510    1.8400    1.1120 C   0  0  0  0  0  0  0  0  0  0  0  0
   -2.8980    1.5600    1.0380 C   0  0  0  0  0  0  0  0  0  0  0  0
   -2.7450    0.1040    0.5220 C   0  0  1  0  0  0  0  0  0  0  0  0
   -3.5390   -0.7070    1.4570 C   0  0  0  0  0  0  0  0  0  0  0  0
   -3.2350    0.2010   -0.8960 C   0  0  1  0  0  0  0  0  0  0  0  0
   -2.9550   -1.1510   -1.5080 C   0  0  0  0  0  0  0  0  0  0  0  0
   -1.4370   -1.2040   -1.7230 C   0  0  0  0  0  0  0  0  0  0  0  0
   -0.7050   -1.1790   -0.3950 C   0  0  2  0  0  0  0  0  0  0  0  0
   -0.8700   -2.5930    0.1670 C   0  0  0  0  0  0  0  0  0  0  0  0
   -1.2870   -0.1190    0.4710 C   0  0  2  0  0  0  0  0  0  0  0  0
   -0.6260   -0.2940    1.7870 C   0  0  0  0  0  0  0  0  0  0  0  0
   -1.2200   -0.5670    2.8490 O   0  0  0  0  0  0  0  0  0  0  0  0
    0.8060   -0.1180    1.7410 C   0  0  0  0  0  0  0  0  0  0  0  0
    1.4530   -0.3770    0.6320 C   0  0  0  0  0  0  0  0  0  0  0  0
    2.9210   -0.1530    0.7120 C   0  0  2  0  0  0  0  0  0  0  0  0
    3.3090    1.2860    0.5190 C   0  0  0  0  0  0  0  0  0  0  0  0
    4.7370    1.4390    1.0640 C   0  0  1  0  0  0  0  0  0  0  0  0
    5.3950    2.6620    0.4110 C   0  0  0  0  0  0  0  0  0  0  0  0
    4.6680    1.6840    2.5010 C   0  0  0  0  0  0  0  0  0  0  0  0
    5.1990    0.9210    3.3440 O   0  0  0  0  0  0  0  0  0  0  0  0
    3.9930    2.7970    2.9730 O   0  0  0  0  0  0  0  0  0  0  0  0
    5.5230    0.2370    0.6730 C   0  0  0  0  0  0  0  0  0  0  0  0
    4.9490   -0.4380   -0.5690 C   0  0  0  0  0  0  0  0  0  0  0  0
    3.6640   -1.1310   -0.0820 C   0  0  1  0  0  0  0  0  0  0  0  0
    4.1800   -2.2760    0.8100 C   0  0  0  0  0  0  0  0  0  0  0  0
    2.9870   -1.7650   -1.2410 C   0  0  0  0  0  0  0  0  0  0  0  0
    1.5400   -2.0940   -1.0140 C   0  0  0  0  0  0  0  0  0  0  0  0
    0.7620   -0.8420   -0.5640 C   0  0  1  0  0  0  0  0  0  0  0  0
    0.9050    0.0930   -1.7590 C   0  0  0  0  0  0  0  0  0  0  0  0
  2  1  1  6
  2  3  1  0
  2  4  1  0
  2 10  1  0
  4  5  1  1
  4  6  1  0
  6  7  1  0
  7  8  1  0
  8  9  1  1
  8 10  1  0
  8 15  1  0
 10 11  1  1
 11 12  1  0
 12 13  1  0
 13 14  1  1
 13 15  1  0
 13 33  1  0
 15 16  1  1
 16 17  2  0
 16 18  1  0
 18 19  2  0
 19 20  1  0
 19 33  1  0
 20 21  1  6
 20 29  1  0
 21 22  1  0
 22 23  1  6
 22 24  1  0
 22 27  1  0
 24 25  2  0
 24 26  1  0
 27 28  1  0
 28 29  1  0
 29 30  1  1
 29 31  1  0
 31 32  1  0
 32 33  1  0
 33 34  1  6
M  END
