
     RDKit          3D

 34 36  0  0  0  0  0  0  0  0999 V2000
   -4.7530    2.9790   -0.7930 C   0  0  0  0  0  0  0  0  0  0  0  0
   -4.3380    3.4420    0.5980 C   0  0  0  0  0  0  0  0  0  0  0  0
   -4.1720    2.2760    1.5500 C   0  0  0  0  0  0  0  0  0  0  0  0
   -3.1070    1.3580    1.0180 C   0  0  0  0  0  0  0  0  0  0  0  0
   -1.9490    1.8760    1.0810 O   0  0  0  0  0  0  0  0  0  0  0  0
   -3.3590    0.0500    0.4990 C   0  0  0  0  0  0  0  0  0  0  0  0
   -4.7080   -0.3170    0.3570 C   0  0  0  0  0  0  0  0  0  0  0  0
   -4.9940   -1.5360   -0.2190 C   0  0  0  0  0  0  0  0  0  0  0  0
   -6.4320   -1.9400   -0.3650 C   0  0  0  0  0  0  0  0  0  0  0  0
   -4.0220   -2.3910   -0.6500 C   0  0  0  0  0  0  0  0  0  0  0  0
   -4.4060   -3.6810   -1.2560 C   0  0  0  0  0  0  0  0  0  0  0  0
   -2.6870   -1.9920   -0.4910 C   0  0  0  0  0  0  0  0  0  0  0  0
   -2.3450   -0.7720    0.0850 C   0  0  0  0  0  0  0  0  0  0  0  0
   -1.0060   -0.4610    0.3470 N   0  0  0  0  0  0  0  0  0  0  0  0
    0.1260   -1.0050   -0.2930 C   0  0  0  0  0  0  0  0  0  0  0  0
   -0.0070   -1.8290   -1.2130 O   0  0  0  0  0  0  0  0  0  0  0  0
    1.4930   -0.6460    0.0670 C   0  0  0  0  0  0  0  0  0  0  0  0
    2.3770   -0.4880   -0.9870 C   0  0  0  0  0  0  0  0  0  0  0  0
    3.6650   -0.0650   -0.7420 C   0  0  0  0  0  0  0  0  0  0  0  0
    4.5930    0.1050   -1.8570 C   0  0  0  0  0  0  0  0  0  0  0  0
    4.2670   -0.1300   -3.0410 O   0  0  0  0  0  0  0  0  0  0  0  0
    5.8980    0.5420   -1.6390 O   0  0  0  0  0  0  0  0  0  0  0  0
    6.8100    0.7150   -2.6790 C   0  0  0  0  0  0  0  0  0  0  0  0
    8.1400    1.1990   -2.1040 C   0  0  0  0  0  0  0  0  0  0  0  0
    9.1080    1.3820   -3.1830 N   0  0  0  0  0  0  0  0  0  0  0  0
    4.0120    0.1810    0.5630 C   0  0  0  0  0  0  0  0  0  0  0  0
    3.1370    0.0210    1.5990 C   0  0  0  0  0  0  0  0  0  0  0  0
    3.7280    0.3720    3.2330 Cl  0  0  0  0  0  0  0  0  0  0  0  0
    1.8430   -0.4030    1.3670 C   0  0  0  0  0  0  0  0  0  0  0  0
    1.0080   -0.6090    2.4920 N   0  0  0  0  0  0  0  0  0  0  0  0
    0.7810    0.2520    3.4890 C   0  0  0  0  0  0  0  0  0  0  0  0
   -0.0630   -0.3260    4.4130 C   0  0  0  0  0  0  0  0  0  0  0  0
   -0.3310   -1.5810    3.9180 C   0  0  0  0  0  0  0  0  0  0  0  0
    0.3240   -1.7710    2.7310 C   0  0  0  0  0  0  0  0  0  0  0  0
  1  2  1  0
  2  3  1  0
  3  4  1  0
  4  5  2  0
  4  6  1  0
  6  7  2  0
  6 13  1  0
  7  8  1  0
  8  9  1  0
  8 10  2  0
 10 11  1  0
 10 12  1  0
 12 13  2  0
 13 14  1  0
 14 15  1  0
 15 16  2  0
 15 17  1  0
 17 18  2  0
 17 29  1  0
 18 19  1  0
 19 20  1  0
 19 26  2  0
 20 21  2  0
 20 22  1  0
 22 23  1  0
 23 24  1  0
 24 25  1  0
 26 27  1  0
 27 28  1  0
 27 29  2  0
 29 30  1  0
 30 31  1  0
 30 34  1  0
 31 32  2  0
 32 33  1  0
 33 34  2  0
M  CHG  1  25   1
M  END
