
     RDKit          3D

 34 34  0  0  0  0  0  0  0  0999 V2000
    8.2280    3.9310    1.1010 C   0  0  0  0  0  0  0  0  0  0  0  0
    8.1560    2.8710    1.8820 C   0  0  0  0  0  0  0  0  0  0  0  0
    7.9780    1.5200    1.2420 C   0  0  2  0  0  0  0  0  0  0  0  0
    8.6470    1.5100    0.0310 O   0  0  0  0  0  0  0  0  0  0  0  0
    6.5320    1.2250    1.0760 C   0  0  0  0  0  0  0  0  0  0  0  0
    6.0330    0.3930    0.1760 C   0  0  0  0  0  0  0  0  0  0  0  0
    6.8730   -0.2620   -0.6720 O   0  0  0  0  0  0  0  0  0  0  0  0
    7.1520   -1.6090   -0.7430 C   0  0  0  0  0  0  0  0  0  0  0  0
    7.7510   -2.2810    0.4420 C   0  0  0  0  0  0  0  0  0  0  0  0
    9.0940   -1.8190    0.8750 C   0  0  0  0  0  0  0  0  0  0  0  0
    4.5960    0.2200    0.1380 C   0  0  0  0  0  0  0  0  0  0  0  0
    3.9170    0.8660    1.0240 O   0  0  0  0  0  0  0  0  0  0  0  0
    3.8830   -0.5820   -0.7760 N   0  0  0  0  0  0  0  0  0  0  0  0
    2.4720   -0.6870   -0.7200 N   0  0  0  0  0  0  0  0  0  0  0  0
    1.7520    0.5250   -0.8370 C   0  0  0  0  0  0  0  0  0  0  0  0
    2.3420    1.6180   -0.9820 O   0  0  0  0  0  0  0  0  0  0  0  0
    0.2860    0.4990   -0.7870 C   0  0  0  0  0  0  0  0  0  0  0  0
   -0.4590    2.1280   -0.9520 S   0  0  0  0  0  0  0  0  0  0  0  0
   -2.2330    1.9470   -0.8650 C   0  0  0  0  0  0  0  0  0  0  0  0
   -2.9420    2.9910   -0.9620 O   0  0  0  0  0  0  0  0  0  0  0  0
   -2.8940    0.7070   -0.6950 N   0  0  0  0  0  0  0  0  0  0  0  0
   -4.2740    0.5720   -0.6270 N   0  0  0  0  0  0  0  0  0  0  0  0
   -4.8360   -0.7100   -0.4440 C   0  0  0  0  0  0  0  0  0  0  0  0
   -4.0930   -1.7330   -0.3430 O   0  0  0  0  0  0  0  0  0  0  0  0
   -6.3280   -0.8710   -0.3680 C   0  0  1  0  0  0  0  0  0  0  0  0
   -6.7950   -0.0160    0.7660 C   0  0  0  0  0  0  0  0  0  0  0  0
   -8.1550   -0.0450    0.9840 O   0  0  0  0  0  0  0  0  0  0  0  0
   -8.3960    0.8140    2.0810 C   0  0  0  0  0  0  0  0  0  0  0  0
   -9.8850    0.7890    2.3310 C   0  0  0  0  0  0  0  0  0  0  0  0
  -10.2110   -0.5510    2.6180 O   0  0  0  0  0  0  0  0  0  0  0  0
   -6.9030   -0.5060   -1.6960 C   0  0  0  0  0  0  0  0  0  0  0  0
   -6.9130   -1.8030   -2.4570 C   0  0  0  0  0  0  0  0  0  0  0  0
   -6.5950   -2.8310   -1.4160 C   0  0  0  0  0  0  0  0  0  0  0  0
   -6.6370   -2.2190   -0.1880 O   0  0  0  0  0  0  0  0  0  0  0  0
  1  2  2  0
  2  3  1  0
  3  4  1  6
  3  5  1  0
  5  6  2  3
  6  7  1  0
  6 11  1  0
  7  8  1  0
  8  9  1  0
  9 10  1  0
 11 12  2  0
 11 13  1  0
 13 14  1  0
 14 15  1  0
 15 16  2  0
 15 17  1  0
 17 18  1  0
 18 19  1  0
 19 20  2  0
 19 21  1  0
 21 22  1  0
 22 23  1  0
 23 24  2  0
 23 25  1  0
 25 26  1  1
 25 31  1  0
 25 34  1  0
 26 27  1  0
 27 28  1  0
 28 29  1  0
 29 30  1  0
 31 32  1  0
 32 33  1  0
 33 34  1  0
M  END
