
     RDKit          3D

 34 34  0  0  0  0  0  0  0  0999 V2000
    7.4320   -4.1660    0.6500 C   0  0  0  0  0  0  0  0  0  0  0  0
    7.3880   -2.8380    0.2290 O   0  0  0  0  0  0  0  0  0  0  0  0
    6.2530   -2.0520    0.2280 C   0  0  0  0  0  0  0  0  0  0  0  0
    5.0260   -2.5060    0.6500 C   0  0  0  0  0  0  0  0  0  0  0  0
    3.9100   -1.6540    0.6230 C   0  0  0  0  0  0  0  0  0  0  0  0
    3.9920   -0.3610    0.1860 C   0  0  0  0  0  0  0  0  0  0  0  0
    2.9050    0.5510    0.1520 N   0  0  0  0  0  0  0  0  0  0  0  0
    1.6940    0.3530    0.8250 C   0  0  0  0  0  0  0  0  0  0  0  0
    1.4300   -0.6360    1.5350 O   0  0  0  0  0  0  0  0  0  0  0  0
    0.6320    1.4140    0.6790 C   0  0  0  0  0  0  0  0  0  0  0  0
   -0.4820    1.0860    1.4010 O   0  0  0  0  0  0  0  0  0  0  0  0
   -1.5180    1.9920    1.3510 C   0  0  0  0  0  0  0  0  0  0  0  0
   -2.0100    2.1650   -0.0440 C   0  0  0  0  0  0  0  0  0  0  0  0
   -2.4720    0.9640   -0.5530 O   0  0  0  0  0  0  0  0  0  0  0  0
   -3.5980    0.5020    0.1600 C   0  0  2  0  0  0  0  0  0  0  0  0
   -3.3080   -0.8910    0.7010 C   0  0  0  0  0  0  0  0  0  0  0  0
   -4.4280   -1.4610    1.4560 C   0  0  0  0  0  0  0  0  0  0  0  0
   -4.6820   -1.0660    2.8000 N   0  0  0  0  0  0  0  0  0  0  0  0
   -5.1780   -2.3150    0.9010 O   0  0  0  0  0  0  0  0  0  0  0  0
   -4.6980    0.4420   -0.8380 C   0  0  0  0  0  0  0  0  0  0  0  0
   -4.4730    0.6220   -2.0840 O   0  0  0  0  0  0  0  0  0  0  0  0
   -6.0580    0.1910   -0.5210 N   0  0  0  0  0  0  0  0  0  0  0  0
   -7.0880    0.1380   -1.5290 C   0  0  1  0  0  0  0  0  0  0  0  0
   -7.8060   -1.1950   -1.5710 C   0  0  0  0  0  0  0  0  0  0  0  0
   -8.7650   -1.1150   -2.5780 O   0  0  0  0  0  0  0  0  0  0  0  0
   -8.1240    1.1930   -1.1960 C   0  0  0  0  0  0  0  0  0  0  0  0
   -8.6370    0.8900    0.0590 O   0  0  0  0  0  0  0  0  0  0  0  0
    5.2610    0.0790   -0.2410 C   0  0  0  0  0  0  0  0  0  0  0  0
    6.3650   -0.7380   -0.2230 C   0  0  0  0  0  0  0  0  0  0  0  0
    7.6410   -0.3090   -0.6500 N   0  0  0  0  0  0  0  0  0  0  0  0
    8.0110    0.9610   -1.1310 C   0  0  0  0  0  0  0  0  0  0  0  0
    7.1710    1.8650   -1.2190 O   0  0  0  0  0  0  0  0  0  0  0  0
    9.7020    1.3270   -1.6360 S   0  0  0  0  0  0  0  0  0  0  0  0
    9.7680    3.0540   -2.1750 C   0  0  0  0  0  0  0  0  0  0  0  0
  1  2  1  0
  2  3  1  0
  3  4  2  0
  3 29  1  0
  4  5  1  0
  5  6  2  0
  6  7  1  0
  6 28  1  0
  7  8  1  0
  8  9  2  0
  8 10  1  0
 10 11  1  0
 11 12  1  0
 12 13  1  0
 13 14  1  0
 14 15  1  0
 15 16  1  6
 15 20  1  0
 16 17  1  0
 17 18  1  0
 17 19  2  0
 20 21  2  0
 20 22  1  0
 22 23  1  0
 23 24  1  1
 23 26  1  0
 24 25  1  0
 26 27  1  0
 28 29  2  0
 29 30  1  0
 30 31  1  0
 31 32  2  0
 31 33  1  0
 33 34  1  0
M  END
