
     RDKit          3D

 24 25  0  0  0  0  0  0  0  0999 V2000
    2.2130   -2.2950   -0.3060 C   0  0  0  0  0  0  0  0  0  0  0  0
    2.1180   -1.0050   -0.9610 N   0  0  0  0  0  0  0  0  0  0  0  0
    3.2710   -0.7960   -1.6980 N   0  0  0  0  0  0  0  0  0  0  0  0
    4.4890   -0.5470   -1.0440 C   0  0  0  0  0  0  0  0  0  0  0  0
    5.6460   -1.6940   -0.6080 P   0  0  0  0  0  0  0  0  0  0  0  0
    7.0800   -0.8760    0.2330 C   0  0  0  0  0  0  0  0  0  0  0  0
    8.1020   -1.4520    0.6760 O   0  0  0  0  0  0  0  0  0  0  0  0
    6.8920    0.4970    0.3220 O   0  0  0  0  0  0  0  0  0  0  0  0
    5.6430    0.9610    0.4210 O   0  0  0  0  0  0  0  0  0  0  0  0
    4.8960    0.7410   -0.6630 O   0  0  0  0  0  0  0  0  0  0  0  0
    1.9580    0.3220    0.2120 P   0  0  0  0  0  0  0  0  0  0  0  0
    2.5910   -0.0380    1.7530 O   0  0  0  0  0  0  0  0  0  0  0  0
    0.0240    1.2700    0.2190 P   0  0  0  0  0  0  0  0  0  0  0  0
    0.0030    2.6540   -0.9830 C   0  0  0  0  0  0  0  0  0  0  0  0
    0.5780    3.7120   -0.7940 O   0  0  0  0  0  0  0  0  0  0  0  0
   -1.3530    0.1250   -0.1260 C   0  0  0  0  0  0  0  0  0  0  0  0
   -1.1180   -1.0600   -0.4640 O   0  0  0  0  0  0  0  0  0  0  0  0
   -2.7190    0.6360    0.0050 C   0  0  0  0  0  0  0  0  0  0  0  0
   -3.1140    1.8440    0.3480 C   0  0  0  0  0  0  0  0  0  0  0  0
   -4.5070    1.9300    0.3570 O   0  0  0  0  0  0  0  0  0  0  0  0
   -4.9600    0.7390   -0.2330 C   0  0  2  0  0  0  0  0  0  0  0  0
   -6.0390    0.1030    0.6200 C   0  0  0  0  0  0  0  0  0  0  0  0
   -6.5030   -1.1240    0.0100 N   0  0  0  0  0  0  0  0  0  0  0  0
   -3.8480   -0.1390   -0.2310 O   0  0  0  0  0  0  0  0  0  0  0  0
  1  2  1  0
  2  3  1  0
  2 11  1  0
  3  4  1  0
  4  5  2  0
  4 10  1  0
  5  6  1  0
  6  7  2  0
  6  8  1  0
  8  9  1  0
  9 10  1  0
 11 12  1  0
 11 13  1  0
 13 14  1  0
 13 16  1  0
 14 15  2  0
 16 17  2  0
 16 18  1  0
 18 19  2  0
 18 24  1  0
 19 20  1  0
 20 21  1  0
 21 22  1  1
 21 24  1  0
 22 23  1  0
M  END
