
     RDKit          3D

 19 18  0  0  0  0  0  0  0  0999 V2000
   -2.9860    0.1290   -0.1150 C   0  0  0  0  0  0  0  0  0  0  0  0
   -2.3140   -0.8940    0.5940 N   0  0  0  0  0  0  0  0  0  0  0  0
   -2.2080   -2.1530   -0.0630 C   0  0  0  0  0  0  0  0  0  0  0  0
   -3.6220   -2.7410   -0.1450 C   0  0  0  0  0  0  0  0  0  0  0  0
   -4.1000   -2.8850    1.1540 O   0  0  0  0  0  0  0  0  0  0  0  0
   -1.1430   -0.4860    1.3150 C   0  0  0  0  0  0  0  0  0  0  0  0
    0.1780    0.2400    0.3330 P   0  0  0  0  0  0  0  0  0  0  0  0
    1.7670    0.0320    0.8990 O   0  0  0  0  0  0  0  0  0  0  0  0
    2.6220    0.0390   -0.2020 C   0  0  0  0  0  0  0  0  0  0  0  0
    4.0590   -0.1350    0.1690 C   0  0  0  0  0  0  0  0  0  0  0  0
    4.3470   -1.3260    0.8340 O   0  0  0  0  0  0  0  0  0  0  0  0
    4.1450   -2.5860    0.3410 C   0  0  0  0  0  0  0  0  0  0  0  0
    3.6590   -2.7130   -0.8100 O   0  0  0  0  0  0  0  0  0  0  0  0
    4.4580   -3.7510    1.0640 O   0  0  0  0  0  0  0  0  0  0  0  0
   -0.1450    1.6080   -0.5670 O   0  0  0  0  0  0  0  0  0  0  0  0
   -0.0910    3.0990    0.2610 P   0  0  0  0  0  0  0  0  0  0  0  0
    1.1270    3.1740    1.4710 O   0  0  0  0  0  0  0  0  0  0  0  0
    0.1580    4.4920   -0.9240 C   0  0  0  0  0  0  0  0  0  0  0  0
   -1.0610    5.0040   -1.3400 O   0  0  0  0  0  0  0  0  0  0  0  0
  1  2  1  0
  2  3  1  0
  2  6  1  0
  3  4  1  0
  4  5  1  0
  6  7  1  0
  7  8  1  0
  7 15  1  0
  8  9  1  0
  9 10  1  0
 10 11  1  0
 11 12  1  0
 12 13  2  0
 12 14  1  0
 15 16  1  0
 16 17  1  0
 16 18  1  0
 18 19  1  0
M  END
