
     RDKit          3D

 26 28  0  0  0  0  0  0  0  0999 V2000
   -3.9840    1.1300   -0.5410 O   0  0  0  0  0  0  0  0  0  0  0  0
   -4.6380   -0.3470   -0.3810 P   0  0  0  0  0  0  0  0  0  0  0  0
   -6.3110   -0.6030   -0.1960 O   0  0  0  0  0  0  0  0  0  0  0  0
   -4.5760   -0.3490    1.1490 O   0  0  0  0  0  0  0  0  0  0  0  0
   -3.6660   -1.7640   -0.6750 C   0  0  1  0  0  0  0  0  0  0  0  0
   -2.2910   -1.3990   -0.9650 N   0  0  0  0  0  0  0  0  0  0  0  0
   -1.5260   -0.5050   -0.1620 C   0  0  0  0  0  0  0  0  0  0  0  0
   -0.1940   -0.2540   -0.5190 C   0  0  0  0  0  0  0  0  0  0  0  0
    0.5850    0.6120    0.2110 C   0  0  0  0  0  0  0  0  0  0  0  0
    1.9880    0.8810   -0.1600 C   0  0  0  0  0  0  0  0  0  0  0  0
    2.8680    1.1730    0.8570 C   0  0  0  0  0  0  0  0  0  0  0  0
    4.2090    1.4370    0.5770 C   0  0  0  0  0  0  0  0  0  0  0  0
    4.6190    1.3970   -0.7290 C   0  0  0  0  0  0  0  0  0  0  0  0
    5.9190    1.6450   -1.0810 O   0  0  0  0  0  0  0  0  0  0  0  0
    6.9420    1.9530   -0.2120 C   0  0  2  0  0  0  0  0  0  0  0  0
    8.1230    2.7110   -0.6820 C   0  0  0  0  0  0  0  0  0  0  0  0
    8.2910    1.3400   -0.4960 C   0  0  0  0  0  0  0  0  0  0  0  0
    3.7120    1.0970   -1.7660 C   0  0  0  0  0  0  0  0  0  0  0  0
    2.4100    0.8440   -1.4640 C   0  0  0  0  0  0  0  0  0  0  0  0
    0.0200    1.2280    1.3060 C   0  0  0  0  0  0  0  0  0  0  0  0
   -1.2990    0.9820    1.6640 C   0  0  0  0  0  0  0  0  0  0  0  0
   -2.0130    0.1290    0.9170 N   0  0  0  0  0  0  0  0  0  0  0  0
   -3.7670   -2.8630    0.6610 P   0  0  0  0  0  0  0  0  0  0  0  0
   -4.8430   -2.6390    1.8970 O   0  0  0  0  0  0  0  0  0  0  0  0
   -2.8970   -4.3140    0.6490 O   0  0  0  0  0  0  0  0  0  0  0  0
   -2.6560   -2.2790    1.5100 O   0  0  0  0  0  0  0  0  0  0  0  0
  1  2  1  0
  2  3  1  0
  2  4  1  0
  2  5  1  0
  5  6  1  1
  5 23  1  0
  6  7  1  0
  7  8  2  0
  7 22  1  0
  8  9  1  0
  9 10  1  0
  9 20  2  0
 10 11  2  0
 10 19  1  0
 11 12  1  0
 12 13  2  0
 13 14  1  0
 13 18  1  0
 15 14  1  6
 15 16  1  0
 15 17  1  0
 16 17  2  0
 18 19  2  0
 20 21  1  0
 21 22  2  0
 23 24  1  0
 23 25  1  0
 23 26  1  0
M  END
