
     RDKit          3D

 18 17  0  0  0  0  0  0  0  0999 V2000
   -4.7210   -1.1070    0.3530 C   0  0  0  0  0  0  0  0  0  0  0  0
   -4.2540    0.1370   -0.3430 C   0  0  1  0  0  0  0  0  0  0  0  0
   -3.2730   -0.2140   -1.4570 C   0  0  0  0  0  0  0  0  0  0  0  0
   -5.4880    0.7000   -1.0730 C   0  0  0  0  0  0  0  0  0  0  0  0
   -3.8160    1.1250    0.4840 O   0  0  0  0  0  0  0  0  0  0  0  0
   -2.7640    0.8400    1.2990 C   0  0  0  0  0  0  0  0  0  0  0  0
   -1.5580    0.4650    0.5840 N   0  0  0  0  0  0  0  0  0  0  0  0
   -0.4710    0.1680    1.4960 C   0  0  0  0  0  0  0  0  0  0  0  0
    0.7700   -0.2180    0.7230 C   0  0  0  0  0  0  0  0  0  0  0  0
    1.1710    0.8100   -0.1140 O   0  0  0  0  0  0  0  0  0  0  0  0
    2.5920    0.3220   -0.9770 P   0  0  0  0  0  0  0  0  0  0  0  0
    3.0050   -1.2960   -0.5720 O   0  0  0  0  0  0  0  0  0  0  0  0
    3.8880    1.4290   -0.7810 O   0  0  0  0  0  0  0  0  0  0  0  0
    4.9850    0.9960    0.4650 P   0  0  0  0  0  0  0  0  0  0  0  0
    4.3660   -0.1760    1.5550 O   0  0  0  0  0  0  0  0  0  0  0  0
    6.6490    0.5320   -0.1660 C   0  0  0  0  0  0  0  0  0  0  0  0
    6.6440    0.2750   -1.5440 O   0  0  0  0  0  0  0  0  0  0  0  0
    7.8970   -0.0430   -1.8530 O   0  0  0  0  0  0  0  0  0  0  0  0
  2  1  1  1
  2  3  1  0
  2  4  1  0
  2  5  1  0
  5  6  1  0
  6  7  1  0
  7  8  1  0
  8  9  1  0
  9 10  1  0
 10 11  1  0
 11 12  1  0
 11 13  1  0
 13 14  1  0
 14 15  1  0
 14 16  1  0
 16 17  1  0
 17 18  1  0
M  END
