
     RDKit          3D

 23 24  0  0  0  0  0  0  0  0999 V2000
   -3.0090    4.3150    0.7630 O   0  0  0  0  0  0  0  0  0  0  0  0
   -1.8750    4.4480    0.2320 C   0  0  0  0  0  0  0  0  0  0  0  0
   -1.3040    5.6980    0.0510 O   0  0  0  0  0  0  0  0  0  0  0  0
   -1.1260    3.2690   -0.2120 C   0  0  0  0  0  0  0  0  0  0  0  0
   -2.1180    1.7140    0.1460 P   0  0  0  0  0  0  0  0  0  0  0  0
   -3.7610    1.6630    0.1460 O   0  0  0  0  0  0  0  0  0  0  0  0
   -4.4380    0.5640    0.1580 O   0  0  0  0  0  0  0  0  0  0  0  0
   -3.6770   -0.8980    0.1740 P   0  0  0  0  0  0  0  0  0  0  0  0
   -4.5770   -2.2840    0.7080 O   0  0  0  0  0  0  0  0  0  0  0  0
   -1.9630   -0.9990    0.1750 N   0  0  0  0  0  0  0  0  0  0  0  0
   -1.3530   -2.3220    0.1570 C   0  0  0  0  0  0  0  0  0  0  0  0
   -1.1770   -2.9490   -1.5820 P   0  0  0  0  0  0  0  0  0  0  0  0
   -1.0960   -4.6830   -1.6130 O   0  0  0  0  0  0  0  0  0  0  0  0
   -1.2770    0.1560    0.1640 C   0  0  0  0  0  0  0  0  0  0  0  0
   -0.0510    0.1950    0.1810 N   0  0  0  0  0  0  0  0  0  0  0  0
    1.1020   -0.4530    0.2010 N   0  0  0  0  0  0  0  0  0  0  0  0
    1.9670   -0.8080    1.3530 C   0  0  0  0  0  0  0  0  0  0  0  0
    3.3200   -0.6430    0.7790 C   0  0  0  0  0  0  0  0  0  0  0  0
    4.3430   -0.5660    1.4390 O   0  0  0  0  0  0  0  0  0  0  0  0
    3.2710   -0.5860   -0.6880 C   0  0  2  0  0  0  0  0  0  0  0  0
    3.5410    0.7630   -1.2660 C   0  0  0  0  0  0  0  0  0  0  0  0
    4.8200    1.1530   -0.8690 O   0  0  0  0  0  0  0  0  0  0  0  0
    1.8250   -0.9620   -0.9900 C   0  0  0  0  0  0  0  0  0  0  0  0
  1  2  2  0
  2  3  1  0
  2  4  1  0
  4  5  1  0
  5  6  1  0
  5 14  1  0
  6  7  1  0
  7  8  1  0
  8  9  1  0
  8 10  1  0
 10 11  1  0
 10 14  1  0
 11 12  1  0
 12 13  1  0
 14 15  2  3
 15 16  1  0
 16 17  1  0
 16 23  1  0
 17 18  1  0
 18 19  2  0
 18 20  1  0
 20 21  1  1
 20 23  1  0
 21 22  1  0
M  END
