
     RDKit          3D

 18 17  0  0  0  0  0  0  0  0999 V2000
   -3.4710   -2.3010   -0.1050 C   0  0  0  0  0  0  0  0  0  0  0  0
   -2.0490   -1.1560   -0.4180 P   0  0  0  0  0  0  0  0  0  0  0  0
   -0.6040   -1.4860    0.6370 C   0  0  0  0  0  0  0  0  0  0  0  0
    0.6740   -1.5460   -0.0770 C   0  0  0  0  0  0  0  0  0  0  0  0
    0.7160   -1.3750   -1.3270 O   0  0  0  0  0  0  0  0  0  0  0  0
    1.8600   -1.7970    0.6570 N   0  0  0  0  0  0  0  0  0  0  0  0
    3.1530   -1.8730    0.0450 C   0  0  0  0  0  0  0  0  0  0  0  0
    3.5620   -0.6200   -0.6600 C   0  0  0  0  0  0  0  0  0  0  0  0
    3.6240    0.5760    0.2610 C   0  0  0  0  0  0  0  0  0  0  0  0
    4.1280    2.1090   -0.6170 P   0  0  0  0  0  0  0  0  0  0  0  0
    2.7780    3.0820   -1.0950 O   0  0  0  0  0  0  0  0  0  0  0  0
    5.1820    1.8090   -1.9460 O   0  0  0  0  0  0  0  0  0  0  0  0
   -2.5440    0.4800   -0.4700 O   0  0  0  0  0  0  0  0  0  0  0  0
   -3.7060    0.6120    0.2890 C   0  0  0  0  0  0  0  0  0  0  0  0
   -4.1250    2.0370    0.2360 C   0  0  0  0  0  0  0  0  0  0  0  0
   -3.4790    2.9030   -0.4090 O   0  0  0  0  0  0  0  0  0  0  0  0
   -5.2630    2.4520    0.9120 O   0  0  0  0  0  0  0  0  0  0  0  0
   -5.6680    3.7390    0.8820 O   0  0  0  0  0  0  0  0  0  0  0  0
  1  2  1  0
  2  3  1  0
  2 13  1  0
  3  4  1  0
  4  5  2  0
  4  6  1  0
  6  7  1  0
  7  8  1  0
  8  9  1  0
  9 10  1  0
 10 11  1  0
 10 12  1  0
 13 14  1  0
 14 15  1  0
 15 16  2  0
 15 17  1  0
 17 18  1  0
M  END
