
     RDKit          3D

 21 21  0  0  0  0  0  0  0  0999 V2000
   -6.0250   -0.1690   -0.0220 C   0  0  0  0  0  0  0  0  0  0  0  0
   -5.1620    0.9840    0.5070 C   0  0  2  0  0  0  0  0  0  0  0  0
   -3.9080    0.4710    0.8970 O   0  0  0  0  0  0  0  0  0  0  0  0
   -2.7600    0.8780    0.3110 N   0  0  0  0  0  0  0  0  0  0  0  0
   -1.7710    0.0800    0.1120 C   0  0  0  0  0  0  0  0  0  0  0  0
   -1.7410   -1.3450    0.4780 C   0  0  0  0  0  0  0  0  0  0  0  0
   -0.3110   -1.5790    0.5120 N   0  0  0  0  0  0  0  0  0  0  0  0
    0.3260   -0.5790   -0.2690 C   0  0  0  0  0  0  0  0  0  0  0  0
    1.7310   -0.6180   -0.7480 C   0  0  0  0  0  0  0  0  0  0  0  0
    2.1500    0.3420   -1.4290 O   0  0  0  0  0  0  0  0  0  0  0  0
    2.5800   -1.6320   -0.4880 O   0  0  0  0  0  0  0  0  0  0  0  0
    3.8850   -1.8760   -0.7970 C   0  0  0  0  0  0  0  0  0  0  0  0
    4.9730   -1.0790   -0.1910 C   0  0  0  0  0  0  0  0  0  0  0  0
    4.9190    0.3940   -0.4260 C   0  0  0  0  0  0  0  0  0  0  0  0
    6.0790    0.9520    0.1770 O   0  0  0  0  0  0  0  0  0  0  0  0
    6.1060    2.2590    0.0130 O   0  0  0  0  0  0  0  0  0  0  0  0
    6.4090    2.4880   -1.2530 O   0  0  0  0  0  0  0  0  0  0  0  0
   -0.5190    0.3430   -0.4800 N   0  0  0  0  0  0  0  0  0  0  0  0
   -5.8410    1.6070    1.6490 C   0  0  0  0  0  0  0  0  0  0  0  0
   -6.9820    2.1270    1.5050 O   0  0  0  0  0  0  0  0  0  0  0  0
   -5.2130    1.6180    2.8850 O   0  0  0  0  0  0  0  0  0  0  0  0
  2  1  1  1
  2  3  1  0
  2 19  1  0
  3  4  1  0
  4  5  2  3
  5  6  1  0
  5 18  1  0
  6  7  1  0
  7  8  1  0
  8  9  1  0
  8 18  2  0
  9 10  2  0
  9 11  1  0
 11 12  1  0
 12 13  1  0
 13 14  1  0
 14 15  1  0
 15 16  1  0
 16 17  1  0
 19 20  2  0
 19 21  1  0
M  END
