
     RDKit          3D

 21 22  0  0  0  0  0  0  0  0999 V2000
   -6.0510   -0.4520    0.0070 O   0  0  0  0  0  0  0  0  0  0  0  0
   -5.0910    0.3050   -0.3130 C   0  0  0  0  0  0  0  0  0  0  0  0
   -3.7300    0.3220    0.3410 C   0  0  0  0  0  0  0  0  0  0  0  0
   -2.8390    0.6430   -0.7510 N   0  0  0  0  0  0  0  0  0  0  0  0
   -1.5010    0.2730   -1.0080 C   0  0  0  0  0  0  0  0  0  0  0  0
   -0.9930    0.7200   -2.1020 O   0  0  0  0  0  0  0  0  0  0  0  0
   -0.6890   -0.5310   -0.1770 N   0  0  0  0  0  0  0  0  0  0  0  0
   -0.9970   -1.1450    1.0860 C   0  0  0  0  0  0  0  0  0  0  0  0
    0.3100   -1.6250    1.6990 C   0  0  0  0  0  0  0  0  0  0  0  0
    1.3910   -1.0380    0.8440 C   0  0  2  0  0  0  0  0  0  0  0  0
    1.9180    0.1250    1.3000 O   0  0  0  0  0  0  0  0  0  0  0  0
    3.2640    0.2060    1.4750 C   0  0  0  0  0  0  0  0  0  0  0  0
    3.9640   -0.0050    0.1530 C   0  0  0  0  0  0  0  0  0  0  0  0
    3.5700    0.9720   -0.7810 O   0  0  0  0  0  0  0  0  0  0  0  0
    4.2020    0.7490   -1.9090 O   0  0  0  0  0  0  0  0  0  0  0  0
    5.3290    1.4220   -1.8740 O   0  0  0  0  0  0  0  0  0  0  0  0
    0.6840   -0.9140   -0.4590 C   0  0  0  0  0  0  0  0  0  0  0  0
    1.1030   -1.0850   -1.6340 O   0  0  0  0  0  0  0  0  0  0  0  0
   -3.6540    1.5070   -1.5920 C   0  0  0  0  0  0  0  0  0  0  0  0
   -3.1420    2.3100   -2.4270 O   0  0  0  0  0  0  0  0  0  0  0  0
   -5.0270    1.2960   -1.3190 N   0  0  0  0  0  0  0  0  0  0  0  0
  1  2  2  0
  2  3  1  0
  2 21  1  0
  3  4  1  0
  4  5  1  0
  4 19  1  0
  5  6  2  0
  5  7  1  0
  7  8  1  0
  7 17  1  0
  8  9  1  0
  9 10  1  0
 10 11  1  1
 10 17  1  0
 11 12  1  0
 12 13  1  0
 13 14  1  0
 14 15  1  0
 15 16  1  0
 17 18  2  0
 19 20  2  0
 19 21  1  0
M  END
