
     RDKit          3D

 21 21  0  0  0  0  0  0  0  0999 V2000
    1.0320    3.0650   -0.9910 C   0  0  0  0  0  0  0  0  0  0  0  0
    0.2430    1.9110   -0.4960 N   0  0  0  0  0  0  0  0  0  0  0  0
   -1.0430    2.2560    0.0090 C   0  0  0  0  0  0  0  0  0  0  0  0
   -1.0730    3.2590    0.8090 O   0  0  0  0  0  0  0  0  0  0  0  0
   -2.3200    1.5750   -0.3000 C   0  0  0  0  0  0  0  0  0  0  0  0
   -2.4930    0.5390    0.5460 O   0  0  0  0  0  0  0  0  0  0  0  0
   -3.5330   -0.2360    0.3870 O   0  0  0  0  0  0  0  0  0  0  0  0
   -3.4340   -1.5780    0.7350 C   0  0  0  0  0  0  0  0  0  0  0  0
   -4.3490   -2.1380    1.4490 O   0  0  0  0  0  0  0  0  0  0  0  0
   -2.3190   -2.3480    0.3040 N   0  0  0  0  0  0  0  0  0  0  0  0
   -1.6820   -2.0930   -0.9460 C   0  0  0  0  0  0  0  0  0  0  0  0
   -0.2190   -2.2730   -0.9310 C   0  0  0  0  0  0  0  0  0  0  0  0
    0.2620   -2.9720   -1.8900 O   0  0  0  0  0  0  0  0  0  0  0  0
    0.6760   -1.7650    0.0080 N   0  0  0  0  0  0  0  0  0  0  0  0
    0.7450   -0.4200    0.5260 C   0  0  1  0  0  0  0  0  0  0  0  0
    2.0880   -0.2160    1.2650 C   0  0  0  0  0  0  0  0  0  0  0  0
    3.0930   -0.4490    0.2790 O   0  0  0  0  0  0  0  0  0  0  0  0
    4.4370   -0.3650    0.5370 C   0  0  0  0  0  0  0  0  0  0  0  0
    4.8100   -0.0680    1.6980 O   0  0  0  0  0  0  0  0  0  0  0  0
    0.7790    0.6020   -0.5490 C   0  0  0  0  0  0  0  0  0  0  0  0
    1.3470    0.2680   -1.6250 O   0  0  0  0  0  0  0  0  0  0  0  0
  1  2  1  0
  2  3  1  0
  2 20  1  0
  3  4  2  0
  3  5  1  0
  5  6  1  0
  6  7  1  0
  7  8  1  0
  8  9  2  0
  8 10  1  0
 10 11  1  0
 11 12  1  0
 12 13  2  0
 12 14  1  0
 14 15  1  0
 15 16  1  6
 15 20  1  0
 16 17  1  0
 17 18  1  0
 18 19  2  0
 20 21  2  0
M  END
