
     RDKit          3D

 21 20  0  0  0  0  0  0  0  0999 V2000
    7.1410    0.6600   -1.5000 C   0  0  0  0  0  0  0  0  0  0  0  0
    5.8590    1.2350   -1.2760 O   0  0  0  0  0  0  0  0  0  0  0  0
    4.7600    0.4710   -1.0160 C   0  0  0  0  0  0  0  0  0  0  0  0
    4.9160   -0.7800   -0.9770 O   0  0  0  0  0  0  0  0  0  0  0  0
    3.4360    0.9790   -0.7780 N   0  0  0  0  0  0  0  0  0  0  0  0
    2.3980    0.0900   -0.5200 N   0  0  0  0  0  0  0  0  0  0  0  0
    1.7090   -0.0380    0.7100 C   0  0  0  0  0  0  0  0  0  0  0  0
    2.0440    0.7070    1.6640 O   0  0  0  0  0  0  0  0  0  0  0  0
    0.6350   -1.0230    0.8660 C   0  0  1  0  0  0  0  0  0  0  0  0
    1.0670   -2.3880    0.3360 C   0  0  0  0  0  0  0  0  0  0  0  0
    0.3790   -1.1720    2.3200 N   0  0  0  0  0  0  0  0  0  0  0  0
   -0.6360   -0.6970    0.1830 C   0  0  0  0  0  0  0  0  0  0  0  0
   -0.6320   -0.1500   -0.9240 O   0  0  0  0  0  0  0  0  0  0  0  0
   -1.8030   -1.0060    0.7760 O   0  0  0  0  0  0  0  0  0  0  0  0
   -3.1190   -0.8760    0.5300 C   0  0  0  0  0  0  0  0  0  0  0  0
   -3.6980    0.4740    0.6380 C   0  0  1  0  0  0  0  0  0  0  0  0
   -3.1230    1.4840   -0.2800 C   0  0  0  0  0  0  0  0  0  0  0  0
   -3.8150    2.7190   -0.0840 O   0  0  0  0  0  0  0  0  0  0  0  0
   -5.5610    0.3920    0.5470 P   0  0  0  0  0  0  0  0  0  0  0  0
   -6.2060    1.9600    0.2860 O   0  0  0  0  0  0  0  0  0  0  0  0
   -6.0970   -0.7320   -0.6110 O   0  0  0  0  0  0  0  0  0  0  0  0
  1  2  1  0
  2  3  1  0
  3  4  2  0
  3  5  1  0
  5  6  1  0
  6  7  1  0
  7  8  2  0
  7  9  1  0
  9 10  1  6
  9 11  1  0
  9 12  1  0
 12 13  2  0
 12 14  1  0
 14 15  1  0
 16 15  1  6
 16 17  1  0
 16 19  1  0
 17 18  1  0
 19 20  1  0
 19 21  1  0
M  END
