
     RDKit          3D

 21 22  0  0  0  0  0  0  0  0999 V2000
    7.5700    0.9940   -2.2740 O   0  0  0  0  0  0  0  0  0  0  0  0
    6.6200    0.6740   -1.5130 C   0  0  0  0  0  0  0  0  0  0  0  0
    5.2620    0.3970   -1.9690 C   0  0  0  0  0  0  0  0  0  0  0  0
    4.4890    0.0880   -0.9300 C   0  0  0  0  0  0  0  0  0  0  0  0
    3.1060   -0.2480   -0.9360 N   0  0  0  0  0  0  0  0  0  0  0  0
    2.3330    0.0110    0.0470 C   0  0  0  0  0  0  0  0  0  0  0  0
    0.9360   -0.3580   -0.0260 C   0  0  0  0  0  0  0  0  0  0  0  0
    0.2910   -0.9770   -1.0520 N   0  0  0  0  0  0  0  0  0  0  0  0
   -0.9620   -1.1410   -0.7490 O   0  0  0  0  0  0  0  0  0  0  0  0
   -1.2120   -0.6600    0.4470 C   0  0  0  0  0  0  0  0  0  0  0  0
   -2.5110   -0.6410    1.1810 C   0  0  1  0  0  0  0  0  0  0  0  0
   -2.3130   -1.0470    2.5360 O   0  0  0  0  0  0  0  0  0  0  0  0
   -2.9440    0.7990    1.2800 C   0  0  0  0  0  0  0  0  0  0  0  0
   -3.1420    1.3420    0.0460 O   0  0  0  0  0  0  0  0  0  0  0  0
   -4.1350    0.6900   -0.6470 C   0  0  0  0  0  0  0  0  0  0  0  0
   -5.3090    0.8070    0.1340 O   0  0  0  0  0  0  0  0  0  0  0  0
   -6.3020    0.2080   -0.4630 O   0  0  0  0  0  0  0  0  0  0  0  0
   -0.0390   -0.1760    0.8950 N   0  0  0  0  0  0  0  0  0  0  0  0
    5.3090    0.1460    0.2760 C   0  0  0  0  0  0  0  0  0  0  0  0
    4.9170   -0.0870    1.4500 O   0  0  0  0  0  0  0  0  0  0  0  0
    6.6050    0.5080   -0.1340 O   0  0  0  0  0  0  0  0  0  0  0  0
  1  2  2  0
  2  3  1  0
  2 21  1  0
  3  4  2  0
  4  5  1  0
  4 19  1  0
  5  6  2  3
  6  7  1  0
  7  8  2  0
  7 18  1  0
  8  9  1  0
  9 10  1  0
 10 11  1  0
 10 18  2  0
 11 12  1  1
 11 13  1  0
 13 14  1  0
 14 15  1  0
 15 16  1  0
 16 17  1  0
 19 20  2  0
 19 21  1  0
M  END
