
     RDKit          3D

 21 21  0  0  0  0  0  0  0  0999 V2000
    5.9890   -0.4040    1.0460 C   0  0  0  0  0  0  0  0  0  0  0  0
    4.5150   -0.6420    1.0550 C   0  0  0  0  0  0  0  0  0  0  0  0
    3.7470    0.2920    1.3940 O   0  0  0  0  0  0  0  0  0  0  0  0
    3.9460   -1.8860    0.6920 N   0  0  0  0  0  0  0  0  0  0  0  0
    2.5670   -2.0010    0.7310 O   0  0  0  0  0  0  0  0  0  0  0  0
    1.8250   -1.0700    0.0190 C   0  0  0  0  0  0  0  0  0  0  0  0
    0.4460   -0.8050    0.3430 C   0  0  0  0  0  0  0  0  0  0  0  0
   -0.2100    0.0490   -0.3140 N   0  0  0  0  0  0  0  0  0  0  0  0
   -1.5400    0.4910   -0.2090 C   0  0  2  0  0  0  0  0  0  0  0  0
   -1.7530    1.8800    0.2820 C   0  0  0  0  0  0  0  0  0  0  0  0
   -2.8930    2.3470    0.4410 O   0  0  0  0  0  0  0  0  0  0  0  0
   -0.6330    2.6460    0.5590 O   0  0  0  0  0  0  0  0  0  0  0  0
   -2.4410   -0.5390    0.4460 C   0  0  0  0  0  0  0  0  0  0  0  0
   -3.5040    0.0210   -0.4040 N   0  0  0  0  0  0  0  0  0  0  0  0
   -4.8910    0.2380   -0.2620 C   0  0  0  0  0  0  0  0  0  0  0  0
   -5.4730    0.7680   -1.2670 O   0  0  0  0  0  0  0  0  0  0  0  0
   -5.6330   -0.0660    0.8340 O   0  0  0  0  0  0  0  0  0  0  0  0
   -6.9540    0.1900    0.8510 O   0  0  0  0  0  0  0  0  0  0  0  0
   -2.4530    0.2200   -1.3890 C   0  0  0  0  0  0  0  0  0  0  0  0
    2.4100   -0.4290   -0.9670 C   0  0  0  0  0  0  0  0  0  0  0  0
    1.6800    0.5010   -1.6820 O   0  0  0  0  0  0  0  0  0  0  0  0
  1  2  1  0
  2  3  2  0
  2  4  1  0
  4  5  1  0
  5  6  1  0
  6  7  1  0
  6 20  2  3
  7  8  2  3
  9  8  1  6
  9 10  1  0
  9 13  1  0
  9 19  1  0
 10 11  2  0
 10 12  1  0
 13 14  1  0
 14 15  1  0
 14 19  1  0
 15 16  2  0
 15 17  1  0
 17 18  1  0
 20 21  1  0
M  END
