
     RDKit          3D

 21 21  0  0  0  0  0  0  0  0999 V2000
   -3.7400    3.4460   -0.4630 O   0  0  0  0  0  0  0  0  0  0  0  0
   -2.8160    2.8140    0.1250 C   0  0  0  0  0  0  0  0  0  0  0  0
   -2.7210    1.4530   -0.0830 O   0  0  0  0  0  0  0  0  0  0  0  0
   -3.5940    0.7480   -0.9090 C   0  0  0  0  0  0  0  0  0  0  0  0
   -3.3110   -0.6940   -0.9880 C   0  0  0  0  0  0  0  0  0  0  0  0
   -4.1040   -1.3470   -1.7650 O   0  0  0  0  0  0  0  0  0  0  0  0
   -2.2780   -1.3820   -0.3030 N   0  0  0  0  0  0  0  0  0  0  0  0
   -2.0270   -2.7910   -0.4290 C   0  0  0  0  0  0  0  0  0  0  0  0
   -2.4560   -3.5420   -1.3490 O   0  0  0  0  0  0  0  0  0  0  0  0
   -1.2120   -3.2170    0.6560 N   0  0  0  0  0  0  0  0  0  0  0  0
   -0.9690   -2.0680    1.4380 C   0  0  0  0  0  0  0  0  0  0  0  0
   -0.5550   -2.0030    2.6150 O   0  0  0  0  0  0  0  0  0  0  0  0
   -1.2980   -0.8920    0.6020 C   0  0  1  0  0  0  0  0  0  0  0  0
   -0.0200   -0.5190   -0.0840 C   0  0  0  0  0  0  0  0  0  0  0  0
    0.0460   -0.6730   -1.3260 O   0  0  0  0  0  0  0  0  0  0  0  0
    1.1010   -0.0100    0.5900 N   0  0  0  0  0  0  0  0  0  0  0  0
    2.3430    0.3620   -0.0010 C   0  0  0  0  0  0  0  0  0  0  0  0
    3.2740    0.8600    1.0820 C   0  0  0  0  0  0  0  0  0  0  0  0
    4.9190    1.3660    0.3880 P   0  0  0  0  0  0  0  0  0  0  0  0
    5.9500   -0.0160    0.1890 O   0  0  0  0  0  0  0  0  0  0  0  0
    4.7310    2.2160   -1.0950 O   0  0  0  0  0  0  0  0  0  0  0  0
  1  2  2  0
  2  3  1  0
  3  4  1  0
  4  5  1  0
  5  6  2  0
  5  7  1  0
  7  8  1  0
  7 13  1  0
  8  9  2  0
  8 10  1  0
 10 11  1  0
 11 12  2  0
 11 13  1  0
 13 14  1  6
 14 15  2  0
 14 16  1  0
 16 17  1  0
 17 18  1  0
 18 19  1  0
 19 20  1  0
 19 21  1  0
M  END
