
     RDKit          3D

 20 20  0  0  0  0  0  0  0  0999 V2000
   -2.8150    1.2390    1.0530 C   0  0  0  0  0  0  0  0  0  0  0  0
   -2.6370    0.9730   -0.4370 C   0  0  2  0  0  0  0  0  0  0  0  0
   -3.8250    0.1850   -0.9170 C   0  0  0  0  0  0  0  0  0  0  0  0
   -5.0230    0.8720   -0.7210 O   0  0  0  0  0  0  0  0  0  0  0  0
   -6.3890   -0.0040   -1.2590 P   0  0  0  0  0  0  0  0  0  0  0  0
   -6.0760   -1.6590   -1.5850 O   0  0  0  0  0  0  0  0  0  0  0  0
   -7.7450    0.2090   -0.2020 O   0  0  0  0  0  0  0  0  0  0  0  0
   -1.4250    0.1240   -0.5780 C   0  0  0  0  0  0  0  0  0  0  0  0
   -1.4810   -1.0180   -1.0980 O   0  0  0  0  0  0  0  0  0  0  0  0
   -0.1690    0.6040   -0.1170 N   0  0  0  0  0  0  0  0  0  0  0  0
    1.0160   -0.1720   -0.2300 C   0  0  0  0  0  0  0  0  0  0  0  0
    0.9590   -1.3130   -0.7510 O   0  0  0  0  0  0  0  0  0  0  0  0
    2.2480    0.2760    0.2130 O   0  0  0  0  0  0  0  0  0  0  0  0
    3.3770   -0.5460    0.0670 C   0  0  2  0  0  0  0  0  0  0  0  0
    3.9610   -0.9210    1.4070 C   0  0  0  0  0  0  0  0  0  0  0  0
    5.3900   -1.0090    1.4250 N   0  0  0  0  0  0  0  0  0  0  0  0
    6.1140    0.1060    0.8740 C   0  0  0  0  0  0  0  0  0  0  0  0
    7.2710    0.3820    1.2450 O   0  0  0  0  0  0  0  0  0  0  0  0
    5.4080    0.8560   -0.1140 N   0  0  0  0  0  0  0  0  0  0  0  0
    4.3470    0.1860   -0.8310 C   0  0  0  0  0  0  0  0  0  0  0  0
  2  1  1  1
  2  3  1  0
  2  8  1  0
  3  4  1  0
  4  5  1  0
  5  6  1  0
  5  7  1  0
  8  9  2  0
  8 10  1  0
 10 11  1  0
 11 12  2  0
 11 13  1  0
 14 13  1  1
 14 15  1  0
 14 20  1  0
 15 16  1  0
 16 17  1  0
 17 18  2  0
 17 19  1  0
 19 20  1  0
M  END
