
     RDKit          3D

 43 45  0  0  0  0  0  0  0  0999 V2000
    1.2880    6.6420   -1.0860 C   0  0  0  0  0  0  0  0  0  0  0  0
    1.2760    5.3200   -1.0500 C   0  0  0  0  0  0  0  0  0  0  0  0
    2.3480    4.5120   -0.4240 C   0  0  0  0  0  0  0  0  0  0  0  0
    1.9410    3.6920    0.6300 O   0  0  0  0  0  0  0  0  0  0  0  0
    1.0080    2.7000    0.5040 C   0  0  0  0  0  0  0  0  0  0  0  0
    1.4210    1.4680    0.1540 C   0  0  0  0  0  0  0  0  0  0  0  0
    2.8080    1.1850   -0.0790 C   0  0  0  0  0  0  0  0  0  0  0  0
    3.3970    0.0910   -0.4230 C   0  0  0  0  0  0  0  0  0  0  0  0
    2.6890   -1.5100   -0.7400 S   0  0  0  0  0  0  0  0  0  0  0  0
    4.2400   -2.4110   -0.4710 C   0  0  0  0  0  0  0  0  0  0  0  0
    4.2650   -3.6180   -0.2020 O   0  0  0  0  0  0  0  0  0  0  0  0
    5.2320   -1.4240   -0.6470 N   0  0  0  0  0  0  0  0  0  0  0  0
    6.6390   -1.8340   -0.8390 C   0  0  0  0  0  0  0  0  0  0  0  0
    7.2310   -1.9040    0.5260 C   0  0  0  0  0  0  0  0  0  0  0  0
    6.5750   -1.6490    1.5360 O   0  0  0  0  0  0  0  0  0  0  0  0
    8.6560   -2.2900    0.7420 C   0  0  2  0  0  0  0  0  0  0  0  0
    9.0130   -2.2870    2.2080 C   0  0  0  0  0  0  0  0  0  0  0  0
    9.5100   -1.3070   -0.0210 C   0  0  0  0  0  0  0  0  0  0  0  0
    9.2070    0.0710    0.5460 C   0  0  0  0  0  0  0  0  0  0  0  0
    9.9880    0.9900   -0.1480 O   0  0  0  0  0  0  0  0  0  0  0  0
    4.8250   -0.1030   -0.6270 C   0  0  0  0  0  0  0  0  0  0  0  0
    5.6150    0.8960   -0.7740 O   0  0  0  0  0  0  0  0  0  0  0  0
    0.3910    0.4780    0.0190 C   0  0  0  0  0  0  0  0  0  0  0  0
   -0.9190    0.7070    0.2150 C   0  0  0  0  0  0  0  0  0  0  0  0
   -1.8910   -0.3910    0.0480 C   0  0  0  0  0  0  0  0  0  0  0  0
   -1.4690   -1.5170   -0.2730 O   0  0  0  0  0  0  0  0  0  0  0  0
   -3.2620   -0.2060    0.2390 N   0  0  0  0  0  0  0  0  0  0  0  0
   -4.2980   -1.1660    0.1160 C   0  0  0  0  0  0  0  0  0  0  0  0
   -4.1310   -2.5170   -0.0410 C   0  0  0  0  0  0  0  0  0  0  0  0
   -5.2250   -3.3600   -0.1670 C   0  0  0  0  0  0  0  0  0  0  0  0
   -6.5150   -2.8760   -0.1370 C   0  0  0  0  0  0  0  0  0  0  0  0
   -7.5500   -3.7870   -0.2700 O   0  0  0  0  0  0  0  0  0  0  0  0
   -7.3580   -5.1590   -0.4300 C   0  0  0  0  0  0  0  0  0  0  0  0
   -6.7170   -1.5310    0.0190 C   0  0  0  0  0  0  0  0  0  0  0  0
   -8.0220   -1.0620    0.0460 O   0  0  0  0  0  0  0  0  0  0  0  0
   -8.3760    0.2880    0.2000 C   0  0  0  0  0  0  0  0  0  0  0  0
   -9.8940    0.3590    0.1740 C   0  0  2  0  0  0  0  0  0  0  0  0
  -10.3010   -0.1500   -1.0650 O   0  0  0  0  0  0  0  0  0  0  0  0
  -10.3890    1.7790    0.3190 C   0  0  0  0  0  0  0  0  0  0  0  0
   -9.8910    2.5970   -0.6710 O   0  0  0  0  0  0  0  0  0  0  0  0
   -5.6250   -0.7230    0.1400 C   0  0  0  0  0  0  0  0  0  0  0  0
   -1.2990    1.9680    0.5650 O   0  0  0  0  0  0  0  0  0  0  0  0
   -0.3990    3.0390    0.7660 C   0  0  0  0  0  0  0  0  0  0  0  0
  1  2  2  0
  2  3  1  0
  3  4  1  0
  4  5  1  0
  5  6  2  0
  5 43  1  0
  6  7  1  0
  6 23  1  0
  7  8  2  3
  8  9  1  0
  8 21  1  0
  9 10  1  0
 10 11  2  0
 10 12  1  0
 12 13  1  0
 12 21  1  0
 13 14  1  0
 14 15  2  0
 14 16  1  0
 16 17  1  1
 16 18  1  0
 18 19  1  0
 19 20  1  0
 21 22  2  0
 23 24  2  0
 24 25  1  0
 24 42  1  0
 25 26  2  0
 25 27  1  0
 27 28  1  0
 28 29  2  0
 28 41  1  0
 29 30  1  0
 30 31  2  0
 31 32  1  0
 31 34  1  0
 32 33  1  0
 34 35  1  0
 34 41  2  0
 35 36  1  0
 36 37  1  0
 37 38  1  6
 37 39  1  0
 39 40  1  0
 42 43  1  0
M  END
