
     RDKit          3D

 44 46  0  0  0  0  0  0  0  0999 V2000
    6.0280    0.0860    0.7130 C   0  0  0  0  0  0  0  0  0  0  0  0
    6.5490    1.2930    0.5340 O   0  0  0  0  0  0  0  0  0  0  0  0
    7.3150    1.6660   -0.4760 C   0  0  0  0  0  0  0  0  0  0  0  0
    6.9430    1.6850   -1.8960 C   0  0  0  0  0  0  0  0  0  0  0  0
    6.5340    0.2330   -2.7840 S   0  0  0  0  0  0  0  0  0  0  0  0
    4.9600   -0.4500   -2.3800 C   0  0  0  0  0  0  0  0  0  0  0  0
    4.7280   -1.7260   -2.1970 C   0  0  0  0  0  0  0  0  0  0  0  0
    5.8640   -2.6640   -2.3370 C   0  0  0  0  0  0  0  0  0  0  0  0
    7.0460   -2.0420   -2.6510 O   0  0  0  0  0  0  0  0  0  0  0  0
    3.4110   -2.2190   -1.8660 C   0  0  0  0  0  0  0  0  0  0  0  0
    3.3220   -3.4770   -1.7160 O   0  0  0  0  0  0  0  0  0  0  0  0
    2.2570   -1.4760   -1.6980 N   0  0  0  0  0  0  0  0  0  0  0  0
    0.9400   -1.9020   -1.3750 C   0  0  0  0  0  0  0  0  0  0  0  0
    0.5590   -3.2050   -1.1760 C   0  0  0  0  0  0  0  0  0  0  0  0
   -0.7190   -3.6170   -0.8650 C   0  0  0  0  0  0  0  0  0  0  0  0
   -1.0440   -5.0740   -0.6660 C   0  0  0  0  0  0  0  0  0  0  0  0
   -1.7000   -2.6440   -0.7400 C   0  0  0  0  0  0  0  0  0  0  0  0
   -1.3860   -1.3310   -0.9250 C   0  0  0  0  0  0  0  0  0  0  0  0
   -2.3670   -0.3220   -0.8020 N   0  0  0  0  0  0  0  0  0  0  0  0
   -3.7240   -0.4950   -0.4990 C   0  0  0  0  0  0  0  0  0  0  0  0
   -4.1890   -1.6300   -0.3050 O   0  0  0  0  0  0  0  0  0  0  0  0
   -4.6550    0.7000   -0.4020 C   0  0  1  0  0  0  0  0  0  0  0  0
   -4.5650    1.5470   -1.6500 C   0  0  0  0  0  0  0  0  0  0  0  0
   -5.9540    0.2860   -0.1000 O   0  0  0  0  0  0  0  0  0  0  0  0
   -6.6520    0.5730    1.0440 C   0  0  0  0  0  0  0  0  0  0  0  0
   -6.0630    1.2830    1.9130 O   0  0  0  0  0  0  0  0  0  0  0  0
   -8.0250    0.0720    1.2410 C   0  0  2  0  0  0  0  0  0  0  0  0
   -8.0780   -0.9630    2.3700 C   0  0  0  0  0  0  0  0  0  0  0  0
   -9.1580   -1.9310    1.9000 C   0  0  0  0  0  0  0  0  0  0  0  0
   -9.5860   -1.2750    0.6020 C   0  0  0  0  0  0  0  0  0  0  0  0
   -8.4020   -0.6690    0.1350 O   0  0  0  0  0  0  0  0  0  0  0  0
   -0.0720   -0.9590   -1.2410 C   0  0  0  0  0  0  0  0  0  0  0  0
    0.1990    0.4200   -1.4210 N   0  0  0  0  0  0  0  0  0  0  0  0
    0.5940    1.2880   -0.3730 C   0  0  0  0  0  0  0  0  0  0  0  0
    0.7250    0.8420    0.8080 O   0  0  0  0  0  0  0  0  0  0  0  0
    0.8740    2.7310   -0.5830 C   0  0  0  0  0  0  0  0  0  0  0  0
    1.2490    3.3800    0.5980 O   0  0  0  0  0  0  0  0  0  0  0  0
    2.3790    2.9660    1.2860 C   0  0  0  0  0  0  0  0  0  0  0  0
    3.0850    2.0010    0.8560 O   0  0  0  0  0  0  0  0  0  0  0  0
    2.7670    3.6430    2.5190 C   0  0  0  0  0  0  0  0  0  0  0  0
    2.1060    4.6960    3.1040 C   0  0  0  0  0  0  0  0  0  0  0  0
    2.8220    5.0240    4.2590 C   0  0  0  0  0  0  0  0  0  0  0  0
    3.8670    4.1490    4.2940 C   0  0  0  0  0  0  0  0  0  0  0  0
    3.8160    3.3450    3.2610 O   0  0  0  0  0  0  0  0  0  0  0  0
  1  2  1  0
  2  3  1  0
  3  4  1  0
  4  5  1  0
  5  6  1  0
  6  7  2  3
  7  8  1  0
  7 10  1  0
  8  9  1  0
 10 11  2  0
 10 12  1  0
 12 13  1  0
 13 14  2  0
 13 32  1  0
 14 15  1  0
 15 16  1  0
 15 17  2  0
 17 18  1  0
 18 19  1  0
 18 32  2  0
 19 20  1  0
 20 21  2  0
 20 22  1  0
 22 23  1  6
 22 24  1  0
 24 25  1  0
 25 26  2  0
 27 25  1  6
 27 28  1  0
 27 31  1  0
 28 29  1  0
 29 30  1  0
 30 31  1  0
 32 33  1  0
 33 34  1  0
 34 35  2  0
 34 36  1  0
 36 37  1  0
 37 38  1  0
 38 39  2  0
 38 40  1  0
 40 41  2  0
 40 44  1  0
 41 42  1  0
 42 43  2  0
 43 44  1  0
M  END
