
     RDKit          3D

 43 45  0  0  0  0  0  0  0  0999 V2000
   -7.4140   -2.4430   -3.6860 C   0  0  0  0  0  0  0  0  0  0  0  0
   -8.1450   -1.2480   -3.0950 C   0  0  0  0  0  0  0  0  0  0  0  0
   -7.9440   -1.1170   -1.7020 O   0  0  0  0  0  0  0  0  0  0  0  0
   -6.7040   -0.9230   -1.1200 C   0  0  0  0  0  0  0  0  0  0  0  0
   -5.5360   -0.8280   -1.8440 C   0  0  0  0  0  0  0  0  0  0  0  0
   -4.3230   -0.6350   -1.2200 C   0  0  0  0  0  0  0  0  0  0  0  0
   -3.0470   -0.5350   -1.9760 C   0  0  0  0  0  0  0  0  0  0  0  0
   -2.0080    0.1590   -1.1810 N   0  0  0  0  0  0  0  0  0  0  0  0
   -2.1930    1.5120   -0.8110 C   0  0  0  0  0  0  0  0  0  0  0  0
   -3.3420    2.1920   -1.2850 C   0  0  0  0  0  0  0  0  0  0  0  0
   -3.4750    3.5060   -0.9250 C   0  0  0  0  0  0  0  0  0  0  0  0
   -4.5010    4.1340   -1.3410 O   0  0  0  0  0  0  0  0  0  0  0  0
   -2.5770    4.1460   -0.1610 N   0  0  0  0  0  0  0  0  0  0  0  0
   -1.4930    3.4930    0.2830 C   0  0  0  0  0  0  0  0  0  0  0  0
   -1.2680    2.1350   -0.0360 C   0  0  0  0  0  0  0  0  0  0  0  0
   -0.0750    1.5200    0.5020 C   0  0  0  0  0  0  0  0  0  0  0  0
    0.2670    0.3460    0.3400 O   0  0  0  0  0  0  0  0  0  0  0  0
    0.8150    2.2790    1.2870 O   0  0  0  0  0  0  0  0  0  0  0  0
    2.0000    1.7530    1.8380 C   0  0  0  0  0  0  0  0  0  0  0  0
    2.9850    1.2520    0.8180 C   0  0  0  0  0  0  0  0  0  0  0  0
    4.1220    0.7550    1.5430 O   0  0  0  0  0  0  0  0  0  0  0  0
    5.2090    0.2140    0.8690 C   0  0  0  0  0  0  0  0  0  0  0  0
    6.3170   -0.2760    1.5090 C   0  0  0  0  0  0  0  0  0  0  0  0
    7.3610   -0.8010    0.7810 C   0  0  0  0  0  0  0  0  0  0  0  0
    7.3390   -0.8540   -0.5950 C   0  0  0  0  0  0  0  0  0  0  0  0
    8.6630   -1.5220   -1.5810 S   0  0  0  0  0  0  0  0  0  0  0  0
   10.0480   -2.0850   -0.6180 C   0  0  2  0  0  0  0  0  0  0  0  0
    9.6700   -3.2580    0.2820 C   0  0  0  0  0  0  0  0  0  0  0  0
   10.7260   -1.0030    0.1270 C   0  0  0  0  0  0  0  0  0  0  0  0
   10.9140   -1.1450    1.3580 O   0  0  0  0  0  0  0  0  0  0  0  0
   11.1510    0.1650   -0.5550 N   0  0  0  0  0  0  0  0  0  0  0  0
   11.7650    1.1290    0.1480 O   0  0  0  0  0  0  0  0  0  0  0  0
    6.1970   -0.3470   -1.2220 C   0  0  0  0  0  0  0  0  0  0  0  0
    6.1420   -0.3870   -2.6130 O   0  0  0  0  0  0  0  0  0  0  0  0
    5.1560    0.1750   -0.5090 C   0  0  0  0  0  0  0  0  0  0  0  0
   -4.3340   -0.5400    0.1670 C   0  0  0  0  0  0  0  0  0  0  0  0
   -5.4910   -0.6320    0.9010 C   0  0  0  0  0  0  0  0  0  0  0  0
   -5.4540   -0.5330    2.2690 O   0  0  0  0  0  0  0  0  0  0  0  0
   -4.3430   -0.3410    3.0830 C   0  0  0  0  0  0  0  0  0  0  0  0
   -4.8430   -0.3050    4.5240 C   0  0  0  0  0  0  0  0  0  0  0  0
   -6.7010   -0.8250    0.2790 C   0  0  0  0  0  0  0  0  0  0  0  0
   -7.8990   -0.9240    0.9960 O   0  0  0  0  0  0  0  0  0  0  0  0
   -8.6680    0.2400    1.2850 C   0  0  0  0  0  0  0  0  0  0  0  0
  1  2  1  0
  2  3  1  0
  3  4  1  0
  4  5  2  0
  4 41  1  0
  5  6  1  0
  6  7  1  0
  6 36  2  0
  7  8  1  0
  8  9  1  0
  9 10  2  0
  9 15  1  0
 10 11  1  0
 11 12  2  0
 11 13  1  0
 13 14  1  0
 14 15  2  0
 15 16  1  0
 16 17  2  0
 16 18  1  0
 18 19  1  0
 19 20  1  0
 20 21  1  0
 21 22  1  0
 22 23  2  0
 22 35  1  0
 23 24  1  0
 24 25  2  0
 25 26  1  0
 25 33  1  0
 26 27  1  0
 27 28  1  1
 27 29  1  0
 29 30  2  0
 29 31  1  0
 31 32  1  0
 33 34  1  0
 33 35  2  0
 36 37  1  0
 37 38  1  0
 37 41  2  0
 38 39  1  0
 39 40  1  0
 41 42  1  0
 42 43  1  0
M  END
