
     RDKit          3D

 44 46  0  0  0  0  0  0  0  0999 V2000
   13.5280    1.8370    0.6650 C   0  0  0  0  0  0  0  0  0  0  0  0
   13.6330    0.3540    0.8790 C   0  0  0  0  0  0  0  0  0  0  0  0
   12.4560   -0.0890    1.5230 O   0  0  0  0  0  0  0  0  0  0  0  0
   11.1830    0.0400    1.0130 C   0  0  0  0  0  0  0  0  0  0  0  0
   11.0410    0.5940   -0.1100 O   0  0  0  0  0  0  0  0  0  0  0  0
    9.9660   -0.4350    1.7080 C   0  0  1  0  0  0  0  0  0  0  0  0
    9.8240    0.3550    3.0210 C   0  0  0  0  0  0  0  0  0  0  0  0
    8.7960   -0.1740    0.9660 O   0  0  0  0  0  0  0  0  0  0  0  0
    7.8070   -1.0910    0.6800 C   0  0  0  0  0  0  0  0  0  0  0  0
    7.9270   -2.2550    1.1030 O   0  0  0  0  0  0  0  0  0  0  0  0
    6.6150   -0.7100   -0.1160 C   0  0  0  0  0  0  0  0  0  0  0  0
    5.5760   -1.5470   -0.4560 C   0  0  0  0  0  0  0  0  0  0  0  0
    4.6820   -0.7760   -1.2020 C   0  0  0  0  0  0  0  0  0  0  0  0
    5.2190    0.4900   -1.2780 C   0  0  0  0  0  0  0  0  0  0  0  0
    4.6670    1.6990   -1.9600 C   0  0  0  0  0  0  0  0  0  0  0  0
    3.4010    1.4230   -2.4950 O   0  0  0  0  0  0  0  0  0  0  0  0
    2.2860    1.0360   -1.7550 C   0  0  0  0  0  0  0  0  0  0  0  0
    2.4210    0.9330   -0.5170 O   0  0  0  0  0  0  0  0  0  0  0  0
    1.0490    0.7660   -2.3490 N   0  0  0  0  0  0  0  0  0  0  0  0
   -0.1500    0.3580   -1.7310 C   0  0  0  0  0  0  0  0  0  0  0  0
   -1.3450    0.3880   -2.4660 C   0  0  0  0  0  0  0  0  0  0  0  0
   -2.5350   -0.0210   -1.9070 C   0  0  0  0  0  0  0  0  0  0  0  0
   -2.6550   -0.4780   -0.6260 C   0  0  0  0  0  0  0  0  0  0  0  0
   -3.8550   -0.9050   -0.0010 N   0  0  0  0  0  0  0  0  0  0  0  0
   -5.1420   -0.6430   -0.4800 C   0  0  0  0  0  0  0  0  0  0  0  0
   -5.3550    0.0180   -1.5050 O   0  0  0  0  0  0  0  0  0  0  0  0
   -6.3310   -1.1330    0.1920 N   0  0  0  0  0  0  0  0  0  0  0  0
   -7.6590   -0.8500   -0.3170 C   0  0  1  0  0  0  0  0  0  0  0  0
   -8.2720   -2.0690   -0.9960 C   0  0  0  0  0  0  0  0  0  0  0  0
   -8.5660   -0.2550    0.6680 C   0  0  0  0  0  0  0  0  0  0  0  0
   -8.9740    1.0000    0.6030 C   0  0  0  0  0  0  0  0  0  0  0  0
   -8.3940    2.0210   -0.7400 S   0  0  0  0  0  0  0  0  0  0  0  0
   -9.7970    2.8950   -1.4850 C   0  0  0  0  0  0  0  0  0  0  0  0
  -10.3780    3.8670   -0.5210 C   0  0  0  0  0  0  0  0  0  0  0  0
   -9.8860    3.9680    0.5870 O   0  0  0  0  0  0  0  0  0  0  0  0
   -9.0250   -1.1170    1.7840 C   0  0  0  0  0  0  0  0  0  0  0  0
   -9.8610   -0.7220    2.7960 C   0  0  0  0  0  0  0  0  0  0  0  0
  -10.0240   -1.8160    3.6040 C   0  0  0  0  0  0  0  0  0  0  0  0
   -9.2640   -2.8380    3.0300 C   0  0  0  0  0  0  0  0  0  0  0  0
   -9.1430   -4.1230    3.5220 O   0  0  0  0  0  0  0  0  0  0  0  0
   -8.6990   -2.3690    1.9610 O   0  0  0  0  0  0  0  0  0  0  0  0
   -1.4750   -0.5140    0.1170 C   0  0  0  0  0  0  0  0  0  0  0  0
   -0.2630   -0.0980   -0.4480 C   0  0  0  0  0  0  0  0  0  0  0  0
    6.3650    0.4530   -0.6120 O   0  0  0  0  0  0  0  0  0  0  0  0
  1  2  1  0
  2  3  1  0
  3  4  1  0
  4  5  2  0
  4  6  1  0
  6  7  1  1
  6  8  1  0
  8  9  1  0
  9 10  2  0
  9 11  1  0
 11 12  2  0
 11 44  1  0
 12 13  1  0
 13 14  2  0
 14 15  1  0
 14 44  1  0
 15 16  1  0
 16 17  1  0
 17 18  2  0
 17 19  1  0
 19 20  1  0
 20 21  2  0
 20 43  1  0
 21 22  1  0
 22 23  2  0
 23 24  1  0
 23 42  1  0
 24 25  1  0
 25 26  2  0
 25 27  1  0
 27 28  1  0
 28 29  1  1
 28 30  1  0
 30 31  2  3
 30 36  1  0
 31 32  1  0
 32 33  1  0
 33 34  1  0
 34 35  2  0
 36 37  2  0
 36 41  1  0
 37 38  1  0
 38 39  2  0
 39 40  1  0
 39 41  1  0
 42 43  2  0
M  END
