
     RDKit          3D

 44 46  0  0  0  0  0  0  0  0999 V2000
    0.2240    0.6740   -5.0880 C   0  0  0  0  0  0  0  0  0  0  0  0
   -0.4790    0.9130   -3.7830 C   0  0  0  0  0  0  0  0  0  0  0  0
   -1.3220    0.1340   -3.1800 O   0  0  0  0  0  0  0  0  0  0  0  0
   -1.7490    0.6660   -2.0380 C   0  0  0  0  0  0  0  0  0  0  0  0
   -2.6920    0.0580   -1.1340 C   0  0  0  0  0  0  0  0  0  0  0  0
   -2.6020   -0.0270    0.1630 C   0  0  0  0  0  0  0  0  0  0  0  0
   -1.4820    0.4930    0.9830 C   0  0  0  0  0  0  0  0  0  0  0  0
   -0.9180   -0.5960    1.6840 O   0  0  0  0  0  0  0  0  0  0  0  0
   -0.3800   -1.6560    0.9950 C   0  0  0  0  0  0  0  0  0  0  0  0
   -0.3880   -1.6500   -0.2550 O   0  0  0  0  0  0  0  0  0  0  0  0
    0.2210   -2.8330    1.6820 C   0  0  0  0  0  0  0  0  0  0  0  0
    1.7190   -2.6560    1.7760 C   0  0  0  0  0  0  0  0  0  0  0  0
    1.9680   -1.4000    2.5490 C   0  0  0  0  0  0  0  0  0  0  0  0
    3.4080   -1.1220    2.7280 N   0  0  0  0  0  0  0  0  0  0  0  0
    4.0800   -1.6140    3.8670 C   0  0  0  0  0  0  0  0  0  0  0  0
    3.6160   -2.3740    4.7790 O   0  0  0  0  0  0  0  0  0  0  0  0
    5.7350   -0.9450    3.7680 S   0  0  0  0  0  0  0  0  0  0  0  0
    5.5500   -0.2140    2.1520 C   0  0  0  0  0  0  0  0  0  0  0  0
    6.5190    0.3120    1.4720 C   0  0  0  0  0  0  0  0  0  0  0  0
    6.5010    0.9290    0.1760 C   0  0  0  0  0  0  0  0  0  0  0  0
    7.4210    0.4780   -0.7630 C   0  0  0  0  0  0  0  0  0  0  0  0
    7.5090    1.0250   -2.0350 C   0  0  0  0  0  0  0  0  0  0  0  0
    6.6680    2.0490   -2.4000 C   0  0  0  0  0  0  0  0  0  0  0  0
    5.7510    2.5120   -1.4890 C   0  0  0  0  0  0  0  0  0  0  0  0
    4.8400    3.6150   -1.8830 C   0  0  0  0  0  0  0  0  0  0  0  0
    3.6870    3.1330   -2.5020 O   0  0  0  0  0  0  0  0  0  0  0  0
    5.6790    1.9490   -0.2140 C   0  0  0  0  0  0  0  0  0  0  0  0
    4.1670   -0.3860    1.8170 C   0  0  0  0  0  0  0  0  0  0  0  0
    3.6660    0.1100    0.7370 O   0  0  0  0  0  0  0  0  0  0  0  0
   -3.6840   -0.6820    0.9090 C   0  0  0  0  0  0  0  0  0  0  0  0
   -3.6480   -0.7930    2.1520 O   0  0  0  0  0  0  0  0  0  0  0  0
   -4.7930   -1.2020    0.2400 O   0  0  0  0  0  0  0  0  0  0  0  0
   -5.8220   -1.8370    1.0720 C   0  0  0  0  0  0  0  0  0  0  0  0
   -6.9120   -2.3160    0.1770 C   0  0  0  0  0  0  0  0  0  0  0  0
   -7.9950   -2.9380    0.6230 O   0  0  0  0  0  0  0  0  0  0  0  0
   -8.8610   -2.3930    1.4910 C   0  0  0  0  0  0  0  0  0  0  0  0
   -8.3800   -2.2810    2.8610 C   0  0  0  0  0  0  0  0  0  0  0  0
   -9.0780   -1.5070    3.8580 N   0  0  0  0  0  0  0  0  0  0  0  0
   -7.3450   -2.8410    3.2550 O   0  0  0  0  0  0  0  0  0  0  0  0
   -1.1240    1.8750   -1.9150 C   0  0  0  0  0  0  0  0  0  0  0  0
   -0.3080    2.0480   -3.0230 C   0  0  0  0  0  0  0  0  0  0  0  0
    0.5470    3.1970   -3.3140 C   0  0  0  0  0  0  0  0  0  0  0  0
    0.5790    4.2680   -2.3860 N   0  0  0  0  0  0  0  0  0  0  0  0
    1.2170    3.1730   -4.3860 O   0  0  0  0  0  0  0  0  0  0  0  0
  1  2  1  0
  2  3  1  0
  2 41  2  0
  3  4  1  0
  4  5  1  0
  4 40  2  0
  5  6  2  3
  6  7  1  0
  6 30  1  0
  7  8  1  0
  8  9  1  0
  9 10  2  0
  9 11  1  0
 11 12  1  0
 12 13  1  0
 13 14  1  0
 14 15  1  0
 14 28  1  0
 15 16  2  0
 15 17  1  0
 17 18  1  0
 18 19  2  3
 18 28  1  0
 19 20  1  0
 20 21  2  0
 20 27  1  0
 21 22  1  0
 22 23  2  0
 23 24  1  0
 24 25  1  0
 24 27  2  0
 25 26  1  0
 28 29  2  0
 30 31  2  0
 30 32  1  0
 32 33  1  0
 33 34  1  0
 34 35  1  0
 35 36  1  0
 36 37  1  0
 37 38  1  0
 37 39  2  0
 40 41  1  0
 41 42  1  0
 42 43  1  0
 42 44  2  0
M  END
