
     RDKit          3D

 44 46  0  0  0  0  0  0  0  0999 V2000
   -7.4520    2.2610    0.6460 C   0  0  0  0  0  0  0  0  0  0  0  0
   -6.1380    2.3930    1.3490 C   0  0  0  0  0  0  0  0  0  0  0  0
   -4.9670    2.3830    0.4480 C   0  0  0  0  0  0  0  0  0  0  0  0
   -4.7160    1.2530   -0.4450 C   0  0  0  0  0  0  0  0  0  0  0  0
   -4.4980   -0.1140    0.0700 C   0  0  2  0  0  0  0  0  0  0  0  0
   -3.3440   -0.2490    1.0340 C   0  0  0  0  0  0  0  0  0  0  0  0
   -3.9820   -0.8570   -1.1490 N   0  0  0  0  0  0  0  0  0  0  0  0
   -3.6440   -2.1980   -0.9720 C   0  0  0  0  0  0  0  0  0  0  0  0
   -3.7560   -2.7880    0.1510 O   0  0  0  0  0  0  0  0  0  0  0  0
   -3.1400   -3.0150   -2.0870 C   0  0  0  0  0  0  0  0  0  0  0  0
   -2.8940   -2.2240   -3.2080 O   0  0  0  0  0  0  0  0  0  0  0  0
   -1.9400   -1.2330   -3.2190 C   0  0  0  0  0  0  0  0  0  0  0  0
   -1.1630   -0.9930   -2.1110 C   0  0  0  0  0  0  0  0  0  0  0  0
   -0.1930    0.0050   -2.1020 C   0  0  0  0  0  0  0  0  0  0  0  0
    0.6380    0.2750   -0.9380 C   0  0  0  0  0  0  0  0  0  0  0  0
    1.5160    1.1550   -0.9100 O   0  0  0  0  0  0  0  0  0  0  0  0
    0.4570   -0.4780    0.2130 O   0  0  0  0  0  0  0  0  0  0  0  0
    1.2450   -0.2500    1.3720 C   0  0  0  0  0  0  0  0  0  0  0  0
    2.6990   -0.4710    1.0640 C   0  0  0  0  0  0  0  0  0  0  0  0
    3.0730   -0.8370   -0.0690 O   0  0  0  0  0  0  0  0  0  0  0  0
    3.6310   -0.2550    2.0860 N   0  0  0  0  0  0  0  0  0  0  0  0
    5.0290   -0.4250    1.9630 C   0  0  0  0  0  0  0  0  0  0  0  0
    5.6700   -1.0910    0.9530 C   0  0  0  0  0  0  0  0  0  0  0  0
    7.0720   -1.1930    0.8990 C   0  0  0  0  0  0  0  0  0  0  0  0
    7.8770   -0.6290    1.8600 C   0  0  0  0  0  0  0  0  0  0  0  0
    9.6150   -0.7400    1.8240 S   0  0  1  0  0  0  0  0  0  0  0  0
   10.2000   -0.7190    3.2280 O   0  0  0  0  0  0  0  0  0  0  0  0
   10.0800   -2.0480    1.2160 O   0  0  0  0  0  0  0  0  0  0  0  0
   10.3390    0.5230    0.9390 N   0  0  0  0  0  0  0  0  0  0  0  0
   10.1040    1.8390    1.4430 C   0  0  0  0  0  0  0  0  0  0  0  0
   10.8440    2.7960    0.4980 C   0  0  0  0  0  0  0  0  0  0  0  0
    7.2380    0.0420    2.8780 C   0  0  0  0  0  0  0  0  0  0  0  0
    5.8700    0.1470    2.9380 C   0  0  0  0  0  0  0  0  0  0  0  0
   -0.0440    0.7480   -3.2630 C   0  0  0  0  0  0  0  0  0  0  0  0
   -0.8220    0.5200   -4.3950 C   0  0  0  0  0  0  0  0  0  0  0  0
   -1.7700   -0.4780   -4.3580 C   0  0  0  0  0  0  0  0  0  0  0  0
   -2.3830   -0.4750   -5.6120 O   0  0  0  0  0  0  0  0  0  0  0  0
   -2.0510    0.7240   -6.2930 C   0  0  0  0  0  0  0  0  0  0  0  0
   -0.8590    1.1190   -5.6500 O   0  0  0  0  0  0  0  0  0  0  0  0
   -5.6910   -0.8970    0.4230 C   0  0  0  0  0  0  0  0  0  0  0  0
   -6.1480   -1.8620   -0.2970 O   0  0  0  0  0  0  0  0  0  0  0  0
   -6.4030   -0.6490    1.5630 O   0  0  0  0  0  0  0  0  0  0  0  0
   -7.5470   -1.4050    1.8990 C   0  0  0  0  0  0  0  0  0  0  0  0
   -7.1350   -2.8550    2.0300 C   0  0  0  0  0  0  0  0  0  0  0  0
  1  2  1  0
  2  3  1  0
  3  4  1  0
  4  5  1  0
  5  6  1  1
  5  7  1  0
  5 40  1  0
  7  8  1  0
  8  9  2  0
  8 10  1  0
 10 11  1  0
 11 12  1  0
 12 13  2  0
 12 36  1  0
 13 14  1  0
 14 15  1  0
 14 34  2  0
 15 16  2  0
 15 17  1  0
 17 18  1  0
 18 19  1  0
 19 20  2  0
 19 21  1  0
 21 22  1  0
 22 23  2  0
 22 33  1  0
 23 24  1  0
 24 25  2  0
 25 26  1  0
 25 32  1  0
 26 27  2  0
 26 28  2  0
 26 29  1  6
 29 30  1  0
 30 31  1  0
 32 33  2  0
 34 35  1  0
 35 36  2  0
 35 39  1  0
 36 37  1  0
 37 38  1  0
 38 39  1  0
 40 41  2  0
 40 42  1  0
 42 43  1  0
 43 44  1  0
M  END
