
     RDKit          3D

 26 27  0  0  0  0  0  0  0  0999 V2000
    0.9130   -4.5790   -0.0640 N   0  0  0  0  0  0  0  0  0  0  0  0
    1.0600   -3.3590    1.1460 S   0  0  1  0  0  0  0  0  0  0  0  0
   -0.2550   -3.1810    1.8360 O   0  0  0  0  0  0  0  0  0  0  0  0
    2.0530   -3.9340    2.1600 O   0  0  0  0  0  0  0  0  0  0  0  0
    1.6760   -1.8740    0.4840 C   0  0  0  0  0  0  0  0  0  0  0  0
    3.0540   -1.6500    0.5930 C   0  0  0  0  0  0  0  0  0  0  0  0
    3.8670   -2.5620    1.1760 F   0  0  0  0  0  0  0  0  0  0  0  0
    3.6330   -0.4960    0.1090 C   0  0  0  0  0  0  0  0  0  0  0  0
    4.9850   -0.3440    0.2070 F   0  0  0  0  0  0  0  0  0  0  0  0
    2.8360    0.4470   -0.4860 C   0  0  0  0  0  0  0  0  0  0  0  0
    3.4810    1.9950   -1.0810 S   0  0  0  0  0  0  0  0  0  0  0  0
    5.1880    2.3020   -0.7210 C   0  0  0  0  0  0  0  0  0  0  0  0
    5.4390    2.6160    0.7280 C   0  0  0  0  0  0  0  0  0  0  0  0
    6.8350    2.8200    0.8690 O   0  0  0  0  0  0  0  0  0  0  0  0
    1.4580    0.1900   -0.5810 C   0  0  0  0  0  0  0  0  0  0  0  0
    0.7090    1.1260   -1.1970 F   0  0  0  0  0  0  0  0  0  0  0  0
    0.8530   -0.9440   -0.1130 C   0  0  0  0  0  0  0  0  0  0  0  0
   -0.5170   -1.2250   -0.2510 N   0  0  0  0  0  0  0  0  0  0  0  0
   -1.5530   -0.2830   -0.6500 C   0  0  1  0  0  0  0  0  0  0  0  0
   -2.8230   -1.0750   -0.8100 C   0  0  0  0  0  0  0  0  0  0  0  0
   -3.8750   -0.4650   -1.6540 C   0  0  0  0  0  0  0  0  0  0  0  0
   -4.1860    0.9670   -1.4430 C   0  0  0  0  0  0  0  0  0  0  0  0
   -4.8160    1.1490   -0.0780 C   0  0  0  0  0  0  0  0  0  0  0  0
   -3.8100    1.8880    0.7820 C   0  0  0  0  0  0  0  0  0  0  0  0
   -2.8120    0.8260    1.2700 C   0  0  0  0  0  0  0  0  0  0  0  0
   -1.6210    0.7770    0.4000 C   0  0  0  0  0  0  0  0  0  0  0  0
  2  1  1  6
  2  3  2  0
  2  4  2  0
  2  5  1  0
  5  6  2  0
  5 17  1  0
  6  7  1  0
  6  8  1  0
  8  9  1  0
  8 10  2  0
 10 11  1  0
 10 15  1  0
 11 12  1  0
 12 13  1  0
 13 14  1  0
 15 16  1  0
 15 17  2  0
 17 18  1  0
 19 18  1  1
 19 20  1  0
 19 26  1  0
 20 21  1  0
 21 22  1  0
 22 23  1  0
 23 24  1  0
 24 25  1  0
 25 26  1  0
M  END
