
     RDKit          3D

 23 25  0  0  0  0  0  0  0  0999 V2000
    6.7620   -0.6960    1.1710 C   0  0  0  0  0  0  0  0  0  0  0  0
    5.5910   -1.3590    0.8030 O   0  0  0  0  0  0  0  0  0  0  0  0
    4.4170   -0.7290    0.4360 C   0  0  0  0  0  0  0  0  0  0  0  0
    4.2810    0.6630    0.3960 C   0  0  0  0  0  0  0  0  0  0  0  0
    3.0910    1.2440    0.0240 C   0  0  0  0  0  0  0  0  0  0  0  0
    1.9910    0.4920   -0.3230 C   0  0  0  0  0  0  0  0  0  0  0  0
    0.7560    1.0890   -0.7090 N   0  0  0  0  0  0  0  0  0  0  0  0
    0.6770    2.5310   -0.7300 C   0  0  0  0  0  0  0  0  0  0  0  0
   -0.3510    0.2560   -1.0580 C   0  0  0  0  0  0  0  0  0  0  0  0
   -0.4170   -0.6480   -2.0390 N   0  0  0  0  0  0  0  0  0  0  0  0
   -1.6310   -1.2230   -2.0410 N   0  0  0  0  0  0  0  0  0  0  0  0
   -2.3790   -0.7160   -1.0730 C   0  0  0  0  0  0  0  0  0  0  0  0
   -1.5890    0.2260   -0.4330 C   0  0  0  0  0  0  0  0  0  0  0  0
   -2.0620    1.0290    0.7230 C   0  0  0  0  0  0  0  0  0  0  0  0
   -3.5690    1.0820    0.7430 C   0  0  0  0  0  0  0  0  0  0  0  0
   -4.1850   -0.1710    0.4920 N   0  0  0  0  0  0  0  0  0  0  0  0
   -5.2350   -0.6590    1.3420 C   0  0  0  0  0  0  0  0  0  0  0  0
   -3.7660   -0.9600   -0.6140 C   0  0  0  0  0  0  0  0  0  0  0  0
   -4.5300   -1.8340   -1.1880 C   0  0  0  0  0  0  0  0  0  0  0  0
   -4.1610   -2.8600   -2.5290 Cl  0  0  0  0  0  0  0  0  0  0  0  0
    2.0980   -0.9050   -0.2920 C   0  0  0  0  0  0  0  0  0  0  0  0
    3.3080   -1.4700    0.0860 C   0  0  0  0  0  0  0  0  0  0  0  0
    3.4650   -3.2190    0.1310 Cl  0  0  0  0  0  0  0  0  0  0  0  0
  1  2  1  0
  2  3  1  0
  3  4  2  0
  3 22  1  0
  4  5  1  0
  5  6  2  0
  6  7  1  0
  6 21  1  0
  7  8  1  0
  7  9  1  0
  9 10  2  0
  9 13  1  0
 10 11  1  0
 11 12  1  0
 12 13  2  0
 12 18  1  0
 13 14  1  0
 14 15  1  0
 15 16  1  0
 16 17  1  0
 16 18  1  0
 18 19  2  3
 19 20  1  0
 21 22  2  0
 22 23  1  0
M  END
