
     RDKit          3D

 23 25  0  0  0  0  0  0  0  0999 V2000
    4.8230    1.9550   -0.5150 C   0  0  0  0  0  0  0  0  0  0  0  0
    3.8810    0.8960   -0.3150 N   0  0  0  0  0  0  0  0  0  0  0  0
    4.5170   -0.1860    0.3880 C   0  0  0  0  0  0  0  0  0  0  0  0
    3.6030   -1.3730    0.5830 C   0  0  0  0  0  0  0  0  0  0  0  0
    2.3470   -1.0430   -0.1130 N   0  0  0  0  0  0  0  0  0  0  0  0
    1.1590   -1.0530    0.6320 C   0  0  0  0  0  0  0  0  0  0  0  0
    1.1730   -1.3440    1.8820 O   0  0  0  0  0  0  0  0  0  0  0  0
   -0.1160   -0.7380    0.0140 C   0  0  0  0  0  0  0  0  0  0  0  0
   -1.2300   -0.7460    0.6960 C   0  0  0  0  0  0  0  0  0  0  0  0
   -2.5500   -0.4580    0.2380 C   0  0  0  0  0  0  0  0  0  0  0  0
   -3.6460   -0.5520    1.0280 C   0  0  0  0  0  0  0  0  0  0  0  0
   -4.1160   -0.8450    2.3310 N   0  0  0  0  0  0  0  0  0  0  0  0
   -5.5240   -0.9820    2.2380 C   0  0  0  0  0  0  0  0  0  0  0  0
   -5.9140   -0.7970    0.9870 C   0  0  0  0  0  0  0  0  0  0  0  0
   -4.7960   -0.5240    0.1550 N   0  0  0  0  0  0  0  0  0  0  0  0
   -4.3570   -0.3360   -1.2360 C   0  0  1  0  0  0  0  0  0  0  0  0
   -5.3780    0.7980   -2.0990 Cl  0  0  0  0  0  0  0  0  0  0  0  0
   -2.9600    0.2160   -0.9970 C   0  0  0  0  0  0  0  0  0  0  0  0
   -2.4160    1.1690   -1.7030 C   0  0  0  0  0  0  0  0  0  0  0  0
   -1.1980    1.9570   -1.5600 C   0  0  0  0  0  0  0  0  0  0  0  0
   -0.0650    1.7530   -2.9200 Cl  0  0  0  0  0  0  0  0  0  0  0  0
    2.4720   -0.7400   -1.5040 C   0  0  0  0  0  0  0  0  0  0  0  0
    3.3510    0.4970   -1.6030 C   0  0  0  0  0  0  0  0  0  0  0  0
  1  2  1  0
  2  3  1  0
  2 23  1  0
  3  4  1  0
  4  5  1  0
  5  6  1  0
  5 22  1  0
  6  7  2  0
  6  8  1  0
  8  9  2  3
  9 10  1  0
 10 11  2  0
 10 18  1  0
 11 12  1  0
 11 15  1  0
 12 13  1  0
 13 14  2  0
 14 15  1  0
 15 16  1  0
 16 17  1  1
 16 18  1  0
 18 19  2  3
 19 20  1  0
 20 21  1  0
 22 23  1  0
M  END
