
     RDKit          3D

 23 25  0  0  0  0  0  0  0  0999 V2000
   -5.6580   -1.0870    1.6580 C   0  0  0  0  0  0  0  0  0  0  0  0
   -5.0240   -1.2680    0.2710 C   0  0  0  0  0  0  0  0  0  0  0  0
   -4.0960   -0.1400   -0.0180 C   0  0  0  0  0  0  0  0  0  0  0  0
   -4.6470    1.0670   -0.3670 C   0  0  0  0  0  0  0  0  0  0  0  0
   -6.3870    1.2470   -0.4650 Cl  0  0  0  0  0  0  0  0  0  0  0  0
   -3.7830    2.1000   -0.6290 C   0  0  0  0  0  0  0  0  0  0  0  0
   -2.4060    1.9000   -0.5360 C   0  0  0  0  0  0  0  0  0  0  0  0
   -1.3670    2.7330   -0.7360 N   0  0  0  0  0  0  0  0  0  0  0  0
   -0.2490    2.0880   -0.5260 N   0  0  0  0  0  0  0  0  0  0  0  0
   -0.4700    0.8010   -0.1780 C   0  0  0  0  0  0  0  0  0  0  0  0
    0.4610   -0.2040    0.1190 N   0  0  0  0  0  0  0  0  0  0  0  0
    1.8630   -0.0340    0.1230 C   0  0  0  0  0  0  0  0  0  0  0  0
    2.4900    1.1530   -0.1290 C   0  0  0  0  0  0  0  0  0  0  0  0
    3.8860    1.2420   -0.0970 C   0  0  0  0  0  0  0  0  0  0  0  0
    4.6290    0.1200    0.1920 C   0  0  0  0  0  0  0  0  0  0  0  0
    6.0880    0.2260    0.2220 C   0  0  0  0  0  0  0  0  0  0  0  0
    4.0260   -1.0510    0.4410 N   0  0  0  0  0  0  0  0  0  0  0  0
    4.8620   -2.1960    0.7360 C   0  0  0  0  0  0  0  0  0  0  0  0
    2.6840   -1.1350    0.4100 C   0  0  0  0  0  0  0  0  0  0  0  0
    2.1640   -2.2610    0.6510 O   0  0  0  0  0  0  0  0  0  0  0  0
   -1.8640    0.6770   -0.1830 C   0  0  0  0  0  0  0  0  0  0  0  0
   -2.7180   -0.3590    0.0800 C   0  0  0  0  0  0  0  0  0  0  0  0
   -2.1240   -1.9380    0.5350 Cl  0  0  0  0  0  0  0  0  0  0  0  0
  1  2  1  0
  2  3  1  0
  3  4  2  0
  3 22  1  0
  4  5  1  0
  4  6  1  0
  6  7  2  0
  7  8  1  0
  7 21  1  0
  8  9  1  0
  9 10  2  0
 10 11  1  0
 10 21  1  0
 11 12  1  0
 12 13  2  0
 12 19  1  0
 13 14  1  0
 14 15  2  0
 15 16  1  0
 15 17  1  0
 17 18  1  0
 17 19  1  0
 19 20  2  0
 21 22  2  0
 22 23  1  0
M  END
