
     RDKit          3D

 23 25  0  0  0  0  0  0  0  0999 V2000
   -2.9410    0.7340   -1.8400 C   0  0  0  0  0  0  0  0  0  0  0  0
   -2.5850   -0.2810   -1.1710 C   0  0  0  0  0  0  0  0  0  0  0  0
   -1.5970   -0.6770   -0.2720 C   0  0  0  0  0  0  0  0  0  0  0  0
   -1.7540   -2.0360    0.0460 C   0  0  0  0  0  0  0  0  0  0  0  0
   -2.7800   -2.8870   -0.4760 C   0  0  2  0  0  0  0  0  0  0  0  0
   -2.6310   -4.4660    0.4310 Cl  0  0  0  0  0  0  0  0  0  0  0  0
   -2.4880   -3.3120   -2.1770 Cl  0  0  0  0  0  0  0  0  0  0  0  0
   -0.4250   -0.1850    0.3310 C   0  0  0  0  0  0  0  0  0  0  0  0
   -0.0550    1.0440    0.3730 C   0  0  0  0  0  0  0  0  0  0  0  0
   -0.7980    2.1430   -0.1730 C   0  0  0  0  0  0  0  0  0  0  0  0
   -0.3230    2.9290   -1.1860 N   0  0  0  0  0  0  0  0  0  0  0  0
   -1.1290    3.9950   -1.3410 C   0  0  0  0  0  0  0  0  0  0  0  0
   -2.1240    3.8310   -0.3810 C   0  0  0  0  0  0  0  0  0  0  0  0
   -1.9230    2.7170    0.3170 N   0  0  0  0  0  0  0  0  0  0  0  0
    1.2460    1.5340    1.0470 C   0  0  0  0  0  0  0  0  0  0  0  0
    2.4490    1.0560    0.2620 C   0  0  0  0  0  0  0  0  0  0  0  0
    2.6610   -0.3690    0.5130 N   0  0  0  0  0  0  0  0  0  0  0  0
    3.9130   -0.9700    0.2840 C   0  0  0  0  0  0  0  0  0  0  0  0
    4.9890   -0.4620   -0.1330 O   0  0  0  0  0  0  0  0  0  0  0  0
    3.7440   -2.4210    0.6440 C   0  0  0  0  0  0  0  0  0  0  0  0
    2.5500   -2.4000    1.6030 C   0  0  0  0  0  0  0  0  0  0  0  0
    1.7170   -1.3240    1.0020 C   0  0  0  0  0  0  0  0  0  0  0  0
    0.4380   -1.2650    0.9370 N   0  0  0  0  0  0  0  0  0  0  0  0
  1  2  2  0
  2  3  1  0
  3  4  2  3
  3  8  1  0
  4  5  1  0
  5  6  1  1
  5  7  1  0
  8  9  2  0
  8 23  1  0
  9 10  1  0
  9 15  1  0
 10 11  2  0
 10 14  1  0
 11 12  1  0
 12 13  2  0
 13 14  1  0
 15 16  1  0
 16 17  1  0
 17 18  1  0
 17 22  1  0
 18 19  2  0
 18 20  1  0
 20 21  1  0
 21 22  1  0
 22 23  2  0
M  END
