
     RDKit          3D

 23 25  0  0  0  0  0  0  0  0999 V2000
    0.2240   -1.6420    1.1370 C   0  0  0  0  0  0  0  0  0  0  0  0
   -0.3520   -1.1660   -0.1500 C   0  0  1  0  0  0  0  0  0  0  0  0
   -0.7860   -2.4430   -0.8380 C   0  0  0  0  0  0  0  0  0  0  0  0
   -1.0960    0.0420   -0.2480 C   0  0  0  0  0  0  0  0  0  0  0  0
   -2.4590   -0.0130   -0.5960 C   0  0  0  0  0  0  0  0  0  0  0  0
   -3.1540   -1.2990   -0.6140 C   0  0  0  0  0  0  0  0  0  0  0  0
   -3.5820   -1.8910    1.0060 Cl  0  0  0  0  0  0  0  0  0  0  0  0
   -3.1700    1.1680   -0.7820 C   0  0  0  0  0  0  0  0  0  0  0  0
   -4.4030    1.0920   -1.0980 O   0  0  0  0  0  0  0  0  0  0  0  0
   -2.6250    2.3640   -0.6370 N   0  0  0  0  0  0  0  0  0  0  0  0
   -1.3440    2.4700   -0.2980 C   0  0  0  0  0  0  0  0  0  0  0  0
   -0.8560    3.7290   -0.1670 N   0  0  0  0  0  0  0  0  0  0  0  0
    0.4320    3.8810    0.1620 C   0  0  0  0  0  0  0  0  0  0  0  0
    1.2220    2.8420    0.3480 N   0  0  0  0  0  0  0  0  0  0  0  0
    0.7410    1.5120    0.2100 C   0  0  0  0  0  0  0  0  0  0  0  0
    1.7970    0.5840    0.2770 C   0  0  0  0  0  0  0  0  0  0  0  0
    2.4780    0.2900    1.3930 C   0  0  0  0  0  0  0  0  0  0  0  0
    3.6840   -0.3860    1.3710 C   0  0  0  0  0  0  0  0  0  0  0  0
    4.2190   -0.7810    0.1620 C   0  0  0  0  0  0  0  0  0  0  0  0
    5.7570   -1.5910    0.0490 Cl  0  0  0  0  0  0  0  0  0  0  0  0
    3.5360   -0.4880   -0.9640 N   0  0  0  0  0  0  0  0  0  0  0  0
    2.3820    0.1650   -0.8960 C   0  0  0  0  0  0  0  0  0  0  0  0
   -0.5550    1.3310   -0.1060 C   0  0  0  0  0  0  0  0  0  0  0  0
  2  1  1  1
  2  3  1  0
  2  4  1  0
  4  5  2  0
  4 23  1  0
  5  6  1  0
  5  8  1  0
  6  7  1  0
  8  9  2  0
  8 10  1  0
 10 11  1  0
 11 12  2  0
 11 23  1  0
 12 13  1  0
 13 14  2  0
 14 15  1  0
 15 16  1  0
 15 23  2  0
 16 17  2  0
 16 22  1  0
 17 18  1  0
 18 19  2  0
 19 20  1  0
 19 21  1  0
 21 22  2  0
M  END
