
     RDKit          3D

 23 24  0  0  0  0  0  0  0  0999 V2000
   -6.7910    1.3040    0.7330 C   0  0  0  0  0  0  0  0  0  0  0  0
   -6.8780   -0.1590    0.4340 C   0  0  0  0  0  0  0  0  0  0  0  0
   -5.7510   -0.8160    0.2200 C   0  0  0  0  0  0  0  0  0  0  0  0
   -4.4630   -0.1680    0.2660 C   0  0  0  0  0  0  0  0  0  0  0  0
   -3.3500   -0.8910    0.0390 C   0  0  0  0  0  0  0  0  0  0  0  0
   -3.5740   -2.5620   -0.2920 Cl  0  0  0  0  0  0  0  0  0  0  0  0
   -2.1020   -0.2100    0.0950 C   0  0  0  0  0  0  0  0  0  0  0  0
   -0.8790   -0.6740   -0.0860 C   0  0  0  0  0  0  0  0  0  0  0  0
   -0.5850   -1.9840   -0.3780 C   0  0  0  0  0  0  0  0  0  0  0  0
    0.6980   -2.3990   -0.5530 N   0  0  0  0  0  0  0  0  0  0  0  0
    1.7420   -1.5630   -0.4520 C   0  0  0  0  0  0  0  0  0  0  0  0
    2.9940   -1.9980   -0.6280 N   0  0  0  0  0  0  0  0  0  0  0  0
    4.0550   -1.1340   -0.5220 C   0  0  0  0  0  0  0  0  0  0  0  0
    5.1910   -1.6270   -0.7030 O   0  0  0  0  0  0  0  0  0  0  0  0
    3.8640    0.1830   -0.2350 C   0  0  0  0  0  0  0  0  0  0  0  0
    4.8920    1.1700   -0.1000 C   0  0  0  0  0  0  0  0  0  0  0  0
    6.1560    1.2260   -0.1700 C   0  0  0  0  0  0  0  0  0  0  0  0
    7.1810    0.2280   -0.4410 C   0  0  0  0  0  0  0  0  0  0  0  0
    2.5230    0.5600   -0.0650 C   0  0  0  0  0  0  0  0  0  0  0  0
    2.1250    2.2420    0.3120 Cl  0  0  0  0  0  0  0  0  0  0  0  0
    1.4820   -0.2830   -0.1680 N   0  0  0  0  0  0  0  0  0  0  0  0
    0.2090    0.1880    0.0180 C   0  0  0  0  0  0  0  0  0  0  0  0
    0.0950    1.4090    0.2790 N   0  0  0  0  0  0  0  0  0  0  0  0
  1  2  1  0
  2  3  2  3
  3  4  1  0
  4  5  2  3
  5  6  1  0
  5  7  1  0
  7  8  2  3
  8  9  1  0
  8 22  1  0
  9 10  2  0
 10 11  1  0
 11 12  2  0
 11 21  1  0
 12 13  1  0
 13 14  2  0
 13 15  1  0
 15 16  1  0
 15 19  2  0
 16 17  2  3
 17 18  1  0
 19 20  1  0
 19 21  1  0
 21 22  1  0
 22 23  2  0
M  END
