
     RDKit          3D

 19 22  0  0  0  0  0  0  0  0999 V2000
   -4.2660   -2.0300   -0.3620 C   0  0  0  0  0  0  0  0  0  0  0  0
   -5.3390   -1.3780    0.0070 N   0  0  0  0  0  0  0  0  0  0  0  0
   -4.9850   -0.0920    0.4520 O   0  0  0  0  0  0  0  0  0  0  0  0
   -3.7860    0.2390   -0.2490 C   0  0  1  0  0  0  0  0  0  0  0  0
   -3.0160    1.3040    0.2150 N   0  0  0  0  0  0  0  0  0  0  0  0
   -1.5790    1.2090    0.3250 C   0  0  0  0  0  0  0  0  0  0  0  0
   -0.8190    2.3330    0.5410 C   0  0  0  0  0  0  0  0  0  0  0  0
    0.5400    2.1970    0.6440 C   0  0  0  0  0  0  0  0  0  0  0  0
    1.2050    0.9650    0.5400 C   0  0  0  0  0  0  0  0  0  0  0  0
    2.6100    0.9180    0.6980 N   0  0  0  0  0  0  0  0  0  0  0  0
    3.4660    0.0570   -0.0210 C   0  0  0  0  0  0  0  0  0  0  0  0
    3.1760   -0.8090   -1.0450 C   0  0  0  0  0  0  0  0  0  0  0  0
    4.3810   -1.4330   -1.3730 C   0  0  0  0  0  0  0  0  0  0  0  0
    5.3140   -0.9380   -0.5650 N   0  0  0  0  0  0  0  0  0  0  0  0
    4.8140   -0.0480    0.2550 N   0  0  0  0  0  0  0  0  0  0  0  0
    0.4070   -0.1350    0.3250 C   0  0  0  0  0  0  0  0  0  0  0  0
   -0.9650   -0.0280    0.2170 C   0  0  0  0  0  0  0  0  0  0  0  0
   -1.8390   -1.1690   -0.0160 C   0  0  0  0  0  0  0  0  0  0  0  0
   -3.1220   -1.1070   -0.1430 C   0  0  0  0  0  0  0  0  0  0  0  0
  1  2  2  0
  1 19  1  0
  2  3  1  0
  3  4  1  0
  4  5  1  1
  4 19  1  0
  5  6  1  0
  6  7  2  0
  6 17  1  0
  7  8  1  0
  8  9  2  0
  9 10  1  0
  9 16  1  0
 10 11  1  0
 11 12  1  0
 11 15  2  0
 12 13  2  0
 13 14  1  0
 14 15  1  0
 16 17  2  0
 17 18  1  0
 18 19  2  0
M  END
