
     RDKit          3D

 10 10  0  0  0  0  0  0  0  0999 V2000
   -3.0300    1.4560   -0.4160 O   0  0  0  0  0  0  0  0  0  0  0  0
   -2.7480    0.0910   -0.4630 C   0  0  0  0  0  0  0  0  0  0  0  0
   -1.3560   -0.1280    0.0480 C   0  0  1  0  0  0  0  0  0  0  0  0
   -0.9650   -1.4460    0.0480 O   0  0  0  0  0  0  0  0  0  0  0  0
    0.4410   -1.3770    0.1470 C   0  0  0  0  0  0  0  0  0  0  0  0
    0.7520    0.0770   -0.0680 C   0  0  1  0  0  0  0  0  0  0  0  0
    0.8690    0.7740    1.1280 O   0  0  0  0  0  0  0  0  0  0  0  0
    2.0170    0.2810   -0.8490 C   0  0  0  0  0  0  0  0  0  0  0  0
    3.0500   -0.2250   -0.0480 O   0  0  0  0  0  0  0  0  0  0  0  0
   -0.3860    0.5090   -0.7280 O   0  0  0  0  0  0  0  0  0  0  0  0
  1  2  1  0
  3  2  1  6
  3  4  1  0
  3 10  1  0
  4  5  1  0
  5  6  1  0
  6  7  1  1
  6  8  1  0
  6 10  1  0
  8  9  1  0
M  END
