
     RDKit          3D

 20 22  0  0  0  0  0  0  0  0999 V2000
   -4.6600   -1.2320   -0.8190 C   0  0  0  0  0  0  0  0  0  0  0  0
   -3.4240   -0.5260   -0.4230 C   0  0  0  0  0  0  0  0  0  0  0  0
   -2.1790   -1.0940   -0.7030 C   0  0  0  0  0  0  0  0  0  0  0  0
   -1.0190   -0.4510   -0.3420 C   0  0  0  0  0  0  0  0  0  0  0  0
   -1.1070    0.7620    0.2990 C   0  0  0  0  0  0  0  0  0  0  0  0
   -2.3470    1.3460    0.5870 C   0  0  0  0  0  0  0  0  0  0  0  0
   -3.4970    0.6860    0.2180 C   0  0  0  0  0  0  0  0  0  0  0  0
   -4.8300    1.2620    0.5000 C   0  0  0  0  0  0  0  0  0  0  0  0
    0.0770    1.3950    0.6550 O   0  0  0  0  0  0  0  0  0  0  0  0
    1.2860    0.7860    0.3530 C   0  0  0  0  0  0  0  0  0  0  0  0
    2.4280    1.3200    0.6550 N   0  0  0  0  0  0  0  0  0  0  0  0
    3.6800    0.7230    0.3610 C   0  0  0  0  0  0  0  0  0  0  0  0
    4.9110    1.3760    0.7280 N   0  0  0  0  0  0  0  0  0  0  0  0
    3.8140   -0.4430   -0.2550 C   0  0  0  0  0  0  0  0  0  0  0  0
    5.1290   -1.0160   -0.5360 C   0  0  0  0  0  0  0  0  0  0  0  0
    6.2160   -0.4300   -0.2070 N   0  0  0  0  0  0  0  0  0  0  0  0
    7.8860   -1.2010   -0.5870 Br  0  0  0  0  0  0  0  0  0  0  0  0
    2.6130   -1.1160   -0.6320 N   0  0  0  0  0  0  0  0  0  0  0  0
    1.3710   -0.5020   -0.3280 C   0  0  0  0  0  0  0  0  0  0  0  0
    0.2310   -1.0480   -0.6370 N   0  0  0  0  0  0  0  0  0  0  0  0
  1  2  1  0
  2  3  2  0
  2  7  1  0
  3  4  1  0
  4  5  2  0
  4 20  1  0
  5  6  1  0
  5  9  1  0
  6  7  2  0
  7  8  1  0
  9 10  1  0
 10 11  2  0
 10 19  1  0
 11 12  1  0
 12 13  1  0
 12 14  2  0
 14 15  1  0
 14 18  1  0
 15 16  2  3
 16 17  1  0
 18 19  1  0
 19 20  2  0
M  END
