
     RDKit          3D

  9  9  0  0  0  0  0  0  0  0999 V2000
    2.7520   -0.0420   -0.7070 O   0  0  0  0  0  0  0  0  0  0  0  0
    2.1200    0.9550    0.0670 C   0  0  0  0  0  0  0  0  0  0  0  0
    1.0640    0.4370    0.7900 O   0  0  0  0  0  0  0  0  0  0  0  0
    0.1400   -0.0980   -0.0980 C   0  0  1  0  0  0  0  0  0  0  0  0
   -0.1040   -1.5370    0.2530 C   0  0  0  0  0  0  0  0  0  0  0  0
   -1.4440   -1.7360    0.4200 O   0  0  0  0  0  0  0  0  0  0  0  0
   -2.1400   -0.6260    0.0420 C   0  0  0  0  0  0  0  0  0  0  0  0
   -1.2120    0.5540    0.0900 C   0  0  2  0  0  0  0  0  0  0  0  0
   -1.4210    1.4120   -0.9870 O   0  0  0  0  0  0  0  0  0  0  0  0
  1  2  1  0
  2  3  1  0
  4  3  1  1
  4  5  1  0
  4  8  1  0
  5  6  1  0
  6  7  1  0
  7  8  1  0
  8  9  1  6
M  END
