
     RDKit          3D

 20 22  0  0  0  0  0  0  0  0999 V2000
   -1.3050    3.6840    0.7150 N   0  0  0  0  0  0  0  0  0  0  0  0
   -0.9220    2.3440    0.4370 C   0  0  0  0  0  0  0  0  0  0  0  0
   -1.7950    1.3420    0.3770 N   0  0  0  0  0  0  0  0  0  0  0  0
   -1.4440    0.0760    0.1160 C   0  0  0  0  0  0  0  0  0  0  0  0
   -2.4960   -0.9330    0.0770 C   0  0  0  0  0  0  0  0  0  0  0  0
   -3.7660   -0.6360    0.2880 C   0  0  0  0  0  0  0  0  0  0  0  0
   -4.8190   -1.6790    0.2440 C   0  0  0  0  0  0  0  0  0  0  0  0
   -5.4730   -1.7540    1.4730 O   0  0  0  0  0  0  0  0  0  0  0  0
   -0.1510   -0.1900   -0.0930 N   0  0  0  0  0  0  0  0  0  0  0  0
    0.7890    0.7710   -0.0480 C   0  0  0  0  0  0  0  0  0  0  0  0
    0.4160    2.0920    0.2240 C   0  0  0  0  0  0  0  0  0  0  0  0
    1.5460    2.8740    0.2150 C   0  0  0  0  0  0  0  0  0  0  0  0
    2.5710    2.0520   -0.0560 N   0  0  0  0  0  0  0  0  0  0  0  0
    2.1210    0.8040   -0.2120 N   0  0  0  0  0  0  0  0  0  0  0  0
    2.9260   -0.3360   -0.5080 C   0  0  0  0  0  0  0  0  0  0  0  0
    2.4830   -1.5690   -0.6620 C   0  0  0  0  0  0  0  0  0  0  0  0
    3.6230   -2.4420   -0.9560 C   0  0  0  0  0  0  0  0  0  0  0  0
    4.7970   -1.5520   -0.9530 C   0  0  0  0  0  0  0  0  0  0  0  0
    4.3710   -0.3340   -0.6920 C   0  0  0  0  0  0  0  0  0  0  0  0
    5.5040    1.1930   -0.5750 Br  0  0  0  0  0  0  0  0  0  0  0  0
  1  2  1  0
  2  3  2  0
  2 11  1  0
  3  4  1  0
  4  5  1  0
  4  9  2  0
  5  6  2  3
  6  7  1  0
  7  8  1  0
  9 10  1  0
 10 11  2  0
 10 14  1  0
 11 12  1  0
 12 13  2  0
 13 14  1  0
 14 15  1  0
 15 16  2  0
 15 19  1  0
 16 17  1  0
 17 18  1  0
 18 19  2  0
 19 20  1  0
M  END
