
     RDKit          3D

  9  9  0  0  0  0  0  0  0  0999 V2000
   -3.1760   -0.5050   -0.1470 C   0  0  0  0  0  0  0  0  0  0  0  0
   -2.0080    0.2420   -0.3410 O   0  0  0  0  0  0  0  0  0  0  0  0
   -0.9100   -0.3810    0.2750 C   0  0  2  0  0  0  0  0  0  0  0  0
   -0.2020    0.5930    1.1800 C   0  0  0  0  0  0  0  0  0  0  0  0
    0.9760    0.8500    0.4470 O   0  0  0  0  0  0  0  0  0  0  0  0
    1.2300   -0.4300   -0.0720 C   0  0  2  0  0  0  0  0  0  0  0  0
    2.3870   -0.3610   -1.0350 C   0  0  0  0  0  0  0  0  0  0  0  0
    3.5090    0.1020   -0.3620 O   0  0  0  0  0  0  0  0  0  0  0  0
    0.0390   -0.7510   -0.7030 O   0  0  0  0  0  0  0  0  0  0  0  0
  1  2  1  0
  3  2  1  6
  3  4  1  0
  3  9  1  0
  4  5  1  0
  5  6  1  0
  6  7  1  6
  6  9  1  0
  7  8  1  0
M  END
