
     RDKit          3D

 24 25  0  0  0  0  0  0  0  0999 V2000
    0.1700   -3.7340   -1.3860 C   0  0  0  0  0  0  0  0  0  0  0  0
   -0.0450   -2.3150   -0.8510 C   0  0  0  0  0  0  0  0  0  0  0  0
   -1.2200   -1.9270   -0.4350 C   0  0  0  0  0  0  0  0  0  0  0  0
   -2.2840   -3.0210   -0.5440 C   0  0  0  0  0  0  0  0  0  0  0  0
   -1.6730   -0.6060   -0.0450 C   0  0  0  0  0  0  0  0  0  0  0  0
   -2.9500   -0.5130    0.4440 C   0  0  0  0  0  0  0  0  0  0  0  0
   -4.0430   -1.4730    0.6990 C   0  0  0  0  0  0  0  0  0  0  0  0
   -5.1930   -0.6440    1.2840 C   0  0  0  0  0  0  0  0  0  0  0  0
   -4.7410    0.7130    1.2750 C   0  0  0  0  0  0  0  0  0  0  0  0
   -3.4960    0.8050    0.8120 C   0  0  0  0  0  0  0  0  0  0  0  0
   -2.6750    1.9290    0.6440 N   0  0  0  0  0  0  0  0  0  0  0  0
   -1.3430    1.8650    0.1380 C   0  0  0  0  0  0  0  0  0  0  0  0
   -0.5890    3.1010    0.0260 C   0  0  0  0  0  0  0  0  0  0  0  0
    0.5530    3.2820   -0.3670 O   0  0  0  0  0  0  0  0  0  0  0  0
   -1.3040    4.3710    0.4560 C   0  0  0  0  0  0  0  0  0  0  0  0
   -0.4030    5.5570    0.2840 C   0  0  0  0  0  0  0  0  0  0  0  0
   -0.8980    0.6400   -0.1800 C   0  0  0  0  0  0  0  0  0  0  0  0
    0.4640    0.6110   -0.7700 C   0  0  0  0  0  0  0  0  0  0  0  0
    1.5440    0.4090    0.2350 C   0  0  0  0  0  0  0  0  0  0  0  0
    2.8980    0.3430   -0.3740 C   0  0  0  0  0  0  0  0  0  0  0  0
    3.7370   -0.6640   -0.2810 C   0  0  0  0  0  0  0  0  0  0  0  0
    3.4640   -1.9160    0.4590 C   0  0  0  0  0  0  0  0  0  0  0  0
    5.0690   -0.5620   -0.9610 C   0  0  0  0  0  0  0  0  0  0  0  0
    6.1670   -0.6830    0.0810 C   0  0  0  0  0  0  0  0  0  0  0  0
  1  2  1  0
  2  3  2  3
  3  4  1  0
  3  5  1  0
  5  6  2  0
  5 17  1  0
  6  7  1  0
  6 10  1  0
  7  8  1  0
  8  9  1  0
  9 10  2  0
 10 11  1  0
 11 12  1  0
 12 13  1  0
 12 17  2  0
 13 14  2  0
 13 15  1  0
 15 16  1  0
 17 18  1  0
 18 19  1  0
 19 20  1  0
 20 21  2  3
 21 22  1  0
 21 23  1  0
 23 24  1  0
M  END
