
     RDKit          3D

 24 25  0  0  0  0  0  0  0  0999 V2000
   -4.9850   -0.5550    0.1820 C   0  0  0  0  0  0  0  0  0  0  0  0
   -3.6010   -0.3470    0.6680 C   0  0  0  0  0  0  0  0  0  0  0  0
   -2.5190   -0.8180    0.0910 C   0  0  0  0  0  0  0  0  0  0  0  0
   -2.8110   -1.5940   -1.1140 C   0  0  0  0  0  0  0  0  0  0  0  0
   -2.2030   -2.7550   -1.4510 C   0  0  0  0  0  0  0  0  0  0  0  0
   -1.1530   -3.5450   -0.7880 C   0  0  0  0  0  0  0  0  0  0  0  0
   -0.1670   -2.6940   -0.0260 C   0  0  0  0  0  0  0  0  0  0  0  0
   -0.6970   -1.9220    1.1150 C   0  0  0  0  0  0  0  0  0  0  0  0
   -1.2610   -0.5340    0.7140 C   0  0  1  0  0  0  0  0  0  0  0  0
   -0.2050    0.2290    0.1270 C   0  0  0  0  0  0  0  0  0  0  0  0
    1.0660   -0.1650    0.3360 N   0  0  0  0  0  0  0  0  0  0  0  0
    2.1400    0.4630   -0.1510 C   0  0  0  0  0  0  0  0  0  0  0  0
    3.5260   -0.0090    0.1140 C   0  0  0  0  0  0  0  0  0  0  0  0
    4.0020   -0.9860   -0.9300 C   0  0  0  0  0  0  0  0  0  0  0  0
    5.4220   -1.4480   -0.6420 C   0  0  0  0  0  0  0  0  0  0  0  0
    5.5350   -2.1360    0.7010 C   0  0  0  0  0  0  0  0  0  0  0  0
    2.0280    1.5910   -0.9230 C   0  0  0  0  0  0  0  0  0  0  0  0
    0.7560    2.0490   -1.1730 C   0  0  0  0  0  0  0  0  0  0  0  0
    0.6060    3.0750   -1.8720 O   0  0  0  0  0  0  0  0  0  0  0  0
   -0.3520    1.3620   -0.6430 C   0  0  0  0  0  0  0  0  0  0  0  0
   -1.6760    1.9110   -0.8910 C   0  0  0  0  0  0  0  0  0  0  0  0
   -2.1800    2.7530    0.2800 C   0  0  0  0  0  0  0  0  0  0  0  0
   -1.2540    3.9340    0.5220 C   0  0  0  0  0  0  0  0  0  0  0  0
   -1.7670    4.7520    1.6790 C   0  0  0  0  0  0  0  0  0  0  0  0
  1  2  1  0
  2  3  2  3
  3  4  1  0
  3  9  1  0
  4  5  2  0
  5  6  1  0
  6  7  1  0
  7  8  1  0
  8  9  1  0
  9 10  1  6
 10 11  1  0
 10 20  2  0
 11 12  1  0
 12 13  1  0
 12 17  2  0
 13 14  1  0
 14 15  1  0
 15 16  1  0
 17 18  1  0
 18 19  2  0
 18 20  1  0
 20 21  1  0
 21 22  1  0
 22 23  1  0
 23 24  1  0
M  END
