
     RDKit          3D

 24 24  0  0  0  0  0  0  0  0999 V2000
   -1.5110    3.8260    1.5310 C   0  0  0  0  0  0  0  0  0  0  0  0
   -2.0790    3.2630    0.5040 C   0  0  0  0  0  0  0  0  0  0  0  0
   -3.4480    3.7270    0.1300 C   0  0  0  0  0  0  0  0  0  0  0  0
   -1.3690    2.2070   -0.3000 C   0  0  0  0  0  0  0  0  0  0  0  0
   -2.0730    1.7080   -1.3050 C   0  0  0  0  0  0  0  0  0  0  0  0
   -1.8290    0.7290   -2.3070 C   0  0  0  0  0  0  0  0  0  0  0  0
   -1.9190   -0.5460   -2.3420 C   0  0  0  0  0  0  0  0  0  0  0  0
   -2.9770   -1.2770   -2.3630 C   0  0  0  0  0  0  0  0  0  0  0  0
   -3.0110   -2.7450   -2.4400 C   0  0  0  0  0  0  0  0  0  0  0  0
   -1.8190   -3.4060   -1.8760 C   0  0  0  0  0  0  0  0  0  0  0  0
   -0.9970   -4.0010   -2.6540 O   0  0  0  0  0  0  0  0  0  0  0  0
   -1.5200   -3.4260   -0.4900 N   0  0  0  0  0  0  0  0  0  0  0  0
   -1.5590   -2.2910    0.3710 C   0  0  0  0  0  0  0  0  0  0  0  0
   -0.2210   -1.5410    0.3800 C   0  0  0  0  0  0  0  0  0  0  0  0
   -0.4200   -0.2780    1.1440 C   0  0  0  0  0  0  0  0  0  0  0  0
    0.5090    0.8560    0.7000 C   0  0  0  0  0  0  0  0  0  0  0  0
    1.9050    0.5250    0.9070 C   0  0  0  0  0  0  0  0  0  0  0  0
    3.0280    1.2070    0.2210 C   0  0  0  0  0  0  0  0  0  0  0  0
    2.2480   -0.5200    1.6750 C   0  0  0  0  0  0  0  0  0  0  0  0
    3.6490   -0.8960    1.9080 C   0  0  0  0  0  0  0  0  0  0  0  0
    3.9660   -2.3090    1.4450 C   0  0  0  0  0  0  0  0  0  0  0  0
    3.6930   -2.4470   -0.0260 C   0  0  0  0  0  0  0  0  0  0  0  0
    0.0220    1.9120    0.0790 C   0  0  0  0  0  0  0  0  0  0  0  0
    0.9920    3.0790   -0.1520 C   0  0  0  0  0  0  0  0  0  0  0  0
  1  2  2  0
  2  3  1  0
  2  4  1  0
  4  5  2  0
  4 23  1  0
  5  6  1  0
  6  7  2  0
  7  8  2  0
  8  9  1  0
  9 10  1  0
 10 11  2  0
 10 12  1  0
 12 13  1  0
 13 14  1  0
 14 15  1  0
 15 16  1  0
 16 17  1  0
 16 23  2  0
 17 18  1  0
 17 19  2  3
 19 20  1  0
 20 21  1  0
 21 22  1  0
 23 24  1  0
M  END
