
     RDKit          3D

 24 24  0  0  0  0  0  0  0  0999 V2000
   -0.8490    3.1750    2.3650 C   0  0  0  0  0  0  0  0  0  0  0  0
   -1.5610    2.7580    1.3800 C   0  0  0  0  0  0  0  0  0  0  0  0
   -1.4920    1.2480    0.9760 C   0  0  0  0  0  0  0  0  0  0  0  0
   -2.2020    0.7390    0.0600 C   0  0  0  0  0  0  0  0  0  0  0  0
   -2.1360   -0.6390   -0.3720 C   0  0  0  0  0  0  0  0  0  0  0  0
   -0.9320   -1.2860   -0.6540 C   0  0  0  0  0  0  0  0  0  0  0  0
    0.2570   -1.9340   -0.9110 C   0  0  0  0  0  0  0  0  0  0  0  0
    1.4560   -2.5710   -1.1590 C   0  0  0  0  0  0  0  0  0  0  0  0
    2.6970   -2.0480   -0.5920 C   0  0  0  0  0  0  0  0  0  0  0  0
    2.7790   -1.8210    0.9040 C   0  0  0  0  0  0  0  0  0  0  0  0
    2.0700   -0.5540    1.2570 C   0  0  0  0  0  0  0  0  0  0  0  0
    2.7630    0.6920    0.7150 C   0  0  0  0  0  0  0  0  0  0  0  0
    3.9920    1.1080    1.3940 C   0  0  0  0  0  0  0  0  0  0  0  0
    5.1800    0.2460    1.5460 C   0  0  0  0  0  0  0  0  0  0  0  0
    5.8250   -0.2740    0.3250 C   0  0  0  0  0  0  0  0  0  0  0  0
   -3.0340   -1.2580   -1.1130 C   0  0  0  0  0  0  0  0  0  0  0  0
   -4.2020   -1.2740   -1.8130 C   0  0  0  0  0  0  0  0  0  0  0  0
   -5.1220   -0.4890   -2.0370 O   0  0  0  0  0  0  0  0  0  0  0  0
   -4.5280   -2.6260   -2.5560 C   0  0  0  0  0  0  0  0  0  0  0  0
   -5.3560   -3.3900   -1.5490 C   0  0  0  0  0  0  0  0  0  0  0  0
   -3.1480    1.5370   -0.7410 C   0  0  0  0  0  0  0  0  0  0  0  0
   -3.2340    2.9260   -0.4220 C   0  0  0  0  0  0  0  0  0  0  0  0
   -2.4890    3.4180    0.5590 N   0  0  0  0  0  0  0  0  0  0  0  0
   -2.5500    4.9220    0.9000 C   0  0  0  0  0  0  0  0  0  0  0  0
  1  2  2  0
  2  3  1  0
  2 23  1  0
  3  4  2  0
  4  5  1  0
  4 21  1  0
  5  6  1  0
  5 16  2  3
  6  7  3  0
  7  8  1  0
  8  9  1  0
  9 10  1  0
 10 11  1  0
 11 12  1  0
 12 13  1  0
 13 14  1  0
 14 15  1  0
 16 17  1  0
 17 18  2  0
 17 19  1  0
 19 20  1  0
 21 22  2  0
 22 23  1  0
 23 24  1  0
M  END
