
     RDKit          3D

 24 24  0  0  0  0  0  0  0  0999 V2000
    1.7510   -1.5760    1.9500 C   0  0  0  0  0  0  0  0  0  0  0  0
    2.3390   -1.1500    0.8700 C   0  0  0  0  0  0  0  0  0  0  0  0
    2.8700   -2.1730   -0.0910 C   0  0  0  0  0  0  0  0  0  0  0  0
    2.8790   -1.6390   -1.4980 C   0  0  0  0  0  0  0  0  0  0  0  0
    3.1280   -0.1850   -1.6370 C   0  0  0  0  0  0  0  0  0  0  0  0
    2.2270    0.7070   -0.8140 C   0  0  1  0  0  0  0  0  0  0  0  0
    2.6100    2.1470   -1.0340 C   0  0  0  0  0  0  0  0  0  0  0  0
    2.4790    2.5280   -2.4770 C   0  0  0  0  0  0  0  0  0  0  0  0
    0.8120    0.5380   -1.2180 C   0  0  0  0  0  0  0  0  0  0  0  0
    0.4650   -0.2490   -2.1460 O   0  0  0  0  0  0  0  0  0  0  0  0
   -0.2380    1.2610   -0.5740 N   0  0  0  0  0  0  0  0  0  0  0  0
   -1.6210    1.1900   -0.8160 C   0  0  0  0  0  0  0  0  0  0  0  0
   -2.4660    0.0840   -0.4340 C   0  0  0  0  0  0  0  0  0  0  0  0
   -3.5610    0.3490    0.3000 C   0  0  0  0  0  0  0  0  0  0  0  0
   -3.9580    1.6460    0.7360 C   0  0  0  0  0  0  0  0  0  0  0  0
   -5.0890    1.7880    1.4760 C   0  0  0  0  0  0  0  0  0  0  0  0
   -5.5700    3.0920    1.9660 C   0  0  0  0  0  0  0  0  0  0  0  0
   -2.3310   -1.3270   -0.8040 C   0  0  0  0  0  0  0  0  0  0  0  0
   -1.2580   -2.1340   -0.2000 C   0  0  2  0  0  0  0  0  0  0  0  0
   -1.4080   -3.5510   -0.8160 C   0  0  0  0  0  0  0  0  0  0  0  0
   -1.5220   -2.3940    1.2960 C   0  0  0  0  0  0  0  0  0  0  0  0
    2.4800    0.2690    0.6040 C   0  0  0  0  0  0  0  0  0  0  0  0
    2.8370    1.0870    1.5520 C   0  0  0  0  0  0  0  0  0  0  0  0
    3.1410    0.7710    2.9420 C   0  0  0  0  0  0  0  0  0  0  0  0
  1  2  2  0
  2  3  1  0
  2 22  1  0
  3  4  1  0
  4  5  1  0
  5  6  1  0
  6  7  1  1
  6  9  1  0
  6 22  1  0
  7  8  1  0
  9 10  2  0
  9 11  1  0
 11 12  1  0
 12 13  1  0
 13 14  2  3
 13 18  1  0
 14 15  1  0
 15 16  2  3
 16 17  1  0
 18 19  1  0
 19 20  1  6
 19 21  1  0
 22 23  2  3
 23 24  1  0
M  END
