
     RDKit          3D

 27 29  0  0  0  0  0  0  0  0999 V2000
   -4.6660   -0.0210    2.8850 C   0  0  0  0  0  0  0  0  0  0  0  0
   -4.0580   -0.3720    1.5730 C   0  0  0  0  0  0  0  0  0  0  0  0
   -4.8560    0.0440    0.3710 C   0  0  1  0  0  0  0  0  0  0  0  0
   -4.2230   -0.3200   -0.9450 C   0  0  0  0  0  0  0  0  0  0  0  0
   -4.8610   -1.0880   -1.7400 N   0  0  0  0  0  0  0  0  0  0  0  0
   -4.5460   -1.6020   -3.0170 C   0  0  0  0  0  0  0  0  0  0  0  0
   -3.3770   -1.7630   -3.5690 C   0  0  0  0  0  0  0  0  0  0  0  0
   -2.0120   -1.4860   -3.0970 C   0  0  0  0  0  0  0  0  0  0  0  0
   -1.6410   -0.6490   -2.1660 C   0  0  0  0  0  0  0  0  0  0  0  0
   -0.1870   -0.5910   -1.9130 C   0  0  0  0  0  0  0  0  0  0  0  0
    0.5770   -1.3250   -2.5830 O   0  0  0  0  0  0  0  0  0  0  0  0
    0.3580    0.2670   -0.9380 N   0  0  0  0  0  0  0  0  0  0  0  0
    1.7110    0.4310   -0.5790 C   0  0  0  0  0  0  0  0  0  0  0  0
    2.0680    1.4730    0.2580 C   0  0  0  0  0  0  0  0  0  0  0  0
    3.3420    1.6180    0.6050 N   0  0  0  0  0  0  0  0  0  0  0  0
    4.3260    0.8160    0.1960 C   0  0  0  0  0  0  0  0  0  0  0  0
    6.0320    1.0400    0.6820 S   0  0  0  0  0  0  0  0  0  0  0  0
    6.3400    0.1210    2.2040 C   0  0  0  0  0  0  0  0  0  0  0  0
    7.7540    0.3100    2.6020 C   0  0  0  0  0  0  0  0  0  0  0  0
    8.6270    1.0970    1.8450 N   0  0  0  0  0  0  0  0  0  0  0  0
    8.1660   -0.2540    3.6430 O   0  0  0  0  0  0  0  0  0  0  0  0
    4.0230   -0.2370   -0.6390 C   0  0  0  0  0  0  0  0  0  0  0  0
    4.9950   -1.1340   -1.1200 N   0  0  0  0  0  0  0  0  0  0  0  0
    2.6830   -0.4140   -1.0210 C   0  0  0  0  0  0  0  0  0  0  0  0
   -2.6160    0.4320   -1.1590 S   0  0  0  0  0  0  0  0  0  0  0  0
   -6.3390    0.2020    0.4220 C   0  0  0  0  0  0  0  0  0  0  0  0
   -5.4720    1.4210    0.4610 C   0  0  0  0  0  0  0  0  0  0  0  0
  1  2  1  0
  3  2  1  1
  3  4  1  0
  3 26  1  0
  3 27  1  0
  4  5  2  0
  4 25  1  0
  5  6  1  0
  6  7  2  0
  7  8  1  0
  8  9  2  0
  9 10  1  0
  9 25  1  0
 10 11  2  0
 10 12  1  0
 12 13  1  0
 13 14  2  0
 13 24  1  0
 14 15  1  0
 15 16  2  0
 16 17  1  0
 16 22  1  0
 17 18  1  0
 18 19  1  0
 19 20  1  0
 19 21  2  0
 22 23  1  0
 22 24  2  0
 26 27  1  0
M  END
