
     RDKit          3D

 27 29  0  0  0  0  0  0  0  0999 V2000
    7.9180    2.0810   -1.4440 C   0  0  0  0  0  0  0  0  0  0  0  0
    7.1380    1.4300   -0.5520 C   0  0  0  0  0  0  0  0  0  0  0  0
    6.4350    2.1890    0.5000 C   0  0  0  0  0  0  0  0  0  0  0  0
    6.7960    1.7950    1.7950 O   0  0  0  0  0  0  0  0  0  0  0  0
    7.0350   -0.0300   -0.6750 C   0  0  0  0  0  0  0  0  0  0  0  0
    5.7170   -0.5480   -0.8930 N   0  0  0  0  0  0  0  0  0  0  0  0
    4.6980   -0.5230    0.1000 C   0  0  0  0  0  0  0  0  0  0  0  0
    4.4410   -0.2080    1.2280 N   0  0  0  0  0  0  0  0  0  0  0  0
    3.3360   -0.3390    1.8500 N   0  0  0  0  0  0  0  0  0  0  0  0
    2.3200   -0.8490    1.3160 C   0  0  0  0  0  0  0  0  0  0  0  0
    0.9740   -1.1610    1.6400 N   0  0  0  0  0  0  0  0  0  0  0  0
    0.1140   -1.7710    0.6780 C   0  0  0  0  0  0  0  0  0  0  0  0
    0.5380   -2.0370   -0.4600 O   0  0  0  0  0  0  0  0  0  0  0  0
   -1.2150   -2.0760    1.0090 N   0  0  0  0  0  0  0  0  0  0  0  0
   -2.1580   -2.6940    0.1010 C   0  0  1  0  0  0  0  0  0  0  0  0
   -2.6660   -4.0110    0.6110 C   0  0  0  0  0  0  0  0  0  0  0  0
   -3.3700   -1.8290   -0.0780 C   0  0  0  0  0  0  0  0  0  0  0  0
   -4.6870   -2.1200   -0.0870 C   0  0  0  0  0  0  0  0  0  0  0  0
   -5.5550   -1.0950   -0.2750 C   0  0  0  0  0  0  0  0  0  0  0  0
   -5.1000    0.1280   -0.4400 C   0  0  0  0  0  0  0  0  0  0  0  0
   -5.8220    1.4160   -0.6620 C   0  0  0  0  0  0  0  0  0  0  0  0
   -7.1160    1.6030   -0.7420 C   0  0  0  0  0  0  0  0  0  0  0  0
   -7.4330    3.0290   -0.9680 C   0  0  0  0  0  0  0  0  0  0  0  0
   -6.0950    3.6530   -1.0080 C   0  0  0  0  0  0  0  0  0  0  0  0
   -5.1950    2.7060   -0.8300 C   0  0  0  0  0  0  0  0  0  0  0  0
   -3.3620   -0.0480   -0.3450 S   0  0  0  0  0  0  0  0  0  0  0  0
    3.0060   -1.2300   -0.3880 S   0  0  0  0  0  0  0  0  0  0  0  0
  1  2  2  0
  2  3  1  0
  2  5  1  0
  3  4  1  0
  5  6  1  0
  6  7  1  0
  7  8  2  0
  7 27  1  0
  8  9  1  0
  9 10  2  0
 10 11  1  0
 10 27  1  0
 11 12  1  0
 12 13  2  0
 12 14  1  0
 14 15  1  0
 15 16  1  1
 15 17  1  0
 17 18  2  0
 17 26  1  0
 18 19  1  0
 19 20  2  0
 20 21  1  0
 20 26  1  0
 21 22  2  0
 21 25  1  0
 22 23  1  0
 23 24  1  0
 24 25  2  0
M  END
