
     RDKit          3D

 27 29  0  0  0  0  0  0  0  0999 V2000
    0.1930   -4.4770   -1.3420 C   0  0  0  0  0  0  0  0  0  0  0  0
    1.2940   -4.0980   -0.3480 C   0  0  0  0  0  0  0  0  0  0  0  0
    0.6630   -3.5000    0.8770 C   0  0  0  0  0  0  0  0  0  0  0  0
   -0.1220   -2.2970    0.6140 C   0  0  0  0  0  0  0  0  0  0  0  0
   -1.9120   -2.3070    0.5220 S   0  0  0  0  0  0  0  0  0  0  0  0
   -1.9490   -0.4590    0.1660 C   0  0  0  0  0  0  0  0  0  0  0  0
   -3.2960    0.1940   -0.0310 C   0  0  0  0  0  0  0  0  0  0  0  0
   -3.2900    1.5590   -0.2950 C   0  0  0  0  0  0  0  0  0  0  0  0
   -4.4790    2.1900   -0.4790 C   0  0  0  0  0  0  0  0  0  0  0  0
   -5.6790    1.4840   -0.4040 C   0  0  0  0  0  0  0  0  0  0  0  0
   -6.9120    2.1060   -0.5890 O   0  0  0  0  0  0  0  0  0  0  0  0
   -6.9090    3.5040   -0.8600 C   0  0  0  0  0  0  0  0  0  0  0  0
   -5.6630    0.1360   -0.1420 C   0  0  0  0  0  0  0  0  0  0  0  0
   -6.8420   -0.5950   -0.0620 O   0  0  0  0  0  0  0  0  0  0  0  0
   -4.4530   -0.5100    0.0460 C   0  0  0  0  0  0  0  0  0  0  0  0
   -0.8650   -0.1980    0.1740 N   0  0  0  0  0  0  0  0  0  0  0  0
    0.1960   -0.9790    0.3790 C   0  0  0  0  0  0  0  0  0  0  0  0
    1.6310   -0.5400    0.3790 C   0  0  0  0  0  0  0  0  0  0  0  0
    1.8550    1.2050    0.0640 S   0  0  0  0  0  0  0  0  0  0  0  0
    3.6180    1.5350    0.1140 C   0  0  0  0  0  0  0  0  0  0  0  0
    4.2330    1.8690    1.2750 N   0  0  0  0  0  0  0  0  0  0  0  0
    5.5430    2.1260    1.3710 C   0  0  0  0  0  0  0  0  0  0  0  0
    6.1180    2.4700    2.6180 N   0  0  0  0  0  0  0  0  0  0  0  0
    6.3410    2.0550    0.2480 C   0  0  0  0  0  0  0  0  0  0  0  0
    5.7320    1.7160   -0.9430 C   0  0  0  0  0  0  0  0  0  0  0  0
    6.4970    1.6280   -2.1270 N   0  0  0  0  0  0  0  0  0  0  0  0
    4.3940    1.4650   -0.9810 N   0  0  0  0  0  0  0  0  0  0  0  0
  1  2  1  0
  2  3  1  0
  3  4  1  0
  4  5  1  0
  4 17  2  0
  5  6  1  0
  6  7  1  0
  6 16  2  0
  7  8  2  0
  7 15  1  0
  8  9  1  0
  9 10  2  0
 10 11  1  0
 10 13  1  0
 11 12  1  0
 13 14  1  0
 13 15  2  0
 16 17  1  0
 17 18  1  0
 18 19  1  0
 19 20  1  0
 20 21  2  0
 20 27  1  0
 21 22  1  0
 22 23  1  0
 22 24  2  0
 24 25  1  0
 25 26  1  0
 25 27  2  0
M  END
