
     RDKit          3D

 27 29  0  0  0  0  0  0  0  0999 V2000
   -4.1910   -2.0010   -1.9420 C   0  0  0  0  0  0  0  0  0  0  0  0
   -3.6950   -0.9940   -1.0940 O   0  0  0  0  0  0  0  0  0  0  0  0
   -4.4560    0.0370   -0.5610 C   0  0  0  0  0  0  0  0  0  0  0  0
   -5.7970    0.1710   -0.8170 C   0  0  0  0  0  0  0  0  0  0  0  0
   -6.4910    1.2150   -0.2460 C   0  0  0  0  0  0  0  0  0  0  0  0
   -5.8840    2.1390    0.5790 C   0  0  0  0  0  0  0  0  0  0  0  0
   -6.6250    3.2400    1.1630 N   0  0  0  0  0  0  0  0  0  0  0  0
   -4.5380    1.9730    0.8130 C   0  0  0  0  0  0  0  0  0  0  0  0
   -3.8070    0.9570    0.2680 C   0  0  0  0  0  0  0  0  0  0  0  0
   -2.3120    0.8190    0.3970 C   0  0  0  0  0  0  0  0  0  0  0  0
   -1.9680   -0.5080    0.8320 N   0  0  0  0  0  0  0  0  0  0  0  0
   -0.6130   -0.9000    0.7880 C   0  0  0  0  0  0  0  0  0  0  0  0
    0.3670    0.0170    0.4750 C   0  0  0  0  0  0  0  0  0  0  0  0
    1.6840   -0.3420    0.3230 C   0  0  0  0  0  0  0  0  0  0  0  0
    2.7160    0.6630   -0.0370 C   0  0  0  0  0  0  0  0  0  0  0  0
    3.8480    0.4470   -0.2820 N   0  0  0  0  0  0  0  0  0  0  0  0
    5.1230    0.2940   -0.5680 C   0  0  0  0  0  0  0  0  0  0  0  0
    6.2930    0.5410    0.1380 C   0  0  0  0  0  0  0  0  0  0  0  0
    7.4700    0.2780   -0.3900 C   0  0  0  0  0  0  0  0  0  0  0  0
    9.0360    0.5490    0.4890 S   0  0  0  0  0  0  0  0  0  0  0  0
    9.9760    1.3330   -0.4460 O   0  0  0  0  0  0  0  0  0  0  0  0
    7.5130   -0.2520   -1.6700 C   0  0  0  0  0  0  0  0  0  0  0  0
    5.8260   -0.3790   -2.1470 S   0  0  0  0  0  0  0  0  0  0  0  0
    2.0110   -1.6620    0.4880 C   0  0  0  0  0  0  0  0  0  0  0  0
    3.3340   -2.1400    0.3420 N   0  0  0  0  0  0  0  0  0  0  0  0
    1.0230   -2.5960    0.8070 C   0  0  0  0  0  0  0  0  0  0  0  0
   -0.2490   -2.2160    0.9520 N   0  0  0  0  0  0  0  0  0  0  0  0
  1  2  1  0
  2  3  1  0
  3  4  2  0
  3  9  1  0
  4  5  1  0
  5  6  2  0
  6  7  1  0
  6  8  1  0
  8  9  2  0
  9 10  1  0
 10 11  1  0
 11 12  1  0
 12 13  2  0
 12 27  1  0
 13 14  1  0
 14 15  1  0
 14 24  2  0
 15 16  2  3
 16 17  1  0
 17 18  2  0
 17 23  1  0
 18 19  1  0
 19 20  1  0
 19 22  2  0
 20 21  2  0
 22 23  1  0
 24 25  1  0
 24 26  1  0
 26 27  2  0
M  END
