
     RDKit          3D

 26 28  0  0  0  0  0  0  0  0999 V2000
   -9.5500    0.5960    0.8210 N   0  0  0  0  0  0  0  0  0  0  0  0
   -8.7400    1.3070   -0.1100 C   0  0  0  0  0  0  0  0  0  0  0  0
   -9.5000    2.3050   -1.1590 S   0  0  0  0  0  0  0  0  0  0  0  0
   -7.2830    1.1580   -0.1350 C   0  0  0  0  0  0  0  0  0  0  0  0
   -6.2710    2.0660   -0.2860 C   0  0  0  0  0  0  0  0  0  0  0  0
   -5.0060    1.6100   -0.2650 C   0  0  0  0  0  0  0  0  0  0  0  0
   -4.7660    0.3000   -0.0990 C   0  0  0  0  0  0  0  0  0  0  0  0
   -3.5480   -0.5220   -0.0300 C   0  0  0  0  0  0  0  0  0  0  0  0
   -2.4020    0.2690   -0.3490 N   0  0  0  0  0  0  0  0  0  0  0  0
   -1.0830   -0.2940   -0.3420 C   0  0  0  0  0  0  0  0  0  0  0  0
   -0.0210    0.5150   -0.6570 C   0  0  0  0  0  0  0  0  0  0  0  0
    1.2920    0.0180   -0.6660 C   0  0  0  0  0  0  0  0  0  0  0  0
    1.5680   -1.2850   -0.3650 C   0  0  0  0  0  0  0  0  0  0  0  0
    2.8560   -1.8290   -0.3640 N   0  0  0  0  0  0  0  0  0  0  0  0
    4.0470   -1.1890   -0.7080 C   0  0  0  0  0  0  0  0  0  0  0  0
    4.0470    0.0030   -1.0700 O   0  0  0  0  0  0  0  0  0  0  0  0
    5.3210   -1.8680   -0.6620 N   0  0  0  0  0  0  0  0  0  0  0  0
    6.5220   -1.1440   -1.0320 C   0  0  0  0  0  0  0  0  0  0  0  0
    6.7060    0.0200   -0.1420 C   0  0  0  0  0  0  0  0  0  0  0  0
    7.3950    0.0070    1.0450 C   0  0  0  0  0  0  0  0  0  0  0  0
    7.3320    1.2910    1.5650 C   0  0  0  0  0  0  0  0  0  0  0  0
    6.6010    2.0160    0.6560 C   0  0  0  0  0  0  0  0  0  0  0  0
    6.2590    1.2220   -0.3270 O   0  0  0  0  0  0  0  0  0  0  0  0
    0.4680   -2.1120   -0.0420 C   0  0  0  0  0  0  0  0  0  0  0  0
   -0.8070   -1.6010   -0.0400 C   0  0  0  0  0  0  0  0  0  0  0  0
   -6.3740   -0.3940    0.0420 S   0  0  0  0  0  0  0  0  0  0  0  0
  1  2  1  0
  2  3  2  0
  2  4  1  0
  4  5  2  0
  4 26  1  0
  5  6  1  0
  6  7  2  0
  7  8  1  0
  7 26  1  0
  8  9  1  0
  9 10  1  0
 10 11  2  0
 10 25  1  0
 11 12  1  0
 12 13  2  0
 13 14  1  0
 13 24  1  0
 14 15  1  0
 15 16  2  0
 15 17  1  0
 17 18  1  0
 18 19  1  0
 19 20  2  0
 19 23  1  0
 20 21  1  0
 21 22  2  0
 22 23  1  0
 24 25  2  0
M  END
