
     RDKit          3D

 27 28  0  0  0  0  0  0  0  0999 V2000
    7.8820   -1.5520    1.6140 C   0  0  0  0  0  0  0  0  0  0  0  0
    8.7010   -0.3200    1.3630 C   0  0  0  0  0  0  0  0  0  0  0  0
    8.1450    1.1240    2.2960 S   0  0  0  0  0  0  0  0  0  0  0  0
    6.5500    1.6720    1.7500 C   0  0  0  0  0  0  0  0  0  0  0  0
    5.8500    2.9680    2.4340 S   0  0  0  0  0  0  0  0  0  0  0  0
    5.8800    0.9870    0.7130 N   0  0  0  0  0  0  0  0  0  0  0  0
    4.5940    1.4210    0.2520 C   0  0  0  0  0  0  0  0  0  0  0  0
    4.0890    2.4210    0.7980 O   0  0  0  0  0  0  0  0  0  0  0  0
    3.9480    0.6710   -0.8260 C   0  0  0  0  0  0  0  0  0  0  0  0
    2.6570    1.2310   -1.1960 N   0  0  0  0  0  0  0  0  0  0  0  0
    1.5800    1.3490   -0.2820 C   0  0  0  0  0  0  0  0  0  0  0  0
    1.7270    0.9610    0.8820 O   0  0  0  0  0  0  0  0  0  0  0  0
    0.3110    1.9120   -0.6620 N   0  0  0  0  0  0  0  0  0  0  0  0
   -0.7530    2.0340    0.2460 C   0  0  0  0  0  0  0  0  0  0  0  0
   -1.9020    1.5450    0.4030 C   0  0  0  0  0  0  0  0  0  0  0  0
   -2.6870    0.5890   -0.3010 C   0  0  0  0  0  0  0  0  0  0  0  0
   -3.9400    0.3020    0.1380 C   0  0  0  0  0  0  0  0  0  0  0  0
   -4.7860   -0.6150   -0.4790 N   0  0  0  0  0  0  0  0  0  0  0  0
   -6.1240   -0.7990    0.0560 C   0  0  0  0  0  0  0  0  0  0  0  0
   -7.1630   -0.9510   -0.7440 C   0  0  0  0  0  0  0  0  0  0  0  0
   -8.3560   -1.1120    0.0920 C   0  0  0  0  0  0  0  0  0  0  0  0
   -7.8500   -1.0300    1.4740 C   0  0  0  0  0  0  0  0  0  0  0  0
   -6.5450   -0.8470    1.4450 C   0  0  0  0  0  0  0  0  0  0  0  0
   -4.3990   -1.3830   -1.6130 C   0  0  0  0  0  0  0  0  0  0  0  0
   -3.0510   -1.0730   -2.0750 C   0  0  0  0  0  0  0  0  0  0  0  0
   -2.2960   -0.1770   -1.4650 C   0  0  0  0  0  0  0  0  0  0  0  0
   -0.9800   -0.0240   -2.0340 N   0  0  0  0  0  0  0  0  0  0  0  0
  1  2  1  0
  2  3  1  0
  3  4  1  0
  4  5  2  0
  4  6  1  0
  6  7  1  0
  7  8  2  0
  7  9  1  0
  9 10  1  0
 10 11  1  0
 11 12  2  0
 11 13  1  0
 13 14  1  0
 14 15  2  3
 15 16  1  0
 16 17  2  0
 16 26  1  0
 17 18  1  0
 18 19  1  0
 18 24  1  0
 19 20  2  0
 19 23  1  0
 20 21  1  0
 21 22  1  0
 22 23  2  0
 24 25  1  0
 25 26  2  0
 26 27  1  0
M  END
