
     RDKit          3D

 27 29  0  0  0  0  0  0  0  0999 V2000
    8.3540    2.2310   -0.4700 C   0  0  0  0  0  0  0  0  0  0  0  0
    8.3760    0.9210   -0.4540 C   0  0  0  0  0  0  0  0  0  0  0  0
    7.2320    0.0300   -0.3420 C   0  0  0  0  0  0  0  0  0  0  0  0
    5.9420    0.6610   -0.2380 N   0  0  0  0  0  0  0  0  0  0  0  0
    4.7340   -0.1240   -0.1210 C   0  0  0  0  0  0  0  0  0  0  0  0
    4.8830   -1.3620   -0.1160 O   0  0  0  0  0  0  0  0  0  0  0  0
    3.4720    0.4600   -0.0190 N   0  0  0  0  0  0  0  0  0  0  0  0
    2.3510   -0.4470    0.0930 C   0  0  0  0  0  0  0  0  0  0  0  0
    2.1400   -1.6430    0.1280 N   0  0  0  0  0  0  0  0  0  0  0  0
    0.9590   -2.2030    0.2410 C   0  0  0  0  0  0  0  0  0  0  0  0
    0.6830   -3.5790    0.2850 C   0  0  0  0  0  0  0  0  0  0  0  0
   -0.6050   -4.0110    0.4060 C   0  0  0  0  0  0  0  0  0  0  0  0
   -1.6950   -3.1620    0.4910 C   0  0  0  0  0  0  0  0  0  0  0  0
   -3.0030   -3.6160    0.6140 N   0  0  0  0  0  0  0  0  0  0  0  0
   -1.4190   -1.8210    0.4470 C   0  0  0  0  0  0  0  0  0  0  0  0
   -2.4750   -0.8070    0.5270 C   0  0  0  0  0  0  0  0  0  0  0  0
   -3.2510   -0.6590   -0.7510 C   0  0  0  0  0  0  0  0  0  0  0  0
   -4.2630    0.3560   -0.5710 N   0  0  0  0  0  0  0  0  0  0  0  0
   -4.0010    1.7040   -0.2630 C   0  0  0  0  0  0  0  0  0  0  0  0
   -2.8250    2.1070   -0.1270 O   0  0  0  0  0  0  0  0  0  0  0  0
   -5.0850    2.6250   -0.1010 C   0  0  0  0  0  0  0  0  0  0  0  0
   -6.4410    2.4550   -0.1920 C   0  0  0  0  0  0  0  0  0  0  0  0
   -7.2370    3.5060    0.0090 C   0  0  0  0  0  0  0  0  0  0  0  0
   -6.6950    4.7320    0.3010 C   0  0  0  0  0  0  0  0  0  0  0  0
   -4.9020    4.3800    0.2940 S   0  0  0  0  0  0  0  0  0  0  0  0
   -0.1080   -1.3790    0.3240 C   0  0  0  0  0  0  0  0  0  0  0  0
    0.6470    0.2010    0.2350 S   0  0  0  0  0  0  0  0  0  0  0  0
  1  2  2  0
  2  3  1  0
  3  4  1  0
  4  5  1  0
  5  6  2  0
  5  7  1  0
  7  8  1  0
  8  9  2  0
  8 27  1  0
  9 10  1  0
 10 11  2  0
 10 26  1  0
 11 12  1  0
 12 13  2  0
 13 14  1  0
 13 15  1  0
 15 16  1  0
 15 26  2  0
 16 17  1  0
 17 18  1  0
 18 19  1  0
 19 20  2  0
 19 21  1  0
 21 22  2  0
 21 25  1  0
 22 23  1  0
 23 24  2  0
 24 25  1  0
 26 27  1  0
M  END
