
     RDKit          3D

 27 29  0  0  0  0  0  0  0  0999 V2000
   -7.0400   -1.1900    2.3360 C   0  0  0  0  0  0  0  0  0  0  0  0
   -6.1700   -0.9240    1.1910 C   0  0  0  0  0  0  0  0  0  0  0  0
   -4.9070   -0.3970    1.0490 C   0  0  0  0  0  0  0  0  0  0  0  0
   -4.3510   -0.2930   -0.1590 C   0  0  0  0  0  0  0  0  0  0  0  0
   -2.9810    0.1640   -0.3780 N   0  0  0  0  0  0  0  0  0  0  0  0
   -2.2760    0.9840    0.5080 C   0  0  0  0  0  0  0  0  0  0  0  0
   -2.8960    1.8910    1.3430 C   0  0  0  0  0  0  0  0  0  0  0  0
   -2.1470    2.7500    2.1050 C   0  0  0  0  0  0  0  0  0  0  0  0
   -0.7700    2.7240    2.0480 C   0  0  0  0  0  0  0  0  0  0  0  0
   -0.1250    1.8360    1.2290 C   0  0  0  0  0  0  0  0  0  0  0  0
   -0.8780    0.9700    0.4640 C   0  0  0  0  0  0  0  0  0  0  0  0
   -0.1810    0.0420   -0.3300 N   0  0  0  0  0  0  0  0  0  0  0  0
    1.2040   -0.0360   -0.4740 N   0  0  0  0  0  0  0  0  0  0  0  0
    2.0920   -0.4480    0.5870 C   0  0  0  0  0  0  0  0  0  0  0  0
    1.5620   -0.7290    1.6830 O   0  0  0  0  0  0  0  0  0  0  0  0
    3.5660   -0.5260    0.3830 C   0  0  0  0  0  0  0  0  0  0  0  0
    3.9170   -0.3030   -1.0060 N   0  0  0  0  0  0  0  0  0  0  0  0
    3.5160   -1.5330   -1.7660 C   0  0  0  0  0  0  0  0  0  0  0  0
    4.6590   -2.6910   -0.8670 S   0  0  0  0  0  0  0  0  0  0  0  0
    5.9090   -1.4320   -0.3950 C   0  0  0  0  0  0  0  0  0  0  0  0
    5.3260   -0.2540   -1.1700 C   0  0  2  0  0  0  0  0  0  0  0  0
    5.9120    0.9780   -0.6470 C   0  0  0  0  0  0  0  0  0  0  0  0
    7.3250    1.1230   -0.8300 N   0  0  0  0  0  0  0  0  0  0  0  0
    5.2950    1.8920   -0.0710 O   0  0  0  0  0  0  0  0  0  0  0  0
   -5.0720   -0.7270   -1.2570 C   0  0  0  0  0  0  0  0  0  0  0  0
   -4.7360   -0.7370   -2.6960 C   0  0  0  0  0  0  0  0  0  0  0  0
   -6.6050   -1.3060   -0.5500 S   0  0  0  0  0  0  0  0  0  0  0  0
  1  2  1  0
  2  3  2  0
  2 27  1  0
  3  4  1  0
  4  5  1  0
  4 25  2  0
  5  6  1  0
  6  7  2  0
  6 11  1  0
  7  8  1  0
  8  9  2  0
  9 10  1  0
 10 11  2  0
 11 12  1  0
 12 13  1  0
 13 14  1  0
 14 15  2  0
 14 16  1  0
 16 17  1  0
 17 18  1  0
 17 21  1  0
 18 19  1  0
 19 20  1  0
 20 21  1  0
 21 22  1  1
 22 23  1  0
 22 24  2  0
 25 26  1  0
 25 27  1  0
M  END
