
     RDKit          3D

 25 26  0  0  0  0  0  0  0  0999 V2000
   -8.1260    0.9870   -0.1470 C   0  0  0  0  0  0  0  0  0  0  0  0
   -6.9590    0.0810   -0.2950 C   0  0  0  0  0  0  0  0  0  0  0  0
   -6.6490   -0.7690   -1.2900 N   0  0  0  0  0  0  0  0  0  0  0  0
   -5.4260   -1.3510   -1.0190 C   0  0  0  0  0  0  0  0  0  0  0  0
   -5.0230   -0.8500    0.1430 N   0  0  0  0  0  0  0  0  0  0  0  0
   -3.6750   -1.0810    0.7870 C   0  0  0  0  0  0  0  0  0  0  0  0
   -2.7160    0.3370    0.2670 P   0  0  0  0  0  0  0  0  0  0  0  0
   -3.5820    1.6890   -0.3240 O   0  0  0  0  0  0  0  0  0  0  0  0
   -1.2000    0.1170   -0.4530 O   0  0  0  0  0  0  0  0  0  0  0  0
   -0.2740    0.0700    0.6460 C   0  0  0  0  0  0  0  0  0  0  0  0
    0.6880    1.0930    0.2430 C   0  0  0  0  0  0  0  0  0  0  0  0
    1.4160    0.8370   -0.9510 N   0  0  0  0  0  0  0  0  0  0  0  0
    2.6400    0.0580   -0.8320 C   0  0  0  0  0  0  0  0  0  0  0  0
    2.9980   -0.3610    0.3950 C   0  0  0  0  0  0  0  0  0  0  0  0
    4.2320   -1.1230    0.6420 C   0  0  0  0  0  0  0  0  0  0  0  0
    4.4990   -2.1930    1.7470 P   0  0  0  0  0  0  0  0  0  0  0  0
    5.3010   -0.7250   -0.4130 C   0  0  2  0  0  0  0  0  0  0  0  0
    5.5730    0.6540   -0.2970 N   0  0  0  0  0  0  0  0  0  0  0  0
    6.6070    1.0520   -1.0320 O   0  0  0  0  0  0  0  0  0  0  0  0
    7.3430   -0.0230   -1.3250 O   0  0  0  0  0  0  0  0  0  0  0  0
    8.3470    0.0240   -0.4900 O   0  0  0  0  0  0  0  0  0  0  0  0
    4.6360   -1.0200   -1.6550 O   0  0  0  0  0  0  0  0  0  0  0  0
    3.4790   -0.2590   -1.9530 C   0  0  0  0  0  0  0  0  0  0  0  0
    3.2400    0.0950   -3.1490 O   0  0  0  0  0  0  0  0  0  0  0  0
   -5.9210   -0.0100    0.5860 N   0  0  0  0  0  0  0  0  0  0  0  0
  1  2  1  0
  2  3  1  0
  2 25  2  0
  3  4  2  0
  4  5  1  0
  5  6  1  0
  5 25  1  0
  6  7  1  0
  7  8  1  0
  7  9  1  0
  9 10  1  0
 10 11  1  0
 11 12  1  0
 12 13  1  0
 13 14  2  0
 13 23  1  0
 14 15  1  0
 15 16  2  0
 15 17  1  0
 17 18  1  6
 17 22  1  0
 18 19  1  0
 19 20  1  0
 20 21  1  0
 22 23  1  0
 23 24  2  0
M  END
