
     RDKit          3D

 24 25  0  0  0  0  0  0  0  0999 V2000
   -3.3390    0.6960    1.4140 C   0  0  0  0  0  0  0  0  0  0  0  0
   -2.8200    1.5260    0.2870 C   0  0  0  0  0  0  0  0  0  0  0  0
   -1.3180    1.2310    0.1040 C   0  0  1  0  0  0  0  0  0  0  0  0
   -1.2260   -0.1590   -0.1860 N   0  0  0  0  0  0  0  0  0  0  0  0
    0.0780   -0.7000   -0.0030 C   0  0  2  0  0  0  0  0  0  0  0  0
    0.9130    0.1320    1.4120 P   0  0  0  0  0  0  0  0  0  0  0  0
    1.7390   -0.9410    2.4520 O   0  0  0  0  0  0  0  0  0  0  0  0
    1.8220    1.5350    0.9600 O   0  0  0  0  0  0  0  0  0  0  0  0
    2.8720    1.4610    0.0580 C   0  0  0  0  0  0  0  0  0  0  0  0
    3.1540    0.3490   -0.4290 O   0  0  0  0  0  0  0  0  0  0  0  0
    3.6310    2.5470   -0.3380 O   0  0  0  0  0  0  0  0  0  0  0  0
    4.9470    2.3160   -1.5000 P   0  0  0  0  0  0  0  0  0  0  0  0
    0.7840   -0.4650   -1.2420 O   0  0  0  0  0  0  0  0  0  0  0  0
    0.3740   -1.5190   -2.0850 C   0  0  0  0  0  0  0  0  0  0  0  0
    0.4100   -1.5710   -3.3430 O   0  0  0  0  0  0  0  0  0  0  0  0
   -0.1200   -2.5870   -1.2910 N   0  0  0  0  0  0  0  0  0  0  0  0
   -0.7560   -3.8440   -1.1240 C   0  0  0  0  0  0  0  0  0  0  0  0
   -1.1470   -4.5350   -2.0990 O   0  0  0  0  0  0  0  0  0  0  0  0
   -0.8640   -4.1600    0.2240 O   0  0  0  0  0  0  0  0  0  0  0  0
   -0.7470   -2.9140    0.9360 C   0  0  0  0  0  0  0  0  0  0  0  0
    0.1900   -2.1700    0.0820 C   0  0  2  0  0  0  0  0  0  0  0  0
   -0.8280    2.1560   -0.9070 C   0  0  0  0  0  0  0  0  0  0  0  0
   -0.3620    1.7470   -1.9860 O   0  0  0  0  0  0  0  0  0  0  0  0
   -0.8730    3.5170   -0.6830 O   0  0  0  0  0  0  0  0  0  0  0  0
  1  2  1  0
  3  2  1  6
  3  4  1  0
  3 22  1  0
  5  4  1  6
  5  6  1  0
  5 13  1  0
  5 21  1  0
  6  7  1  0
  6  8  1  0
  8  9  1  0
  9 10  2  0
  9 11  1  0
 11 12  1  0
 13 14  1  0
 14 15  2  0
 14 16  1  0
 16 17  1  0
 16 21  1  0
 17 18  2  0
 17 19  1  0
 19 20  1  0
 21 20  1  1
 22 23  2  0
 22 24  1  0
M  END
