
     RDKit          3D

 26 28  0  0  0  0  0  0  0  0999 V2000
    5.9930    0.3330    2.5920 C   0  0  0  0  0  0  0  0  0  0  0  0
    5.3770   -0.3340    1.4680 N   0  0  0  0  0  0  0  0  0  0  0  0
    6.0470   -0.9620    0.5000 O   0  0  0  0  0  0  0  0  0  0  0  0
    5.1750   -1.2780   -0.5420 C   0  0  0  0  0  0  0  0  0  0  0  0
    3.9360   -0.4120   -0.2990 C   0  0  2  0  0  0  0  0  0  0  0  0
    2.7520   -0.8540   -0.9190 N   0  0  0  0  0  0  0  0  0  0  0  0
    2.3940   -0.0840   -1.8820 C   0  0  0  0  0  0  0  0  0  0  0  0
    1.2580   -0.0990   -2.8240 C   0  0  0  0  0  0  0  0  0  0  0  0
    0.1720    0.7050   -2.2450 O   0  0  0  0  0  0  0  0  0  0  0  0
   -0.5460    0.1290   -1.2500 C   0  0  0  0  0  0  0  0  0  0  0  0
   -0.4980   -0.9070   -0.7680 O   0  0  0  0  0  0  0  0  0  0  0  0
   -1.7590    1.2110   -0.6250 N   0  0  0  0  0  0  0  0  0  0  0  0
   -2.4330    0.2480    0.1620 C   0  0  0  0  0  0  0  0  0  0  0  0
   -2.3820   -0.9220    0.2640 O   0  0  0  0  0  0  0  0  0  0  0  0
   -3.4210    0.9720    1.0360 N   0  0  0  0  0  0  0  0  0  0  0  0
   -4.4210    0.0180    2.1240 P   0  0  0  0  0  0  0  0  0  0  0  0
   -5.9900    0.7990    2.1870 O   0  0  0  0  0  0  0  0  0  0  0  0
   -6.4270    0.8210    0.8570 C   0  0  0  0  0  0  0  0  0  0  0  0
   -6.4020   -0.5510    0.2220 C   0  0  0  0  0  0  0  0  0  0  0  0
   -6.0370   -1.6120    1.1380 N   0  0  0  0  0  0  0  0  0  0  0  0
   -4.7150   -1.5590    1.4220 O   0  0  0  0  0  0  0  0  0  0  0  0
    3.4110    0.9570   -1.9040 N   0  0  0  0  0  0  0  0  0  0  0  0
    3.6380    2.0550   -3.2090 Cl  0  0  0  0  0  0  0  0  0  0  0  0
    4.1390    0.8980   -0.7790 O   0  0  0  0  0  0  0  0  0  0  0  0
    3.9570   -0.4110    1.1950 C   0  0  0  0  0  0  0  0  0  0  0  0
    3.0610   -0.4620    2.0510 O   0  0  0  0  0  0  0  0  0  0  0  0
  1  2  1  0
  2  3  1  0
  2 25  1  0
  3  4  1  0
  5  4  1  6
  5  6  1  0
  5 24  1  0
  5 25  1  0
  6  7  2  0
  7  8  1  0
  7 22  1  0
  8  9  1  0
  9 10  1  0
 10 11  2  0
 10 12  1  0
 12 13  1  0
 13 14  2  0
 13 15  1  0
 15 16  1  0
 16 17  1  0
 16 21  1  0
 17 18  1  0
 18 19  1  0
 19 20  1  0
 20 21  1  0
 22 23  1  0
 22 24  1  0
 25 26  2  0
M  END
