
     RDKit          3D

 26 27  0  0  0  0  0  0  0  0999 V2000
   -3.7230    0.7620   -0.1130 C   0  0  0  0  0  0  0  0  0  0  0  0
   -2.5310    1.5890   -0.4300 C   0  0  0  0  0  0  0  0  0  0  0  0
   -1.3290    1.0180   -0.6080 O   0  0  0  0  0  0  0  0  0  0  0  0
   -0.7540    0.3150    0.4390 C   0  0  1  0  0  0  0  0  0  0  0  0
   -0.4620    1.4810    1.8000 P   0  0  0  0  0  0  0  0  0  0  0  0
    0.8110    1.0980    2.8570 F   0  0  0  0  0  0  0  0  0  0  0  0
   -0.1470    3.1790    1.1080 C   0  0  0  0  0  0  0  0  0  0  0  0
    0.0420    3.1630   -0.2690 O   0  0  0  0  0  0  0  0  0  0  0  0
   -1.6310   -0.7230    0.7340 O   0  0  0  0  0  0  0  0  0  0  0  0
   -1.9560   -1.4690   -0.3250 N   0  0  0  0  0  0  0  0  0  0  0  0
   -2.8480   -2.6190   -0.0580 C   0  0  0  0  0  0  0  0  0  0  0  0
   -1.6160   -1.3720   -1.6960 C   0  0  0  0  0  0  0  0  0  0  0  0
   -2.5470   -1.5550   -2.5280 O   0  0  0  0  0  0  0  0  0  0  0  0
   -0.3070   -1.0860   -2.3420 C   0  0  0  0  0  0  0  0  0  0  0  0
    0.7250   -0.7530   -1.3220 C   0  0  0  0  0  0  0  0  0  0  0  0
    1.9160   -0.8240   -1.6200 O   0  0  0  0  0  0  0  0  0  0  0  0
    0.4780   -0.3360    0.0460 N   0  0  0  0  0  0  0  0  0  0  0  0
    1.4790   -0.6180    0.9540 N   0  0  0  0  0  0  0  0  0  0  0  0
    1.2080   -1.2640    2.1440 N   0  0  0  0  0  0  0  0  0  0  0  0
    2.8250   -0.2820    0.6490 C   0  0  0  0  0  0  0  0  0  0  0  0
    3.8520   -1.1840    0.3300 C   0  0  0  0  0  0  0  0  0  0  0  0
    4.9620   -0.4950    0.0850 N   0  0  0  0  0  0  0  0  0  0  0  0
    6.1810   -1.0660   -0.2650 O   0  0  0  0  0  0  0  0  0  0  0  0
    4.7020    0.7720    0.2270 O   0  0  0  0  0  0  0  0  0  0  0  0
    3.4360    0.9520    0.5650 C   0  0  0  0  0  0  0  0  0  0  0  0
    2.8960    2.0750    0.7710 O   0  0  0  0  0  0  0  0  0  0  0  0
  1  2  1  0
  2  3  1  0
  4  3  1  6
  4  5  1  0
  4  9  1  0
  4 17  1  0
  5  6  1  0
  5  7  1  0
  7  8  1  0
  9 10  1  0
 10 11  1  0
 10 12  1  0
 12 13  2  0
 12 14  1  0
 14 15  1  0
 15 16  2  0
 15 17  1  0
 17 18  1  0
 18 19  1  0
 18 20  1  0
 20 21  2  0
 20 25  1  0
 21 22  1  0
 22 23  1  0
 22 24  1  0
 24 25  1  0
 25 26  2  0
M  END
