
     RDKit          3D

 26 27  0  0  0  0  0  0  0  0999 V2000
   -2.3050    0.3330    2.4420 C   0  0  0  0  0  0  0  0  0  0  0  0
   -1.0640   -0.3550    2.6140 N   0  0  0  0  0  0  0  0  0  0  0  0
   -0.3010   -0.7760    1.6890 C   0  0  0  0  0  0  0  0  0  0  0  0
   -0.5830   -0.6170    0.3110 N   0  0  0  0  0  0  0  0  0  0  0  0
   -1.7520   -1.2350   -0.2040 C   0  0  0  0  0  0  0  0  0  0  0  0
   -1.8700   -2.8810   -0.0650 P   0  0  0  0  0  0  0  0  0  0  0  0
   -3.2490   -3.8360   -0.6440 N   0  0  0  0  0  0  0  0  0  0  0  0
   -2.7790   -0.4340   -0.8200 C   0  0  0  0  0  0  0  0  0  0  0  0
   -2.6630    0.8120   -0.9090 O   0  0  0  0  0  0  0  0  0  0  0  0
   -3.9510   -1.0110   -1.3460 O   0  0  0  0  0  0  0  0  0  0  0  0
    0.2900    0.1430   -0.5690 C   0  0  1  0  0  0  0  0  0  0  0  0
    1.5770   -0.3760   -0.6110 O   0  0  0  0  0  0  0  0  0  0  0  0
    2.1210   -0.3600    0.5620 O   0  0  0  0  0  0  0  0  0  0  0  0
    3.7110   -1.0020    0.5890 P   0  0  0  0  0  0  0  0  0  0  0  0
    3.7430   -2.7890    1.1080 C   0  0  0  0  0  0  0  0  0  0  0  0
    4.4950   -0.7780   -0.9410 O   0  0  0  0  0  0  0  0  0  0  0  0
   -0.3000    0.1850   -1.9030 N   0  0  0  0  0  0  0  0  0  0  0  0
    0.5820    0.8580   -2.8060 C   0  0  0  0  0  0  0  0  0  0  0  0
    0.7180    2.2400   -2.3970 N   0  0  0  0  0  0  0  0  0  0  0  0
    0.6430    2.5340   -1.1450 C   0  0  0  0  0  0  0  0  0  0  0  0
    0.7670    3.8370   -0.7090 O   0  0  0  0  0  0  0  0  0  0  0  0
    0.8750    4.2480    0.6190 C   0  0  0  0  0  0  0  0  0  0  0  0
    0.4830    3.1710    1.5650 C   0  0  0  0  0  0  0  0  0  0  0  0
    0.2600    3.4540    2.7670 O   0  0  0  0  0  0  0  0  0  0  0  0
    0.3530    1.8590    1.1690 O   0  0  0  0  0  0  0  0  0  0  0  0
    0.4270    1.5250   -0.1420 N   0  0  0  0  0  0  0  0  0  0  0  0
  1  2  1  0
  2  3  2  3
  3  4  1  0
  4  5  1  0
  4 11  1  0
  5  6  2  3
  5  8  1  0
  6  7  1  0
  8  9  2  0
  8 10  1  0
 11 12  1  6
 11 17  1  0
 11 26  1  0
 12 13  1  0
 13 14  1  0
 14 15  1  0
 14 16  1  0
 17 18  1  0
 18 19  1  0
 19 20  2  0
 20 21  1  0
 20 26  1  0
 21 22  1  0
 22 23  1  0
 23 24  2  0
 23 25  1  0
 25 26  1  0
M  END
