
     RDKit          3D

 26 27  0  0  0  0  0  0  0  0999 V2000
    6.0140    2.5070   -0.4510 N   0  0  0  0  0  0  0  0  0  0  0  0
    6.6850    1.3830   -0.8460 O   0  0  0  0  0  0  0  0  0  0  0  0
    6.2530    0.1500   -0.3670 C   0  0  0  0  0  0  0  0  0  0  0  0
    7.3040   -1.3230   -0.6290 P   0  0  0  0  0  0  0  0  0  0  0  0
    5.1320    0.0530    0.2500 N   0  0  0  0  0  0  0  0  0  0  0  0
    4.7050   -1.2120    0.7330 C   0  0  0  0  0  0  0  0  0  0  0  0
    5.3850   -1.8210    1.6050 O   0  0  0  0  0  0  0  0  0  0  0  0
    3.4590   -1.8430    0.2270 C   0  0  0  0  0  0  0  0  0  0  0  0
    2.0350   -1.2910    1.2800 P   0  0  0  0  0  0  0  0  0  0  0  0
    2.4030    0.2720    2.0000 O   0  0  0  0  0  0  0  0  0  0  0  0
    2.5290    1.0900    0.9510 O   0  0  0  0  0  0  0  0  0  0  0  0
    1.3400    1.2550    0.2880 C   0  0  0  0  0  0  0  0  0  0  0  0
    0.9200    0.0320   -0.5130 C   0  0  2  0  0  0  0  0  0  0  0  0
   -0.2730    0.3360   -1.2590 N   0  0  0  0  0  0  0  0  0  0  0  0
   -1.4680    0.4340   -0.7800 C   0  0  0  0  0  0  0  0  0  0  0  0
   -1.8470    0.2780    0.4880 N   0  0  0  0  0  0  0  0  0  0  0  0
   -3.1450    0.4620    0.5470 N   0  0  0  0  0  0  0  0  0  0  0  0
   -3.5730    0.7330   -0.6840 C   0  0  0  0  0  0  0  0  0  0  0  0
   -4.9090    1.0150   -1.1690 C   0  0  0  0  0  0  0  0  0  0  0  0
   -5.9750    1.0490   -0.4270 C   0  0  0  0  0  0  0  0  0  0  0  0
   -6.0520    0.8170    1.0170 C   0  0  0  0  0  0  0  0  0  0  0  0
   -6.8980   -0.2750    1.2940 O   0  0  0  0  0  0  0  0  0  0  0  0
   -6.4540   -1.4340    0.7110 C   0  0  0  0  0  0  0  0  0  0  0  0
   -5.2010   -1.8450    1.1070 O   0  0  0  0  0  0  0  0  0  0  0  0
   -2.5170    0.7120   -1.4980 O   0  0  0  0  0  0  0  0  0  0  0  0
    0.5960   -1.0190    0.3430 O   0  0  0  0  0  0  0  0  0  0  0  0
  1  2  1  0
  2  3  1  0
  3  4  1  0
  3  5  2  3
  5  6  1  0
  6  7  2  0
  6  8  1  0
  8  9  1  0
  9 10  1  0
  9 26  1  0
 10 11  1  0
 11 12  1  0
 12 13  1  0
 13 14  1  1
 13 26  1  0
 14 15  2  3
 15 16  1  0
 15 25  1  0
 16 17  1  0
 17 18  2  0
 18 19  1  0
 18 25  1  0
 19 20  2  3
 20 21  1  0
 21 22  1  0
 22 23  1  0
 23 24  1  0
M  END
