
     RDKit          3D

 38 42  0  0  0  0  0  0  0  0999 V2000
  -10.0110    0.1450   -0.4100 C   0  0  0  0  0  0  0  0  0  0  0  0
   -8.9680   -0.0920    0.6430 C   0  0  0  0  0  0  0  0  0  0  0  0
   -7.6130    0.0320    0.0390 C   0  0  0  0  0  0  0  0  0  0  0  0
   -6.5120   -0.1670    0.8000 N   0  0  0  0  0  0  0  0  0  0  0  0
   -5.3030   -0.0550    0.2420 C   0  0  0  0  0  0  0  0  0  0  0  0
   -5.1630    0.2600   -1.0890 C   0  0  0  0  0  0  0  0  0  0  0  0
   -6.3060    0.4560   -1.8290 C   0  0  0  0  0  0  0  0  0  0  0  0
   -6.2360    0.7490   -3.0670 O   0  0  0  0  0  0  0  0  0  0  0  0
   -7.4860    0.3360   -1.2430 O   0  0  0  0  0  0  0  0  0  0  0  0
   -3.8420    0.3820   -1.7140 C   0  0  0  0  0  0  0  0  0  0  0  0
   -2.8530   -0.3470   -0.7750 C   0  0  0  0  0  0  0  0  0  0  0  0
   -2.9450    0.3450    0.4630 N   0  0  2  0  0  0  0  0  0  0  0  0
   -1.8260    0.3070    1.3020 C   0  0  0  0  0  0  0  0  0  0  0  0
   -0.4970    0.1560    0.6800 C   0  0  0  0  0  0  0  0  0  0  0  0
    0.4170   -0.7500    1.0940 N   0  0  0  0  0  0  0  0  0  0  0  0
    1.5570   -0.6300    0.4260 C   0  0  0  0  0  0  0  0  0  0  0  0
    2.8460   -1.4000    0.5370 C   0  0  2  0  0  0  0  0  0  0  0  0
    3.0700   -2.0360    1.8540 C   0  0  0  0  0  0  0  0  0  0  0  0
    3.5090   -1.1220    2.9380 C   0  0  0  0  0  0  0  0  0  0  0  0
    4.3070    0.0100    2.4180 C   0  0  0  0  0  0  0  0  0  0  0  0
    4.8420   -0.1450    1.0730 N   0  0  0  0  0  0  0  0  0  0  0  0
    6.2140    0.1040    0.8290 C   0  0  0  0  0  0  0  0  0  0  0  0
    6.9460    0.4080    1.8170 O   0  0  0  0  0  0  0  0  0  0  0  0
    6.8000    0.0310   -0.4810 C   0  0  0  0  0  0  0  0  0  0  0  0
    6.2640   -0.2270   -1.6250 O   0  0  0  0  0  0  0  0  0  0  0  0
    7.1090   -0.2080   -2.6170 C   0  0  0  0  0  0  0  0  0  0  0  0
    8.3480    0.0910   -2.1030 C   0  0  0  0  0  0  0  0  0  0  0  0
    8.1680    0.2450   -0.7510 C   0  0  0  0  0  0  0  0  0  0  0  0
    9.1830    0.5680    0.2820 C   0  0  0  0  0  0  0  0  0  0  0  0
    3.9610   -0.5410    0.0200 C   0  0  0  0  0  0  0  0  0  0  0  0
    1.3690    0.3860   -0.4500 N   0  0  0  0  0  0  0  0  0  0  0  0
    0.1350    0.8810   -0.3240 C   0  0  0  0  0  0  0  0  0  0  0  0
   -0.4740    1.9480   -1.0350 C   0  0  0  0  0  0  0  0  0  0  0  0
   -0.1380    2.5960   -2.0840 C   0  0  0  0  0  0  0  0  0  0  0  0
    0.9820    2.5140   -2.9730 C   0  0  0  0  0  0  0  0  0  0  0  0
    1.0350    3.3160   -3.9710 O   0  0  0  0  0  0  0  0  0  0  0  0
    2.3090    1.4140   -2.8320 Cl  0  0  0  0  0  0  0  0  0  0  0  0
   -4.1120   -0.2690    1.1430 C   0  0  0  0  0  0  0  0  0  0  0  0
  1  2  1  0
  2  3  1  0
  3  4  2  0
  3  9  1  0
  4  5  1  0
  5  6  2  0
  5 38  1  0
  6  7  1  0
  6 10  1  0
  7  8  2  0
  7  9  1  0
 10 11  1  0
 11 12  1  0
 12 13  1  1
 12 38  1  0
 13 14  1  0
 14 15  1  0
 14 32  2  0
 15 16  1  0
 17 16  1  1
 16 31  2  0
 17 18  1  0
 17 30  1  0
 18 19  1  0
 19 20  1  0
 20 21  1  0
 21 22  1  0
 21 30  1  0
 22 23  2  0
 22 24  1  0
 24 25  1  0
 24 28  2  0
 25 26  1  0
 26 27  2  0
 27 28  1  0
 28 29  1  0
 31 32  1  0
 32 33  1  0
 33 34  2  3
 34 35  1  0
 35 36  2  0
 35 37  1  0
M  CHG  2   4   1  12   1
M  END
