
     RDKit          3D

 38 42  0  0  0  0  0  0  0  0999 V2000
    7.7170    1.4300    2.6240 C   0  0  0  0  0  0  0  0  0  0  0  0
    7.8290    0.0630    2.4890 O   0  0  0  0  0  0  0  0  0  0  0  0
    7.2240   -0.3900    1.3390 C   0  0  0  0  0  0  0  0  0  0  0  0
    7.8180    0.1810    0.1050 C   0  0  0  0  0  0  0  0  0  0  0  0
    9.1130    0.5950    0.0070 C   0  0  0  0  0  0  0  0  0  0  0  0
    9.6140    1.1250   -1.1650 C   0  0  0  0  0  0  0  0  0  0  0  0
    8.7790    1.2320   -2.2490 C   0  0  0  0  0  0  0  0  0  0  0  0
    9.3450    1.8880   -3.7490 Cl  0  0  0  0  0  0  0  0  0  0  0  0
    7.4820    0.8110   -2.1360 C   0  0  0  0  0  0  0  0  0  0  0  0
    7.0250    0.3040   -0.9910 N   0  0  0  0  0  0  0  0  0  0  0  0
    5.6550   -0.1270   -0.9060 C   0  0  0  0  0  0  0  0  0  0  0  0
    5.3980   -1.4780   -0.9870 C   0  0  0  0  0  0  0  0  0  0  0  0
    4.0740   -1.8730   -0.9040 C   0  0  0  0  0  0  0  0  0  0  0  0
    3.0950   -0.9230   -0.7490 C   0  0  0  0  0  0  0  0  0  0  0  0
    1.6900   -1.3180   -0.6640 C   0  0  0  0  0  0  0  0  0  0  0  0
    1.4390   -2.5330   -0.7440 O   0  0  0  0  0  0  0  0  0  0  0  0
    0.6530   -0.3790   -0.4990 N   0  0  0  0  0  0  0  0  0  0  0  0
   -0.7190   -0.6420   -0.4150 C   0  0  0  0  0  0  0  0  0  0  0  0
   -1.2960   -1.8230   -0.7720 C   0  0  0  0  0  0  0  0  0  0  0  0
   -2.6610   -2.0380   -0.6560 C   0  0  0  0  0  0  0  0  0  0  0  0
   -3.4990   -1.0110   -0.1540 C   0  0  0  0  0  0  0  0  0  0  0  0
   -4.7580   -1.2530   -0.0650 O   0  0  0  0  0  0  0  0  0  0  0  0
   -6.0230   -1.4960    0.0250 C   0  0  1  0  0  0  0  0  0  0  0  0
   -6.7390   -1.9000   -1.2920 C   0  0  0  0  0  0  0  0  0  0  0  0
   -6.1930   -3.2840   -1.4980 C   0  0  0  0  0  0  0  0  0  0  0  0
   -6.0120   -3.8480   -0.2030 N   0  0  0  0  0  0  0  0  0  0  0  0
   -6.2440   -2.8330    0.7760 C   0  0  0  0  0  0  0  0  0  0  0  0
   -2.9040    0.1760    0.2030 C   0  0  0  0  0  0  0  0  0  0  0  0
   -3.7390    1.2430    0.7140 C   0  0  0  0  0  0  0  0  0  0  0  0
   -3.1630    2.3410    1.0460 O   0  0  0  0  0  0  0  0  0  0  0  0
   -5.0960    1.2310    0.8930 O   0  0  0  0  0  0  0  0  0  0  0  0
   -5.8790    2.2740    1.3880 C   0  0  0  0  0  0  0  0  0  0  0  0
   -5.7140    3.4740    0.4700 C   0  0  1  0  0  0  0  0  0  0  0  0
   -6.4370    4.7340    0.7580 C   0  0  0  0  0  0  0  0  0  0  0  0
   -4.9590    4.6200    1.1120 C   0  0  0  0  0  0  0  0  0  0  0  0
   -1.5390    0.3840    0.0840 C   0  0  0  0  0  0  0  0  0  0  0  0
    3.4230    0.3790   -0.6780 N   0  0  0  0  0  0  0  0  0  0  0  0
    4.6810    0.7710   -0.7560 N   0  0  0  0  0  0  0  0  0  0  0  0
  1  2  1  0
  2  3  1  0
  3  4  1  0
  4  5  2  0
  4 10  1  0
  5  6  1  0
  6  7  2  0
  7  8  1  0
  7  9  1  0
  9 10  2  0
 10 11  1  0
 11 12  2  0
 11 38  1  0
 12 13  1  0
 13 14  2  0
 14 15  1  0
 14 37  1  0
 15 16  2  0
 15 17  1  0
 17 18  1  0
 18 19  2  0
 18 36  1  0
 19 20  1  0
 20 21  2  0
 21 22  1  0
 21 28  1  0
 23 22  1  6
 23 24  1  0
 23 27  1  0
 24 25  1  0
 25 26  1  0
 26 27  1  0
 28 29  1  0
 28 36  2  0
 29 30  2  0
 29 31  1  0
 31 32  1  0
 33 32  1  1
 33 34  1  0
 33 35  1  0
 34 35  1  0
 37 38  2  0
M  CHG  2  10   1  26   1
M  END
