
     RDKit          3D

 38 41  0  0  0  0  0  0  0  0999 V2000
   -4.5230    3.4410    0.2790 C   0  0  0  0  0  0  0  0  0  0  0  0
   -3.1540    3.3060    0.8870 C   0  0  1  0  0  0  0  0  0  0  0  0
   -3.3260    3.7050    2.3610 C   0  0  0  0  0  0  0  0  0  0  0  0
   -2.7130    1.8710    0.8810 C   0  0  0  0  0  0  0  0  0  0  0  0
   -2.6280    1.3010   -0.3730 N   0  0  0  0  0  0  0  0  0  0  0  0
   -1.7200    1.8000   -1.3310 C   0  0  0  0  0  0  0  0  0  0  0  0
   -0.4650    1.0690   -1.5420 C   0  0  1  0  0  0  0  0  0  0  0  0
    0.3020    1.7030   -2.5180 O   0  0  0  0  0  0  0  0  0  0  0  0
    0.3880    0.7930   -0.3670 C   0  0  2  0  0  0  0  0  0  0  0  0
    1.0000    1.9690    0.3130 C   0  0  0  0  0  0  0  0  0  0  0  0
    1.8960    2.7830   -0.5480 C   0  0  0  0  0  0  0  0  0  0  0  0
    1.4780    3.8640   -1.2970 C   0  0  0  0  0  0  0  0  0  0  0  0
    2.3060    4.6160   -2.0940 C   0  0  0  0  0  0  0  0  0  0  0  0
    3.6450    4.3020   -2.1790 C   0  0  0  0  0  0  0  0  0  0  0  0
    4.0990    3.2310   -1.4460 C   0  0  0  0  0  0  0  0  0  0  0  0
    3.2630    2.4860   -0.6520 C   0  0  0  0  0  0  0  0  0  0  0  0
    1.4890   -0.0700   -0.7620 N   0  0  0  0  0  0  0  0  0  0  0  0
    1.6350   -1.3710   -0.2180 C   0  0  0  0  0  0  0  0  0  0  0  0
    0.8180   -1.8330    0.6310 O   0  0  0  0  0  0  0  0  0  0  0  0
    2.6640   -2.2410   -0.5560 O   0  0  0  0  0  0  0  0  0  0  0  0
    2.8150   -3.5120   -0.0310 C   0  0  1  0  0  0  0  0  0  0  0  0
    2.9960   -4.6170   -0.9940 C   0  0  0  0  0  0  0  0  0  0  0  0
    4.2980   -4.5460   -1.3990 O   0  0  0  0  0  0  0  0  0  0  0  0
    5.0540   -4.0330   -0.3890 C   0  0  1  0  0  0  0  0  0  0  0  0
    5.7380   -2.9310   -0.8760 O   0  0  0  0  0  0  0  0  0  0  0  0
    5.7650   -1.9520    0.0820 C   0  0  0  0  0  0  0  0  0  0  0  0
    4.6530   -2.1840    1.0610 C   0  0  0  0  0  0  0  0  0  0  0  0
    4.1580   -3.5480    0.7110 C   0  0  1  0  0  0  0  0  0  0  0  0
   -3.7800    0.1950   -0.9070 S   0  0  2  0  0  0  0  0  0  0  0  0
   -3.3540   -0.2500   -2.3130 O   0  0  0  0  0  0  0  0  0  0  0  0
   -5.1460    0.7630   -1.0540 O   0  0  0  0  0  0  0  0  0  0  0  0
   -3.8420   -1.2520    0.0940 C   0  0  0  0  0  0  0  0  0  0  0  0
   -4.6740   -1.3170    1.1830 C   0  0  0  0  0  0  0  0  0  0  0  0
   -4.7380   -2.4550    1.9880 C   0  0  0  0  0  0  0  0  0  0  0  0
   -3.9470   -3.5470    1.6880 C   0  0  0  0  0  0  0  0  0  0  0  0
   -4.0060   -4.7180    2.5080 N   0  0  0  0  0  0  0  0  0  0  0  0
   -3.1140   -3.4900    0.6020 C   0  0  0  0  0  0  0  0  0  0  0  0
   -3.0590   -2.3420   -0.1980 C   0  0  0  0  0  0  0  0  0  0  0  0
  2  1  1  6
  2  3  1  0
  2  4  1  0
  4  5  1  0
  5  6  1  0
 29  5  1  1
  6  7  1  0
  7  8  1  6
  7  9  1  0
  9 10  1  6
  9 17  1  0
 10 11  1  0
 11 12  2  0
 11 16  1  0
 12 13  1  0
 13 14  2  0
 14 15  1  0
 15 16  2  0
 17 18  1  0
 18 19  2  0
 18 20  1  0
 21 20  1  6
 21 22  1  0
 21 28  1  0
 22 23  1  0
 24 23  1  6
 24 25  1  0
 24 28  1  0
 25 26  1  0
 26 27  1  0
 28 27  1  6
 29 30  2  0
 29 31  2  0
 29 32  1  0
 32 33  2  0
 32 38  1  0
 33 34  1  0
 34 35  2  0
 35 36  1  0
 35 37  1  0
 37 38  2  0
M  END
