
     RDKit          3D

 38 42  0  0  0  0  0  0  0  0999 V2000
   -7.9600    1.4880   -1.5640 C   0  0  0  0  0  0  0  0  0  0  0  0
   -6.4830    1.2790   -1.6620 C   0  0  0  0  0  0  0  0  0  0  0  0
   -5.7470    2.0220   -2.5990 C   0  0  0  0  0  0  0  0  0  0  0  0
   -4.4110    1.8150   -2.8020 C   0  0  0  0  0  0  0  0  0  0  0  0
   -3.7510    0.8390   -2.0630 C   0  0  0  0  0  0  0  0  0  0  0  0
   -4.4620    0.1160   -1.1510 C   0  0  0  0  0  0  0  0  0  0  0  0
   -3.8740   -0.9950   -0.3470 C   0  0  0  0  0  0  0  0  0  0  0  0
   -2.5520   -1.2480   -0.6630 O   0  0  0  0  0  0  0  0  0  0  0  0
   -1.4090   -0.6400   -0.5520 C   0  0  0  0  0  0  0  0  0  0  0  0
   -1.3810    0.5140    0.0770 O   0  0  0  0  0  0  0  0  0  0  0  0
   -0.0420   -1.0570   -1.0470 C   0  0  0  0  0  0  0  0  0  0  0  0
    0.9000   -0.2240   -0.4110 O   0  0  0  0  0  0  0  0  0  0  0  0
    1.4690   -0.5960    0.8290 C   0  0  0  0  0  0  0  0  0  0  0  0
    1.1860   -1.6650    1.3230 O   0  0  0  0  0  0  0  0  0  0  0  0
    2.4150    0.3990    1.4600 C   0  0  0  0  0  0  0  0  0  0  0  0
    3.6300    0.5250    0.7500 N   0  0  1  0  0  0  0  0  0  0  0  0
    3.6760    1.9080    0.2260 C   0  0  0  0  0  0  0  0  0  0  0  0
    4.7820    0.1590    1.4320 C   0  0  0  0  0  0  0  0  0  0  0  0
    4.9620   -0.3160    2.6400 N   0  0  0  0  0  0  0  0  0  0  0  0
    6.2710   -0.5810    2.8570 N   0  0  0  0  0  0  0  0  0  0  0  0
    6.9530   -0.2670    1.7550 C   0  0  0  0  0  0  0  0  0  0  0  0
    6.0480    0.1860    0.8840 N   0  0  0  0  0  0  0  0  0  0  0  0
    6.7330    0.5300   -0.3060 C   0  0  0  0  0  0  0  0  0  0  0  0
    6.2470    0.9900   -1.3390 O   0  0  0  0  0  0  0  0  0  0  0  0
    8.1630    0.2590   -0.1380 C   0  0  0  0  0  0  0  0  0  0  0  0
    9.2580    0.3920   -0.9730 C   0  0  0  0  0  0  0  0  0  0  0  0
   10.5310    0.0320   -0.5750 C   0  0  0  0  0  0  0  0  0  0  0  0
   10.6430   -0.4630    0.7070 C   0  0  0  0  0  0  0  0  0  0  0  0
    9.5580   -0.5990    1.5510 C   0  0  0  0  0  0  0  0  0  0  0  0
    8.2910   -0.2380    1.1470 C   0  0  0  0  0  0  0  0  0  0  0  0
   -5.8520    0.3260   -0.9290 C   0  0  0  0  0  0  0  0  0  0  0  0
   -6.5050   -0.5370    0.0500 C   0  0  0  0  0  0  0  0  0  0  0  0
   -6.9560   -1.8000   -0.3270 C   0  0  0  0  0  0  0  0  0  0  0  0
   -7.4780   -2.6460    0.6110 C   0  0  0  0  0  0  0  0  0  0  0  0
   -7.5810   -2.3020    1.9190 N   0  0  0  0  0  0  0  0  0  0  0  0
   -7.1550   -1.0920    2.3010 C   0  0  0  0  0  0  0  0  0  0  0  0
   -7.2940   -0.6850    4.0100 Cl  0  0  0  0  0  0  0  0  0  0  0  0
   -6.6240   -0.2210    1.3790 C   0  0  0  0  0  0  0  0  0  0  0  0
  1  2  1  0
  2  3  2  0
  2 31  1  0
  3  4  1  0
  4  5  2  0
  5  6  1  0
  6  7  1  0
  6 31  2  0
  7  8  1  0
  8  9  1  0
  9 10  2  0
  9 11  1  0
 11 12  1  0
 12 13  1  0
 13 14  2  0
 13 15  1  0
 15 16  1  0
 16 17  1  1
 16 18  1  0
 18 19  2  0
 18 22  1  0
 19 20  1  0
 20 21  2  0
 21 22  1  0
 21 30  1  0
 22 23  1  0
 23 24  2  0
 23 25  1  0
 25 26  2  0
 25 30  1  0
 26 27  1  0
 27 28  2  0
 28 29  1  0
 29 30  2  0
 31 32  1  0
 32 33  2  0
 32 38  1  0
 33 34  1  0
 34 35  2  0
 35 36  1  0
 36 37  1  0
 36 38  2  0
M  CHG  2  16   1  35   1
M  END
