
     RDKit          3D

 38 42  0  0  0  0  0  0  0  0999 V2000
   10.1400    0.5360   -1.1050 C   0  0  0  0  0  0  0  0  0  0  0  0
    9.8260    1.0350   -2.4170 N   0  0  0  0  0  0  0  0  0  0  0  0
    8.4460    1.4710   -2.4430 C   0  0  0  0  0  0  0  0  0  0  0  0
    7.6640    0.6860   -1.4790 C   0  0  0  0  0  0  0  0  0  0  0  0
    7.1240   -0.5220   -1.8940 C   0  0  0  0  0  0  0  0  0  0  0  0
    6.3860   -1.2760   -1.0130 C   0  0  0  0  0  0  0  0  0  0  0  0
    6.1620   -0.8610    0.2920 C   0  0  0  0  0  0  0  0  0  0  0  0
    5.4040   -1.6760    1.1280 O   0  0  0  0  0  0  0  0  0  0  0  0
    4.0370   -1.4690    1.1560 C   0  0  0  0  0  0  0  0  0  0  0  0
    3.1980   -2.1100    0.2790 C   0  0  0  0  0  0  0  0  0  0  0  0
    1.8440   -1.8900    0.3250 C   0  0  0  0  0  0  0  0  0  0  0  0
    1.2380   -1.0190    1.2430 C   0  0  0  0  0  0  0  0  0  0  0  0
   -0.0110   -0.7610    1.3480 O   0  0  0  0  0  0  0  0  0  0  0  0
   -1.2920   -0.6990    1.2180 C   0  0  0  0  0  0  0  0  0  0  0  0
   -2.0190    0.1180    2.0720 N   0  0  0  0  0  0  0  0  0  0  0  0
   -3.3060    0.2010    1.9650 N   0  0  0  0  0  0  0  0  0  0  0  0
   -4.0030   -0.4760    1.0500 C   0  0  0  0  0  0  0  0  0  0  0  0
   -5.4580   -0.3760    0.9750 N   0  0  0  0  0  0  0  0  0  0  0  0
   -5.9890    0.3390    0.0690 C   0  0  0  0  0  0  0  0  0  0  0  0
   -4.9490    0.9610   -0.7810 C   0  0  0  0  0  0  0  0  0  0  0  0
   -3.8590    1.2340   -0.2490 O   0  0  0  0  0  0  0  0  0  0  0  0
   -5.1340    1.2550   -2.1470 O   0  0  0  0  0  0  0  0  0  0  0  0
   -6.3720    1.5080   -2.8050 C   0  0  0  0  0  0  0  0  0  0  0  0
   -7.3090    2.2240   -1.8700 C   0  0  0  0  0  0  0  0  0  0  0  0
   -8.2040    1.3060   -1.0800 C   0  0  0  0  0  0  0  0  0  0  0  0
   -7.4430    0.5260   -0.0850 C   0  0  0  0  0  0  0  0  0  0  0  0
   -8.1750   -0.1100    0.8020 C   0  0  0  0  0  0  0  0  0  0  0  0
   -7.6670   -0.9560    1.8920 C   0  0  0  0  0  0  0  0  0  0  0  0
   -6.2280   -1.1330    1.9090 C   0  0  2  0  0  0  0  0  0  0  0  0
   -5.6280   -1.0180    3.3210 C   0  0  0  0  0  0  0  0  0  0  0  0
   -3.3580   -1.2750    0.2040 N   0  0  0  0  0  0  0  0  0  0  0  0
   -2.0320   -1.4040    0.2620 C   0  0  0  0  0  0  0  0  0  0  0  0
   -1.4100   -2.1600   -0.5380 O   0  0  0  0  0  0  0  0  0  0  0  0
    2.1400   -0.3770    2.1300 C   0  0  0  0  0  0  0  0  0  0  0  0
    1.4430    0.7360    3.3150 Cl  0  0  0  0  0  0  0  0  0  0  0  0
    3.4830   -0.6060    2.0730 C   0  0  0  0  0  0  0  0  0  0  0  0
    6.7110    0.3390    0.6690 C   0  0  0  0  0  0  0  0  0  0  0  0
    7.4490    1.1140   -0.1780 C   0  0  0  0  0  0  0  0  0  0  0  0
  1  2  1  0
  2  3  1  0
  3  4  1  0
  4  5  2  0
  4 38  1  0
  5  6  1  0
  6  7  2  0
  7  8  1  0
  7 37  1  0
  8  9  1  0
  9 10  2  0
  9 36  1  0
 10 11  1  0
 11 12  2  0
 12 13  1  0
 12 34  1  0
 13 14  1  0
 14 15  2  0
 14 32  1  0
 15 16  1  0
 16 17  2  0
 17 18  1  0
 17 31  1  0
 18 19  2  0
 18 29  1  0
 19 20  1  0
 19 26  1  0
 20 21  2  0
 20 22  1  0
 22 23  1  0
 23 24  1  0
 24 25  1  0
 25 26  1  0
 26 27  2  0
 27 28  1  0
 28 29  1  0
 29 30  1  1
 31 32  1  0
 32 33  2  0
 34 35  1  0
 34 36  2  0
 37 38  2  0
M  CHG  2   2   1  18   1
M  END
