
     RDKit          3D

 38 42  0  0  0  0  0  0  0  0999 V2000
    8.1020   -2.4520    1.0020 C   0  0  0  0  0  0  0  0  0  0  0  0
    6.8880   -1.7830    0.7760 O   0  0  0  0  0  0  0  0  0  0  0  0
    6.8700   -0.7080   -0.1280 C   0  0  0  0  0  0  0  0  0  0  0  0
    8.0140   -0.3390   -0.7600 C   0  0  0  0  0  0  0  0  0  0  0  0
    7.9470    0.7220   -1.6380 C   0  0  0  0  0  0  0  0  0  0  0  0
    6.7450    1.3570   -1.8380 C   0  0  0  0  0  0  0  0  0  0  0  0
    5.5640    0.9750   -1.1850 C   0  0  0  0  0  0  0  0  0  0  0  0
    5.6320   -0.0790   -0.3130 C   0  0  0  0  0  0  0  0  0  0  0  0
    4.5170   -0.5580    0.4040 N   0  0  0  0  0  0  0  0  0  0  0  0
    3.2440   -0.0070    0.3010 C   0  0  0  0  0  0  0  0  0  0  0  0
    2.9130    0.9460   -0.4050 O   0  0  0  0  0  0  0  0  0  0  0  0
    2.1610   -0.6320    1.1290 C   0  0  0  0  0  0  0  0  0  0  0  0
    0.9320   -0.0410    1.0270 O   0  0  0  0  0  0  0  0  0  0  0  0
    0.1590    0.1470   -0.0940 C   0  0  0  0  0  0  0  0  0  0  0  0
    0.6650   -0.2680   -1.1840 O   0  0  0  0  0  0  0  0  0  0  0  0
   -1.1370    0.7680   -0.0170 C   0  0  0  0  0  0  0  0  0  0  0  0
   -1.1640    2.1470   -0.2520 C   0  0  0  0  0  0  0  0  0  0  0  0
    0.0800    2.8440   -0.5580 C   0  0  0  0  0  0  0  0  0  0  0  0
    0.5850    2.4860   -2.2310 Cl  0  0  0  0  0  0  0  0  0  0  0  0
   -2.3130    2.8700   -0.1940 N   0  0  0  0  0  0  0  0  0  0  0  0
   -3.4540    2.2340    0.0980 C   0  0  0  0  0  0  0  0  0  0  0  0
   -4.6890    2.9290    0.1740 N   0  0  0  0  0  0  0  0  0  0  0  0
   -5.9840    2.3880    0.4790 C   0  0  0  0  0  0  0  0  0  0  0  0
   -6.9660    3.3110   -0.1710 C   0  0  0  0  0  0  0  0  0  0  0  0
   -6.1690    4.3900   -0.8280 C   0  0  0  0  0  0  0  0  0  0  0  0
   -4.8590    4.3440   -0.0440 C   0  0  0  0  0  0  0  0  0  0  0  0
   -3.4470    0.9210    0.3250 N   0  0  0  0  0  0  0  0  0  0  0  0
   -2.3120    0.1460    0.2810 C   0  0  0  0  0  0  0  0  0  0  0  0
   -2.4160   -1.2550    0.6590 C   0  0  0  0  0  0  0  0  0  0  0  0
   -3.5670   -1.7040    1.3250 C   0  0  0  0  0  0  0  0  0  0  0  0
   -3.7800   -3.0170    1.6940 C   0  0  0  0  0  0  0  0  0  0  0  0
   -2.8200   -3.9590    1.4030 C   0  0  0  0  0  0  0  0  0  0  0  0
   -1.6800   -3.5800    0.7580 C   0  0  0  0  0  0  0  0  0  0  0  0
   -1.5000   -2.2300    0.3970 C   0  0  0  0  0  0  0  0  0  0  0  0
   -0.8740   -4.7660    0.5940 C   0  0  0  0  0  0  0  0  0  0  0  0
    0.3340   -4.7700    0.2610 O   0  0  0  0  0  0  0  0  0  0  0  0
   -1.7370   -5.9440    0.8890 C   0  0  0  0  0  0  0  0  0  0  0  0
   -2.8020   -5.3600    1.6750 N   0  0  0  0  0  0  0  0  0  0  0  0
  1  2  1  0
  2  3  1  0
  3  4  2  0
  3  8  1  0
  4  5  1  0
  5  6  2  0
  6  7  1  0
  7  8  2  0
  8  9  1  0
  9 10  1  0
 10 11  2  0
 10 12  1  0
 12 13  1  0
 13 14  1  0
 14 15  2  0
 14 16  1  0
 16 17  2  0
 16 28  1  0
 17 18  1  0
 17 20  1  0
 18 19  1  0
 20 21  2  0
 21 22  1  0
 21 27  1  0
 22 23  1  0
 22 26  1  0
 23 24  1  0
 24 25  1  0
 25 26  1  0
 27 28  2  0
 28 29  1  0
 29 30  2  0
 29 34  1  0
 30 31  1  0
 31 32  2  0
 32 33  1  0
 32 38  1  0
 33 34  2  0
 33 35  1  0
 35 36  2  0
 35 37  1  0
 37 38  1  0
M  CHG  2  20   1  27   1
M  END
