
     RDKit          3D

 38 43  0  0  0  0  0  0  0  0999 V2000
    8.9360    0.2660   -0.0850 C   0  0  0  0  0  0  0  0  0  0  0  0
    9.0570    0.9180    1.2440 C   0  0  0  0  0  0  0  0  0  0  0  0
    8.1130    1.7070    1.7350 O   0  0  0  0  0  0  0  0  0  0  0  0
    6.8620    1.3940    2.0120 C   0  0  0  0  0  0  0  0  0  0  0  0
    5.9830    1.0830    0.8550 C   0  0  0  0  0  0  0  0  0  0  0  0
    6.1670    1.0760   -0.4170 O   0  0  0  0  0  0  0  0  0  0  0  0
    5.1220    0.7430   -1.1250 C   0  0  0  0  0  0  0  0  0  0  0  0
    5.0670    0.6610   -2.5370 O   0  0  0  0  0  0  0  0  0  0  0  0
    5.2960   -0.6280   -3.1330 C   0  0  0  0  0  0  0  0  0  0  0  0
    4.0990    0.4920   -0.2480 C   0  0  0  0  0  0  0  0  0  0  0  0
    2.7260    0.1060   -0.5460 C   0  0  0  0  0  0  0  0  0  0  0  0
    1.7810   -0.1750    0.3630 N   0  0  0  0  0  0  0  0  0  0  0  0
    0.6110   -0.5060   -0.2170 C   0  0  0  0  0  0  0  0  0  0  0  0
   -0.6420   -0.8710    0.2180 C   0  0  0  0  0  0  0  0  0  0  0  0
   -1.5980   -1.1380   -0.7400 C   0  0  0  0  0  0  0  0  0  0  0  0
   -1.3270   -1.0470   -2.0630 N   0  0  0  0  0  0  0  0  0  0  0  0
   -0.0990   -0.6890   -2.5070 C   0  0  0  0  0  0  0  0  0  0  0  0
    0.8850   -0.4150   -1.5880 C   0  0  0  0  0  0  0  0  0  0  0  0
    2.1670   -0.0440   -1.7490 N   0  0  0  0  0  0  0  0  0  0  0  0
   -2.8780   -1.5150   -0.1010 C   0  0  2  0  0  0  0  0  0  0  0  0
   -3.9930   -0.7990   -0.6400 N   0  0  0  0  0  0  0  0  0  0  0  0
   -3.6910    0.5880   -0.9160 C   0  0  0  0  0  0  0  0  0  0  0  0
   -4.9610    1.3900   -1.1660 C   0  0  1  0  0  0  0  0  0  0  0  0
   -5.5970    0.8010   -2.2820 O   0  0  0  0  0  0  0  0  0  0  0  0
   -6.7430    0.1300   -1.8930 C   0  0  0  0  0  0  0  0  0  0  0  0
   -7.6640   -0.6820   -2.5590 C   0  0  0  0  0  0  0  0  0  0  0  0
   -8.7500   -1.2420   -1.9190 C   0  0  0  0  0  0  0  0  0  0  0  0
   -8.9080   -0.9740   -0.5740 C   0  0  0  0  0  0  0  0  0  0  0  0
   -8.0090   -0.1690    0.1190 C   0  0  0  0  0  0  0  0  0  0  0  0
   -6.9280    0.3790   -0.5520 C   0  0  0  0  0  0  0  0  0  0  0  0
   -5.9030    1.1920   -0.1370 O   0  0  0  0  0  0  0  0  0  0  0  0
   -2.6760   -1.3410    1.3760 C   0  0  0  0  0  0  0  0  0  0  0  0
   -1.2050   -1.0460    1.5700 C   0  0  2  0  0  0  0  0  0  0  0  0
   -0.9750    0.0710    2.4560 N   0  0  2  0  0  0  0  0  0  0  0  0
   -2.0530    0.2850    3.3840 C   0  0  0  0  0  0  0  0  0  0  0  0
   -0.7190    1.3030    1.7500 C   0  0  0  0  0  0  0  0  0  0  0  0
    4.6330    0.7040    1.0100 C   0  0  0  0  0  0  0  0  0  0  0  0
    3.7980    0.5360    2.5400 Cl  0  0  0  0  0  0  0  0  0  0  0  0
  1  2  1  0
  2  3  1  0
  3  4  1  0
  4  5  1  0
  5  6  1  0
  5 37  2  0
  6  7  1  0
  7  8  1  0
  7 10  2  0
  8  9  1  0
 10 11  1  0
 10 37  1  0
 11 12  2  0
 11 19  1  0
 12 13  1  0
 13 14  2  0
 13 18  1  0
 14 15  1  0
 14 33  1  0
 15 16  2  0
 15 20  1  0
 16 17  1  0
 17 18  2  0
 18 19  1  0
 20 21  1  6
 20 32  1  0
 21 22  1  0
 23 22  1  1
 23 24  1  0
 23 31  1  0
 24 25  1  0
 25 26  2  0
 25 30  1  0
 26 27  1  0
 27 28  2  0
 28 29  1  0
 29 30  2  0
 30 31  1  0
 33 32  1  6
 33 34  1  0
 34 35  1  6
 34 36  1  0
 37 38  1  0
M  CHG  2  21   1  34   1
M  END
