
     RDKit          3D

 37 42  0  0  0  0  0  0  0  0999 V2000
    7.7630   -1.9180   -1.9340 C   0  0  0  0  0  0  0  0  0  0  0  0
    6.4290   -1.9050   -1.3890 N   0  0  0  0  0  0  0  0  0  0  0  0
    6.4610   -2.0050    0.0430 C   0  0  0  0  0  0  0  0  0  0  0  0
    6.9790   -0.7720    0.7110 C   0  0  0  0  0  0  0  0  0  0  0  0
    6.1300    0.3870    0.3780 C   0  0  0  0  0  0  0  0  0  0  0  0
    6.3770    1.2010   -0.7160 C   0  0  0  0  0  0  0  0  0  0  0  0
    5.5810    2.2590   -0.9960 C   0  0  0  0  0  0  0  0  0  0  0  0
    4.5040    2.5660   -0.2100 C   0  0  0  0  0  0  0  0  0  0  0  0
    4.2320    1.7620    0.9000 C   0  0  0  0  0  0  0  0  0  0  0  0
    3.1580    2.0930    1.6640 O   0  0  0  0  0  0  0  0  0  0  0  0
    1.8410    1.8330    1.4380 C   0  0  0  0  0  0  0  0  0  0  0  0
    1.0060    2.9700    1.3590 C   0  0  0  0  0  0  0  0  0  0  0  0
   -0.3240    2.8240    1.1460 C   0  0  0  0  0  0  0  0  0  0  0  0
   -0.8930    1.5830    1.0030 C   0  0  0  0  0  0  0  0  0  0  0  0
   -0.1000    0.4370    1.0740 C   0  0  0  0  0  0  0  0  0  0  0  0
    1.2540    0.6040    1.2900 C   0  0  0  0  0  0  0  0  0  0  0  0
    2.0250   -0.5620    1.3450 O   0  0  0  0  0  0  0  0  0  0  0  0
    2.3170   -1.3150    0.1910 C   0  0  0  0  0  0  0  0  0  0  0  0
    2.9720   -0.6260   -0.7960 O   0  0  0  0  0  0  0  0  0  0  0  0
   -0.6460   -0.8570    0.9300 O   0  0  0  0  0  0  0  0  0  0  0  0
   -2.0340   -0.9970    0.7100 C   0  0  0  0  0  0  0  0  0  0  0  0
   -2.8630   -1.9840    0.5270 N   0  0  0  0  0  0  0  0  0  0  0  0
   -4.1900   -1.4980    0.3310 N   0  0  0  0  0  0  0  0  0  0  0  0
   -5.2250   -2.4750    0.0500 C   0  0  0  0  0  0  0  0  0  0  0  0
   -6.2790   -2.0570   -0.8810 C   0  0  0  0  0  0  0  0  0  0  0  0
   -7.1720   -1.0250   -0.5550 N   0  0  1  0  0  0  0  0  0  0  0  0
   -7.3930   -0.8520    0.8700 C   0  0  0  0  0  0  0  0  0  0  0  0
   -7.0070    0.2330   -1.2350 C   0  0  0  0  0  0  0  0  0  0  0  0
   -5.6360    0.6380   -1.6110 C   0  0  0  0  0  0  0  0  0  0  0  0
   -4.7370    0.7780   -0.5120 N   0  0  0  0  0  0  0  0  0  0  0  0
   -4.3260    2.1590   -0.4120 C   0  0  0  0  0  0  0  0  0  0  0  0
   -4.8390    2.9820   -1.1800 O   0  0  0  0  0  0  0  0  0  0  0  0
   -3.2870    2.6030    0.6110 C   0  0  0  0  0  0  0  0  0  0  0  0
   -2.3250    1.4630    0.7830 C   0  0  0  0  0  0  0  0  0  0  0  0
   -2.7540    0.2290    0.6650 C   0  0  0  0  0  0  0  0  0  0  0  0
   -4.1800   -0.1030    0.4570 C   0  0  2  0  0  0  0  0  0  0  0  0
    5.0590    0.6900    1.1600 C   0  0  0  0  0  0  0  0  0  0  0  0
  1  2  1  0
  2  3  1  0
  3  4  1  0
  4  5  1  0
  5  6  2  0
  5 37  1  0
  6  7  1  0
  7  8  2  0
  8  9  1  0
  9 10  1  0
  9 37  2  0
 10 11  1  0
 11 12  2  0
 11 16  1  0
 12 13  1  0
 13 14  2  0
 14 15  1  0
 14 34  1  0
 15 16  2  0
 15 20  1  0
 16 17  1  0
 17 18  1  0
 18 19  1  0
 20 21  1  0
 21 22  2  0
 21 35  1  0
 22 23  1  0
 23 24  1  0
 36 23  1  6
 24 25  1  0
 25 26  1  0
 26 27  1  1
 26 28  1  0
 28 29  1  0
 29 30  1  0
 30 31  1  0
 30 36  1  0
 31 32  2  0
 31 33  1  0
 33 34  1  0
 34 35  2  0
 35 36  1  0
M  CHG  2   2   1  26   1
M  END
