
     RDKit          3D

 38 42  0  0  0  0  0  0  0  0999 V2000
   -8.4890   -2.2150    0.6500 C   0  0  0  0  0  0  0  0  0  0  0  0
   -8.2300   -0.9850    0.9290 C   0  0  0  0  0  0  0  0  0  0  0  0
   -6.8980   -0.4410    1.3230 C   0  0  0  0  0  0  0  0  0  0  0  0
   -6.8640    0.8340    1.5810 C   0  0  0  0  0  0  0  0  0  0  0  0
   -5.8180    1.7570    1.9850 C   0  0  0  0  0  0  0  0  0  0  0  0
   -4.1940    1.1700    2.1910 Cl  0  0  0  0  0  0  0  0  0  0  0  0
   -5.7440   -1.3270    1.4770 C   0  0  0  0  0  0  0  0  0  0  0  0
   -5.1900   -1.9440    0.2260 C   0  0  0  0  0  0  0  0  0  0  0  0
   -4.6880   -1.0260   -0.7490 N   0  0  0  0  0  0  0  0  0  0  0  0
   -5.4700   -0.5600   -1.7200 C   0  0  0  0  0  0  0  0  0  0  0  0
   -6.6670   -0.9190   -1.8120 O   0  0  0  0  0  0  0  0  0  0  0  0
   -4.9680    0.3100   -2.6210 N   0  0  0  0  0  0  0  0  0  0  0  0
   -3.6750    0.7300   -2.5680 C   0  0  0  0  0  0  0  0  0  0  0  0
   -3.1990    1.5960   -3.4780 N   0  0  0  0  0  0  0  0  0  0  0  0
   -1.9170    2.0260   -3.4460 C   0  0  0  0  0  0  0  0  0  0  0  0
   -1.0390    1.5960   -2.4780 C   0  0  0  0  0  0  0  0  0  0  0  0
   -1.4930    0.7080   -1.5290 C   0  0  0  0  0  0  0  0  0  0  0  0
   -0.6670    0.1970   -0.4690 C   0  0  0  0  0  0  0  0  0  0  0  0
    0.7110    0.6100   -0.3860 N   0  0  2  0  0  0  0  0  0  0  0  0
    0.9390    1.9690   -0.0260 C   0  0  0  0  0  0  0  0  0  0  0  0
    2.1720    2.5740   -0.6600 C   0  0  0  0  0  0  0  0  0  0  0  0
    3.4580    1.9960   -0.1840 C   0  0  0  0  0  0  0  0  0  0  0  0
    3.4060    0.5900    0.3110 C   0  0  2  0  0  0  0  0  0  0  0  0
    4.8020    0.1940    0.6470 C   0  0  0  0  0  0  0  0  0  0  0  0
    5.7940    0.0770   -0.2540 N   0  0  0  0  0  0  0  0  0  0  0  0
    6.9320   -0.2980    0.3840 C   0  0  0  0  0  0  0  0  0  0  0  0
    6.5760   -0.4000    1.7130 C   0  0  0  0  0  0  0  0  0  0  0  0
    5.3040   -0.0980    1.8140 O   0  0  0  0  0  0  0  0  0  0  0  0
    7.4710   -0.7850    2.8430 C   0  0  0  0  0  0  0  0  0  0  0  0
    8.1380   -1.9420    2.4410 O   0  0  0  0  0  0  0  0  0  0  0  0
    9.1320   -1.6330    1.5150 C   0  0  0  0  0  0  0  0  0  0  0  0
    8.7120   -1.7850    0.2040 O   0  0  0  0  0  0  0  0  0  0  0  0
    8.2530   -0.5360   -0.2500 C   0  0  0  0  0  0  0  0  0  0  0  0
    2.9040   -0.4090   -0.6880 C   0  0  0  0  0  0  0  0  0  0  0  0
    1.5950    0.0390   -1.3530 C   0  0  0  0  0  0  0  0  0  0  0  0
   -2.8280    0.2730   -1.5790 C   0  0  0  0  0  0  0  0  0  0  0  0
   -3.3800   -0.6100   -0.6850 C   0  0  0  0  0  0  0  0  0  0  0  0
   -2.6940   -1.0710    0.2320 O   0  0  0  0  0  0  0  0  0  0  0  0
  1  2  2  0
  2  3  1  0
  3  4  2  3
  3  7  1  0
  4  5  1  0
  5  6  1  0
  7  8  1  0
  8  9  1  0
  9 10  1  0
  9 37  1  0
 10 11  2  0
 10 12  1  0
 12 13  1  0
 13 14  2  0
 13 36  1  0
 14 15  1  0
 15 16  2  0
 16 17  1  0
 17 18  1  0
 17 36  2  0
 19 18  1  6
 19 20  1  0
 19 35  1  0
 20 21  1  0
 21 22  1  0
 22 23  1  0
 23 24  1  6
 23 34  1  0
 24 25  2  0
 24 28  1  0
 25 26  1  0
 26 27  2  0
 26 33  1  0
 27 28  1  0
 27 29  1  0
 29 30  1  0
 30 31  1  0
 31 32  1  0
 32 33  1  0
 34 35  1  0
 36 37  1  0
 37 38  2  0
M  CHG  2  19   1  25   1
M  END
