
     RDKit          3D

 38 42  0  0  0  0  0  0  0  0999 V2000
   -7.9060   -2.2810   -2.0820 C   0  0  0  0  0  0  0  0  0  0  0  0
   -7.7440   -0.9660   -1.4910 N   0  0  2  0  0  0  0  0  0  0  0  0
   -8.3620    0.0670   -2.2940 C   0  0  0  0  0  0  0  0  0  0  0  0
   -8.5790    1.2520   -1.3500 C   0  0  0  0  0  0  0  0  0  0  0  0
   -7.6640    1.1600   -0.1530 C   0  0  0  0  0  0  0  0  0  0  0  0
   -6.3030    0.6520   -0.4830 C   0  0  1  0  0  0  0  0  0  0  0  0
   -5.6130    0.2860    0.7840 C   0  0  0  0  0  0  0  0  0  0  0  0
   -6.2560    0.3900    1.8740 O   0  0  0  0  0  0  0  0  0  0  0  0
   -4.2720   -0.1720    0.8130 N   0  0  0  0  0  0  0  0  0  0  0  0
   -3.5570   -0.5450    2.0160 C   0  0  0  0  0  0  0  0  0  0  0  0
   -2.1250   -0.5230    1.5740 C   0  0  0  0  0  0  0  0  0  0  0  0
   -2.0620   -0.0410    0.2200 N   0  0  2  0  0  0  0  0  0  0  0  0
   -1.8570    1.3630    0.2300 C   0  0  0  0  0  0  0  0  0  0  0  0
   -0.4610    1.8500    0.0790 C   0  0  0  0  0  0  0  0  0  0  0  0
    0.4860    1.5370    0.9900 O   0  0  0  0  0  0  0  0  0  0  0  0
    1.1430    0.4160    1.3570 C   0  0  0  0  0  0  0  0  0  0  0  0
    0.9240   -0.6740    0.7780 O   0  0  0  0  0  0  0  0  0  0  0  0
    2.1690    0.4080    2.4730 C   0  0  0  0  0  0  0  0  0  0  0  0
    3.4560    0.7220    1.8970 N   0  0  0  0  0  0  0  0  0  0  0  0
    3.9110    1.9790    1.7980 N   0  0  0  0  0  0  0  0  0  0  0  0
    5.1130    1.9570    1.2330 C   0  0  0  0  0  0  0  0  0  0  0  0
    5.4240    0.6400    0.9690 C   0  0  0  0  0  0  0  0  0  0  0  0
    6.5350    0.0280    0.3930 C   0  0  0  0  0  0  0  0  0  0  0  0
    6.5760   -1.3400    0.2500 C   0  0  0  0  0  0  0  0  0  0  0  0
    7.6860   -1.9420   -0.3250 O   0  0  0  0  0  0  0  0  0  0  0  0
    8.7590   -1.1770   -0.7560 C   0  0  0  0  0  0  0  0  0  0  0  0
    8.8140   -0.6840   -2.0410 C   0  0  0  0  0  0  0  0  0  0  0  0
    9.8960    0.0640   -2.4130 C   0  0  0  0  0  0  0  0  0  0  0  0
   10.9240    0.3410   -1.5570 C   0  0  0  0  0  0  0  0  0  0  0  0
   12.0150    1.1120   -1.9760 O   0  0  0  0  0  0  0  0  0  0  0  0
   10.8820   -0.1410   -0.2820 C   0  0  0  0  0  0  0  0  0  0  0  0
   12.1450    0.1590    0.8810 Cl  0  0  0  0  0  0  0  0  0  0  0  0
    9.7870   -0.9060    0.1160 C   0  0  0  0  0  0  0  0  0  0  0  0
    5.5070   -2.0900    0.6820 C   0  0  0  0  0  0  0  0  0  0  0  0
    4.3930   -1.4910    1.2580 C   0  0  0  0  0  0  0  0  0  0  0  0
    4.3720   -0.1150    1.3930 C   0  0  0  0  0  0  0  0  0  0  0  0
   -3.4080   -0.3330   -0.3370 C   0  0  0  0  0  0  0  0  0  0  0  0
   -6.3490   -0.6180   -1.3270 C   0  0  0  0  0  0  0  0  0  0  0  0
  2  1  1  6
  2  3  1  0
  2 38  1  0
  3  4  1  0
  4  5  1  0
  5  6  1  0
  6  7  1  1
  6 38  1  0
  7  8  2  0
  7  9  1  0
  9 10  1  0
  9 37  1  0
 10 11  1  0
 11 12  1  0
 12 13  1  1
 12 37  1  0
 13 14  1  0
 14 15  1  0
 15 16  1  0
 16 17  2  0
 16 18  1  0
 18 19  1  0
 19 20  1  0
 19 36  1  0
 20 21  2  0
 21 22  1  0
 22 23  2  0
 22 36  1  0
 23 24  1  0
 24 25  1  0
 24 34  2  0
 25 26  1  0
 26 27  2  0
 26 33  1  0
 27 28  1  0
 28 29  2  0
 29 30  1  0
 29 31  1  0
 31 32  1  0
 31 33  2  0
 34 35  1  0
 35 36  2  0
M  CHG  2   2   1  12   1
M  END
