
     RDKit          3D

 38 42  0  0  0  0  0  0  0  0999 V2000
    8.5070    2.2650    1.3130 C   0  0  0  0  0  0  0  0  0  0  0  0
    7.2560    1.6850    1.0270 O   0  0  0  0  0  0  0  0  0  0  0  0
    7.2010    0.5300    0.2230 C   0  0  0  0  0  0  0  0  0  0  0  0
    8.3600   -0.0080   -0.2660 C   0  0  0  0  0  0  0  0  0  0  0  0
    8.3480   -1.1290   -1.0490 C   0  0  0  0  0  0  0  0  0  0  0  0
    7.1360   -1.7040   -1.3340 C   0  0  0  0  0  0  0  0  0  0  0  0
    5.9290   -1.1880   -0.8560 C   0  0  0  0  0  0  0  0  0  0  0  0
    5.9720   -0.0620   -0.0720 C   0  0  0  0  0  0  0  0  0  0  0  0
    4.8360    0.5880    0.4710 N   0  0  0  0  0  0  0  0  0  0  0  0
    3.5300    0.0790    0.3650 C   0  0  0  0  0  0  0  0  0  0  0  0
    3.2740   -0.9760   -0.2030 O   0  0  0  0  0  0  0  0  0  0  0  0
    2.4010    0.8480    0.9660 C   0  0  0  0  0  0  0  0  0  0  0  0
    1.1550    0.2760    0.8840 O   0  0  0  0  0  0  0  0  0  0  0  0
    0.4530   -0.1040   -0.2360 C   0  0  0  0  0  0  0  0  0  0  0  0
    1.0040    0.0690   -1.3530 O   0  0  0  0  0  0  0  0  0  0  0  0
   -0.8660   -0.6850   -0.2220 C   0  0  0  0  0  0  0  0  0  0  0  0
   -0.8400   -2.0980   -0.1810 C   0  0  0  0  0  0  0  0  0  0  0  0
    0.4230   -2.8710   -0.1890 C   0  0  0  0  0  0  0  0  0  0  0  0
    1.1440   -2.9470   -1.7970 Cl  0  0  0  0  0  0  0  0  0  0  0  0
   -1.9690   -2.8060   -0.1430 N   0  0  0  0  0  0  0  0  0  0  0  0
   -3.1470   -2.1360   -0.1460 C   0  0  0  0  0  0  0  0  0  0  0  0
   -4.3780   -2.8340   -0.0860 N   0  0  0  0  0  0  0  0  0  0  0  0
   -5.1480   -3.0780    1.0990 C   0  0  0  0  0  0  0  0  0  0  0  0
   -6.5580   -3.4140    0.6740 C   0  0  0  0  0  0  0  0  0  0  0  0
   -6.5190   -3.4360   -0.8230 C   0  0  0  0  0  0  0  0  0  0  0  0
   -5.0610   -3.4230   -1.1970 C   0  0  0  0  0  0  0  0  0  0  0  0
   -3.1580   -0.7930   -0.1860 N   0  0  0  0  0  0  0  0  0  0  0  0
   -2.0540   -0.0090   -0.2240 C   0  0  0  0  0  0  0  0  0  0  0  0
   -2.1920    1.4180   -0.2090 C   0  0  0  0  0  0  0  0  0  0  0  0
   -1.1880    2.3260   -0.3490 C   0  0  0  0  0  0  0  0  0  0  0  0
   -1.4710    3.6970   -0.2830 C   0  0  0  0  0  0  0  0  0  0  0  0
   -2.7280    4.1930   -0.0810 C   0  0  0  0  0  0  0  0  0  0  0  0
   -3.7480    3.2830    0.0600 C   0  0  0  0  0  0  0  0  0  0  0  0
   -3.4730    1.9460   -0.0040 C   0  0  0  0  0  0  0  0  0  0  0  0
   -4.9970    4.0060    0.2570 C   0  0  0  0  0  0  0  0  0  0  0  0
   -6.1420    3.5000    0.3080 O   0  0  0  0  0  0  0  0  0  0  0  0
   -4.6760    5.4680    0.3880 C   0  0  0  0  0  0  0  0  0  0  0  0
   -3.2910    5.5000    0.0300 N   0  0  0  0  0  0  0  0  0  0  0  0
  1  2  1  0
  2  3  1  0
  3  4  2  0
  3  8  1  0
  4  5  1  0
  5  6  2  0
  6  7  1  0
  7  8  2  0
  8  9  1  0
  9 10  1  0
 10 11  2  0
 10 12  1  0
 12 13  1  0
 13 14  1  0
 14 15  2  0
 14 16  1  0
 16 17  2  0
 16 28  1  0
 17 18  1  0
 17 20  1  0
 18 19  1  0
 20 21  2  0
 21 22  1  0
 21 27  1  0
 22 23  1  0
 22 26  1  0
 23 24  1  0
 24 25  1  0
 25 26  1  0
 27 28  2  0
 28 29  1  0
 29 30  2  0
 29 34  1  0
 30 31  1  0
 31 32  2  0
 32 33  1  0
 32 38  1  0
 33 34  2  0
 33 35  1  0
 35 36  2  0
 35 37  1  0
 37 38  1  0
M  CHG  2  20   1  27   1
M  END
