
     RDKit          3D

 38 42  0  0  0  0  0  0  0  0999 V2000
   -7.5920   -2.2240   -0.0130 C   0  0  0  0  0  0  0  0  0  0  0  0
   -6.1430   -2.0390   -0.3790 C   0  0  0  0  0  0  0  0  0  0  0  0
   -5.3110   -3.1540   -0.4660 C   0  0  0  0  0  0  0  0  0  0  0  0
   -3.9680   -3.0440   -0.7160 C   0  0  0  0  0  0  0  0  0  0  0  0
   -3.4370   -1.7450   -0.8850 C   0  0  0  0  0  0  0  0  0  0  0  0
   -4.2170   -0.6580   -0.7970 C   0  0  0  0  0  0  0  0  0  0  0  0
   -3.8340    0.8030   -0.8940 C   0  0  0  0  0  0  0  0  0  0  0  0
   -3.0200    1.0770    0.2400 O   0  0  0  0  0  0  0  0  0  0  0  0
   -1.7670    0.6920    0.4600 C   0  0  0  0  0  0  0  0  0  0  0  0
   -1.1050    0.1270   -0.4330 O   0  0  0  0  0  0  0  0  0  0  0  0
   -1.0250    0.8610    1.7940 C   0  0  0  0  0  0  0  0  0  0  0  0
    0.1910    0.1760    1.4330 O   0  0  0  0  0  0  0  0  0  0  0  0
    1.2180    0.9010    0.7830 C   0  0  0  0  0  0  0  0  0  0  0  0
    1.1360    2.1070    0.6320 O   0  0  0  0  0  0  0  0  0  0  0  0
    2.3530    0.0920    0.3100 C   0  0  0  0  0  0  0  0  0  0  0  0
    3.6260    0.4980    0.7730 N   0  0  1  0  0  0  0  0  0  0  0  0
    3.8390   -0.1690    2.0460 C   0  0  0  0  0  0  0  0  0  0  0  0
    4.6390    0.2730   -0.1890 C   0  0  0  0  0  0  0  0  0  0  0  0
    4.5100    0.0080   -1.5010 N   0  0  0  0  0  0  0  0  0  0  0  0
    5.7310   -0.2010   -2.0380 N   0  0  0  0  0  0  0  0  0  0  0  0
    6.6640   -0.0830   -1.0810 C   0  0  0  0  0  0  0  0  0  0  0  0
    5.9880    0.2060    0.0320 N   0  0  0  0  0  0  0  0  0  0  0  0
    6.9140    0.3070    1.0790 C   0  0  0  0  0  0  0  0  0  0  0  0
    6.6780    0.5720    2.2850 O   0  0  0  0  0  0  0  0  0  0  0  0
    8.2700    0.0580    0.5690 C   0  0  0  0  0  0  0  0  0  0  0  0
    9.5090    0.0380    1.1990 C   0  0  0  0  0  0  0  0  0  0  0  0
   10.6600   -0.2440    0.4690 C   0  0  0  0  0  0  0  0  0  0  0  0
   10.4500   -0.4910   -0.8970 C   0  0  0  0  0  0  0  0  0  0  0  0
    9.2320   -0.4620   -1.5060 C   0  0  0  0  0  0  0  0  0  0  0  0
    8.1110   -0.1870   -0.7800 C   0  0  0  0  0  0  0  0  0  0  0  0
   -5.6140   -0.8140   -0.5410 C   0  0  0  0  0  0  0  0  0  0  0  0
   -6.3690    0.4170   -0.3980 C   0  0  0  0  0  0  0  0  0  0  0  0
   -6.3540    1.0750    0.8460 C   0  0  0  0  0  0  0  0  0  0  0  0
   -6.9890    2.2930    0.9450 C   0  0  0  0  0  0  0  0  0  0  0  0
   -7.6090    2.8710   -0.0830 N   0  0  0  0  0  0  0  0  0  0  0  0
   -7.6460    2.2580   -1.3030 C   0  0  0  0  0  0  0  0  0  0  0  0
   -8.4480    3.0090   -2.6590 Cl  0  0  0  0  0  0  0  0  0  0  0  0
   -7.0180    1.0380   -1.4280 C   0  0  0  0  0  0  0  0  0  0  0  0
  1  2  1  0
  2  3  2  0
  2 31  1  0
  3  4  1  0
  4  5  2  0
  5  6  1  0
  6  7  1  0
  6 31  2  0
  7  8  1  0
  8  9  1  0
  9 10  2  0
  9 11  1  0
 11 12  1  0
 12 13  1  0
 13 14  2  0
 13 15  1  0
 15 16  1  0
 16 17  1  1
 16 18  1  0
 18 19  2  0
 18 22  1  0
 19 20  1  0
 20 21  2  0
 21 22  1  0
 21 30  1  0
 22 23  1  0
 23 24  2  0
 23 25  1  0
 25 26  2  0
 25 30  1  0
 26 27  1  0
 27 28  2  0
 28 29  1  0
 29 30  2  0
 31 32  1  0
 32 33  2  0
 32 38  1  0
 33 34  1  0
 34 35  2  0
 35 36  1  0
 36 37  1  0
 36 38  2  0
M  CHG  2  16   1  35   1
M  END
