
     RDKit          3D

 38 41  0  0  0  0  0  0  0  0999 V2000
   -1.6070    4.0230    0.5910 C   0  0  0  0  0  0  0  0  0  0  0  0
   -1.2520    2.8910   -0.3920 C   0  0  2  0  0  0  0  0  0  0  0  0
   -1.7600    3.3460   -1.7200 C   0  0  0  0  0  0  0  0  0  0  0  0
   -1.8480    1.6550    0.1570 C   0  0  0  0  0  0  0  0  0  0  0  0
   -1.6910    0.4460   -0.5210 N   0  0  0  0  0  0  0  0  0  0  0  0
   -0.4460   -0.2020   -0.5160 C   0  0  0  0  0  0  0  0  0  0  0  0
   -0.3240   -1.3740    0.4550 C   0  0  1  0  0  0  0  0  0  0  0  0
   -1.2170   -2.3850    0.2180 O   0  0  0  0  0  0  0  0  0  0  0  0
    1.1130   -1.7640    0.5010 C   0  0  2  0  0  0  0  0  0  0  0  0
    1.4560   -2.8290    1.5100 C   0  0  0  0  0  0  0  0  0  0  0  0
    0.7460   -4.1030    1.2980 C   0  0  0  0  0  0  0  0  0  0  0  0
    1.2790   -5.0700    0.4400 C   0  0  0  0  0  0  0  0  0  0  0  0
    0.6430   -6.2750    0.2380 C   0  0  0  0  0  0  0  0  0  0  0  0
   -0.5370   -6.4950    0.9090 C   0  0  0  0  0  0  0  0  0  0  0  0
   -1.0820   -5.5430    1.7670 C   0  0  0  0  0  0  0  0  0  0  0  0
   -0.4370   -4.3510    1.9570 C   0  0  0  0  0  0  0  0  0  0  0  0
    1.8760   -0.5520    0.7330 N   0  0  0  0  0  0  0  0  0  0  0  0
    2.8280   -0.0410   -0.1860 C   0  0  0  0  0  0  0  0  0  0  0  0
    3.0450   -0.6610   -1.2830 O   0  0  0  0  0  0  0  0  0  0  0  0
    3.5610    1.1040    0.0120 O   0  0  0  0  0  0  0  0  0  0  0  0
    4.4810    1.5560   -0.9260 C   0  0  1  0  0  0  0  0  0  0  0  0
    4.0810    2.9480   -1.4370 C   0  0  0  0  0  0  0  0  0  0  0  0
    5.2490    3.3060   -2.1120 O   0  0  0  0  0  0  0  0  0  0  0  0
    6.3150    2.9590   -1.3110 C   0  0  1  0  0  0  0  0  0  0  0  0
    6.6470    4.0320   -0.5260 O   0  0  0  0  0  0  0  0  0  0  0  0
    6.8810    3.6020    0.7560 C   0  0  0  0  0  0  0  0  0  0  0  0
    5.8300    2.5270    0.9480 C   0  0  0  0  0  0  0  0  0  0  0  0
    5.8490    1.8420   -0.3960 C   0  0  1  0  0  0  0  0  0  0  0  0
   -2.8590   -0.0510   -1.6220 S   0  0  2  0  0  0  0  0  0  0  0  0
   -2.4560   -1.4140   -2.1710 O   0  0  0  0  0  0  0  0  0  0  0  0
   -2.9950    0.8200   -2.8470 O   0  0  0  0  0  0  0  0  0  0  0  0
   -4.4150   -0.2790   -0.8710 C   0  0  0  0  0  0  0  0  0  0  0  0
   -5.2910    0.7790   -0.8060 C   0  0  0  0  0  0  0  0  0  0  0  0
   -6.5270    0.6360   -0.2220 C   0  0  0  0  0  0  0  0  0  0  0  0
   -6.9100   -0.5810    0.3140 C   0  0  0  0  0  0  0  0  0  0  0  0
   -8.2030   -0.7250    0.9240 N   0  0  0  0  0  0  0  0  0  0  0  0
   -6.0440   -1.6490    0.2570 C   0  0  0  0  0  0  0  0  0  0  0  0
   -4.8030   -1.4800   -0.3380 C   0  0  0  0  0  0  0  0  0  0  0  0
  2  1  1  1
  2  3  1  0
  2  4  1  0
  4  5  1  0
  5  6  1  0
 29  5  1  1
  6  7  1  0
  7  8  1  6
  7  9  1  0
  9 10  1  1
  9 17  1  0
 10 11  1  0
 11 12  2  0
 11 16  1  0
 12 13  1  0
 13 14  2  0
 14 15  1  0
 15 16  2  0
 17 18  1  0
 18 19  2  0
 18 20  1  0
 21 20  1  1
 21 22  1  0
 21 28  1  0
 22 23  1  0
 24 23  1  6
 24 25  1  0
 24 28  1  0
 25 26  1  0
 26 27  1  0
 28 27  1  1
 29 30  2  0
 29 31  2  0
 29 32  1  0
 32 33  2  0
 32 38  1  0
 33 34  1  0
 34 35  2  0
 35 36  1  0
 35 37  1  0
 37 38  2  0
M  END
