
     RDKit          3D

 37 42  0  0  0  0  0  0  0  0999 V2000
    7.9120   -2.7290   -1.8920 C   0  0  0  0  0  0  0  0  0  0  0  0
    6.7880   -1.9240   -2.2720 N   0  0  0  0  0  0  0  0  0  0  0  0
    5.9580   -1.5650   -1.1250 C   0  0  0  0  0  0  0  0  0  0  0  0
    6.6800   -0.4440   -0.4050 C   0  0  0  0  0  0  0  0  0  0  0  0
    5.8520   -0.0570    0.7760 C   0  0  0  0  0  0  0  0  0  0  0  0
    6.0940   -0.7120    1.9540 C   0  0  0  0  0  0  0  0  0  0  0  0
    5.3560   -0.3840    3.0520 C   0  0  0  0  0  0  0  0  0  0  0  0
    4.3710    0.5990    2.9850 C   0  0  0  0  0  0  0  0  0  0  0  0
    4.1470    1.2370    1.8050 C   0  0  0  0  0  0  0  0  0  0  0  0
    3.1850    2.2110    1.6900 O   0  0  0  0  0  0  0  0  0  0  0  0
    1.8930    2.0350    1.2210 C   0  0  0  0  0  0  0  0  0  0  0  0
    1.4960    2.7300    0.0630 C   0  0  0  0  0  0  0  0  0  0  0  0
    0.2270    2.6050   -0.4660 C   0  0  0  0  0  0  0  0  0  0  0  0
   -0.6960    1.7830    0.1350 C   0  0  0  0  0  0  0  0  0  0  0  0
   -0.3420    1.0860    1.2740 C   0  0  0  0  0  0  0  0  0  0  0  0
    0.9490    1.2290    1.7920 C   0  0  0  0  0  0  0  0  0  0  0  0
    1.2800    0.5200    2.9450 O   0  0  0  0  0  0  0  0  0  0  0  0
    0.9820    1.0490    4.2310 C   0  0  0  0  0  0  0  0  0  0  0  0
    1.5780    2.2610    4.4830 O   0  0  0  0  0  0  0  0  0  0  0  0
   -1.2730    0.2450    1.8960 O   0  0  0  0  0  0  0  0  0  0  0  0
   -2.5850    0.0960    1.3770 C   0  0  0  0  0  0  0  0  0  0  0  0
   -3.6330   -0.5600    1.6730 N   0  0  0  0  0  0  0  0  0  0  0  0
   -4.6710   -0.3110    0.7520 N   0  0  0  0  0  0  0  0  0  0  0  0
   -5.8660   -1.0750    1.0300 C   0  0  0  0  0  0  0  0  0  0  0  0
   -6.8050   -1.1130   -0.1540 C   0  0  0  0  0  0  0  0  0  0  0  0
   -6.2660   -1.8050   -1.2760 N   0  0  1  0  0  0  0  0  0  0  0  0
   -7.2160   -2.8100   -1.7330 C   0  0  0  0  0  0  0  0  0  0  0  0
   -6.1040   -0.8690   -2.3720 C   0  0  0  0  0  0  0  0  0  0  0  0
   -4.6080   -0.6260   -2.5240 C   0  0  0  0  0  0  0  0  0  0  0  0
   -4.1680    0.3360   -1.5850 N   0  0  0  0  0  0  0  0  0  0  0  0
   -3.3900    1.2750   -2.3770 C   0  0  0  0  0  0  0  0  0  0  0  0
   -3.4110    1.2810   -3.6080 O   0  0  0  0  0  0  0  0  0  0  0  0
   -2.5190    2.2860   -1.6710 C   0  0  0  0  0  0  0  0  0  0  0  0
   -2.0230    1.6670   -0.4290 C   0  0  0  0  0  0  0  0  0  0  0  0
   -2.8380    0.8650    0.2120 C   0  0  0  0  0  0  0  0  0  0  0  0
   -4.2590    0.6250   -0.2070 C   0  0  2  0  0  0  0  0  0  0  0  0
    4.8870    0.9110    0.6920 C   0  0  0  0  0  0  0  0  0  0  0  0
  1  2  1  0
  2  3  1  0
  3  4  1  0
  4  5  1  0
  5  6  2  0
  5 37  1  0
  6  7  1  0
  7  8  2  0
  8  9  1  0
  9 10  1  0
  9 37  2  0
 10 11  1  0
 11 12  2  0
 11 16  1  0
 12 13  1  0
 13 14  2  0
 14 15  1  0
 14 34  1  0
 15 16  2  0
 15 20  1  0
 16 17  1  0
 17 18  1  0
 18 19  1  0
 20 21  1  0
 21 22  2  0
 21 35  1  0
 22 23  1  0
 23 24  1  0
 36 23  1  1
 24 25  1  0
 25 26  1  0
 26 27  1  6
 26 28  1  0
 28 29  1  0
 29 30  1  0
 30 31  1  0
 30 36  1  0
 31 32  2  0
 31 33  1  0
 33 34  1  0
 34 35  2  0
 35 36  1  0
M  CHG  2   2   1  26   1
M  END
