
     RDKit          3D

 38 42  0  0  0  0  0  0  0  0999 V2000
    8.0460   -0.2490    3.3870 C   0  0  0  0  0  0  0  0  0  0  0  0
    7.2690    0.9700    2.8440 C   0  0  0  0  0  0  0  0  0  0  0  0
    6.7700    0.5800    1.4730 C   0  0  0  0  0  0  0  0  0  0  0  0
    5.5340    0.0650    1.3310 N   0  0  0  0  0  0  0  0  0  0  0  0
    5.0670   -0.2960    0.1270 C   0  0  0  0  0  0  0  0  0  0  0  0
    5.8940   -0.1310   -0.9550 C   0  0  0  0  0  0  0  0  0  0  0  0
    7.1480    0.3960   -0.8080 C   0  0  0  0  0  0  0  0  0  0  0  0
    7.8820    0.5470   -1.8210 O   0  0  0  0  0  0  0  0  0  0  0  0
    7.5220    0.7240    0.3980 O   0  0  0  0  0  0  0  0  0  0  0  0
    5.4010   -0.6290   -2.2440 C   0  0  0  0  0  0  0  0  0  0  0  0
    3.9630   -0.5680   -2.4950 C   0  0  0  0  0  0  0  0  0  0  0  0
    3.0850   -0.5560   -1.3120 N   0  0  2  0  0  0  0  0  0  0  0  0
    2.1910    0.5540   -1.4670 C   0  0  0  0  0  0  0  0  0  0  0  0
    0.7990    0.3930   -1.0840 C   0  0  0  0  0  0  0  0  0  0  0  0
    0.1410    0.2670    0.0540 N   0  0  0  0  0  0  0  0  0  0  0  0
   -1.1920    0.3490   -0.1570 C   0  0  0  0  0  0  0  0  0  0  0  0
   -2.3440    0.2630    0.7480 C   0  0  2  0  0  0  0  0  0  0  0  0
   -3.0880   -1.0440    0.4550 C   0  0  0  0  0  0  0  0  0  0  0  0
   -4.0810   -0.9680   -0.6840 C   0  0  0  0  0  0  0  0  0  0  0  0
   -5.2760   -0.0410   -0.2290 C   0  0  0  0  0  0  0  0  0  0  0  0
   -4.6760    0.7010    0.8120 N   0  0  0  0  0  0  0  0  0  0  0  0
   -5.0000    0.6830    2.1770 C   0  0  0  0  0  0  0  0  0  0  0  0
   -4.3270    1.3810    3.0040 O   0  0  0  0  0  0  0  0  0  0  0  0
   -6.0710   -0.1440    2.6860 C   0  0  0  0  0  0  0  0  0  0  0  0
   -5.8000   -0.8070    3.8690 O   0  0  0  0  0  0  0  0  0  0  0  0
   -6.8180   -1.5140    4.2430 C   0  0  0  0  0  0  0  0  0  0  0  0
   -7.8280   -1.3650    3.3340 C   0  0  0  0  0  0  0  0  0  0  0  0
   -7.3140   -0.4710    2.3580 C   0  0  0  0  0  0  0  0  0  0  0  0
   -8.2140    0.0210    1.2650 C   0  0  0  0  0  0  0  0  0  0  0  0
   -3.3820    1.3730    0.4080 C   0  0  0  0  0  0  0  0  0  0  0  0
   -1.3870    0.5330   -1.4770 N   0  0  0  0  0  0  0  0  0  0  0  0
   -0.2100    0.5580   -2.0430 C   0  0  0  0  0  0  0  0  0  0  0  0
   -0.0130    0.6800   -3.5200 C   0  0  0  0  0  0  0  0  0  0  0  0
   -1.0510    0.5080   -4.2590 C   0  0  0  0  0  0  0  0  0  0  0  0
   -1.3370    0.5280   -5.6600 C   0  0  0  0  0  0  0  0  0  0  0  0
   -2.4450    0.2880   -6.1830 O   0  0  0  0  0  0  0  0  0  0  0  0
   -0.0500    0.9330   -6.8150 Cl  0  0  0  0  0  0  0  0  0  0  0  0
    3.7050   -0.8120   -0.0860 C   0  0  0  0  0  0  0  0  0  0  0  0
  1  2  1  0
  2  3  1  0
  3  4  2  0
  3  9  1  0
  4  5  1  0
  5  6  2  0
  5 38  1  0
  6  7  1  0
  6 10  1  0
  7  8  2  0
  7  9  1  0
 10 11  1  0
 11 12  1  0
 12 13  1  1
 12 38  1  0
 13 14  1  0
 14 15  1  0
 14 32  2  0
 15 16  1  0
 17 16  1  6
 16 31  2  0
 17 18  1  0
 17 30  1  0
 18 19  1  0
 19 20  1  0
 20 21  1  0
 21 22  1  0
 21 30  1  0
 22 23  2  0
 22 24  1  0
 24 25  1  0
 24 28  2  0
 25 26  1  0
 26 27  2  0
 27 28  1  0
 28 29  1  0
 31 32  1  0
 32 33  1  0
 33 34  2  3
 34 35  1  0
 35 36  2  0
 35 37  1  0
M  CHG  2   4   1  12   1
M  END
