
     RDKit          3D

 38 42  0  0  0  0  0  0  0  0999 V2000
    7.5450    2.4650   -1.2990 C   0  0  0  0  0  0  0  0  0  0  0  0
    7.8020    1.4400   -2.2040 O   0  0  0  0  0  0  0  0  0  0  0  0
    7.3730    0.2510   -1.6550 C   0  0  0  0  0  0  0  0  0  0  0  0
    8.0820   -0.0570   -0.3670 C   0  0  0  0  0  0  0  0  0  0  0  0
    9.4670   -0.0660   -0.3570 C   0  0  0  0  0  0  0  0  0  0  0  0
   10.1390   -0.3450    0.7970 C   0  0  0  0  0  0  0  0  0  0  0  0
    9.3700   -0.6110    1.9240 C   0  0  0  0  0  0  0  0  0  0  0  0
   10.1250   -0.9840    3.4670 Cl  0  0  0  0  0  0  0  0  0  0  0  0
    7.9990   -0.5930    1.8760 C   0  0  0  0  0  0  0  0  0  0  0  0
    7.3380   -0.3130    0.7190 N   0  0  0  0  0  0  0  0  0  0  0  0
    5.9190   -0.2980    0.6620 C   0  0  0  0  0  0  0  0  0  0  0  0
    5.1760   -1.4480    0.5210 C   0  0  0  0  0  0  0  0  0  0  0  0
    3.7800   -1.3350    0.4780 C   0  0  0  0  0  0  0  0  0  0  0  0
    3.1530   -0.1180    0.5720 C   0  0  0  0  0  0  0  0  0  0  0  0
    1.6910    0.0520    0.5330 C   0  0  0  0  0  0  0  0  0  0  0  0
    1.2600    1.2230    0.6210 O   0  0  0  0  0  0  0  0  0  0  0  0
    0.8450   -1.0590    0.4050 N   0  0  0  0  0  0  0  0  0  0  0  0
   -0.5690   -0.9360    0.3580 C   0  0  0  0  0  0  0  0  0  0  0  0
   -1.3120   -2.1060    0.5790 C   0  0  0  0  0  0  0  0  0  0  0  0
   -2.6850   -2.1230    0.5430 C   0  0  0  0  0  0  0  0  0  0  0  0
   -3.3580   -0.9510    0.2810 C   0  0  0  0  0  0  0  0  0  0  0  0
   -4.7140   -0.8950    0.2310 O   0  0  0  0  0  0  0  0  0  0  0  0
   -5.5840   -1.9430    0.4250 C   0  0  1  0  0  0  0  0  0  0  0  0
   -6.6120   -1.6420    1.5330 C   0  0  0  0  0  0  0  0  0  0  0  0
   -7.6360   -2.7170    1.2350 C   0  0  0  0  0  0  0  0  0  0  0  0
   -7.6620   -2.8950   -0.1850 N   0  0  0  0  0  0  0  0  0  0  0  0
   -6.5780   -2.0960   -0.7430 C   0  0  0  0  0  0  0  0  0  0  0  0
   -2.6610    0.2330    0.0560 C   0  0  0  0  0  0  0  0  0  0  0  0
   -3.4080    1.4800   -0.2240 C   0  0  0  0  0  0  0  0  0  0  0  0
   -2.7570    2.5190   -0.4210 O   0  0  0  0  0  0  0  0  0  0  0  0
   -4.7520    1.4570   -0.2580 O   0  0  0  0  0  0  0  0  0  0  0  0
   -5.6820    2.4170   -0.4960 C   0  0  0  0  0  0  0  0  0  0  0  0
   -5.7130    2.9610   -1.8650 C   0  0  2  0  0  0  0  0  0  0  0  0
   -4.6610    3.6830   -2.5720 C   0  0  0  0  0  0  0  0  0  0  0  0
   -5.9070    4.4180   -2.0490 C   0  0  0  0  0  0  0  0  0  0  0  0
   -1.2870    0.1830    0.1060 C   0  0  0  0  0  0  0  0  0  0  0  0
    3.9570    0.9760    0.7100 N   0  0  0  0  0  0  0  0  0  0  0  0
    5.2680    0.8740    0.7510 N   0  0  0  0  0  0  0  0  0  0  0  0
  1  2  1  0
  2  3  1  0
  3  4  1  0
  4  5  2  0
  4 10  1  0
  5  6  1  0
  6  7  2  0
  7  8  1  0
  7  9  1  0
  9 10  2  0
 10 11  1  0
 11 12  2  0
 11 38  1  0
 12 13  1  0
 13 14  2  0
 14 15  1  0
 14 37  1  0
 15 16  2  0
 15 17  1  0
 17 18  1  0
 18 19  2  0
 18 36  1  0
 19 20  1  0
 20 21  2  0
 21 22  1  0
 21 28  1  0
 23 22  1  6
 23 24  1  0
 23 27  1  0
 24 25  1  0
 25 26  1  0
 26 27  1  0
 28 29  1  0
 28 36  2  0
 29 30  2  0
 29 31  1  0
 31 32  1  0
 33 32  1  1
 33 34  1  0
 33 35  1  0
 34 35  1  0
 37 38  2  0
M  CHG  2  10   1  26   1
M  END
