
     RDKit          3D

 38 42  0  0  0  0  0  0  0  0999 V2000
   -7.0930    0.0810   -2.8570 C   0  0  0  0  0  0  0  0  0  0  0  0
   -7.6020    0.7060   -1.8150 C   0  0  0  0  0  0  0  0  0  0  0  0
   -6.9560    1.1570   -0.6020 C   0  0  0  0  0  0  0  0  0  0  0  0
   -7.5950    1.7690    0.3360 C   0  0  0  0  0  0  0  0  0  0  0  0
   -9.0470    2.1140    0.3780 C   0  0  0  0  0  0  0  0  0  0  0  0
   -9.6450    1.2050    1.8500 Cl  0  0  0  0  0  0  0  0  0  0  0  0
   -5.5440    0.8340   -0.4630 C   0  0  0  0  0  0  0  0  0  0  0  0
   -4.7690    1.4060    0.7230 C   0  0  0  0  0  0  0  0  0  0  0  0
   -3.9120    0.2030    0.9950 N   0  0  0  0  0  0  0  0  0  0  0  0
   -4.4990   -0.6050    1.8900 C   0  0  0  0  0  0  0  0  0  0  0  0
   -5.4850   -0.1860    2.5570 O   0  0  0  0  0  0  0  0  0  0  0  0
   -4.0260   -1.8600    2.0730 N   0  0  0  0  0  0  0  0  0  0  0  0
   -2.9600   -2.2870    1.3600 C   0  0  0  0  0  0  0  0  0  0  0  0
   -2.4730   -3.5380    1.5590 N   0  0  0  0  0  0  0  0  0  0  0  0
   -1.4180   -3.9660    0.8870 C   0  0  0  0  0  0  0  0  0  0  0  0
   -0.8150   -3.1370   -0.0070 C   0  0  0  0  0  0  0  0  0  0  0  0
   -1.2460   -1.8310   -0.2690 C   0  0  0  0  0  0  0  0  0  0  0  0
   -0.6480   -0.9260   -1.2450 C   0  0  0  0  0  0  0  0  0  0  0  0
    0.8000   -0.8200   -0.9220 N   0  0  2  0  0  0  0  0  0  0  0  0
    0.8570   -0.9410    0.5660 C   0  0  0  0  0  0  0  0  0  0  0  0
    2.2100   -0.9480    1.1430 C   0  0  0  0  0  0  0  0  0  0  0  0
    3.2860   -1.3280    0.1820 C   0  0  0  0  0  0  0  0  0  0  0  0
    3.5420   -0.2100   -0.8300 C   0  0  2  0  0  0  0  0  0  0  0  0
    4.9110    0.3320   -0.5930 C   0  0  0  0  0  0  0  0  0  0  0  0
    5.3270    1.4550   -0.0270 N   0  0  0  0  0  0  0  0  0  0  0  0
    6.6790    1.4140   -0.0870 C   0  0  0  0  0  0  0  0  0  0  0  0
    7.0740    0.2540   -0.6920 C   0  0  0  0  0  0  0  0  0  0  0  0
    5.9700   -0.3710   -0.9820 O   0  0  0  0  0  0  0  0  0  0  0  0
    8.3710   -0.3740   -1.0540 C   0  0  0  0  0  0  0  0  0  0  0  0
    9.3540    0.5590   -1.2370 O   0  0  0  0  0  0  0  0  0  0  0  0
    9.4750    1.2960   -0.0550 C   0  0  0  0  0  0  0  0  0  0  0  0
    8.7710    2.4830   -0.2270 O   0  0  0  0  0  0  0  0  0  0  0  0
    7.5580    2.4820    0.4450 C   0  0  0  0  0  0  0  0  0  0  0  0
    2.5700    0.8920   -0.7250 C   0  0  0  0  0  0  0  0  0  0  0  0
    1.1830    0.5890   -1.1220 C   0  0  0  0  0  0  0  0  0  0  0  0
   -2.3620   -1.4460    0.4550 C   0  0  0  0  0  0  0  0  0  0  0  0
   -2.8780   -0.1800    0.2940 C   0  0  0  0  0  0  0  0  0  0  0  0
   -2.4020    0.6190   -0.4980 O   0  0  0  0  0  0  0  0  0  0  0  0
  1  2  2  0
  2  3  1  0
  3  4  2  3
  3  7  1  0
  4  5  1  0
  5  6  1  0
  7  8  1  0
  8  9  1  0
  9 10  1  0
  9 37  1  0
 10 11  2  0
 10 12  1  0
 12 13  1  0
 13 14  2  0
 13 36  1  0
 14 15  1  0
 15 16  2  0
 16 17  1  0
 17 18  1  0
 17 36  2  0
 19 18  1  1
 19 20  1  0
 19 35  1  0
 20 21  1  0
 21 22  1  0
 22 23  1  0
 23 24  1  1
 23 34  1  0
 24 25  2  0
 24 28  1  0
 25 26  1  0
 26 27  2  0
 26 33  1  0
 27 28  1  0
 27 29  1  0
 29 30  1  0
 30 31  1  0
 31 32  1  0
 32 33  1  0
 34 35  1  0
 36 37  1  0
 37 38  2  0
M  CHG  2  19   1  25   1
M  END
