
     RDKit          3D

 38 42  0  0  0  0  0  0  0  0999 V2000
   -5.0620   -1.3740    2.8920 C   0  0  0  0  0  0  0  0  0  0  0  0
   -4.4790   -1.5500    1.5440 C   0  0  0  0  0  0  0  0  0  0  0  0
   -4.3570   -2.8440    1.0630 C   0  0  0  0  0  0  0  0  0  0  0  0
   -3.8230   -3.0540   -0.1790 C   0  0  0  0  0  0  0  0  0  0  0  0
   -3.4090   -1.9640   -0.9420 C   0  0  0  0  0  0  0  0  0  0  0  0
   -3.5160   -0.6700   -0.4940 C   0  0  0  0  0  0  0  0  0  0  0  0
   -3.0970    0.4560   -1.3290 C   0  0  0  0  0  0  0  0  0  0  0  0
   -2.5170    0.1440   -2.5510 O   0  0  0  0  0  0  0  0  0  0  0  0
   -1.3500   -0.5330   -2.7570 C   0  0  0  0  0  0  0  0  0  0  0  0
   -0.6910   -0.9250   -1.7430 O   0  0  0  0  0  0  0  0  0  0  0  0
   -0.7970   -0.8420   -4.1020 C   0  0  0  0  0  0  0  0  0  0  0  0
    0.4280   -1.5420   -4.0120 O   0  0  0  0  0  0  0  0  0  0  0  0
    1.5470   -1.0190   -3.3830 C   0  0  0  0  0  0  0  0  0  0  0  0
    1.4350    0.1360   -2.8780 O   0  0  0  0  0  0  0  0  0  0  0  0
    2.8300   -1.7700   -3.2970 C   0  0  0  0  0  0  0  0  0  0  0  0
    3.8450   -1.0060   -2.6040 N   0  0  1  0  0  0  0  0  0  0  0  0
    3.9790    0.2940   -3.2440 C   0  0  0  0  0  0  0  0  0  0  0  0
    3.5080   -0.8900   -1.2200 C   0  0  0  0  0  0  0  0  0  0  0  0
    2.4420   -1.3750   -0.5530 N   0  0  0  0  0  0  0  0  0  0  0  0
    2.5150   -1.0360    0.7230 N   0  0  0  0  0  0  0  0  0  0  0  0
    3.6470   -0.3120    0.9150 C   0  0  0  0  0  0  0  0  0  0  0  0
    4.2360   -0.2360   -0.2840 N   0  0  0  0  0  0  0  0  0  0  0  0
    5.4280    0.5270   -0.0810 C   0  0  0  0  0  0  0  0  0  0  0  0
    6.2470    0.8040   -1.0050 O   0  0  0  0  0  0  0  0  0  0  0  0
    5.5480    0.9230    1.3170 C   0  0  0  0  0  0  0  0  0  0  0  0
    6.4780    1.6480    2.0330 C   0  0  0  0  0  0  0  0  0  0  0  0
    6.3300    1.8730    3.3860 C   0  0  0  0  0  0  0  0  0  0  0  0
    5.2070    1.3470    4.0240 C   0  0  0  0  0  0  0  0  0  0  0  0
    4.2960    0.6280    3.2850 C   0  0  0  0  0  0  0  0  0  0  0  0
    4.4270    0.3920    1.9320 C   0  0  0  0  0  0  0  0  0  0  0  0
   -4.0620   -0.4980    0.7660 C   0  0  0  0  0  0  0  0  0  0  0  0
   -4.2080    0.8440    1.3020 C   0  0  0  0  0  0  0  0  0  0  0  0
   -5.4430    1.4840    1.2290 C   0  0  0  0  0  0  0  0  0  0  0  0
   -5.4860    2.7660    1.7680 C   0  0  0  0  0  0  0  0  0  0  0  0
   -4.4020    3.3260    2.3150 N   0  0  0  0  0  0  0  0  0  0  0  0
   -3.2090    2.6990    2.3820 C   0  0  0  0  0  0  0  0  0  0  0  0
   -1.7970    3.4360    3.0980 Cl  0  0  0  0  0  0  0  0  0  0  0  0
   -3.0980    1.4320    1.8680 C   0  0  0  0  0  0  0  0  0  0  0  0
  1  2  1  0
  2  3  2  0
  2 31  1  0
  3  4  1  0
  4  5  2  0
  5  6  1  0
  6  7  1  0
  6 31  2  0
  7  8  1  0
  8  9  1  0
  9 10  2  0
  9 11  1  0
 11 12  1  0
 12 13  1  0
 13 14  2  0
 13 15  1  0
 15 16  1  0
 16 17  1  6
 16 18  1  0
 18 19  2  0
 18 22  1  0
 19 20  1  0
 20 21  2  0
 21 22  1  0
 21 30  1  0
 22 23  1  0
 23 24  2  0
 23 25  1  0
 25 26  2  0
 25 30  1  0
 26 27  1  0
 27 28  2  0
 28 29  1  0
 29 30  2  0
 31 32  1  0
 32 33  2  0
 32 38  1  0
 33 34  1  0
 34 35  2  0
 35 36  1  0
 36 37  1  0
 36 38  2  0
M  CHG  2  16   1  35   1
M  END
