
     RDKit          3D

 38 42  0  0  0  0  0  0  0  0999 V2000
    7.2620   -4.2160   -0.3310 C   0  0  0  0  0  0  0  0  0  0  0  0
    6.6570   -2.9920   -0.1520 O   0  0  0  0  0  0  0  0  0  0  0  0
    5.9530   -2.5420   -1.2780 C   0  0  2  0  0  0  0  0  0  0  0  0
    6.6280   -1.3470   -1.8360 C   0  0  0  0  0  0  0  0  0  0  0  0
    4.4900   -2.4780   -1.0500 C   0  0  0  0  0  0  0  0  0  0  0  0
    3.9810   -1.7310   -0.0320 O   0  0  0  0  0  0  0  0  0  0  0  0
    4.0110   -0.4030    0.1820 C   0  0  0  0  0  0  0  0  0  0  0  0
    4.5610    0.3680   -0.6210 O   0  0  0  0  0  0  0  0  0  0  0  0
    3.3820    0.1760    1.3950 C   0  0  0  0  0  0  0  0  0  0  0  0
    2.0080    0.5980    1.1710 N   0  0  0  0  0  0  0  0  0  0  0  0
    1.0170   -0.2420    1.3630 C   0  0  0  0  0  0  0  0  0  0  0  0
    1.1700   -1.4390    1.7410 O   0  0  0  0  0  0  0  0  0  0  0  0
   -0.3540    0.1440    1.1550 C   0  0  0  0  0  0  0  0  0  0  0  0
   -1.2970   -0.9110    1.4120 C   0  0  0  0  0  0  0  0  0  0  0  0
   -2.6760   -0.9370    1.3290 N   0  0  2  0  0  0  0  0  0  0  0  0
   -3.1490   -2.1970    2.0410 C   0  0  0  0  0  0  0  0  0  0  0  0
   -4.1570   -2.9500    1.2800 C   0  0  0  0  0  0  0  0  0  0  0  0
   -5.1310   -2.2030    0.5490 N   0  0  0  0  0  0  0  0  0  0  0  0
   -5.8100   -3.1240   -0.3460 C   0  0  0  0  0  0  0  0  0  0  0  0
   -5.9340   -2.4350   -1.6160 N   0  0  0  0  0  0  0  0  0  0  0  0
   -4.7980   -1.5550   -1.7150 C   0  0  0  0  0  0  0  0  0  0  0  0
   -4.5300   -1.1760   -0.2850 C   0  0  1  0  0  0  0  0  0  0  0  0
   -5.1490    0.1580   -0.0240 C   0  0  0  0  0  0  0  0  0  0  0  0
   -3.0590   -1.2460   -0.0620 C   0  0  0  0  0  0  0  0  0  0  0  0
   -0.5090    1.4390    0.7480 C   0  0  0  0  0  0  0  0  0  0  0  0
   -1.7920    1.8880    0.5270 C   0  0  0  0  0  0  0  0  0  0  0  0
   -2.0260    3.1780    0.1160 C   0  0  0  0  0  0  0  0  0  0  0  0
   -0.9670    4.0330   -0.0780 C   0  0  0  0  0  0  0  0  0  0  0  0
   -1.2400    5.3040   -0.4870 C   0  0  0  0  0  0  0  0  0  0  0  0
   -0.2050    6.1680   -0.6850 C   0  0  0  0  0  0  0  0  0  0  0  0
   -0.5790    7.7960   -1.2100 Cl  0  0  0  0  0  0  0  0  0  0  0  0
    1.0760    5.7550   -0.4740 C   0  0  0  0  0  0  0  0  0  0  0  0
    2.1970    6.6860   -0.6890 C   0  0  0  0  0  0  0  0  0  0  0  0
    1.3910    4.4500   -0.0520 C   0  0  0  0  0  0  0  0  0  0  0  0
    0.3530    3.5800    0.1470 C   0  0  0  0  0  0  0  0  0  0  0  0
    0.5480    2.2990    0.5530 N   0  0  0  0  0  0  0  0  0  0  0  0
    1.7910    1.8820    0.7630 C   0  0  0  0  0  0  0  0  0  0  0  0
    2.8380    2.5580    0.6240 O   0  0  0  0  0  0  0  0  0  0  0  0
  1  2  1  0
  2  3  1  0
  3  4  1  1
  3  5  1  0
  5  6  1  0
  6  7  1  0
  7  8  2  0
  7  9  1  0
  9 10  1  0
 10 11  1  0
 10 37  1  0
 11 12  2  0
 11 13  1  0
 13 14  1  0
 13 25  2  0
 15 14  1  6
 15 16  1  0
 15 24  1  0
 16 17  1  0
 17 18  1  0
 18 19  1  0
 18 22  1  0
 19 20  1  0
 20 21  1  0
 21 22  1  0
 22 23  1  1
 22 24  1  0
 25 26  1  0
 25 36  1  0
 26 27  2  0
 27 28  1  0
 28 29  2  0
 28 35  1  0
 29 30  1  0
 30 31  1  0
 30 32  2  0
 32 33  1  0
 32 34  1  0
 34 35  2  0
 35 36  1  0
 36 37  1  0
 37 38  2  0
M  CHG  2  15   1  20   1
M  END
