
     RDKit          3D

 38 42  0  0  0  0  0  0  0  0999 V2000
   -9.4730    0.5720   -0.6170 C   0  0  0  0  0  0  0  0  0  0  0  0
   -8.1130    0.0240   -0.6080 N   0  0  2  0  0  0  0  0  0  0  0  0
   -8.1650   -1.3380   -1.1570 C   0  0  0  0  0  0  0  0  0  0  0  0
   -6.6990   -1.7860   -1.2220 C   0  0  0  0  0  0  0  0  0  0  0  0
   -6.2520   -1.9140    0.2160 C   0  0  0  0  0  0  0  0  0  0  0  0
   -6.2430   -0.5570    0.8460 C   0  0  1  0  0  0  0  0  0  0  0  0
   -5.2410    0.3740    0.2720 C   0  0  0  0  0  0  0  0  0  0  0  0
   -5.6620    1.4120   -0.3020 O   0  0  0  0  0  0  0  0  0  0  0  0
   -3.8610    0.1370    0.3470 N   0  0  0  0  0  0  0  0  0  0  0  0
   -3.0990   -0.9430    0.9430 C   0  0  0  0  0  0  0  0  0  0  0  0
   -1.9730   -0.1500    1.6180 C   0  0  0  0  0  0  0  0  0  0  0  0
   -1.6660    0.8250    0.5940 N   0  0  2  0  0  0  0  0  0  0  0  0
   -1.2080    2.0800    1.1680 C   0  0  0  0  0  0  0  0  0  0  0  0
    0.2090    1.9090    1.6120 C   0  0  0  0  0  0  0  0  0  0  0  0
    1.0670    1.5660    0.5550 O   0  0  0  0  0  0  0  0  0  0  0  0
    1.2580    2.3640   -0.5640 C   0  0  0  0  0  0  0  0  0  0  0  0
    0.6470    3.4360   -0.6510 O   0  0  0  0  0  0  0  0  0  0  0  0
    2.1900    1.8970   -1.6160 C   0  0  0  0  0  0  0  0  0  0  0  0
    2.7810    0.6240   -1.2820 N   0  0  0  0  0  0  0  0  0  0  0  0
    2.3700   -0.5880   -1.5500 N   0  0  0  0  0  0  0  0  0  0  0  0
    3.2100   -1.5180   -1.0620 C   0  0  0  0  0  0  0  0  0  0  0  0
    4.2340   -0.8320   -0.4350 C   0  0  0  0  0  0  0  0  0  0  0  0
    5.3860   -1.2370    0.2500 C   0  0  0  0  0  0  0  0  0  0  0  0
    6.2320   -0.2840    0.7760 C   0  0  0  0  0  0  0  0  0  0  0  0
    7.3760   -0.6670    1.4560 O   0  0  0  0  0  0  0  0  0  0  0  0
    8.5490   -0.8180    0.7600 C   0  0  0  0  0  0  0  0  0  0  0  0
    9.4110    0.2350    0.6020 C   0  0  0  0  0  0  0  0  0  0  0  0
   10.6070    0.0970   -0.1020 C   0  0  0  0  0  0  0  0  0  0  0  0
   10.9330   -1.1220   -0.6530 C   0  0  0  0  0  0  0  0  0  0  0  0
   12.1300   -1.2660   -1.3590 O   0  0  0  0  0  0  0  0  0  0  0  0
   10.0730   -2.1710   -0.4940 C   0  0  0  0  0  0  0  0  0  0  0  0
   10.5080   -3.7190   -1.2060 Cl  0  0  0  0  0  0  0  0  0  0  0  0
    8.8710   -2.0320    0.2130 C   0  0  0  0  0  0  0  0  0  0  0  0
    5.9190    1.0310    0.6110 C   0  0  0  0  0  0  0  0  0  0  0  0
    4.7930    1.4690   -0.0580 C   0  0  0  0  0  0  0  0  0  0  0  0
    3.9430    0.5100   -0.5850 C   0  0  0  0  0  0  0  0  0  0  0  0
   -2.8260    1.0090   -0.2160 C   0  0  0  0  0  0  0  0  0  0  0  0
   -7.6360    0.0160    0.7360 C   0  0  0  0  0  0  0  0  0  0  0  0
  2  1  1  1
  2  3  1  0
  2 38  1  0
  3  4  1  0
  4  5  1  0
  5  6  1  0
  6  7  1  6
  6 38  1  0
  7  8  2  0
  7  9  1  0
  9 10  1  0
  9 37  1  0
 10 11  1  0
 11 12  1  0
 12 13  1  1
 12 37  1  0
 13 14  1  0
 14 15  1  0
 15 16  1  0
 16 17  2  0
 16 18  1  0
 18 19  1  0
 19 20  1  0
 19 36  1  0
 20 21  2  0
 21 22  1  0
 22 23  2  0
 22 36  1  0
 23 24  1  0
 24 25  1  0
 24 34  2  0
 25 26  1  0
 26 27  2  0
 26 33  1  0
 27 28  1  0
 28 29  2  0
 29 30  1  0
 29 31  1  0
 31 32  1  0
 31 33  2  0
 34 35  1  0
 35 36  2  0
M  CHG  2   2   1  12   1
M  END
