
     RDKit          3D

 12 11  0  0  0  0  0  0  0  0999 V2000
    1.1340    2.5240   -0.1700 C   0  0  0  0  0  0  0  0  0  0  0  0
    0.9630    1.3840    0.6450 O   0  0  0  0  0  0  0  0  0  0  0  0
    0.5250    0.1540    0.1010 C   0  0  0  0  0  0  0  0  0  0  0  0
    1.5320   -0.8820    0.0410 C   0  0  0  0  0  0  0  0  0  0  0  0
    1.3430   -2.1960   -0.4590 N   0  0  0  0  0  0  0  0  0  0  0  0
    2.7810   -0.6560    0.4800 C   0  0  0  0  0  0  0  0  0  0  0  0
    3.0470    0.6180    0.9890 O   0  0  0  0  0  0  0  0  0  0  0  0
   -0.7100    0.0960   -0.2770 C   0  0  0  0  0  0  0  0  0  0  0  0
   -1.4410   -1.0370   -0.8740 C   0  0  0  0  0  0  0  0  0  0  0  0
   -2.5820   -1.4400   -0.0540 N   0  0  0  0  0  0  0  0  0  0  0  0
   -1.5250    1.2860   -0.1100 N   0  0  0  0  0  0  0  0  0  0  0  0
   -2.2380    1.4600    0.8960 N   0  0  0  0  0  0  0  0  0  0  0  0
  1  2  1  0
  2  3  1  0
  3  4  1  0
  3  8  2  3
  4  5  1  0
  4  6  2  3
  6  7  1  0
  8  9  1  0
  8 11  1  0
  9 10  1  0
 11 12  2  0
M  CHG  2  10   1  12   1
M  END
