
     RDKit          3D

 13 12  0  0  0  0  0  0  0  0999 V2000
   -0.8100    1.5190   -2.0220 C   0  0  0  0  0  0  0  0  0  0  0  0
   -0.2260    0.3580   -1.5110 O   0  0  0  0  0  0  0  0  0  0  0  0
   -0.0250    0.0960   -0.1670 C   0  0  0  0  0  0  0  0  0  0  0  0
   -1.0210   -0.3510    0.5710 C   0  0  0  0  0  0  0  0  0  0  0  0
   -2.3580   -0.5830    0.0020 C   0  0  2  0  0  0  0  0  0  0  0  0
   -3.3030    0.4440    0.4160 N   0  0  0  0  0  0  0  0  0  0  0  0
   -2.8950   -1.8520    0.4610 N   0  0  0  0  0  0  0  0  0  0  0  0
    1.2700    0.3070    0.4390 C   0  0  0  0  0  0  0  0  0  0  0  0
    1.4550    0.0370    1.8120 N   0  0  0  0  0  0  0  0  0  0  0  0
    2.2560    0.7490   -0.3040 C   0  0  0  0  0  0  0  0  0  0  0  0
    2.0870    1.0170   -1.6520 O   0  0  0  0  0  0  0  0  0  0  0  0
    3.5390    0.9780    0.2120 O   0  0  0  0  0  0  0  0  0  0  0  0
    4.2480   -0.1450    0.5720 N   0  0  0  0  0  0  0  0  0  0  0  0
  1  2  1  0
  2  3  1  0
  3  4  2  3
  3  8  1  0
  4  5  1  0
  5  6  1  1
  5  7  1  0
  8  9  1  0
  8 10  2  3
 10 11  1  0
 10 12  1  0
 12 13  1  0
M  CHG  2   7   1  13   1
M  END
