
     RDKit          3D

 12 12  0  0  0  0  0  0  0  0999 V2000
    2.1030   -1.1790   -0.0900 N   0  0  0  0  0  0  0  0  0  0  0  0
    0.8690   -0.4930   -0.3040 C   0  0  0  0  0  0  0  0  0  0  0  0
    0.9470    0.8480   -0.7290 N   0  0  0  0  0  0  0  0  0  0  0  0
    1.4420    1.7570    0.1700 O   0  0  0  0  0  0  0  0  0  0  0  0
    2.7980    1.7310    0.1240 N   0  0  0  0  0  0  0  0  0  0  0  0
   -0.2720   -1.1260   -0.1030 C   0  0  0  0  0  0  0  0  0  0  0  0
   -0.4630   -2.5290    0.3400 C   0  0  0  0  0  0  0  0  0  0  0  0
   -1.7530   -2.8340   -0.1900 O   0  0  0  0  0  0  0  0  0  0  0  0
   -2.4470   -1.6610   -0.3130 C   0  0  0  0  0  0  0  0  0  0  0  0
   -1.6190   -0.5960   -0.2690 C   0  0  0  0  0  0  0  0  0  0  0  0
   -2.0060    0.8290   -0.3680 C   0  0  0  0  0  0  0  0  0  0  0  0
   -1.6340    1.5940    0.8030 N   0  0  0  0  0  0  0  0  0  0  0  0
  1  2  1  0
  2  3  1  0
  2  6  2  3
  3  4  1  0
  4  5  1  0
  6  7  1  0
  6 10  1  0
  7  8  1  0
  8  9  1  0
  9 10  2  0
 10 11  1  0
 11 12  1  0
M  CHG  2   5   1  12   1
M  END
