
     RDKit          3D

 13 12  0  0  0  0  0  0  0  0999 V2000
    3.9450    0.4720    0.8840 N   0  0  0  0  0  0  0  0  0  0  0  0
    2.6220    0.0020    0.5480 C   0  0  0  0  0  0  0  0  0  0  0  0
    2.1090   -0.8040    1.3270 O   0  0  0  0  0  0  0  0  0  0  0  0
    2.0600    0.5550   -0.6930 C   0  0  0  0  0  0  0  0  0  0  0  0
    0.8050    0.1300   -1.0570 O   0  0  0  0  0  0  0  0  0  0  0  0
   -0.3930    0.2340   -0.3760 C   0  0  0  0  0  0  0  0  0  0  0  0
   -0.9520    1.5450   -0.1880 C   0  0  0  0  0  0  0  0  0  0  0  0
   -0.2650    2.7170   -0.7120 N   0  0  0  0  0  0  0  0  0  0  0  0
   -2.0280    1.7770    0.4150 O   0  0  0  0  0  0  0  0  0  0  0  0
   -0.9590   -0.8460    0.0600 C   0  0  0  0  0  0  0  0  0  0  0  0
   -0.2800   -2.0960   -0.2090 N   0  0  0  0  0  0  0  0  0  0  0  0
   -2.2130   -1.0200    0.8120 C   0  0  0  0  0  0  0  0  0  0  0  0
   -3.1020   -1.8480    0.0090 N   0  0  0  0  0  0  0  0  0  0  0  0
  1  2  1  0
  2  3  2  0
  2  4  1  0
  4  5  1  0
  5  6  1  0
  6  7  1  0
  6 10  2  3
  7  8  1  0
  7  9  2  0
 10 11  1  0
 10 12  1  0
 12 13  1  0
M  CHG  2   8   1  13   1
M  END
