
     RDKit          3D

 13 12  0  0  0  0  0  0  0  0999 V2000
    2.6380   -0.3540    2.4440 N   0  0  0  0  0  0  0  0  0  0  0  0
    2.3090   -0.0440    1.1030 C   0  0  0  0  0  0  0  0  0  0  0  0
    3.0930   -0.5970    0.0750 N   0  0  0  0  0  0  0  0  0  0  0  0
    3.6160    0.1900   -0.9190 O   0  0  0  0  0  0  0  0  0  0  0  0
    1.3300    0.7370    0.8490 N   0  0  0  0  0  0  0  0  0  0  0  0
    0.8770    1.1400   -0.4630 C   0  0  0  0  0  0  0  0  0  0  0  0
    0.3650    0.0450   -1.3090 C   0  0  0  0  0  0  0  0  0  0  0  0
   -0.7990   -0.7150   -0.8200 C   0  0  0  0  0  0  0  0  0  0  0  0
   -2.0640    0.0270   -0.6850 C   0  0  2  0  0  0  0  0  0  0  0  0
   -2.1000    1.1120    0.2140 N   0  0  0  0  0  0  0  0  0  0  0  0
   -3.1760   -0.9400   -0.2950 C   0  0  0  0  0  0  0  0  0  0  0  0
   -3.3500   -1.9950   -0.9520 O   0  0  0  0  0  0  0  0  0  0  0  0
   -3.9990   -0.6600    0.7860 O   0  0  0  0  0  0  0  0  0  0  0  0
  1  2  1  0
  2  3  1  0
  2  5  2  3
  3  4  1  0
  5  6  1  0
  6  7  1  0
  7  8  1  0
  8  9  1  0
  9 10  1  1
  9 11  1  0
 11 12  2  0
 11 13  1  0
M  CHG  2   5   1  10   1
M  END
