
     RDKit          3D

 13 13  0  0  0  0  0  0  0  0999 V2000
   -2.6370   -1.4080   -0.1250 N   0  0  0  0  0  0  0  0  0  0  0  0
   -1.2080   -1.2980   -0.1900 C   0  0  0  0  0  0  0  0  0  0  0  0
   -0.7170    0.0470    0.3310 C   0  0  2  0  0  0  0  0  0  0  0  0
   -1.2890    1.0270   -0.4580 O   0  0  0  0  0  0  0  0  0  0  0  0
   -2.0240    1.9080    0.2270 N   0  0  0  0  0  0  0  0  0  0  0  0
    0.7570    0.0660    0.1420 C   0  0  0  0  0  0  0  0  0  0  0  0
    1.2790    0.1590   -1.1300 C   0  0  0  0  0  0  0  0  0  0  0  0
    2.6100    0.1810   -1.3660 N   0  0  0  0  0  0  0  0  0  0  0  0
    3.4600    0.1100   -0.3270 C   0  0  0  0  0  0  0  0  0  0  0  0
    4.7110    0.1280   -0.5190 O   0  0  0  0  0  0  0  0  0  0  0  0
    2.9670    0.0160    0.9560 C   0  0  0  0  0  0  0  0  0  0  0  0
    3.7680   -0.0510    1.9400 O   0  0  0  0  0  0  0  0  0  0  0  0
    1.6270   -0.0040    1.1650 N   0  0  0  0  0  0  0  0  0  0  0  0
  1  2  1  0
  3  2  1  6
  3  4  1  0
  3  6  1  0
  4  5  1  0
  6  7  2  0
  6 13  1  0
  7  8  1  0
  8  9  1  0
  9 10  2  0
  9 11  1  0
 11 12  2  0
 11 13  1  0
M  CHG  2   1   1   5   1
M  END
