
     RDKit          3D

 12 11  0  0  0  0  0  0  0  0999 V2000
   -3.4600   -1.3970    0.4680 N   0  0  0  0  0  0  0  0  0  0  0  0
   -2.0470   -1.3670    0.2520 C   0  0  0  0  0  0  0  0  0  0  0  0
   -1.3540   -2.3410    0.6380 O   0  0  0  0  0  0  0  0  0  0  0  0
   -1.4510   -0.1880   -0.4190 C   0  0  1  0  0  0  0  0  0  0  0  0
   -1.8930    1.0640    0.2640 C   0  0  0  0  0  0  0  0  0  0  0  0
   -1.4540    2.1780   -0.4540 O   0  0  0  0  0  0  0  0  0  0  0  0
   -0.0350   -0.3220   -0.5550 N   0  0  0  0  0  0  0  0  0  0  0  0
    0.7190    0.1870    0.5530 C   0  0  0  0  0  0  0  0  0  0  0  0
    2.1740   -0.0000    0.2100 C   0  0  0  0  0  0  0  0  0  0  0  0
    2.6940   -1.2990   -0.0380 N   0  0  0  0  0  0  0  0  0  0  0  0
    2.9930    1.0290    0.1320 C   0  0  0  0  0  0  0  0  0  0  0  0
    2.4960    2.3040    0.3730 O   0  0  0  0  0  0  0  0  0  0  0  0
  1  2  1  0
  2  3  2  0
  2  4  1  0
  4  5  1  1
  4  7  1  0
  5  6  1  0
  7  8  1  0
  8  9  1  0
  9 10  1  0
  9 11  2  3
 11 12  1  0
M  CHG  2   7   1  10   1
M  END
