
     RDKit          3D

 12 12  0  0  0  0  0  0  0  0999 V2000
   -1.4790    1.7980    1.1070 C   0  0  0  0  0  0  0  0  0  0  0  0
   -0.6740    0.6790    1.0760 O   0  0  0  0  0  0  0  0  0  0  0  0
   -0.6580    0.0620   -0.1740 C   0  0  1  0  0  0  0  0  0  0  0  0
   -2.0150   -0.3890   -0.6030 C   0  0  0  0  0  0  0  0  0  0  0  0
    0.0060    0.9620   -1.2140 C   0  0  0  0  0  0  0  0  0  0  0  0
    1.1320    1.5000   -0.6470 O   0  0  0  0  0  0  0  0  0  0  0  0
    2.0630    0.5960   -0.2160 C   0  0  0  0  0  0  0  0  0  0  0  0
    1.5280   -0.4930    0.6600 C   0  0  2  0  0  0  0  0  0  0  0  0
    2.5080   -1.4130    0.9320 O   0  0  0  0  0  0  0  0  0  0  0  0
    0.3110   -1.1220   -0.0290 C   0  0  1  0  0  0  0  0  0  0  0  0
   -0.2480   -2.1230    0.7320 O   0  0  0  0  0  0  0  0  0  0  0  0
    0.6570   -1.5120   -1.3100 O   0  0  0  0  0  0  0  0  0  0  0  0
  1  2  1  0
  2  3  1  0
  3  4  1  6
  3  5  1  0
  3 10  1  0
  5  6  1  0
  6  7  1  0
  7  8  1  0
  8  9  1  6
  8 10  1  0
 10 11  1  1
 10 12  1  0
M  END
