
     RDKit          3D

 12 12  0  0  0  0  0  0  0  0999 V2000
    1.7720   -1.5430    1.0440 C   0  0  0  0  0  0  0  0  0  0  0  0
    1.3150   -0.3430    0.2830 C   0  0  1  0  0  0  0  0  0  0  0  0
    2.2920    0.8030    0.3310 C   0  0  0  0  0  0  0  0  0  0  0  0
    1.7730    1.8050   -0.5160 O   0  0  0  0  0  0  0  0  0  0  0  0
    1.0000   -0.6710   -1.1680 C   0  0  0  0  0  0  0  0  0  0  0  0
    0.1200    0.3600   -1.4920 O   0  0  0  0  0  0  0  0  0  0  0  0
   -0.5830    0.6650   -0.3400 C   0  0  1  0  0  0  0  0  0  0  0  0
   -1.9510    0.0220   -0.4670 C   0  0  1  0  0  0  0  0  0  0  0  0
   -1.7840   -1.3410   -0.6000 O   0  0  0  0  0  0  0  0  0  0  0  0
   -2.7580    0.3060    0.8010 C   0  0  0  0  0  0  0  0  0  0  0  0
   -2.9440    1.6740    0.9620 O   0  0  0  0  0  0  0  0  0  0  0  0
    0.0820    0.1170    0.7320 O   0  0  0  0  0  0  0  0  0  0  0  0
  2  1  1  1
  2  3  1  0
  2  5  1  0
  2 12  1  0
  3  4  1  0
  5  6  1  0
  7  6  1  6
  7  8  1  0
  7 12  1  0
  8  9  1  1
  8 10  1  0
 10 11  1  0
M  END
