
     RDKit          3D

 12 12  0  0  0  0  0  0  0  0999 V2000
    1.7460    0.2670    0.4040 C   0  0  0  0  0  0  0  0  0  0  0  0
    0.3640   -0.3280    0.5150 C   0  0  1  0  0  0  0  0  0  0  0  0
    0.5190   -1.8220    0.5280 C   0  0  0  0  0  0  0  0  0  0  0  0
    1.0550   -2.3570   -0.6140 O   0  0  0  0  0  0  0  0  0  0  0  0
   -0.1390    0.0270    1.7830 O   0  0  0  0  0  0  0  0  0  0  0  0
   -0.4340    1.3790    1.8490 C   0  0  0  0  0  0  0  0  0  0  0  0
    0.0510    2.1320    0.7930 O   0  0  0  0  0  0  0  0  0  0  0  0
   -0.3870    1.7430   -0.4420 C   0  0  0  0  0  0  0  0  0  0  0  0
   -0.6150    0.2230   -0.4550 C   0  0  2  0  0  0  0  0  0  0  0  0
   -1.9100    0.1010    0.1130 O   0  0  0  0  0  0  0  0  0  0  0  0
   -0.6280   -0.3220   -1.8290 C   0  0  0  0  0  0  0  0  0  0  0  0
   -1.0540   -1.6440   -1.8110 O   0  0  0  0  0  0  0  0  0  0  0  0
  2  1  1  6
  2  3  1  0
  2  5  1  0
  2  9  1  0
  3  4  1  0
  5  6  1  0
  6  7  1  0
  7  8  1  0
  8  9  1  0
  9 10  1  1
  9 11  1  0
 11 12  1  0
M  END
