
     RDKit          3D

 12 12  0  0  0  0  0  0  0  0999 V2000
   -3.3900   -0.4480   -1.4680 O   0  0  0  0  0  0  0  0  0  0  0  0
   -3.1190   -0.0710   -0.1360 C   0  0  0  0  0  0  0  0  0  0  0  0
   -1.6670   -0.3280    0.1800 C   0  0  2  0  0  0  0  0  0  0  0  0
   -1.4380    0.0520    1.4910 O   0  0  0  0  0  0  0  0  0  0  0  0
   -0.7960    0.3770   -0.6530 O   0  0  0  0  0  0  0  0  0  0  0  0
    0.5590    0.2520   -0.4950 C   0  0  0  0  0  0  0  0  0  0  0  0
    1.0980   -0.9350   -0.3290 C   0  0  0  0  0  0  0  0  0  0  0  0
    2.5510   -1.1820   -0.1490 C   0  0  0  0  0  0  0  0  0  0  0  0
    3.2830    0.0070   -0.1790 O   0  0  0  0  0  0  0  0  0  0  0  0
    2.7340    1.2620   -0.3530 C   0  0  0  0  0  0  0  0  0  0  0  0
    1.4430    1.4240   -0.5070 C   0  0  0  0  0  0  0  0  0  0  0  0
    0.9240    2.6930   -0.6790 O   0  0  0  0  0  0  0  0  0  0  0  0
  1  2  1  0
  2  3  1  0
  3  4  1  1
  3  5  1  0
  5  6  1  0
  6  7  2  0
  6 11  1  0
  7  8  1  0
  8  9  1  0
  9 10  1  0
 10 11  2  0
 11 12  1  0
M  END
