
     RDKit          3D

 12 12  0  0  0  0  0  0  0  0999 V2000
    4.2490   -0.3380    0.1320 O   0  0  0  0  0  0  0  0  0  0  0  0
    3.0580    0.0380   -0.4560 C   0  0  0  0  0  0  0  0  0  0  0  0
    2.0950    0.6740    0.5290 C   0  0  1  0  0  0  0  0  0  0  0  0
    2.6040    1.8130    1.1190 O   0  0  0  0  0  0  0  0  0  0  0  0
    0.9190    0.8730   -0.1600 O   0  0  0  0  0  0  0  0  0  0  0  0
   -0.1440    0.1380    0.2530 C   0  0  1  0  0  0  0  0  0  0  0  0
   -1.2070    1.1260    0.7450 C   0  0  0  0  0  0  0  0  0  0  0  0
   -2.1340    1.3860   -0.2690 O   0  0  0  0  0  0  0  0  0  0  0  0
   -2.9900    0.3240   -0.4970 C   0  0  0  0  0  0  0  0  0  0  0  0
   -2.2160   -0.9770   -0.3370 C   0  0  1  0  0  0  0  0  0  0  0  0
   -2.8000   -2.0100   -1.0280 O   0  0  0  0  0  0  0  0  0  0  0  0
   -0.7980   -0.6730   -0.8410 C   0  0  0  0  0  0  0  0  0  0  0  0
  1  2  1  0
  2  3  1  0
  3  4  1  6
  3  5  1  0
  6  5  1  6
  6  7  1  0
  6 12  1  0
  7  8  1  0
  8  9  1  0
  9 10  1  0
 10 11  1  6
 10 12  1  0
M  END
