
     RDKit          3D

 12 12  0  0  0  0  0  0  0  0999 V2000
   -1.9940   -1.3060   -1.0060 C   0  0  0  0  0  0  0  0  0  0  0  0
   -1.8140    0.1530   -0.6140 C   0  0  1  0  0  0  0  0  0  0  0  0
   -2.8120    0.4330    0.3180 O   0  0  0  0  0  0  0  0  0  0  0  0
   -0.4740    0.3910    0.0250 C   0  0  1  0  0  0  0  0  0  0  0  0
   -0.3650    1.7770    0.5600 C   0  0  0  0  0  0  0  0  0  0  0  0
   -0.3920    2.6870   -0.4970 O   0  0  0  0  0  0  0  0  0  0  0  0
   -0.1770   -0.6050    1.1260 C   0  0  0  0  0  0  0  0  0  0  0  0
    1.1980   -0.4110    1.2510 O   0  0  0  0  0  0  0  0  0  0  0  0
    1.6740   -0.0520    0.0120 C   0  0  1  0  0  0  0  0  0  0  0  0
    2.6060   -1.1350   -0.5140 C   0  0  0  0  0  0  0  0  0  0  0  0
    3.0460   -0.7030   -1.7690 O   0  0  0  0  0  0  0  0  0  0  0  0
    0.5900    0.1390   -0.8270 O   0  0  0  0  0  0  0  0  0  0  0  0
  2  1  1  1
  2  3  1  0
  2  4  1  0
  4  5  1  1
  4  7  1  0
  4 12  1  0
  5  6  1  0
  7  8  1  0
  8  9  1  0
  9 10  1  6
  9 12  1  0
 10 11  1  0
M  END
