
     RDKit          3D

 12 12  0  0  0  0  0  0  0  0999 V2000
   -1.6830   -1.4180    0.0970 C   0  0  0  0  0  0  0  0  0  0  0  0
   -0.8930   -0.2000   -0.3110 C   0  0  1  0  0  0  0  0  0  0  0  0
   -0.4470   -0.3990   -1.6070 O   0  0  0  0  0  0  0  0  0  0  0  0
   -1.8440    0.9790   -0.3030 C   0  0  0  0  0  0  0  0  0  0  0  0
   -2.9450    0.7470   -1.1340 O   0  0  0  0  0  0  0  0  0  0  0  0
    0.2410    0.1120    0.6210 C   0  0  1  0  0  0  0  0  0  0  0  0
   -0.3290    0.2940    1.9050 O   0  0  0  0  0  0  0  0  0  0  0  0
    1.2210   -1.0170    0.7690 C   0  0  0  0  0  0  0  0  0  0  0  0
    2.1350   -1.0650   -0.2930 O   0  0  0  0  0  0  0  0  0  0  0  0
    2.8660    0.1350   -0.1720 C   0  0  0  0  0  0  0  0  0  0  0  0
    1.9370    1.2570   -0.4770 C   0  0  0  0  0  0  0  0  0  0  0  0
    0.8000    1.3040    0.2640 O   0  0  0  0  0  0  0  0  0  0  0  0
  2  1  1  1
  2  3  1  0
  2  4  1  0
  2  6  1  0
  4  5  1  0
  6  7  1  1
  6  8  1  0
  6 12  1  0
  8  9  1  0
  9 10  1  0
 10 11  1  0
 11 12  1  0
M  END
