
     RDKit          3D

 12 12  0  0  0  0  0  0  0  0999 V2000
   -3.5500   -0.0330    0.5510 C   0  0  0  0  0  0  0  0  0  0  0  0
   -2.2820    0.4810   -0.1000 C   0  0  2  0  0  0  0  0  0  0  0  0
   -2.1140    0.0370   -1.3910 O   0  0  0  0  0  0  0  0  0  0  0  0
   -1.1320    0.0380    0.8000 C   0  0  2  0  0  0  0  0  0  0  0  0
   -1.4010    0.5370    2.0710 O   0  0  0  0  0  0  0  0  0  0  0  0
    0.0910    0.3930    0.3170 O   0  0  0  0  0  0  0  0  0  0  0  0
    0.9380   -0.6280    0.0020 C   0  0  1  0  0  0  0  0  0  0  0  0
    1.4070   -0.6080   -1.2990 O   0  0  0  0  0  0  0  0  0  0  0  0
    2.4950    0.2470   -1.3390 C   0  0  0  0  0  0  0  0  0  0  0  0
    3.1250    0.2610    0.0170 C   0  0  0  0  0  0  0  0  0  0  0  0
    2.1660   -0.5100    0.8940 C   0  0  1  0  0  0  0  0  0  0  0  0
    1.8700    0.2570    2.0210 O   0  0  0  0  0  0  0  0  0  0  0  0
  2  1  1  1
  2  3  1  0
  2  4  1  0
  4  5  1  1
  4  6  1  0
  7  6  1  6
  7  8  1  0
  7 11  1  0
  8  9  1  0
  9 10  1  0
 10 11  1  0
 11 12  1  1
M  END
