
     RDKit          3D

 11 11  0  0  0  0  0  0  0  0999 V2000
    4.0570    1.0030    0.1210 O   0  0  0  0  0  0  0  0  0  0  0  0
    3.4100   -0.1110   -0.1670 O   0  0  0  0  0  0  0  0  0  0  0  0
    2.4750    0.0740   -1.0420 O   0  0  0  0  0  0  0  0  0  0  0  0
    1.5090   -0.8110   -0.9690 O   0  0  0  0  0  0  0  0  0  0  0  0
    0.3720   -0.1790   -0.4890 C   0  0  2  0  0  0  0  0  0  0  0  0
   -0.1550   -0.8340    0.7670 C   0  0  0  0  0  0  0  0  0  0  0  0
   -1.4120   -1.3640    0.6260 O   0  0  0  0  0  0  0  0  0  0  0  0
   -2.3740   -0.5030    0.1920 C   0  0  0  0  0  0  0  0  0  0  0  0
   -1.8770    0.8700   -0.1620 C   0  0  0  0  0  0  0  0  0  0  0  0
   -1.3170    0.8090   -1.4390 O   0  0  0  0  0  0  0  0  0  0  0  0
   -0.5930   -0.2900   -1.5180 O   0  0  0  0  0  0  0  0  0  0  0  0
  1  2  1  0
  2  3  1  0
  3  4  1  0
  5  4  1  6
  5  6  1  0
  5 11  1  0
  6  7  1  0
  7  8  1  0
  8  9  1  0
  9 10  1  0
 10 11  1  0
M  END
