
     RDKit          3D

 11 10  0  0  0  0  0  0  0  0999 V2000
   -2.3620   -1.2000   -0.6590 O   0  0  0  0  0  0  0  0  0  0  0  0
   -2.4200   -0.0210   -0.3540 C   0  0  0  0  0  0  0  0  0  0  0  0
   -3.5610    0.8440    0.0020 C   0  0  0  0  0  0  0  0  0  0  0  0
   -4.6260    0.6050   -0.9370 O   0  0  0  0  0  0  0  0  0  0  0  0
   -1.1510    0.6550   -0.4080 O   0  0  0  0  0  0  0  0  0  0  0  0
   -0.0640    0.1430   -0.8020 O   0  0  0  0  0  0  0  0  0  0  0  0
    0.8580   -0.1780    0.0250 C   0  0  0  0  0  0  0  0  0  0  0  0
    2.2160   -0.6980   -0.6200 C   0  0  0  0  0  0  0  0  0  0  0  0
    2.8870   -0.9080    0.5580 O   0  0  0  0  0  0  0  0  0  0  0  0
    3.8700   -0.2050    0.8480 O   0  0  0  0  0  0  0  0  0  0  0  0
    4.5860    0.5120    0.1190 O   0  0  0  0  0  0  0  0  0  0  0  0
  1  2  2  0
  2  3  1  0
  2  5  1  0
  3  4  1  0
  5  6  1  0
  6  7  1  0
  7  8  1  0
  8  9  1  0
  9 10  1  0
 10 11  1  0
M  END
