
     RDKit          3D

 11 10  0  0  0  0  0  0  0  0999 V2000
    2.3140   -0.1500    1.2520 O   0  0  0  0  0  0  0  0  0  0  0  0
    2.4740    0.4930    0.2040 C   0  0  0  0  0  0  0  0  0  0  0  0
    3.4800    1.4730    0.1250 O   0  0  0  0  0  0  0  0  0  0  0  0
    1.6940    0.2870   -0.9140 O   0  0  0  0  0  0  0  0  0  0  0  0
    0.6740   -0.6480   -0.9540 C   0  0  0  0  0  0  0  0  0  0  0  0
   -0.3690   -0.3170    0.0860 C   0  0  2  0  0  0  0  0  0  0  0  0
   -1.4800   -1.3610   -0.1060 C   0  0  0  0  0  0  0  0  0  0  0  0
   -2.5470   -1.0650    0.7320 O   0  0  0  0  0  0  0  0  0  0  0  0
   -0.8510    0.9570   -0.2210 O   0  0  0  0  0  0  0  0  0  0  0  0
   -0.7000    1.7240    0.8170 O   0  0  0  0  0  0  0  0  0  0  0  0
   -1.5440    2.7290    0.7380 O   0  0  0  0  0  0  0  0  0  0  0  0
  1  2  2  0
  2  3  1  0
  2  4  1  0
  4  5  1  0
  6  5  1  6
  6  7  1  0
  6  9  1  0
  7  8  1  0
  9 10  1  0
 10 11  1  0
M  END
