
     RDKit          3D

 13 14  0  0  0  0  0  0  0  0999 V2000
    3.8790    0.2070    0.3000 C   0  0  0  0  0  0  0  0  0  0  0  0
    2.5640    0.7180   -0.1820 C   0  0  0  0  0  0  0  0  0  0  0  0
    1.6150    0.5030    0.8920 O   0  0  0  0  0  0  0  0  0  0  0  0
    0.6730   -0.2700    0.3930 N   0  0  0  0  0  0  0  0  0  0  0  0
    1.1350   -1.5320   -0.1670 N   0  0  0  0  0  0  0  0  0  0  0  0
    0.3760   -2.4770    0.3850 O   0  0  0  0  0  0  0  0  0  0  0  0
   -0.9250   -2.4860   -0.1400 C   0  0  0  0  0  0  0  0  0  0  0  0
   -1.4710   -1.1570   -0.1620 N   0  0  0  0  0  0  0  0  0  0  0  0
   -2.7050   -0.5880   -0.6510 C   0  0  0  0  0  0  0  0  0  0  0  0
   -2.8520    0.5820    0.2940 C   0  0  0  0  0  0  0  0  0  0  0  0
   -1.4610    1.0310    0.4070 C   0  0  0  0  0  0  0  0  0  0  0  0
   -0.9470    2.4060    0.3820 C   0  0  0  0  0  0  0  0  0  0  0  0
   -0.6900   -0.0430    0.3570 C   0  0  0  0  0  0  0  0  0  0  0  0
  1  2  1  0
  2  3  1  0
  3  4  1  0
  4  5  1  0
  4 13  1  0
  5  6  1  0
  6  7  1  0
  7  8  1  0
  8  9  1  0
  8 13  1  0
  9 10  1  0
 10 11  1  0
 11 12  1  0
 11 13  2  0
M  END
