
     RDKit          3D

 11 10  0  0  0  0  0  0  0  0999 V2000
   -1.1470    1.5480    0.4020 C   0  0  0  0  0  0  0  0  0  0  0  0
   -1.5250    0.6590   -0.5670 O   0  0  0  0  0  0  0  0  0  0  0  0
   -1.5950   -0.6310   -0.1290 C   0  0  0  0  0  0  0  0  0  0  0  0
   -0.2820   -1.1710    0.3820 C   0  0  1  0  0  0  0  0  0  0  0  0
   -0.4860   -2.4920    0.7850 O   0  0  0  0  0  0  0  0  0  0  0  0
   -0.2600   -2.6880    2.0450 O   0  0  0  0  0  0  0  0  0  0  0  0
    0.6590   -1.0610   -0.6210 O   0  0  0  0  0  0  0  0  0  0  0  0
    1.7200   -0.3370   -0.3190 O   0  0  0  0  0  0  0  0  0  0  0  0
    2.0920    0.8290   -0.9760 C   0  0  0  0  0  0  0  0  0  0  0  0
    1.3380    1.1920   -1.9250 O   0  0  0  0  0  0  0  0  0  0  0  0
    3.2170    1.5560   -0.6230 O   0  0  0  0  0  0  0  0  0  0  0  0
  1  2  1  0
  2  3  1  0
  4  3  1  6
  4  5  1  0
  4  7  1  0
  5  6  1  0
  7  8  1  0
  8  9  1  0
  9 10  2  0
  9 11  1  0
M  END
