
     RDKit          3D

 18 18  0  0  0  0  0  0  0  0999 V2000
    0.6010   -3.7880    1.1000 O   0  0  0  0  0  0  0  0  0  0  0  0
    0.4100   -2.7160    0.4420 C   0  0  0  0  0  0  0  0  0  0  0  0
   -0.4460   -2.8230   -0.6900 N   0  0  0  0  0  0  0  0  0  0  0  0
   -1.2770   -1.8230   -1.0840 O   0  0  0  0  0  0  0  0  0  0  0  0
   -1.9730   -1.3540    0.0070 C   0  0  0  0  0  0  0  0  0  0  0  0
   -2.5580    0.0170   -0.3330 C   0  0  0  0  0  0  0  0  0  0  0  0
   -2.7160    0.7870    0.8130 O   0  0  0  0  0  0  0  0  0  0  0  0
   -2.7290    2.1690    0.8650 C   0  0  0  0  0  0  0  0  0  0  0  0
   -3.5910    2.8500    1.4770 O   0  0  0  0  0  0  0  0  0  0  0  0
   -1.7170    2.9040    0.1930 N   0  0  0  0  0  0  0  0  0  0  0  0
   -0.4130    2.3370   -0.0940 C   0  0  0  0  0  0  0  0  0  0  0  0
   -0.1430    1.2370    0.7120 O   0  0  0  0  0  0  0  0  0  0  0  0
    1.1840    0.8890    0.6240 C   0  0  2  0  0  0  0  0  0  0  0  0
    1.8570    1.8420   -0.1680 O   0  0  0  0  0  0  0  0  0  0  0  0
    1.3970   -0.4460   -0.0860 C   0  0  1  0  0  0  0  0  0  0  0  0
    2.8900   -0.5740   -0.3250 C   0  0  0  0  0  0  0  0  0  0  0  0
    3.2260   -1.8060   -0.8640 O   0  0  0  0  0  0  0  0  0  0  0  0
    1.0280   -1.4980    0.8410 N   0  0  0  0  0  0  0  0  0  0  0  0
  1  2  2  0
  2  3  1  0
  2 18  1  0
  3  4  1  0
  4  5  1  0
  5  6  1  0
  6  7  1  0
  7  8  1  0
  8  9  2  0
  8 10  1  0
 10 11  1  0
 11 12  1  0
 12 13  1  0
 13 14  1  6
 13 15  1  0
 15 16  1  1
 15 18  1  0
 16 17  1  0
M  END
