
     RDKit          3D

 24 27  0  0  0  0  0  0  0  0999 V2000
    7.0910    2.4710    1.1360 N   0  0  0  0  0  0  0  0  0  0  0  0
    6.2760    1.3810    0.7430 C   0  0  0  0  0  0  0  0  0  0  0  0
    4.9610    1.5540    0.5410 N   0  0  0  0  0  0  0  0  0  0  0  0
    4.1830    0.5150    0.1670 C   0  0  0  0  0  0  0  0  0  0  0  0
    2.8370    0.6570   -0.0470 C   0  0  0  0  0  0  0  0  0  0  0  0
    2.0430   -0.3990   -0.4290 C   0  0  0  0  0  0  0  0  0  0  0  0
    0.7090   -0.5050   -0.6960 N   0  0  0  0  0  0  0  0  0  0  0  0
    0.3810   -1.7570   -1.0360 C   0  0  0  0  0  0  0  0  0  0  0  0
   -0.8750   -2.3160   -1.4070 N   0  0  0  0  0  0  0  0  0  0  0  0
   -2.1020   -1.5700   -1.4530 C   0  0  0  0  0  0  0  0  0  0  0  0
   -2.5250   -1.1770   -0.0790 C   0  0  0  0  0  0  0  0  0  0  0  0
   -3.7830   -0.4210   -0.2220 N   0  0  1  0  0  0  0  0  0  0  0  0
   -4.5350   -0.6650    0.9760 C   0  0  0  0  0  0  0  0  0  0  0  0
   -5.8020    0.1940    0.9370 C   0  0  0  0  0  0  0  0  0  0  0  0
   -5.3170    1.6220    1.0660 C   0  0  0  0  0  0  0  0  0  0  0  0
   -4.4820    1.9410   -0.1310 C   0  0  0  0  0  0  0  0  0  0  0  0
   -3.4340    0.9350   -0.4480 C   0  0  0  0  0  0  0  0  0  0  0  0
    1.5540   -2.4640   -0.9810 N   0  0  0  0  0  0  0  0  0  0  0  0
    2.5620   -1.6610   -0.6170 C   0  0  0  0  0  0  0  0  0  0  0  0
    3.9160   -1.8120   -0.4030 C   0  0  0  0  0  0  0  0  0  0  0  0
    4.7230   -0.7570   -0.0200 C   0  0  0  0  0  0  0  0  0  0  0  0
    6.0770   -0.9060    0.1940 C   0  0  0  0  0  0  0  0  0  0  0  0
    6.5810   -2.0440    0.0310 O   0  0  0  0  0  0  0  0  0  0  0  0
    6.8090    0.1620    0.5670 N   0  0  0  0  0  0  0  0  0  0  0  0
  1  2  1  0
  2  3  1  0
  2 24  2  0
  3  4  1  0
  4  5  2  0
  4 21  1  0
  5  6  1  0
  6  7  1  0
  6 19  2  0
  7  8  1  0
  8  9  1  0
  8 18  2  0
  9 10  1  0
 10 11  1  0
 12 11  1  1
 12 13  1  0
 12 17  1  0
 13 14  1  0
 14 15  1  0
 15 16  1  0
 16 17  1  0
 18 19  1  0
 19 20  1  0
 20 21  2  0
 21 22  1  0
 22 23  2  0
 22 24  1  0
M  CHG  2  12   1  24   1
M  END
