
     RDKit          3D

 18 18  0  0  0  0  0  0  0  0999 V2000
    1.3550   -0.4670   -0.6450 O   0  0  0  0  0  0  0  0  0  0  0  0
    1.4810    0.6670   -0.1600 C   0  0  0  0  0  0  0  0  0  0  0  0
    0.6370    1.7180   -0.5440 N   0  0  0  0  0  0  0  0  0  0  0  0
   -0.4390    1.6960   -1.4720 C   0  0  0  0  0  0  0  0  0  0  0  0
   -1.5440    0.7830   -1.0350 C   0  0  1  0  0  0  0  0  0  0  0  0
   -1.1110   -0.5230   -0.9210 O   0  0  0  0  0  0  0  0  0  0  0  0
   -1.6650   -1.6020   -0.2460 C   0  0  0  0  0  0  0  0  0  0  0  0
   -1.0560   -2.6840   -0.3440 O   0  0  0  0  0  0  0  0  0  0  0  0
   -2.9140   -1.5410    0.5670 C   0  0  2  0  0  0  0  0  0  0  0  0
   -3.8930   -0.9290   -0.2190 O   0  0  0  0  0  0  0  0  0  0  0  0
   -2.6450   -0.6770    1.6890 N   0  0  0  0  0  0  0  0  0  0  0  0
   -2.7450    0.6750    1.3280 N   0  0  0  0  0  0  0  0  0  0  0  0
   -2.0850    1.3200    0.2630 C   0  0  0  0  0  0  0  0  0  0  0  0
   -1.9210    2.5620    0.4290 O   0  0  0  0  0  0  0  0  0  0  0  0
    2.4790    0.8740    0.7750 O   0  0  0  0  0  0  0  0  0  0  0  0
    3.3290   -0.1700    1.1670 C   0  0  0  0  0  0  0  0  0  0  0  0
    4.1360   -0.7720    0.0680 C   0  0  0  0  0  0  0  0  0  0  0  0
    4.9190   -1.7930    0.6570 O   0  0  0  0  0  0  0  0  0  0  0  0
  1  2  2  0
  2  3  1  0
  2 15  1  0
  3  4  1  0
  5  4  1  1
  5  6  1  0
  5 13  1  0
  6  7  1  0
  7  8  2  0
  7  9  1  0
  9 10  1  6
  9 11  1  0
 11 12  1  0
 12 13  1  0
 13 14  2  0
 15 16  1  0
 16 17  1  0
 17 18  1  0
M  END
