
     RDKit          3D

 11 10  0  0  0  0  0  0  0  0999 V2000
   -5.0350    0.2170   -0.2550 N   0  0  0  0  0  0  0  0  0  0  0  0
   -3.7750    0.2780    0.4560 C   0  0  0  0  0  0  0  0  0  0  0  0
   -2.6250   -0.1760   -0.4540 C   0  0  0  0  0  0  0  0  0  0  0  0
   -1.3670   -0.0740    0.3810 C   0  0  0  0  0  0  0  0  0  0  0  0
   -0.2360   -0.4540   -0.3100 O   0  0  0  0  0  0  0  0  0  0  0  0
    0.8490   -0.3200    0.5530 C   0  0  0  0  0  0  0  0  0  0  0  0
    2.1230   -0.7030   -0.0910 C   0  0  0  0  0  0  0  0  0  0  0  0
    3.1370    0.1130   -0.2360 C   0  0  0  0  0  0  0  0  0  0  0  0
    4.3610   -0.3360   -0.8800 C   0  0  0  0  0  0  0  0  0  0  0  0
    5.4800    0.5320   -1.0510 N   0  0  0  0  0  0  0  0  0  0  0  0
    4.4970   -1.5100   -1.3200 O   0  0  0  0  0  0  0  0  0  0  0  0
  1  2  1  0
  2  3  1  0
  3  4  1  0
  4  5  1  0
  5  6  1  0
  6  7  1  0
  7  8  2  3
  8  9  1  0
  9 10  1  0
  9 11  2  0
M  CHG  2   1   1  10   1
M  END
