
     RDKit          3D

 11 10  0  0  0  0  0  0  0  0999 V2000
   -2.3400   -2.1630    0.4510 C   0  0  0  0  0  0  0  0  0  0  0  0
   -1.9040   -0.7200    0.1930 C   0  0  2  0  0  0  0  0  0  0  0  0
   -3.1910    0.1030    0.2790 C   0  0  0  0  0  0  0  0  0  0  0  0
   -2.9130    1.5050    0.0470 N   0  0  0  0  0  0  0  0  0  0  0  0
   -1.3880   -0.5500   -1.0570 O   0  0  0  0  0  0  0  0  0  0  0  0
   -0.1380    0.0190   -1.1440 C   0  0  0  0  0  0  0  0  0  0  0  0
    0.8660   -0.8390   -0.4490 C   0  0  0  0  0  0  0  0  0  0  0  0
    2.2130   -0.2700   -0.5200 N   0  0  0  0  0  0  0  0  0  0  0  0
    2.4390    0.5950    0.6230 C   0  0  0  0  0  0  0  0  0  0  0  0
    3.6610    1.4490    0.2680 C   0  0  0  0  0  0  0  0  0  0  0  0
    4.7190    0.5930    0.0490 O   0  0  0  0  0  0  0  0  0  0  0  0
  2  1  1  6
  2  3  1  0
  2  5  1  0
  3  4  1  0
  5  6  1  0
  6  7  1  0
  7  8  1  0
  8  9  1  0
  9 10  1  0
 10 11  1  0
M  CHG  2   4   1   8   1
M  END
