
     RDKit          3D

 17 17  0  0  0  0  0  0  0  0999 V2000
   -1.8480   -1.1830   -1.1140 C   0  0  0  0  0  0  0  0  0  0  0  0
   -1.9150   -0.0020   -0.2170 C   0  0  1  0  0  0  0  0  0  0  0  0
   -1.9460    1.2180   -0.8720 O   0  0  0  0  0  0  0  0  0  0  0  0
   -3.1560   -0.0470    0.6870 C   0  0  2  0  0  0  0  0  0  0  0  0
   -4.2520    0.4760   -0.0760 N   0  0  0  0  0  0  0  0  0  0  0  0
   -2.7260    0.8660    1.7770 C   0  0  0  0  0  0  0  0  0  0  0  0
   -3.5200    1.4000    2.5910 O   0  0  0  0  0  0  0  0  0  0  0  0
   -1.3450    1.0090    1.7250 O   0  0  0  0  0  0  0  0  0  0  0  0
   -0.8330    0.0350    0.8300 C   0  0  2  0  0  0  0  0  0  0  0  0
    0.4860    0.3600    0.3090 C   0  0  0  0  0  0  0  0  0  0  0  0
    1.0980    1.4040    0.6300 O   0  0  0  0  0  0  0  0  0  0  0  0
    1.0990   -0.5110   -0.5750 O   0  0  0  0  0  0  0  0  0  0  0  0
    2.3700   -0.2210   -1.0910 C   0  0  0  0  0  0  0  0  0  0  0  0
    3.3780   -0.0980   -0.0140 C   0  0  0  0  0  0  0  0  0  0  0  0
    3.0790   -0.2460    1.1980 O   0  0  0  0  0  0  0  0  0  0  0  0
    4.7170    0.1930   -0.3570 N   0  0  0  0  0  0  0  0  0  0  0  0
    5.7070    0.3200    0.6040 N   0  0  0  0  0  0  0  0  0  0  0  0
  2  1  1  6
  2  3  1  0
  2  4  1  0
  2  9  1  0
  4  5  1  6
  4  6  1  0
  6  7  2  0
  6  8  1  0
  8  9  1  0
  9 10  1  6
 10 11  2  0
 10 12  1  0
 12 13  1  0
 13 14  1  0
 14 15  2  0
 14 16  1  0
 16 17  1  0
M  END
