
     RDKit          3D

 25 26  0  0  0  0  0  0  0  0999 V2000
   -4.7520    2.5950    0.5730 C   0  0  0  0  0  0  0  0  0  0  0  0
   -4.9900    1.3250    1.2270 N   0  0  0  0  0  0  0  0  0  0  0  0
   -3.7340    0.6070    1.4910 C   0  0  1  0  0  0  0  0  0  0  0  0
   -3.9880   -0.7220    2.0430 C   0  0  0  0  0  0  0  0  0  0  0  0
   -3.5380   -1.9130    1.3040 C   0  0  0  0  0  0  0  0  0  0  0  0
   -2.9410   -1.7160   -0.0400 C   0  0  1  0  0  0  0  0  0  0  0  0
   -4.0170   -1.6270   -1.1100 C   0  0  0  0  0  0  0  0  0  0  0  0
   -2.1420   -0.5050   -0.0150 N   0  0  0  0  0  0  0  0  0  0  0  0
   -0.7390   -0.5070   -0.2270 C   0  0  0  0  0  0  0  0  0  0  0  0
   -0.1910   -1.6200   -0.4420 O   0  0  0  0  0  0  0  0  0  0  0  0
   -0.0110    0.7720   -0.1840 C   0  0  0  0  0  0  0  0  0  0  0  0
    1.3940    0.5690   -0.4180 O   0  0  0  0  0  0  0  0  0  0  0  0
    1.8630    0.0130   -1.5690 C   0  0  0  0  0  0  0  0  0  0  0  0
    1.0240   -0.3300   -2.4540 O   0  0  0  0  0  0  0  0  0  0  0  0
    3.2850   -0.2350   -1.8910 C   0  0  0  0  0  0  0  0  0  0  0  0
    4.1840    0.1930   -0.8650 N   0  0  0  0  0  0  0  0  0  0  0  0
    4.3370    1.5890   -0.6180 C   0  0  0  0  0  0  0  0  0  0  0  0
    5.3720    2.2250   -0.0390 C   0  0  0  0  0  0  0  0  0  0  0  0
    6.5990    1.6430    0.4840 C   0  0  0  0  0  0  0  0  0  0  0  0
    6.8050    0.3410    0.6950 C   0  0  0  0  0  0  0  0  0  0  0  0
    5.9730   -0.7920    0.4990 N   0  0  0  0  0  0  0  0  0  0  0  0
    6.3970   -1.9690    1.0810 O   0  0  0  0  0  0  0  0  0  0  0  0
    4.8490   -0.8460   -0.1730 C   0  0  0  0  0  0  0  0  0  0  0  0
    4.2290   -2.1670   -0.1810 C   0  0  0  0  0  0  0  0  0  0  0  0
   -2.9160    0.6910    0.2450 C   0  0  0  0  0  0  0  0  0  0  0  0
  1  2  1  0
  3  2  1  6
  3  4  1  0
  3 25  1  0
  4  5  1  0
  5  6  1  0
  6  7  1  6
  6  8  1  0
  8  9  1  0
  8 25  1  0
  9 10  2  0
  9 11  1  0
 11 12  1  0
 12 13  1  0
 13 14  2  0
 13 15  1  0
 15 16  1  0
 16 17  1  0
 16 23  1  0
 17 18  2  0
 18 19  1  0
 19 20  2  0
 20 21  1  0
 21 22  1  0
 21 23  2  0
 23 24  1  0
M  CHG  3   2   1  21   1  22  -1
M  END
