
     RDKit          3D

 25 26  0  0  0  0  0  0  0  0999 V2000
    5.0350    1.0640   -1.2570 C   0  0  0  0  0  0  0  0  0  0  0  0
    3.7430    0.3350   -1.2840 C   0  0  0  0  0  0  0  0  0  0  0  0
    3.0540    0.1870    0.0560 C   0  0  1  0  0  0  0  0  0  0  0  0
    3.8460   -0.5350    1.0330 C   0  0  0  0  0  0  0  0  0  0  0  0
    3.5300   -1.6950    1.3860 O   0  0  0  0  0  0  0  0  0  0  0  0
    4.9870    0.0510    1.6090 N   0  0  0  0  0  0  0  0  0  0  0  0
    5.8150   -0.6550    2.6020 C   0  0  0  0  0  0  0  0  0  0  0  0
    2.4820    1.4980    0.5410 C   0  0  0  0  0  0  0  0  0  0  0  0
    1.3540    1.6530   -0.4520 C   0  0  0  0  0  0  0  0  0  0  0  0
    1.0360    0.4050   -0.8940 O   0  0  0  0  0  0  0  0  0  0  0  0
    1.7930   -0.5040   -0.2750 N   0  0  1  0  0  0  0  0  0  0  0  0
    2.0880   -1.5560   -1.1000 O   0  0  0  0  0  0  0  0  0  0  0  0
    1.1300   -1.0470    0.8720 C   0  0  0  0  0  0  0  0  0  0  0  0
   -0.3570   -0.8130    0.8650 C   0  0  0  0  0  0  0  0  0  0  0  0
   -1.0610   -1.4330   -0.3200 C   0  0  0  0  0  0  0  0  0  0  0  0
   -2.5250   -1.1420   -0.2380 C   0  0  0  0  0  0  0  0  0  0  0  0
   -3.4860   -1.7070    0.5440 C   0  0  0  0  0  0  0  0  0  0  0  0
   -3.2850   -2.7840    1.5210 C   0  0  0  0  0  0  0  0  0  0  0  0
   -4.6690   -1.1070    0.2680 N   0  0  0  0  0  0  0  0  0  0  0  0
   -4.4490   -0.1850   -0.6680 N   0  0  0  0  0  0  0  0  0  0  0  0
   -5.4790    0.6690   -1.2240 C   0  0  0  0  0  0  0  0  0  0  0  0
   -5.5530    1.9200   -0.3810 C   0  0  0  0  0  0  0  0  0  0  0  0
   -6.5480    2.7700   -0.8970 O   0  0  0  0  0  0  0  0  0  0  0  0
   -3.1510   -0.1780   -1.0020 C   0  0  0  0  0  0  0  0  0  0  0  0
   -2.5300    0.7120   -2.0080 C   0  0  0  0  0  0  0  0  0  0  0  0
  1  2  1  0
  3  2  1  6
  3  4  1  0
  3  8  1  0
  3 11  1  0
  4  5  2  0
  4  6  1  0
  6  7  1  0
  8  9  1  0
  9 10  1  0
 10 11  1  0
 11 12  1  6
 11 13  1  0
 13 14  1  0
 14 15  1  0
 15 16  1  0
 16 17  1  0
 16 24  2  0
 17 18  1  0
 17 19  2  0
 19 20  1  0
 20 21  1  0
 20 24  1  0
 21 22  1  0
 22 23  1  0
 24 25  1  0
M  CHG  3  11   1  12  -1  19   1
M  END
