
     RDKit          3D

 24 25  0  0  0  0  0  0  0  0999 V2000
    7.7920    0.6190    1.5790 C   0  0  0  0  0  0  0  0  0  0  0  0
    6.8170   -0.1430    0.7520 C   0  0  0  0  0  0  0  0  0  0  0  0
    5.5540    0.2240    0.4030 N   0  0  0  0  0  0  0  0  0  0  0  0
    4.9810   -0.7260   -0.3500 C   0  0  0  0  0  0  0  0  0  0  0  0
    3.6120   -0.6810   -0.9170 C   0  0  0  0  0  0  0  0  0  0  0  0
    2.9660    0.6010   -0.5130 C   0  0  0  0  0  0  0  0  0  0  0  0
    1.5590    0.7520   -1.0380 C   0  0  1  0  0  0  0  0  0  0  0  0
    1.6210    0.7020   -2.5350 C   0  0  0  0  0  0  0  0  0  0  0  0
    0.6330   -0.1490   -0.4380 N   0  0  0  0  0  0  0  0  0  0  0  0
   -0.1230   -0.8930   -1.4240 C   0  0  0  0  0  0  0  0  0  0  0  0
   -1.0380   -1.9020   -0.8000 C   0  0  0  0  0  0  0  0  0  0  0  0
   -2.0600   -1.3400    0.1270 C   0  0  0  0  0  0  0  0  0  0  0  0
   -2.9950   -0.3790   -0.5080 C   0  0  0  0  0  0  0  0  0  0  0  0
   -2.8610   -0.2190   -1.7720 O   0  0  0  0  0  0  0  0  0  0  0  0
   -3.9780    0.3240    0.2180 N   0  0  0  0  0  0  0  0  0  0  0  0
   -4.8570    1.2420   -0.4460 C   0  0  0  0  0  0  0  0  0  0  0  0
   -6.1970    1.1760    0.2470 C   0  0  0  0  0  0  0  0  0  0  0  0
   -6.1390    1.2960    1.6070 O   0  0  0  0  0  0  0  0  0  0  0  0
   -4.8530    1.3890    2.1310 C   0  0  0  0  0  0  0  0  0  0  0  0
   -4.1170    0.1370    1.6310 C   0  0  1  0  0  0  0  0  0  0  0  0
   -5.0140   -1.0360    1.9730 C   0  0  0  0  0  0  0  0  0  0  0  0
    5.8900   -1.6660   -0.4590 O   0  0  0  0  0  0  0  0  0  0  0  0
    6.9770   -1.3490    0.1790 N   0  0  0  0  0  0  0  0  0  0  0  0
    8.1440   -2.0800    0.2940 O   0  0  0  0  0  0  0  0  0  0  0  0
  1  2  1  0
  2  3  1  0
  2 23  2  0
  3  4  2  0
  4  5  1  0
  4 22  1  0
  5  6  1  0
  6  7  1  0
  7  8  1  6
  7  9  1  0
  9 10  1  0
 10 11  1  0
 11 12  1  0
 12 13  1  0
 13 14  2  0
 13 15  1  0
 15 16  1  0
 15 20  1  0
 16 17  1  0
 17 18  1  0
 18 19  1  0
 19 20  1  0
 20 21  1  6
 22 23  1  0
 23 24  1  0
M  CHG  3   9   1  23   1  24  -1
M  END
