
     RDKit          3D

 25 26  0  0  0  0  0  0  0  0999 V2000
   -2.2380    5.1530   -0.5270 C   0  0  0  0  0  0  0  0  0  0  0  0
   -0.9840    4.8400   -0.2380 C   0  0  0  0  0  0  0  0  0  0  0  0
   -0.6750    3.7370    0.5780 N   0  0  0  0  0  0  0  0  0  0  0  0
   -0.9950    3.8160    1.9900 C   0  0  0  0  0  0  0  0  0  0  0  0
   -0.0520    2.4970    0.0850 C   0  0  0  0  0  0  0  0  0  0  0  0
   -1.1020    1.4520    0.1900 C   0  0  0  0  0  0  0  0  0  0  0  0
   -0.6980    0.0680   -0.2650 C   0  0  2  0  0  0  0  0  0  0  0  0
   -1.9430   -0.7540   -0.0510 C   0  0  0  0  0  0  0  0  0  0  0  0
   -1.7870   -2.1460   -0.2350 N   0  0  0  0  0  0  0  0  0  0  0  0
   -2.8830   -2.9250    0.2900 C   0  0  0  0  0  0  0  0  0  0  0  0
   -3.8640   -2.3760    0.8520 O   0  0  0  0  0  0  0  0  0  0  0  0
   -2.8960   -4.3090    0.1960 O   0  0  0  0  0  0  0  0  0  0  0  0
   -4.0000   -5.0140    0.7310 C   0  0  0  0  0  0  0  0  0  0  0  0
   -0.7490   -2.9610   -0.8450 C   0  0  0  0  0  0  0  0  0  0  0  0
    0.5350   -2.8440   -0.0430 C   0  0  0  0  0  0  0  0  0  0  0  0
    0.3170   -1.8240    1.0390 C   0  0  0  0  0  0  0  0  0  0  0  0
    0.4830   -0.4410    0.4940 C   0  0  1  0  0  0  0  0  0  0  0  0
    1.7330   -0.3730   -0.2270 N   0  0  0  0  0  0  0  0  0  0  0  0
    2.8830    0.2140    0.3290 C   0  0  0  0  0  0  0  0  0  0  0  0
    2.8510    0.6960    1.4780 O   0  0  0  0  0  0  0  0  0  0  0  0
    4.1620    0.2950   -0.3930 C   0  0  0  0  0  0  0  0  0  0  0  0
    4.3660   -0.2000   -1.6630 C   0  0  0  0  0  0  0  0  0  0  0  0
    5.6430    0.0540   -1.9890 N   0  0  0  0  0  0  0  0  0  0  0  0
    6.1990    0.6810   -0.9560 C   0  0  0  0  0  0  0  0  0  0  0  0
    5.2950    0.8140   -0.0130 O   0  0  0  0  0  0  0  0  0  0  0  0
  1  2  2  0
  2  3  1  0
  3  4  1  0
  3  5  1  0
  5  6  1  0
  7  6  1  1
  7  8  1  0
  7 17  1  0
  8  9  1  0
  9 10  1  0
  9 14  1  0
 10 11  2  0
 10 12  1  0
 12 13  1  0
 14 15  1  0
 15 16  1  0
 16 17  1  0
 17 18  1  6
 18 19  1  0
 19 20  2  0
 19 21  1  0
 21 22  2  0
 21 25  1  0
 22 23  1  0
 23 24  2  0
 24 25  1  0
M  CHG  1  23   1
M  END
