
     RDKit          3D

 25 26  0  0  0  0  0  0  0  0999 V2000
   -5.9720   -0.2930   -1.4790 C   0  0  0  0  0  0  0  0  0  0  0  0
   -4.6810   -1.0660   -1.5330 C   0  0  0  0  0  0  0  0  0  0  0  0
   -3.7570   -0.7780   -0.4080 C   0  0  1  0  0  0  0  0  0  0  0  0
   -3.3380    0.6720   -0.3320 C   0  0  0  0  0  0  0  0  0  0  0  0
   -2.1760    0.8350    0.6570 C   0  0  2  0  0  0  0  0  0  0  0  0
   -0.9430    0.5620    0.0200 N   0  0  0  0  0  0  0  0  0  0  0  0
   -0.0330   -0.3400    0.6130 C   0  0  0  0  0  0  0  0  0  0  0  0
    1.3680    0.0210    0.1990 C   0  0  0  0  0  0  0  0  0  0  0  0
    2.0460   -0.8680   -0.5400 C   0  0  0  0  0  0  0  0  0  0  0  0
    3.3900   -0.7230   -1.0450 C   0  0  0  0  0  0  0  0  0  0  0  0
    4.0100    0.3030   -1.7360 C   0  0  0  0  0  0  0  0  0  0  0  0
    5.2820   -0.0730   -1.9480 N   0  0  0  0  0  0  0  0  0  0  0  0
    5.5010   -1.2680   -1.4370 N   0  0  0  0  0  0  0  0  0  0  0  0
    6.8000   -1.9270   -1.5180 C   0  0  0  0  0  0  0  0  0  0  0  0
    4.3830   -1.7040   -0.8790 C   0  0  0  0  0  0  0  0  0  0  0  0
    4.1910   -2.9270   -0.2280 O   0  0  0  0  0  0  0  0  0  0  0  0
    2.0240    1.2240    0.6150 C   0  0  0  0  0  0  0  0  0  0  0  0
    1.7030    2.2610    1.3100 C   0  0  0  0  0  0  0  0  0  0  0  0
    0.4400    2.5820    1.9680 C   0  0  0  0  0  0  0  0  0  0  0  0
    2.7570    3.2830    1.4660 N   0  0  0  0  0  0  0  0  0  0  0  0
    2.5670    4.3560    0.8890 O   0  0  0  0  0  0  0  0  0  0  0  0
    3.8360    2.9590    2.2240 O   0  0  0  0  0  0  0  0  0  0  0  0
   -2.4590    0.0850    1.9190 C   0  0  0  0  0  0  0  0  0  0  0  0
   -3.0570   -1.2780    1.6550 C   0  0  0  0  0  0  0  0  0  0  0  0
   -4.2080   -1.2030    0.8440 O   0  0  0  0  0  0  0  0  0  0  0  0
  1  2  1  0
  3  2  1  6
  3  4  1  0
  3 25  1  0
  4  5  1  0
  5  6  1  6
  5 23  1  0
  6  7  1  0
  7  8  1  0
  8  9  2  3
  8 17  1  0
  9 10  1  0
 10 11  1  0
 10 15  2  0
 11 12  2  0
 12 13  1  0
 13 14  1  0
 13 15  1  0
 15 16  1  0
 17 18  2  3
 18 19  1  0
 18 20  1  0
 20 21  2  0
 20 22  1  0
 23 24  1  0
 24 25  1  0
M  CHG  3   6   1  20   1  22  -1
M  END
