
     RDKit          3D

 24 25  0  0  0  0  0  0  0  0999 V2000
   -3.9460    2.8390   -1.8320 C   0  0  0  0  0  0  0  0  0  0  0  0
   -4.4870    1.9190   -0.7670 C   0  0  0  0  0  0  0  0  0  0  0  0
   -3.7930    0.6660   -0.7520 O   0  0  0  0  0  0  0  0  0  0  0  0
   -2.4440    0.5680   -0.5240 C   0  0  0  0  0  0  0  0  0  0  0  0
   -1.8370    1.6850   -0.3230 O   0  0  0  0  0  0  0  0  0  0  0  0
   -1.7170   -0.6790   -0.5020 C   0  0  0  0  0  0  0  0  0  0  0  0
   -2.2460   -1.8460   -0.6940 C   0  0  0  0  0  0  0  0  0  0  0  0
   -3.6180   -2.1030   -0.9570 C   0  0  0  0  0  0  0  0  0  0  0  0
   -4.0010   -3.3480   -1.1290 N   0  0  0  0  0  0  0  0  0  0  0  0
   -3.0360   -4.4230   -1.0510 C   0  0  0  0  0  0  0  0  0  0  0  0
   -0.2020   -0.5850   -0.2290 C   0  0  0  0  0  0  0  0  0  0  0  0
    0.0250    0.0230    1.0700 N   0  0  1  0  0  0  0  0  0  0  0  0
    0.3790   -1.0250    1.9840 C   0  0  0  0  0  0  0  0  0  0  0  0
    1.1730   -0.6030    3.1670 C   0  0  0  0  0  0  0  0  0  0  0  0
    1.7000    0.6580    3.1080 O   0  0  0  0  0  0  0  0  0  0  0  0
    2.1600    0.9900    1.8580 C   0  0  1  0  0  0  0  0  0  0  0  0
    3.3160    0.1300    1.4060 C   0  0  0  0  0  0  0  0  0  0  0  0
    3.7760    0.5130    0.0730 N   0  0  0  0  0  0  0  0  0  0  0  0
    3.3350    0.0130   -1.0840 C   0  0  0  0  0  0  0  0  0  0  0  0
    3.9910    0.6020   -2.1400 C   0  0  0  0  0  0  0  0  0  0  0  0
    4.8620    1.4930   -1.5560 C   0  0  0  0  0  0  0  0  0  0  0  0
    4.7130    1.4210   -0.1940 C   0  0  0  0  0  0  0  0  0  0  0  0
    5.4430    2.1920    0.7400 O   0  0  0  0  0  0  0  0  0  0  0  0
    1.0250    1.0420    0.9070 C   0  0  0  0  0  0  0  0  0  0  0  0
  1  2  1  0
  2  3  1  0
  3  4  1  0
  4  5  2  0
  4  6  1  0
  6  7  2  3
  6 11  1  0
  7  8  1  0
  8  9  2  3
  9 10  1  0
 12 11  1  6
 12 13  1  0
 12 24  1  0
 13 14  1  0
 14 15  1  0
 15 16  1  0
 16 17  1  6
 16 24  1  0
 17 18  1  0
 18 19  1  0
 18 22  1  0
 19 20  2  0
 20 21  1  0
 21 22  2  0
 22 23  1  0
M  CHG  1  12   1
M  END
