
     RDKit          3D

 10  9  0  0  0  0  0  0  0  0999 V2000
    4.2500    0.4080   -0.8480 C   0  0  0  0  0  0  0  0  0  0  0  0
    3.1110    1.0200   -0.2280 O   0  0  0  0  0  0  0  0  0  0  0  0
    1.9050    0.3550   -0.1030 C   0  0  0  0  0  0  0  0  0  0  0  0
    1.8270   -0.8230   -0.5540 O   0  0  0  0  0  0  0  0  0  0  0  0
    0.7770    0.8810    0.4780 O   0  0  0  0  0  0  0  0  0  0  0  0
   -0.4310    0.1940    0.5950 C   0  0  0  0  0  0  0  0  0  0  0  0
   -0.6690   -0.6220    1.8070 C   0  0  0  0  0  0  0  0  0  0  0  0
   -1.3640    0.2470   -0.3350 C   0  0  0  0  0  0  0  0  0  0  0  0
   -2.6250   -0.4930   -0.1730 C   0  0  0  0  0  0  0  0  0  0  0  0
   -3.7140    0.4800   -0.1930 N   0  0  0  0  0  0  0  0  0  0  0  0
  1  2  1  0
  2  3  1  0
  3  4  2  0
  3  5  1  0
  5  6  1  0
  6  7  1  0
  6  8  2  3
  8  9  1  0
  9 10  1  0
M  END
