
     RDKit          3D

 21 24  0  0  0  0  0  0  0  0999 V2000
    7.0530   -1.3830   -1.8780 N   0  0  0  0  0  0  0  0  0  0  0  0
    6.0230   -1.0520   -0.9620 C   0  0  0  0  0  0  0  0  0  0  0  0
    6.1640   -1.3580    0.2610 O   0  0  0  0  0  0  0  0  0  0  0  0
    4.8600   -0.3920   -1.4050 N   0  0  0  0  0  0  0  0  0  0  0  0
    3.8630   -0.0840   -0.4480 C   0  0  0  0  0  0  0  0  0  0  0  0
    3.6410   -0.2160    0.8020 N   0  0  0  0  0  0  0  0  0  0  0  0
    2.6110    0.1790    1.3880 N   0  0  0  0  0  0  0  0  0  0  0  0
    1.6340    0.7900    0.7230 C   0  0  0  0  0  0  0  0  0  0  0  0
    0.4020    1.3120    1.1730 N   0  0  0  0  0  0  0  0  0  0  0  0
    0.2170    2.3640    1.9900 C   0  0  0  0  0  0  0  0  0  0  0  0
   -1.1200    2.5940    2.2210 C   0  0  0  0  0  0  0  0  0  0  0  0
   -1.8020    1.6200    1.4990 C   0  0  0  0  0  0  0  0  0  0  0  0
   -3.1320    1.3340    1.3330 C   0  0  0  0  0  0  0  0  0  0  0  0
   -3.5270    0.2670    0.5290 C   0  0  0  0  0  0  0  0  0  0  0  0
   -2.5530   -0.4750   -0.0810 C   0  0  0  0  0  0  0  0  0  0  0  0
   -1.1840   -0.2080    0.0690 C   0  0  0  0  0  0  0  0  0  0  0  0
   -0.8220    0.8490    0.8670 C   0  0  0  0  0  0  0  0  0  0  0  0
   -3.2020   -1.5600   -0.8890 C   0  0  0  0  0  0  0  0  0  0  0  0
   -4.6140   -1.6050   -0.3800 C   0  0  0  0  0  0  0  0  0  0  0  0
   -4.9010   -0.2500    0.1870 C   0  0  0  0  0  0  0  0  0  0  0  0
    2.2770    0.7890   -0.9110 S   0  0  0  0  0  0  0  0  0  0  0  0
  1  2  1  0
  2  3  2  0
  2  4  1  0
  4  5  1  0
  5  6  2  0
  5 21  1  0
  6  7  1  0
  7  8  2  0
  8  9  1  0
  8 21  1  0
  9 10  1  0
  9 17  1  0
 10 11  2  0
 11 12  1  0
 12 13  2  0
 12 17  1  0
 13 14  1  0
 14 15  2  0
 14 20  1  0
 15 16  1  0
 15 18  1  0
 16 17  2  0
 18 19  1  0
 19 20  1  0
M  END
