
     RDKit          3D

 21 24  0  0  0  0  0  0  0  0999 V2000
    5.3360    2.1780    0.5880 O   0  0  0  0  0  0  0  0  0  0  0  0
    5.1370    1.0180    0.1820 C   0  0  0  0  0  0  0  0  0  0  0  0
    6.2270    0.2550   -0.0940 N   0  0  0  0  0  0  0  0  0  0  0  0
    6.0390   -0.9950   -0.5310 C   0  0  0  0  0  0  0  0  0  0  0  0
    4.7970   -1.4760   -0.6900 N   0  0  0  0  0  0  0  0  0  0  0  0
    3.6960   -0.7590   -0.4300 C   0  0  0  0  0  0  0  0  0  0  0  0
    2.4190   -1.2470   -0.5920 C   0  0  0  0  0  0  0  0  0  0  0  0
    1.3020   -0.4990   -0.3210 C   0  0  0  0  0  0  0  0  0  0  0  0
   -0.0210   -0.7130   -0.3860 N   0  0  0  0  0  0  0  0  0  0  0  0
   -0.6970    0.3780    0.0020 C   0  0  0  0  0  0  0  0  0  0  0  0
   -2.1070    0.5090    0.0590 N   0  0  0  0  0  0  0  0  0  0  0  0
   -2.9530   -0.5820   -0.3180 C   0  0  0  0  0  0  0  0  0  0  0  0
   -4.3580   -0.1940   -0.1710 C   0  0  0  0  0  0  0  0  0  0  0  0
   -5.2590   -0.2600    0.8680 C   0  0  0  0  0  0  0  0  0  0  0  0
   -6.4970    0.1780    0.7110 C   0  0  0  0  0  0  0  0  0  0  0  0
   -6.8670    0.7040   -0.5250 C   0  0  0  0  0  0  0  0  0  0  0  0
   -5.3500    0.5430   -1.4560 S   0  0  0  0  0  0  0  0  0  0  0  0
    0.2240    1.3150    0.3240 N   0  0  0  0  0  0  0  0  0  0  0  0
    1.4630    0.8030    0.1350 C   0  0  0  0  0  0  0  0  0  0  0  0
    2.7440    1.2890    0.2960 C   0  0  0  0  0  0  0  0  0  0  0  0
    3.8610    0.5350    0.0220 C   0  0  0  0  0  0  0  0  0  0  0  0
  1  2  2  0
  2  3  1  0
  2 21  1  0
  3  4  1  0
  4  5  2  0
  5  6  1  0
  6  7  2  0
  6 21  1  0
  7  8  1  0
  8  9  1  0
  8 19  2  0
  9 10  1  0
 10 11  1  0
 10 18  2  0
 11 12  1  0
 12 13  1  0
 13 14  2  0
 13 17  1  0
 14 15  1  0
 15 16  2  0
 16 17  1  0
 18 19  1  0
 19 20  1  0
 20 21  2  0
M  END
