
     RDKit          3D

 21 24  0  0  0  0  0  0  0  0999 V2000
    5.0030    1.5510    0.4690 C   0  0  0  0  0  0  0  0  0  0  0  0
    3.6010    1.1020    0.3130 C   0  0  0  0  0  0  0  0  0  0  0  0
    2.5090    2.0690    0.2350 C   0  0  0  0  0  0  0  0  0  0  0  0
    1.2490    1.6570    0.0940 C   0  0  0  0  0  0  0  0  0  0  0  0
   -0.0480    2.2060   -0.0210 N   0  0  0  0  0  0  0  0  0  0  0  0
   -1.0190    1.1160   -0.1610 C   0  0  0  0  0  0  0  0  0  0  0  0
   -2.3930    1.4870   -0.4870 C   0  0  0  0  0  0  0  0  0  0  0  0
   -3.2080    2.2590    0.9000 S   0  0  0  0  0  0  0  0  0  0  0  0
   -2.4040    3.4150    1.4190 O   0  0  0  0  0  0  0  0  0  0  0  0
   -0.3340    0.0120   -0.1100 C   0  0  0  0  0  0  0  0  0  0  0  0
   -0.6820   -1.4060   -0.1910 C   0  0  0  0  0  0  0  0  0  0  0  0
   -1.9740   -1.7730   -0.2830 C   0  0  0  0  0  0  0  0  0  0  0  0
   -3.1120   -0.9910   -0.0720 N   0  0  0  0  0  0  0  0  0  0  0  0
   -2.2490   -3.1630   -0.3710 C   0  0  0  0  0  0  0  0  0  0  0  0
   -1.2420   -4.0750   -0.3510 C   0  0  0  0  0  0  0  0  0  0  0  0
    0.0570   -3.6710   -0.2440 C   0  0  0  0  0  0  0  0  0  0  0  0
    0.3620   -2.3300   -0.1620 C   0  0  0  0  0  0  0  0  0  0  0  0
    1.7330   -1.9390   -0.0160 N   0  0  0  0  0  0  0  0  0  0  0  0
    2.0530   -0.6970    0.0940 C   0  0  0  0  0  0  0  0  0  0  0  0
    3.3870   -0.1970    0.2460 N   0  0  0  0  0  0  0  0  0  0  0  0
    1.0500    0.2910    0.0280 N   0  0  0  0  0  0  0  0  0  0  0  0
  1  2  1  0
  2  3  1  0
  2 20  2  0
  3  4  2  0
  4  5  1  0
  4 21  1  0
  5  6  1  0
  6  7  1  0
  6 10  2  0
  7  8  1  0
  8  9  2  0
 10 11  1  0
 10 21  1  0
 11 12  2  0
 11 17  1  0
 12 13  1  0
 12 14  1  0
 14 15  2  0
 15 16  1  0
 16 17  2  0
 17 18  1  0
 18 19  2  0
 19 20  1  0
 19 21  1  0
M  END
