
     RDKit          3D

 20 23  0  0  0  0  0  0  0  0999 V2000
    5.6350   -1.8660   -0.9940 N   0  0  0  0  0  0  0  0  0  0  0  0
    4.7060   -0.9440   -0.4230 C   0  0  0  0  0  0  0  0  0  0  0  0
    4.2220   -1.0770    0.8160 N   0  0  0  0  0  0  0  0  0  0  0  0
    3.3360   -0.1750    1.3280 C   0  0  0  0  0  0  0  0  0  0  0  0
    2.9130    0.9040    0.5790 C   0  0  0  0  0  0  0  0  0  0  0  0
    1.9460    1.8760    1.1570 C   0  0  0  0  0  0  0  0  0  0  0  0
    0.5760    1.3230    0.7860 C   0  0  0  0  0  0  0  0  0  0  0  0
   -0.2760    0.6270    1.1130 N   0  0  0  0  0  0  0  0  0  0  0  0
   -1.4190    0.3410    0.5320 C   0  0  0  0  0  0  0  0  0  0  0  0
   -2.4370   -0.5090    0.9510 C   0  0  0  0  0  0  0  0  0  0  0  0
   -3.5590   -0.6640    0.1800 C   0  0  0  0  0  0  0  0  0  0  0  0
   -4.6560   -1.4240    0.3870 N   0  0  0  0  0  0  0  0  0  0  0  0
   -5.5250   -1.2880   -0.6140 C   0  0  0  0  0  0  0  0  0  0  0  0
   -4.9860   -0.4100   -1.5100 C   0  0  0  0  0  0  0  0  0  0  0  0
   -3.7790   -0.0210   -1.0310 C   0  0  0  0  0  0  0  0  0  0  0  0
   -2.7610    0.8270   -1.4480 C   0  0  0  0  0  0  0  0  0  0  0  0
   -1.6210    0.9870   -0.6700 C   0  0  0  0  0  0  0  0  0  0  0  0
   -0.1440    1.9570   -0.8630 S   0  0  0  0  0  0  0  0  0  0  0  0
    3.4180    1.0300   -0.6960 C   0  0  0  0  0  0  0  0  0  0  0  0
    4.2970    0.1060   -1.1590 N   0  0  0  0  0  0  0  0  0  0  0  0
  1  2  1  0
  2  3  2  0
  2 20  1  0
  3  4  1  0
  4  5  2  0
  5  6  1  0
  5 19  1  0
  6  7  1  0
  7  8  2  0
  7 18  1  0
  8  9  1  0
  9 10  2  0
  9 17  1  0
 10 11  1  0
 11 12  1  0
 11 15  2  0
 12 13  1  0
 13 14  2  0
 14 15  1  0
 15 16  1  0
 16 17  2  0
 17 18  1  0
 19 20  2  0
M  END
