
     RDKit          3D

 23 25  0  0  0  0  0  0  0  0999 V2000
   -4.4960   -2.8470   -1.7810 C   0  0  0  0  0  0  0  0  0  0  0  0
   -4.3160   -1.4720   -1.3580 N   0  0  0  0  0  0  0  0  0  0  0  0
   -3.8050   -1.0700   -0.1930 C   0  0  0  0  0  0  0  0  0  0  0  0
   -3.7990    0.3040   -0.1640 C   0  0  0  0  0  0  0  0  0  0  0  0
   -3.3490    1.2420    0.8660 C   0  0  1  0  0  0  0  0  0  0  0  0
   -3.7880    0.8800    2.2020 N   0  0  0  0  0  0  0  0  0  0  0  0
   -2.9840    1.7270    3.0610 C   0  0  0  0  0  0  0  0  0  0  0  0
   -1.6830    1.9710    2.3190 C   0  0  0  0  0  0  0  0  0  0  0  0
   -1.8870    1.2860    1.0450 C   0  0  0  0  0  0  0  0  0  0  0  0
   -0.9950    0.8020    0.2160 C   0  0  0  0  0  0  0  0  0  0  0  0
    0.4520    0.8550    0.4090 C   0  0  0  0  0  0  0  0  0  0  0  0
    0.9250    1.3960    1.4300 O   0  0  0  0  0  0  0  0  0  0  0  0
    1.3360    0.3030   -0.5400 N   0  0  0  0  0  0  0  0  0  0  0  0
    2.7490    0.3480   -0.3650 C   0  0  0  0  0  0  0  0  0  0  0  0
    3.5190    0.8670    0.6370 C   0  0  0  0  0  0  0  0  0  0  0  0
    4.8180    0.6730    0.3680 N   0  0  0  0  0  0  0  0  0  0  0  0
    4.9190    0.0370   -0.7880 N   0  0  0  0  0  0  0  0  0  0  0  0
    6.1830   -0.3430   -1.3990 C   0  0  0  0  0  0  0  0  0  0  0  0
    6.5400   -1.7350   -0.8990 C   0  0  0  0  0  0  0  0  0  0  0  0
    7.7530   -2.1470   -1.4610 O   0  0  0  0  0  0  0  0  0  0  0  0
    3.6900   -0.1820   -1.2710 C   0  0  0  0  0  0  0  0  0  0  0  0
   -4.3360    0.6730   -1.3810 C   0  0  0  0  0  0  0  0  0  0  0  0
   -4.6400   -0.4180   -2.0820 N   0  0  0  0  0  0  0  0  0  0  0  0
  1  2  1  0
  2  3  1  0
  2 23  1  0
  3  4  2  0
  5  4  1  6
  4 22  1  0
  5  6  1  0
  5  9  1  0
  6  7  1  0
  7  8  1  0
  8  9  1  0
  9 10  2  3
 10 11  1  0
 11 12  2  0
 11 13  1  0
 13 14  1  0
 14 15  1  0
 14 21  2  0
 15 16  2  0
 16 17  1  0
 17 18  1  0
 17 21  1  0
 18 19  1  0
 19 20  1  0
 22 23  2  0
M  CHG  1   6   1
M  END
