
     RDKit          3D

 23 25  0  0  0  0  0  0  0  0999 V2000
    0.9900   -1.5230    0.0350 C   0  0  0  0  0  0  0  0  0  0  0  0
    1.0330   -0.6430    1.1730 N   0  0  0  0  0  0  0  0  0  0  0  0
    2.1540   -0.2400    1.8000 C   0  0  0  0  0  0  0  0  0  0  0  0
    3.5470   -0.6280    1.4330 C   0  0  0  0  0  0  0  0  0  0  0  0
    4.0970    0.2610    0.5150 O   0  0  0  0  0  0  0  0  0  0  0  0
    5.3880   -0.1810    0.2350 C   0  0  1  0  0  0  0  0  0  0  0  0
    5.6380   -0.3700   -1.2670 C   0  0  0  0  0  0  0  0  0  0  0  0
    6.8210    0.5840   -1.2130 C   0  0  0  0  0  0  0  0  0  0  0  0
    6.4450    0.9050    0.2310 C   0  0  0  0  0  0  0  0  0  0  0  0
    1.7570    0.5780    2.8160 N   0  0  0  0  0  0  0  0  0  0  0  0
    0.4270    0.6570    2.7900 N   0  0  0  0  0  0  0  0  0  0  0  0
   -0.0560   -0.0950    1.7740 C   0  0  0  0  0  0  0  0  0  0  0  0
   -1.3960   -0.3090    1.3700 N   0  0  0  0  0  0  0  0  0  0  0  0
   -1.9580    0.3600    0.4200 C   0  0  0  0  0  0  0  0  0  0  0  0
   -1.2000    1.3550   -0.2500 N   0  0  0  0  0  0  0  0  0  0  0  0
   -3.3330    0.1370    0.0090 C   0  0  0  0  0  0  0  0  0  0  0  0
   -4.0210   -0.8130    0.6650 C   0  0  0  0  0  0  0  0  0  0  0  0
   -5.4330   -1.1900    0.3960 C   0  0  0  0  0  0  0  0  0  0  0  0
   -6.2730   -0.0280    0.2370 N   0  0  0  0  0  0  0  0  0  0  0  0
   -6.3080    0.4370   -1.1350 C   0  0  0  0  0  0  0  0  0  0  0  0
   -5.0430    1.0840   -1.5290 C   0  0  0  0  0  0  0  0  0  0  0  0
   -3.8000    0.9830   -1.0780 C   0  0  0  0  0  0  0  0  0  0  0  0
   -2.8280    1.7730   -1.7130 O   0  0  0  0  0  0  0  0  0  0  0  0
  1  2  1  0
  2  3  1  0
  2 12  1  0
  3  4  1  0
  3 10  2  0
  4  5  1  0
  6  5  1  6
  6  7  1  0
  6  9  1  0
  7  8  1  0
  8  9  1  0
 10 11  1  0
 11 12  2  0
 12 13  1  0
 13 14  2  3
 14 15  1  0
 14 16  1  0
 16 17  2  0
 16 22  1  0
 17 18  1  0
 18 19  1  0
 19 20  1  0
 20 21  1  0
 21 22  2  0
 22 23  1  0
M  CHG  1  19   1
M  END
