
     RDKit          3D

 23 25  0  0  0  0  0  0  0  0999 V2000
   -4.1570   -2.0830    0.3160 C   0  0  0  0  0  0  0  0  0  0  0  0
   -2.7900   -1.6650    0.7030 C   0  0  0  0  0  0  0  0  0  0  0  0
   -2.5730   -0.2340    0.7050 N   0  0  2  0  0  0  0  0  0  0  0  0
   -3.7700    0.5210    0.4670 C   0  0  0  0  0  0  0  0  0  0  0  0
   -4.0460    0.9330   -0.9060 C   0  0  0  0  0  0  0  0  0  0  0  0
   -3.3140    0.4150   -1.9240 O   0  0  0  0  0  0  0  0  0  0  0  0
   -2.0930   -0.0890   -1.6600 C   0  0  0  0  0  0  0  0  0  0  0  0
   -1.6100    0.1590   -0.2630 C   0  0  0  0  0  0  0  0  0  0  0  0
   -0.4400    0.6720   -0.0540 C   0  0  0  0  0  0  0  0  0  0  0  0
    0.0810    0.9320    1.2660 C   0  0  0  0  0  0  0  0  0  0  0  0
    1.2610    1.4490    1.4540 N   0  0  0  0  0  0  0  0  0  0  0  0
    2.1170    1.7940    0.3970 C   0  0  0  0  0  0  0  0  0  0  0  0
    2.0320    2.9900   -0.2190 N   0  0  0  0  0  0  0  0  0  0  0  0
    2.8530    3.3330   -1.2400 C   0  0  0  0  0  0  0  0  0  0  0  0
    3.7940    2.4630   -1.6710 N   0  0  0  0  0  0  0  0  0  0  0  0
    3.9370    1.2490   -1.1020 C   0  0  0  0  0  0  0  0  0  0  0  0
    4.8790    0.4140   -1.5540 N   0  0  0  0  0  0  0  0  0  0  0  0
    5.0030   -0.7800   -0.9780 C   0  0  0  0  0  0  0  0  0  0  0  0
    5.8850   -1.5810   -1.3890 O   0  0  0  0  0  0  0  0  0  0  0  0
    4.1990   -1.1920    0.0660 C   0  0  0  0  0  0  0  0  0  0  0  0
    4.3440   -2.4700    0.6710 N   0  0  0  0  0  0  0  0  0  0  0  0
    3.2350   -0.3240    0.5210 C   0  0  0  0  0  0  0  0  0  0  0  0
    3.0840    0.9200   -0.0570 C   0  0  0  0  0  0  0  0  0  0  0  0
  1  2  1  0
  3  2  1  6
  3  4  1  0
  3  8  1  0
  4  5  1  0
  5  6  1  0
  6  7  1  0
  7  8  1  0
  8  9  2  3
  9 10  1  0
 10 11  2  3
 11 12  1  0
 12 13  2  0
 12 23  1  0
 13 14  1  0
 14 15  2  0
 15 16  1  0
 16 17  1  0
 16 23  2  0
 17 18  1  0
 18 19  2  0
 18 20  1  0
 20 21  1  0
 20 22  2  0
 22 23  1  0
M  CHG  1   3   1
M  END
