
     RDKit          3D

 19 20  0  0  0  0  0  0  0  0999 V2000
    6.0600   -0.3530    0.2940 C   0  0  0  0  0  0  0  0  0  0  0  0
    4.8580   -0.8490    0.1060 C   0  0  0  0  0  0  0  0  0  0  0  0
    4.2000   -0.8230   -1.1450 N   0  0  0  0  0  0  0  0  0  0  0  0
    2.7690   -1.0140   -1.2570 C   0  0  0  0  0  0  0  0  0  0  0  0
    2.0970    0.1810   -0.6360 C   0  0  1  0  0  0  0  0  0  0  0  0
    2.7010    1.4530   -1.1720 C   0  0  0  0  0  0  0  0  0  0  0  0
    0.7120    0.1480   -0.6860 O   0  0  0  0  0  0  0  0  0  0  0  0
   -0.1010    0.1000    0.4280 C   0  0  0  0  0  0  0  0  0  0  0  0
    0.4840    0.0840    1.5410 O   0  0  0  0  0  0  0  0  0  0  0  0
   -1.5620    0.0710    0.3310 C   0  0  0  0  0  0  0  0  0  0  0  0
   -2.2860    0.0820   -0.7560 C   0  0  0  0  0  0  0  0  0  0  0  0
   -1.7410    0.1260   -2.1160 C   0  0  0  0  0  0  0  0  0  0  0  0
   -3.7140    0.0480   -0.3950 C   0  0  0  0  0  0  0  0  0  0  0  0
   -4.9630    0.0350   -0.8320 C   0  0  0  0  0  0  0  0  0  0  0  0
   -5.8610   -0.0070    0.3300 C   0  0  0  0  0  0  0  0  0  0  0  0
   -5.1430   -0.0190    1.4430 C   0  0  0  0  0  0  0  0  0  0  0  0
   -3.7330    0.0150    1.0580 C   0  0  0  0  0  0  0  0  0  0  0  0
   -2.4630    0.0290    1.4670 C   0  0  0  0  0  0  0  0  0  0  0  0
   -2.0300    0.0050    2.8870 C   0  0  0  0  0  0  0  0  0  0  0  0
  1  2  2  0
  2  3  1  0
  3  4  1  0
  4  5  1  0
  5  6  1  6
  5  7  1  0
  7  8  1  0
  8  9  2  0
  8 10  1  0
 10 11  2  0
 10 18  1  0
 11 12  1  0
 11 13  1  0
 13 14  2  0
 13 17  1  0
 14 15  1  0
 15 16  2  0
 16 17  1  0
 17 18  2  0
 18 19  1  0
M  END
