
     RDKit          3D

 23 26  0  0  0  0  0  0  0  0999 V2000
    5.4930   -3.0040    1.4830 O   0  0  0  0  0  0  0  0  0  0  0  0
    5.9030   -1.9540    0.9310 C   0  0  0  0  0  0  0  0  0  0  0  0
    7.2080   -1.7430    0.7680 N   0  0  0  0  0  0  0  0  0  0  0  0
    7.6360   -0.6220    0.1790 C   0  0  0  0  0  0  0  0  0  0  0  0
    6.7590    0.2990   -0.2510 N   0  0  0  0  0  0  0  0  0  0  0  0
    5.4290    0.1240   -0.1050 C   0  0  0  0  0  0  0  0  0  0  0  0
    4.5170    1.0620   -0.5430 C   0  0  0  0  0  0  0  0  0  0  0  0
    3.1580    0.9010   -0.4020 C   0  0  0  0  0  0  0  0  0  0  0  0
    2.0890    1.6340   -0.7290 N   0  0  0  0  0  0  0  0  0  0  0  0
    0.9820    0.9580   -0.3370 C   0  0  0  0  0  0  0  0  0  0  0  0
   -0.3530    1.3870   -0.4980 N   0  0  0  0  0  0  0  0  0  0  0  0
   -1.4360    0.5390   -0.0200 C   0  0  0  0  0  0  0  0  0  0  0  0
   -2.7750    1.1840   -0.2900 C   0  0  0  0  0  0  0  0  0  0  0  0
   -3.8270    0.3400    0.1850 N   0  0  2  0  0  0  0  0  0  0  0  0
   -4.0570   -0.7610   -0.7000 C   0  0  0  0  0  0  0  0  0  0  0  0
   -5.0730   -1.6770   -0.0520 C   0  0  0  0  0  0  0  0  0  0  0  0
   -6.2120   -1.0030    0.3510 O   0  0  0  0  0  0  0  0  0  0  0  0
   -6.2640    0.3080   -0.1070 C   0  0  0  0  0  0  0  0  0  0  0  0
   -5.0500    1.1130    0.2670 C   0  0  0  0  0  0  0  0  0  0  0  0
    1.4040   -0.1970    0.2320 N   0  0  0  0  0  0  0  0  0  0  0  0
    2.7300   -0.2700    0.2120 C   0  0  0  0  0  0  0  0  0  0  0  0
    3.6150   -1.2220    0.6580 C   0  0  0  0  0  0  0  0  0  0  0  0
    4.9660   -1.0280    0.5010 C   0  0  0  0  0  0  0  0  0  0  0  0
  1  2  2  0
  2  3  1  0
  2 23  1  0
  3  4  1  0
  4  5  2  0
  5  6  1  0
  6  7  2  0
  6 23  1  0
  7  8  1  0
  8  9  1  0
  8 21  2  0
  9 10  1  0
 10 11  1  0
 10 20  2  0
 11 12  1  0
 12 13  1  0
 14 13  1  6
 14 15  1  0
 14 19  1  0
 15 16  1  0
 16 17  1  0
 17 18  1  0
 18 19  1  0
 20 21  1  0
 21 22  1  0
 22 23  2  0
M  CHG  1  14   1
M  END
