
     RDKit          3D

 23 26  0  0  0  0  0  0  0  0999 V2000
   -1.7210   -3.7670   -0.1780 C   0  0  0  0  0  0  0  0  0  0  0  0
   -2.6320   -2.6100   -0.1000 N   0  0  0  0  0  0  0  0  0  0  0  0
   -2.0410   -1.3490    0.0950 C   0  0  0  0  0  0  0  0  0  0  0  0
   -0.6950   -1.1900    0.1440 N   0  0  0  0  0  0  0  0  0  0  0  0
   -0.1440    0.0120    0.2980 C   0  0  0  0  0  0  0  0  0  0  0  0
    1.3140    0.1800    0.3510 C   0  0  0  0  0  0  0  0  0  0  0  0
    2.0280    1.2890    0.4970 N   0  0  0  0  0  0  0  0  0  0  0  0
    3.3570    1.0230    0.4960 C   0  0  0  0  0  0  0  0  0  0  0  0
    3.4640   -0.3430    0.3380 C   0  0  0  0  0  0  0  0  0  0  0  0
    2.1980   -0.8300    0.2520 N   0  0  0  0  0  0  0  0  0  0  0  0
    4.7450   -1.0740    0.2810 C   0  0  0  0  0  0  0  0  0  0  0  0
    5.8640   -0.1860   -0.1260 C   0  0  0  0  0  0  0  0  0  0  0  0
    6.9590   -0.7250   -0.4170 O   0  0  0  0  0  0  0  0  0  0  0  0
    5.6710    1.2300   -0.1760 N   0  0  0  0  0  0  0  0  0  0  0  0
    4.5840    1.8150    0.6170 C   0  0  0  0  0  0  0  0  0  0  0  0
   -0.9050    1.1060    0.4090 N   0  0  0  0  0  0  0  0  0  0  0  0
   -2.2440    1.0180    0.3680 C   0  0  0  0  0  0  0  0  0  0  0  0
   -2.7960   -0.2290    0.2100 C   0  0  0  0  0  0  0  0  0  0  0  0
   -4.2610   -0.3160    0.1980 C   0  0  0  0  0  0  0  0  0  0  0  0
   -4.8550   -1.2960    0.6570 O   0  0  0  0  0  0  0  0  0  0  0  0
   -4.9760    0.8650   -0.4070 C   0  0  0  0  0  0  0  0  0  0  0  0
   -4.4900    2.1350    0.1960 C   0  0  0  0  0  0  0  0  0  0  0  0
   -3.0420    2.2350    0.4930 C   0  0  0  0  0  0  0  0  0  0  0  0
  1  2  1  0
  2  3  1  0
  3  4  2  0
  3 18  1  0
  4  5  1  0
  5  6  1  0
  5 16  2  0
  6  7  1  0
  6 10  2  0
  7  8  1  0
  8  9  2  0
  8 15  1  0
  9 10  1  0
  9 11  1  0
 11 12  1  0
 12 13  2  0
 12 14  1  0
 14 15  1  0
 16 17  1  0
 17 18  2  0
 17 23  1  0
 18 19  1  0
 19 20  2  0
 19 21  1  0
 21 22  1  0
 22 23  1  0
M  CHG  1  10   1
M  END
