
     RDKit          3D

 23 25  0  0  0  0  0  0  0  0999 V2000
   -1.6050    4.1030   -0.9750 O   0  0  0  0  0  0  0  0  0  0  0  0
   -2.2760    3.0440   -0.7470 C   0  0  0  0  0  0  0  0  0  0  0  0
   -3.6210    3.0420   -0.7490 N   0  0  0  0  0  0  0  0  0  0  0  0
   -4.3120    1.9290   -0.5090 N   0  0  0  0  0  0  0  0  0  0  0  0
   -3.7100    0.7560   -0.2530 C   0  0  0  0  0  0  0  0  0  0  0  0
   -4.4910   -0.4570    0.0090 C   0  0  0  0  0  0  0  0  0  0  0  0
   -4.2900   -1.7190   -0.5030 C   0  0  0  0  0  0  0  0  0  0  0  0
   -5.2650   -2.5390    0.0190 C   0  0  0  0  0  0  0  0  0  0  0  0
   -6.0610   -1.8280    0.8350 N   0  0  0  0  0  0  0  0  0  0  0  0
   -5.5920   -0.5540    0.8320 C   0  0  0  0  0  0  0  0  0  0  0  0
   -2.3310    0.7390   -0.2460 C   0  0  0  0  0  0  0  0  0  0  0  0
   -1.7680   -0.3970    0.0020 N   0  0  0  0  0  0  0  0  0  0  0  0
   -0.3300   -0.5210    0.0310 C   0  0  0  0  0  0  0  0  0  0  0  0
    0.2230   -1.6310   -0.4030 C   0  0  0  0  0  0  0  0  0  0  0  0
    1.6690   -1.8800   -0.4250 C   0  0  0  0  0  0  0  0  0  0  0  0
    2.4940   -0.8300    0.0620 N   0  0  1  0  0  0  0  0  0  0  0  0
    3.8290   -1.3540    0.2840 C   0  0  0  0  0  0  0  0  0  0  0  0
    4.8110   -0.3450    0.7340 C   0  0  0  0  0  0  0  0  0  0  0  0
    4.5800    1.0550    0.3460 C   0  0  2  0  0  0  0  0  0  0  0  0
    4.6570    1.8670    1.5010 O   0  0  0  0  0  0  0  0  0  0  0  0
    3.2870    1.3620   -0.3300 C   0  0  0  0  0  0  0  0  0  0  0  0
    2.6630    0.1790   -0.9950 C   0  0  0  0  0  0  0  0  0  0  0  0
   -1.6570    1.8700   -0.4900 N   0  0  0  0  0  0  0  0  0  0  0  0
  1  2  2  0
  2  3  1  0
  2 23  1  0
  3  4  1  0
  4  5  2  0
  5  6  1  0
  5 11  1  0
  6  7  1  0
  6 10  2  0
  7  8  2  0
  8  9  1  0
  9 10  1  0
 11 12  2  3
 11 23  1  0
 12 13  1  0
 13 14  2  3
 14 15  1  0
 16 15  1  6
 16 17  1  0
 16 22  1  0
 17 18  1  0
 18 19  1  0
 19 20  1  1
 19 21  1  0
 21 22  1  0
M  CHG  1  16   1
M  END
