
     RDKit          3D

 23 25  0  0  0  0  0  0  0  0999 V2000
   -6.0740    3.0280   -1.8290 C   0  0  0  0  0  0  0  0  0  0  0  0
   -4.8820    2.2950   -1.8410 O   0  0  0  0  0  0  0  0  0  0  0  0
   -5.1280    0.9480   -1.6500 C   0  0  0  0  0  0  0  0  0  0  0  0
   -3.8230    0.2240   -1.6790 C   0  0  0  0  0  0  0  0  0  0  0  0
   -3.2070   -0.3180   -2.7380 N   0  0  0  0  0  0  0  0  0  0  0  0
   -2.0990   -0.8570   -2.3730 O   0  0  0  0  0  0  0  0  0  0  0  0
   -1.9540   -0.6910   -1.0830 C   0  0  0  0  0  0  0  0  0  0  0  0
   -0.8780   -1.1280   -0.2700 N   0  0  0  0  0  0  0  0  0  0  0  0
   -0.8760   -0.8610    1.1350 C   0  0  2  0  0  0  0  0  0  0  0  0
   -1.0060    0.6080    1.3950 C   0  0  0  0  0  0  0  0  0  0  0  0
    0.2450    1.1370    2.0130 C   0  0  0  0  0  0  0  0  0  0  0  0
    1.4210    0.6620    1.1390 C   0  0  0  0  0  0  0  0  0  0  0  0
    1.6220   -0.8000    1.5370 C   0  0  2  0  0  0  0  0  0  0  0  0
    2.4390   -0.7980    2.7440 C   0  0  0  0  0  0  0  0  0  0  0  0
    3.1180   -0.8170    3.7340 N   0  0  0  0  0  0  0  0  0  0  0  0
    2.3330   -1.5180    0.5300 N   0  0  0  0  0  0  0  0  0  0  0  0
    3.6360   -1.1450    0.0940 C   0  0  0  0  0  0  0  0  0  0  0  0
    4.0530   -0.0030   -0.4220 C   0  0  0  0  0  0  0  0  0  0  0  0
    5.4290   -0.0960   -0.7060 N   0  0  0  0  0  0  0  0  0  0  0  0
    5.8190   -1.3970   -0.3210 C   0  0  0  0  0  0  0  0  0  0  0  0
    4.7880   -2.0270    0.1480 C   0  0  0  0  0  0  0  0  0  0  0  0
    0.3000   -1.4460    1.8500 C   0  0  0  0  0  0  0  0  0  0  0  0
   -3.0370   -0.0030   -0.6030 N   0  0  0  0  0  0  0  0  0  0  0  0
  1  2  1  0
  2  3  1  0
  3  4  1  0
  4  5  2  0
  4 23  1  0
  5  6  1  0
  6  7  1  0
  7  8  1  0
  7 23  2  0
  9  8  1  6
  9 10  1  0
  9 22  1  0
 10 11  1  0
 11 12  1  0
 12 13  1  0
 13 14  1  1
 13 16  1  0
 13 22  1  0
 14 15  3  0
 16 17  1  0
 17 18  2  0
 17 21  1  0
 18 19  1  0
 19 20  1  0
 20 21  2  0
M  CHG  1  19   1
M  END
