
     RDKit          3D

 23 25  0  0  0  0  0  0  0  0999 V2000
    0.3290   -3.8330    1.6290 C   0  0  0  0  0  0  0  0  0  0  0  0
    0.4060   -2.4260    1.1070 C   0  0  0  0  0  0  0  0  0  0  0  0
    1.4940   -1.6970    0.8500 N   0  0  0  0  0  0  0  0  0  0  0  0
    1.1250   -0.4610    0.3840 C   0  0  0  0  0  0  0  0  0  0  0  0
    2.0940    0.4810   -0.0090 N   0  0  0  0  0  0  0  0  0  0  0  0
    3.5230    0.1900    0.1630 C   0  0  2  0  0  0  0  0  0  0  0  0
    4.3680    1.3410   -0.3250 C   0  0  0  0  0  0  0  0  0  0  0  0
    5.6800    0.6450   -0.6360 C   0  0  0  0  0  0  0  0  0  0  0  0
    5.3820   -0.7230   -0.9240 N   0  0  0  0  0  0  0  0  0  0  0  0
    3.9640   -0.9220   -0.7680 C   0  0  0  0  0  0  0  0  0  0  0  0
   -0.2060   -0.4030    0.3490 N   0  0  0  0  0  0  0  0  0  0  0  0
   -1.1110    0.5560   -0.0360 C   0  0  0  0  0  0  0  0  0  0  0  0
   -0.5610    1.9050   -0.3200 C   0  0  0  0  0  0  0  0  0  0  0  0
   -2.4750    0.3580   -0.0140 C   0  0  0  0  0  0  0  0  0  0  0  0
   -3.4260    1.3690   -0.4740 C   0  0  0  0  0  0  0  0  0  0  0  0
   -2.9420    2.4730   -0.9820 O   0  0  0  0  0  0  0  0  0  0  0  0
   -4.8050    1.3450   -0.4560 N   0  0  0  0  0  0  0  0  0  0  0  0
   -5.4760    2.5540   -1.0260 C   0  0  0  0  0  0  0  0  0  0  0  0
   -5.7110    0.3610    0.0300 C   0  0  0  0  0  0  0  0  0  0  0  0
   -2.8870   -0.8460    0.4240 N   0  0  0  0  0  0  0  0  0  0  0  0
   -2.0030   -1.8000    0.8150 C   0  0  0  0  0  0  0  0  0  0  0  0
   -2.4260   -2.9200    1.2240 O   0  0  0  0  0  0  0  0  0  0  0  0
   -0.6530   -1.5960    0.7840 C   0  0  0  0  0  0  0  0  0  0  0  0
  1  2  1  0
  2  3  1  0
  2 23  2  0
  3  4  2  0
  4  5  1  0
  4 11  1  0
  6  5  1  6
  6  7  1  0
  6 10  1  0
  7  8  1  0
  8  9  1  0
  9 10  1  0
 11 12  1  0
 11 23  1  0
 12 13  1  0
 12 14  2  0
 14 15  1  0
 14 20  1  0
 15 16  2  0
 15 17  1  0
 17 18  1  0
 17 19  1  0
 20 21  1  0
 21 22  2  0
 21 23  1  0
M  CHG  1   9   1
M  END
