
     RDKit          3D

 22 24  0  0  0  0  0  0  0  0999 V2000
    4.5140   -1.0970   -1.3200 C   0  0  0  0  0  0  0  0  0  0  0  0
    3.9930   -0.0330   -0.5700 O   0  0  0  0  0  0  0  0  0  0  0  0
    3.1240   -0.5310    0.4000 C   0  0  1  0  0  0  0  0  0  0  0  0
    3.6420   -0.1340    1.7370 C   0  0  0  0  0  0  0  0  0  0  0  0
    1.7530    0.0010    0.0920 C   0  0  0  0  0  0  0  0  0  0  0  0
    0.7090   -0.4650    1.0720 C   0  0  0  0  0  0  0  0  0  0  0  0
   -0.5610    0.1380    0.6340 N   0  0  0  0  0  0  0  0  0  0  0  0
   -1.0290    1.3160    1.0250 C   0  0  0  0  0  0  0  0  0  0  0  0
   -0.5110    2.2540    1.8860 C   0  0  0  0  0  0  0  0  0  0  0  0
   -1.2070    3.4000    2.1170 C   0  0  0  0  0  0  0  0  0  0  0  0
   -2.4250    3.5910    1.4730 C   0  0  0  0  0  0  0  0  0  0  0  0
   -2.9480    2.6540    0.6090 C   0  0  0  0  0  0  0  0  0  0  0  0
   -4.4750    2.9860   -0.1450 Cl  0  0  0  0  0  0  0  0  0  0  0  0
   -2.2490    1.5070    0.3800 C   0  0  0  0  0  0  0  0  0  0  0  0
   -2.5100    0.4140   -0.4130 C   0  0  0  0  0  0  0  0  0  0  0  0
   -3.5110    0.0270   -1.2550 C   0  0  0  0  0  0  0  0  0  0  0  0
   -4.5080    0.7370   -1.4620 O   0  0  0  0  0  0  0  0  0  0  0  0
   -3.4000   -1.1740   -1.8790 N   0  0  0  0  0  0  0  0  0  0  0  0
   -2.3390   -1.9740   -1.6850 C   0  0  0  0  0  0  0  0  0  0  0  0
   -2.2650   -3.2840   -2.3950 C   0  0  0  0  0  0  0  0  0  0  0  0
   -1.3340   -1.6290   -0.8640 N   0  0  0  0  0  0  0  0  0  0  0  0
   -1.4150   -0.4390   -0.2270 C   0  0  0  0  0  0  0  0  0  0  0  0
  1  2  1  0
  2  3  1  0
  3  4  1  1
  3  5  1  0
  5  6  1  0
  6  7  1  0
  7  8  1  0
  7 22  1  0
  8  9  2  0
  8 14  1  0
  9 10  1  0
 10 11  2  0
 11 12  1  0
 12 13  1  0
 12 14  2  0
 14 15  1  0
 15 16  1  0
 15 22  2  0
 16 17  2  0
 16 18  1  0
 18 19  1  0
 19 20  1  0
 19 21  2  0
 21 22  1  0
M  END
