
     RDKit          3D

 22 23  0  0  0  0  0  0  0  0999 V2000
    5.0210   -1.5080    0.0230 C   0  0  0  0  0  0  0  0  0  0  0  0
    4.7710   -0.2470   -0.0230 C   0  0  0  0  0  0  0  0  0  0  0  0
    3.6390    0.6080    0.0400 C   0  0  0  0  0  0  0  0  0  0  0  0
    3.9340    1.9390   -0.0200 C   0  0  0  0  0  0  0  0  0  0  0  0
    5.2090    2.5680   -0.1320 C   0  0  0  0  0  0  0  0  0  0  0  0
    5.3590    3.5510   -1.6420 Cl  0  0  0  0  0  0  0  0  0  0  0  0
    2.2740    0.3350    0.1750 C   0  0  0  0  0  0  0  0  0  0  0  0
    1.4370   -0.6810    0.2450 C   0  0  0  0  0  0  0  0  0  0  0  0
    1.7270   -2.1170    0.1890 C   0  0  0  0  0  0  0  0  0  0  0  0
    0.5160   -2.8730   -0.2170 C   0  0  0  0  0  0  0  0  0  0  0  0
    0.6280   -4.0630   -0.6710 O   0  0  0  0  0  0  0  0  0  0  0  0
   -0.7690   -2.3310   -0.1210 N   0  0  0  0  0  0  0  0  0  0  0  0
   -0.9570   -0.8790    0.1850 C   0  0  0  0  0  0  0  0  0  0  0  0
   -2.1260   -0.3200    0.7670 N   0  0  0  0  0  0  0  0  0  0  0  0
   -3.0940   -0.0770   -0.2360 C   0  0  0  0  0  0  0  0  0  0  0  0
   -2.6540   -0.3250   -1.4400 O   0  0  0  0  0  0  0  0  0  0  0  0
   -4.4070    0.3980   -0.0050 C   0  0  0  0  0  0  0  0  0  0  0  0
   -5.3100    0.6340   -0.9320 C   0  0  0  0  0  0  0  0  0  0  0  0
   -6.5220    1.1090   -0.2710 C   0  0  0  0  0  0  0  0  0  0  0  0
   -6.2240    1.1300    1.1660 C   0  0  0  0  0  0  0  0  0  0  0  0
   -4.9900    0.7120    1.3040 C   0  0  0  0  0  0  0  0  0  0  0  0
    0.0960   -0.3420    0.3180 N   0  0  0  0  0  0  0  0  0  0  0  0
  1  2  2  0
  2  3  1  0
  3  4  2  3
  3  7  1  0
  4  5  1  0
  5  6  1  0
  7  8  2  3
  8  9  1  0
  8 22  1  0
  9 10  1  0
 10 11  2  0
 10 12  1  0
 12 13  1  0
 13 14  1  0
 13 22  2  0
 14 15  1  0
 15 16  2  0
 15 17  1  0
 17 18  2  0
 17 21  1  0
 18 19  1  0
 19 20  1  0
 20 21  2  0
M  END
