
     RDKit          3D

 22 23  0  0  0  0  0  0  0  0999 V2000
    7.2840   -0.8510   -0.5140 C   0  0  0  0  0  0  0  0  0  0  0  0
    6.0060   -0.0590   -0.4230 C   0  0  0  0  0  0  0  0  0  0  0  0
    5.7970    1.1160   -0.8850 N   0  0  0  0  0  0  0  0  0  0  0  0
    4.4670    1.5380   -0.6060 C   0  0  0  0  0  0  0  0  0  0  0  0
    3.9200    2.6320   -0.9110 O   0  0  0  0  0  0  0  0  0  0  0  0
    3.8500    0.4280    0.1190 C   0  0  0  0  0  0  0  0  0  0  0  0
    2.4630    0.3480    0.6470 C   0  0  0  0  0  0  0  0  0  0  0  0
    1.5210    0.4900   -0.5170 C   0  0  0  0  0  0  0  0  0  0  0  0
    0.1300    0.4150   -0.0330 C   0  0  0  0  0  0  0  0  0  0  0  0
   -0.0860    0.2550    1.1870 O   0  0  0  0  0  0  0  0  0  0  0  0
   -0.9710    0.5190   -0.9160 N   0  0  0  0  0  0  0  0  0  0  0  0
   -2.2900    0.4490   -0.4710 N   0  0  0  0  0  0  0  0  0  0  0  0
   -2.7770   -0.6350   -0.0300 C   0  0  0  0  0  0  0  0  0  0  0  0
   -2.0550   -1.8930    0.0680 C   0  0  0  0  0  0  0  0  0  0  0  0
   -2.8700   -2.8010    0.5690 C   0  0  0  0  0  0  0  0  0  0  0  0
   -4.1520   -2.1780    0.8200 C   0  0  0  0  0  0  0  0  0  0  0  0
   -4.1190   -0.8830    0.4690 C   0  0  0  0  0  0  0  0  0  0  0  0
   -5.2420    0.0310    0.5920 C   0  0  0  0  0  0  0  0  0  0  0  0
   -5.1350    1.2770    0.2300 C   0  0  0  0  0  0  0  0  0  0  0  0
   -6.3420    2.1710    0.3850 C   0  0  0  0  0  0  0  0  0  0  0  0
   -5.9580    3.5040    1.4610 Cl  0  0  0  0  0  0  0  0  0  0  0  0
    4.7780   -0.5090    0.2180 C   0  0  0  0  0  0  0  0  0  0  0  0
  1  2  1  0
  2  3  2  0
  2 22  1  0
  3  4  1  0
  4  5  2  0
  4  6  1  0
  6  7  1  0
  6 22  2  0
  7  8  1  0
  8  9  1  0
  9 10  2  0
  9 11  1  0
 11 12  1  0
 12 13  2  3
 13 14  1  0
 13 17  1  0
 14 15  2  0
 15 16  1  0
 16 17  2  0
 17 18  1  0
 18 19  2  3
 19 20  1  0
 20 21  1  0
M  END
