
     RDKit          3D

 22 24  0  0  0  0  0  0  0  0999 V2000
    0.8220   -0.6820    1.1160 O   0  0  0  0  0  0  0  0  0  0  0  0
    0.9100   -0.0870    0.0230 C   0  0  0  0  0  0  0  0  0  0  0  0
    2.1350    0.5270   -0.3460 N   0  0  0  0  0  0  0  0  0  0  0  0
    3.3230    0.5510    0.4020 C   0  0  0  0  0  0  0  0  0  0  0  0
    3.5540   -0.0130    1.6190 C   0  0  0  0  0  0  0  0  0  0  0  0
    4.7700    0.0620    2.2820 C   0  0  0  0  0  0  0  0  0  0  0  0
    5.8200    0.7380    1.7030 C   0  0  0  0  0  0  0  0  0  0  0  0
    5.6250    1.3210    0.4750 C   0  0  0  0  0  0  0  0  0  0  0  0
    4.4020    1.2270   -0.1570 C   0  0  0  0  0  0  0  0  0  0  0  0
    4.2440    2.0000   -1.7160 Cl  0  0  0  0  0  0  0  0  0  0  0  0
   -0.2660   -0.0230   -0.8880 C   0  0  1  0  0  0  0  0  0  0  0  0
    0.1500   -0.7010   -2.2030 C   0  0  0  0  0  0  0  0  0  0  0  0
    0.0830   -2.0760   -1.9900 O   0  0  0  0  0  0  0  0  0  0  0  0
   -1.2570   -2.4680   -2.0600 C   0  0  0  0  0  0  0  0  0  0  0  0
   -2.1240   -1.5110   -1.2850 C   0  0  0  0  0  0  0  0  0  0  0  0
   -1.4210   -0.6390   -0.4300 N   0  0  0  0  0  0  0  0  0  0  0  0
   -1.9490   -0.3740    0.8310 C   0  0  0  0  0  0  0  0  0  0  0  0
   -3.2100    0.4220    0.6700 C   0  0  0  0  0  0  0  0  0  0  0  0
   -4.4230    0.0780    1.0700 C   0  0  0  0  0  0  0  0  0  0  0  0
   -5.3570    1.1730    0.6990 C   0  0  0  0  0  0  0  0  0  0  0  0
   -4.5030    2.1410    0.0570 N   0  0  0  0  0  0  0  0  0  0  0  0
   -3.2740    1.7350    0.0280 C   0  0  0  0  0  0  0  0  0  0  0  0
  1  2  2  0
  2  3  1  0
 11  2  1  1
  3  4  1  0
  4  5  2  0
  4  9  1  0
  5  6  1  0
  6  7  2  0
  7  8  1  0
  8  9  2  0
  9 10  1  0
 11 12  1  0
 11 16  1  0
 12 13  1  0
 13 14  1  0
 14 15  1  0
 15 16  1  0
 16 17  1  0
 17 18  1  0
 18 19  2  0
 18 22  1  0
 19 20  1  0
 20 21  1  0
 21 22  2  0
M  END
