
     RDKit          3D

 22 24  0  0  0  0  0  0  0  0999 V2000
    2.5650    5.4770    1.5760 O   0  0  0  0  0  0  0  0  0  0  0  0
    1.7100    4.5690    1.2950 C   0  0  0  0  0  0  0  0  0  0  0  0
    1.9960    3.2020    0.9100 C   0  0  0  0  0  0  0  0  0  0  0  0
    0.8860    2.5280    0.6900 C   0  0  0  0  0  0  0  0  0  0  0  0
    0.7840    1.1180    0.2820 C   0  0  0  0  0  0  0  0  0  0  0  0
    1.8330    0.4780    0.1250 N   0  0  0  0  0  0  0  0  0  0  0  0
    2.1970   -0.7950   -0.2310 C   0  0  0  0  0  0  0  0  0  0  0  0
    2.5300   -1.6990    0.7880 C   0  0  0  0  0  0  0  0  0  0  0  0
    2.9140   -2.9820    0.5630 C   0  0  0  0  0  0  0  0  0  0  0  0
    2.9910   -3.4450   -0.7200 C   0  0  0  0  0  0  0  0  0  0  0  0
    2.6680   -2.5720   -1.7340 C   0  0  0  0  0  0  0  0  0  0  0  0
    2.7720   -3.1850   -3.3830 Cl  0  0  0  0  0  0  0  0  0  0  0  0
    2.2890   -1.3040   -1.4880 N   0  0  0  0  0  0  0  0  0  0  0  0
   -0.4570    0.5800    0.0970 O   0  0  0  0  0  0  0  0  0  0  0  0
   -0.6780   -0.6030   -0.5900 C   0  0  0  0  0  0  0  0  0  0  0  0
   -2.1520   -0.9430   -0.6430 C   0  0  0  0  0  0  0  0  0  0  0  0
   -2.9130   -1.0950   -1.7030 C   0  0  0  0  0  0  0  0  0  0  0  0
   -4.3080   -1.4260   -1.3150 C   0  0  0  0  0  0  0  0  0  0  0  0
   -4.2260   -1.4400    0.1640 C   0  0  0  0  0  0  0  0  0  0  0  0
   -2.9990   -1.1650    0.5180 C   0  0  0  0  0  0  0  0  0  0  0  0
   -0.2630    3.4220    0.9200 C   0  0  0  0  0  0  0  0  0  0  0  0
    0.2960    4.6940    1.2970 N   0  0  0  0  0  0  0  0  0  0  0  0
  1  2  2  0
  2  3  1  0
  2 22  1  0
  3  4  2  0
  4  5  1  0
  4 21  1  0
  5  6  2  3
  5 14  1  0
  6  7  1  0
  7  8  2  0
  7 13  1  0
  8  9  1  0
  9 10  2  0
 10 11  1  0
 11 12  1  0
 11 13  2  0
 14 15  1  0
 15 16  1  0
 16 17  2  0
 16 20  1  0
 17 18  1  0
 18 19  1  0
 19 20  2  0
 21 22  1  0
M  END
