
     RDKit          3D

 22 24  0  0  0  0  0  0  0  0999 V2000
   -1.7400    1.6440    0.6460 C   0  0  0  0  0  0  0  0  0  0  0  0
   -2.4150    0.4260    1.1690 C   0  0  0  0  0  0  0  0  0  0  0  0
   -2.9180    0.2570    2.4190 N   0  0  0  0  0  0  0  0  0  0  0  0
   -3.4590   -0.9300    2.5600 N   0  0  0  0  0  0  0  0  0  0  0  0
   -3.3130   -1.5610    1.3860 C   0  0  0  0  0  0  0  0  0  0  0  0
   -2.6520   -0.7330    0.4690 C   0  0  0  0  0  0  0  0  0  0  0  0
   -2.3040   -1.0700   -0.9060 C   0  0  0  0  0  0  0  0  0  0  0  0
   -3.1550   -0.7380   -1.8040 O   0  0  0  0  0  0  0  0  0  0  0  0
   -1.1360   -1.7190   -1.3270 N   0  0  0  0  0  0  0  0  0  0  0  0
   -0.8900   -2.0110   -2.6940 C   0  0  0  0  0  0  0  0  0  0  0  0
   -1.7670   -1.6640   -3.5230 O   0  0  0  0  0  0  0  0  0  0  0  0
   -0.1250   -2.1200   -0.3740 C   0  0  0  0  0  0  0  0  0  0  0  0
    0.8890   -1.0520   -0.1910 C   0  0  0  0  0  0  0  0  0  0  0  0
    0.8280    0.1280   -0.8930 C   0  0  0  0  0  0  0  0  0  0  0  0
    1.7700    1.1440   -0.7540 C   0  0  0  0  0  0  0  0  0  0  0  0
    2.8010    0.9460    0.1260 C   0  0  0  0  0  0  0  0  0  0  0  0
    2.9080   -0.2460    0.8690 C   0  0  0  0  0  0  0  0  0  0  0  0
    1.9430   -1.2000    0.6790 C   0  0  0  0  0  0  0  0  0  0  0  0
    2.0590   -2.6820    1.5900 Cl  0  0  0  0  0  0  0  0  0  0  0  0
    3.6500    2.1540    0.0880 C   0  0  0  0  0  0  0  0  0  0  0  0
    3.0080    3.0440   -0.8870 C   0  0  0  0  0  0  0  0  0  0  0  0
    1.9340    2.4560   -1.3620 C   0  0  0  0  0  0  0  0  0  0  0  0
  1  2  1  0
  2  3  2  0
  2  6  1  0
  3  4  1  0
  4  5  1  0
  5  6  2  0
  6  7  1  0
  7  8  2  0
  7  9  1  0
  9 10  1  0
  9 12  1  0
 10 11  2  0
 12 13  1  0
 13 14  2  0
 13 18  1  0
 14 15  1  0
 15 16  2  0
 15 22  1  0
 16 17  1  0
 16 20  1  0
 17 18  2  0
 18 19  1  0
 20 21  1  0
 21 22  2  0
M  END
