
     RDKit          3D

 22 24  0  0  0  0  0  0  0  0999 V2000
   -1.8080    0.7640   -1.7590 C   0  0  0  0  0  0  0  0  0  0  0  0
   -2.4300   -0.1030   -0.7780 N   0  0  0  0  0  0  0  0  0  0  0  0
   -1.7210   -1.2290   -0.2360 C   0  0  0  0  0  0  0  0  0  0  0  0
   -0.5490   -0.7860    0.6510 C   0  0  0  0  0  0  0  0  0  0  0  0
    0.1450   -2.0040    1.1820 C   0  0  0  0  0  0  0  0  0  0  0  0
    1.3040   -1.6260    2.0600 C   0  0  0  0  0  0  0  0  0  0  0  0
    2.3030   -0.8160    1.2800 C   0  0  0  0  0  0  0  0  0  0  0  0
    2.3170    0.5630    1.1530 C   0  0  0  0  0  0  0  0  0  0  0  0
    3.3990    0.9250    0.3530 C   0  0  0  0  0  0  0  0  0  0  0  0
    3.8810    2.1000   -0.0900 N   0  0  0  0  0  0  0  0  0  0  0  0
    4.9650    2.2110   -0.8700 C   0  0  0  0  0  0  0  0  0  0  0  0
    5.4190    3.3140   -1.2870 O   0  0  0  0  0  0  0  0  0  0  0  0
    5.5950    1.0110   -1.2160 C   0  0  0  0  0  0  0  0  0  0  0  0
    5.1240   -0.2070   -0.7770 C   0  0  0  0  0  0  0  0  0  0  0  0
    5.9380   -1.6940   -1.2290 Cl  0  0  0  0  0  0  0  0  0  0  0  0
    3.9970   -0.2770    0.0300 C   0  0  0  0  0  0  0  0  0  0  0  0
    3.3250   -1.2470    0.5900 O   0  0  0  0  0  0  0  0  0  0  0  0
   -3.7730    0.2280   -0.3890 C   0  0  0  0  0  0  0  0  0  0  0  0
   -4.8590   -0.4390   -0.6710 C   0  0  0  0  0  0  0  0  0  0  0  0
   -6.0090    0.2580   -0.0740 C   0  0  0  0  0  0  0  0  0  0  0  0
   -5.4040    1.3980    0.5740 N   0  0  0  0  0  0  0  0  0  0  0  0
   -4.1330    1.3860    0.3980 C   0  0  0  0  0  0  0  0  0  0  0  0
  1  2  1  0
  2  3  1  0
  2 18  1  0
  3  4  1  0
  4  5  1  0
  5  6  1  0
  6  7  1  0
  7  8  2  0
  7 17  1  0
  8  9  1  0
  9 10  1  0
  9 16  2  0
 10 11  1  0
 11 12  2  0
 11 13  1  0
 13 14  2  0
 14 15  1  0
 14 16  1  0
 16 17  1  0
 18 19  2  0
 18 22  1  0
 19 20  1  0
 20 21  1  0
 21 22  2  0
M  END
