
     RDKit          3D

 22 24  0  0  0  0  0  0  0  0999 V2000
   -5.1160    1.8900   -1.5440 O   0  0  0  0  0  0  0  0  0  0  0  0
   -5.7070    1.0130   -0.8840 C   0  0  0  0  0  0  0  0  0  0  0  0
   -4.9690    0.1180   -0.1000 N   0  0  0  0  0  0  0  0  0  0  0  0
   -3.5770    0.0540    0.0730 C   0  0  0  0  0  0  0  0  0  0  0  0
   -3.0190   -1.0580    0.7280 C   0  0  0  0  0  0  0  0  0  0  0  0
   -1.6620   -1.1300    0.9160 C   0  0  0  0  0  0  0  0  0  0  0  0
   -0.8490   -0.1190    0.4650 C   0  0  0  0  0  0  0  0  0  0  0  0
    0.5500   -0.2250    0.6750 N   0  0  0  0  0  0  0  0  0  0  0  0
    1.3810   -0.0920   -0.2900 C   0  0  0  0  0  0  0  0  0  0  0  0
    2.7830   -0.1940   -0.1000 N   0  0  0  0  0  0  0  0  0  0  0  0
    3.5600    1.0230   -0.2330 C   0  0  0  0  0  0  0  0  0  0  0  0
    4.6850    1.0730    0.7740 C   0  0  0  0  0  0  0  0  0  0  0  0
    5.8770    0.3880    0.1510 C   0  0  0  0  0  0  0  0  0  0  0  0
    5.7180   -1.1030    0.3520 C   0  0  0  0  0  0  0  0  0  0  0  0
    4.6000   -1.6910   -0.4500 C   0  0  0  0  0  0  0  0  0  0  0  0
    3.2460   -1.5310    0.2070 C   0  0  0  0  0  0  0  0  0  0  0  0
   -1.3530    0.9750   -0.1740 C   0  0  0  0  0  0  0  0  0  0  0  0
   -0.2840    2.2400   -0.7320 Cl  0  0  0  0  0  0  0  0  0  0  0  0
   -2.7370    1.0470   -0.3650 C   0  0  0  0  0  0  0  0  0  0  0  0
   -7.2220    0.9360   -0.9480 C   0  0  2  0  0  0  0  0  0  0  0  0
   -7.9230    0.5230    0.2420 C   0  0  0  0  0  0  0  0  0  0  0  0
   -7.7770   -0.3280   -0.9360 O   0  0  0  0  0  0  0  0  0  0  0  0
  1  2  2  0
  2  3  1  0
 20  2  1  1
  3  4  1  0
  4  5  2  0
  4 19  1  0
  5  6  1  0
  6  7  2  0
  7  8  1  0
  7 17  1  0
  8  9  2  3
  9 10  1  0
 10 11  1  0
 10 16  1  0
 11 12  1  0
 12 13  1  0
 13 14  1  0
 14 15  1  0
 15 16  1  0
 17 18  1  0
 17 19  2  0
 20 21  1  0
 20 22  1  0
 21 22  1  0
M  END
