
     RDKit          3D

 19 20  0  0  0  0  0  0  0  0999 V2000
   -4.7480    1.2010   -0.5560 C   0  0  0  0  0  0  0  0  0  0  0  0
   -3.2510    1.2490   -0.4510 C   0  0  0  0  0  0  0  0  0  0  0  0
   -2.7870    0.1760    0.5070 C   0  0  2  0  0  0  0  0  0  0  0  0
   -3.2440   -1.1600   -0.0550 C   0  0  0  0  0  0  0  0  0  0  0  0
   -3.3700    0.3110    1.8780 C   0  0  0  0  0  0  0  0  0  0  0  0
   -1.2900    0.1170    0.5640 C   0  0  0  0  0  0  0  0  0  0  0  0
   -0.7510    0.3180    1.6540 O   0  0  0  0  0  0  0  0  0  0  0  0
   -0.5120   -0.1560   -0.5730 N   0  0  0  0  0  0  0  0  0  0  0  0
    0.8780   -0.2370   -0.6470 C   0  0  0  0  0  0  0  0  0  0  0  0
    1.4720   -0.5150   -1.8490 N   0  0  0  0  0  0  0  0  0  0  0  0
    2.7710   -0.6180   -2.0490 C   0  0  0  0  0  0  0  0  0  0  0  0
    3.1880   -0.8780   -3.2070 O   0  0  0  0  0  0  0  0  0  0  0  0
    3.6610   -0.4350   -0.9700 C   0  0  0  0  0  0  0  0  0  0  0  0
    4.9720   -0.4890   -0.9330 N   0  0  0  0  0  0  0  0  0  0  0  0
    5.6900   -0.3290    0.0020 C   0  0  0  0  0  0  0  0  0  0  0  0
    7.1310   -0.3130    0.4050 C   0  0  0  0  0  0  0  0  0  0  0  0
    4.3790    0.0110    1.3370 S   0  0  0  0  0  0  0  0  0  0  0  0
    3.0500   -0.1590    0.2190 C   0  0  0  0  0  0  0  0  0  0  0  0
    1.6960   -0.0650    0.3650 N   0  0  0  0  0  0  0  0  0  0  0  0
  1  2  1  0
  2  3  1  0
  3  4  1  6
  3  5  1  0
  3  6  1  0
  6  7  2  0
  6  8  1  0
  8  9  1  0
  9 10  2  0
  9 19  1  0
 10 11  1  0
 11 12  2  0
 11 13  1  0
 13 14  1  0
 13 18  2  0
 14 15  2  0
 15 16  1  0
 15 17  1  0
 17 18  1  0
 18 19  1  0
M  END
