
     RDKit          3D

 19 19  0  0  0  0  0  0  0  0999 V2000
   -2.1230    1.8880    1.4510 C   0  0  0  0  0  0  0  0  0  0  0  0
   -2.9380    1.4160    0.5200 C   0  0  0  0  0  0  0  0  0  0  0  0
   -2.4470    0.4220   -0.3950 C   0  0  0  0  0  0  0  0  0  0  0  0
   -3.2500   -0.0580   -1.3290 C   0  0  0  0  0  0  0  0  0  0  0  0
   -2.7400   -1.0860   -2.2750 C   0  0  0  0  0  0  0  0  0  0  0  0
   -1.1130   -0.0310   -0.2880 N   0  0  0  0  0  0  0  0  0  0  0  0
   -0.8110   -1.1720    0.5360 C   0  0  0  0  0  0  0  0  0  0  0  0
    0.2420   -1.9650   -0.2010 C   0  0  0  0  0  0  0  0  0  0  0  0
    1.4510   -1.1700   -0.2440 N   0  0  0  0  0  0  0  0  0  0  0  0
    2.3610   -1.6390    0.7600 C   0  0  0  0  0  0  0  0  0  0  0  0
    3.6220   -0.8840    0.6900 C   0  0  0  0  0  0  0  0  0  0  0  0
    4.7170   -1.4850    0.2700 N   0  0  0  0  0  0  0  0  0  0  0  0
    3.7950    0.4780    1.0370 N   0  0  0  0  0  0  0  0  0  0  0  0
    4.7530    1.3650    0.3770 C   0  0  0  0  0  0  0  0  0  0  0  0
    1.2350    0.2370   -0.1950 C   0  0  0  0  0  0  0  0  0  0  0  0
   -0.0180    0.6100   -0.9810 C   0  0  0  0  0  0  0  0  0  0  0  0
   -4.5840    1.9680    0.3770 S   0  0  1  0  0  0  0  0  0  0  0  0
   -5.5330    0.8170    0.5110 O   0  0  0  0  0  0  0  0  0  0  0  0
   -4.8370    2.9860    1.4470 O   0  0  0  0  0  0  0  0  0  0  0  0
  1  2  2  0
  2  3  1  0
 17  2  1  1
  3  4  2  3
  3  6  1  0
  4  5  1  0
  6  7  1  0
  6 16  1  0
  7  8  1  0
  8  9  1  0
  9 10  1  0
  9 15  1  0
 10 11  1  0
 11 12  2  0
 11 13  1  0
 13 14  1  0
 15 16  1  0
 17 18  2  0
 17 19  2  0
M  END
