
     RDKit          3D

 19 20  0  0  0  0  0  0  0  0999 V2000
    3.6660   -1.9510    1.5610 O   0  0  0  0  0  0  0  0  0  0  0  0
    4.2410   -1.0370    0.8860 C   0  0  0  0  0  0  0  0  0  0  0  0
    5.5570   -1.0820    0.5980 N   0  0  0  0  0  0  0  0  0  0  0  0
    6.1550   -0.1230   -0.1090 C   0  0  0  0  0  0  0  0  0  0  0  0
    7.7490   -0.1540   -0.4730 S   0  0  0  0  0  0  0  0  0  0  0  0
    5.4350    0.9210   -0.5490 N   0  0  0  0  0  0  0  0  0  0  0  0
    4.1270    0.9690   -0.2640 C   0  0  0  0  0  0  0  0  0  0  0  0
    3.4790    1.9780   -0.7010 O   0  0  0  0  0  0  0  0  0  0  0  0
    3.4970   -0.0020    0.4570 N   0  0  0  0  0  0  0  0  0  0  0  0
    2.0990    0.1640    0.6950 C   0  0  0  0  0  0  0  0  0  0  0  0
    1.2310   -0.4540   -0.3840 C   0  0  0  0  0  0  0  0  0  0  0  0
   -0.2160   -0.1640    0.0450 C   0  0  0  0  0  0  0  0  0  0  0  0
   -1.1310   -0.7010   -0.9080 N   0  0  0  0  0  0  0  0  0  0  0  0
   -2.4830   -0.4160   -0.5700 C   0  0  1  0  0  0  0  0  0  0  0  0
   -2.8730   -1.0430    0.7240 C   0  0  0  0  0  0  0  0  0  0  0  0
   -4.3010   -0.7290    1.1210 C   0  0  0  0  0  0  0  0  0  0  0  0
   -4.5390    0.7710    1.0310 C   0  0  0  0  0  0  0  0  0  0  0  0
   -4.3350    1.1500   -0.4400 C   0  0  0  0  0  0  0  0  0  0  0  0
   -2.8210    1.0580   -0.6470 C   0  0  0  0  0  0  0  0  0  0  0  0
  1  2  2  0
  2  3  1  0
  2  9  1  0
  3  4  1  0
  4  5  2  0
  4  6  1  0
  6  7  1  0
  7  8  2  0
  7  9  1  0
  9 10  1  0
 10 11  1  0
 11 12  1  0
 12 13  1  0
 14 13  1  1
 14 15  1  0
 14 19  1  0
 15 16  1  0
 16 17  1  0
 17 18  1  0
 18 19  1  0
M  END
