
     RDKit          3D

 19 20  0  0  0  0  0  0  0  0999 V2000
   -6.2610    1.8500    0.7780 C   0  0  0  0  0  0  0  0  0  0  0  0
   -5.0020    1.5100    0.5580 C   0  0  0  0  0  0  0  0  0  0  0  0
   -4.4960    0.3210    0.1920 N   0  0  0  0  0  0  0  0  0  0  0  0
   -3.1590    0.3950    0.0730 C   0  0  0  0  0  0  0  0  0  0  0  0
   -2.2920   -0.6700   -0.2970 N   0  0  0  0  0  0  0  0  0  0  0  0
   -0.8670   -0.3950   -0.3720 C   0  0  0  0  0  0  0  0  0  0  0  0
   -0.4840    0.7430   -0.1120 O   0  0  0  0  0  0  0  0  0  0  0  0
    0.0490   -1.3940   -0.7310 N   0  0  0  0  0  0  0  0  0  0  0  0
    1.4490   -1.3030   -0.8550 C   0  0  0  0  0  0  0  0  0  0  0  0
    2.2240   -2.4390   -1.0620 C   0  0  0  0  0  0  0  0  0  0  0  0
    3.5820   -2.3180   -1.1890 C   0  0  0  0  0  0  0  0  0  0  0  0
    4.2060   -1.1080   -1.1190 C   0  0  0  0  0  0  0  0  0  0  0  0
    5.9930   -0.9190   -1.2830 S   0  0  0  0  0  0  0  0  0  0  0  0
    6.6980   -1.0520    0.3700 C   0  0  0  0  0  0  0  0  0  0  0  0
    3.4270   -0.0390   -0.9200 N   0  0  0  0  0  0  0  0  0  0  0  0
    2.0770   -0.1000   -0.7870 C   0  0  0  0  0  0  0  0  0  0  0  0
   -2.8320    1.6190    0.3620 O   0  0  0  0  0  0  0  0  0  0  0  0
   -3.9090    2.3430    0.6650 C   0  0  0  0  0  0  0  0  0  0  0  0
   -3.9290    3.6210    1.0040 C   0  0  0  0  0  0  0  0  0  0  0  0
  1  2  2  0
  2  3  1  0
  2 18  1  0
  3  4  2  0
  4  5  1  0
  4 17  1  0
  5  6  1  0
  6  7  2  0
  6  8  1  0
  8  9  1  0
  9 10  2  0
  9 16  1  0
 10 11  1  0
 11 12  2  0
 12 13  1  0
 12 15  1  0
 13 14  1  0
 15 16  2  0
 17 18  1  0
 18 19  2  0
M  END
