
     RDKit          3D

 13 13  0  0  0  0  0  0  0  0999 V2000
    3.5170   -1.0090   -0.1240 N   0  0  0  0  0  0  0  0  0  0  0  0
    2.1540   -0.6400   -0.3240 C   0  0  0  0  0  0  0  0  0  0  0  0
    1.3200   -1.5240   -0.4110 O   0  0  0  0  0  0  0  0  0  0  0  0
    1.8460    0.8060   -0.4120 C   0  0  0  0  0  0  0  0  0  0  0  0
    0.4290    1.0460   -0.6150 N   0  0  0  0  0  0  0  0  0  0  0  0
   -0.5090    0.5870    0.3490 C   0  0  0  0  0  0  0  0  0  0  0  0
   -0.0510   -0.0170    1.3530 O   0  0  0  0  0  0  0  0  0  0  0  0
   -1.9540    0.7740    0.2430 C   0  0  2  0  0  0  0  0  0  0  0  0
   -2.6200    0.2340    1.3110 O   0  0  0  0  0  0  0  0  0  0  0  0
   -3.4990   -0.6800    0.8400 N   0  0  0  0  0  0  0  0  0  0  0  0
   -3.6690   -0.4150   -0.5480 C   0  0  0  0  0  0  0  0  0  0  0  0
   -4.6840   -0.7190   -1.2330 O   0  0  0  0  0  0  0  0  0  0  0  0
   -2.5030    0.2280   -0.9450 O   0  0  0  0  0  0  0  0  0  0  0  0
  1  2  1  0
  2  3  2  0
  2  4  1  0
  4  5  1  0
  5  6  1  0
  6  7  2  0
  8  6  1  1
  8  9  1  0
  8 13  1  0
  9 10  1  0
 10 11  1  0
 11 12  2  0
 11 13  1  0
M  CHG  1   1   1
M  END
