
     RDKit          3D

 19 20  0  0  0  0  0  0  0  0999 V2000
   -0.7860   -0.4850   -2.3850 N   0  0  0  0  0  0  0  0  0  0  0  0
   -0.5240    0.4320   -1.5210 C   0  0  0  0  0  0  0  0  0  0  0  0
   -1.6160    1.0140   -0.8370 N   0  0  0  0  0  0  0  0  0  0  0  0
   -2.1740    0.4130    0.1280 C   0  0  0  0  0  0  0  0  0  0  0  0
   -3.3300    0.9980    0.8730 C   0  0  0  0  0  0  0  0  0  0  0  0
   -4.4290    0.0020    1.0770 C   0  0  0  0  0  0  0  0  0  0  0  0
   -4.0010   -1.3750    1.4060 C   0  0  0  0  0  0  0  0  0  0  0  0
   -2.5900   -1.6900    1.1590 C   0  0  0  0  0  0  0  0  0  0  0  0
   -1.7170   -0.8970    0.5750 C   0  0  0  0  0  0  0  0  0  0  0  0
   -0.3750   -1.2790    0.3740 O   0  0  0  0  0  0  0  0  0  0  0  0
    0.8200    0.8940   -1.2200 C   0  0  0  0  0  0  0  0  0  0  0  0
    1.1550    1.8690   -0.3070 C   0  0  0  0  0  0  0  0  0  0  0  0
    2.4940    1.9840   -0.3470 N   0  0  0  0  0  0  0  0  0  0  0  0
    2.9870    1.1320   -1.2350 C   0  0  0  0  0  0  0  0  0  0  0  0
    4.6990    0.8380   -1.7170 S   0  0  0  0  0  0  0  0  0  0  0  0
    5.3490   -0.4420   -0.6270 C   0  0  0  0  0  0  0  0  0  0  0  0
    5.4110    0.1160    0.7730 C   0  0  0  0  0  0  0  0  0  0  0  0
    5.0640    1.2480    1.0280 O   0  0  0  0  0  0  0  0  0  0  0  0
    1.9630    0.4560   -1.7780 N   0  0  0  0  0  0  0  0  0  0  0  0
  1  2  2  0
  2  3  1  0
  2 11  1  0
  3  4  2  3
  4  5  1  0
  4  9  1  0
  5  6  1  0
  6  7  1  0
  7  8  1  0
  8  9  2  0
  9 10  1  0
 11 12  2  0
 11 19  1  0
 12 13  1  0
 13 14  2  0
 14 15  1  0
 14 19  1  0
 15 16  1  0
 16 17  1  0
 17 18  2  0
M  END
