
     RDKit          3D

 19 20  0  0  0  0  0  0  0  0999 V2000
   -4.2650   -0.5210    2.7330 C   0  0  0  0  0  0  0  0  0  0  0  0
   -3.2210   -0.3830    1.6880 C   0  0  0  0  0  0  0  0  0  0  0  0
   -3.5320    0.0740    0.5010 C   0  0  0  0  0  0  0  0  0  0  0  0
   -5.1910    0.5810   -0.0260 S   0  0  0  0  0  0  0  0  0  0  0  0
   -4.8640    0.2660   -1.7860 C   0  0  0  0  0  0  0  0  0  0  0  0
   -3.3710    0.4120   -1.8110 C   0  0  0  0  0  0  0  0  0  0  0  0
   -2.7550    0.3170   -0.7030 C   0  0  0  0  0  0  0  0  0  0  0  0
   -1.2990    0.4930   -0.9760 C   0  0  0  0  0  0  0  0  0  0  0  0
   -0.3550    0.4600   -0.0930 N   0  0  0  0  0  0  0  0  0  0  0  0
    0.9560    0.6450   -0.5270 N   0  0  0  0  0  0  0  0  0  0  0  0
    2.0160   -0.2200   -0.1390 C   0  0  0  0  0  0  0  0  0  0  0  0
    1.7600   -1.1740    0.6130 O   0  0  0  0  0  0  0  0  0  0  0  0
    3.3540   -0.0320   -0.5810 N   0  0  0  0  0  0  0  0  0  0  0  0
    4.4520   -0.8620   -0.2270 C   0  0  0  0  0  0  0  0  0  0  0  0
    4.7140   -0.9150    1.2610 C   0  0  0  0  0  0  0  0  0  0  0  0
    5.0150    0.4830    1.7500 C   0  0  0  0  0  0  0  0  0  0  0  0
   -1.1230    0.7090   -2.4080 C   0  0  0  0  0  0  0  0  0  0  0  0
   -0.0540    0.9010   -3.0560 O   0  0  0  0  0  0  0  0  0  0  0  0
   -2.4460    0.6540   -2.9130 N   0  0  0  0  0  0  0  0  0  0  0  0
  1  2  1  0
  2  3  2  3
  3  4  1  0
  3  7  1  0
  4  5  1  0
  5  6  1  0
  6  7  2  0
  6 19  1  0
  7  8  1  0
  8  9  2  3
  8 17  1  0
  9 10  1  0
 10 11  1  0
 11 12  2  0
 11 13  1  0
 13 14  1  0
 14 15  1  0
 15 16  1  0
 17 18  2  0
 17 19  1  0
M  END
