
     RDKit          3D

 19 20  0  0  0  0  0  0  0  0999 V2000
    6.8330    0.8110    0.2820 N   0  0  0  0  0  0  0  0  0  0  0  0
    6.0840   -0.7170    0.4540 S   0  0  2  0  0  0  0  0  0  0  0  0
    6.3860   -1.2130    1.8540 O   0  0  0  0  0  0  0  0  0  0  0  0
    6.7470   -1.6790   -0.5010 O   0  0  0  0  0  0  0  0  0  0  0  0
    4.3570   -0.6550    0.1860 C   0  0  0  0  0  0  0  0  0  0  0  0
    3.5180   -0.4130    1.2600 C   0  0  0  0  0  0  0  0  0  0  0  0
    2.1460   -0.3620    1.0570 C   0  0  0  0  0  0  0  0  0  0  0  0
    1.5990   -0.5470   -0.1900 C   0  0  0  0  0  0  0  0  0  0  0  0
    0.2100   -0.5070   -0.4600 N   0  0  0  0  0  0  0  0  0  0  0  0
   -0.5550    0.4320   -0.1850 N   0  0  0  0  0  0  0  0  0  0  0  0
   -1.9220    0.4760   -0.4480 N   0  0  0  0  0  0  0  0  0  0  0  0
   -2.6040    1.5380    0.2740 C   0  0  0  0  0  0  0  0  0  0  0  0
   -3.4370    0.8530    1.3560 C   0  0  0  0  0  0  0  0  0  0  0  0
   -4.8400    0.7330    0.7900 C   0  0  0  0  0  0  0  0  0  0  0  0
   -4.8230    0.1990   -0.6260 C   0  0  0  0  0  0  0  0  0  0  0  0
   -3.8400   -0.9000   -0.8300 C   0  0  0  0  0  0  0  0  0  0  0  0
   -2.5100   -0.4630   -1.3470 C   0  0  0  0  0  0  0  0  0  0  0  0
    2.4500   -0.7860   -1.2400 C   0  0  0  0  0  0  0  0  0  0  0  0
    3.8300   -0.8420   -1.0670 C   0  0  0  0  0  0  0  0  0  0  0  0
  2  1  1  1
  2  3  2  0
  2  4  2  0
  2  5  1  0
  5  6  2  0
  5 19  1  0
  6  7  1  0
  7  8  2  0
  8  9  1  0
  8 18  1  0
  9 10  2  3
 10 11  1  0
 11 12  1  0
 11 17  1  0
 12 13  1  0
 13 14  1  0
 14 15  1  0
 15 16  1  0
 16 17  1  0
 18 19  2  0
M  END
