
     RDKit          3D

 19 20  0  0  0  0  0  0  0  0999 V2000
    6.3860    2.4610    1.0350 C   0  0  0  0  0  0  0  0  0  0  0  0
    5.5190    1.4990    0.9540 C   0  0  0  0  0  0  0  0  0  0  0  0
    3.7680    1.4800    1.2730 S   0  0  0  0  0  0  0  0  0  0  0  0
    3.4820   -0.2390    0.8950 C   0  0  0  0  0  0  0  0  0  0  0  0
    2.4420   -1.2360    0.8380 N   0  0  0  0  0  0  0  0  0  0  0  0
    1.1680   -0.8840    1.1600 C   0  0  0  0  0  0  0  0  0  0  0  0
    1.0530    0.2990    1.4760 O   0  0  0  0  0  0  0  0  0  0  0  0
    0.0800   -1.8230    1.1260 N   0  0  0  0  0  0  0  0  0  0  0  0
   -1.1350   -1.2540    1.4910 N   0  0  0  0  0  0  0  0  0  0  0  0
   -1.7480   -0.5070    0.6580 C   0  0  0  0  0  0  0  0  0  0  0  0
   -1.0880   -0.3160   -0.6470 C   0  0  0  0  0  0  0  0  0  0  0  0
   -2.1120   -0.3250   -1.7600 C   0  0  0  0  0  0  0  0  0  0  0  0
   -3.0940    0.7810   -1.5190 C   0  0  0  0  0  0  0  0  0  0  0  0
   -4.4010    0.2420   -0.9570 C   0  0  0  0  0  0  0  0  0  0  0  0
   -4.2060   -0.4740    0.3370 C   0  0  0  0  0  0  0  0  0  0  0  0
   -3.0280    0.0500    1.1400 C   0  0  0  0  0  0  0  0  0  0  0  0
    4.5790   -0.6540    0.5890 N   0  0  0  0  0  0  0  0  0  0  0  0
    5.6860    0.1030    0.5740 C   0  0  0  0  0  0  0  0  0  0  0  0
    6.7900   -0.3660    0.2530 O   0  0  0  0  0  0  0  0  0  0  0  0
  1  2  2  0
  2  3  1  0
  2 18  1  0
  3  4  1  0
  4  5  1  0
  4 17  2  0
  5  6  1  0
  6  7  2  0
  6  8  1  0
  8  9  1  0
  9 10  2  3
 10 11  1  0
 10 16  1  0
 11 12  1  0
 12 13  1  0
 13 14  1  0
 14 15  1  0
 15 16  1  0
 17 18  1  0
 18 19  2  0
M  END
