
     RDKit          3D

 22 23  0  0  0  0  0  0  0  0999 V2000
   -5.2300    1.9410    0.1760 C   0  0  0  0  0  0  0  0  0  0  0  0
   -4.6710    0.6120   -0.3020 C   0  0  0  0  0  0  0  0  0  0  0  0
   -4.5970   -0.3250    0.7790 N   0  0  0  0  0  0  0  0  0  0  0  0
   -5.9170   -0.7310    1.2450 C   0  0  0  0  0  0  0  0  0  0  0  0
   -3.7770   -1.4600    0.5820 C   0  0  0  0  0  0  0  0  0  0  0  0
   -2.3270   -1.2680    0.5800 C   0  0  0  0  0  0  0  0  0  0  0  0
   -1.5220   -2.2390    0.3550 O   0  0  0  0  0  0  0  0  0  0  0  0
   -1.7060   -0.0280    0.8230 N   0  0  0  0  0  0  0  0  0  0  0  0
   -0.2900    0.0900    0.8010 N   0  0  0  0  0  0  0  0  0  0  0  0
    0.3630    0.0460   -0.4330 C   0  0  0  0  0  0  0  0  0  0  0  0
   -0.3190   -0.0860   -1.5030 O   0  0  0  0  0  0  0  0  0  0  0  0
    1.8270    0.1470   -0.5460 C   0  0  0  0  0  0  0  0  0  0  0  0
    2.5210    0.0750   -1.7650 C   0  0  0  0  0  0  0  0  0  0  0  0
    3.8580    0.1950   -1.4890 C   0  0  0  0  0  0  0  0  0  0  0  0
    5.0050    0.1910   -2.2670 C   0  0  0  0  0  0  0  0  0  0  0  0
    6.2430    0.3280   -1.6900 C   0  0  0  0  0  0  0  0  0  0  0  0
    6.3300    0.4720   -0.3140 C   0  0  0  0  0  0  0  0  0  0  0  0
    7.5810    0.6090    0.2580 O   0  0  0  0  0  0  0  0  0  0  0  0
    8.3970    2.1020    0.4780 S   0  0  0  0  0  0  0  0  0  0  0  0
    5.2000    0.4780    0.4740 C   0  0  0  0  0  0  0  0  0  0  0  0
    3.9710    0.3370   -0.1280 C   0  0  0  0  0  0  0  0  0  0  0  0
    2.7470    0.3050    0.4010 N   0  0  0  0  0  0  0  0  0  0  0  0
  1  2  1  0
  2  3  1  0
  3  4  1  0
  3  5  1  0
  5  6  1  0
  6  7  2  0
  6  8  1  0
  8  9  1  0
  9 10  1  0
 10 11  2  0
 10 12  1  0
 12 13  2  0
 12 22  1  0
 13 14  1  0
 14 15  2  0
 14 21  1  0
 15 16  1  0
 16 17  2  0
 17 18  1  0
 17 20  1  0
 18 19  1  0
 20 21  2  0
 21 22  1  0
M  END
