
     RDKit          3D

 22 23  0  0  0  0  0  0  0  0999 V2000
   -3.8480   -2.6460    1.0670 C   0  0  0  0  0  0  0  0  0  0  0  0
   -4.5740   -1.3550    0.7670 C   0  0  0  0  0  0  0  0  0  0  0  0
   -3.8900   -0.1370    1.1900 C   0  0  0  0  0  0  0  0  0  0  0  0
   -4.3620    0.6510    2.1340 C   0  0  0  0  0  0  0  0  0  0  0  0
   -5.6000    0.4520    2.8930 C   0  0  0  0  0  0  0  0  0  0  0  0
   -6.4880    1.5440    2.6960 O   0  0  0  0  0  0  0  0  0  0  0  0
   -2.6970    0.3480    0.5640 N   0  0  0  0  0  0  0  0  0  0  0  0
   -1.4270   -0.2260    0.6270 C   0  0  0  0  0  0  0  0  0  0  0  0
   -1.2430   -1.2670    1.2910 O   0  0  0  0  0  0  0  0  0  0  0  0
   -0.2720    0.4040   -0.1020 C   0  0  0  0  0  0  0  0  0  0  0  0
   -0.4710    1.6050   -0.8700 C   0  0  0  0  0  0  0  0  0  0  0  0
    1.2170    1.8380   -1.4660 S   0  0  0  0  0  0  0  0  0  0  0  0
    1.9260    0.4070   -0.6740 C   0  0  0  0  0  0  0  0  0  0  0  0
    3.2920    0.0150   -0.7610 N   0  0  0  0  0  0  0  0  0  0  0  0
    4.2270    0.7650   -1.5160 C   0  0  0  0  0  0  0  0  0  0  0  0
    3.7630    1.8000   -2.1010 O   0  0  0  0  0  0  0  0  0  0  0  0
    5.6300    0.3910   -1.6240 C   0  0  0  0  0  0  0  0  0  0  0  0
    6.5990    0.9870   -2.2820 C   0  0  0  0  0  0  0  0  0  0  0  0
    7.8480    0.2250   -2.0860 C   0  0  0  0  0  0  0  0  0  0  0  0
    7.4670   -0.8840   -1.2300 N   0  0  0  0  0  0  0  0  0  0  0  0
    6.2070   -0.7780   -0.9750 C   0  0  0  0  0  0  0  0  0  0  0  0
    0.8960   -0.0630   -0.0860 N   0  0  0  0  0  0  0  0  0  0  0  0
  1  2  1  0
  2  3  1  0
  3  4  2  3
  3  7  1  0
  4  5  1  0
  5  6  1  0
  7  8  1  0
  8  9  2  0
  8 10  1  0
 10 11  2  0
 10 22  1  0
 11 12  1  0
 12 13  1  0
 13 14  1  0
 13 22  2  0
 14 15  1  0
 15 16  2  0
 15 17  1  0
 17 18  2  0
 17 21  1  0
 18 19  1  0
 19 20  1  0
 20 21  2  0
M  END
