
     RDKit          3D

 22 23  0  0  0  0  0  0  0  0999 V2000
   -6.7280    1.0700   -1.0560 C   0  0  0  0  0  0  0  0  0  0  0  0
   -5.5630    0.4180   -0.3880 C   0  0  0  0  0  0  0  0  0  0  0  0
   -5.5670   -0.3750    0.7540 C   0  0  0  0  0  0  0  0  0  0  0  0
   -4.2810   -0.7740    1.0290 C   0  0  0  0  0  0  0  0  0  0  0  0
   -3.7930   -1.6260    2.1410 C   0  0  0  0  0  0  0  0  0  0  0  0
   -3.5050   -0.2270    0.0620 N   0  0  0  0  0  0  0  0  0  0  0  0
   -2.0940   -0.4010   -0.0160 C   0  0  0  0  0  0  0  0  0  0  0  0
   -1.4810   -1.1000    0.8490 O   0  0  0  0  0  0  0  0  0  0  0  0
   -1.3780    0.2560   -1.1270 C   0  0  0  0  0  0  0  0  0  0  0  0
    0.0920    0.0110   -1.1160 C   0  0  0  0  0  0  0  0  0  0  0  0
    0.7520    0.4720    0.0660 N   0  0  0  0  0  0  0  0  0  0  0  0
    2.1540    0.2920    0.1860 C   0  0  0  0  0  0  0  0  0  0  0  0
    2.8530    0.7220    1.3180 C   0  0  0  0  0  0  0  0  0  0  0  0
    4.2330    0.5330    1.4120 C   0  0  0  0  0  0  0  0  0  0  0  0
    4.9290   -0.0780    0.3970 C   0  0  0  0  0  0  0  0  0  0  0  0
    6.6640   -0.3440    0.4570 S   0  0  2  0  0  0  0  0  0  0  0  0
    7.4910    1.0080   -0.2210 N   0  0  0  0  0  0  0  0  0  0  0  0
    7.0160   -1.5500   -0.3560 O   0  0  0  0  0  0  0  0  0  0  0  0
    7.1340   -0.5140    1.8570 O   0  0  0  0  0  0  0  0  0  0  0  0
    4.2580   -0.5030   -0.7140 C   0  0  0  0  0  0  0  0  0  0  0  0
    2.9150   -0.3110   -0.7910 C   0  0  0  0  0  0  0  0  0  0  0  0
   -4.2710    0.4670   -0.7580 N   0  0  0  0  0  0  0  0  0  0  0  0
  1  2  1  0
  2  3  1  0
  2 22  2  0
  3  4  2  0
  4  5  1  0
  4  6  1  0
  6  7  1  0
  6 22  1  0
  7  8  2  0
  7  9  1  0
  9 10  1  0
 10 11  1  0
 11 12  1  0
 12 13  2  0
 12 21  1  0
 13 14  1  0
 14 15  2  0
 15 16  1  0
 15 20  1  0
 16 17  1  6
 16 18  2  0
 16 19  2  0
 20 21  2  0
M  END
