
     RDKit          3D

 22 23  0  0  0  0  0  0  0  0999 V2000
   -1.9520   -3.0890   -0.5700 C   0  0  0  0  0  0  0  0  0  0  0  0
   -0.9740   -1.9580   -0.6810 C   0  0  0  0  0  0  0  0  0  0  0  0
    0.1190   -2.0740   -1.4930 N   0  0  0  0  0  0  0  0  0  0  0  0
    1.0200   -1.0900   -1.5960 C   0  0  0  0  0  0  0  0  0  0  0  0
    2.4760   -1.2160   -2.6690 S   0  0  0  0  0  0  0  0  0  0  0  0
    3.4630    0.2940   -2.5030 C   0  0  0  0  0  0  0  0  0  0  0  0
    4.0500    0.3480   -1.1220 C   0  0  0  0  0  0  0  0  0  0  0  0
    3.8090   -0.6090   -0.2600 C   0  0  0  0  0  0  0  0  0  0  0  0
    4.3390   -0.6530    1.1400 C   0  0  0  0  0  0  0  0  0  0  0  0
    5.1720    0.4670    1.4080 O   0  0  0  0  0  0  0  0  0  0  0  0
    5.4200    1.4690    0.5010 C   0  0  0  0  0  0  0  0  0  0  0  0
    4.9040    1.4520   -0.7190 C   0  0  0  0  0  0  0  0  0  0  0  0
    0.8220    0.0250   -0.8760 N   0  0  0  0  0  0  0  0  0  0  0  0
   -0.2360    0.1810   -0.0660 C   0  0  0  0  0  0  0  0  0  0  0  0
   -1.1970   -0.8310    0.0620 C   0  0  0  0  0  0  0  0  0  0  0  0
   -2.3460   -0.6110    0.9370 C   0  0  0  0  0  0  0  0  0  0  0  0
   -2.5750   -1.3350    1.9350 O   0  0  0  0  0  0  0  0  0  0  0  0
   -3.2460    0.4760    0.6530 N   0  0  0  0  0  0  0  0  0  0  0  0
   -4.3960    0.7970    1.4580 C   0  0  0  0  0  0  0  0  0  0  0  0
   -5.0770    1.9950    0.8660 C   0  0  0  0  0  0  0  0  0  0  0  0
   -6.2250    2.4730    1.5500 N   0  0  0  0  0  0  0  0  0  0  0  0
   -4.6600    2.5440   -0.1650 O   0  0  0  0  0  0  0  0  0  0  0  0
  1  2  1  0
  2  3  2  0
  2 15  1  0
  3  4  1  0
  4  5  1  0
  4 13  2  0
  5  6  1  0
  6  7  1  0
  7  8  2  0
  7 12  1  0
  8  9  1  0
  9 10  1  0
 10 11  1  0
 11 12  2  0
 13 14  1  0
 14 15  2  0
 15 16  1  0
 16 17  2  0
 16 18  1  0
 18 19  1  0
 19 20  1  0
 20 21  1  0
 20 22  2  0
M  END
