
     RDKit          3D

 22 23  0  0  0  0  0  0  0  0999 V2000
    3.9920   -3.9940    0.7970 C   0  0  0  0  0  0  0  0  0  0  0  0
    2.7180   -3.4190    0.5970 O   0  0  0  0  0  0  0  0  0  0  0  0
    2.5660   -2.0310    0.4680 C   0  0  0  0  0  0  0  0  0  0  0  0
    3.6130   -1.3830    0.5430 O   0  0  0  0  0  0  0  0  0  0  0  0
    1.2460   -1.4600    0.2630 C   0  0  0  0  0  0  0  0  0  0  0  0
    0.1600   -2.3590    0.2040 C   0  0  0  0  0  0  0  0  0  0  0  0
    0.4140   -3.7440    0.3440 N   0  0  0  0  0  0  0  0  0  0  0  0
   -1.0570   -1.8300    0.0140 N   0  0  0  0  0  0  0  0  0  0  0  0
   -1.2740   -0.5320   -0.1150 C   0  0  0  0  0  0  0  0  0  0  0  0
   -2.6820   -0.1000   -0.3200 C   0  0  0  0  0  0  0  0  0  0  0  0
   -3.7950   -0.8150   -0.3970 C   0  0  0  0  0  0  0  0  0  0  0  0
   -4.9730   -0.1880   -0.5890 C   0  0  0  0  0  0  0  0  0  0  0  0
   -4.9380    1.1860   -0.6940 C   0  0  0  0  0  0  0  0  0  0  0  0
   -6.0700    2.1400   -0.9070 C   0  0  0  0  0  0  0  0  0  0  0  0
   -3.2340    1.5350   -0.5160 S   0  0  0  0  0  0  0  0  0  0  0  0
   -0.2810    0.3450   -0.0650 N   0  0  0  0  0  0  0  0  0  0  0  0
    1.0040   -0.1210    0.1280 C   0  0  0  0  0  0  0  0  0  0  0  0
    2.0400    0.8430    0.1760 N   0  0  0  0  0  0  0  0  0  0  0  0
    1.7160    2.2440    0.0260 C   0  0  0  0  0  0  0  0  0  0  0  0
    2.9530    3.0540    0.1110 C   0  0  0  0  0  0  0  0  0  0  0  0
    2.8370    4.5440   -0.0210 C   0  0  0  0  0  0  0  0  0  0  0  0
    4.0080    2.4970    0.2830 O   0  0  0  0  0  0  0  0  0  0  0  0
  1  2  1  0
  2  3  1  0
  3  4  2  0
  3  5  1  0
  5  6  2  0
  5 17  1  0
  6  7  1  0
  6  8  1  0
  8  9  2  0
  9 10  1  0
  9 16  1  0
 10 11  2  0
 10 15  1  0
 11 12  1  0
 12 13  2  0
 13 14  1  0
 13 15  1  0
 16 17  2  0
 17 18  1  0
 18 19  1  0
 19 20  1  0
 20 21  1  0
 20 22  2  0
M  END
