
     RDKit          3D

 22 23  0  0  0  0  0  0  0  0999 V2000
    4.6520    0.6760    1.7470 C   0  0  0  0  0  0  0  0  0  0  0  0
    3.2850    1.0680    1.3670 C   0  0  0  0  0  0  0  0  0  0  0  0
    2.4330    1.8270    2.1590 C   0  0  0  0  0  0  0  0  0  0  0  0
    1.2430    1.9690    1.4730 C   0  0  0  0  0  0  0  0  0  0  0  0
    0.0880    2.7270    2.0250 C   0  0  0  0  0  0  0  0  0  0  0  0
   -0.9420    1.4920    2.8980 S   0  0  0  0  0  0  0  0  0  0  0  0
   -1.6310    0.3960    1.6680 C   0  0  0  0  0  0  0  0  0  0  0  0
   -2.8220    0.5050    1.0350 N   0  0  0  0  0  0  0  0  0  0  0  0
   -3.0000   -0.5060    0.1860 C   0  0  0  0  0  0  0  0  0  0  0  0
   -4.1580   -0.7910   -0.7080 C   0  0  2  0  0  0  0  0  0  0  0  0
   -5.1990    0.3130   -0.4680 C   0  0  0  0  0  0  0  0  0  0  0  0
   -4.8660   -2.0810   -0.3290 C   0  0  0  0  0  0  0  0  0  0  0  0
   -3.8260   -0.7490   -2.1600 C   0  0  0  0  0  0  0  0  0  0  0  0
   -1.9000   -1.2770    0.2760 N   0  0  0  0  0  0  0  0  0  0  0  0
   -1.0730   -0.7200    1.1810 N   0  0  0  0  0  0  0  0  0  0  0  0
    1.3690    1.3350    0.3340 O   0  0  0  0  0  0  0  0  0  0  0  0
    2.5820    0.7860    0.2440 C   0  0  0  0  0  0  0  0  0  0  0  0
    2.9820    0.0260   -0.9200 C   0  0  0  0  0  0  0  0  0  0  0  0
    2.1010   -0.2690   -1.8080 O   0  0  0  0  0  0  0  0  0  0  0  0
    4.2850   -0.4420   -1.1990 N   0  0  0  0  0  0  0  0  0  0  0  0
    4.5730   -1.2150   -2.4220 C   0  0  0  0  0  0  0  0  0  0  0  0
    5.9120   -1.5310   -2.4750 O   0  0  0  0  0  0  0  0  0  0  0  0
  1  2  1  0
  2  3  1  0
  2 17  2  0
  3  4  2  0
  4  5  1  0
  4 16  1  0
  5  6  1  0
  6  7  1  0
  7  8  2  0
  7 15  1  0
  8  9  1  0
  9 10  1  0
  9 14  2  0
 10 11  1  6
 10 12  1  0
 10 13  1  0
 14 15  1  0
 16 17  1  0
 17 18  1  0
 18 19  2  0
 18 20  1  0
 20 21  1  0
 21 22  1  0
M  END
