
     RDKit          3D

 22 23  0  0  0  0  0  0  0  0999 V2000
   -7.7160   -0.9500    1.6880 C   0  0  0  0  0  0  0  0  0  0  0  0
   -7.5150   -0.6030    0.2110 C   0  0  0  0  0  0  0  0  0  0  0  0
   -5.7580   -0.7360   -0.1990 S   0  0  0  0  0  0  0  0  0  0  0  0
   -4.8670    0.5200    0.6940 C   0  0  0  0  0  0  0  0  0  0  0  0
   -5.4920    1.2890    1.4490 O   0  0  0  0  0  0  0  0  0  0  0  0
   -3.4010    0.6300    0.5240 C   0  0  0  0  0  0  0  0  0  0  0  0
   -2.6740    1.5820    1.2020 C   0  0  0  0  0  0  0  0  0  0  0  0
   -1.3220    1.6720    1.0410 N   0  0  0  0  0  0  0  0  0  0  0  0
   -0.6540    0.8420    0.2220 C   0  0  0  0  0  0  0  0  0  0  0  0
    0.7820    0.9620    0.0810 C   0  0  0  0  0  0  0  0  0  0  0  0
    1.3860    1.8350    0.7510 O   0  0  0  0  0  0  0  0  0  0  0  0
    1.5760    0.1510   -0.7760 N   0  0  0  0  0  0  0  0  0  0  0  0
    2.9820    0.3150   -0.8690 N   0  0  0  0  0  0  0  0  0  0  0  0
    3.8660   -0.7770   -0.6800 C   0  0  0  0  0  0  0  0  0  0  0  0
    3.3210   -1.8820   -0.4280 O   0  0  0  0  0  0  0  0  0  0  0  0
    5.3170   -0.6690   -0.7610 C   0  0  0  0  0  0  0  0  0  0  0  0
    6.0440    0.3990   -1.0130 C   0  0  0  0  0  0  0  0  0  0  0  0
    7.5110    0.0660   -1.0040 C   0  0  0  0  0  0  0  0  0  0  0  0
    7.4800   -1.3730   -0.7010 C   0  0  0  0  0  0  0  0  0  0  0  0
    6.2390   -1.7940   -0.5640 C   0  0  0  0  0  0  0  0  0  0  0  0
   -1.4030   -0.1030   -0.4470 C   0  0  0  0  0  0  0  0  0  0  0  0
   -2.7420   -0.2040   -0.2970 N   0  0  0  0  0  0  0  0  0  0  0  0
  1  2  1  0
  2  3  1  0
  3  4  1  0
  4  5  2  0
  4  6  1  0
  6  7  2  0
  6 22  1  0
  7  8  1  0
  8  9  2  0
  9 10  1  0
  9 21  1  0
 10 11  2  0
 10 12  1  0
 12 13  1  0
 13 14  1  0
 14 15  2  0
 14 16  1  0
 16 17  2  0
 16 20  1  0
 17 18  1  0
 18 19  1  0
 19 20  2  0
 21 22  2  0
M  END
