
     RDKit          3D

 22 23  0  0  0  0  0  0  0  0999 V2000
    5.9250    0.8650    1.2800 C   0  0  0  0  0  0  0  0  0  0  0  0
    4.8340   -0.1470    1.4900 C   0  0  0  0  0  0  0  0  0  0  0  0
    4.0790   -0.3470    0.2390 C   0  0  0  0  0  0  0  0  0  0  0  0
    4.2870   -1.7610   -0.8890 S   0  0  0  0  0  0  0  0  0  0  0  0
    3.0910   -1.2200   -2.0390 C   0  0  0  0  0  0  0  0  0  0  0  0
    2.7480   -1.8410   -3.1500 O   0  0  0  0  0  0  0  0  0  0  0  0
    2.5950   -0.0200   -1.5330 N   0  0  0  0  0  0  0  0  0  0  0  0
    1.5590    0.6870   -2.3320 C   0  0  0  0  0  0  0  0  0  0  0  0
    0.1880    0.2260   -2.0870 C   0  0  0  0  0  0  0  0  0  0  0  0
   -0.3680    0.3310   -0.7820 N   0  0  0  0  0  0  0  0  0  0  0  0
   -1.7350   -0.1670   -0.6880 C   0  0  0  0  0  0  0  0  0  0  0  0
   -2.3370   -0.6410   -1.6870 O   0  0  0  0  0  0  0  0  0  0  0  0
   -2.4280   -0.1320    0.5340 N   0  0  0  0  0  0  0  0  0  0  0  0
   -3.7610   -0.6020    0.6930 C   0  0  0  0  0  0  0  0  0  0  0  0
   -4.0850   -1.5690    1.5320 C   0  0  0  0  0  0  0  0  0  0  0  0
   -5.4610   -2.0830    1.7240 C   0  0  0  0  0  0  0  0  0  0  0  0
   -6.4190   -1.4520    0.9310 O   0  0  0  0  0  0  0  0  0  0  0  0
   -6.0660   -0.4420    0.0570 C   0  0  0  0  0  0  0  0  0  0  0  0
   -4.8250   -0.0030   -0.0940 C   0  0  0  0  0  0  0  0  0  0  0  0
   -4.5750    1.0270   -1.0110 N   0  0  0  0  0  0  0  0  0  0  0  0
    3.1080    0.3740   -0.4110 C   0  0  0  0  0  0  0  0  0  0  0  0
    2.6750    1.6800    0.2590 C   0  0  0  0  0  0  0  0  0  0  0  0
  1  2  1  0
  2  3  1  0
  3  4  1  0
  3 21  2  0
  4  5  1  0
  5  6  2  0
  5  7  1  0
  7  8  1  0
  7 21  1  0
  8  9  1  0
  9 10  1  0
 10 11  1  0
 11 12  2  0
 11 13  1  0
 13 14  1  0
 14 15  2  0
 14 19  1  0
 15 16  1  0
 16 17  1  0
 17 18  1  0
 18 19  2  0
 19 20  1  0
 21 22  1  0
M  END
