
     RDKit          3D

 33 35  0  0  0  0  0  0  0  0999 V2000
    4.1620    3.6850    2.5920 C   0  0  0  0  0  0  0  0  0  0  0  0
    4.1060    4.2820    1.4330 C   0  0  0  0  0  0  0  0  0  0  0  0
    3.2020    3.8240    0.3730 C   0  0  0  0  0  0  0  0  0  0  0  0
    2.3740    2.6290    0.8610 C   0  0  0  0  0  0  0  0  0  0  0  0
    1.5790    2.2780   -0.2050 O   0  0  0  0  0  0  0  0  0  0  0  0
    0.6440    1.2820   -0.3600 C   0  0  0  0  0  0  0  0  0  0  0  0
    1.1090    0.0210   -0.7750 C   0  0  0  0  0  0  0  0  0  0  0  0
    2.4710   -0.0860   -0.9790 O   0  0  0  0  0  0  0  0  0  0  0  0
    3.1840   -1.2060   -1.3660 C   0  0  0  0  0  0  0  0  0  0  0  0
    3.0900   -2.3220   -0.3900 C   0  0  0  0  0  0  0  0  0  0  0  0
    2.4580   -2.1560    0.6700 O   0  0  0  0  0  0  0  0  0  0  0  0
    3.7100   -3.5810   -0.6430 N   0  0  0  0  0  0  0  0  0  0  0  0
    4.4610   -3.8080   -1.8810 C   0  0  0  0  0  0  0  0  0  0  0  0
    3.6110   -4.6460    0.3050 C   0  0  0  0  0  0  0  0  0  0  0  0
    0.2480   -1.0220   -0.9590 C   0  0  0  0  0  0  0  0  0  0  0  0
   -1.1430   -0.9290   -0.7540 C   0  0  0  0  0  0  0  0  0  0  0  0
   -1.9760   -2.0800   -1.0570 C   0  0  0  0  0  0  0  0  0  0  0  0
   -1.3570   -2.9780   -1.8100 O   0  0  0  0  0  0  0  0  0  0  0  0
   -3.3060   -2.4040   -0.6950 C   0  0  0  0  0  0  0  0  0  0  0  0
   -4.0820   -1.7370    0.1030 C   0  0  0  0  0  0  0  0  0  0  0  0
   -5.4770   -2.1360    0.4330 C   0  0  0  0  0  0  0  0  0  0  0  0
   -6.1510   -1.3740    1.2530 C   0  0  0  0  0  0  0  0  0  0  0  0
   -5.9770   -3.3060   -0.1610 N   0  0  0  0  0  0  0  0  0  0  0  0
   -5.1400   -4.0230   -1.0210 C   0  0  0  0  0  0  0  0  0  0  0  0
   -3.9030   -3.6260   -1.2820 C   0  0  0  0  0  0  0  0  0  0  0  0
   -1.5670    0.3070   -0.3520 C   0  0  0  0  0  0  0  0  0  0  0  0
   -0.6870    1.3940   -0.1570 C   0  0  0  0  0  0  0  0  0  0  0  0
   -1.2700    2.6570    0.2920 C   0  0  0  0  0  0  0  0  0  0  0  0
   -1.0060    3.2630    1.4730 C   0  0  0  0  0  0  0  0  0  0  0  0
   -1.5930    4.4680    1.7730 C   0  0  0  0  0  0  0  0  0  0  0  0
   -2.4630    5.0870    0.8830 C   0  0  0  0  0  0  0  0  0  0  0  0
   -2.7450    4.4800   -0.3300 C   0  0  0  0  0  0  0  0  0  0  0  0
   -2.1460    3.2780   -0.6060 C   0  0  0  0  0  0  0  0  0  0  0  0
  1  2  2  0
  2  3  1  0
  3  4  1  0
  4  5  1  0
  5  6  1  0
  6  7  2  0
  6 27  1  0
  7  8  1  0
  7 15  1  0
  8  9  1  0
  9 10  1  0
 10 11  2  0
 10 12  1  0
 12 13  1  0
 12 14  1  0
 15 16  2  0
 16 17  1  0
 16 26  1  0
 17 18  2  0
 17 19  1  0
 19 20  2  0
 19 25  1  0
 20 21  1  0
 21 22  2  0
 21 23  1  0
 23 24  1  0
 24 25  2  0
 26 27  2  0
 27 28  1  0
 28 29  2  0
 28 33  1  0
 29 30  1  0
 30 31  2  0
 31 32  1  0
 32 33  2  0
M  END
