
     RDKit          3D

 33 35  0  0  0  0  0  0  0  0999 V2000
   -7.3250   -1.1870    0.4840 C   0  0  0  0  0  0  0  0  0  0  0  0
   -6.4800   -0.8550    1.6550 C   0  0  0  0  0  0  0  0  0  0  0  0
   -7.0870   -0.5290    2.8370 C   0  0  0  0  0  0  0  0  0  0  0  0
   -6.3140   -0.2200    3.9250 C   0  0  0  0  0  0  0  0  0  0  0  0
   -4.9330   -0.2480    3.7980 C   0  0  0  0  0  0  0  0  0  0  0  0
   -4.3480   -0.5800    2.5950 C   0  0  0  0  0  0  0  0  0  0  0  0
   -2.8720   -0.6010    2.5170 C   0  0  0  0  0  0  0  0  0  0  0  0
   -2.3970    0.8020    2.1280 C   0  0  0  0  0  0  0  0  0  0  0  0
   -2.9190    1.2210    0.8610 C   0  0  0  0  0  0  0  0  0  0  0  0
   -2.6250    1.5480   -0.3260 C   0  0  0  0  0  0  0  0  0  0  0  0
   -1.5270    1.7150   -1.2150 C   0  0  0  0  0  0  0  0  0  0  0  0
   -1.8030    2.3110   -2.4720 C   0  0  0  0  0  0  0  0  0  0  0  0
   -0.8780    2.5060   -3.4500 C   0  0  0  0  0  0  0  0  0  0  0  0
    0.4110    2.1120   -3.2330 C   0  0  0  0  0  0  0  0  0  0  0  0
    1.4800    2.2940   -4.2600 C   0  0  0  0  0  0  0  0  0  0  0  0
    0.7390    1.5320   -2.0420 C   0  0  0  0  0  0  0  0  0  0  0  0
   -0.2180    1.3450   -1.0670 C   0  0  0  0  0  0  0  0  0  0  0  0
    0.2170    0.7370    0.1830 C   0  0  0  0  0  0  0  0  0  0  0  0
    1.6100    0.3130    0.1940 N   0  0  0  0  0  0  0  0  0  0  0  0
    2.0550   -0.7380   -0.6220 C   0  0  0  0  0  0  0  0  0  0  0  0
    1.2130   -1.3130   -1.3630 O   0  0  0  0  0  0  0  0  0  0  0  0
    3.4570   -1.1400   -0.5990 C   0  0  0  0  0  0  0  0  0  0  0  0
    4.4260   -0.5640    0.1800 C   0  0  0  0  0  0  0  0  0  0  0  0
    5.7570   -0.9770    0.1730 C   0  0  0  0  0  0  0  0  0  0  0  0
    6.1010   -2.0050   -0.6510 C   0  0  0  0  0  0  0  0  0  0  0  0
    7.3930   -2.4620   -0.7050 O   0  0  0  0  0  0  0  0  0  0  0  0
    8.4010   -1.8970    0.0640 C   0  0  0  0  0  0  0  0  0  0  0  0
    8.6360   -0.4660   -0.2230 C   0  0  0  0  0  0  0  0  0  0  0  0
    9.4760    0.1820    0.3540 O   0  0  0  0  0  0  0  0  0  0  0  0
    5.1250   -2.6070   -1.4540 C   0  0  0  0  0  0  0  0  0  0  0  0
    5.5000   -3.5500   -2.1940 O   0  0  0  0  0  0  0  0  0  0  0  0
    3.8620   -2.1710   -1.4090 N   0  0  0  0  0  0  0  0  0  0  0  0
   -5.1070   -0.8880    1.5110 C   0  0  0  0  0  0  0  0  0  0  0  0
  1  2  1  0
  2  3  2  0
  2 33  1  0
  3  4  1  0
  4  5  2  0
  5  6  1  0
  6  7  1  0
  6 33  2  0
  7  8  1  0
  8  9  1  0
  9 10  2  3
 10 11  1  0
 11 12  2  0
 11 17  1  0
 12 13  1  0
 13 14  2  0
 14 15  1  0
 14 16  1  0
 16 17  2  0
 17 18  1  0
 18 19  1  0
 19 20  1  0
 20 21  2  0
 20 22  1  0
 22 23  2  0
 22 32  1  0
 23 24  1  0
 24 25  2  0
 25 26  1  0
 25 30  1  0
 26 27  1  0
 27 28  1  0
 28 29  2  0
 30 31  2  0
 30 32  1  0
M  END
