
     RDKit          3D

 33 35  0  0  0  0  0  0  0  0999 V2000
   -4.3470   -3.1010    1.2850 C   0  0  0  0  0  0  0  0  0  0  0  0
   -5.2490   -1.9590    1.7000 C   0  0  0  0  0  0  0  0  0  0  0  0
   -4.5020   -0.7370    1.6180 N   0  0  0  0  0  0  0  0  0  0  0  0
   -5.2810    0.4260    1.9900 C   0  0  0  0  0  0  0  0  0  0  0  0
   -4.7500    1.6020    1.2270 C   0  0  0  0  0  0  0  0  0  0  0  0
   -3.3000    1.8760    1.4350 C   0  0  0  0  0  0  0  0  0  0  0  0
   -2.3590    0.9130    0.7940 C   0  0  2  0  0  0  0  0  0  0  0  0
   -2.6440    0.5530   -0.5020 O   0  0  0  0  0  0  0  0  0  0  0  0
   -1.9880    0.6670   -1.6700 C   0  0  0  0  0  0  0  0  0  0  0  0
   -0.7490    1.2450   -1.7340 C   0  0  0  0  0  0  0  0  0  0  0  0
   -0.0410    1.3820   -2.9100 C   0  0  0  0  0  0  0  0  0  0  0  0
    1.2920    1.9990   -3.0010 C   0  0  2  0  0  0  0  0  0  0  0  0
    1.9220    1.6240   -4.3250 C   0  0  0  0  0  0  0  0  0  0  0  0
    2.1710    1.5550   -1.9930 O   0  0  0  0  0  0  0  0  0  0  0  0
    2.8070    2.4040   -1.0810 C   0  0  0  0  0  0  0  0  0  0  0  0
    2.5490    3.6280   -1.2060 O   0  0  0  0  0  0  0  0  0  0  0  0
    3.7040    1.9250   -0.0550 C   0  0  0  0  0  0  0  0  0  0  0  0
    3.9860    0.6480    0.0930 C   0  0  0  0  0  0  0  0  0  0  0  0
    4.8760    0.1110    1.1010 C   0  0  0  0  0  0  0  0  0  0  0  0
    5.5350    0.8870    2.0280 C   0  0  0  0  0  0  0  0  0  0  0  0
    6.3850    0.3100    2.9800 C   0  0  0  0  0  0  0  0  0  0  0  0
    6.5920   -1.0430    3.0250 C   0  0  0  0  0  0  0  0  0  0  0  0
    7.5060   -1.6330    4.0510 C   0  0  0  0  0  0  0  0  0  0  0  0
    5.9410   -1.8320    2.1040 C   0  0  0  0  0  0  0  0  0  0  0  0
    5.1010   -1.2530    1.1660 C   0  0  0  0  0  0  0  0  0  0  0  0
    4.3960   -2.1120    0.1690 C   0  0  0  0  0  0  0  0  0  0  0  0
   -0.6320    0.9070   -4.0540 C   0  0  0  0  0  0  0  0  0  0  0  0
   -1.8820    0.3210   -4.0120 C   0  0  0  0  0  0  0  0  0  0  0  0
   -2.5600    0.2000   -2.8230 C   0  0  0  0  0  0  0  0  0  0  0  0
   -3.8100   -0.3910   -2.8060 O   0  0  0  0  0  0  0  0  0  0  0  0
   -4.4800   -0.8970   -3.9090 C   0  0  0  0  0  0  0  0  0  0  0  0
   -2.1570   -0.3520    1.6000 C   0  0  0  0  0  0  0  0  0  0  0  0
   -3.3190   -0.7200    2.4560 C   0  0  0  0  0  0  0  0  0  0  0  0
  1  2  1  0
  2  3  1  0
  3  4  1  0
  3 33  1  0
  4  5  1  0
  5  6  1  0
  6  7  1  0
  7  8  1  6
  7 32  1  0
  8  9  1  0
  9 10  2  0
  9 29  1  0
 10 11  1  0
 11 12  1  0
 11 27  2  0
 12 13  1  6
 12 14  1  0
 14 15  1  0
 15 16  2  0
 15 17  1  0
 17 18  2  3
 18 19  1  0
 19 20  2  0
 19 25  1  0
 20 21  1  0
 21 22  2  0
 22 23  1  0
 22 24  1  0
 24 25  2  0
 25 26  1  0
 27 28  1  0
 28 29  2  0
 29 30  1  0
 30 31  1  0
 32 33  1  0
M  END
