
     RDKit          3D

 33 35  0  0  0  0  0  0  0  0999 V2000
   -4.9460   -2.1550    2.7520 C   0  0  0  0  0  0  0  0  0  0  0  0
   -4.3850   -1.0160    2.9880 C   0  0  0  0  0  0  0  0  0  0  0  0
   -4.1330    0.1240    2.1510 C   0  0  0  0  0  0  0  0  0  0  0  0
   -3.4840    1.1500    2.6730 C   0  0  0  0  0  0  0  0  0  0  0  0
   -3.0470    1.0770    4.0870 C   0  0  0  0  0  0  0  0  0  0  0  0
   -4.5060    0.1540    0.7410 C   0  0  0  0  0  0  0  0  0  0  0  0
   -5.6530   -0.4470    0.2700 C   0  0  0  0  0  0  0  0  0  0  0  0
   -5.9560   -0.4750   -1.0810 C   0  0  0  0  0  0  0  0  0  0  0  0
   -7.2100   -1.1480   -1.4950 C   0  0  0  0  0  0  0  0  0  0  0  0
   -5.1140    0.1030   -1.9900 C   0  0  0  0  0  0  0  0  0  0  0  0
   -3.9340    0.7310   -1.5740 C   0  0  0  0  0  0  0  0  0  0  0  0
   -3.0630    1.3700   -2.6110 C   0  0  1  0  0  0  0  0  0  0  0  0
   -3.8400    1.5160   -3.9210 C   0  0  0  0  0  0  0  0  0  0  0  0
   -2.4560    2.5210   -2.2100 O   0  0  0  0  0  0  0  0  0  0  0  0
   -3.6580    0.7400   -0.2330 C   0  0  0  0  0  0  0  0  0  0  0  0
   -2.5250    1.3290    0.2300 O   0  0  0  0  0  0  0  0  0  0  0  0
   -1.3300    0.6530    0.4610 C   0  0  0  0  0  0  0  0  0  0  0  0
   -0.7270   -0.0040   -0.7300 C   0  0  0  0  0  0  0  0  0  0  0  0
    0.4650   -0.6390   -0.3440 O   0  0  0  0  0  0  0  0  0  0  0  0
    0.9980   -1.2390   -1.4660 C   0  0  0  0  0  0  0  0  0  0  0  0
    2.2830   -1.9600   -1.2850 C   0  0  0  0  0  0  0  0  0  0  0  0
    3.3440   -1.1300   -0.8420 N   0  0  0  0  0  0  0  0  0  0  0  0
    3.2190   -0.6560    0.4860 C   0  0  0  0  0  0  0  0  0  0  0  0
    4.4680   -0.0200    1.0520 C   0  0  0  0  0  0  0  0  0  0  0  0
    5.5950   -0.8770    0.8800 N   0  0  0  0  0  0  0  0  0  0  0  0
    6.7270   -0.1710    0.3010 C   0  0  0  0  0  0  0  0  0  0  0  0
    7.1770    0.9600    1.1420 C   0  0  0  0  0  0  0  0  0  0  0  0
    6.8240    2.2810    0.9730 C   0  0  0  0  0  0  0  0  0  0  0  0
    7.4670    3.0130    1.9790 C   0  0  0  0  0  0  0  0  0  0  0  0
    8.1710    2.0870    2.6950 C   0  0  0  0  0  0  0  0  0  0  0  0
    7.9730    0.8990    2.1710 O   0  0  0  0  0  0  0  0  0  0  0  0
    5.2960   -2.0890    0.1640 C   0  0  0  0  0  0  0  0  0  0  0  0
    4.5930   -1.7520   -1.1440 C   0  0  0  0  0  0  0  0  0  0  0  0
  1  2  2  0
  2  3  1  0
  3  4  2  3
  3  6  1  0
  4  5  1  0
  6  7  2  0
  6 15  1  0
  7  8  1  0
  8  9  1  0
  8 10  2  0
 10 11  1  0
 11 12  1  0
 11 15  2  0
 12 13  1  6
 12 14  1  0
 15 16  1  0
 16 17  1  0
 17 18  1  0
 18 19  1  0
 19 20  1  0
 20 21  1  0
 21 22  1  0
 22 23  1  0
 22 33  1  0
 23 24  1  0
 24 25  1  0
 25 26  1  0
 25 32  1  0
 26 27  1  0
 27 28  2  0
 27 31  1  0
 28 29  1  0
 29 30  2  0
 30 31  1  0
 32 33  1  0
M  END
