
     RDKit          3D

 33 35  0  0  0  0  0  0  0  0999 V2000
    8.8340    1.3050   -0.0810 C   0  0  0  0  0  0  0  0  0  0  0  0
    8.4160   -0.0020   -0.6550 C   0  0  0  0  0  0  0  0  0  0  0  0
    6.9920   -0.1210   -0.9100 N   0  0  0  0  0  0  0  0  0  0  0  0
    6.0080    0.0110    0.0710 C   0  0  0  0  0  0  0  0  0  0  0  0
    6.3660    0.2570    1.2540 O   0  0  0  0  0  0  0  0  0  0  0  0
    4.5800   -0.1330   -0.2520 C   0  0  0  0  0  0  0  0  0  0  0  0
    3.6520    0.0570    0.7940 C   0  0  0  0  0  0  0  0  0  0  0  0
    2.3130   -0.1150    0.4950 C   0  0  0  0  0  0  0  0  0  0  0  0
    1.8640   -0.4540   -0.7280 C   0  0  0  0  0  0  0  0  0  0  0  0
    0.4270   -0.6510   -1.0400 C   0  0  0  0  0  0  0  0  0  0  0  0
   -0.1690    0.6070   -1.5840 C   0  0  0  0  0  0  0  0  0  0  0  0
   -1.6370    0.4800   -1.9290 C   0  0  0  0  0  0  0  0  0  0  0  0
   -2.5320    0.3050   -0.9260 O   0  0  0  0  0  0  0  0  0  0  0  0
   -2.5100   -0.6920    0.0400 C   0  0  0  0  0  0  0  0  0  0  0  0
   -2.8250   -1.9400   -0.2550 C   0  0  0  0  0  0  0  0  0  0  0  0
   -3.2190   -2.1980   -1.6650 C   0  0  0  0  0  0  0  0  0  0  0  0
   -4.1600   -1.4150   -2.3290 C   0  0  0  0  0  0  0  0  0  0  0  0
   -4.2880   -1.9100   -3.5910 C   0  0  0  0  0  0  0  0  0  0  0  0
   -3.3970   -3.0070   -3.6550 C   0  0  0  0  0  0  0  0  0  0  0  0
   -2.8340   -3.0870   -2.4900 O   0  0  0  0  0  0  0  0  0  0  0  0
   -2.1240   -0.2190    1.3840 C   0  0  2  0  0  0  0  0  0  0  0  0
   -1.8310   -1.2520    2.3090 N   0  0  0  0  0  0  0  0  0  0  0  0
   -0.7780   -0.8710    3.2560 C   0  0  0  0  0  0  0  0  0  0  0  0
   -3.1450    0.7580    1.8000 C   0  0  0  0  0  0  0  0  0  0  0  0
   -3.9310    0.5980    2.9050 C   0  0  0  0  0  0  0  0  0  0  0  0
   -3.9320   -0.5030    3.8420 C   0  0  0  0  0  0  0  0  0  0  0  0
   -4.7650    1.7760    2.8890 C   0  0  0  0  0  0  0  0  0  0  0  0
   -5.6600    2.0140    3.7900 O   0  0  0  0  0  0  0  0  0  0  0  0
   -4.4520    2.6020    1.7730 C   0  0  0  0  0  0  0  0  0  0  0  0
   -5.0680    3.8840    1.3600 C   0  0  0  0  0  0  0  0  0  0  0  0
   -3.4740    1.9840    1.1190 C   0  0  0  0  0  0  0  0  0  0  0  0
    2.7640   -0.6450   -1.7680 C   0  0  0  0  0  0  0  0  0  0  0  0
    4.1370   -0.4720   -1.4880 C   0  0  0  0  0  0  0  0  0  0  0  0
  1  2  1  0
  2  3  1  0
  3  4  1  0
  4  5  2  0
  4  6  1  0
  6  7  2  0
  6 33  1  0
  7  8  1  0
  8  9  2  0
  9 10  1  0
  9 32  1  0
 10 11  1  0
 11 12  1  0
 12 13  1  0
 13 14  1  0
 14 15  2  3
 14 21  1  0
 15 16  1  0
 16 17  2  0
 16 20  1  0
 17 18  1  0
 18 19  2  0
 19 20  1  0
 21 22  1  1
 21 24  1  0
 22 23  1  0
 24 25  2  0
 24 31  1  0
 25 26  1  0
 25 27  1  0
 27 28  2  0
 27 29  1  0
 29 30  1  0
 29 31  2  0
 32 33  2  0
M  END
