
     RDKit          3D

 33 35  0  0  0  0  0  0  0  0999 V2000
    3.7240   -3.8000   -2.6010 C   0  0  0  0  0  0  0  0  0  0  0  0
    3.0010   -2.8530   -1.9870 C   0  0  0  0  0  0  0  0  0  0  0  0
    3.3320   -1.4490   -2.3090 C   0  0  0  0  0  0  0  0  0  0  0  0
    3.7230   -0.7240   -1.1910 O   0  0  0  0  0  0  0  0  0  0  0  0
    2.9250   -0.4360   -0.1310 C   0  0  0  0  0  0  0  0  0  0  0  0
    1.6040   -0.7950   -0.0620 C   0  0  0  0  0  0  0  0  0  0  0  0
    0.8040   -0.4860    1.0540 C   0  0  0  0  0  0  0  0  0  0  0  0
   -0.5450   -0.8720    1.0520 N   0  0  0  0  0  0  0  0  0  0  0  0
   -1.4330   -0.8880    2.1420 C   0  0  0  0  0  0  0  0  0  0  0  0
   -1.0220   -0.5300    3.2670 O   0  0  0  0  0  0  0  0  0  0  0  0
   -2.8620   -1.3250    1.9770 C   0  0  1  0  0  0  0  0  0  0  0  0
   -3.5660   -0.4600    1.0020 C   0  0  0  0  0  0  0  0  0  0  0  0
   -4.6210   -0.9120    0.3660 C   0  0  0  0  0  0  0  0  0  0  0  0
   -5.5210   -0.3080   -0.6440 C   0  0  0  0  0  0  0  0  0  0  0  0
   -5.4190    1.0500   -1.1980 C   0  0  2  0  0  0  0  0  0  0  0  0
   -6.5290    1.2670   -2.1980 C   0  0  0  0  0  0  0  0  0  0  0  0
   -4.1150    1.2940   -1.9160 C   0  0  0  0  0  0  0  0  0  0  0  0
   -5.6370    2.0460   -0.0780 C   0  0  0  0  0  0  0  0  0  0  0  0
   -6.4510   -1.1820   -0.9830 C   0  0  0  0  0  0  0  0  0  0  0  0
   -6.2340   -2.4110   -0.2330 C   0  0  0  0  0  0  0  0  0  0  0  0
   -6.9420   -3.4620   -0.3110 O   0  0  0  0  0  0  0  0  0  0  0  0
   -5.1080   -2.2300    0.5900 N   0  0  0  0  0  0  0  0  0  0  0  0
   -4.4440   -3.1260    1.5330 C   0  0  0  0  0  0  0  0  0  0  0  0
   -2.9520   -2.7480    1.5390 C   0  0  0  0  0  0  0  0  0  0  0  0
    1.4070    0.1930    2.0730 C   0  0  0  0  0  0  0  0  0  0  0  0
    2.7620    0.5650    2.0110 C   0  0  0  0  0  0  0  0  0  0  0  0
    3.5360    0.2640    0.9270 C   0  0  0  0  0  0  0  0  0  0  0  0
    4.8590    0.6150    0.8380 O   0  0  0  0  0  0  0  0  0  0  0  0
    5.5720    1.3070    1.8170 C   0  0  0  0  0  0  0  0  0  0  0  0
    7.0000    1.5550    1.4530 C   0  0  0  0  0  0  0  0  0  0  0  0
    7.0170    2.3610    0.2030 C   0  0  0  0  0  0  0  0  0  0  0  0
    7.5840    3.5420    0.1960 C   0  0  0  0  0  0  0  0  0  0  0  0
    7.6170    4.3770   -1.0460 C   0  0  0  0  0  0  0  0  0  0  0  0
  1  2  2  0
  2  3  1  0
  3  4  1  0
  4  5  1  0
  5  6  2  0
  5 27  1  0
  6  7  1  0
  7  8  1  0
  7 25  2  0
  8  9  1  0
  9 10  2  0
 11  9  1  6
 11 12  1  0
 11 24  1  0
 12 13  2  0
 13 14  1  0
 13 22  1  0
 14 15  1  0
 14 19  2  0
 15 16  1  6
 15 17  1  0
 15 18  1  0
 19 20  1  0
 20 21  2  0
 20 22  1  0
 22 23  1  0
 23 24  1  0
 25 26  1  0
 26 27  2  0
 27 28  1  0
 28 29  1  0
 29 30  1  0
 30 31  1  0
 31 32  2  3
 32 33  1  0
M  END
