
     RDKit          3D

 33 35  0  0  0  0  0  0  0  0999 V2000
    4.5260    0.0350    1.8810 C   0  0  0  0  0  0  0  0  0  0  0  0
    4.5270    0.6980    0.7660 C   0  0  0  0  0  0  0  0  0  0  0  0
    3.4150    0.5280   -0.2350 C   0  0  0  0  0  0  0  0  0  0  0  0
    2.4770   -0.3910    0.2320 O   0  0  0  0  0  0  0  0  0  0  0  0
    1.4380   -0.5490   -0.7210 C   0  0  2  0  0  0  0  0  0  0  0  0
    0.1520   -0.1160   -0.1860 C   0  0  0  0  0  0  0  0  0  0  0  0
    0.0860    1.2860    0.3440 C   0  0  0  0  0  0  0  0  0  0  0  0
   -0.9280   -0.8640   -0.1380 C   0  0  0  0  0  0  0  0  0  0  0  0
   -2.1370   -0.3390    0.4060 N   0  0  0  0  0  0  0  0  0  0  0  0
   -2.4090   -0.5700    1.7920 C   0  0  0  0  0  0  0  0  0  0  0  0
   -3.8600   -0.3940    2.1790 C   0  0  0  0  0  0  0  0  0  0  0  0
   -4.4840    0.7340    1.4730 C   0  0  0  0  0  0  0  0  0  0  0  0
   -5.4960    1.4300    2.0890 C   0  0  0  0  0  0  0  0  0  0  0  0
   -6.1240    2.5080    1.4780 C   0  0  0  0  0  0  0  0  0  0  0  0
   -5.7340    2.9030    0.2220 C   0  0  0  0  0  0  0  0  0  0  0  0
   -6.4000    4.0610   -0.4500 C   0  0  0  0  0  0  0  0  0  0  0  0
   -4.7150    2.1980   -0.3920 C   0  0  0  0  0  0  0  0  0  0  0  0
   -4.0890    1.1310    0.2050 C   0  0  0  0  0  0  0  0  0  0  0  0
   -3.0130    0.4080   -0.4780 C   0  0  0  0  0  0  0  0  0  0  0  0
   -0.8730   -2.2380   -0.6450 C   0  0  0  0  0  0  0  0  0  0  0  0
   -2.0860   -3.0800   -0.5860 C   0  0  0  0  0  0  0  0  0  0  0  0
   -3.1470   -2.6070   -0.0970 O   0  0  0  0  0  0  0  0  0  0  0  0
   -2.1530   -4.3770   -1.0330 O   0  0  0  0  0  0  0  0  0  0  0  0
   -3.3020   -5.1830   -0.9810 C   0  0  0  0  0  0  0  0  0  0  0  0
    0.2370   -2.7080   -1.1380 C   0  0  0  0  0  0  0  0  0  0  0  0
    0.2440   -4.1450   -1.6530 C   0  0  0  0  0  0  0  0  0  0  0  0
    1.4770   -1.9370   -1.2240 C   0  0  1  0  0  0  0  0  0  0  0  0
    2.0210   -2.0060   -2.6520 C   0  0  0  0  0  0  0  0  0  0  0  0
    5.5880    1.6250    0.4260 C   0  0  0  0  0  0  0  0  0  0  0  0
    5.4580    2.2550   -0.7720 C   0  0  0  0  0  0  0  0  0  0  0  0
    6.4920    3.2040   -1.1790 C   0  0  0  0  0  0  0  0  0  0  0  0
    6.6350    1.8730    1.1970 O   0  0  0  0  0  0  0  0  0  0  0  0
    7.2460    1.6060    2.3550 C   0  0  0  0  0  0  0  0  0  0  0  0
  1  2  2  0
  2  3  1  0
  2 29  1  0
  3  4  1  0
  5  4  1  1
  5  6  1  0
  5 27  1  0
  6  7  1  0
  6  8  2  0
  8  9  1  0
  8 20  1  0
  9 10  1  0
  9 19  1  0
 10 11  1  0
 11 12  1  0
 12 13  2  0
 12 18  1  0
 13 14  1  0
 14 15  2  0
 15 16  1  0
 15 17  1  0
 17 18  2  0
 18 19  1  0
 20 21  1  0
 20 25  2  0
 21 22  2  0
 21 23  1  0
 23 24  1  0
 25 26  1  0
 25 27  1  0
 27 28  1  6
 29 30  2  3
 29 32  1  0
 30 31  1  0
 32 33  1  0
M  END
