
     RDKit          3D

 33 35  0  0  0  0  0  0  0  0999 V2000
   -1.9240    5.2000    1.4520 C   0  0  0  0  0  0  0  0  0  0  0  0
   -1.8020    4.8730    0.1890 C   0  0  0  0  0  0  0  0  0  0  0  0
   -2.8340    4.1490   -0.6030 C   0  0  0  0  0  0  0  0  0  0  0  0
   -2.1980    2.8610   -1.0950 C   0  0  0  0  0  0  0  0  0  0  0  0
   -1.7340    1.9970    0.0370 C   0  0  0  0  0  0  0  0  0  0  0  0
   -1.1350    0.7470   -0.4940 C   0  0  0  0  0  0  0  0  0  0  0  0
    0.1090    0.4580   -0.9780 C   0  0  0  0  0  0  0  0  0  0  0  0
    1.2410    1.3650   -1.0430 C   0  0  0  0  0  0  0  0  0  0  0  0
    1.0740    2.5810   -1.1730 O   0  0  0  0  0  0  0  0  0  0  0  0
    2.6180    0.8260   -0.9530 C   0  0  0  0  0  0  0  0  0  0  0  0
    3.6520    1.5120   -1.5090 C   0  0  0  0  0  0  0  0  0  0  0  0
    4.9630    1.0500   -1.4490 C   0  0  0  0  0  0  0  0  0  0  0  0
    5.9160    1.6610   -1.9500 O   0  0  0  0  0  0  0  0  0  0  0  0
    5.1710   -0.1450   -0.7950 C   0  0  0  0  0  0  0  0  0  0  0  0
    6.4380   -0.6810   -0.6840 C   0  0  0  0  0  0  0  0  0  0  0  0
    7.5780    0.0350   -1.2750 C   0  0  0  0  0  0  0  0  0  0  0  0
    6.5920   -1.8620   -0.0280 N   0  0  0  0  0  0  0  0  0  0  0  0
    5.5500   -2.5180    0.5120 C   0  0  0  0  0  0  0  0  0  0  0  0
    5.8050   -3.8130    1.2220 C   0  0  0  0  0  0  0  0  0  0  0  0
    4.2730   -2.0110    0.4190 C   0  0  0  0  0  0  0  0  0  0  0  0
    4.0720   -0.7940   -0.2500 C   0  0  0  0  0  0  0  0  0  0  0  0
    2.8590   -0.2990   -0.3450 O   0  0  0  0  0  0  0  0  0  0  0  0
    0.1210   -0.8440   -1.3740 N   0  0  0  0  0  0  0  0  0  0  0  0
   -1.0650   -1.4150   -1.1660 C   0  0  0  0  0  0  0  0  0  0  0  0
   -1.3820   -2.8360   -1.4860 C   0  0  0  0  0  0  0  0  0  0  0  0
   -1.3810   -3.6730   -0.2380 C   0  0  0  0  0  0  0  0  0  0  0  0
   -1.8750   -0.4560   -0.6170 C   0  0  0  0  0  0  0  0  0  0  0  0
   -3.2620   -0.6040   -0.1980 C   0  0  0  0  0  0  0  0  0  0  0  0
   -4.1590   -0.3420   -1.0310 O   0  0  0  0  0  0  0  0  0  0  0  0
   -3.6500   -1.0440    1.1560 C   0  0  0  0  0  0  0  0  0  0  0  0
   -5.1210   -0.9980    1.4090 C   0  0  1  0  0  0  0  0  0  0  0  0
   -5.3760   -1.4870    2.8160 C   0  0  0  0  0  0  0  0  0  0  0  0
   -5.6830    0.4010    1.2980 C   0  0  0  0  0  0  0  0  0  0  0  0
  1  2  2  0
  2  3  1  0
  3  4  1  0
  4  5  1  0
  5  6  1  0
  6  7  2  0
  6 27  1  0
  7  8  1  0
  7 23  1  0
  8  9  2  0
  8 10  1  0
 10 11  2  0
 10 22  1  0
 11 12  1  0
 12 13  2  0
 12 14  1  0
 14 15  2  0
 14 21  1  0
 15 16  1  0
 15 17  1  0
 17 18  2  0
 18 19  1  0
 18 20  1  0
 20 21  2  0
 21 22  1  0
 23 24  1  0
 24 25  1  0
 24 27  2  0
 25 26  1  0
 27 28  1  0
 28 29  2  0
 28 30  1  0
 30 31  1  0
 31 32  1  1
 31 33  1  0
M  END
