
     RDKit          3D

 33 37  0  0  0  0  0  0  0  0999 V2000
   -2.8910   -1.2930   -2.3260 C   0  0  0  0  0  0  0  0  0  0  0  0
   -2.3580   -0.5970   -1.0890 C   0  0  2  0  0  0  0  0  0  0  0  0
   -1.5160   -1.6510   -0.3810 C   0  0  0  0  0  0  0  0  0  0  0  0
   -1.1860   -1.0510    0.9190 N   0  0  0  0  0  0  0  0  0  0  0  0
    0.1380   -0.6870    1.1770 C   0  0  0  0  0  0  0  0  0  0  0  0
    0.5080    0.6140    1.3360 N   0  0  0  0  0  0  0  0  0  0  0  0
    1.7540    0.9850    1.5410 N   0  0  0  0  0  0  0  0  0  0  0  0
    2.7570    0.1090    1.6050 C   0  0  0  0  0  0  0  0  0  0  0  0
    4.1290    0.6080    1.7840 C   0  0  0  0  0  0  0  0  0  0  0  0
    4.7950    0.8590    0.5100 C   0  0  0  0  0  0  0  0  0  0  0  0
    5.5410    0.0130   -0.2470 C   0  0  0  0  0  0  0  0  0  0  0  0
    6.1020    0.4280   -1.4660 C   0  0  0  0  0  0  0  0  0  0  0  0
    5.8930    1.7170   -1.8990 C   0  0  0  0  0  0  0  0  0  0  0  0
    5.1520    2.5950   -1.1700 C   0  0  0  0  0  0  0  0  0  0  0  0
    4.6190    2.1700   -0.0000 C   0  0  0  0  0  0  0  0  0  0  0  0
    2.4440   -1.2300    1.4490 C   0  0  0  0  0  0  0  0  0  0  0  0
    3.4440   -2.1400    1.5090 C   0  0  0  0  0  0  0  0  0  0  0  0
    3.1680   -3.4790    1.3590 C   0  0  0  0  0  0  0  0  0  0  0  0
    1.8690   -3.8800    1.1480 C   0  0  0  0  0  0  0  0  0  0  0  0
    1.5130   -5.5990    0.9560 Cl  0  0  0  0  0  0  0  0  0  0  0  0
    0.8190   -2.9940    1.0790 C   0  0  0  0  0  0  0  0  0  0  0  0
    1.1300   -1.6340    1.2340 C   0  0  0  0  0  0  0  0  0  0  0  0
   -2.2630   -0.8680    1.8240 C   0  0  0  0  0  0  0  0  0  0  0  0
   -3.5980   -0.8550    1.0470 C   0  0  0  0  0  0  0  0  0  0  0  0
   -3.3970   -0.1600   -0.2060 N   0  0  0  0  0  0  0  0  0  0  0  0
   -4.2600    0.9330   -0.4990 C   0  0  0  0  0  0  0  0  0  0  0  0
   -3.6470    2.0610   -1.1040 C   0  0  0  0  0  0  0  0  0  0  0  0
   -4.3340    3.1820   -1.4540 C   0  0  0  0  0  0  0  0  0  0  0  0
   -5.7280    3.1950   -1.1900 C   0  0  0  0  0  0  0  0  0  0  0  0
   -6.4220    4.4480   -1.5460 C   0  0  0  0  0  0  0  0  0  0  0  0
   -6.9380    5.3810   -1.8310 N   0  0  0  0  0  0  0  0  0  0  0  0
   -6.2730    2.1240   -0.6250 C   0  0  0  0  0  0  0  0  0  0  0  0
   -5.5670    0.9970   -0.2770 N   0  0  0  0  0  0  0  0  0  0  0  0
  2  1  1  6
  2  3  1  0
  2 25  1  0
  3  4  1  0
  4  5  1  0
  4 23  1  0
  5  6  2  0
  5 22  1  0
  6  7  1  0
  7  8  2  0
  8  9  1  0
  8 16  1  0
  9 10  1  0
 10 11  2  0
 10 15  1  0
 11 12  1  0
 12 13  2  0
 13 14  1  0
 14 15  2  0
 16 17  2  0
 16 22  1  0
 17 18  1  0
 18 19  2  0
 19 20  1  0
 19 21  1  0
 21 22  2  0
 23 24  1  0
 24 25  1  0
 25 26  1  0
 26 27  2  0
 26 33  1  0
 27 28  1  0
 28 29  2  0
 29 30  1  0
 29 32  1  0
 30 31  3  0
 32 33  2  0
M  END
