
     RDKit          3D

  6  5  0  0  0  0  0  0  0  0999 V2000
   -1.5370   -0.1360    0.5990 C   0  0  0  0  0  0  0  0  0  0  0  0
   -0.7640    0.3630   -0.6000 C   0  0  0  0  0  0  0  0  0  0  0  0
    0.4020   -0.5320   -0.8200 C   0  0  0  0  0  0  0  0  0  0  0  0
    1.3260   -0.6480    0.1950 O   0  0  0  0  0  0  0  0  0  0  0  0
    2.0880    0.3090    0.7700 C   0  0  0  0  0  0  0  0  0  0  0  0
    1.9870    1.4670    0.3730 O   0  0  0  0  0  0  0  0  0  0  0  0
  1  2  1  0
  2  3  1  0
  3  4  1  0
  4  5  1  0
  5  6  2  0
M  END
