
     RDKit          3D

  5  4  0  0  0  0  0  0  0  0999 V2000
    2.2630    0.2170   -0.3210 C   0  0  0  0  0  0  0  0  0  0  0  0
    0.8610    0.3360    0.1950 C   0  0  0  0  0  0  0  0  0  0  0  0
    0.2060   -0.8950    0.1180 O   0  0  0  0  0  0  0  0  0  0  0  0
   -1.0840   -0.8300    0.5820 C   0  0  0  0  0  0  0  0  0  0  0  0
   -1.9510    0.1410   -0.1750 C   0  0  0  0  0  0  0  0  0  0  0  0
  1  2  1  0
  2  3  1  0
  3  4  1  0
  4  5  1  0
M  END
