
     RDKit          3D

  6  5  0  0  0  0  0  0  0  0999 V2000
    1.5710    0.6000    0.9120 C   0  0  0  0  0  0  0  0  0  0  0  0
    1.2310   -0.3260   -0.2020 C   0  0  0  0  0  0  0  0  0  0  0  0
   -0.2430   -0.6550   -0.2890 C   0  0  2  0  0  0  0  0  0  0  0  0
   -0.3810   -1.5330   -1.3870 O   0  0  0  0  0  0  0  0  0  0  0  0
   -1.0310    0.4560   -0.4590 O   0  0  0  0  0  0  0  0  0  0  0  0
   -2.0400    0.5630    0.4920 C   0  0  0  0  0  0  0  0  0  0  0  0
  1  2  1  0
  2  3  1  0
  3  4  1  6
  3  5  1  0
  5  6  1  0
M  END
