
     RDKit          3D

  5  4  0  0  0  0  0  0  0  0999 V2000
    1.9160    0.1160    0.1720 C   0  0  0  0  0  0  0  0  0  0  0  0
    0.5900    0.6040    0.2660 O   0  0  0  0  0  0  0  0  0  0  0  0
   -0.4680   -0.2100   -0.1030 C   0  0  0  0  0  0  0  0  0  0  0  0
   -1.8850    0.1750   -0.0520 C   0  0  0  0  0  0  0  0  0  0  0  0
   -0.1890   -1.3650   -0.5110 O   0  0  0  0  0  0  0  0  0  0  0  0
  1  2  1  0
  2  3  1  0
  3  4  1  0
  3  5  2  0
M  END
