
     RDKit          3D

  9  9  0  0  0  0  0  0  0  0999 V2000
    2.2700    0.3420    0.0280 C   0  0  0  0  0  0  0  0  0  0  0  0
    0.8250   -0.0210    0.0410 C   0  0  0  0  0  0  0  0  0  0  0  0
    0.4950   -1.3670    0.0060 C   0  0  0  0  0  0  0  0  0  0  0  0
   -0.8520   -1.6780    0.0200 C   0  0  0  0  0  0  0  0  0  0  0  0
   -1.7980   -0.6750    0.0660 C   0  0  0  0  0  0  0  0  0  0  0  0
   -1.4120    0.6130    0.0990 N   0  0  0  0  0  0  0  0  0  0  0  0
   -2.3360    1.6260    0.1460 O   0  0  0  0  0  0  0  0  0  0  0  0
   -0.1170    0.9700    0.0880 C   0  0  0  0  0  0  0  0  0  0  0  0
    0.3770    2.5220    0.1270 S   0  0  0  0  0  0  0  0  0  0  0  0
  1  2  1  0
  2  3  2  0
  2  8  1  0
  3  4  1  0
  4  5  2  0
  5  6  1  0
  6  7  1  0
  6  8  1  0
  8  9  2  0
M  END
