
     RDKit          3D

  6  6  0  0  0  0  0  0  0  0999 V2000
   -1.0380   -1.2360   -0.0110 C   0  0  0  0  0  0  0  0  0  0  0  0
   -0.1340    0.0020    0.0170 C   0  0  1  0  0  0  0  0  0  0  0  0
   -0.7990    1.2680   -0.4050 C   0  0  0  0  0  0  0  0  0  0  0  0
    0.6600    0.1620    1.1870 O   0  0  0  0  0  0  0  0  0  0  0  0
    1.2870   -0.2400   -0.0770 C   0  0  2  0  0  0  0  0  0  0  0  0
    2.1890    0.6770   -0.5950 O   0  0  0  0  0  0  0  0  0  0  0  0
  2  1  1  1
  2  3  1  0
  2  4  1  0
  2  5  1  0
  4  5  1  0
  5  6  1  6
M  END
