
     RDKit          3D

  6  6  0  0  0  0  0  0  0  0999 V2000
    1.4660    0.7710   -0.5370 O   0  0  0  0  0  0  0  0  0  0  0  0
    0.1560    0.9050   -0.0350 C   0  0  1  0  0  0  0  0  0  0  0  0
   -0.7140    0.0490   -0.9670 C   0  0  0  0  0  0  0  0  0  0  0  0
   -0.2760   -1.3180   -0.4210 C   0  0  0  0  0  0  0  0  0  0  0  0
   -0.5460   -1.0910    0.9480 O   0  0  0  0  0  0  0  0  0  0  0  0
   -0.0120    0.1320    1.2570 C   0  0  0  0  0  0  0  0  0  0  0  0
  2  1  1  6
  2  3  1  0
  2  6  1  0
  3  4  1  0
  4  5  1  0
  5  6  1  0
M  END
