
     RDKit          3D

  6  6  0  0  0  0  0  0  0  0999 V2000
    1.1440    0.8180    0.3550 C   0  0  0  0  0  0  0  0  0  0  0  0
    1.0820   -0.6510    0.0290 C   0  0  0  0  0  0  0  0  0  0  0  0
    0.0260   -1.2840    0.7150 O   0  0  0  0  0  0  0  0  0  0  0  0
   -1.1460   -0.8350    0.1120 C   0  0  0  0  0  0  0  0  0  0  0  0
   -1.0020    0.6390   -0.2510 C   0  0  0  0  0  0  0  0  0  0  0  0
   -0.1550    1.2300    0.6630 O   0  0  0  0  0  0  0  0  0  0  0  0
  1  2  1  0
  1  6  1  0
  2  3  1  0
  3  4  1  0
  4  5  1  0
  5  6  1  0
M  END
