
     RDKit          3D

  6  6  0  0  0  0  0  0  0  0999 V2000
    1.9400   -0.0740    0.2350 C   0  0  0  0  0  0  0  0  0  0  0  0
    0.6580    0.1470    0.6670 O   0  0  0  0  0  0  0  0  0  0  0  0
   -0.2710    0.2720   -0.3330 C   0  0  1  0  0  0  0  0  0  0  0  0
   -0.0640    1.3200   -1.2450 O   0  0  0  0  0  0  0  0  0  0  0  0
   -1.0440   -0.9170   -0.8320 C   0  0  0  0  0  0  0  0  0  0  0  0
   -1.6990    0.0020    0.1080 C   0  0  0  0  0  0  0  0  0  0  0  0
  1  2  1  0
  2  3  1  0
  3  4  1  6
  3  5  1  0
  3  6  1  0
  5  6  1  0
M  END
