
     RDKit          3D

 13 14  0  0  0  0  0  0  0  0999 V2000
    4.8810    0.1260   -1.4000 O   0  0  0  0  0  0  0  0  0  0  0  0
    3.9110    0.0070   -0.5990 C   0  0  0  0  0  0  0  0  0  0  0  0
    3.9750   -0.2830    0.7100 N   0  0  0  0  0  0  0  0  0  0  0  0
    2.7430   -0.3160    1.1840 N   0  0  0  0  0  0  0  0  0  0  0  0
    1.8560   -0.0530    0.2170 C   0  0  0  0  0  0  0  0  0  0  0  0
    0.4050    0.0150    0.2870 C   0  0  0  0  0  0  0  0  0  0  0  0
   -0.4550   -0.1620    1.3250 C   0  0  0  0  0  0  0  0  0  0  0  0
   -1.7730   -0.0400    1.1170 C   0  0  0  0  0  0  0  0  0  0  0  0
   -2.1990    0.2610   -0.1460 C   0  0  0  0  0  0  0  0  0  0  0  0
   -3.5710    0.4540   -0.6690 C   0  0  0  0  0  0  0  0  0  0  0  0
   -4.1590   -0.7000   -1.1270 O   0  0  0  0  0  0  0  0  0  0  0  0
   -0.6840    0.3780   -1.0850 S   0  0  0  0  0  0  0  0  0  0  0  0
    2.5870    0.1480   -0.8950 N   0  0  0  0  0  0  0  0  0  0  0  0
  1  2  2  0
  2  3  1  0
  2 13  1  0
  3  4  1  0
  4  5  2  0
  5  6  1  0
  5 13  1  0
  6  7  2  0
  6 12  1  0
  7  8  1  0
  8  9  2  0
  9 10  1  0
  9 12  1  0
 10 11  1  0
M  END
