
     RDKit          3D

 13 14  0  0  0  0  0  0  0  0999 V2000
    0.9450    2.0630    0.0070 N   0  0  0  0  0  0  0  0  0  0  0  0
    0.3900    0.7540    0.0410 C   0  0  0  0  0  0  0  0  0  0  0  0
    1.2310   -0.3390    0.0650 C   0  0  0  0  0  0  0  0  0  0  0  0
    2.9720   -0.1770    0.0550 S   0  0  1  0  0  0  0  0  0  0  0  0
    3.4740    0.2210   -1.3030 O   0  0  0  0  0  0  0  0  0  0  0  0
    3.3760    0.8660    1.0250 O   0  0  0  0  0  0  0  0  0  0  0  0
    0.6480   -1.5880    0.0990 C   0  0  0  0  0  0  0  0  0  0  0  0
   -0.7050   -1.7830    0.1080 C   0  0  0  0  0  0  0  0  0  0  0  0
   -1.5240   -0.6790    0.0840 C   0  0  0  0  0  0  0  0  0  0  0  0
   -2.8590   -0.5280    0.0850 N   0  0  0  0  0  0  0  0  0  0  0  0
   -3.1650    0.7890    0.0530 C   0  0  0  0  0  0  0  0  0  0  0  0
   -2.0110    1.4650    0.0320 N   0  0  0  0  0  0  0  0  0  0  0  0
   -0.9860    0.5990    0.0500 C   0  0  0  0  0  0  0  0  0  0  0  0
  1  2  1  0
  2  3  2  0
  2 13  1  0
  4  3  1  6
  3  7  1  0
  4  5  2  0
  4  6  2  0
  7  8  2  0
  8  9  1  0
  9 10  1  0
  9 13  2  0
 10 11  1  0
 11 12  2  0
 12 13  1  0
M  END
