
     RDKit          3D

 13 14  0  0  0  0  0  0  0  0999 V2000
   -1.1710    2.2380    0.1120 N   0  0  0  0  0  0  0  0  0  0  0  0
   -1.1020    0.7940    0.0860 C   0  0  0  0  0  0  0  0  0  0  0  0
   -2.2250    0.1330    0.1560 C   0  0  0  0  0  0  0  0  0  0  0  0
   -2.4510   -1.3150    0.1510 C   0  0  0  0  0  0  0  0  0  0  0  0
   -0.9350   -2.2350    0.0310 S   0  0  0  0  0  0  0  0  0  0  0  0
    0.4340   -1.1340   -0.0510 C   0  0  0  0  0  0  0  0  0  0  0  0
    0.2320    0.2190   -0.0170 C   0  0  0  0  0  0  0  0  0  0  0  0
    1.3290    1.0080   -0.0830 N   0  0  0  0  0  0  0  0  0  0  0  0
    2.5690    0.4960   -0.1780 C   0  0  0  0  0  0  0  0  0  0  0  0
    3.5690    1.2570   -0.2380 O   0  0  0  0  0  0  0  0  0  0  0  0
    2.7630   -0.8320   -0.2110 N   0  0  0  0  0  0  0  0  0  0  0  0
    1.6950   -1.6520   -0.1470 C   0  0  0  0  0  0  0  0  0  0  0  0
    1.9110   -2.9000   -0.1810 O   0  0  0  0  0  0  0  0  0  0  0  0
  1  2  1  0
  2  3  2  0
  2  7  1  0
  3  4  1  0
  4  5  1  0
  5  6  1  0
  6  7  2  0
  6 12  1  0
  7  8  1  0
  8  9  1  0
  9 10  2  0
  9 11  1  0
 11 12  1  0
 12 13  2  0
M  END
