
     RDKit          3D

 13 14  0  0  0  0  0  0  0  0999 V2000
   -3.0380    0.3040    0.9180 N   0  0  0  0  0  0  0  0  0  0  0  0
   -1.9020    0.1550    0.3000 C   0  0  0  0  0  0  0  0  0  0  0  0
   -1.2650    1.2680   -0.1050 N   0  0  0  0  0  0  0  0  0  0  0  0
    0.0460    1.4090   -0.4030 C   0  0  0  0  0  0  0  0  0  0  0  0
    0.3580    2.5290   -0.9130 O   0  0  0  0  0  0  0  0  0  0  0  0
    1.1110    0.4970   -0.2300 C   0  0  0  0  0  0  0  0  0  0  0  0
    2.3280    1.0130   -0.2080 C   0  0  0  0  0  0  0  0  0  0  0  0
    3.5140   -0.3560    0.0240 S   0  0  0  0  0  0  0  0  0  0  0  0
    2.1050   -1.5610    0.0660 C   0  0  0  0  0  0  0  0  0  0  0  0
    1.0090   -0.8340   -0.0880 C   0  0  0  0  0  0  0  0  0  0  0  0
   -0.2160   -1.5550   -0.0880 C   0  0  0  0  0  0  0  0  0  0  0  0
   -0.1360   -2.7910   -0.3140 O   0  0  0  0  0  0  0  0  0  0  0  0
   -1.4670   -1.1060    0.1210 N   0  0  0  0  0  0  0  0  0  0  0  0
  1  2  2  0
  2  3  1  0
  2 13  1  0
  3  4  1  0
  4  5  2  0
  4  6  1  0
  6  7  2  0
  6 10  1  0
  7  8  1  0
  8  9  1  0
  9 10  2  0
 10 11  1  0
 11 12  2  0
 11 13  1  0
M  END
