
     RDKit          3D

 13 14  0  0  0  0  0  0  0  0999 V2000
    3.3050    1.0210   -0.7130 C   0  0  0  0  0  0  0  0  0  0  0  0
    2.8850   -0.3680    0.3330 S   0  0  0  0  0  0  0  0  0  0  0  0
    1.1630   -0.6410    0.5090 C   0  0  0  0  0  0  0  0  0  0  0  0
    0.6980   -1.6740    1.2840 C   0  0  0  0  0  0  0  0  0  0  0  0
   -0.6290   -1.8920    1.4250 N   0  0  0  0  0  0  0  0  0  0  0  0
   -1.5430   -1.1130    0.8190 C   0  0  0  0  0  0  0  0  0  0  0  0
   -2.7720   -1.3180    0.9520 O   0  0  0  0  0  0  0  0  0  0  0  0
   -1.0980   -0.0600    0.0280 C   0  0  0  0  0  0  0  0  0  0  0  0
   -1.7960    0.8860   -0.7010 C   0  0  0  0  0  0  0  0  0  0  0  0
   -3.2180    1.0140   -0.8230 N   0  0  0  0  0  0  0  0  0  0  0  0
   -0.8710    1.6360   -1.2530 O   0  0  0  0  0  0  0  0  0  0  0  0
    0.3250    1.2450   -0.9360 N   0  0  0  0  0  0  0  0  0  0  0  0
    0.2520    0.1710   -0.1230 C   0  0  0  0  0  0  0  0  0  0  0  0
  1  2  1  0
  2  3  1  0
  3  4  2  0
  3 13  1  0
  4  5  1  0
  5  6  1  0
  6  7  2  0
  6  8  1  0
  8  9  2  0
  8 13  1  0
  9 10  1  0
  9 11  1  0
 11 12  1  0
 12 13  2  0
M  END
