
     RDKit          3D

  9  9  0  0  0  0  0  0  0  0999 V2000
    2.4820   -0.2110    0.0510 C   0  0  0  0  0  0  0  0  0  0  0  0
    1.0100   -0.0760   -0.0150 C   0  0  0  0  0  0  0  0  0  0  0  0
    0.4310    1.1730   -0.0310 C   0  0  0  0  0  0  0  0  0  0  0  0
   -0.9670    1.2720   -0.0940 C   0  0  0  0  0  0  0  0  0  0  0  0
   -1.7650    0.1930   -0.1380 N   0  0  0  0  0  0  0  0  0  0  0  0
   -3.1360    0.3820   -0.1990 O   0  0  0  0  0  0  0  0  0  0  0  0
   -1.2080   -1.0260   -0.1220 C   0  0  0  0  0  0  0  0  0  0  0  0
   -2.1500   -2.3570   -0.1750 S   0  0  0  0  0  0  0  0  0  0  0  0
    0.1850   -1.1710   -0.0600 C   0  0  0  0  0  0  0  0  0  0  0  0
  1  2  1  0
  2  3  1  0
  2  9  2  0
  3  4  2  0
  4  5  1  0
  5  6  1  0
  5  7  1  0
  7  8  2  0
  7  9  1  0
M  END
