
     RDKit          3D

 13 14  0  0  0  0  0  0  0  0999 V2000
    3.2450   -0.5720    0.3340 C   0  0  0  0  0  0  0  0  0  0  0  0
    1.7800   -0.5270    0.2890 C   0  0  0  0  0  0  0  0  0  0  0  0
    0.7080   -1.8470    0.9420 S   0  0  0  0  0  0  0  0  0  0  0  0
   -0.8520   -1.0120    0.4950 C   0  0  0  0  0  0  0  0  0  0  0  0
   -2.1690   -1.3760    0.6600 C   0  0  0  0  0  0  0  0  0  0  0  0
   -2.4330   -2.4630    1.2060 O   0  0  0  0  0  0  0  0  0  0  0  0
   -3.1510   -0.5510    0.2270 N   0  0  0  0  0  0  0  0  0  0  0  0
   -2.7660    0.5970   -0.3490 C   0  0  0  0  0  0  0  0  0  0  0  0
   -3.6750    1.4170   -0.7790 O   0  0  0  0  0  0  0  0  0  0  0  0
   -1.4930    0.9330   -0.5000 N   0  0  0  0  0  0  0  0  0  0  0  0
   -0.4200    0.1640   -0.0950 C   0  0  0  0  0  0  0  0  0  0  0  0
    0.9030    0.3790   -0.1830 C   0  0  0  0  0  0  0  0  0  0  0  0
    1.4630    1.5970   -0.7920 N   0  0  0  0  0  0  0  0  0  0  0  0
  1  2  1  0
  2  3  1  0
  2 12  2  0
  3  4  1  0
  4  5  1  0
  4 11  2  0
  5  6  2  0
  5  7  1  0
  7  8  1  0
  8  9  2  0
  8 10  1  0
 10 11  1  0
 11 12  1  0
 12 13  1  0
M  END
