
     RDKit          3D

 13 14  0  0  0  0  0  0  0  0999 V2000
   -1.4470   -2.5050    0.5070 O   0  0  0  0  0  0  0  0  0  0  0  0
   -1.3980   -1.2890    0.2380 C   0  0  0  0  0  0  0  0  0  0  0  0
   -2.5510   -0.5780    0.0840 N   0  0  0  0  0  0  0  0  0  0  0  0
   -2.4740    0.7280   -0.2050 C   0  0  0  0  0  0  0  0  0  0  0  0
   -3.8400    1.6160   -0.3990 S   0  0  0  0  0  0  0  0  0  0  0  0
   -1.2840    1.3450   -0.3440 N   0  0  0  0  0  0  0  0  0  0  0  0
   -0.1140    0.6670   -0.1960 C   0  0  0  0  0  0  0  0  0  0  0  0
    1.0750    1.2960   -0.3380 N   0  0  0  0  0  0  0  0  0  0  0  0
    2.2480    0.6350   -0.1940 C   0  0  0  0  0  0  0  0  0  0  0  0
    3.4740    1.2720   -0.3370 O   0  0  0  0  0  0  0  0  0  0  0  0
    2.2160   -0.7120    0.1040 C   0  0  0  0  0  0  0  0  0  0  0  0
    1.0060   -1.3840    0.2550 C   0  0  0  0  0  0  0  0  0  0  0  0
   -0.1690   -0.6780    0.1010 C   0  0  0  0  0  0  0  0  0  0  0  0
  1  2  2  0
  2  3  1  0
  2 13  1  0
  3  4  1  0
  4  5  2  0
  4  6  1  0
  6  7  1  0
  7  8  2  0
  7 13  1  0
  8  9  1  0
  9 10  1  0
  9 11  2  0
 11 12  1  0
 12 13  2  0
M  END
