
     RDKit          3D

  9  9  0  0  0  0  0  0  0  0999 V2000
   -2.3540   -0.3750    0.0590 C   0  0  0  0  0  0  0  0  0  0  0  0
   -0.9050   -0.0160    0.0370 C   0  0  0  0  0  0  0  0  0  0  0  0
   -0.5310    1.3060   -0.1290 C   0  0  0  0  0  0  0  0  0  0  0  0
    0.8040    1.6110   -0.1460 C   0  0  0  0  0  0  0  0  0  0  0  0
    1.7320    0.6100    0.0000 C   0  0  0  0  0  0  0  0  0  0  0  0
    3.3190    0.9740   -0.0200 S   0  0  0  0  0  0  0  0  0  0  0  0
    1.3780   -0.6630    0.1600 N   0  0  0  0  0  0  0  0  0  0  0  0
    2.3390   -1.6470    0.3050 O   0  0  0  0  0  0  0  0  0  0  0  0
    0.0740   -0.9860    0.1800 C   0  0  0  0  0  0  0  0  0  0  0  0
  1  2  1  0
  2  3  1  0
  2  9  2  0
  3  4  2  0
  4  5  1  0
  5  6  2  0
  5  7  1  0
  7  8  1  0
  7  9  1  0
M  END
