
     RDKit          3D

 20 21  0  0  0  0  0  0  0  0999 V2000
   -7.5820    0.6510    0.0580 C   0  0  0  0  0  0  0  0  0  0  0  0
   -6.1010    0.3830    0.1860 C   0  0  0  0  0  0  0  0  0  0  0  0
   -5.4190   -0.4180    1.0520 C   0  0  0  0  0  0  0  0  0  0  0  0
   -4.0800   -0.4540    0.9210 C   0  0  0  0  0  0  0  0  0  0  0  0
   -3.4840    0.2590   -0.0070 C   0  0  0  0  0  0  0  0  0  0  0  0
   -2.0770    0.4450   -0.4130 C   0  0  0  0  0  0  0  0  0  0  0  0
   -1.8050    1.2160   -1.3680 O   0  0  0  0  0  0  0  0  0  0  0  0
   -1.0140   -0.2110    0.2310 N   0  0  0  0  0  0  0  0  0  0  0  0
    0.3380   -0.0020   -0.1940 C   0  0  0  0  0  0  0  0  0  0  0  0
    0.6190    0.7620   -1.1430 O   0  0  0  0  0  0  0  0  0  0  0  0
    1.3750   -0.6390    0.4320 O   0  0  0  0  0  0  0  0  0  0  0  0
    2.7020   -0.5150    0.1100 C   0  0  0  0  0  0  0  0  0  0  0  0
    3.3440   -1.3130   -0.7960 C   0  0  0  0  0  0  0  0  0  0  0  0
    4.6730   -1.0890   -1.0310 C   0  0  0  0  0  0  0  0  0  0  0  0
    5.3980   -0.0990   -0.4030 C   0  0  0  0  0  0  0  0  0  0  0  0
    6.7800    0.1300   -0.6520 N   0  0  0  0  0  0  0  0  0  0  0  0
    6.9710   -0.0180   -1.9930 O   0  0  0  0  0  0  0  0  0  0  0  0
    4.7580    0.6990    0.5010 C   0  0  0  0  0  0  0  0  0  0  0  0
    3.4130    0.4920    0.7580 C   0  0  0  0  0  0  0  0  0  0  0  0
   -4.8530    1.0770   -0.8060 S   0  0  0  0  0  0  0  0  0  0  0  0
  1  2  1  0
  2  3  2  0
  2 20  1  0
  3  4  1  0
  4  5  2  0
  5  6  1  0
  5 20  1  0
  6  7  2  0
  6  8  1  0
  8  9  1  0
  9 10  2  0
  9 11  1  0
 11 12  1  0
 12 13  2  0
 12 19  1  0
 13 14  1  0
 14 15  2  0
 15 16  1  0
 15 18  1  0
 16 17  1  0
 18 19  2  0
M  CHG  2  16   1  17  -1
M  END
