
     RDKit          3D

 23 25  0  0  0  0  0  0  0  0999 V2000
    3.7530   -2.9980    0.3470 C   0  0  0  0  0  0  0  0  0  0  0  0
    4.0420   -1.7250    0.5890 C   0  0  0  0  0  0  0  0  0  0  0  0
    3.2120   -0.7130   -0.0040 C   0  0  0  0  0  0  0  0  0  0  0  0
    3.4090    0.5850    0.1710 C   0  0  0  0  0  0  0  0  0  0  0  0
    2.6060    1.5390   -0.4020 O   0  0  0  0  0  0  0  0  0  0  0  0
    1.6610    1.1780   -1.3790 C   0  0  0  0  0  0  0  0  0  0  0  0
    0.8840    2.3810   -1.8770 C   0  0  0  0  0  0  0  0  0  0  0  0
    0.1310    3.0710   -0.7850 C   0  0  0  0  0  0  0  0  0  0  0  0
   -0.8860    2.1750   -0.0980 C   0  0  0  0  0  0  0  0  0  0  0  0
   -1.8760    1.7200   -1.0920 C   0  0  0  0  0  0  0  0  0  0  0  0
   -1.9310    2.3530   -2.1910 O   0  0  0  0  0  0  0  0  0  0  0  0
   -2.7730    0.6350   -0.9230 N   0  0  0  0  0  0  0  0  0  0  0  0
   -3.7710    0.1730   -1.8800 C   0  0  0  0  0  0  0  0  0  0  0  0
   -4.0130   -1.2480   -1.4880 C   0  0  0  0  0  0  0  0  0  0  0  0
   -3.3110   -1.5360   -0.2060 C   0  0  2  0  0  0  0  0  0  0  0  0
   -4.1680   -2.0360    0.9080 C   0  0  0  0  0  0  0  0  0  0  0  0
   -3.3620   -2.2610    2.0110 O   0  0  0  0  0  0  0  0  0  0  0  0
   -2.7140   -1.1570    2.5020 C   0  0  0  0  0  0  0  0  0  0  0  0
   -2.5540   -0.0630    1.5140 C   0  0  0  0  0  0  0  0  0  0  0  0
   -2.8170   -0.1810    0.2380 C   0  0  0  0  0  0  0  0  0  0  0  0
    4.5420    0.9510    1.0190 C   0  0  0  0  0  0  0  0  0  0  0  0
    5.3360    0.0750    1.5880 C   0  0  0  0  0  0  0  0  0  0  0  0
    5.1830   -1.3790    1.4420 C   0  0  0  0  0  0  0  0  0  0  0  0
  1  2  2  0
  2  3  1  0
  2 23  1  0
  3  4  2  0
  4  5  1  0
  4 21  1  0
  5  6  1  0
  6  7  1  0
  7  8  1  0
  8  9  1  0
  9 10  1  0
 10 11  2  0
 10 12  1  0
 12 13  1  0
 12 20  1  0
 13 14  1  0
 15 14  1  6
 15 16  1  0
 15 20  1  0
 16 17  1  0
 17 18  1  0
 18 19  1  0
 19 20  2  0
 21 22  2  0
 22 23  1  0
M  END
