
     RDKit          3D

 20 21  0  0  0  0  0  0  0  0999 V2000
    0.9800    1.8690   -1.8680 C   0  0  0  0  0  0  0  0  0  0  0  0
    1.7080    1.1200   -0.7920 C   0  0  0  0  0  0  0  0  0  0  0  0
    3.4180    0.7270   -0.7700 S   0  0  0  0  0  0  0  0  0  0  0  0
    3.4590   -0.0990    0.7630 C   0  0  0  0  0  0  0  0  0  0  0  0
    4.6230   -0.7400    1.4720 C   0  0  0  0  0  0  0  0  0  0  0  0
    5.7990   -0.6440    0.6770 N   0  0  0  0  0  0  0  0  0  0  0  0
    5.7620   -0.1770   -0.4590 O   0  0  0  0  0  0  0  0  0  0  0  0
    6.9700   -1.1080    1.2270 O   0  0  0  0  0  0  0  0  0  0  0  0
    2.1510   -0.0330    1.1820 C   0  0  0  0  0  0  0  0  0  0  0  0
    1.2690    0.5870    0.3850 C   0  0  0  0  0  0  0  0  0  0  0  0
   -0.1960    0.6200    0.7400 C   0  0  0  0  0  0  0  0  0  0  0  0
   -0.5950    1.2830    1.6910 O   0  0  0  0  0  0  0  0  0  0  0  0
   -1.0920   -0.1500   -0.0410 N   0  0  0  0  0  0  0  0  0  0  0  0
   -2.4980   -0.2540    0.1340 C   0  0  0  0  0  0  0  0  0  0  0  0
   -3.1960    0.6250    0.9590 C   0  0  0  0  0  0  0  0  0  0  0  0
   -4.5630    0.5490    1.1270 C   0  0  0  0  0  0  0  0  0  0  0  0
   -5.2840   -0.4170    0.4730 C   0  0  0  0  0  0  0  0  0  0  0  0
   -4.6120   -1.2990   -0.3510 C   0  0  0  0  0  0  0  0  0  0  0  0
   -3.2230   -1.2260   -0.5260 C   0  0  0  0  0  0  0  0  0  0  0  0
   -2.6220   -2.1280   -1.3570 O   0  0  0  0  0  0  0  0  0  0  0  0
  1  2  1  0
  2  3  1  0
  2 10  2  0
  3  4  1  0
  4  5  1  0
  4  9  2  0
  5  6  1  0
  6  7  2  0
  6  8  1  0
  9 10  1  0
 10 11  1  0
 11 12  2  0
 11 13  1  0
 13 14  1  0
 14 15  2  0
 14 19  1  0
 15 16  1  0
 16 17  2  0
 17 18  1  0
 18 19  2  0
 19 20  1  0
M  CHG  2   6   1   8  -1
M  END
