
     RDKit          3D

 20 21  0  0  0  0  0  0  0  0999 V2000
    5.4150    2.4430   -0.1060 C   0  0  0  0  0  0  0  0  0  0  0  0
    4.2110    1.7240   -0.0600 O   0  0  0  0  0  0  0  0  0  0  0  0
    4.1340    0.3420    0.0160 C   0  0  0  0  0  0  0  0  0  0  0  0
    5.1910   -0.3320    0.0460 O   0  0  0  0  0  0  0  0  0  0  0  0
    2.8310   -0.2670    0.0570 C   0  0  0  0  0  0  0  0  0  0  0  0
    1.2640    0.5900    0.0190 S   0  0  0  0  0  0  0  0  0  0  0  0
    0.2440   -0.9050    0.1060 C   0  0  0  0  0  0  0  0  0  0  0  0
   -1.1610   -0.9280    0.1160 N   0  0  0  0  0  0  0  0  0  0  0  0
   -1.8900    0.2760    0.0550 C   0  0  0  0  0  0  0  0  0  0  0  0
   -1.2080    1.3660   -0.0090 O   0  0  0  0  0  0  0  0  0  0  0  0
   -3.3240    0.4000    0.0560 C   0  0  0  0  0  0  0  0  0  0  0  0
   -3.8780    1.6890   -0.0100 C   0  0  0  0  0  0  0  0  0  0  0  0
   -5.2210    1.9360   -0.0160 C   0  0  0  0  0  0  0  0  0  0  0  0
   -6.0760    0.8710    0.0470 C   0  0  0  0  0  0  0  0  0  0  0  0
   -5.5280   -0.3770    0.1110 C   0  0  0  0  0  0  0  0  0  0  0  0
   -4.1940   -0.5930    0.1150 N   0  0  0  0  0  0  0  0  0  0  0  0
   -3.7480   -1.8880    0.1830 O   0  0  0  0  0  0  0  0  0  0  0  0
    1.1830   -1.9070    0.1550 C   0  0  0  0  0  0  0  0  0  0  0  0
    2.4760   -1.6010    0.1310 C   0  0  0  0  0  0  0  0  0  0  0  0
    3.5760   -2.6400    0.1810 C   0  0  0  0  0  0  0  0  0  0  0  0
  1  2  1  0
  2  3  1  0
  3  4  2  0
  3  5  1  0
  5  6  1  0
  5 19  2  0
  6  7  1  0
  7  8  1  0
  7 18  2  0
  8  9  1  0
  9 10  2  0
  9 11  1  0
 11 12  2  0
 11 16  1  0
 12 13  1  0
 13 14  2  0
 14 15  1  0
 15 16  2  0
 16 17  1  0
 18 19  1  0
 19 20  1  0
M  CHG  2  16   1  17  -1
M  END
