
     RDKit          3D

 20 21  0  0  0  0  0  0  0  0999 V2000
    5.3250    1.9130    0.8840 N   0  0  0  0  0  0  0  0  0  0  0  0
    4.3320    0.9120    0.7930 C   0  0  0  0  0  0  0  0  0  0  0  0
    4.3660   -0.0440    1.5950 O   0  0  0  0  0  0  0  0  0  0  0  0
    3.2920    1.0010   -0.2170 C   0  0  0  0  0  0  0  0  0  0  0  0
    2.3220   -0.1180   -0.1910 C   0  0  0  0  0  0  0  0  0  0  0  0
    2.6260   -1.2300   -0.9500 C   0  0  0  0  0  0  0  0  0  0  0  0
    1.7570   -2.3010   -0.9610 C   0  0  0  0  0  0  0  0  0  0  0  0
    0.6270   -2.2390   -0.2300 N   0  0  0  0  0  0  0  0  0  0  0  0
   -0.1780   -3.3480   -0.2920 O   0  0  0  0  0  0  0  0  0  0  0  0
    0.2740   -1.1900    0.5260 C   0  0  0  0  0  0  0  0  0  0  0  0
   -1.2250   -1.1290    1.4940 S   0  0  0  0  0  0  0  0  0  0  0  0
   -2.5910   -0.4000    0.6150 C   0  0  0  0  0  0  0  0  0  0  0  0
   -2.7240    0.9740    0.6390 C   0  0  0  0  0  0  0  0  0  0  0  0
   -3.7450    1.6410   -0.0020 C   0  0  0  0  0  0  0  0  0  0  0  0
   -3.8830    3.0230    0.0180 O   0  0  0  0  0  0  0  0  0  0  0  0
   -4.6580    0.8670   -0.6890 C   0  0  0  0  0  0  0  0  0  0  0  0
   -4.5420   -0.5120   -0.7240 C   0  0  0  0  0  0  0  0  0  0  0  0
   -3.5050   -1.1650   -0.0710 C   0  0  0  0  0  0  0  0  0  0  0  0
   -3.4600   -2.5350   -0.1490 O   0  0  0  0  0  0  0  0  0  0  0  0
    1.1660   -0.1080    0.5290 C   0  0  0  0  0  0  0  0  0  0  0  0
  1  2  1  0
  2  3  2  0
  2  4  1  0
  4  5  1  0
  5  6  2  0
  5 20  1  0
  6  7  1  0
  7  8  2  0
  8  9  1  0
  8 10  1  0
 10 11  1  0
 10 20  2  0
 11 12  1  0
 12 13  2  0
 12 18  1  0
 13 14  1  0
 14 15  1  0
 14 16  2  0
 16 17  1  0
 17 18  2  0
 18 19  1  0
M  CHG  2   8   1   9  -1
M  END
