
     RDKit          3D

 23 25  0  0  0  0  0  0  0  0999 V2000
    6.6430   -0.9080    0.8130 C   0  0  0  0  0  0  0  0  0  0  0  0
    6.0270   -0.0210   -0.2260 C   0  0  0  0  0  0  0  0  0  0  0  0
    6.7220    0.5130   -1.1460 N   0  0  0  0  0  0  0  0  0  0  0  0
    4.5960    0.2110   -0.1470 C   0  0  0  0  0  0  0  0  0  0  0  0
    3.8820    1.0040   -1.0300 C   0  0  0  0  0  0  0  0  0  0  0  0
    2.5010    1.1900   -0.9030 C   0  0  0  0  0  0  0  0  0  0  0  0
    1.8110    0.5910    0.1050 C   0  0  0  0  0  0  0  0  0  0  0  0
    0.4470    0.7230    0.3020 O   0  0  0  0  0  0  0  0  0  0  0  0
   -0.3920   -0.1850   -0.3180 C   0  0  0  0  0  0  0  0  0  0  0  0
    0.1290   -1.0810   -1.0250 O   0  0  0  0  0  0  0  0  0  0  0  0
   -1.8380   -0.1490   -0.1870 C   0  0  0  0  0  0  0  0  0  0  0  0
   -2.4310    0.7830    0.5530 C   0  0  0  0  0  0  0  0  0  0  0  0
   -3.8790    0.8110    0.6770 C   0  0  0  0  0  0  0  0  0  0  0  0
   -4.4780    1.8960    1.5320 C   0  0  0  0  0  0  0  0  0  0  0  0
   -4.6580   -0.0770    0.0690 C   0  0  0  0  0  0  0  0  0  0  0  0
   -6.0940   -0.2830    0.0180 C   0  0  0  0  0  0  0  0  0  0  0  0
   -6.3130   -1.3430   -0.7590 C   0  0  0  0  0  0  0  0  0  0  0  0
   -5.0690   -1.8780   -1.2490 C   0  0  0  0  0  0  0  0  0  0  0  0
   -4.0810   -1.1330   -0.7620 C   0  0  0  0  0  0  0  0  0  0  0  0
   -2.6290   -1.1540   -0.8820 C   0  0  0  0  0  0  0  0  0  0  0  0
   -2.1180   -2.0600   -1.5960 O   0  0  0  0  0  0  0  0  0  0  0  0
    2.5440   -0.1970    0.9770 C   0  0  0  0  0  0  0  0  0  0  0  0
    3.8850   -0.3920    0.8720 C   0  0  0  0  0  0  0  0  0  0  0  0
  1  2  1  0
  2  3  2  0
  2  4  1  0
  4  5  2  0
  4 23  1  0
  5  6  1  0
  6  7  2  0
  7  8  1  0
  7 22  1  0
  8  9  1  0
  9 10  2  0
  9 11  1  0
 11 12  2  0
 11 20  1  0
 12 13  1  0
 13 14  1  0
 13 15  2  0
 15 16  1  0
 15 19  1  0
 16 17  2  0
 17 18  1  0
 18 19  2  0
 19 20  1  0
 20 21  2  0
 22 23  2  0
M  END
