
     RDKit          3D

 31 33  0  0  0  0  0  0  0  0999 V2000
   -8.3360    1.3800   -0.3110 N   0  0  0  0  0  0  0  0  0  0  0  0
   -7.0440    1.5600    0.2670 C   0  0  0  0  0  0  0  0  0  0  0  0
   -6.3700    0.2840    0.6860 C   0  0  0  0  0  0  0  0  0  0  0  0
   -6.1490   -0.6780   -0.4440 C   0  0  2  0  0  0  0  0  0  0  0  0
   -7.3520   -1.0600   -1.0520 O   0  0  0  0  0  0  0  0  0  0  0  0
   -5.5810   -1.9570    0.1690 C   0  0  0  0  0  0  0  0  0  0  0  0
   -4.3400   -1.7640    0.8420 N   0  0  0  0  0  0  0  0  0  0  0  0
   -3.1580   -1.2730    0.1860 C   0  0  0  0  0  0  0  0  0  0  0  0
   -3.2300   -1.0080   -1.0190 O   0  0  0  0  0  0  0  0  0  0  0  0
   -1.9470   -1.0900    0.8670 N   0  0  0  0  0  0  0  0  0  0  0  0
   -0.7180   -0.6290    0.3760 C   0  0  0  0  0  0  0  0  0  0  0  0
    0.3590   -0.4180    1.2330 C   0  0  0  0  0  0  0  0  0  0  0  0
    1.5760    0.0280    0.7710 C   0  0  0  0  0  0  0  0  0  0  0  0
    1.7930    0.2920   -0.5670 C   0  0  0  0  0  0  0  0  0  0  0  0
    3.0610    0.7530   -1.0160 N   0  0  0  0  0  0  0  0  0  0  0  0
    3.2390    1.9830   -1.5470 C   0  0  0  0  0  0  0  0  0  0  0  0
    4.5670    2.1260   -1.8800 C   0  0  0  0  0  0  0  0  0  0  0  0
    5.1970    0.9430   -1.5360 C   0  0  0  0  0  0  0  0  0  0  0  0
    4.2470    0.1180   -1.0070 C   0  0  0  0  0  0  0  0  0  0  0  0
    4.4110   -1.2630   -0.4890 C   0  0  0  0  0  0  0  0  0  0  0  0
    5.7770   -1.5770   -0.4490 O   0  0  0  0  0  0  0  0  0  0  0  0
    6.6160   -0.8070    0.3400 C   0  0  0  0  0  0  0  0  0  0  0  0
    6.1420    0.2250    1.0590 N   0  0  0  0  0  0  0  0  0  0  0  0
    7.0230    0.9260    1.8030 C   0  0  0  0  0  0  0  0  0  0  0  0
    6.6000    1.8970    2.4850 O   0  0  0  0  0  0  0  0  0  0  0  0
    8.3240    0.5990    1.8180 N   0  0  0  0  0  0  0  0  0  0  0  0
    8.8300   -0.4020    1.1290 N   0  0  0  0  0  0  0  0  0  0  0  0
    7.9440   -1.1140    0.3770 C   0  0  0  0  0  0  0  0  0  0  0  0
    8.4350   -2.0740   -0.2820 O   0  0  0  0  0  0  0  0  0  0  0  0
    0.7250    0.0820   -1.4050 C   0  0  0  0  0  0  0  0  0  0  0  0
   -0.5110   -0.3710   -0.9450 C   0  0  0  0  0  0  0  0  0  0  0  0
  1  2  1  0
  2  3  1  0
  3  4  1  0
  4  5  1  1
  4  6  1  0
  6  7  1  0
  7  8  1  0
  8  9  2  0
  8 10  1  0
 10 11  1  0
 11 12  2  0
 11 31  1  0
 12 13  1  0
 13 14  2  0
 14 15  1  0
 14 30  1  0
 15 16  1  0
 15 19  1  0
 16 17  2  0
 17 18  1  0
 18 19  2  0
 19 20  1  0
 20 21  1  0
 21 22  1  0
 22 23  2  0
 22 28  1  0
 23 24  1  0
 24 25  2  0
 24 26  1  0
 26 27  1  0
 27 28  1  0
 28 29  2  0
 30 31  2  0
M  CHG  1   1   1
M  END
