
     RDKit          3D

 27 30  0  0  0  0  0  0  0  0999 V2000
    0.2980    1.0770   -2.7820 C   0  0  0  0  0  0  0  0  0  0  0  0
    0.2630    0.9700   -1.3030 C   0  0  0  0  0  0  0  0  0  0  0  0
    1.3560    0.7710   -0.6640 N   0  0  0  0  0  0  0  0  0  0  0  0
    1.4310    0.6550    0.7510 C   0  0  0  0  0  0  0  0  0  0  0  0
    2.5830    0.4500    1.3450 C   0  0  0  0  0  0  0  0  0  0  0  0
    3.8310    0.3340    0.5590 C   0  0  0  0  0  0  0  0  0  0  0  0
    4.9470    0.1300    1.2040 C   0  0  0  0  0  0  0  0  0  0  0  0
    6.2030    0.0090    0.4850 C   0  0  0  0  0  0  0  0  0  0  0  0
    7.3690   -0.2090    1.2220 C   0  0  0  0  0  0  0  0  0  0  0  0
    8.5920   -0.3330    0.6100 C   0  0  0  0  0  0  0  0  0  0  0  0
    8.6660   -0.2440   -0.7280 N   0  0  0  0  0  0  0  0  0  0  0  0
    7.5810   -0.0360   -1.4860 C   0  0  0  0  0  0  0  0  0  0  0  0
    6.3420    0.0910   -0.8780 C   0  0  0  0  0  0  0  0  0  0  0  0
    0.1800    0.7740    1.4890 C   0  0  0  0  0  0  0  0  0  0  0  0
    0.1740    0.6810    2.7500 O   0  0  0  0  0  0  0  0  0  0  0  0
   -0.9970    0.9950    0.7240 N   0  0  0  0  0  0  0  0  0  0  0  0
   -0.9890    1.0900   -0.5600 C   0  0  0  0  0  0  0  0  0  0  0  0
   -2.1940    1.3180   -1.2590 N   0  0  0  0  0  0  0  0  0  0  0  0
   -3.4130    0.7200   -0.8590 C   0  0  0  0  0  0  0  0  0  0  0  0
   -3.5850   -0.1530    0.1800 C   0  0  0  0  0  0  0  0  0  0  0  0
   -4.8330   -0.6950    0.5250 C   0  0  0  0  0  0  0  0  0  0  0  0
   -5.9470   -0.3500   -0.1990 C   0  0  0  0  0  0  0  0  0  0  0  0
   -5.7560    0.5310   -1.2420 C   0  0  0  0  0  0  0  0  0  0  0  0
   -4.5540    1.0340   -1.5500 N   0  0  0  0  0  0  0  0  0  0  0  0
   -7.1690   -1.0230    0.3140 C   0  0  0  0  0  0  0  0  0  0  0  0
   -6.6020   -2.1270    1.1950 C   0  0  0  0  0  0  0  0  0  0  0  0
   -5.2270   -1.6430    1.5970 C   0  0  0  0  0  0  0  0  0  0  0  0
  1  2  1  0
  2  3  2  0
  2 17  1  0
  3  4  1  0
  4  5  2  3
  4 14  1  0
  5  6  1  0
  6  7  2  3
  7  8  1  0
  8  9  2  0
  8 13  1  0
  9 10  1  0
 10 11  2  0
 11 12  1  0
 12 13  2  0
 14 15  2  0
 14 16  1  0
 16 17  2  0
 17 18  1  0
 18 19  1  0
 19 20  2  0
 19 24  1  0
 20 21  1  0
 21 22  2  0
 21 27  1  0
 22 23  1  0
 22 25  1  0
 23 24  2  0
 25 26  1  0
 26 27  1  0
M  END
