
     RDKit          3D

 27 30  0  0  0  0  0  0  0  0999 V2000
   -5.6330   -0.0550   -1.6550 C   0  0  0  0  0  0  0  0  0  0  0  0
   -4.5820   -0.7590   -0.9130 N   0  0  0  0  0  0  0  0  0  0  0  0
   -3.3980   -1.2590   -1.5710 C   0  0  0  0  0  0  0  0  0  0  0  0
   -3.3390   -1.6150   -2.8680 C   0  0  0  0  0  0  0  0  0  0  0  0
   -2.1940   -2.1240   -3.4890 C   0  0  0  0  0  0  0  0  0  0  0  0
   -1.0580   -2.2780   -2.7660 C   0  0  0  0  0  0  0  0  0  0  0  0
   -1.0570   -1.8990   -1.3580 C   0  0  0  0  0  0  0  0  0  0  0  0
   -2.2320   -1.4090   -0.8320 C   0  0  0  0  0  0  0  0  0  0  0  0
    0.1850   -2.1300   -0.8910 C   0  0  0  0  0  0  0  0  0  0  0  0
    0.8050   -1.5940    0.3540 C   0  0  0  0  0  0  0  0  0  0  0  0
    1.2800   -2.1890    1.3010 O   0  0  0  0  0  0  0  0  0  0  0  0
    0.8950   -0.1390    0.4330 N   0  0  0  0  0  0  0  0  0  0  0  0
    1.4210    0.7600    1.3230 C   0  0  0  0  0  0  0  0  0  0  0  0
    2.3320    0.4790    2.3690 C   0  0  0  0  0  0  0  0  0  0  0  0
    2.9020    1.4660    3.1300 C   0  0  0  0  0  0  0  0  0  0  0  0
    3.7820    1.1870    4.1830 C   0  0  0  0  0  0  0  0  0  0  0  0
    4.2890    2.1920    4.9110 C   0  0  0  0  0  0  0  0  0  0  0  0
    4.0360    3.5470    4.7300 C   0  0  0  0  0  0  0  0  0  0  0  0
    3.1520    3.7950    3.6590 C   0  0  0  0  0  0  0  0  0  0  0  0
    2.6190    2.7870    2.9100 C   0  0  0  0  0  0  0  0  0  0  0  0
    1.7060    3.1210    1.8850 C   0  0  0  0  0  0  0  0  0  0  0  0
    1.1660    2.1150    1.1640 C   0  0  0  0  0  0  0  0  0  0  0  0
    0.0010    2.4350    0.1490 C   0  0  0  0  0  0  0  0  0  0  0  0
   -0.5890    2.6000   -0.3850 N   0  0  0  0  0  0  0  0  0  0  0  0
    0.8670   -2.6450   -1.9250 N   0  0  0  0  0  0  0  0  0  0  0  0
    0.2110   -2.7450   -2.9890 N   0  0  0  0  0  0  0  0  0  0  0  0
    0.5830   -3.2400   -4.3590 C   0  0  0  0  0  0  0  0  0  0  0  0
  1  2  1  0
  2  3  1  0
  3  4  2  0
  3  8  1  0
  4  5  1  0
  5  6  2  0
  6  7  1  0
  6 26  1  0
  7  8  2  0
  7  9  1  0
  9 10  1  0
  9 25  2  0
 10 11  2  0
 10 12  1  0
 12 13  1  0
 13 14  2  0
 13 22  1  0
 14 15  1  0
 15 16  2  0
 15 20  1  0
 16 17  1  0
 17 18  2  0
 18 19  1  0
 19 20  2  0
 20 21  1  0
 21 22  2  0
 22 23  1  0
 23 24  3  0
 25 26  1  0
 26 27  1  0
M  END
