
     RDKit          3D

 27 30  0  0  0  0  0  0  0  0999 V2000
    6.5550    1.1200    0.2230 C   0  0  0  0  0  0  0  0  0  0  0  0
    6.2830   -0.1400   -0.5630 C   0  0  0  0  0  0  0  0  0  0  0  0
    4.8780   -0.3270   -0.7750 N   0  0  0  0  0  0  0  0  0  0  0  0
    3.9550   -0.5030    0.2730 C   0  0  0  0  0  0  0  0  0  0  0  0
    4.3990   -0.5640    1.5760 C   0  0  0  0  0  0  0  0  0  0  0  0
    3.4490   -0.7350    2.5710 C   0  0  0  0  0  0  0  0  0  0  0  0
    2.1050   -0.8420    2.2730 C   0  0  0  0  0  0  0  0  0  0  0  0
    1.6490   -0.7830    0.9720 C   0  0  0  0  0  0  0  0  0  0  0  0
    0.2580   -0.8940    0.6710 N   0  0  0  0  0  0  0  0  0  0  0  0
   -0.4160    0.1800    0.3370 N   0  0  0  0  0  0  0  0  0  0  0  0
   -1.7380    0.1550    0.0380 C   0  0  0  0  0  0  0  0  0  0  0  0
   -2.4170    1.4060   -0.3270 C   0  0  0  0  0  0  0  0  0  0  0  0
   -2.4940    2.4700    0.5450 C   0  0  0  0  0  0  0  0  0  0  0  0
   -3.1370    3.6520    0.1980 C   0  0  0  0  0  0  0  0  0  0  0  0
   -3.6890    3.7260   -1.0320 N   0  0  0  0  0  0  0  0  0  0  0  0
   -3.6440    2.7250   -1.9170 C   0  0  0  0  0  0  0  0  0  0  0  0
   -3.0080    1.5600   -1.5690 C   0  0  0  0  0  0  0  0  0  0  0  0
   -2.4460   -1.0260    0.0740 C   0  0  0  0  0  0  0  0  0  0  0  0
   -3.8670   -1.1050   -0.2390 C   0  0  0  0  0  0  0  0  0  0  0  0
   -4.8970   -0.4740    0.4670 C   0  0  0  0  0  0  0  0  0  0  0  0
   -6.0670   -0.8180   -0.1680 C   0  0  0  0  0  0  0  0  0  0  0  0
   -5.8100   -1.6160   -1.2140 N   0  0  0  0  0  0  0  0  0  0  0  0
   -4.4810   -1.7970   -1.2670 C   0  0  0  0  0  0  0  0  0  0  0  0
   -1.7570   -2.1650    0.4230 C   0  0  0  0  0  0  0  0  0  0  0  0
   -0.4010   -2.0680    0.7170 C   0  0  0  0  0  0  0  0  0  0  0  0
    0.2530   -3.0800    1.0370 O   0  0  0  0  0  0  0  0  0  0  0  0
    2.5930   -0.6120   -0.0190 C   0  0  0  0  0  0  0  0  0  0  0  0
  1  2  1  0
  2  3  1  0
  3  4  1  0
  4  5  2  0
  4 27  1  0
  5  6  1  0
  6  7  2  0
  7  8  1  0
  8  9  1  0
  8 27  2  0
  9 10  1  0
  9 25  1  0
 10 11  2  0
 11 12  1  0
 11 18  1  0
 12 13  2  0
 12 17  1  0
 13 14  1  0
 14 15  2  0
 15 16  1  0
 16 17  2  0
 18 19  1  0
 18 24  2  0
 19 20  1  0
 19 23  2  0
 20 21  2  0
 21 22  1  0
 22 23  1  0
 24 25  1  0
 25 26  2  0
M  END
