
     RDKit          3D

 27 30  0  0  0  0  0  0  0  0999 V2000
   -5.0100   -1.3640   -5.6380 N   0  0  0  0  0  0  0  0  0  0  0  0
   -4.2800   -1.2690   -4.6430 C   0  0  0  0  0  0  0  0  0  0  0  0
   -3.4550   -1.1370   -3.5150 C   0  0  0  0  0  0  0  0  0  0  0  0
   -2.0650   -1.1540   -3.6400 C   0  0  0  0  0  0  0  0  0  0  0  0
   -1.2240   -0.9300   -2.5580 C   0  0  0  0  0  0  0  0  0  0  0  0
   -1.7430   -0.6770   -1.2890 C   0  0  0  0  0  0  0  0  0  0  0  0
   -0.9210   -0.4300   -0.1920 N   0  0  0  0  0  0  0  0  0  0  0  0
    0.4330   -0.1200   -0.1260 C   0  0  0  0  0  0  0  0  0  0  0  0
    1.0870   -0.0540   -1.2040 O   0  0  0  0  0  0  0  0  0  0  0  0
    1.1600    0.1460    1.0660 N   0  0  0  0  0  0  0  0  0  0  0  0
    2.5470    0.4760    1.1160 C   0  0  0  0  0  0  0  0  0  0  0  0
    2.8800    1.6990    1.7320 C   0  0  0  0  0  0  0  0  0  0  0  0
    4.1650    2.1600    1.8560 C   0  0  0  0  0  0  0  0  0  0  0  0
    5.2000    1.3590    1.3390 C   0  0  0  0  0  0  0  0  0  0  0  0
    6.5190    1.8240    1.4420 C   0  0  0  0  0  0  0  0  0  0  0  0
    7.5220    1.0320    0.9080 C   0  0  0  0  0  0  0  0  0  0  0  0
    7.2050   -0.1550    0.3160 C   0  0  0  0  0  0  0  0  0  0  0  0
    5.8770   -0.6170    0.2200 C   0  0  0  0  0  0  0  0  0  0  0  0
    4.8680    0.1800    0.7520 C   0  0  0  0  0  0  0  0  0  0  0  0
    3.5590   -0.2980    0.6180 C   0  0  0  0  0  0  0  0  0  0  0  0
   -3.1220   -0.6720   -1.1970 C   0  0  0  0  0  0  0  0  0  0  0  0
   -3.7720   -0.4010    0.0210 N   0  0  0  0  0  0  0  0  0  0  0  0
   -3.8740   -1.1360    1.2350 C   0  0  0  0  0  0  0  0  0  0  0  0
   -5.3490   -0.9110    1.6180 C   0  0  0  0  0  0  0  0  0  0  0  0
   -5.9010    0.0870    0.6280 C   0  0  0  0  0  0  0  0  0  0  0  0
   -4.5890    0.8120    0.2360 C   0  0  0  0  0  0  0  0  0  0  0  0
   -3.9190   -0.8990   -2.2940 N   0  0  0  0  0  0  0  0  0  0  0  0
  1  2  3  0
  2  3  1  0
  3  4  2  0
  3 27  1  0
  4  5  1  0
  5  6  2  0
  6  7  1  0
  6 21  1  0
  7  8  1  0
  8  9  2  0
  8 10  1  0
 10 11  1  0
 11 12  2  0
 11 20  1  0
 12 13  1  0
 13 14  2  0
 14 15  1  0
 14 19  1  0
 15 16  2  0
 16 17  1  0
 17 18  2  0
 18 19  1  0
 19 20  2  0
 21 22  1  0
 21 27  2  0
 22 23  1  0
 22 26  1  0
 23 24  1  0
 24 25  1  0
 25 26  1  0
M  END
