
     RDKit          3D

  9  9  0  0  0  0  0  0  0  0999 V2000
    2.1110   -0.3970   -0.1820 C   0  0  0  0  0  0  0  0  0  0  0  0
    0.6110   -0.2710   -0.0560 C   0  0  0  0  0  0  0  0  0  0  0  0
   -0.2020   -1.3580   -0.2990 C   0  0  0  0  0  0  0  0  0  0  0  0
   -1.5710   -1.2620   -0.1890 C   0  0  0  0  0  0  0  0  0  0  0  0
   -2.1150   -0.0480    0.1720 C   0  0  0  0  0  0  0  0  0  0  0  0
   -1.2650    1.0210    0.4080 C   0  0  0  0  0  0  0  0  0  0  0  0
   -1.9240    2.4730    0.8410 S   0  0  0  0  0  0  0  0  0  0  0  0
    0.0650    0.9020    0.2940 N   0  0  0  0  0  0  0  0  0  0  0  0
    0.8890    2.0030    0.5400 O   0  0  0  0  0  0  0  0  0  0  0  0
  1  2  1  0
  2  3  2  0
  2  8  1  0
  3  4  1  0
  4  5  2  0
  5  6  1  0
  6  7  2  0
  6  8  1  0
  8  9  1  0
M  END
