
     RDKit          3D

 27 30  0  0  0  0  0  0  0  0999 V2000
    5.2280   -0.5960   -0.7250 C   0  0  0  0  0  0  0  0  0  0  0  0
    4.2980    0.0590    0.2210 C   0  0  0  0  0  0  0  0  0  0  0  0
    4.7420    0.7830    1.3220 C   0  0  0  0  0  0  0  0  0  0  0  0
    3.8300    1.3700    2.1690 C   0  0  0  0  0  0  0  0  0  0  0  0
    4.1880    2.0280    3.1690 O   0  0  0  0  0  0  0  0  0  0  0  0
    2.5150    1.2290    1.9080 N   0  0  0  0  0  0  0  0  0  0  0  0
    2.0590    0.5290    0.8410 C   0  0  0  0  0  0  0  0  0  0  0  0
    0.6990    0.3990    0.5960 C   0  0  0  0  0  0  0  0  0  0  0  0
    0.2010   -0.3060   -0.4790 C   0  0  0  0  0  0  0  0  0  0  0  0
   -1.2490   -0.4390   -0.7410 C   0  0  0  0  0  0  0  0  0  0  0  0
   -2.1130    0.4540   -0.5150 N   0  0  0  0  0  0  0  0  0  0  0  0
   -1.9540    1.7370    0.0120 C   0  0  0  0  0  0  0  0  0  0  0  0
   -1.1600    2.6490   -0.6530 C   0  0  0  0  0  0  0  0  0  0  0  0
   -0.9870    3.9280   -0.1580 C   0  0  0  0  0  0  0  0  0  0  0  0
   -1.6020    4.3290    1.0160 C   0  0  0  0  0  0  0  0  0  0  0  0
   -2.3720    3.4250    1.6500 N   0  0  0  0  0  0  0  0  0  0  0  0
   -2.5510    2.1790    1.1830 C   0  0  0  0  0  0  0  0  0  0  0  0
   -1.6860   -1.6690   -1.3000 N   0  0  0  0  0  0  0  0  0  0  0  0
   -2.8410   -2.3310   -0.8380 C   0  0  0  0  0  0  0  0  0  0  0  0
   -3.3090   -3.4680   -1.5090 C   0  0  0  0  0  0  0  0  0  0  0  0
   -4.4250   -4.1410   -1.0810 C   0  0  0  0  0  0  0  0  0  0  0  0
   -5.1080   -3.7340   -0.0050 N   0  0  0  0  0  0  0  0  0  0  0  0
   -4.7010   -2.6480    0.6770 C   0  0  0  0  0  0  0  0  0  0  0  0
   -3.5630   -1.9460    0.2560 C   0  0  0  0  0  0  0  0  0  0  0  0
    1.1380   -0.8880   -1.3170 C   0  0  0  0  0  0  0  0  0  0  0  0
    2.4970   -0.7790   -1.1020 C   0  0  0  0  0  0  0  0  0  0  0  0
    2.9470   -0.0710   -0.0250 C   0  0  0  0  0  0  0  0  0  0  0  0
  1  2  1  0
  2  3  2  0
  2 27  1  0
  3  4  1  0
  4  5  2  0
  4  6  1  0
  6  7  1  0
  7  8  2  0
  7 27  1  0
  8  9  1  0
  9 10  1  0
  9 25  2  0
 10 11  2  3
 10 18  1  0
 11 12  1  0
 12 13  2  0
 12 17  1  0
 13 14  1  0
 14 15  2  0
 15 16  1  0
 16 17  2  0
 18 19  1  0
 19 20  2  0
 19 24  1  0
 20 21  1  0
 21 22  2  0
 22 23  1  0
 23 24  2  0
 25 26  1  0
 26 27  2  0
M  END
