
     RDKit          3D

 32 34  0  0  0  0  0  0  0  0999 V2000
   -7.0640    0.0870   -3.4430 C   0  0  0  0  0  0  0  0  0  0  0  0
   -5.6130   -0.2110   -3.1660 C   0  0  0  0  0  0  0  0  0  0  0  0
   -4.7940   -0.9870   -3.8980 N   0  0  0  0  0  0  0  0  0  0  0  0
   -3.5830   -0.9980   -3.3180 N   0  0  0  0  0  0  0  0  0  0  0  0
   -3.6180   -0.2310   -2.2140 C   0  0  0  0  0  0  0  0  0  0  0  0
   -2.5570    0.0350   -1.3050 N   0  0  0  0  0  0  0  0  0  0  0  0
   -1.2590   -0.5090   -1.4610 C   0  0  0  0  0  0  0  0  0  0  0  0
   -1.0500   -1.2570   -2.4510 O   0  0  0  0  0  0  0  0  0  0  0  0
   -0.1520   -0.2330   -0.5130 C   0  0  0  0  0  0  0  0  0  0  0  0
   -0.4440    0.5140    0.4340 O   0  0  0  0  0  0  0  0  0  0  0  0
    1.1180   -0.7670   -0.6710 N   0  0  0  0  0  0  0  0  0  0  0  0
    2.2290   -0.5480    0.1910 C   0  0  0  0  0  0  0  0  0  0  0  0
    3.4010   -1.2800   -0.0660 C   0  0  0  0  0  0  0  0  0  0  0  0
    4.5140   -1.1220    0.7110 C   0  0  0  0  0  0  0  0  0  0  0  0
    4.5700   -0.2540    1.7800 C   0  0  0  0  0  0  0  0  0  0  0  0
    5.6920   -0.0850    2.5750 O   0  0  0  0  0  0  0  0  0  0  0  0
    6.8990   -0.7550    2.4050 C   0  0  0  0  0  0  0  0  0  0  0  0
    7.5490   -0.5110    1.0990 C   0  0  0  0  0  0  0  0  0  0  0  0
    8.6830   -1.1630    0.6680 C   0  0  0  0  0  0  0  0  0  0  0  0
    8.9670   -0.6650   -0.5740 C   0  0  0  0  0  0  0  0  0  0  0  0
    7.9870    0.2670   -0.8340 C   0  0  0  0  0  0  0  0  0  0  0  0
    7.1630    0.3420    0.1640 O   0  0  0  0  0  0  0  0  0  0  0  0
    3.4170    0.4590    2.0240 C   0  0  0  0  0  0  0  0  0  0  0  0
    3.4080    1.3710    3.1120 N   0  0  0  0  0  0  0  0  0  0  0  0
    2.2610    0.3190    1.2460 C   0  0  0  0  0  0  0  0  0  0  0  0
   -4.8730    0.2410   -2.1410 N   0  0  0  0  0  0  0  0  0  0  0  0
   -5.3620    1.1130   -1.1060 C   0  0  0  0  0  0  0  0  0  0  0  0
   -5.9320    0.3260    0.0680 C   0  0  1  0  0  0  0  0  0  0  0  0
   -5.0060   -0.4990    0.6570 O   0  0  0  0  0  0  0  0  0  0  0  0
   -6.5410    1.2740    1.0440 C   0  0  0  0  0  0  0  0  0  0  0  0
   -6.1850    1.3010    2.4260 N   0  0  0  0  0  0  0  0  0  0  0  0
   -7.3840    2.0750    0.6790 O   0  0  0  0  0  0  0  0  0  0  0  0
  1  2  1  0
  2  3  2  0
  2 26  1  0
  3  4  1  0
  4  5  2  0
  5  6  1  0
  5 26  1  0
  6  7  1  0
  7  8  2  0
  7  9  1  0
  9 10  2  0
  9 11  1  0
 11 12  1  0
 12 13  2  0
 12 25  1  0
 13 14  1  0
 14 15  2  0
 15 16  1  0
 15 23  1  0
 16 17  1  0
 17 18  1  0
 18 19  2  0
 18 22  1  0
 19 20  1  0
 20 21  2  0
 21 22  1  0
 23 24  1  0
 23 25  2  0
 26 27  1  0
 27 28  1  0
 28 29  1  1
 28 30  1  0
 30 31  1  0
 30 32  2  0
M  CHG  1  31   1
M  END
