
     RDKit          3D

 21 21  0  0  0  0  0  0  0  0999 V2000
    2.9870    1.9470    0.4510 C   0  0  0  0  0  0  0  0  0  0  0  0
    3.2900    0.5160    0.1550 C   0  0  1  0  0  0  0  0  0  0  0  0
    3.3530    0.3100   -1.3320 C   0  0  0  0  0  0  0  0  0  0  0  0
    2.1910    0.6170   -1.9970 O   0  0  0  0  0  0  0  0  0  0  0  0
    4.6120    0.1380    0.7130 C   0  0  0  0  0  0  0  0  0  0  0  0
    5.1450   -1.1700    0.5730 N   0  0  0  0  0  0  0  0  0  0  0  0
    5.2850    0.9910    1.3270 O   0  0  0  0  0  0  0  0  0  0  0  0
    2.2670   -0.3750    0.7730 C   0  0  0  0  0  0  0  0  0  0  0  0
    2.5770   -1.2540    1.6210 O   0  0  0  0  0  0  0  0  0  0  0  0
    0.9130   -0.2200    0.3890 N   0  0  0  0  0  0  0  0  0  0  0  0
   -0.0760   -1.0990    1.0030 C   0  0  1  0  0  0  0  0  0  0  0  0
   -1.1100   -0.3720    1.7100 C   0  0  0  0  0  0  0  0  0  0  0  0
   -2.3760   -0.3900    1.4950 C   0  0  0  0  0  0  0  0  0  0  0  0
   -3.1910    0.4290    2.3440 O   0  0  0  0  0  0  0  0  0  0  0  0
   -3.1040   -1.1460    0.4870 C   0  0  0  0  0  0  0  0  0  0  0  0
   -4.5160   -1.0090    0.4350 O   0  0  0  0  0  0  0  0  0  0  0  0
   -5.1180   -0.5730   -0.7500 C   0  0  0  0  0  0  0  0  0  0  0  0
   -4.5800    0.8040   -1.0880 C   0  0  0  0  0  0  0  0  0  0  0  0
   -4.9060    1.6420   -0.0200 O   0  0  0  0  0  0  0  0  0  0  0  0
   -2.4820   -1.9340   -0.3550 C   0  0  0  0  0  0  0  0  0  0  0  0
   -0.7400   -2.1160   -0.3050 S   0  0  0  0  0  0  0  0  0  0  0  0
  2  1  1  6
  2  3  1  0
  2  5  1  0
  2  8  1  0
  3  4  1  0
  5  6  1  0
  5  7  2  0
  8  9  2  0
  8 10  1  0
 11 10  1  6
 11 12  1  0
 11 21  1  0
 12 13  2  0
 13 14  1  0
 13 15  1  0
 15 16  1  0
 15 20  2  0
 16 17  1  0
 17 18  1  0
 18 19  1  0
 20 21  1  0
M  END
