
     RDKit          3D

 21 21  0  0  0  0  0  0  0  0999 V2000
   -3.6220    2.7610    0.0600 C   0  0  0  0  0  0  0  0  0  0  0  0
   -3.3660    1.2840    0.3520 C   0  0  2  0  0  0  0  0  0  0  0  0
   -2.1500    0.9260   -0.3540 N   0  0  0  0  0  0  0  0  0  0  0  0
   -0.9570    0.5370    0.3220 C   0  0  0  0  0  0  0  0  0  0  0  0
   -1.0180    0.5230    1.5790 O   0  0  0  0  0  0  0  0  0  0  0  0
    0.3020    0.1650   -0.4180 C   0  0  2  0  0  0  0  0  0  0  0  0
    0.0720   -0.9980   -1.3350 C   0  0  0  0  0  0  0  0  0  0  0  0
    1.2140   -1.8010   -1.7250 C   0  0  1  0  0  0  0  0  0  0  0  0
    1.4770   -1.6390   -3.1170 O   0  0  0  0  0  0  0  0  0  0  0  0
    2.4870   -1.7430   -1.0580 C   0  0  0  0  0  0  0  0  0  0  0  0
    3.4950   -2.4930   -1.6610 O   0  0  0  0  0  0  0  0  0  0  0  0
    2.8560   -1.0900    0.0410 C   0  0  0  0  0  0  0  0  0  0  0  0
    4.1750   -1.1380    0.5800 C   0  0  0  0  0  0  0  0  0  0  0  0
    4.7610   -0.6130    1.5940 C   0  0  0  0  0  0  0  0  0  0  0  0
    4.2940    0.2590    2.6150 C   0  0  0  0  0  0  0  0  0  0  0  0
    5.1220    0.6350    3.5320 O   0  0  0  0  0  0  0  0  0  0  0  0
    3.0340    0.7650    2.7510 O   0  0  0  0  0  0  0  0  0  0  0  0
    1.5700   -0.1400    0.8110 S   0  0  0  0  0  0  0  0  0  0  0  0
   -4.5160    0.4700   -0.0550 C   0  0  0  0  0  0  0  0  0  0  0  0
   -5.7820    0.6910    0.5470 N   0  0  0  0  0  0  0  0  0  0  0  0
   -4.3770   -0.4140   -0.9280 O   0  0  0  0  0  0  0  0  0  0  0  0
  2  1  1  6
  2  3  1  0
  2 19  1  0
  3  4  1  0
  4  5  2  0
  6  4  1  1
  6  7  1  0
  6 18  1  0
  7  8  1  0
  8  9  1  6
  8 10  1  0
 10 11  1  0
 10 12  2  0
 12 13  1  0
 12 18  1  0
 13 14  2  3
 14 15  1  0
 15 16  2  0
 15 17  1  0
 19 20  1  0
 19 21  2  0
M  END
