
     RDKit          3D

 10 10  0  0  0  0  0  0  0  0999 V2000
    2.7960   -0.5240    0.0430 C   0  0  0  0  0  0  0  0  0  0  0  0
    1.4020   -0.0400    0.0480 C   0  0  0  0  0  0  0  0  0  0  0  0
    0.3260   -0.9350    0.0010 C   0  0  0  0  0  0  0  0  0  0  0  0
   -0.9530   -0.4250    0.0090 C   0  0  0  0  0  0  0  0  0  0  0  0
   -2.1050   -1.3300   -0.0390 C   0  0  0  0  0  0  0  0  0  0  0  0
   -1.1430    0.9070    0.0600 N   0  0  0  0  0  0  0  0  0  0  0  0
   -2.4290    1.3620    0.0650 O   0  0  0  0  0  0  0  0  0  0  0  0
   -0.1070    1.7810    0.1060 C   0  0  0  0  0  0  0  0  0  0  0  0
   -0.4440    3.3900    0.1670 S   0  0  0  0  0  0  0  0  0  0  0  0
    1.1950    1.3240    0.1010 C   0  0  0  0  0  0  0  0  0  0  0  0
  1  2  1  0
  2  3  1  0
  2 10  2  0
  3  4  2  0
  4  5  1  0
  4  6  1  0
  6  7  1  0
  6  8  1  0
  8  9  2  0
  8 10  1  0
M  END
