
     RDKit          3D

 21 21  0  0  0  0  0  0  0  0999 V2000
   -0.1370   -3.2640    0.6050 C   0  0  0  0  0  0  0  0  0  0  0  0
   -1.0150   -2.1230    0.2000 C   0  0  0  0  0  0  0  0  0  0  0  0
   -2.3110   -2.4230   -0.2000 O   0  0  0  0  0  0  0  0  0  0  0  0
   -0.5960   -0.8880    0.2090 C   0  0  0  0  0  0  0  0  0  0  0  0
   -1.4750    0.2170   -0.1850 C   0  0  0  0  0  0  0  0  0  0  0  0
   -2.7110    0.3160    0.2470 C   0  0  0  0  0  0  0  0  0  0  0  0
   -3.2060   -0.6710    1.1330 O   0  0  0  0  0  0  0  0  0  0  0  0
   -3.6360    1.3720   -0.1190 C   0  0  0  0  0  0  0  0  0  0  0  0
   -3.4180    2.3260   -0.8940 O   0  0  0  0  0  0  0  0  0  0  0  0
   -4.9280    1.3660    0.4290 O   0  0  0  0  0  0  0  0  0  0  0  0
   -5.8590    2.3420    0.1220 N   0  0  0  0  0  0  0  0  0  0  0  0
   -0.8800    1.2720   -1.0550 C   0  0  0  0  0  0  0  0  0  0  0  0
    0.5970    1.4230   -0.9540 C   0  0  0  0  0  0  0  0  0  0  0  0
    1.3990    0.1810   -0.7110 C   0  0  1  0  0  0  0  0  0  0  0  0
    2.6900    0.5690   -0.3760 O   0  0  0  0  0  0  0  0  0  0  0  0
    3.6460   -0.0000   -1.2100 C   0  0  0  0  0  0  0  0  0  0  0  0
    5.0020    0.4500   -0.8050 C   0  0  0  0  0  0  0  0  0  0  0  0
    5.1620    1.3430    0.3030 N   0  0  0  0  0  0  0  0  0  0  0  0
    6.0470    0.0840   -1.3920 O   0  0  0  0  0  0  0  0  0  0  0  0
    0.8220   -0.4980    0.5440 C   0  0  2  0  0  0  0  0  0  0  0  0
    1.6090   -1.5480    0.9160 O   0  0  0  0  0  0  0  0  0  0  0  0
  1  2  1  0
  2  3  1  0
  2  4  2  3
  4  5  1  0
  4 20  1  0
  5  6  2  3
  5 12  1  0
  6  7  1  0
  6  8  1  0
  8  9  2  0
  8 10  1  0
 10 11  1  0
 12 13  1  0
 13 14  1  0
 14 15  1  1
 14 20  1  0
 15 16  1  0
 16 17  1  0
 17 18  1  0
 17 19  2  0
 20 21  1  6
M  END
