
     RDKit          3D

 21 21  0  0  0  0  0  0  0  0999 V2000
   -2.8860   -2.1070    1.4000 C   0  0  0  0  0  0  0  0  0  0  0  0
   -2.9110   -0.6670    0.8860 C   0  0  1  0  0  0  0  0  0  0  0  0
   -1.6400   -0.4600    0.2170 N   0  0  0  0  0  0  0  0  0  0  0  0
   -0.6870    0.5050    0.6450 C   0  0  0  0  0  0  0  0  0  0  0  0
   -0.9740    1.1950    1.6440 O   0  0  0  0  0  0  0  0  0  0  0  0
    0.5590    0.7150   -0.0030 N   0  0  0  0  0  0  0  0  0  0  0  0
    1.4970    1.6940    0.4520 C   0  0  2  0  0  0  0  0  0  0  0  0
    1.8630    2.6030   -0.5330 O   0  0  0  0  0  0  0  0  0  0  0  0
    2.7280    1.1600    1.1400 C   0  0  2  0  0  0  0  0  0  0  0  0
    3.4720    2.3370    1.4920 O   0  0  0  0  0  0  0  0  0  0  0  0
    3.6460    0.3350    0.3330 C   0  0  1  0  0  0  0  0  0  0  0  0
    3.2380   -1.0980    0.2470 C   0  0  0  0  0  0  0  0  0  0  0  0
    4.4220   -1.8270    0.0080 O   0  0  0  0  0  0  0  0  0  0  0  0
    4.9340   -1.3820   -1.2230 C   0  0  0  0  0  0  0  0  0  0  0  0
    5.1640    0.0910   -1.2820 C   0  0  0  0  0  0  0  0  0  0  0  0
    4.0770    0.8630   -0.8680 O   0  0  0  0  0  0  0  0  0  0  0  0
   -4.0610   -0.5830   -0.0620 C   0  0  0  0  0  0  0  0  0  0  0  0
   -4.0680   -1.6460   -1.5110 S   0  0  0  0  0  0  0  0  0  0  0  0
   -5.0740    0.2370    0.1120 C   0  0  0  0  0  0  0  0  0  0  0  0
   -6.1850    0.2790   -0.8580 C   0  0  0  0  0  0  0  0  0  0  0  0
   -6.2980    1.5630   -1.4120 O   0  0  0  0  0  0  0  0  0  0  0  0
  2  1  1  6
  2  3  1  0
  2 17  1  0
  3  4  1  0
  4  5  2  0
  4  6  1  0
  6  7  1  0
  7  8  1  6
  7  9  1  0
  9 10  1  6
  9 11  1  0
 11 12  1  6
 11 16  1  0
 12 13  1  0
 13 14  1  0
 14 15  1  0
 15 16  1  0
 17 18  1  0
 17 19  2  3
 19 20  1  0
 20 21  1  0
M  END
