
     RDKit          3D

 22 22  0  0  0  0  0  0  0  0999 V2000
    3.6340    0.7780    1.2860 N   0  0  0  0  0  0  0  0  0  0  0  0
    2.7630    1.2590    0.2750 C   0  0  0  0  0  0  0  0  0  0  0  0
    2.6150    2.5020    0.1720 O   0  0  0  0  0  0  0  0  0  0  0  0
    2.0420    0.3690   -0.6370 C   0  0  1  0  0  0  0  0  0  0  0  0
    3.1020   -0.4360   -1.4010 C   0  0  0  0  0  0  0  0  0  0  0  0
    3.9200   -1.1300   -0.5420 O   0  0  0  0  0  0  0  0  0  0  0  0
    1.2650   -0.6320    0.1830 C   0  0  0  0  0  0  0  0  0  0  0  0
   -0.0400   -0.7940   -0.2510 O   0  0  0  0  0  0  0  0  0  0  0  0
   -0.6450   -1.7290    0.5690 C   0  0  2  0  0  0  0  0  0  0  0  0
   -0.7680   -3.0270   -0.2060 C   0  0  0  0  0  0  0  0  0  0  0  0
   -1.3780   -4.0200    0.5800 O   0  0  0  0  0  0  0  0  0  0  0  0
   -1.9670   -1.2720    1.0970 C   0  0  0  0  0  0  0  0  0  0  0  0
   -2.7990   -0.5720    0.0340 C   0  0  0  0  0  0  0  0  0  0  0  0
   -3.9250    0.0200    0.6130 O   0  0  0  0  0  0  0  0  0  0  0  0
   -4.1480    1.3860    0.6990 C   0  0  0  0  0  0  0  0  0  0  0  0
   -5.2640    1.9380    0.5130 O   0  0  0  0  0  0  0  0  0  0  0  0
   -3.0000    2.2660    1.0340 C   0  0  0  0  0  0  0  0  0  0  0  0
   -1.9800    2.6370   -0.4000 S   0  0  0  0  0  0  0  0  0  0  0  0
   -0.1940    2.5370   -0.0010 C   0  0  0  0  0  0  0  0  0  0  0  0
    0.5050    2.2720   -1.2850 C   0  0  0  0  0  0  0  0  0  0  0  0
    0.4520    3.1870   -2.1470 O   0  0  0  0  0  0  0  0  0  0  0  0
    1.2110    1.0770   -1.5850 N   0  0  0  0  0  0  0  0  0  0  0  0
  1  2  1  0
  2  3  2  0
  2  4  1  0
  4  5  1  6
  4  7  1  0
  4 22  1  0
  5  6  1  0
  7  8  1  0
  8  9  1  0
  9 10  1  6
  9 12  1  0
 10 11  1  0
 12 13  1  0
 13 14  1  0
 14 15  1  0
 15 16  2  0
 15 17  1  0
 17 18  1  0
 18 19  1  0
 19 20  1  0
 20 21  2  0
 20 22  1  0
M  END
