
     RDKit          3D

 22 22  0  0  0  0  0  0  0  0999 V2000
    0.4770    4.0900    1.4460 C   0  0  0  0  0  0  0  0  0  0  0  0
    1.5390    2.7190    1.9830 S   0  0  0  0  0  0  0  0  0  0  0  0
    0.8540    1.2060    1.2830 C   0  0  0  0  0  0  0  0  0  0  0  0
   -0.2790    1.2150    0.4980 C   0  0  0  0  0  0  0  0  0  0  0  0
   -0.8110    0.0770   -0.0400 C   0  0  0  0  0  0  0  0  0  0  0  0
   -1.9460    0.0780   -0.8280 O   0  0  0  0  0  0  0  0  0  0  0  0
   -3.1840    0.0480   -0.2450 N   0  0  0  0  0  0  0  0  0  0  0  0
   -4.3350    0.0430   -1.0650 C   0  0  0  0  0  0  0  0  0  0  0  0
   -4.1750    0.0670   -2.3110 O   0  0  0  0  0  0  0  0  0  0  0  0
   -5.7120    0.0100   -0.4610 C   0  0  0  0  0  0  0  0  0  0  0  0
   -5.5830   -0.0110    0.9320 O   0  0  0  0  0  0  0  0  0  0  0  0
   -0.2190   -1.1510    0.1890 C   0  0  0  0  0  0  0  0  0  0  0  0
   -0.7370   -2.3370   -0.3460 O   0  0  0  0  0  0  0  0  0  0  0  0
    0.9140   -1.1730    0.9730 C   0  0  0  0  0  0  0  0  0  0  0  0
    1.6850   -2.7530    1.2740 S   0  0  0  0  0  0  0  0  0  0  0  0
    2.9070   -3.0300   -0.0510 C   0  0  0  0  0  0  0  0  0  0  0  0
    3.9800   -1.9960    0.1260 C   0  0  0  0  0  0  0  0  0  0  0  0
    4.9610   -2.2880    0.8600 O   0  0  0  0  0  0  0  0  0  0  0  0
    3.9050   -0.7380   -0.5020 N   0  0  0  0  0  0  0  0  0  0  0  0
    4.9670    0.1990   -0.2870 C   0  0  0  0  0  0  0  0  0  0  0  0
    5.9450   -0.1130    0.4540 O   0  0  0  0  0  0  0  0  0  0  0  0
    1.4480   -0.0190    1.5150 C   0  0  0  0  0  0  0  0  0  0  0  0
  1  2  1  0
  2  3  1  0
  3  4  2  0
  3 22  1  0
  4  5  1  0
  5  6  1  0
  5 12  2  0
  6  7  1  0
  7  8  1  0
  8  9  2  0
  8 10  1  0
 10 11  1  0
 12 13  1  0
 12 14  1  0
 14 15  1  0
 14 22  2  0
 15 16  1  0
 16 17  1  0
 17 18  2  0
 17 19  1  0
 19 20  1  0
 20 21  2  0
M  END
