
     RDKit          3D

 22 22  0  0  0  0  0  0  0  0999 V2000
   -1.5130    6.1010    0.2700 C   0  0  0  0  0  0  0  0  0  0  0  0
   -1.8480    4.7510    0.0030 O   0  0  0  0  0  0  0  0  0  0  0  0
   -0.9090    3.7220    0.1200 C   0  0  0  0  0  0  0  0  0  0  0  0
    0.2700    3.9790    0.4700 O   0  0  0  0  0  0  0  0  0  0  0  0
   -1.2610    2.3620   -0.1530 N   0  0  0  0  0  0  0  0  0  0  0  0
   -0.2450    1.3670   -0.0110 C   0  0  0  0  0  0  0  0  0  0  0  0
    1.4190    1.6680    0.4750 S   0  0  0  0  0  0  0  0  0  0  0  0
    1.9830    0.0320    0.4130 C   0  0  0  0  0  0  0  0  0  0  0  0
    3.3660   -0.4290    0.7240 C   0  0  0  0  0  0  0  0  0  0  0  0
    4.4090    0.9840    1.1880 S   0  0  0  0  0  0  0  0  0  0  0  0
    6.0230    0.3320    1.5360 C   0  0  0  0  0  0  0  0  0  0  0  0
    6.4750   -0.5640    0.8650 O   0  0  0  0  0  0  0  0  0  0  0  0
    0.8660   -0.6700    0.0210 C   0  0  0  0  0  0  0  0  0  0  0  0
    1.0090   -2.1790   -0.1340 C   0  0  0  0  0  0  0  0  0  0  0  0
   -0.2570    0.0190   -0.1900 C   0  0  0  0  0  0  0  0  0  0  0  0
   -1.5310   -0.6210   -0.6180 C   0  0  0  0  0  0  0  0  0  0  0  0
   -2.5780    0.0090   -0.8180 O   0  0  0  0  0  0  0  0  0  0  0  0
   -1.5540   -1.9810   -0.8040 O   0  0  0  0  0  0  0  0  0  0  0  0
   -2.7290   -2.6370   -1.2070 C   0  0  0  0  0  0  0  0  0  0  0  0
   -2.4510   -4.0870   -1.3230 C   0  0  0  0  0  0  0  0  0  0  0  0
   -3.5130   -4.9340   -1.7210 N   0  0  0  0  0  0  0  0  0  0  0  0
   -1.3040   -4.5240   -1.0700 O   0  0  0  0  0  0  0  0  0  0  0  0
  1  2  1  0
  2  3  1  0
  3  4  2  0
  3  5  1  0
  5  6  1  0
  6  7  1  0
  6 15  2  0
  7  8  1  0
  8  9  1  0
  8 13  2  0
  9 10  1  0
 10 11  1  0
 11 12  2  0
 13 14  1  0
 13 15  1  0
 15 16  1  0
 16 17  2  0
 16 18  1  0
 18 19  1  0
 19 20  1  0
 20 21  1  0
 20 22  2  0
M  END
