
     RDKit          3D

 22 22  0  0  0  0  0  0  0  0999 V2000
   -5.3880    2.9170   -0.6130 C   0  0  0  0  0  0  0  0  0  0  0  0
   -5.3040    1.7540    0.3290 C   0  0  0  0  0  0  0  0  0  0  0  0
   -4.0780    1.0230    0.2710 O   0  0  0  0  0  0  0  0  0  0  0  0
   -3.8630    0.1560   -0.7530 C   0  0  0  0  0  0  0  0  0  0  0  0
   -4.6260   -0.0580   -1.6590 O   0  0  0  0  0  0  0  0  0  0  0  0
   -2.5590   -0.5240   -0.6450 C   0  0  0  0  0  0  0  0  0  0  0  0
   -1.3850   -0.2850   -0.1040 C   0  0  0  0  0  0  0  0  0  0  0  0
   -0.5150   -1.2620    0.0850 C   0  0  0  0  0  0  0  0  0  0  0  0
    0.8430   -1.0500    0.8110 C   0  0  0  0  0  0  0  0  0  0  0  0
    1.5700   -0.1400    0.0310 O   0  0  0  0  0  0  0  0  0  0  0  0
    2.7810    0.4070    0.2400 C   0  0  0  0  0  0  0  0  0  0  0  0
    3.4150    0.1700    1.3000 O   0  0  0  0  0  0  0  0  0  0  0  0
    3.5380    1.4230   -1.0170 S   0  0  0  0  0  0  0  0  0  0  0  0
    4.9230    2.3700   -0.5090 C   0  0  0  0  0  0  0  0  0  0  0  0
    6.1270    1.7200   -0.0670 C   0  0  0  0  0  0  0  0  0  0  0  0
    6.4360    0.3390    0.0670 N   0  0  0  0  0  0  0  0  0  0  0  0
    7.1110    2.5210    0.2640 O   0  0  0  0  0  0  0  0  0  0  0  0
   -0.8600   -2.5230   -0.2910 C   0  0  0  0  0  0  0  0  0  0  0  0
   -0.1030   -3.7780   -0.2690 C   0  0  0  0  0  0  0  0  0  0  0  0
   -0.6500   -5.0730   -0.4700 N   0  0  0  0  0  0  0  0  0  0  0  0
    1.1370   -3.6800   -0.0570 O   0  0  0  0  0  0  0  0  0  0  0  0
   -2.4920   -2.3050   -0.9370 S   0  0  0  0  0  0  0  0  0  0  0  0
  1  2  1  0
  2  3  1  0
  3  4  1  0
  4  5  2  0
  4  6  1  0
  6  7  2  0
  6 22  1  0
  7  8  1  0
  8  9  1  0
  8 18  2  0
  9 10  1  0
 10 11  1  0
 11 12  2  0
 11 13  1  0
 13 14  1  0
 14 15  1  0
 15 16  1  0
 15 17  2  0
 18 19  1  0
 18 22  1  0
 19 20  1  0
 19 21  2  0
M  END
