
     RDKit          3D

 22 21  0  0  0  0  0  0  0  0999 V2000
    5.2660   -1.6980    1.1780 C   0  0  0  0  0  0  0  0  0  0  0  0
    5.3790   -1.1730   -0.2380 C   0  0  0  0  0  0  0  0  0  0  0  0
    4.1050   -0.9390   -0.8430 N   0  0  0  0  0  0  0  0  0  0  0  0
    3.1500   -0.0290   -0.3180 C   0  0  0  0  0  0  0  0  0  0  0  0
    3.4890    0.5840    0.7460 O   0  0  0  0  0  0  0  0  0  0  0  0
    1.8310    0.2020   -0.9590 C   0  0  0  0  0  0  0  0  0  0  0  0
    1.0530    1.2330   -0.1440 C   0  0  0  0  0  0  0  0  0  0  0  0
   -0.5230    1.4140   -1.0040 S   0  0  1  0  0  0  0  0  0  0  0  0
   -1.1730    2.6390   -0.5190 O   0  0  0  0  0  0  0  0  0  0  0  0
   -0.1480    1.6050   -2.4760 O   0  0  0  0  0  0  0  0  0  0  0  0
   -1.4720   -0.0660   -0.9400 C   0  0  0  0  0  0  0  0  0  0  0  0
   -1.9420   -0.3830    0.4030 C   0  0  0  0  0  0  0  0  0  0  0  0
   -3.0710    0.2970    1.0610 C   0  0  0  0  0  0  0  0  0  0  0  0
   -3.8980    1.2050    0.8240 C   0  0  0  0  0  0  0  0  0  0  0  0
   -4.8270    1.4570    1.9400 O   0  0  0  0  0  0  0  0  0  0  0  0
   -4.1610    2.0680   -0.3160 C   0  0  0  0  0  0  0  0  0  0  0  0
   -4.0880    3.5340    0.0910 C   0  0  0  0  0  0  0  0  0  0  0  0
   -1.4220   -1.4070    1.0940 C   0  0  0  0  0  0  0  0  0  0  0  0
   -0.2110   -2.5310    0.6910 S   0  0  1  0  0  0  0  0  0  0  0  0
   -0.2200   -2.9970   -0.9450 N   0  0  0  0  0  0  0  0  0  0  0  0
    1.1730   -2.1160    1.1120 O   0  0  0  0  0  0  0  0  0  0  0  0
   -0.4760   -3.7810    1.5710 O   0  0  0  0  0  0  0  0  0  0  0  0
  1  2  1  0
  2  3  1  0
  3  4  1  0
  4  5  2  0
  4  6  1  0
  6  7  1  0
  8  7  1  1
  8  9  2  0
  8 10  2  0
  8 11  1  0
 11 12  1  0
 12 13  1  0
 12 18  2  3
 13 14  2  3
 14 15  1  0
 14 16  1  0
 16 17  1  0
 18 19  1  0
 19 20  1  6
 19 21  2  0
 19 22  2  0
M  END
