
     RDKit          3D

 22 22  0  0  0  0  0  0  0  0999 V2000
   -4.0200   -1.7310    1.3460 C   0  0  0  0  0  0  0  0  0  0  0  0
   -3.2900   -0.7430    0.4430 C   0  0  1  0  0  0  0  0  0  0  0  0
   -3.9620    0.9180    0.5260 S   0  0  0  0  0  0  0  0  0  0  0  0
   -5.5940    0.9570   -0.2470 C   0  0  0  0  0  0  0  0  0  0  0  0
   -5.4780    0.7290   -1.7520 C   0  0  0  0  0  0  0  0  0  0  0  0
   -6.7360    0.7260   -2.3620 O   0  0  0  0  0  0  0  0  0  0  0  0
   -1.8530   -0.7980    0.8050 C   0  0  0  0  0  0  0  0  0  0  0  0
   -1.3010    0.2610    1.2150 O   0  0  0  0  0  0  0  0  0  0  0  0
   -1.1080   -1.9520    0.7100 O   0  0  0  0  0  0  0  0  0  0  0  0
    0.2720   -2.0130    1.0470 C   0  0  0  0  0  0  0  0  0  0  0  0
    1.0690   -1.1520    0.1790 C   0  0  0  0  0  0  0  0  0  0  0  0
    0.8390   -0.5930   -0.8040 O   0  0  0  0  0  0  0  0  0  0  0  0
    2.6730   -0.9580    0.7850 N   0  0  0  0  0  0  0  0  0  0  0  0
    3.1600   -0.1720   -0.3740 C   0  0  0  0  0  0  0  0  0  0  0  0
    2.6950    0.1310   -1.4100 O   0  0  0  0  0  0  0  0  0  0  0  0
    4.5240    0.2610   -0.0000 N   0  0  0  0  0  0  0  0  0  0  0  0
    5.2940    1.0790   -0.8940 C   0  0  0  0  0  0  0  0  0  0  0  0
    4.9880    1.2020   -2.2580 C   0  0  0  0  0  0  0  0  0  0  0  0
    6.2620    2.2920   -2.9240 S   0  0  0  0  0  0  0  0  0  0  0  0
    7.0950    2.4880   -1.3310 C   0  0  0  0  0  0  0  0  0  0  0  0
    6.3920    1.7620   -0.4610 C   0  0  0  0  0  0  0  0  0  0  0  0
    6.8100    1.7200    0.9090 O   0  0  0  0  0  0  0  0  0  0  0  0
  2  1  1  1
  2  3  1  0
  2  7  1  0
  3  4  1  0
  4  5  1  0
  5  6  1  0
  7  8  2  0
  7  9  1  0
  9 10  1  0
 10 11  1  0
 11 12  2  0
 11 13  1  0
 13 14  1  0
 14 15  2  0
 14 16  1  0
 16 17  1  0
 17 18  2  0
 17 21  1  0
 18 19  1  0
 19 20  1  0
 20 21  2  0
 21 22  1  0
M  END
