
     RDKit          3D

 12 12  0  0  0  0  0  0  0  0999 V2000
   -2.0360    1.5850    1.3540 O   0  0  0  0  0  0  0  0  0  0  0  0
   -1.2780    0.6140    0.7040 N   0  0  0  0  0  0  0  0  0  0  0  0
   -1.8000   -0.5650    0.3340 C   0  0  0  0  0  0  0  0  0  0  0  0
   -1.0720   -1.5430   -0.3100 C   0  0  0  0  0  0  0  0  0  0  0  0
    0.2560   -1.2980   -0.5880 C   0  0  0  0  0  0  0  0  0  0  0  0
    0.8180   -0.0930   -0.2190 C   0  0  0  0  0  0  0  0  0  0  0  0
    2.2460    0.2130   -0.4990 C   0  0  2  0  0  0  0  0  0  0  0  0
    2.9360    0.4580    0.6930 F   0  0  0  0  0  0  0  0  0  0  0  0
    2.3480    1.3620   -1.2900 F   0  0  0  0  0  0  0  0  0  0  0  0
    2.8820   -0.8450   -1.1090 F   0  0  0  0  0  0  0  0  0  0  0  0
    0.0200    0.8300    0.4220 C   0  0  0  0  0  0  0  0  0  0  0  0
    0.6360    2.2780    0.8830 S   0  0  0  0  0  0  0  0  0  0  0  0
  1  2  1  0
  2  3  1  0
  2 11  1  0
  3  4  2  0
  4  5  1  0
  5  6  2  0
  6  7  1  0
  6 11  1  0
  7  8  1  1
  7  9  1  0
  7 10  1  0
 11 12  2  0
M  END
