
     RDKit          3D

 18 19  0  0  0  0  0  0  0  0999 V2000
    6.0800    0.4720   -0.1640 C   0  0  0  0  0  0  0  0  0  0  0  0
    4.7670    1.0560   -0.2700 N   0  0  0  0  0  0  0  0  0  0  0  0
    3.8500    1.1020    0.8660 C   0  0  0  0  0  0  0  0  0  0  0  0
    4.1320    0.6640    1.9540 O   0  0  0  0  0  0  0  0  0  0  0  0
    2.5120    1.7420    0.5420 C   0  0  0  0  0  0  0  0  0  0  0  0
    1.5770    0.7380   -0.5110 S   0  0  0  0  0  0  0  0  0  0  0  0
    0.6530   -0.6790   -0.1170 C   0  0  0  0  0  0  0  0  0  0  0  0
   -0.7310   -0.4600    0.3960 C   0  0  0  0  0  0  0  0  0  0  0  0
   -1.3220   -0.0800    1.4540 O   0  0  0  0  0  0  0  0  0  0  0  0
   -2.6380   -0.0820    1.3740 C   0  0  0  0  0  0  0  0  0  0  0  0
   -3.7050    0.2490    2.3300 C   0  0  0  0  0  0  0  0  0  0  0  0
   -2.9540   -0.5080    0.0920 C   0  0  0  0  0  0  0  0  0  0  0  0
   -1.7700   -0.7660   -0.5480 C   0  0  0  0  0  0  0  0  0  0  0  0
   -1.7360   -1.2120   -1.8270 O   0  0  0  0  0  0  0  0  0  0  0  0
   -2.9140   -1.5900   -2.5410 C   0  0  0  0  0  0  0  0  0  0  0  0
   -4.0390   -0.7550   -2.0730 C   0  0  0  0  0  0  0  0  0  0  0  0
   -4.8830   -0.2660   -2.9040 O   0  0  0  0  0  0  0  0  0  0  0  0
   -4.1660   -0.5020   -0.6550 N   0  0  0  0  0  0  0  0  0  0  0  0
  1  2  1  0
  2  3  1  0
  3  4  2  0
  3  5  1  0
  5  6  1  0
  6  7  1  0
  7  8  1  0
  8  9  1  0
  8 13  2  0
  9 10  1  0
 10 11  1  0
 10 12  2  0
 12 13  1  0
 12 18  1  0
 13 14  1  0
 14 15  1  0
 15 16  1  0
 16 17  2  0
 16 18  1  0
M  END
