
     RDKit          3D

 18 19  0  0  0  0  0  0  0  0999 V2000
    2.7840    0.6870    1.5020 C   0  0  0  0  0  0  0  0  0  0  0  0
    3.0630    0.5280    0.2340 C   0  0  0  0  0  0  0  0  0  0  0  0
    4.4570    0.4300   -0.1560 N   0  0  0  0  0  0  0  0  0  0  0  0
    4.8640    0.7940   -1.3860 O   0  0  0  0  0  0  0  0  0  0  0  0
    4.0650    0.1680   -2.3390 C   0  0  0  0  0  0  0  0  0  0  0  0
    2.6490    0.2550   -2.0530 C   0  0  0  0  0  0  0  0  0  0  0  0
    2.0670    0.4320   -0.8110 C   0  0  0  0  0  0  0  0  0  0  0  0
    0.6590    0.4890   -0.7230 C   0  0  0  0  0  0  0  0  0  0  0  0
   -0.3000    0.6260    0.0970 C   0  0  0  0  0  0  0  0  0  0  0  0
   -0.4100    0.8570    1.8580 S   0  0  0  0  0  0  0  0  0  0  0  0
   -1.9650   -0.0630    1.9820 C   0  0  0  0  0  0  0  0  0  0  0  0
   -2.3430   -0.7560    2.9360 O   0  0  0  0  0  0  0  0  0  0  0  0
   -2.5900    0.2170    0.7540 N   0  0  0  0  0  0  0  0  0  0  0  0
   -4.0460    0.1050    0.5910 C   0  0  0  0  0  0  0  0  0  0  0  0
   -4.4410   -1.2880    0.1500 C   0  0  0  0  0  0  0  0  0  0  0  0
   -4.0370   -2.2300    1.0930 O   0  0  0  0  0  0  0  0  0  0  0  0
   -1.7540    0.5900   -0.2760 C   0  0  0  0  0  0  0  0  0  0  0  0
   -2.1070    0.8860   -1.4390 O   0  0  0  0  0  0  0  0  0  0  0  0
  1  2  2  0
  2  3  1  0
  2  7  1  0
  3  4  1  0
  4  5  1  0
  5  6  1  0
  6  7  2  0
  7  8  1  0
  8  9  2  3
  9 10  1  0
  9 17  1  0
 10 11  1  0
 11 12  2  0
 11 13  1  0
 13 14  1  0
 13 17  1  0
 14 15  1  0
 15 16  1  0
 17 18  2  0
M  END
