
     RDKit          3D

 18 19  0  0  0  0  0  0  0  0999 V2000
   -3.7360    1.5740    0.1320 C   0  0  0  0  0  0  0  0  0  0  0  0
   -2.4400    0.9460   -0.1230 C   0  0  0  0  0  0  0  0  0  0  0  0
   -2.3340   -0.3850   -0.2670 C   0  0  0  0  0  0  0  0  0  0  0  0
   -3.5490   -1.2620   -0.1690 C   0  0  0  0  0  0  0  0  0  0  0  0
   -2.9670   -2.5750   -1.3270 S   0  0  0  0  0  0  0  0  0  0  0  0
   -1.2260   -2.2750   -1.0730 C   0  0  0  0  0  0  0  0  0  0  0  0
   -1.1210   -1.1000   -0.5190 C   0  0  0  0  0  0  0  0  0  0  0  0
    0.1750   -0.5580   -0.1830 N   0  0  0  0  0  0  0  0  0  0  0  0
    0.4550   -0.2460    1.1540 C   0  0  0  0  0  0  0  0  0  0  0  0
   -0.4410   -0.4530    2.0130 O   0  0  0  0  0  0  0  0  0  0  0  0
    1.7770    0.3230    1.5950 C   0  0  0  0  0  0  0  0  0  0  0  0
    2.6630    0.4840    0.4590 N   0  0  0  0  0  0  0  0  0  0  0  0
    3.5650   -0.5210    0.0030 C   0  0  0  0  0  0  0  0  0  0  0  0
    3.5430   -1.7200    0.3880 O   0  0  0  0  0  0  0  0  0  0  0  0
    4.4690    0.1460   -0.9680 C   0  0  0  0  0  0  0  0  0  0  0  0
    3.7560    1.3140   -1.3190 O   0  0  0  0  0  0  0  0  0  0  0  0
    2.8020    1.6090   -0.3770 C   0  0  0  0  0  0  0  0  0  0  0  0
    2.1500    2.7010   -0.2650 O   0  0  0  0  0  0  0  0  0  0  0  0
  1  2  1  0
  2  3  2  3
  3  4  1  0
  3  7  1  0
  4  5  1  0
  5  6  1  0
  6  7  2  0
  7  8  1  0
  8  9  1  0
  9 10  2  0
  9 11  1  0
 11 12  1  0
 12 13  1  0
 12 17  1  0
 13 14  2  0
 13 15  1  0
 15 16  1  0
 16 17  1  0
 17 18  2  0
M  END
