
     RDKit          3D

 17 18  0  0  0  0  0  0  0  0999 V2000
    4.5100    0.6140   -1.2440 C   0  0  0  0  0  0  0  0  0  0  0  0
    4.4480    0.5840    0.1960 N   0  0  0  0  0  0  0  0  0  0  0  0
    3.0720    0.4380    0.6330 C   0  0  0  0  0  0  0  0  0  0  0  0
    2.7730   -1.0240    0.9190 C   0  0  0  0  0  0  0  0  0  0  0  0
    1.4270   -1.2120    1.3530 N   0  0  0  0  0  0  0  0  0  0  0  0
    0.2830   -0.8690    0.5780 C   0  0  0  0  0  0  0  0  0  0  0  0
    0.4520   -0.3760   -0.5430 O   0  0  0  0  0  0  0  0  0  0  0  0
   -0.9880   -1.0720    1.0470 O   0  0  0  0  0  0  0  0  0  0  0  0
   -2.1350   -0.7330    0.2820 C   0  0  0  0  0  0  0  0  0  0  0  0
   -2.6370   -1.6970   -0.5400 C   0  0  0  0  0  0  0  0  0  0  0  0
   -2.1720   -3.1090   -0.7890 C   0  0  0  0  0  0  0  0  0  0  0  0
   -4.0280   -0.9070   -1.3030 S   0  0  0  0  0  0  0  0  0  0  0  0
   -3.8300    0.6190   -0.4760 C   0  0  0  0  0  0  0  0  0  0  0  0
   -2.7830    0.4460    0.2830 C   0  0  0  0  0  0  0  0  0  0  0  0
   -2.6170    1.7760    0.9980 C   0  0  0  0  0  0  0  0  0  0  0  0
   -3.8710    2.4490    0.9020 N   0  0  0  0  0  0  0  0  0  0  0  0
   -4.4250    2.0080   -0.3400 C   0  0  0  0  0  0  0  0  0  0  0  0
  1  2  1  0
  2  3  1  0
  3  4  1  0
  4  5  1  0
  5  6  1  0
  6  7  2  0
  6  8  1  0
  8  9  1  0
  9 10  2  0
  9 14  1  0
 10 11  1  0
 10 12  1  0
 12 13  1  0
 13 14  2  0
 13 17  1  0
 14 15  1  0
 15 16  1  0
 16 17  1  0
M  CHG  1   2   1
M  END
