
     RDKit          3D

 18 19  0  0  0  0  0  0  0  0999 V2000
    5.5470    0.1170    1.4720 C   0  0  0  0  0  0  0  0  0  0  0  0
    4.7820    0.5620    0.3430 O   0  0  0  0  0  0  0  0  0  0  0  0
    3.4510    0.2220    0.2140 C   0  0  0  0  0  0  0  0  0  0  0  0
    2.9480   -0.4880    1.1230 O   0  0  0  0  0  0  0  0  0  0  0  0
    2.6170    0.6090   -0.8550 N   0  0  0  0  0  0  0  0  0  0  0  0
    1.2460    0.2340   -0.9470 C   0  0  0  0  0  0  0  0  0  0  0  0
    0.7660   -0.4780   -1.9660 C   0  0  0  0  0  0  0  0  0  0  0  0
   -0.6710   -0.6890   -1.7530 C   0  0  0  0  0  0  0  0  0  0  0  0
   -1.4510   -1.3180   -2.5120 O   0  0  0  0  0  0  0  0  0  0  0  0
   -1.0380   -0.0600   -0.5370 N   0  0  0  0  0  0  0  0  0  0  0  0
   -2.3660   -0.0260    0.0490 C   0  0  0  0  0  0  0  0  0  0  0  0
   -2.9780   -1.1260    0.3680 C   0  0  0  0  0  0  0  0  0  0  0  0
   -4.3060   -1.3300    0.9640 C   0  0  0  0  0  0  0  0  0  0  0  0
   -5.1600    0.2090    1.2740 S   0  0  0  0  0  0  0  0  0  0  0  0
   -4.1130    1.5410    0.7520 C   0  0  0  0  0  0  0  0  0  0  0  0
   -2.9310    1.3000    0.2400 C   0  0  0  0  0  0  0  0  0  0  0  0
    0.1500    0.5200   -0.0230 C   0  0  0  0  0  0  0  0  0  0  0  0
    0.2690    1.1710    1.0370 O   0  0  0  0  0  0  0  0  0  0  0  0
  1  2  1  0
  2  3  1  0
  3  4  2  0
  3  5  1  0
  5  6  1  0
  6  7  2  0
  6 17  1  0
  7  8  1  0
  8  9  2  0
  8 10  1  0
 10 11  1  0
 10 17  1  0
 11 12  2  0
 11 16  1  0
 12 13  1  0
 13 14  1  0
 14 15  1  0
 15 16  2  0
 17 18  2  0
M  END
