
     RDKit          3D

 18 19  0  0  0  0  0  0  0  0999 V2000
   -1.3790   -1.1140   -1.8470 C   0  0  0  0  0  0  0  0  0  0  0  0
   -0.9460   -0.2320   -0.7110 C   0  0  2  0  0  0  0  0  0  0  0  0
    0.0860   -0.8410    0.1080 N   0  0  0  0  0  0  0  0  0  0  0  0
    1.2790   -0.0930    0.1370 C   0  0  0  0  0  0  0  0  0  0  0  0
    2.4860   -0.6110   -0.3380 C   0  0  0  0  0  0  0  0  0  0  0  0
    3.6420    0.1610   -0.2910 C   0  0  0  0  0  0  0  0  0  0  0  0
    4.8900   -0.3990   -0.7920 C   0  0  0  0  0  0  0  0  0  0  0  0
    4.9920   -1.5430   -1.2680 O   0  0  0  0  0  0  0  0  0  0  0  0
    3.5390    1.3870    0.2170 N   0  0  0  0  0  0  0  0  0  0  0  0
    2.4210    1.9170    0.6780 N   0  0  0  0  0  0  0  0  0  0  0  0
    1.2840    1.1740    0.6380 C   0  0  0  0  0  0  0  0  0  0  0  0
    0.2310    1.6890    1.0780 O   0  0  0  0  0  0  0  0  0  0  0  0
   -2.1090    0.1380    0.1050 C   0  0  0  0  0  0  0  0  0  0  0  0
   -2.7900   -0.4990    1.0700 C   0  0  0  0  0  0  0  0  0  0  0  0
   -3.8410    0.0810    1.6660 C   0  0  0  0  0  0  0  0  0  0  0  0
   -4.1820    1.3560    1.2380 C   0  0  0  0  0  0  0  0  0  0  0  0
   -5.4680    2.4720    1.7350 Cl  0  0  0  0  0  0  0  0  0  0  0  0
   -2.9260    1.6610   -0.0430 S   0  0  0  0  0  0  0  0  0  0  0  0
  2  1  1  6
  2  3  1  0
  2 13  1  0
  3  4  1  0
  4  5  2  0
  4 11  1  0
  5  6  1  0
  6  7  1  0
  6  9  2  0
  7  8  2  0
  9 10  1  0
 10 11  1  0
 11 12  2  0
 13 14  2  0
 13 18  1  0
 14 15  1  0
 15 16  2  0
 16 17  1  0
 16 18  1  0
M  CHG  1   3   1
M  END
