
     RDKit          3D

 18 19  0  0  0  0  0  0  0  0999 V2000
   -2.9950    2.1770    0.8650 C   0  0  0  0  0  0  0  0  0  0  0  0
   -2.8340    0.7260    0.7370 C   0  0  0  0  0  0  0  0  0  0  0  0
   -1.6290    0.2100    0.6440 C   0  0  0  0  0  0  0  0  0  0  0  0
   -0.4800    0.9880    0.6590 N   0  0  0  0  0  0  0  0  0  0  0  0
    0.8180    0.3720    0.5530 C   0  0  0  0  0  0  0  0  0  0  0  0
    0.8710   -0.8720    0.4480 O   0  0  0  0  0  0  0  0  0  0  0  0
    2.0650    1.1510    0.5650 C   0  0  0  0  0  0  0  0  0  0  0  0
    3.1920    0.2700    0.4440 N   0  0  0  0  0  0  0  0  0  0  0  0
    3.8000   -0.1470   -0.7920 C   0  0  0  0  0  0  0  0  0  0  0  0
    4.9440   -1.0380   -0.4330 C   0  0  0  0  0  0  0  0  0  0  0  0
    4.7380   -1.2970    0.9500 O   0  0  0  0  0  0  0  0  0  0  0  0
    3.9030   -0.3410    1.4930 C   0  0  0  0  0  0  0  0  0  0  0  0
    3.8030   -0.0720    2.6970 O   0  0  0  0  0  0  0  0  0  0  0  0
   -1.5050   -1.5630    0.4900 S   0  0  0  0  0  0  0  0  0  0  0  0
   -2.9170   -2.0320   -0.5760 C   0  0  0  0  0  0  0  0  0  0  0  0
   -4.1390   -1.3740   -0.0680 C   0  0  0  0  0  0  0  0  0  0  0  0
   -3.9870   -0.1550    0.7120 C   0  0  0  0  0  0  0  0  0  0  0  0
   -4.9940    0.1570    1.4510 O   0  0  0  0  0  0  0  0  0  0  0  0
  1  2  1  0
  2  3  2  0
  2 17  1  0
  3  4  1  0
  3 14  1  0
  4  5  1  0
  5  6  2  0
  5  7  1  0
  7  8  1  0
  8  9  1  0
  8 12  1  0
  9 10  1  0
 10 11  1  0
 11 12  1  0
 12 13  2  0
 14 15  1  0
 15 16  1  0
 16 17  1  0
 17 18  2  0
M  END
