
     RDKit          3D

 12 12  0  0  0  0  0  0  0  0999 V2000
    3.1530    0.0360   -0.2640 O   0  0  0  0  0  0  0  0  0  0  0  0
    1.7850    0.0300   -0.1690 N   0  0  0  0  0  0  0  0  0  0  0  0
    1.1120    1.2040   -0.2270 C   0  0  0  0  0  0  0  0  0  0  0  0
   -0.3060    1.1980   -0.1330 C   0  0  0  0  0  0  0  0  0  0  0  0
   -1.0090    0.0370    0.0150 C   0  0  0  0  0  0  0  0  0  0  0  0
   -2.5160   -0.0150    0.0590 C   0  0  1  0  0  0  0  0  0  0  0  0
   -2.9790    1.1110   -0.5300 F   0  0  0  0  0  0  0  0  0  0  0  0
   -2.9680   -1.1520   -0.5640 F   0  0  0  0  0  0  0  0  0  0  0  0
   -2.8670   -0.0740    1.4080 F   0  0  0  0  0  0  0  0  0  0  0  0
   -0.2500   -1.1010    0.0700 C   0  0  0  0  0  0  0  0  0  0  0  0
    1.1130   -1.1150   -0.0150 C   0  0  0  0  0  0  0  0  0  0  0  0
    2.0160   -2.5230    0.0970 S   0  0  0  0  0  0  0  0  0  0  0  0
  1  2  1  0
  2  3  1  0
  2 11  1  0
  3  4  2  0
  4  5  1  0
  5  6  1  0
  5 10  2  0
  6  7  1  6
  6  8  1  0
  6  9  1  0
 10 11  1  0
 11 12  2  0
M  END
