
     RDKit          3D

 13 13  0  0  0  0  0  0  0  0999 V2000
   -2.3530    1.4150    1.7340 C   0  0  0  0  0  0  0  0  0  0  0  0
   -1.1020    0.7950    1.1660 C   0  0  0  0  0  0  0  0  0  0  0  0
   -1.2090   -0.2650    0.4010 C   0  0  0  0  0  0  0  0  0  0  0  0
   -2.5100   -0.8210    0.1170 N   0  0  0  0  0  0  0  0  0  0  0  0
   -2.7120   -1.9910   -0.6530 C   0  0  0  0  0  0  0  0  0  0  0  0
   -1.6280   -2.5780   -1.1220 C   0  0  0  0  0  0  0  0  0  0  0  0
   -0.3020   -2.0530   -0.8640 C   0  0  0  0  0  0  0  0  0  0  0  0
   -0.0570   -0.9440   -0.1390 C   0  0  0  0  0  0  0  0  0  0  0  0
    1.3360   -0.5530    0.0510 C   0  0  0  0  0  0  0  0  0  0  0  0
    1.7410    0.7530   -0.5900 C   0  0  0  0  0  0  0  0  0  0  0  0
    3.1810    1.0150   -0.3040 C   0  0  0  0  0  0  0  0  0  0  0  0
    3.8120    2.1830   -0.7960 N   0  0  0  0  0  0  0  0  0  0  0  0
    3.8140    0.1830    0.3770 O   0  0  0  0  0  0  0  0  0  0  0  0
  1  2  1  0
  2  3  2  3
  3  4  1  0
  3  8  1  0
  4  5  1  0
  5  6  2  0
  6  7  1  0
  7  8  2  0
  8  9  1  0
  9 10  1  0
 10 11  1  0
 11 12  1  0
 11 13  2  0
M  END
