
     RDKit          3D

 13 13  0  0  0  0  0  0  0  0999 V2000
   -5.1590    0.8090    0.4580 C   0  0  0  0  0  0  0  0  0  0  0  0
   -3.7380    0.6110    0.8520 C   0  0  0  0  0  0  0  0  0  0  0  0
   -2.8540    0.2480   -0.0710 C   0  0  0  0  0  0  0  0  0  0  0  0
   -1.4390    0.0280    0.2370 C   0  0  0  0  0  0  0  0  0  0  0  0
   -0.9870    0.2030    1.5670 N   0  0  0  0  0  0  0  0  0  0  0  0
   -0.6200   -0.3210   -0.7410 C   0  0  0  0  0  0  0  0  0  0  0  0
    0.8070   -0.5600   -0.4850 C   0  0  0  0  0  0  0  0  0  0  0  0
    1.2860   -1.3570    0.5350 C   0  0  0  0  0  0  0  0  0  0  0  0
    2.6590   -1.3080    0.4270 C   0  0  0  0  0  0  0  0  0  0  0  0
    2.9280   -0.4810   -0.6520 C   0  0  0  0  0  0  0  0  0  0  0  0
    4.2870   -0.1230   -1.1590 C   0  0  0  0  0  0  0  0  0  0  0  0
    4.8040    0.9930   -0.3660 N   0  0  0  0  0  0  0  0  0  0  0  0
    1.7990   -0.0610   -1.1640 O   0  0  0  0  0  0  0  0  0  0  0  0
  1  2  1  0
  2  3  2  3
  3  4  1  0
  4  5  1  0
  4  6  2  3
  6  7  1  0
  7  8  2  0
  7 13  1  0
  8  9  1  0
  9 10  2  0
 10 11  1  0
 10 13  1  0
 11 12  1  0
M  END
