
     RDKit          3D

 13 14  0  0  0  0  0  0  0  0999 V2000
   -2.5340    1.8440    0.4060 C   0  0  0  0  0  0  0  0  0  0  0  0
   -1.1590    1.3440    0.1760 C   0  0  0  0  0  0  0  0  0  0  0  0
   -0.0840    2.0890   -0.0360 N   0  0  0  0  0  0  0  0  0  0  0  0
    0.9630    1.2390   -0.1970 C   0  0  0  0  0  0  0  0  0  0  0  0
    2.3000    1.5030   -0.4420 C   0  0  0  0  0  0  0  0  0  0  0  0
    3.2000    0.4780   -0.5720 C   0  0  0  0  0  0  0  0  0  0  0  0
    2.7600   -0.8200   -0.4550 C   0  0  0  0  0  0  0  0  0  0  0  0
    1.4350   -1.1360   -0.2100 C   0  0  0  0  0  0  0  0  0  0  0  0
    1.0450   -2.4580   -0.1020 O   0  0  0  0  0  0  0  0  0  0  0  0
    0.5320   -0.0760   -0.0810 C   0  0  0  0  0  0  0  0  0  0  0  0
   -0.8130   -0.0340    0.1560 C   0  0  0  0  0  0  0  0  0  0  0  0
   -1.7760   -1.1100    0.3590 C   0  0  0  0  0  0  0  0  0  0  0  0
   -1.2620   -2.4170    0.3070 N   0  0  0  0  0  0  0  0  0  0  0  0
  1  2  1  0
  2  3  1  0
  2 11  2  0
  3  4  1  0
  4  5  2  0
  4 10  1  0
  5  6  1  0
  6  7  2  0
  7  8  1  0
  8  9  1  0
  8 10  2  0
 10 11  1  0
 11 12  1  0
 12 13  1  0
M  END
