
     RDKit          3D

 13 14  0  0  0  0  0  0  0  0999 V2000
    1.7300   -1.4500    1.3860 C   0  0  0  0  0  0  0  0  0  0  0  0
    1.7590   -0.6160    0.3770 C   0  0  0  0  0  0  0  0  0  0  0  0
    2.9160   -0.6800   -0.4440 N   0  0  0  0  0  0  0  0  0  0  0  0
    0.7050    0.3050    0.0130 C   0  0  0  0  0  0  0  0  0  0  0  0
    0.9860    1.5450   -0.4750 C   0  0  0  0  0  0  0  0  0  0  0  0
    2.2550    2.0620   -0.6250 O   0  0  0  0  0  0  0  0  0  0  0  0
   -0.0950    2.3660   -0.8530 C   0  0  0  0  0  0  0  0  0  0  0  0
   -1.3790    1.9010   -0.7190 C   0  0  0  0  0  0  0  0  0  0  0  0
   -1.6250    0.6410   -0.2210 C   0  0  0  0  0  0  0  0  0  0  0  0
   -0.5910   -0.1900    0.1590 C   0  0  0  0  0  0  0  0  0  0  0  0
   -1.1670   -1.4340    0.6260 C   0  0  0  0  0  0  0  0  0  0  0  0
   -2.4400   -1.5020   -0.0950 N   0  0  0  0  0  0  0  0  0  0  0  0
   -2.9040   -0.1140    0.0260 C   0  0  0  0  0  0  0  0  0  0  0  0
  1  2  2  0
  2  3  1  0
  2  4  1  0
  4  5  2  0
  4 10  1  0
  5  6  1  0
  5  7  1  0
  7  8  2  0
  8  9  1  0
  9 10  2  0
  9 13  1  0
 10 11  1  0
 11 12  1  0
 12 13  1  0
M  END
