
     RDKit          3D

 13 14  0  0  0  0  0  0  0  0999 V2000
   -1.6600   -2.3350    0.3000 C   0  0  0  0  0  0  0  0  0  0  0  0
   -1.8480   -0.8960   -0.0050 C   0  0  0  0  0  0  0  0  0  0  0  0
   -3.0520   -0.2940   -0.0940 N   0  0  0  0  0  0  0  0  0  0  0  0
   -2.8160    0.9930   -0.4030 C   0  0  0  0  0  0  0  0  0  0  0  0
   -1.4620    1.2240   -0.5120 C   0  0  0  0  0  0  0  0  0  0  0  0
   -0.8370    0.0340   -0.2600 C   0  0  0  0  0  0  0  0  0  0  0  0
    0.6000    0.2430   -0.3640 C   0  0  0  0  0  0  0  0  0  0  0  0
    1.5680   -0.8550   -0.1250 C   0  0  0  0  0  0  0  0  0  0  0  0
    2.9540   -0.4660   -0.3210 C   0  0  0  0  0  0  0  0  0  0  0  0
    3.6730    0.4030    0.5310 N   0  0  0  0  0  0  0  0  0  0  0  0
    3.5730   -0.9310   -1.3270 O   0  0  0  0  0  0  0  0  0  0  0  0
    0.8260    1.5040   -0.6690 C   0  0  0  0  0  0  0  0  0  0  0  0
   -0.4330    2.2520   -0.7960 C   0  0  0  0  0  0  0  0  0  0  0  0
  1  2  1  0
  2  3  1  0
  2  6  2  0
  3  4  1  0
  4  5  2  0
  5  6  1  0
  5 13  1  0
  6  7  1  0
  7  8  1  0
  7 12  2  0
  8  9  1  0
  9 10  1  0
  9 11  2  0
 12 13  1  0
M  END
