
     RDKit          3D

 13 13  0  0  0  0  0  0  0  0999 V2000
   -4.5650   -0.3620   -0.3510 C   0  0  0  0  0  0  0  0  0  0  0  0
   -3.2120   -0.9720   -0.0530 C   0  0  0  0  0  0  0  0  0  0  0  0
   -2.3510    0.1230    0.5910 C   0  0  0  0  0  0  0  0  0  0  0  0
   -1.0190   -0.3660    0.9190 C   0  0  0  0  0  0  0  0  0  0  0  0
    0.1360    0.0650    0.4790 C   0  0  0  0  0  0  0  0  0  0  0  0
    0.2280    1.1700   -0.4630 C   0  0  0  0  0  0  0  0  0  0  0  0
    1.4010    1.6080   -0.9100 C   0  0  0  0  0  0  0  0  0  0  0  0
    2.6510    1.0110   -0.4840 C   0  0  0  0  0  0  0  0  0  0  0  0
    2.6090   -0.0060    0.3800 C   0  0  0  0  0  0  0  0  0  0  0  0
    3.8730   -0.6140    0.8140 C   0  0  0  0  0  0  0  0  0  0  0  0
    5.1250   -0.1680    0.3570 N   0  0  0  0  0  0  0  0  0  0  0  0
    3.8220   -1.5670    1.6250 O   0  0  0  0  0  0  0  0  0  0  0  0
    1.3760   -0.5050    0.8820 N   0  0  0  0  0  0  0  0  0  0  0  0
  1  2  1  0
  2  3  1  0
  3  4  1  0
  4  5  2  3
  5  6  1  0
  5 13  1  0
  6  7  2  0
  7  8  1  0
  8  9  2  0
  9 10  1  0
  9 13  1  0
 10 11  1  0
 10 12  2  0
M  END
