
     RDKit          3D

 12 13  0  0  0  0  0  0  0  0999 V2000
   -3.3880    0.3240    0.3240 O   0  0  0  0  0  0  0  0  0  0  0  0
   -2.0450    0.4270    0.1920 N   0  0  0  0  0  0  0  0  0  0  0  0
   -1.4690    1.6860   -0.1160 C   0  0  0  0  0  0  0  0  0  0  0  0
   -0.1730    1.8620   -0.2590 C   0  0  0  0  0  0  0  0  0  0  0  0
    0.6970    0.7060   -0.0910 C   0  0  0  0  0  0  0  0  0  0  0  0
    2.0690    0.9010   -0.2440 C   0  0  0  0  0  0  0  0  0  0  0  0
    2.9030   -0.1770   -0.0900 C   0  0  0  0  0  0  0  0  0  0  0  0
    2.4190   -1.4350    0.2110 C   0  0  0  0  0  0  0  0  0  0  0  0
    1.0640   -1.6140    0.3600 C   0  0  0  0  0  0  0  0  0  0  0  0
    0.1890   -0.5250    0.2060 C   0  0  0  0  0  0  0  0  0  0  0  0
   -1.2580   -0.7450    0.3700 C   0  0  2  0  0  0  0  0  0  0  0  0
   -1.8340   -2.1370   -0.6370 S   0  0  0  0  0  0  0  0  0  0  0  0
  1  2  1  0
  2  3  1  0
  2 11  1  0
  3  4  2  0
  4  5  1  0
  5  6  2  0
  5 10  1  0
  6  7  1  0
  7  8  2  0
  8  9  1  0
  9 10  2  0
 10 11  1  0
 11 12  1  6
M  END
