
     RDKit          3D

 13 13  0  0  0  0  0  0  0  0999 V2000
    3.6880   -1.1510    0.1730 C   0  0  0  0  0  0  0  0  0  0  0  0
    3.5130    0.3050    0.3260 C   0  0  0  0  0  0  0  0  0  0  0  0
    2.4130    0.9810    0.2840 C   0  0  0  0  0  0  0  0  0  0  0  0
    2.4500    2.4080    0.4850 N   0  0  0  0  0  0  0  0  0  0  0  0
    1.1440    0.3760   -0.1030 C   0  0  0  0  0  0  0  0  0  0  0  0
    0.9660   -0.6340   -1.0160 C   0  0  0  0  0  0  0  0  0  0  0  0
   -0.3700   -0.9980   -0.9670 C   0  0  0  0  0  0  0  0  0  0  0  0
   -1.0000   -0.2110   -0.0240 C   0  0  0  0  0  0  0  0  0  0  0  0
   -2.4420   -0.3210    0.3370 C   0  0  2  0  0  0  0  0  0  0  0  0
   -3.1770   -1.0930   -0.7530 C   0  0  0  0  0  0  0  0  0  0  0  0
   -3.0230    1.0530    0.3380 C   0  0  0  0  0  0  0  0  0  0  0  0
   -2.5250   -0.9650    1.5520 O   0  0  0  0  0  0  0  0  0  0  0  0
   -0.0670    0.5860    0.4590 N   0  0  0  0  0  0  0  0  0  0  0  0
  1  2  1  0
  2  3  2  3
  3  4  1  0
  3  5  1  0
  5  6  2  0
  5 13  1  0
  6  7  1  0
  7  8  2  0
  8  9  1  0
  8 13  1  0
  9 10  1  6
  9 11  1  0
  9 12  1  0
M  END
