
     RDKit          3D

  8  8  0  0  0  0  0  0  0  0999 V2000
    2.9970    0.8480    0.1700 S   0  0  0  0  0  0  0  0  0  0  0  0
    1.9690   -0.6040    0.0910 C   0  0  0  0  0  0  0  0  0  0  0  0
    0.7040   -0.4780   -0.2760 C   0  0  0  0  0  0  0  0  0  0  0  0
   -0.1610   -1.6530   -0.3490 C   0  0  0  0  0  0  0  0  0  0  0  0
   -1.4140   -1.4630   -0.2140 N   0  0  0  0  0  0  0  0  0  0  0  0
   -2.0850   -0.2340    0.0020 C   0  0  0  0  0  0  0  0  0  0  0  0
   -1.2060    0.9750    0.0560 C   0  0  0  0  0  0  0  0  0  0  0  0
    0.1070    0.8250   -0.6240 C   0  0  0  0  0  0  0  0  0  0  0  0
  1  2  1  0
  2  3  2  3
  3  4  1  0
  3  8  1  0
  4  5  2  0
  5  6  1  0
  6  7  1  0
  7  8  1  0
M  END
