
     RDKit          3D

  8  8  0  0  0  0  0  0  0  0999 V2000
    2.6450   -0.4670    0.0730 C   0  0  0  0  0  0  0  0  0  0  0  0
    1.1740   -0.6590    0.0020 C   0  0  0  0  0  0  0  0  0  0  0  0
    0.2010    0.2050    0.0030 C   0  0  0  0  0  0  0  0  0  0  0  0
    0.5550    1.6790    0.0880 C   0  0  0  0  0  0  0  0  0  0  0  0
   -1.0970   -0.2530   -0.0720 N   0  0  0  0  0  0  0  0  0  0  0  0
   -2.3200    0.5240    0.1450 C   0  0  0  0  0  0  0  0  0  0  0  0
   -1.2580   -1.6600   -0.4020 C   0  0  0  0  0  0  0  0  0  0  0  0
    0.4370   -2.2820   -0.1090 S   0  0  0  0  0  0  0  0  0  0  0  0
  1  2  1  0
  2  3  2  0
  2  8  1  0
  3  4  1  0
  3  5  1  0
  5  6  1  0
  5  7  1  0
  7  8  1  0
M  END
