
     RDKit          3D

  8  8  0  0  0  0  0  0  0  0999 V2000
   -2.1840   -0.6300    0.1430 C   0  0  0  0  0  0  0  0  0  0  0  0
   -1.0070    0.2910    0.2500 C   0  0  0  0  0  0  0  0  0  0  0  0
   -0.9350    1.4740    0.6920 N   0  0  0  0  0  0  0  0  0  0  0  0
    0.3850    2.0020    0.6180 C   0  0  0  0  0  0  0  0  0  0  0  0
    1.2020    1.1000    0.0960 C   0  0  0  0  0  0  0  0  0  0  0  0
    0.3640   -0.0630   -0.1760 C   0  0  0  0  0  0  0  0  0  0  0  0
    0.7590   -1.2030   -0.7000 C   0  0  0  0  0  0  0  0  0  0  0  0
    2.4750   -1.3990   -1.1380 S   0  0  0  0  0  0  0  0  0  0  0  0
  1  2  1  0
  2  3  2  0
  2  6  1  0
  3  4  1  0
  4  5  2  0
  5  6  1  0
  6  7  2  3
  7  8  1  0
M  END
