
     RDKit          3D

  8  8  0  0  0  0  0  0  0  0999 V2000
   -2.5650    0.1660    1.0890 C   0  0  0  0  0  0  0  0  0  0  0  0
   -1.3370    0.0660    0.2530 C   0  0  0  0  0  0  0  0  0  0  0  0
   -0.7180   -1.0500    0.2090 N   0  0  0  0  0  0  0  0  0  0  0  0
    0.4500   -1.3740   -0.5040 C   0  0  0  0  0  0  0  0  0  0  0  0
    1.6880   -0.6550   -0.1260 C   0  0  0  0  0  0  0  0  0  0  0  0
    1.7590    0.7650   -0.4380 C   0  0  0  0  0  0  0  0  0  0  0  0
    0.8900    1.7440   -0.6460 C   0  0  0  0  0  0  0  0  0  0  0  0
   -0.8870    1.5600   -0.5910 S   0  0  0  0  0  0  0  0  0  0  0  0
  1  2  1  0
  2  3  2  0
  2  8  1  0
  3  4  1  0
  4  5  1  0
  5  6  1  0
  6  7  2  0
  7  8  1  0
M  END
