
     RDKit          3D

  8  8  0  0  0  0  0  0  0  0999 V2000
   -1.5010   -1.6750    0.1720 C   0  0  0  0  0  0  0  0  0  0  0  0
   -0.8010   -0.4180    0.0820 N   0  0  0  0  0  0  0  0  0  0  0  0
   -1.4100    0.8940    0.1100 C   0  0  0  0  0  0  0  0  0  0  0  0
   -0.3520    1.8760   -0.2950 C   0  0  0  0  0  0  0  0  0  0  0  0
    0.8510    1.0650   -0.7240 C   0  0  0  0  0  0  0  0  0  0  0  0
    0.6080   -0.2560   -0.0480 C   0  0  0  0  0  0  0  0  0  0  0  0
    1.5160   -1.1130    0.3540 C   0  0  0  0  0  0  0  0  0  0  0  0
    3.2320   -0.7450    0.1080 S   0  0  0  0  0  0  0  0  0  0  0  0
  1  2  1  0
  2  3  1  0
  2  6  1  0
  3  4  1  0
  4  5  1  0
  5  6  1  0
  6  7  2  3
  7  8  1  0
M  END
