
     RDKit          3D

  8  8  0  0  0  0  0  0  0  0999 V2000
    0.0830   -0.8400   -2.0410 C   0  0  0  0  0  0  0  0  0  0  0  0
   -0.1860   -0.5090   -0.8170 C   0  0  0  0  0  0  0  0  0  0  0  0
   -1.5930   -1.0760    0.1100 S   0  0  0  0  0  0  0  0  0  0  0  0
   -1.2220   -0.0760    1.5780 C   0  0  0  0  0  0  0  0  0  0  0  0
    0.0380    0.5650    1.2240 C   0  0  0  0  0  0  0  0  0  0  0  0
    0.5500    0.3630    0.0650 C   0  0  0  0  0  0  0  0  0  0  0  0
    1.8040    0.9580   -0.3850 C   0  0  0  0  0  0  0  0  0  0  0  0
    2.8200    1.4470   -0.7330 N   0  0  0  0  0  0  0  0  0  0  0  0
  1  2  2  0
  2  3  1  0
  2  6  1  0
  3  4  1  0
  4  5  1  0
  5  6  2  0
  6  7  1  0
  7  8  3  0
M  END
