
     RDKit          3D

  8  8  0  0  0  0  0  0  0  0999 V2000
   -2.1530   -0.4020   -0.1450 C   0  0  0  0  0  0  0  0  0  0  0  0
   -0.7450    0.0650   -0.0660 C   0  0  0  0  0  0  0  0  0  0  0  0
   -0.4720    1.3960    0.2140 C   0  0  0  0  0  0  0  0  0  0  0  0
    0.8660    1.7410    0.2680 C   0  0  0  0  0  0  0  0  0  0  0  0
    1.8610    0.8550    0.0650 N   0  0  0  0  0  0  0  0  0  0  0  0
    1.6150   -0.4400   -0.2070 C   0  0  0  0  0  0  0  0  0  0  0  0
    2.9360   -1.6280   -0.4800 S   0  0  0  0  0  0  0  0  0  0  0  0
    0.2900   -0.8250   -0.2710 C   0  0  0  0  0  0  0  0  0  0  0  0
  1  2  1  0
  2  3  2  0
  2  8  1  0
  3  4  1  0
  4  5  2  0
  5  6  1  0
  6  7  1  0
  6  8  2  0
M  END
