
     RDKit          3D

  8  8  0  0  0  0  0  0  0  0999 V2000
    2.9750   -0.0430    0.0170 C   0  0  0  0  0  0  0  0  0  0  0  0
    1.6510    0.6020   -0.1330 C   0  0  0  0  0  0  0  0  0  0  0  0
    0.5580   -0.1030    0.0290 C   0  0  0  0  0  0  0  0  0  0  0  0
    0.3530   -1.8410    0.4300 S   0  0  0  0  0  0  0  0  0  0  0  0
   -1.4920   -1.8150    0.3710 C   0  0  0  0  0  0  0  0  0  0  0  0
   -1.6390   -0.6390   -0.6080 C   0  0  0  0  0  0  0  0  0  0  0  0
   -0.7730    0.3970   -0.0860 N   0  0  0  0  0  0  0  0  0  0  0  0
   -1.2420    1.7510    0.2560 C   0  0  0  0  0  0  0  0  0  0  0  0
  1  2  1  0
  2  3  2  3
  3  4  1  0
  3  7  1  0
  4  5  1  0
  5  6  1  0
  6  7  1  0
  7  8  1  0
M  END
