
     RDKit          3D

 27 27  0  0  0  0  0  0  0  0999 V2000
    6.7980   -2.3940   -0.9020 C   0  0  0  0  0  0  0  0  0  0  0  0
    5.9810   -2.9590   -2.0540 C   0  0  0  0  0  0  0  0  0  0  0  0
    4.5930   -3.0170   -1.6140 N   0  0  0  0  0  0  0  0  0  0  0  0
    3.9600   -1.8260   -1.2360 C   0  0  0  0  0  0  0  0  0  0  0  0
    4.5880   -0.7520   -1.2860 O   0  0  0  0  0  0  0  0  0  0  0  0
    2.5490   -1.8630   -0.7820 C   0  0  0  0  0  0  0  0  0  0  0  0
    1.9100   -3.1980   -0.7460 C   0  0  0  0  0  0  0  0  0  0  0  0
    1.9800   -0.7340   -0.4430 C   0  0  0  0  0  0  0  0  0  0  0  0
    0.6210   -0.6430    0.0100 C   0  0  0  0  0  0  0  0  0  0  0  0
    0.0550    0.5020    0.3530 C   0  0  0  0  0  0  0  0  0  0  0  0
    0.8170    1.6810    0.2690 N   0  0  0  0  0  0  0  0  0  0  0  0
    0.4190    2.7500   -0.5640 C   0  0  0  0  0  0  0  0  0  0  0  0
   -0.6250    2.7140   -1.2700 O   0  0  0  0  0  0  0  0  0  0  0  0
    1.2560    3.9740   -0.6180 C   0  0  0  0  0  0  0  0  0  0  0  0
    0.7200    4.9250   -1.4850 O   0  0  0  0  0  0  0  0  0  0  0  0
    1.5310    6.0420   -1.5010 C   0  0  0  0  0  0  0  0  0  0  0  0
    1.6710    6.6840   -0.1390 C   0  0  0  0  0  0  0  0  0  0  0  0
   -1.3070    0.5450    0.7990 C   0  0  0  0  0  0  0  0  0  0  0  0
   -1.8160    1.6830    1.1230 O   0  0  0  0  0  0  0  0  0  0  0  0
   -2.1440   -0.5890    0.9120 N   0  0  0  0  0  0  0  0  0  0  0  0
   -3.5190   -0.4380    1.3780 C   0  0  2  0  0  0  0  0  0  0  0  0
   -3.7240   -1.2270    2.6540 C   0  0  0  0  0  0  0  0  0  0  0  0
   -4.5060   -0.9310    0.3610 C   0  0  2  0  0  0  0  0  0  0  0  0
   -5.8980   -0.7630    0.9210 C   0  0  0  0  0  0  0  0  0  0  0  0
   -6.6280   -1.8900    0.2090 C   0  0  0  0  0  0  0  0  0  0  0  0
   -5.5170   -2.9090    0.0820 C   0  0  0  0  0  0  0  0  0  0  0  0
   -4.3200   -2.2520    0.0790 O   0  0  0  0  0  0  0  0  0  0  0  0
  1  2  1  0
  2  3  1  0
  3  4  1  0
  4  5  2  0
  4  6  1  0
  6  7  1  0
  6  8  2  3
  8  9  1  0
  9 10  2  3
 10 11  1  0
 10 18  1  0
 11 12  1  0
 12 13  2  0
 12 14  1  0
 14 15  1  0
 15 16  1  0
 16 17  1  0
 18 19  2  0
 18 20  1  0
 20 21  1  0
 21 22  1  1
 21 23  1  0
 23 24  1  1
 23 27  1  0
 24 25  1  0
 25 26  1  0
 26 27  1  0
M  END
