
     RDKit          3D

 27 27  0  0  0  0  0  0  0  0999 V2000
    9.1580   -1.3670   -2.1420 C   0  0  0  0  0  0  0  0  0  0  0  0
    7.6680   -1.1690   -1.9120 C   0  0  0  0  0  0  0  0  0  0  0  0
    7.3630    0.3210   -2.1010 C   0  0  0  0  0  0  0  0  0  0  0  0
    5.8810    0.4880   -1.8670 C   0  0  0  0  0  0  0  0  0  0  0  0
    5.5130    0.0870   -0.5840 O   0  0  0  0  0  0  0  0  0  0  0  0
    4.1330    0.2690   -0.4350 C   0  0  0  0  0  0  0  0  0  0  0  0
    3.6770   -0.1450    0.9140 C   0  0  0  0  0  0  0  0  0  0  0  0
    4.5310   -0.5880    1.7170 O   0  0  0  0  0  0  0  0  0  0  0  0
    2.3110   -0.0240    1.2390 N   0  0  0  0  0  0  0  0  0  0  0  0
    1.3050    0.4800    0.3450 C   0  0  0  0  0  0  0  0  0  0  0  0
   -0.0580   -0.1090    0.5790 C   0  0  2  0  0  0  0  0  0  0  0  0
   -1.0610    0.6590   -0.2550 C   0  0  0  0  0  0  0  0  0  0  0  0
   -2.4190    0.0760   -0.0250 C   0  0  0  0  0  0  0  0  0  0  0  0
   -2.5640   -0.9130    0.7520 O   0  0  0  0  0  0  0  0  0  0  0  0
   -3.5630    0.5830   -0.6420 N   0  0  0  0  0  0  0  0  0  0  0  0
   -4.9040   -0.0300   -0.3850 C   0  0  1  0  0  0  0  0  0  0  0  0
   -5.8750    0.9710    0.0090 C   0  0  0  0  0  0  0  0  0  0  0  0
   -7.1900    0.5250    0.4820 C   0  0  0  0  0  0  0  0  0  0  0  0
   -8.1430   -0.2800   -0.2940 C   0  0  0  0  0  0  0  0  0  0  0  0
   -9.2940   -0.4590    0.5650 O   0  0  0  0  0  0  0  0  0  0  0  0
   -5.1570   -0.5850   -1.7650 C   0  0  0  0  0  0  0  0  0  0  0  0
   -6.3350   -0.4630   -2.4620 N   0  0  0  0  0  0  0  0  0  0  0  0
   -4.1930   -1.2160   -2.3450 O   0  0  0  0  0  0  0  0  0  0  0  0
   -0.4590   -0.1790    2.0240 C   0  0  0  0  0  0  0  0  0  0  0  0
    0.6470    0.3750    2.8770 C   0  0  1  0  0  0  0  0  0  0  0  0
    0.3010    0.3930    4.3380 C   0  0  0  0  0  0  0  0  0  0  0  0
    1.8890   -0.4430    2.5840 C   0  0  0  0  0  0  0  0  0  0  0  0
  1  2  1  0
  2  3  1  0
  3  4  1  0
  4  5  1  0
  5  6  1  0
  6  7  1  0
  7  8  2  0
  7  9  1  0
  9 10  1  0
  9 27  1  0
 10 11  1  0
 11 12  1  6
 11 24  1  0
 12 13  1  0
 13 14  2  0
 13 15  1  0
 15 16  1  0
 16 17  1  6
 16 21  1  0
 17 18  1  0
 18 19  1  0
 19 20  1  0
 21 22  1  0
 21 23  2  0
 24 25  1  0
 25 26  1  1
 25 27  1  0
M  END
