
     RDKit          3D

 27 27  0  0  0  0  0  0  0  0999 V2000
   10.2670    0.1930   -0.4190 C   0  0  0  0  0  0  0  0  0  0  0  0
    9.1670    0.7110    0.4550 C   0  0  0  0  0  0  0  0  0  0  0  0
    7.8940    0.4160   -0.1790 N   0  0  0  0  0  0  0  0  0  0  0  0
    6.6560    0.7780    0.4000 C   0  0  0  0  0  0  0  0  0  0  0  0
    6.6390    1.3720    1.4910 O   0  0  0  0  0  0  0  0  0  0  0  0
    5.4050    0.4520   -0.2900 C   0  0  0  0  0  0  0  0  0  0  0  0
    4.2040    0.8990    0.4480 C   0  0  0  0  0  0  0  0  0  0  0  0
    4.3690    1.4900    1.5460 O   0  0  0  0  0  0  0  0  0  0  0  0
    2.8830    0.7050   -0.0030 N   0  0  0  0  0  0  0  0  0  0  0  0
    1.7050    1.1300    0.6950 C   0  0  1  0  0  0  0  0  0  0  0  0
    0.6860    1.8830   -0.1630 C   0  0  0  0  0  0  0  0  0  0  0  0
   -0.3860    1.0890    0.5780 C   0  0  1  0  0  0  0  0  0  0  0  0
   -1.4160    0.5860   -0.2110 O   0  0  0  0  0  0  0  0  0  0  0  0
   -2.7630    0.6570    0.1250 C   0  0  0  0  0  0  0  0  0  0  0  0
   -3.0500    1.2110    1.2070 O   0  0  0  0  0  0  0  0  0  0  0  0
   -3.7530    0.0830   -0.8030 C   0  0  1  0  0  0  0  0  0  0  0  0
   -3.7240    0.7170   -2.1610 C   0  0  0  0  0  0  0  0  0  0  0  0
   -3.5270   -1.4150   -0.8790 C   0  0  0  0  0  0  0  0  0  0  0  0
   -5.1310    0.3100   -0.1650 C   0  0  0  0  0  0  0  0  0  0  0  0
   -6.2210   -0.2340   -1.0210 C   0  0  0  0  0  0  0  0  0  0  0  0
   -7.5710   -0.0180   -0.4120 C   0  0  0  0  0  0  0  0  0  0  0  0
   -7.7880   -0.6630    0.8860 C   0  0  0  0  0  0  0  0  0  0  0  0
   -9.0080   -0.3720    1.5810 N   0  0  0  0  0  0  0  0  0  0  0  0
   -6.9330   -1.4460    1.3750 O   0  0  0  0  0  0  0  0  0  0  0  0
    0.6770    0.0180    0.8000 C   0  0  2  0  0  0  0  0  0  0  0  0
    0.6360   -0.6390    2.1350 C   0  0  0  0  0  0  0  0  0  0  0  0
    0.8040   -0.9110   -0.3860 C   0  0  0  0  0  0  0  0  0  0  0  0
  1  2  1  0
  2  3  1  0
  3  4  1  0
  4  5  2  0
  4  6  1  0
  6  7  1  0
  7  8  2  0
  7  9  1  0
 10  9  1  6
 10 11  1  0
 10 25  1  0
 11 12  1  0
 12 13  1  6
 12 25  1  0
 13 14  1  0
 14 15  2  0
 14 16  1  0
 16 17  1  6
 16 18  1  0
 16 19  1  0
 19 20  1  0
 20 21  1  0
 21 22  1  0
 22 23  1  0
 22 24  2  0
 25 26  1  1
 25 27  1  0
M  END
