
     RDKit          3D

 21 22  0  0  0  0  0  0  0  0999 V2000
   -2.3370    2.0180   -1.4770 C   0  0  0  0  0  0  0  0  0  0  0  0
   -2.8680    1.2560   -0.5670 C   0  0  0  0  0  0  0  0  0  0  0  0
   -2.1840    0.2000    0.1530 C   0  0  0  0  0  0  0  0  0  0  0  0
   -2.9380   -0.5060    1.0190 C   0  0  0  0  0  0  0  0  0  0  0  0
   -2.3710   -1.6140    1.8260 C   0  0  0  0  0  0  0  0  0  0  0  0
   -0.8220   -0.1520   -0.1340 C   0  0  0  0  0  0  0  0  0  0  0  0
   -0.5480   -1.4530   -0.5800 C   0  0  0  0  0  0  0  0  0  0  0  0
   -1.5980   -2.3150   -0.8050 O   0  0  0  0  0  0  0  0  0  0  0  0
    0.7400   -1.8690   -0.7940 C   0  0  0  0  0  0  0  0  0  0  0  0
    0.9940   -3.1710   -1.2400 O   0  0  0  0  0  0  0  0  0  0  0  0
    2.2850   -3.6550   -1.4760 C   0  0  0  0  0  0  0  0  0  0  0  0
    1.7890   -1.0030   -0.5710 C   0  0  0  0  0  0  0  0  0  0  0  0
    1.5310    0.2950   -0.1250 C   0  0  0  0  0  0  0  0  0  0  0  0
    2.6130    1.1230    0.1350 C   0  0  0  0  0  0  0  0  0  0  0  0
    2.4370    2.3910    0.6230 C   0  0  0  0  0  0  0  0  0  0  0  0
    3.5610    3.2490    0.8910 C   0  0  0  0  0  0  0  0  0  0  0  0
    4.4550    3.9180    1.1180 N   0  0  0  0  0  0  0  0  0  0  0  0
    1.1430    2.7970    0.8410 C   0  0  0  0  0  0  0  0  0  0  0  0
    0.9340    4.0700    1.3350 O   0  0  0  0  0  0  0  0  0  0  0  0
    0.0510    1.9790    0.5840 C   0  0  0  0  0  0  0  0  0  0  0  0
    0.2280    0.7120    0.0920 C   0  0  0  0  0  0  0  0  0  0  0  0
  1  2  2  0
  2  3  1  0
  3  4  2  3
  3  6  1  0
  4  5  1  0
  6  7  2  0
  6 21  1  0
  7  8  1  0
  7  9  1  0
  9 10  1  0
  9 12  2  0
 10 11  1  0
 12 13  1  0
 13 14  2  0
 13 21  1  0
 14 15  1  0
 15 16  1  0
 15 18  2  0
 16 17  3  0
 18 19  1  0
 18 20  1  0
 20 21  2  0
M  END
