
     RDKit          3D

  9  9  0  0  0  0  0  0  0  0999 V2000
    2.5660    0.5060    0.0740 C   0  0  0  0  0  0  0  0  0  0  0  0
    1.1500    0.0690    0.0720 C   0  0  0  0  0  0  0  0  0  0  0  0
    0.7850   -1.1090    0.6980 C   0  0  0  0  0  0  0  0  0  0  0  0
   -0.5190   -1.5240    0.7030 C   0  0  0  0  0  0  0  0  0  0  0  0
   -1.4890   -0.7420    0.0650 C   0  0  0  0  0  0  0  0  0  0  0  0
   -2.8120   -1.1410    0.0570 O   0  0  0  0  0  0  0  0  0  0  0  0
   -1.1130    0.4240   -0.5530 C   0  0  0  0  0  0  0  0  0  0  0  0
   -2.3820    1.4020   -1.3620 S   0  0  0  0  0  0  0  0  0  0  0  0
    0.2110    0.8500   -0.5610 C   0  0  0  0  0  0  0  0  0  0  0  0
  1  2  1  0
  2  3  2  0
  2  9  1  0
  3  4  1  0
  4  5  2  0
  5  6  1  0
  5  7  1  0
  7  8  1  0
  7  9  2  0
M  END
