
     RDKit          3D

 21 22  0  0  0  0  0  0  0  0999 V2000
    3.0030   -2.6950   -0.8190 C   0  0  0  0  0  0  0  0  0  0  0  0
    2.3920   -1.5810   -0.4310 C   0  0  0  0  0  0  0  0  0  0  0  0
    3.1700   -0.4340   -0.0030 C   0  0  0  0  0  0  0  0  0  0  0  0
    2.5800    0.6530    0.3760 C   0  0  0  0  0  0  0  0  0  0  0  0
    3.4640    1.8100    0.8100 C   0  0  0  0  0  0  0  0  0  0  0  0
    4.8400    1.4500    0.7090 N   0  0  0  0  0  0  0  0  0  0  0  0
    1.1220    0.8330    0.4210 C   0  0  0  0  0  0  0  0  0  0  0  0
    0.3220   -0.3060   -0.0140 C   0  0  0  0  0  0  0  0  0  0  0  0
   -1.1120   -0.4140    0.1370 C   0  0  0  0  0  0  0  0  0  0  0  0
   -1.6230   -1.6510    0.6280 C   0  0  0  0  0  0  0  0  0  0  0  0
   -2.9680   -1.8260    0.8270 C   0  0  0  0  0  0  0  0  0  0  0  0
   -3.5020   -3.1240    1.3410 C   0  0  0  0  0  0  0  0  0  0  0  0
   -3.8770   -0.8330    0.5660 C   0  0  0  0  0  0  0  0  0  0  0  0
   -5.2560   -1.0360    0.7830 O   0  0  0  0  0  0  0  0  0  0  0  0
   -3.4000    0.3550    0.0910 C   0  0  0  0  0  0  0  0  0  0  0  0
   -2.0070    0.5490   -0.1240 C   0  0  0  0  0  0  0  0  0  0  0  0
   -1.6870    1.7370   -0.8950 C   0  0  0  0  0  0  0  0  0  0  0  0
   -2.5610    2.6790   -0.9170 O   0  0  0  0  0  0  0  0  0  0  0  0
   -0.5590    1.9920   -1.6350 O   0  0  0  0  0  0  0  0  0  0  0  0
   -0.3520    3.1840   -2.3680 C   0  0  0  0  0  0  0  0  0  0  0  0
    0.9590   -1.4320   -0.4090 C   0  0  0  0  0  0  0  0  0  0  0  0
  1  2  2  0
  2  3  1  0
  2 21  1  0
  3  4  2  0
  4  5  1  0
  4  7  1  0
  5  6  1  0
  7  8  1  0
  8  9  1  0
  8 21  2  0
  9 10  2  0
  9 16  1  0
 10 11  1  0
 11 12  1  0
 11 13  2  0
 13 14  1  0
 13 15  1  0
 15 16  2  0
 16 17  1  0
 17 18  2  0
 17 19  1  0
 19 20  1  0
M  END
