
     RDKit          3D

 21 23  0  0  0  0  0  0  0  0999 V2000
   -2.6010    2.9750   -1.4230 C   0  0  0  0  0  0  0  0  0  0  0  0
   -2.0800    1.7120   -0.9380 N   0  0  0  0  0  0  0  0  0  0  0  0
   -2.8950    0.7140   -0.3690 C   0  0  0  0  0  0  0  0  0  0  0  0
   -4.2440    0.8990   -0.2760 C   0  0  0  0  0  0  0  0  0  0  0  0
   -5.0100   -0.1040    0.2750 C   0  0  0  0  0  0  0  0  0  0  0  0
   -4.4530   -1.2750    0.7280 C   0  0  0  0  0  0  0  0  0  0  0  0
   -3.0750   -1.4250    0.6150 C   0  0  0  0  0  0  0  0  0  0  0  0
   -2.2370   -0.4670    0.0750 C   0  0  0  0  0  0  0  0  0  0  0  0
   -0.9290   -0.5780   -0.0470 O   0  0  0  0  0  0  0  0  0  0  0  0
    0.1720   -1.2550    0.0930 C   0  0  0  0  0  0  0  0  0  0  0  0
    0.2110   -2.5380    0.5910 C   0  0  0  0  0  0  0  0  0  0  0  0
    1.4070   -3.2040    0.7160 C   0  0  0  0  0  0  0  0  0  0  0  0
    1.4400   -4.5060    1.2220 O   0  0  0  0  0  0  0  0  0  0  0  0
    2.6020   -2.6410    0.3590 C   0  0  0  0  0  0  0  0  0  0  0  0
    2.5680   -1.3490   -0.1430 C   0  0  0  0  0  0  0  0  0  0  0  0
    1.4120   -0.6540   -0.2830 C   0  0  0  0  0  0  0  0  0  0  0  0
    1.7280    0.6820   -0.8230 C   0  0  0  0  0  0  0  0  0  0  0  0
    3.2080    0.7860   -0.5260 C   0  0  1  0  0  0  0  0  0  0  0  0
    3.9010    1.6650   -1.5290 C   0  0  0  0  0  0  0  0  0  0  0  0
    3.4030    1.2730    0.8950 C   0  0  0  0  0  0  0  0  0  0  0  0
    3.6430   -0.5500   -0.5810 O   0  0  0  0  0  0  0  0  0  0  0  0
  1  2  1  0
  2  3  1  0
  3  4  2  0
  3  8  1  0
  4  5  1  0
  5  6  2  0
  6  7  1  0
  7  8  2  0
  8  9  1  0
  9 10  1  0
 10 11  2  0
 10 16  1  0
 11 12  1  0
 12 13  1  0
 12 14  2  0
 14 15  1  0
 15 16  2  0
 15 21  1  0
 16 17  1  0
 17 18  1  0
 18 19  1  6
 18 20  1  0
 18 21  1  0
M  END
