
     RDKit          3D

 21 23  0  0  0  0  0  0  0  0999 V2000
   -2.4310   -1.7680   -0.7450 N   0  0  0  0  0  0  0  0  0  0  0  0
   -3.4930   -0.8180   -0.5730 C   0  0  0  0  0  0  0  0  0  0  0  0
   -4.5570   -0.8640   -1.4630 C   0  0  0  0  0  0  0  0  0  0  0  0
   -5.6210   -0.0010   -1.3850 C   0  0  0  0  0  0  0  0  0  0  0  0
   -5.5990    0.9350   -0.3700 C   0  0  0  0  0  0  0  0  0  0  0  0
   -4.5490    0.9910    0.5200 C   0  0  0  0  0  0  0  0  0  0  0  0
   -3.4900    0.1150    0.4250 C   0  0  0  0  0  0  0  0  0  0  0  0
   -2.4880    0.2240    1.3330 O   0  0  0  0  0  0  0  0  0  0  0  0
   -1.1510    0.4800    1.1140 C   0  0  0  0  0  0  0  0  0  0  0  0
   -0.1740   -0.4850    1.0230 C   0  0  0  0  0  0  0  0  0  0  0  0
    1.1700   -0.1610    0.7980 C   0  0  0  0  0  0  0  0  0  0  0  0
    1.5590    1.1540    0.6600 C   0  0  0  0  0  0  0  0  0  0  0  0
    2.8840    1.5110    0.4370 O   0  0  0  0  0  0  0  0  0  0  0  0
    3.8230    0.4950    0.3530 C   0  0  0  0  0  0  0  0  0  0  0  0
    4.3910    0.2670   -0.8120 C   0  0  0  0  0  0  0  0  0  0  0  0
    5.4060   -0.7940   -1.0050 C   0  0  0  0  0  0  0  0  0  0  0  0
    5.6790   -1.5050    0.1710 O   0  0  0  0  0  0  0  0  0  0  0  0
    5.0940   -1.2740    1.3840 C   0  0  0  0  0  0  0  0  0  0  0  0
    4.1950   -0.3200    1.5140 C   0  0  0  0  0  0  0  0  0  0  0  0
    0.5890    2.1400    0.7500 C   0  0  0  0  0  0  0  0  0  0  0  0
   -0.7160    1.8040    0.9700 C   0  0  0  0  0  0  0  0  0  0  0  0
  1  2  1  0
  2  3  2  0
  2  7  1  0
  3  4  1  0
  4  5  2  0
  5  6  1  0
  6  7  2  0
  7  8  1  0
  8  9  1  0
  9 10  2  0
  9 21  1  0
 10 11  1  0
 11 12  2  0
 12 13  1  0
 12 20  1  0
 13 14  1  0
 14 15  2  0
 14 19  1  0
 15 16  1  0
 16 17  1  0
 17 18  1  0
 18 19  2  0
 20 21  2  0
M  END
