
     RDKit          3D

 43 45  0  0  0  0  0  0  0  0999 V2000
   -0.7880    4.2430   -2.2190 O   0  0  0  0  0  0  0  0  0  0  0  0
   -1.5020    3.7220   -1.2760 C   0  0  0  0  0  0  0  0  0  0  0  0
   -2.0650    4.6710   -0.3890 N   0  0  0  0  0  0  0  0  0  0  0  0
   -2.0200    4.6110    1.0560 C   0  0  0  0  0  0  0  0  0  0  0  0
   -0.8000    5.4020    1.5450 C   0  0  0  0  0  0  0  0  0  0  0  0
    0.3050    5.0520    0.8000 O   0  0  0  0  0  0  0  0  0  0  0  0
    0.9340    3.9000    1.2770 C   0  0  0  0  0  0  0  0  0  0  0  0
    1.2430    3.0020    0.2310 O   0  0  0  0  0  0  0  0  0  0  0  0
    1.6220    1.7340    0.4560 N   0  0  0  0  0  0  0  0  0  0  0  0
    1.1420    0.6550   -0.0280 C   0  0  0  0  0  0  0  0  0  0  0  0
    1.7090   -0.5720    0.3580 N   0  0  0  0  0  0  0  0  0  0  0  0
    2.7640   -1.1050   -0.0760 C   0  0  0  0  0  0  0  0  0  0  0  0
    3.2000   -2.3510    0.4200 N   0  0  0  0  0  0  0  0  0  0  0  0
    2.8150   -2.7160    1.7790 C   0  0  0  0  0  0  0  0  0  0  0  0
    3.3500   -4.0850    2.1490 C   0  0  0  0  0  0  0  0  0  0  0  0
    2.9160   -4.3190    3.4710 O   0  0  0  0  0  0  0  0  0  0  0  0
    3.3320   -5.4760    3.8690 O   0  0  0  0  0  0  0  0  0  0  0  0
    3.5490   -0.4340   -1.1020 C   0  0  0  0  0  0  0  0  0  0  0  0
    3.1710    0.6950   -1.5660 O   0  0  0  0  0  0  0  0  0  0  0  0
    4.7470   -0.9820   -1.6310 N   0  0  0  0  0  0  0  0  0  0  0  0
    5.5060   -0.2890   -2.6440 C   0  0  0  0  0  0  0  0  0  0  0  0
    5.9830    1.0470   -2.1310 C   0  0  0  0  0  0  0  0  0  0  0  0
    6.7270    1.7130   -3.1350 O   0  0  0  0  0  0  0  0  0  0  0  0
    7.1400    2.8740   -2.6880 O   0  0  0  0  0  0  0  0  0  0  0  0
    0.0300    0.6740   -0.9710 C   0  0  1  0  0  0  0  0  0  0  0  0
   -0.2950   -0.4770   -1.6250 O   0  0  0  0  0  0  0  0  0  0  0  0
    0.1260   -1.7080   -1.8680 C   0  0  0  0  0  0  0  0  0  0  0  0
    1.0760   -1.9950   -2.7040 O   0  0  0  0  0  0  0  0  0  0  0  0
   -0.3940   -2.8840   -1.2610 N   0  0  0  0  0  0  0  0  0  0  0  0
   -0.5800   -3.1220    0.1480 C   0  0  0  0  0  0  0  0  0  0  0  0
   -1.9480   -3.7180    0.3910 C   0  0  0  0  0  0  0  0  0  0  0  0
   -2.3890   -3.2620    1.6310 O   0  0  0  0  0  0  0  0  0  0  0  0
   -3.6660   -2.6740    1.5210 C   0  0  0  0  0  0  0  0  0  0  0  0
   -3.6420   -1.2020    1.7920 C   0  0  0  0  0  0  0  0  0  0  0  0
   -4.2950   -0.3560    0.7710 C   0  0  2  0  0  0  0  0  0  0  0  0
   -4.8720   -1.0930   -0.4020 C   0  0  0  0  0  0  0  0  0  0  0  0
   -5.5940   -0.2500   -1.2090 O   0  0  0  0  0  0  0  0  0  0  0  0
   -4.9470    0.8830   -1.6240 C   0  0  0  0  0  0  0  0  0  0  0  0
   -4.4070    1.6160   -0.4110 C   0  0  0  0  0  0  0  0  0  0  0  0
   -3.4850    0.7760    0.3120 N   0  0  0  0  0  0  0  0  0  0  0  0
   -2.3490    0.3320   -0.4220 C   0  0  0  0  0  0  0  0  0  0  0  0
   -1.2160    1.3760   -0.3960 C   0  0  2  0  0  0  0  0  0  0  0  0
   -1.6190    2.3760   -1.2550 O   0  0  0  0  0  0  0  0  0  0  0  0
  1  2  2  0
  2  3  1  0
  2 43  1  0
  3  4  1  0
  4  5  1  0
  5  6  1  0
  6  7  1  0
  7  8  1  0
  8  9  1  0
  9 10  2  0
 10 11  1  0
 10 25  1  0
 11 12  2  3
 12 13  1  0
 12 18  1  0
 13 14  1  0
 14 15  1  0
 15 16  1  0
 16 17  1  0
 18 19  2  0
 18 20  1  0
 20 21  1  0
 21 22  1  0
 22 23  1  0
 23 24  1  0
 25 26  1  1
 25 42  1  0
 26 27  1  0
 27 28  2  0
 27 29  1  0
 29 30  1  0
 30 31  1  0
 31 32  1  0
 32 33  1  0
 33 34  1  0
 35 34  1  6
 35 36  1  0
 35 40  1  0
 36 37  1  0
 37 38  1  0
 38 39  1  0
 39 40  1  0
 40 41  1  0
 42 41  1  6
 42 43  1  0
M  END
