
     RDKit          3D

 43 45  0  0  0  0  0  0  0  0999 V2000
    5.8070   -0.1710   -2.7430 N   0  0  0  0  0  0  0  0  0  0  0  0
    6.1700    0.9960   -2.0720 C   0  0  0  0  0  0  0  0  0  0  0  0
    6.6920    1.9350   -2.7730 O   0  0  0  0  0  0  0  0  0  0  0  0
    5.9990    1.2280   -0.6320 C   0  0  1  0  0  0  0  0  0  0  0  0
    4.5980    1.2480   -0.1300 C   0  0  0  0  0  0  0  0  0  0  0  0
    3.8440   -0.0030   -0.3090 C   0  0  0  0  0  0  0  0  0  0  0  0
    4.4270   -1.0160   -0.7600 O   0  0  0  0  0  0  0  0  0  0  0  0
    2.4570   -0.0730    0.0260 N   0  0  0  0  0  0  0  0  0  0  0  0
    1.8130    1.0830    0.5350 C   0  0  0  0  0  0  0  0  0  0  0  0
    0.3450    1.0250    0.7270 C   0  0  1  0  0  0  0  0  0  0  0  0
   -0.3680    1.7260   -0.4370 C   0  0  0  0  0  0  0  0  0  0  0  0
   -1.5560    2.4860   -0.0090 C   0  0  0  0  0  0  0  0  0  0  0  0
   -1.5770    3.7250   -0.1150 O   0  0  0  0  0  0  0  0  0  0  0  0
   -2.7920    1.8970    0.5630 C   0  0  0  0  0  0  0  0  0  0  0  0
   -3.7320    1.6830   -0.5020 N   0  0  0  0  0  0  0  0  0  0  0  0
   -4.7020    2.6540   -0.8150 C   0  0  0  0  0  0  0  0  0  0  0  0
   -5.5400    2.4480   -1.7650 O   0  0  0  0  0  0  0  0  0  0  0  0
   -4.8140    3.8650   -0.1370 N   0  0  0  0  0  0  0  0  0  0  0  0
   -5.8470    4.8130   -0.5190 C   0  0  0  0  0  0  0  0  0  0  0  0
   -6.6320    4.5390   -1.4550 O   0  0  0  0  0  0  0  0  0  0  0  0
   -5.9190    5.9930    0.1780 O   0  0  0  0  0  0  0  0  0  0  0  0
   -3.6330    0.4360   -1.2380 C   0  0  0  0  0  0  0  0  0  0  0  0
   -3.9800   -0.7840   -0.3730 C   0  0  0  0  0  0  0  0  0  0  0  0
   -3.8300   -1.8780   -1.2060 O   0  0  0  0  0  0  0  0  0  0  0  0
   -4.0120   -3.2090   -1.0520 C   0  0  0  0  0  0  0  0  0  0  0  0
   -4.9740   -3.7930   -1.7020 O   0  0  0  0  0  0  0  0  0  0  0  0
   -3.2310   -4.1120   -0.2120 C   0  0  0  0  0  0  0  0  0  0  0  0
   -3.8250   -5.2080    0.2460 C   0  0  0  0  0  0  0  0  0  0  0  0
   -3.1430   -6.1200    1.0540 O   0  0  0  0  0  0  0  0  0  0  0  0
   -1.8130   -3.8510    0.1400 C   0  0  0  0  0  0  0  0  0  0  0  0
   -1.3500   -2.6210    0.3360 N   0  0  0  0  0  0  0  0  0  0  0  0
   -0.0510   -2.7080    0.6370 C   0  0  0  0  0  0  0  0  0  0  0  0
    0.2600   -4.0030    0.6200 N   0  0  0  0  0  0  0  0  0  0  0  0
   -0.8060   -4.6770    0.3210 O   0  0  0  0  0  0  0  0  0  0  0  0
    0.7510   -1.4530    0.9240 C   0  0  2  0  0  0  0  0  0  0  0  0
    1.4380   -1.5650    2.2290 C   0  0  0  0  0  0  0  0  0  0  0  0
    2.6880   -1.4950    2.2630 O   0  0  0  0  0  0  0  0  0  0  0  0
    0.7700   -1.7460    3.4300 O   0  0  0  0  0  0  0  0  0  0  0  0
   -0.2310   -0.3090    0.9870 C   0  0  0  0  0  0  0  0  0  0  0  0
    1.7560   -1.3040   -0.1600 C   0  0  0  0  0  0  0  0  0  0  0  0
    6.8530    0.2750    0.1550 C   0  0  0  0  0  0  0  0  0  0  0  0
    6.7940    0.3740    1.5780 N   0  0  0  0  0  0  0  0  0  0  0  0
    7.5910   -0.5750   -0.3840 O   0  0  0  0  0  0  0  0  0  0  0  0
  1  2  1  0
  2  3  2  0
  2  4  1  0
  4  5  1  1
  4 41  1  0
  5  6  1  0
  6  7  2  0
  6  8  1  0
  8  9  1  0
  8 40  1  0
 10  9  1  6
 10 11  1  0
 10 39  1  0
 11 12  1  0
 12 13  2  0
 12 14  1  0
 14 15  1  0
 15 16  1  0
 15 22  1  0
 16 17  2  0
 16 18  1  0
 18 19  1  0
 19 20  2  0
 19 21  1  0
 22 23  1  0
 23 24  1  0
 24 25  1  0
 25 26  2  0
 25 27  1  0
 27 28  2  3
 27 30  1  0
 28 29  1  0
 30 31  2  0
 30 34  1  0
 31 32  1  0
 32 33  2  0
 32 35  1  0
 33 34  1  0
 35 36  1  1
 35 39  1  0
 35 40  1  0
 36 37  2  0
 36 38  1  0
 41 42  1  0
 41 43  2  0
M  END
