
     RDKit          3D

 44 46  0  0  0  0  0  0  0  0999 V2000
    7.1750    1.0320   -2.3540 C   0  0  0  0  0  0  0  0  0  0  0  0
    6.2970    0.5790   -1.3210 O   0  0  0  0  0  0  0  0  0  0  0  0
    5.0660    1.2500   -1.1420 C   0  0  0  0  0  0  0  0  0  0  0  0
    4.9190    2.1900   -1.9600 O   0  0  0  0  0  0  0  0  0  0  0  0
    4.2090    0.8000   -0.1240 N   0  0  0  0  0  0  0  0  0  0  0  0
    4.7580   -0.4620    0.5320 C   0  0  0  0  0  0  0  0  0  0  0  0
    3.9470   -1.6390    0.0370 C   0  0  0  0  0  0  0  0  0  0  0  0
    3.3100   -1.4130   -1.2280 N   0  0  0  0  0  0  0  0  0  0  0  0
    2.6720   -2.3590   -2.0670 C   0  0  0  0  0  0  0  0  0  0  0  0
    2.2540   -1.9600   -3.2440 O   0  0  0  0  0  0  0  0  0  0  0  0
    2.4210   -3.7600   -1.7750 C   0  0  0  0  0  0  0  0  0  0  0  0
    1.5300   -4.3100   -0.9800 C   0  0  0  0  0  0  0  0  0  0  0  0
    0.5270   -3.6600   -0.1570 C   0  0  0  0  0  0  0  0  0  0  0  0
    0.3020   -3.8840    1.1760 N   0  0  0  0  0  0  0  0  0  0  0  0
   -0.6660   -3.1650    1.5460 O   0  0  0  0  0  0  0  0  0  0  0  0
   -1.1300   -2.4440    0.5210 C   0  0  0  0  0  0  0  0  0  0  0  0
   -0.3790   -2.7690   -0.5070 N   0  0  0  0  0  0  0  0  0  0  0  0
   -2.2430   -1.5030    0.5770 C   0  0  0  0  0  0  0  0  0  0  0  0
   -3.1090   -1.5350    1.5730 C   0  0  0  0  0  0  0  0  0  0  0  0
   -4.2770   -0.7070    1.8190 C   0  0  0  0  0  0  0  0  0  0  0  0
   -5.3830   -1.6030    1.8580 O   0  0  0  0  0  0  0  0  0  0  0  0
   -6.4950   -0.9590    2.0760 O   0  0  0  0  0  0  0  0  0  0  0  0
   -2.5020   -0.4610   -0.4720 C   0  0  1  0  0  0  0  0  0  0  0  0
   -1.6640   -0.7010   -1.7270 C   0  0  0  0  0  0  0  0  0  0  0  0
   -0.3260   -0.3900   -1.5100 O   0  0  0  0  0  0  0  0  0  0  0  0
   -3.8360   -0.7500   -0.8320 O   0  0  0  0  0  0  0  0  0  0  0  0
   -4.6540   -0.2160   -1.7480 C   0  0  0  0  0  0  0  0  0  0  0  0
   -4.2460    0.7030   -2.4650 O   0  0  0  0  0  0  0  0  0  0  0  0
   -5.9840   -0.6750   -1.9220 O   0  0  0  0  0  0  0  0  0  0  0  0
   -2.3900    0.9290   -0.0280 C   0  0  0  0  0  0  0  0  0  0  0  0
   -2.5180    1.7590   -1.0610 O   0  0  0  0  0  0  0  0  0  0  0  0
   -2.1840    1.5830    1.1960 N   0  0  0  0  0  0  0  0  0  0  0  0
   -3.1850    2.5730    1.6800 C   0  0  0  0  0  0  0  0  0  0  0  0
   -2.8390    3.9730    1.1920 C   0  0  0  0  0  0  0  0  0  0  0  0
   -1.6090    4.3350    1.6780 O   0  0  0  0  0  0  0  0  0  0  0  0
   -1.2370    5.5260    1.3040 O   0  0  0  0  0  0  0  0  0  0  0  0
   -1.0430    1.4660    2.0930 C   0  0  0  0  0  0  0  0  0  0  0  0
   -1.4770    1.4660    3.3290 O   0  0  0  0  0  0  0  0  0  0  0  0
    0.3640    1.3730    1.5560 C   0  0  0  0  0  0  0  0  0  0  0  0
    1.0990    2.4830    1.1460 C   0  0  0  0  0  0  0  0  0  0  0  0
    2.3340    2.3160    0.6100 N   0  0  0  0  0  0  0  0  0  0  0  0
    2.9830    1.1870    0.4050 C   0  0  0  0  0  0  0  0  0  0  0  0
    2.2210    0.1210    0.8260 N   0  0  0  0  0  0  0  0  0  0  0  0
    1.0160    0.1630    1.3590 C   0  0  0  0  0  0  0  0  0  0  0  0
  1  2  1  0
  2  3  1  0
  3  4  2  0
  3  5  1  0
  5  6  1  0
  5 42  1  0
  6  7  1  0
  7  8  1  0
  8  9  1  0
  9 10  2  0
  9 11  1  0
 11 12  2  0
 12 13  1  0
 13 14  2  0
 13 17  1  0
 14 15  1  0
 15 16  1  0
 16 17  2  0
 16 18  1  0
 18 19  2  3
 18 23  1  0
 19 20  1  0
 20 21  1  0
 21 22  1  0
 23 24  1  6
 23 26  1  0
 23 30  1  0
 24 25  1  0
 26 27  1  0
 27 28  2  0
 27 29  1  0
 30 31  2  0
 30 32  1  0
 32 33  1  0
 32 37  1  0
 33 34  1  0
 34 35  1  0
 35 36  1  0
 37 38  2  0
 37 39  1  0
 39 40  2  0
 39 44  1  0
 40 41  1  0
 41 42  2  0
 42 43  1  0
 43 44  2  0
M  END
