
     RDKit          3D

 43 45  0  0  0  0  0  0  0  0999 V2000
    6.1150    2.0040    0.9870 C   0  0  0  0  0  0  0  0  0  0  0  0
    5.1650    1.1740    1.7690 C   0  0  1  0  0  0  0  0  0  0  0  0
    3.9900    1.8230    2.1470 O   0  0  0  0  0  0  0  0  0  0  0  0
    4.9170   -0.1450    1.1350 C   0  0  0  0  0  0  0  0  0  0  0  0
    4.0990   -0.1450   -0.0510 N   0  0  0  0  0  0  0  0  0  0  0  0
    4.6390    0.4200   -1.2480 C   0  0  0  0  0  0  0  0  0  0  0  0
    5.7690   -0.4010   -1.8270 C   0  0  0  0  0  0  0  0  0  0  0  0
    6.2370    0.2180   -2.9830 O   0  0  0  0  0  0  0  0  0  0  0  0
    2.7430   -0.7120   -0.0160 C   0  0  0  0  0  0  0  0  0  0  0  0
    1.8420   -0.0050   -0.4620 N   0  0  0  0  0  0  0  0  0  0  0  0
    0.5290    0.2310   -0.7660 C   0  0  0  0  0  0  0  0  0  0  0  0
   -0.2190    0.5500    0.2720 N   0  0  0  0  0  0  0  0  0  0  0  0
   -1.4700    0.8470    0.4240 N   0  0  0  0  0  0  0  0  0  0  0  0
   -2.6680    0.8720    0.5760 C   0  0  0  0  0  0  0  0  0  0  0  0
   -3.3160    2.1960    0.6280 N   0  0  0  0  0  0  0  0  0  0  0  0
   -3.0720    3.2360   -0.3380 C   0  0  0  0  0  0  0  0  0  0  0  0
   -3.8730    4.4720    0.0950 C   0  0  0  0  0  0  0  0  0  0  0  0
   -5.2150    4.1070    0.1180 O   0  0  0  0  0  0  0  0  0  0  0  0
   -5.9930    5.0910    0.4740 O   0  0  0  0  0  0  0  0  0  0  0  0
   -3.6010   -0.3020    0.7350 C   0  0  0  0  0  0  0  0  0  0  0  0
   -4.7180   -0.1170    1.4350 C   0  0  0  0  0  0  0  0  0  0  0  0
   -5.7210   -1.1400    1.6820 C   0  0  0  0  0  0  0  0  0  0  0  0
   -6.7660   -0.9210    2.3460 O   0  0  0  0  0  0  0  0  0  0  0  0
   -5.5090   -2.4050    1.1610 O   0  0  0  0  0  0  0  0  0  0  0  0
   -3.3690   -1.5740    0.1800 N   0  0  0  0  0  0  0  0  0  0  0  0
   -2.2900   -2.5190    0.3980 C   0  0  2  0  0  0  0  0  0  0  0  0
   -1.6450   -2.4140    1.7270 C   0  0  0  0  0  0  0  0  0  0  0  0
   -0.5020   -3.3080    2.0010 C   0  0  0  0  0  0  0  0  0  0  0  0
    0.7690   -2.4590    2.0850 C   0  0  0  0  0  0  0  0  0  0  0  0
    1.5900   -2.7150    1.0020 O   0  0  0  0  0  0  0  0  0  0  0  0
    2.7120   -2.0660    0.5380 C   0  0  0  0  0  0  0  0  0  0  0  0
    3.8610   -2.6890    0.5810 O   0  0  0  0  0  0  0  0  0  0  0  0
   -1.4480   -2.5620   -0.7870 C   0  0  0  0  0  0  0  0  0  0  0  0
   -0.6560   -3.5620   -0.9100 O   0  0  0  0  0  0  0  0  0  0  0  0
   -1.4430   -1.6400   -1.7480 O   0  0  0  0  0  0  0  0  0  0  0  0
   -2.3330   -1.0680   -2.6220 C   0  0  0  0  0  0  0  0  0  0  0  0
   -1.6820   -0.1100   -3.5930 C   0  0  2  0  0  0  0  0  0  0  0  0
   -0.5140   -0.7390   -4.1970 O   0  0  0  0  0  0  0  0  0  0  0  0
    0.2590   -0.9370   -3.0230 C   0  0  0  0  0  0  0  0  0  0  0  0
    1.0440   -1.8990   -2.8740 O   0  0  0  0  0  0  0  0  0  0  0  0
   -0.0370    0.1580   -2.0850 N   0  0  0  0  0  0  0  0  0  0  0  0
   -0.9570    0.9540   -2.7520 C   0  0  0  0  0  0  0  0  0  0  0  0
   -1.3880    2.1270   -2.9190 O   0  0  0  0  0  0  0  0  0  0  0  0
  2  1  1  6
  2  3  1  0
  2  4  1  0
  4  5  1  0
  5  6  1  0
  5  9  1  0
  6  7  1  0
  7  8  1  0
  9 10  2  0
  9 31  1  0
 10 11  1  0
 11 12  2  0
 11 41  1  0
 12 13  1  0
 13 14  2  0
 14 15  1  0
 14 20  1  0
 15 16  1  0
 16 17  1  0
 17 18  1  0
 18 19  1  0
 20 21  2  3
 20 25  1  0
 21 22  1  0
 22 23  2  0
 22 24  1  0
 25 26  1  0
 26 27  1  1
 26 33  1  0
 27 28  1  0
 28 29  1  0
 29 30  1  0
 30 31  1  0
 31 32  2  0
 33 34  2  0
 33 35  1  0
 35 36  1  0
 37 36  1  1
 37 38  1  0
 37 42  1  0
 38 39  1  0
 39 40  2  0
 39 41  1  0
 41 42  1  0
 42 43  2  0
M  END
