
     RDKit          3D

 43 45  0  0  0  0  0  0  0  0999 V2000
   -4.9190    5.7460    0.7140 C   0  0  0  0  0  0  0  0  0  0  0  0
   -5.3730    4.4990    1.3110 N   0  0  0  0  0  0  0  0  0  0  0  0
   -4.7620    3.4030    0.8410 N   0  0  0  0  0  0  0  0  0  0  0  0
   -3.2820    3.1700    1.0400 C   0  0  0  0  0  0  0  0  0  0  0  0
   -2.7380    4.0540    1.6370 O   0  0  0  0  0  0  0  0  0  0  0  0
   -2.9240    1.9780    0.4750 N   0  0  0  0  0  0  0  0  0  0  0  0
   -1.2420    2.0060    0.9120 C   0  0  0  0  0  0  0  0  0  0  0  0
   -0.9180    2.9570    1.4570 O   0  0  0  0  0  0  0  0  0  0  0  0
   -0.6210    0.7340    0.4440 C   0  0  2  0  0  0  0  0  0  0  0  0
   -0.7360    0.7350   -1.0450 C   0  0  0  0  0  0  0  0  0  0  0  0
    0.4990    0.8910   -1.7300 O   0  0  0  0  0  0  0  0  0  0  0  0
    1.6410    0.1920   -1.2840 C   0  0  0  0  0  0  0  0  0  0  0  0
    2.5570   -0.1800   -2.0690 O   0  0  0  0  0  0  0  0  0  0  0  0
    1.6790   -0.0620    0.1300 N   0  0  0  0  0  0  0  0  0  0  0  0
    2.6230   -1.0400    0.5500 C   0  0  0  0  0  0  0  0  0  0  0  0
    4.0200   -0.8490    0.1700 C   0  0  0  0  0  0  0  0  0  0  0  0
    4.4120    0.1280   -0.4670 O   0  0  0  0  0  0  0  0  0  0  0  0
    5.0980   -1.8450    0.5310 C   0  0  0  0  0  0  0  0  0  0  0  0
    6.3570   -1.4210    0.1230 O   0  0  0  0  0  0  0  0  0  0  0  0
    6.9160   -0.2530    0.5950 C   0  0  0  0  0  0  0  0  0  0  0  0
    6.2130    0.4140    1.4310 O   0  0  0  0  0  0  0  0  0  0  0  0
    8.2280    0.2880    0.2330 C   0  0  0  0  0  0  0  0  0  0  0  0
    8.8890   -0.5120   -0.7010 O   0  0  0  0  0  0  0  0  0  0  0  0
   10.0670    0.0110   -1.0020 O   0  0  0  0  0  0  0  0  0  0  0  0
   10.1070    1.2930   -0.7310 O   0  0  0  0  0  0  0  0  0  0  0  0
    2.3810   -2.1050    1.2190 N   0  0  0  0  0  0  0  0  0  0  0  0
    1.3320   -2.7180    1.7480 N   0  0  0  0  0  0  0  0  0  0  0  0
    0.3910   -3.4490    1.2320 C   0  0  0  0  0  0  0  0  0  0  0  0
    0.1630   -3.8410   -0.1250 C   0  0  0  0  0  0  0  0  0  0  0  0
   -0.7640   -3.6060   -1.0110 C   0  0  0  0  0  0  0  0  0  0  0  0
   -1.9810   -2.8940   -1.1180 C   0  0  0  0  0  0  0  0  0  0  0  0
   -2.6180   -1.9570   -0.4300 C   0  0  0  0  0  0  0  0  0  0  0  0
   -3.9570   -1.6000   -1.0680 C   0  0  0  0  0  0  0  0  0  0  0  0
   -4.7040   -0.7080   -0.4260 C   0  0  0  0  0  0  0  0  0  0  0  0
   -5.9440   -0.3560   -0.9940 O   0  0  0  0  0  0  0  0  0  0  0  0
   -4.4290   -2.0870   -2.1770 O   0  0  0  0  0  0  0  0  0  0  0  0
   -4.7960   -2.5740   -3.3120 C   0  0  0  0  0  0  0  0  0  0  0  0
   -2.2610   -1.2420    0.7400 C   0  0  0  0  0  0  0  0  0  0  0  0
   -3.0880   -1.4890    1.7400 O   0  0  0  0  0  0  0  0  0  0  0  0
   -1.2490   -0.3210    1.1350 N   0  0  0  0  0  0  0  0  0  0  0  0
   -0.6760   -0.2440    2.4900 C   0  0  0  0  0  0  0  0  0  0  0  0
    0.6620    0.3540    2.3570 C   0  0  0  0  0  0  0  0  0  0  0  0
    0.7930    0.7230    0.9380 C   0  0  2  0  0  0  0  0  0  0  0  0
  1  2  1  0
  2  3  1  0
  3  4  1  0
  4  5  2  0
  4  6  1  0
  6  7  1  0
  7  8  2  0
  9  7  1  1
  9 10  1  0
  9 40  1  0
  9 43  1  0
 10 11  1  0
 11 12  1  0
 12 13  2  0
 12 14  1  0
 14 15  1  0
 14 43  1  0
 15 16  1  0
 15 26  2  0
 16 17  2  0
 16 18  1  0
 18 19  1  0
 19 20  1  0
 20 21  2  0
 20 22  1  0
 22 23  1  0
 23 24  1  0
 24 25  1  0
 26 27  1  0
 27 28  2  0
 28 29  1  0
 29 30  2  0
 30 31  1  0
 31 32  2  0
 32 33  1  0
 32 38  1  0
 33 34  2  3
 33 36  1  0
 34 35  1  0
 36 37  1  0
 38 39  2  0
 38 40  1  0
 40 41  1  0
 41 42  1  0
 43 42  1  1
M  END
