
     RDKit          3D

 10 10  0  0  0  0  0  0  0  0999 V2000
   -1.8190    0.1660   -0.6960 C   0  0  0  0  0  0  0  0  0  0  0  0
   -0.4310   -0.3760   -0.4160 C   0  0  2  0  0  0  0  0  0  0  0  0
    0.3810   -0.0430   -1.5640 N   0  0  0  0  0  0  0  0  0  0  0  0
   -0.4960   -1.8820   -0.2850 C   0  0  0  0  0  0  0  0  0  0  0  0
   -1.2670   -2.2260    0.8050 O   0  0  0  0  0  0  0  0  0  0  0  0
    0.1170    0.1790    0.8690 C   0  0  2  0  0  0  0  0  0  0  0  0
    0.2800    1.6720    0.8490 C   0  0  0  0  0  0  0  0  0  0  0  0
    1.5540    1.8850    1.4240 O   0  0  0  0  0  0  0  0  0  0  0  0
    2.2650    0.7520    1.0880 C   0  0  0  0  0  0  0  0  0  0  0  0
    1.3810   -0.3200    1.1010 O   0  0  0  0  0  0  0  0  0  0  0  0
  2  1  1  6
  2  3  1  0
  2  4  1  0
  2  6  1  0
  4  5  1  0
  6  7  1  6
  6 10  1  0
  7  8  1  0
  8  9  1  0
  9 10  1  0
M  CHG  1   3   1
M  END
