
     RDKit          3D

 17 17  0  0  0  0  0  0  0  0999 V2000
    3.7130    1.6460    0.8760 C   0  0  0  0  0  0  0  0  0  0  0  0
    4.2550    0.6350    0.1040 O   0  0  0  0  0  0  0  0  0  0  0  0
    3.7870   -0.5880    0.5090 C   0  0  0  0  0  0  0  0  0  0  0  0
    2.3690   -0.8630    0.2970 C   0  0  0  0  0  0  0  0  0  0  0  0
    1.8660   -1.9010    0.8700 O   0  0  0  0  0  0  0  0  0  0  0  0
    1.4670   -0.1220   -0.4730 N   0  0  0  0  0  0  0  0  0  0  0  0
    0.0320   -0.5450   -0.5810 C   0  0  0  0  0  0  0  0  0  0  0  0
   -0.7610    0.3240   -0.1300 C   0  0  0  0  0  0  0  0  0  0  0  0
   -2.1730    0.5480    0.0600 C   0  0  0  0  0  0  0  0  0  0  0  0
   -2.6080    1.6890    0.6150 C   0  0  0  0  0  0  0  0  0  0  0  0
   -4.0650    1.7140    0.7150 C   0  0  0  0  0  0  0  0  0  0  0  0
   -4.4830    0.4410    0.1520 C   0  0  0  0  0  0  0  0  0  0  0  0
   -3.3610   -0.2110   -0.2190 C   0  0  0  0  0  0  0  0  0  0  0  0
   -3.4890   -1.4470   -0.7820 O   0  0  0  0  0  0  0  0  0  0  0  0
   -0.0940   -1.8220   -1.1780 C   0  0  0  0  0  0  0  0  0  0  0  0
    1.1300   -2.5310   -1.5990 N   0  0  0  0  0  0  0  0  0  0  0  0
   -1.1540   -2.4200   -1.3880 O   0  0  0  0  0  0  0  0  0  0  0  0
  1  2  1  0
  2  3  1  0
  3  4  1  0
  4  5  2  0
  4  6  1  0
  6  7  1  0
  7  8  2  3
  7 15  1  0
  8  9  1  0
  9 10  2  0
  9 13  1  0
 10 11  1  0
 11 12  1  0
 12 13  2  0
 13 14  1  0
 15 16  1  0
 15 17  2  0
M  END
