
     RDKit          3D

 17 17  0  0  0  0  0  0  0  0999 V2000
    5.3740   -0.5530    0.5360 C   0  0  0  0  0  0  0  0  0  0  0  0
    3.9780   -0.4020    0.3150 O   0  0  0  0  0  0  0  0  0  0  0  0
    3.4990    0.7770   -0.2220 C   0  0  0  0  0  0  0  0  0  0  0  0
    4.3620    1.6750   -0.4930 O   0  0  0  0  0  0  0  0  0  0  0  0
    2.0590    1.0070   -0.4780 C   0  0  0  0  0  0  0  0  0  0  0  0
    1.2300    0.0570   -0.1840 C   0  0  0  0  0  0  0  0  0  0  0  0
   -0.2050    0.0540   -0.3450 C   0  0  0  0  0  0  0  0  0  0  0  0
   -0.8570   -1.0570    0.0400 C   0  0  0  0  0  0  0  0  0  0  0  0
   -2.2790   -1.2670   -0.0210 C   0  0  0  0  0  0  0  0  0  0  0  0
   -2.9030   -2.1220   -0.8040 O   0  0  0  0  0  0  0  0  0  0  0  0
   -4.1810   -2.0780   -0.6190 C   0  0  0  0  0  0  0  0  0  0  0  0
   -4.4640   -1.1520    0.3350 C   0  0  0  0  0  0  0  0  0  0  0  0
   -3.2290   -0.6200    0.7300 C   0  0  0  0  0  0  0  0  0  0  0  0
   -3.0200    0.3630    1.7250 N   0  0  0  0  0  0  0  0  0  0  0  0
   -0.9190    1.1270   -0.9360 C   0  0  0  0  0  0  0  0  0  0  0  0
   -0.3170    2.3050   -1.4050 N   0  0  0  0  0  0  0  0  0  0  0  0
   -2.1800    1.0640   -1.0730 O   0  0  0  0  0  0  0  0  0  0  0  0
  1  2  1  0
  2  3  1  0
  3  4  2  0
  3  5  1  0
  5  6  2  3
  6  7  1  0
  7  8  2  3
  7 15  1  0
  8  9  1  0
  9 10  1  0
  9 13  2  0
 10 11  1  0
 11 12  2  0
 12 13  1  0
 13 14  1  0
 15 16  1  0
 15 17  2  0
M  END
