
     RDKit          3D

 10 10  0  0  0  0  0  0  0  0999 V2000
   -2.6100   -0.6900   -1.0050 N   0  0  0  0  0  0  0  0  0  0  0  0
   -1.1440   -0.7780   -1.0540 C   0  0  0  0  0  0  0  0  0  0  0  0
   -0.6220    0.0040    0.1220 C   0  0  2  0  0  0  0  0  0  0  0  0
   -1.0070    1.3370    0.0840 O   0  0  0  0  0  0  0  0  0  0  0  0
   -0.1470    2.0660    0.8570 C   0  0  0  0  0  0  0  0  0  0  0  0
    1.0590    1.2120    1.1620 C   0  0  0  0  0  0  0  0  0  0  0  0
    0.8860    0.1230    0.0960 C   0  0  2  0  0  0  0  0  0  0  0  0
    1.3770    0.6230   -1.0930 O   0  0  0  0  0  0  0  0  0  0  0  0
    1.5730   -1.1540    0.5160 C   0  0  0  0  0  0  0  0  0  0  0  0
    1.3670   -2.0920   -0.4910 O   0  0  0  0  0  0  0  0  0  0  0  0
  1  2  1  0
  3  2  1  6
  3  4  1  0
  3  7  1  0
  4  5  1  0
  5  6  1  0
  6  7  1  0
  7  8  1  6
  7  9  1  0
  9 10  1  0
M  CHG  1   1   1
M  END
