
     RDKit          3D

 17 17  0  0  0  0  0  0  0  0999 V2000
   -1.1550    1.0040   -2.1040 N   0  0  0  0  0  0  0  0  0  0  0  0
   -2.0050    0.4010   -1.1500 C   0  0  0  0  0  0  0  0  0  0  0  0
   -1.4470   -0.3190   -0.1760 C   0  0  0  0  0  0  0  0  0  0  0  0
   -0.0100   -0.4430   -0.1490 C   0  0  0  0  0  0  0  0  0  0  0  0
    0.7080    0.1020   -1.0200 O   0  0  0  0  0  0  0  0  0  0  0  0
    0.6430   -1.1860    0.8650 N   0  0  0  0  0  0  0  0  0  0  0  0
    2.1080   -1.2930    0.8630 C   0  0  0  0  0  0  0  0  0  0  0  0
    2.7420    0.0040    0.9620 C   0  0  0  0  0  0  0  0  0  0  0  0
    2.4600    0.7710    2.1120 O   0  0  0  0  0  0  0  0  0  0  0  0
    3.5440    0.5110    0.0790 C   0  0  0  0  0  0  0  0  0  0  0  0
    3.9400   -0.1560   -1.1760 C   0  0  0  0  0  0  0  0  0  0  0  0
    5.3290   -0.3460   -1.2370 O   0  0  0  0  0  0  0  0  0  0  0  0
   -2.3310   -0.9410    0.7930 C   0  0  0  0  0  0  0  0  0  0  0  0
   -2.0580   -2.0760    1.2410 O   0  0  0  0  0  0  0  0  0  0  0  0
   -3.5400   -0.2130    1.2290 C   0  0  0  0  0  0  0  0  0  0  0  0
   -3.8820    0.9100    0.2730 C   0  0  0  0  0  0  0  0  0  0  0  0
   -3.4850    0.5070   -1.1480 C   0  0  0  0  0  0  0  0  0  0  0  0
  1  2  1  0
  2  3  2  0
  2 17  1  0
  3  4  1  0
  3 13  1  0
  4  5  2  0
  4  6  1  0
  6  7  1  0
  7  8  1  0
  8  9  1  0
  8 10  2  3
 10 11  1  0
 11 12  1  0
 13 14  2  0
 13 15  1  0
 15 16  1  0
 16 17  1  0
M  END
