
     RDKit          3D

 10 10  0  0  0  0  0  0  0  0999 V2000
    2.4400    0.9990   -0.1280 N   0  0  0  0  0  0  0  0  0  0  0  0
    1.7200   -0.2350   -0.1000 C   0  0  0  0  0  0  0  0  0  0  0  0
    0.2630   -0.1010   -0.4430 C   0  0  1  0  0  0  0  0  0  0  0  0
   -0.3380   -1.4950   -0.3640 C   0  0  2  0  0  0  0  0  0  0  0  0
   -1.2080   -1.7550   -1.3980 O   0  0  0  0  0  0  0  0  0  0  0  0
   -1.0040   -1.4840    0.9730 C   0  0  0  0  0  0  0  0  0  0  0  0
   -0.5690   -0.3490    1.6420 O   0  0  0  0  0  0  0  0  0  0  0  0
   -0.4480    0.6170    0.6490 C   0  0  2  0  0  0  0  0  0  0  0  0
   -1.8460    1.0510    0.2640 C   0  0  0  0  0  0  0  0  0  0  0  0
   -1.6950    2.0270   -0.7400 O   0  0  0  0  0  0  0  0  0  0  0  0
  1  2  1  0
  3  2  1  1
  3  4  1  0
  3  8  1  0
  4  5  1  6
  4  6  1  0
  6  7  1  0
  7  8  1  0
  8  9  1  6
  9 10  1  0
M  CHG  1   1   1
M  END
