
     RDKit          3D

 22 22  0  0  0  0  0  0  0  0999 V2000
    0.7050    4.1280    1.1360 C   0  0  0  0  0  0  0  0  0  0  0  0
    1.0360    2.9480    0.4720 O   0  0  0  0  0  0  0  0  0  0  0  0
    0.2540    2.8180   -0.6720 C   0  0  0  0  0  0  0  0  0  0  0  0
    0.5440    1.5790   -1.4440 C   0  0  0  0  0  0  0  0  0  0  0  0
    0.3590    0.3360   -0.7640 N   0  0  0  0  0  0  0  0  0  0  0  0
   -0.8450   -0.4200   -0.8230 C   0  0  0  0  0  0  0  0  0  0  0  0
   -1.8350   -0.2120    0.2670 C   0  0  1  0  0  0  0  0  0  0  0  0
   -2.3450    1.0420    0.4150 O   0  0  0  0  0  0  0  0  0  0  0  0
   -3.2660    1.1670   -0.6390 C   0  0  0  0  0  0  0  0  0  0  0  0
   -3.9970   -0.1570   -0.6680 C   0  0  0  0  0  0  0  0  0  0  0  0
   -3.0390   -1.0920    0.0010 C   0  0  1  0  0  0  0  0  0  0  0  0
   -2.7340   -2.2370   -0.8010 N   0  0  0  0  0  0  0  0  0  0  0  0
   -3.5590   -1.5770    1.3340 C   0  0  0  0  0  0  0  0  0  0  0  0
   -4.7140   -2.4300    1.2030 N   0  0  0  0  0  0  0  0  0  0  0  0
    1.4720   -0.1890   -0.0290 C   0  0  0  0  0  0  0  0  0  0  0  0
    1.3610   -1.2860    0.5910 O   0  0  0  0  0  0  0  0  0  0  0  0
    2.6830    0.4470    0.0410 O   0  0  0  0  0  0  0  0  0  0  0  0
    3.8240   -0.0060    0.7420 C   0  0  0  0  0  0  0  0  0  0  0  0
    4.3110   -1.3330    0.2510 C   0  0  0  0  0  0  0  0  0  0  0  0
    5.4230   -1.7580    0.9560 O   0  0  0  0  0  0  0  0  0  0  0  0
    6.4880   -0.8840    0.8450 C   0  0  0  0  0  0  0  0  0  0  0  0
    6.8890   -0.7200   -0.4870 O   0  0  0  0  0  0  0  0  0  0  0  0
  1  2  1  0
  2  3  1  0
  3  4  1  0
  4  5  1  0
  5  6  1  0
  5 15  1  0
  7  6  1  6
  7  8  1  0
  7 11  1  0
  8  9  1  0
  9 10  1  0
 10 11  1  0
 11 12  1  6
 11 13  1  0
 13 14  1  0
 15 16  2  0
 15 17  1  0
 17 18  1  0
 18 19  1  0
 19 20  1  0
 20 21  1  0
 21 22  1  0
M  CHG  2  12   1  14   1
M  END
