
     RDKit          3D

 23 23  0  0  0  0  0  0  0  0999 V2000
   -2.2190   -2.2440    2.3720 N   0  0  0  0  0  0  0  0  0  0  0  0
   -0.8470   -2.2770    2.0660 C   0  0  0  0  0  0  0  0  0  0  0  0
   -0.0370   -2.4860    3.0290 O   0  0  0  0  0  0  0  0  0  0  0  0
   -0.4070   -2.0710    0.6680 C   0  0  0  0  0  0  0  0  0  0  0  0
   -0.4620   -0.6450    0.2130 C   0  0  2  0  0  0  0  0  0  0  0  0
   -1.8070   -0.0140    0.2270 C   0  0  2  0  0  0  0  0  0  0  0  0
   -2.8190   -0.5830   -0.7260 C   0  0  0  0  0  0  0  0  0  0  0  0
   -4.1030    0.0700   -0.4320 N   0  0  0  0  0  0  0  0  0  0  0  0
   -1.6370    1.3500    0.0900 O   0  0  0  0  0  0  0  0  0  0  0  0
   -1.9550    2.1210    1.1710 C   0  0  0  0  0  0  0  0  0  0  0  0
   -1.6980    3.4540    0.7670 O   0  0  0  0  0  0  0  0  0  0  0  0
   -1.9710    4.3060    1.7330 O   0  0  0  0  0  0  0  0  0  0  0  0
    0.2220   -0.3590   -0.9930 N   0  0  2  0  0  0  0  0  0  0  0  0
    0.0540   -1.2980   -2.0630 C   0  0  0  0  0  0  0  0  0  0  0  0
    1.4360   -1.4970   -2.7010 C   0  0  0  0  0  0  0  0  0  0  0  0
    2.0930   -0.1720   -2.2990 C   0  0  0  0  0  0  0  0  0  0  0  0
    1.6340   -0.1280   -0.8400 C   0  0  1  0  0  0  0  0  0  0  0  0
    2.0230    1.1390   -0.1660 C   0  0  0  0  0  0  0  0  0  0  0  0
    3.4870    1.3110   -0.0510 C   0  0  0  0  0  0  0  0  0  0  0  0
    4.1650    1.8700   -0.9560 O   0  0  0  0  0  0  0  0  0  0  0  0
    4.2040    0.8340    1.1180 C   0  0  0  0  0  0  0  0  0  0  0  0
    5.6000    0.9840    1.2430 N   0  0  0  0  0  0  0  0  0  0  0  0
    3.5850    0.2630    2.0740 O   0  0  0  0  0  0  0  0  0  0  0  0
  1  2  1  0
  2  3  2  0
  2  4  1  0
  5  4  1  6
  5  6  1  0
  5 13  1  0
  6  7  1  6
  6  9  1  0
  7  8  1  0
  9 10  1  0
 10 11  1  0
 11 12  1  0
 13 14  1  6
 13 17  1  0
 14 15  1  0
 15 16  1  0
 16 17  1  0
 17 18  1  6
 18 19  1  0
 19 20  2  0
 19 21  1  0
 21 22  1  0
 21 23  2  0
M  CHG  2   8   1  13   1
M  END
