
     RDKit          3D

 14 13  0  0  0  0  0  0  0  0999 V2000
   -3.3100    0.6270   -1.3740 O   0  0  0  0  0  0  0  0  0  0  0  0
   -1.8440    0.1800   -1.4420 S   0  0  1  0  0  0  0  0  0  0  0  0
   -1.8450   -0.9430   -2.3860 O   0  0  0  0  0  0  0  0  0  0  0  0
   -1.0770    1.5240   -2.1510 O   0  0  0  0  0  0  0  0  0  0  0  0
   -1.2420   -0.1030    0.1630 C   0  0  1  0  0  0  0  0  0  0  0  0
   -2.0560   -1.1900    0.8210 C   0  0  0  0  0  0  0  0  0  0  0  0
   -1.6060   -1.4550    2.1220 O   0  0  0  0  0  0  0  0  0  0  0  0
    0.2310   -0.2810    0.3390 C   0  0  1  0  0  0  0  0  0  0  0  0
    0.7960   -1.4460   -0.4270 C   0  0  0  0  0  0  0  0  0  0  0  0
    0.6400   -1.3640   -1.7970 O   0  0  0  0  0  0  0  0  0  0  0  0
    1.0230    0.9560   -0.0090 C   0  0  1  0  0  0  0  0  0  0  0  0
    0.5890    2.0120    0.8340 O   0  0  0  0  0  0  0  0  0  0  0  0
    2.4600    0.7310    0.4160 C   0  0  0  0  0  0  0  0  0  0  0  0
    3.1620    1.9560    0.2450 O   0  0  0  0  0  0  0  0  0  0  0  0
  1  2  2  0
  2  3  2  0
  2  4  1  6
  2  5  1  0
  5  6  1  6
  5  8  1  0
  6  7  1  0
  8  9  1  6
  8 11  1  0
  9 10  1  0
 11 12  1  1
 11 13  1  0
 13 14  1  0
M  END
