
     RDKit          3D

 15 14  0  0  0  0  0  0  0  0999 V2000
    1.7760    0.6740   -1.5500 C   0  0  0  0  0  0  0  0  0  0  0  0
    1.1520   -0.0750   -0.3920 C   0  0  2  0  0  0  0  0  0  0  0  0
    2.1320   -1.1010    0.1460 C   0  0  0  0  0  0  0  0  0  0  0  0
    3.6250   -0.3360    0.7210 S   0  0  1  0  0  0  0  0  0  0  0  0
    3.3210    0.3960    1.9910 O   0  0  0  0  0  0  0  0  0  0  0  0
    4.6120   -1.4320    1.0060 O   0  0  0  0  0  0  0  0  0  0  0  0
    0.0170   -0.7690   -0.7720 O   0  0  0  0  0  0  0  0  0  0  0  0
   -1.0700   -0.3030   -0.0310 C   0  0  1  0  0  0  0  0  0  0  0  0
   -0.7180   -0.5330    1.3100 O   0  0  0  0  0  0  0  0  0  0  0  0
   -1.3250    1.1240   -0.3510 C   0  0  0  0  0  0  0  0  0  0  0  0
   -2.3300    1.6450    0.4270 O   0  0  0  0  0  0  0  0  0  0  0  0
   -2.2480   -1.0950   -0.2860 N   0  0  0  0  0  0  0  0  0  0  0  0
   -3.4690   -1.0290    0.3910 C   0  0  0  0  0  0  0  0  0  0  0  0
   -3.6290   -0.2380    1.3280 O   0  0  0  0  0  0  0  0  0  0  0  0
   -4.5680   -1.8340    0.0610 O   0  0  0  0  0  0  0  0  0  0  0  0
  2  1  1  6
  2  3  1  0
  2  7  1  0
  4  3  1  1
  4  5  2  0
  4  6  2  0
  7  8  1  0
  8  9  1  1
  8 10  1  0
  8 12  1  0
 10 11  1  0
 12 13  1  0
 13 14  2  0
 13 15  1  0
M  END
