
     RDKit          3D

 22 22  0  0  0  0  0  0  0  0999 V2000
    2.5550   -4.6630    1.2280 N   0  0  0  0  0  0  0  0  0  0  0  0
    2.8790   -3.2910    1.3790 C   0  0  0  0  0  0  0  0  0  0  0  0
    3.9970   -2.8890    1.0580 O   0  0  0  0  0  0  0  0  0  0  0  0
    1.9640   -2.4190    1.8740 O   0  0  0  0  0  0  0  0  0  0  0  0
    2.0720   -1.0560    2.0960 C   0  0  0  0  0  0  0  0  0  0  0  0
    2.3340   -0.2060    0.8900 C   0  0  2  0  0  0  0  0  0  0  0  0
    1.2150   -0.4390   -0.1020 C   0  0  0  0  0  0  0  0  0  0  0  0
   -0.0950   -0.1770    0.4230 N   0  0  0  0  0  0  0  0  0  0  0  0
   -1.2590   -0.3530   -0.3880 C   0  0  0  0  0  0  0  0  0  0  0  0
   -1.1600   -0.7450   -1.5870 O   0  0  0  0  0  0  0  0  0  0  0  0
   -2.5280   -0.1040    0.1070 O   0  0  0  0  0  0  0  0  0  0  0  0
   -3.7060   -0.2610   -0.6480 C   0  0  1  0  0  0  0  0  0  0  0  0
   -4.5460   -1.3210    0.0230 C   0  0  0  0  0  0  0  0  0  0  0  0
   -5.9080   -0.7370    0.2480 C   0  0  0  0  0  0  0  0  0  0  0  0
   -5.9810    0.5330   -0.5700 C   0  0  1  0  0  0  0  0  0  0  0  0
   -6.7910    1.5230    0.0980 N   0  0  0  0  0  0  0  0  0  0  0  0
   -4.5410    0.9840   -0.6850 C   0  0  0  0  0  0  0  0  0  0  0  0
    3.5110   -0.4890    0.2280 O   0  0  0  0  0  0  0  0  0  0  0  0
    4.3430    0.5680    0.0330 C   0  0  0  0  0  0  0  0  0  0  0  0
    3.7580    1.6930   -0.7740 C   0  0  0  0  0  0  0  0  0  0  0  0
    4.7890    2.7940   -0.9090 C   0  0  0  0  0  0  0  0  0  0  0  0
    5.9890    2.3230   -1.5740 N   0  0  0  0  0  0  0  0  0  0  0  0
  1  2  1  0
  2  3  2  0
  2  4  1  0
  4  5  1  0
  6  5  1  1
  6  7  1  0
  6 18  1  0
  7  8  1  0
  8  9  1  0
  9 10  2  0
  9 11  1  0
 12 11  1  1
 12 13  1  0
 12 17  1  0
 13 14  1  0
 14 15  1  0
 15 16  1  1
 15 17  1  0
 18 19  1  0
 19 20  1  0
 20 21  1  0
 21 22  1  0
M  CHG  2  16   1  22   1
M  END
