
     RDKit          3D

 23 23  0  0  0  0  0  0  0  0999 V2000
    5.0700   -1.8230    1.5720 C   0  0  0  0  0  0  0  0  0  0  0  0
    4.7940   -0.3400    1.4020 C   0  0  1  0  0  0  0  0  0  0  0  0
    5.1430    0.1420    0.0240 C   0  0  0  0  0  0  0  0  0  0  0  0
    4.6120    1.5300   -0.1600 C   0  0  1  0  0  0  0  0  0  0  0  0
    5.0960    2.1780   -1.3570 N   0  0  0  0  0  0  0  0  0  0  0  0
    3.1300    1.4560   -0.1470 C   0  0  0  0  0  0  0  0  0  0  0  0
    2.3890    2.0030   -0.9850 O   0  0  0  0  0  0  0  0  0  0  0  0
    2.5350    0.7000    0.9080 N   0  0  0  0  0  0  0  0  0  0  0  0
    1.1050    0.6530    1.0590 C   0  0  0  0  0  0  0  0  0  0  0  0
    0.5550   -0.4680    0.2920 C   0  0  0  0  0  0  0  0  0  0  0  0
    1.3190   -1.2150   -0.3660 O   0  0  0  0  0  0  0  0  0  0  0  0
   -0.8100   -0.6870    0.3050 O   0  0  0  0  0  0  0  0  0  0  0  0
   -1.3470   -1.7750   -0.4400 C   0  0  0  0  0  0  0  0  0  0  0  0
   -2.8510   -1.7450   -0.2230 C   0  0  0  0  0  0  0  0  0  0  0  0
   -3.3090   -0.5310   -0.6850 O   0  0  0  0  0  0  0  0  0  0  0  0
   -4.6860   -0.3810   -0.5400 C   0  0  2  0  0  0  0  0  0  0  0  0
   -5.2720   -0.3160   -1.9330 C   0  0  0  0  0  0  0  0  0  0  0  0
   -6.7130   -0.1590   -1.9170 N   0  0  0  0  0  0  0  0  0  0  0  0
   -5.0570    0.7740    0.2850 C   0  0  0  0  0  0  0  0  0  0  0  0
   -5.7330    0.6120    1.3620 N   0  0  0  0  0  0  0  0  0  0  0  0
   -4.6750    2.0410   -0.1010 O   0  0  0  0  0  0  0  0  0  0  0  0
    3.4150   -0.0040    1.8040 C   0  0  0  0  0  0  0  0  0  0  0  0
    3.0070   -0.3320    2.9250 O   0  0  0  0  0  0  0  0  0  0  0  0
  2  1  1  6
  2  3  1  0
  2 22  1  0
  3  4  1  0
  4  5  1  6
  4  6  1  0
  6  7  2  0
  6  8  1  0
  8  9  1  0
  8 22  1  0
  9 10  1  0
 10 11  2  0
 10 12  1  0
 12 13  1  0
 13 14  1  0
 14 15  1  0
 15 16  1  0
 16 17  1  6
 16 19  1  0
 17 18  1  0
 19 20  2  0
 19 21  1  0
 22 23  2  0
M  CHG  2   5   1  18   1
M  END
