
     RDKit          3D

 14 13  0  0  0  0  0  0  0  0999 V2000
   -3.2420    1.7940    1.3280 N   0  0  0  0  0  0  0  0  0  0  0  0
   -2.4210    1.3170    0.2870 C   0  0  0  0  0  0  0  0  0  0  0  0
   -2.1130    2.0290   -0.7260 O   0  0  0  0  0  0  0  0  0  0  0  0
   -1.8840    0.0400    0.2790 O   0  0  0  0  0  0  0  0  0  0  0  0
   -1.0700   -0.4780   -0.7210 C   0  0  2  0  0  0  0  0  0  0  0  0
   -1.6140   -1.7480   -1.3400 C   0  0  0  0  0  0  0  0  0  0  0  0
   -0.7800   -2.2380   -2.3330 O   0  0  0  0  0  0  0  0  0  0  0  0
    0.2660   -0.8590   -0.0680 C   0  0  2  0  0  0  0  0  0  0  0  0
    0.0690   -1.8110    0.9280 O   0  0  0  0  0  0  0  0  0  0  0  0
    0.8930    0.2280    0.4840 O   0  0  0  0  0  0  0  0  0  0  0  0
    2.1290    0.4760   -0.0620 C   0  0  1  0  0  0  0  0  0  0  0  0
    2.1800    1.7130   -0.7140 O   0  0  0  0  0  0  0  0  0  0  0  0
    3.2440    0.4330    0.9580 C   0  0  0  0  0  0  0  0  0  0  0  0
    3.0040    1.4040    1.9410 O   0  0  0  0  0  0  0  0  0  0  0  0
  1  2  1  0
  2  3  2  0
  2  4  1  0
  4  5  1  0
  5  6  1  1
  5  8  1  0
  6  7  1  0
  8  9  1  1
  8 10  1  0
 10 11  1  0
 11 12  1  1
 11 13  1  0
 13 14  1  0
M  END
