
     RDKit          3D

 23 22  0  0  0  0  0  0  0  0999 V2000
    8.3400    0.6120    0.1980 C   0  0  0  0  0  0  0  0  0  0  0  0
    7.6450   -0.6300    0.6820 C   0  0  0  0  0  0  0  0  0  0  0  0
    6.3820   -0.8180    0.0550 O   0  0  0  0  0  0  0  0  0  0  0  0
    5.4160    0.1280    0.2780 C   0  0  0  0  0  0  0  0  0  0  0  0
    5.7140    1.1070    1.0370 O   0  0  0  0  0  0  0  0  0  0  0  0
    4.0960    0.0670   -0.2910 C   0  0  0  0  0  0  0  0  0  0  0  0
    3.1090   -0.4400    0.6760 O   0  0  0  0  0  0  0  0  0  0  0  0
    1.7970   -0.3030    0.3130 C   0  0  0  0  0  0  0  0  0  0  0  0
    1.6040    0.2860   -0.8120 O   0  0  0  0  0  0  0  0  0  0  0  0
    0.6320   -0.7150    1.0010 N   0  0  0  0  0  0  0  0  0  0  0  0
   -0.6670   -0.3380    0.3310 C   0  0  2  0  0  0  0  0  0  0  0  0
   -1.8130   -0.4450    1.2430 C   0  0  0  0  0  0  0  0  0  0  0  0
   -3.0090    0.1490    0.7410 N   0  0  1  0  0  0  0  0  0  0  0  0
   -2.7490    1.5530    0.5070 C   0  0  0  0  0  0  0  0  0  0  0  0
   -2.5520    2.0290   -0.8720 C   0  0  0  0  0  0  0  0  0  0  0  0
   -3.8400   -0.5290   -0.1250 C   0  0  1  0  0  0  0  0  0  0  0  0
   -4.5480   -1.7230    0.4320 C   0  0  0  0  0  0  0  0  0  0  0  0
   -4.8630    0.3860   -0.7470 C   0  0  0  0  0  0  0  0  0  0  0  0
   -5.8960    0.9430    0.0330 N   0  0  0  0  0  0  0  0  0  0  0  0
   -4.7930    0.6550   -1.9170 O   0  0  0  0  0  0  0  0  0  0  0  0
   -0.6530   -1.4540   -0.7330 C   0  0  0  0  0  0  0  0  0  0  0  0
   -0.8340   -1.2690   -2.0860 N   0  0  0  0  0  0  0  0  0  0  0  0
   -0.4380   -2.6140   -0.2800 O   0  0  0  0  0  0  0  0  0  0  0  0
  1  2  1  0
  2  3  1  0
  3  4  1  0
  4  5  2  0
  4  6  1  0
  6  7  1  0
  7  8  1  0
  8  9  2  0
  8 10  1  0
 10 11  1  0
 11 12  1  1
 11 21  1  0
 13 12  1  6
 13 14  1  0
 13 16  1  0
 14 15  1  0
 16 17  1  1
 16 18  1  0
 18 19  1  0
 18 20  2  0
 21 22  1  0
 21 23  2  0
M  CHG  2  13   1  19   1
M  END
