
     RDKit          3D

 24 26  0  0  0  0  0  0  0  0999 V2000
   -5.9440   -0.3160    0.2570 C   0  0  0  0  0  0  0  0  0  0  0  0
   -4.4480   -0.1330    0.0570 C   0  0  1  0  0  0  0  0  0  0  0  0
   -3.6500   -1.2630    0.6590 C   0  0  0  0  0  0  0  0  0  0  0  0
   -2.3870   -1.5290   -0.1760 C   0  0  0  0  0  0  0  0  0  0  0  0
   -1.9240   -0.2190   -0.6950 N   0  0  0  0  0  0  0  0  0  0  0  0
   -0.7580    0.3460   -0.1560 C   0  0  0  0  0  0  0  0  0  0  0  0
    0.5280   -0.0290   -0.4910 C   0  0  0  0  0  0  0  0  0  0  0  0
    1.5710    0.5300    0.2150 C   0  0  0  0  0  0  0  0  0  0  0  0
    2.9570    0.0970    0.0110 C   0  0  0  0  0  0  0  0  0  0  0  0
    3.8160    0.1390    1.1250 C   0  0  0  0  0  0  0  0  0  0  0  0
    5.1480   -0.1720    0.9860 C   0  0  0  0  0  0  0  0  0  0  0  0
    5.6990   -0.5330   -0.2330 C   0  0  0  0  0  0  0  0  0  0  0  0
    7.1480   -0.9030   -0.3770 C   0  0  2  0  0  0  0  0  0  0  0  0
    7.3100   -2.0940    0.3730 F   0  0  0  0  0  0  0  0  0  0  0  0
    8.0120    0.0440    0.0890 F   0  0  0  0  0  0  0  0  0  0  0  0
    7.4190   -1.1860   -1.6750 F   0  0  0  0  0  0  0  0  0  0  0  0
    4.8510   -0.5760   -1.3330 C   0  0  0  0  0  0  0  0  0  0  0  0
    3.5020   -0.2620   -1.1970 C   0  0  0  0  0  0  0  0  0  0  0  0
    1.2750    1.4250    1.2080 N   0  0  0  0  0  0  0  0  0  0  0  0
    0.0440    1.7950    1.5380 C   0  0  0  0  0  0  0  0  0  0  0  0
   -0.2320    2.7480    2.5760 N   0  0  0  0  0  0  0  0  0  0  0  0
   -0.9730    1.2450    0.8410 N   0  0  0  0  0  0  0  0  0  0  0  0
   -2.7450    0.3800   -1.6870 C   0  0  0  0  0  0  0  0  0  0  0  0
   -4.2050    0.0020   -1.4340 C   0  0  0  0  0  0  0  0  0  0  0  0
  2  1  1  6
  2  3  1  0
  2 24  1  0
  3  4  1  0
  4  5  1  0
  5  6  1  0
  5 23  1  0
  6  7  2  0
  6 22  1  0
  7  8  1  0
  8  9  1  0
  8 19  2  0
  9 10  2  0
  9 18  1  0
 10 11  1  0
 11 12  2  0
 12 13  1  0
 12 17  1  0
 13 14  1  1
 13 15  1  0
 13 16  1  0
 17 18  2  0
 19 20  1  0
 20 21  1  0
 20 22  2  0
 23 24  1  0
M  END
