
     RDKit          3D

 20 21  0  0  0  0  0  0  0  0999 V2000
    5.7320   -0.1320    0.4290 C   0  0  0  0  0  0  0  0  0  0  0  0
    4.3570    0.3940    0.2340 C   0  0  0  0  0  0  0  0  0  0  0  0
    3.3630   -0.2370   -0.3990 N   0  0  0  0  0  0  0  0  0  0  0  0
    2.2400    0.5250   -0.3970 C   0  0  0  0  0  0  0  0  0  0  0  0
    0.9580    0.1390   -1.0050 C   0  0  0  0  0  0  0  0  0  0  0  0
    0.1460   -0.5700   -0.0140 N   0  0  0  0  0  0  0  0  0  0  0  0
   -1.1510   -1.0600   -0.3340 C   0  0  0  0  0  0  0  0  0  0  0  0
   -1.2990   -2.3360   -0.8390 C   0  0  0  0  0  0  0  0  0  0  0  0
    0.0960   -3.3620   -1.0920 Cl  0  0  0  0  0  0  0  0  0  0  0  0
   -2.5730   -2.7670   -1.1340 C   0  0  0  0  0  0  0  0  0  0  0  0
   -3.6900   -1.9810   -0.9460 C   0  0  0  0  0  0  0  0  0  0  0  0
   -3.4760   -0.7060   -0.4340 C   0  0  0  0  0  0  0  0  0  0  0  0
   -2.2320   -0.2130   -0.1180 C   0  0  0  0  0  0  0  0  0  0  0  0
   -2.0270    1.0840    0.4040 N   0  0  0  0  0  0  0  0  0  0  0  0
   -3.2250    2.2810    0.5830 S   0  0  1  0  0  0  0  0  0  0  0  0
   -2.5850    3.6650    0.5550 O   0  0  0  0  0  0  0  0  0  0  0  0
   -4.1880    2.2210   -0.5670 O   0  0  0  0  0  0  0  0  0  0  0  0
   -4.0220    2.1610    2.0700 O   0  0  0  0  0  0  0  0  0  0  0  0
    2.5910    1.6450    0.2640 N   0  0  0  0  0  0  0  0  0  0  0  0
    3.8620    1.5720    0.6450 N   0  0  0  0  0  0  0  0  0  0  0  0
  1  2  1  0
  2  3  2  0
  2 20  1  0
  3  4  1  0
  4  5  1  0
  4 19  2  0
  5  6  1  0
  6  7  1  0
  7  8  2  0
  7 13  1  0
  8  9  1  0
  8 10  1  0
 10 11  2  0
 11 12  1  0
 12 13  2  0
 13 14  1  0
 14 15  1  0
 15 16  2  0
 15 17  2  0
 15 18  1  1
 19 20  1  0
M  END
