
     RDKit          3D

 19 20  0  0  0  0  0  0  0  0999 V2000
   -2.1920    1.1630   -2.2180 C   0  0  0  0  0  0  0  0  0  0  0  0
   -1.5910    0.2420   -1.1950 C   0  0  1  0  0  0  0  0  0  0  0  0
   -0.5700    0.8100   -0.3960 N   0  0  0  0  0  0  0  0  0  0  0  0
    0.7570    0.3180   -0.4280 C   0  0  0  0  0  0  0  0  0  0  0  0
    0.9860   -0.6470   -1.2000 O   0  0  0  0  0  0  0  0  0  0  0  0
    1.8220    0.8290    0.3340 N   0  0  0  0  0  0  0  0  0  0  0  0
    3.1540    0.3210    0.2890 C   0  0  0  0  0  0  0  0  0  0  0  0
    4.2520    1.0100   -0.0600 C   0  0  0  0  0  0  0  0  0  0  0  0
    5.3670    0.1300    0.0300 N   0  0  0  0  0  0  0  0  0  0  0  0
    4.9130   -1.2420    0.1010 C   0  0  0  0  0  0  0  0  0  0  0  0
    3.5180   -1.0510    0.6240 C   0  0  0  0  0  0  0  0  0  0  0  0
    2.7890   -1.8810    1.2280 O   0  0  0  0  0  0  0  0  0  0  0  0
   -2.7070   -0.4050   -0.4120 C   0  0  2  0  0  0  0  0  0  0  0  0
   -3.5790    0.5740    0.3110 C   0  0  0  0  0  0  0  0  0  0  0  0
   -2.9750    0.9610    1.5300 O   0  0  0  0  0  0  0  0  0  0  0  0
   -3.0730   -0.0990    2.3650 N   0  0  0  0  0  0  0  0  0  0  0  0
   -2.6660   -1.3670    1.8510 C   0  0  0  0  0  0  0  0  0  0  0  0
   -2.6850   -2.3950    2.5970 O   0  0  0  0  0  0  0  0  0  0  0  0
   -2.2500   -1.4160    0.4990 N   0  0  0  0  0  0  0  0  0  0  0  0
  2  1  1  1
  2  3  1  0
  2 13  1  0
  3  4  1  0
  4  5  2  0
  4  6  1  0
  6  7  1  0
  7  8  2  0
  7 11  1  0
  8  9  1  0
  9 10  1  0
 10 11  1  0
 11 12  2  0
 13 14  1  1
 13 19  1  0
 14 15  1  0
 15 16  1  0
 16 17  1  0
 17 18  2  0
 17 19  1  0
M  END
