
     RDKit          3D

 19 20  0  0  0  0  0  0  0  0999 V2000
   -2.4990    2.5460    1.6440 N   0  0  0  0  0  0  0  0  0  0  0  0
   -2.3990    1.3810    0.8110 C   0  0  0  0  0  0  0  0  0  0  0  0
   -2.9190    1.4090   -0.3310 O   0  0  0  0  0  0  0  0  0  0  0  0
   -1.7030    0.2410    1.3360 N   0  0  0  0  0  0  0  0  0  0  0  0
   -1.6310   -0.8890    0.4700 C   0  0  0  0  0  0  0  0  0  0  0  0
   -0.5700   -0.9700   -0.4010 C   0  0  0  0  0  0  0  0  0  0  0  0
    0.4820    0.0660   -0.4280 C   0  0  2  0  0  0  0  0  0  0  0  0
    1.4060   -0.0960   -1.6280 C   0  0  0  0  0  0  0  0  0  0  0  0
    2.4820    0.9740   -1.5060 C   0  0  0  0  0  0  0  0  0  0  0  0
    3.3740    0.6460   -0.5070 O   0  0  0  0  0  0  0  0  0  0  0  0
    3.1910    1.3980    0.6330 C   0  0  0  0  0  0  0  0  0  0  0  0
    1.8770    1.2070    1.1890 N   0  0  0  0  0  0  0  0  0  0  0  0
    1.3520   -0.0730    0.8290 C   0  0  0  0  0  0  0  0  0  0  0  0
   -0.5540   -2.0530   -1.2100 N   0  0  0  0  0  0  0  0  0  0  0  0
   -1.5200   -2.9880   -1.1570 C   0  0  0  0  0  0  0  0  0  0  0  0
   -1.4330   -3.9530   -1.9330 O   0  0  0  0  0  0  0  0  0  0  0  0
   -2.5570   -2.9130   -0.3090 N   0  0  0  0  0  0  0  0  0  0  0  0
   -2.6300   -1.8670    0.5170 C   0  0  0  0  0  0  0  0  0  0  0  0
   -3.5700   -1.7480    1.3250 O   0  0  0  0  0  0  0  0  0  0  0  0
  1  2  1  0
  2  3  2  0
  2  4  1  0
  4  5  1  0
  5  6  2  0
  5 18  1  0
  7  6  1  1
  6 14  1  0
  7  8  1  0
  7 13  1  0
  8  9  1  0
  9 10  1  0
 10 11  1  0
 11 12  1  0
 12 13  1  0
 14 15  1  0
 15 16  2  0
 15 17  1  0
 17 18  1  0
 18 19  2  0
M  END
