
     RDKit          3D

 21 22  0  0  0  0  0  0  0  0999 V2000
   -3.7010   -2.4030   -1.4400 C   0  0  0  0  0  0  0  0  0  0  0  0
   -2.5840   -1.6550   -1.0020 O   0  0  0  0  0  0  0  0  0  0  0  0
   -2.8090   -0.4930   -0.2910 C   0  0  0  0  0  0  0  0  0  0  0  0
   -4.1100   -0.0720   -0.0130 C   0  0  0  0  0  0  0  0  0  0  0  0
   -4.3100    1.0880    0.6960 C   0  0  0  0  0  0  0  0  0  0  0  0
   -3.2340    1.8190    1.1240 C   0  0  0  0  0  0  0  0  0  0  0  0
   -3.4190    3.2960    2.0270 Cl  0  0  0  0  0  0  0  0  0  0  0  0
   -1.9330    1.3720    0.8310 C   0  0  0  0  0  0  0  0  0  0  0  0
   -1.6950    0.2220    0.1270 C   0  0  0  0  0  0  0  0  0  0  0  0
   -0.4280   -0.2700   -0.1930 N   0  0  0  0  0  0  0  0  0  0  0  0
    0.8050    0.3030    0.1370 C   0  0  0  0  0  0  0  0  0  0  0  0
    0.8810    1.3510    0.7740 O   0  0  0  0  0  0  0  0  0  0  0  0
    2.0560   -0.2920   -0.2450 N   0  0  0  0  0  0  0  0  0  0  0  0
    3.2880    0.3510    0.1260 C   0  0  0  0  0  0  0  0  0  0  0  0
    3.8020    1.2410    0.6600 N   0  0  0  0  0  0  0  0  0  0  0  0
    5.0790    1.4570    0.7710 N   0  0  0  0  0  0  0  0  0  0  0  0
    5.9360    0.7440    0.3230 C   0  0  0  0  0  0  0  0  0  0  0  0
    7.3440    0.5830    0.2030 N   0  0  0  0  0  0  0  0  0  0  0  0
    7.8420   -0.3780   -0.3910 O   0  0  0  0  0  0  0  0  0  0  0  0
    8.1970    1.5040    0.7500 O   0  0  0  0  0  0  0  0  0  0  0  0
    4.8290   -0.5770   -0.4640 S   0  0  0  0  0  0  0  0  0  0  0  0
  1  2  1  0
  2  3  1  0
  3  4  2  0
  3  9  1  0
  4  5  1  0
  5  6  2  0
  6  7  1  0
  6  8  1  0
  8  9  2  0
  9 10  1  0
 10 11  1  0
 11 12  2  0
 11 13  1  0
 13 14  1  0
 14 15  2  0
 14 21  1  0
 15 16  1  0
 16 17  2  0
 17 18  1  0
 17 21  1  0
 18 19  2  0
 18 20  1  0
M  CHG  2  18   1  20  -1
M  END
