
     RDKit          3D

 19 20  0  0  0  0  0  0  0  0999 V2000
   -3.8480    1.3150    1.2460 C   0  0  0  0  0  0  0  0  0  0  0  0
   -2.8440    0.3620    0.8680 O   0  0  0  0  0  0  0  0  0  0  0  0
   -2.1550    0.5290   -0.3210 C   0  0  0  0  0  0  0  0  0  0  0  0
   -2.4500    1.5260   -1.0200 O   0  0  0  0  0  0  0  0  0  0  0  0
   -1.0950   -0.4410   -0.7600 C   0  0  2  0  0  0  0  0  0  0  0  0
   -1.6280   -1.7870   -0.9050 C   0  0  0  0  0  0  0  0  0  0  0  0
   -2.8260   -1.9540   -1.6580 N   0  0  0  0  0  0  0  0  0  0  0  0
   -1.0450   -2.7930   -0.3750 N   0  0  0  0  0  0  0  0  0  0  0  0
    0.1680   -2.6110    0.3860 C   0  0  0  0  0  0  0  0  0  0  0  0
    0.6740   -1.4730    0.5450 N   0  0  0  0  0  0  0  0  0  0  0  0
    0.1490   -0.2630    0.0240 C   0  0  2  0  0  0  0  0  0  0  0  0
   -0.0760    0.6110    1.1940 N   0  0  0  0  0  0  0  0  0  0  0  0
    1.1500    0.4330   -0.8130 N   0  0  0  0  0  0  0  0  0  0  0  0
    2.4440    0.7390   -0.3170 C   0  0  0  0  0  0  0  0  0  0  0  0
    3.5390    0.0110   -0.4380 C   0  0  0  0  0  0  0  0  0  0  0  0
    4.7020    0.6490    0.2060 C   0  0  0  0  0  0  0  0  0  0  0  0
    4.1910    1.8410    0.7290 O   0  0  0  0  0  0  0  0  0  0  0  0
    2.8430    1.9230    0.4330 C   0  0  0  0  0  0  0  0  0  0  0  0
    2.0560    2.8760    0.7560 O   0  0  0  0  0  0  0  0  0  0  0  0
  1  2  1  0
  2  3  1  0
  3  4  2  0
  5  3  1  1
  5  6  1  0
  5 11  1  0
  6  7  1  0
  6  8  2  0
  8  9  1  0
  9 10  2  0
 10 11  1  0
 11 12  1  1
 11 13  1  0
 13 14  1  0
 14 15  2  0
 14 18  1  0
 15 16  1  0
 16 17  1  0
 17 18  1  0
 18 19  2  0
M  END
