
     RDKit          3D

 14 15  0  0  0  0  0  0  0  0999 V2000
   -3.4210   -0.6360    0.2570 C   0  0  0  0  0  0  0  0  0  0  0  0
   -2.5850   -0.6920   -1.0270 C   0  0  0  0  0  0  0  0  0  0  0  0
   -1.1700   -0.7280   -0.5950 C   0  0  0  0  0  0  0  0  0  0  0  0
   -0.4550   -1.9190   -0.5460 C   0  0  0  0  0  0  0  0  0  0  0  0
    0.8500   -1.9180   -0.1160 C   0  0  0  0  0  0  0  0  0  0  0  0
    1.5210   -3.1370   -0.0840 O   0  0  0  0  0  0  0  0  0  0  0  0
    1.4410   -0.7320    0.2620 C   0  0  0  0  0  0  0  0  0  0  0  0
    2.7800   -0.7230    0.7060 O   0  0  0  0  0  0  0  0  0  0  0  0
    3.7970   -0.5420   -0.2600 C   0  0  0  0  0  0  0  0  0  0  0  0
    0.7330    0.4620    0.2150 C   0  0  0  0  0  0  0  0  0  0  0  0
   -0.5680    0.4550   -0.2130 C   0  0  0  0  0  0  0  0  0  0  0  0
   -1.1250    1.8510   -0.1960 C   0  0  0  0  0  0  0  0  0  0  0  0
   -0.0990    2.6430    0.5360 C   0  0  0  0  0  0  0  0  0  0  0  0
    1.1610    1.8360    0.5750 C   0  0  0  0  0  0  0  0  0  0  0  0
  1  2  1  0
  2  3  1  0
  3  4  2  0
  3 11  1  0
  4  5  1  0
  5  6  1  0
  5  7  2  0
  7  8  1  0
  7 10  1  0
  8  9  1  0
 10 11  2  0
 10 14  1  0
 11 12  1  0
 12 13  1  0
 13 14  1  0
M  END
