
     RDKit          3D

 14 15  0  0  0  0  0  0  0  0999 V2000
    5.1760    0.4300   -0.3930 C   0  0  0  0  0  0  0  0  0  0  0  0
    4.2130   -0.4690   -0.5420 C   0  0  0  0  0  0  0  0  0  0  0  0
    2.7980   -0.0640   -0.7710 C   0  0  0  0  0  0  0  0  0  0  0  0
    2.0330   -0.5880    0.2860 O   0  0  0  0  0  0  0  0  0  0  0  0
    0.6570   -0.4090    0.4050 C   0  0  0  0  0  0  0  0  0  0  0  0
   -0.0800    0.3100   -0.5190 C   0  0  0  0  0  0  0  0  0  0  0  0
   -1.4420    0.4730   -0.3780 C   0  0  0  0  0  0  0  0  0  0  0  0
   -2.0410   -0.1080    0.7180 C   0  0  0  0  0  0  0  0  0  0  0  0
   -1.3050   -0.8330    1.6530 C   0  0  0  0  0  0  0  0  0  0  0  0
    0.0580   -0.9920    1.5060 C   0  0  0  0  0  0  0  0  0  0  0  0
    0.8150   -1.7160    2.4330 O   0  0  0  0  0  0  0  0  0  0  0  0
   -3.4890    0.2020    0.6590 C   0  0  0  0  0  0  0  0  0  0  0  0
   -3.7270    0.3680   -0.8200 C   0  0  0  0  0  0  0  0  0  0  0  0
   -2.4770    1.1790   -1.2000 C   0  0  0  0  0  0  0  0  0  0  0  0
  1  2  2  0
  2  3  1  0
  3  4  1  0
  4  5  1  0
  5  6  2  0
  5 10  1  0
  6  7  1  0
  7  8  2  0
  7 14  1  0
  8  9  1  0
  8 12  1  0
  9 10  2  0
 10 11  1  0
 12 13  1  0
 13 14  1  0
M  END
