
     RDKit          3D

 14 15  0  0  0  0  0  0  0  0999 V2000
    4.1240   -0.8780   -1.5900 C   0  0  0  0  0  0  0  0  0  0  0  0
    2.9670   -0.2700   -1.6230 C   0  0  0  0  0  0  0  0  0  0  0  0
    2.4920    0.4270   -0.4940 O   0  0  0  0  0  0  0  0  0  0  0  0
    1.1670    0.2590   -0.1470 C   0  0  0  0  0  0  0  0  0  0  0  0
    0.2960   -0.5460   -0.8420 C   0  0  0  0  0  0  0  0  0  0  0  0
   -1.0310   -0.6860   -0.4570 C   0  0  0  0  0  0  0  0  0  0  0  0
   -1.5130   -0.0160    0.6390 C   0  0  0  0  0  0  0  0  0  0  0  0
   -0.6360    0.8090    1.3560 C   0  0  0  0  0  0  0  0  0  0  0  0
    0.6760    0.9290    0.9520 C   0  0  0  0  0  0  0  0  0  0  0  0
    1.6170    1.8020    1.7060 C   0  0  0  0  0  0  0  0  0  0  0  0
    0.9200    2.3760    2.7660 O   0  0  0  0  0  0  0  0  0  0  0  0
   -2.9400   -0.3600    0.8050 C   0  0  0  0  0  0  0  0  0  0  0  0
   -3.3640   -0.7870   -0.5670 C   0  0  0  0  0  0  0  0  0  0  0  0
   -2.1330   -1.5080   -1.0840 C   0  0  0  0  0  0  0  0  0  0  0  0
  1  2  2  0
  2  3  1  0
  3  4  1  0
  4  5  2  0
  4  9  1  0
  5  6  1  0
  6  7  2  0
  6 14  1  0
  7  8  1  0
  7 12  1  0
  8  9  2  0
  9 10  1  0
 10 11  1  0
 12 13  1  0
 13 14  1  0
M  END
