
     RDKit          3D

 14 15  0  0  0  0  0  0  0  0999 V2000
   -4.5420   -0.1240    0.4050 C   0  0  0  0  0  0  0  0  0  0  0  0
   -3.4570   -0.7490   -0.4610 C   0  0  0  0  0  0  0  0  0  0  0  0
   -2.2350    0.1310   -0.3570 C   0  0  1  0  0  0  0  0  0  0  0  0
   -1.7650    0.2190    1.0750 C   0  0  0  0  0  0  0  0  0  0  0  0
   -0.3570    0.8260    0.9910 C   0  0  0  0  0  0  0  0  0  0  0  0
    0.5600   -0.3340    0.6640 C   0  0  2  0  0  0  0  0  0  0  0  0
    1.9640    0.1410    0.4530 C   0  0  2  0  0  0  0  0  0  0  0  0
    2.1270    1.1210   -0.6590 C   0  0  0  0  0  0  0  0  0  0  0  0
    3.4530    1.4680   -0.7800 O   0  0  0  0  0  0  0  0  0  0  0  0
    4.3290    0.4150   -0.8100 C   0  0  0  0  0  0  0  0  0  0  0  0
    4.1330   -0.3890    0.4620 C   0  0  0  0  0  0  0  0  0  0  0  0
    2.8520   -0.9340    0.3820 O   0  0  0  0  0  0  0  0  0  0  0  0
   -0.0360   -1.0870   -0.4690 C   0  0  0  0  0  0  0  0  0  0  0  0
   -1.1030   -0.3220   -1.2150 C   0  0  0  0  0  0  0  0  0  0  0  0
  1  2  1  0
  3  2  1  1
  3  4  1  0
  3 14  1  0
  4  5  1  0
  6  5  1  6
  6  7  1  0
  6 13  1  0
  7  8  1  6
  7 12  1  0
  8  9  1  0
  9 10  1  0
 10 11  1  0
 11 12  1  0
 13 14  1  0
M  END
