
     RDKit          3D

 14 15  0  0  0  0  0  0  0  0999 V2000
    3.5380    0.2290    0.3480 C   0  0  0  0  0  0  0  0  0  0  0  0
    2.5720    0.1200   -0.6820 O   0  0  0  0  0  0  0  0  0  0  0  0
    1.2290   -0.1380   -0.4390 C   0  0  0  0  0  0  0  0  0  0  0  0
    0.7470   -1.4240   -0.3870 C   0  0  0  0  0  0  0  0  0  0  0  0
    1.6630   -2.5700   -0.5920 C   0  0  0  0  0  0  0  0  0  0  0  0
   -0.5750   -1.6990   -0.1480 C   0  0  0  0  0  0  0  0  0  0  0  0
   -1.4610   -0.6450    0.0490 C   0  0  0  0  0  0  0  0  0  0  0  0
   -0.9740    0.6460   -0.0040 C   0  0  0  0  0  0  0  0  0  0  0  0
    0.3710    0.9100   -0.2480 C   0  0  0  0  0  0  0  0  0  0  0  0
    0.8010    2.3170   -0.2870 C   0  0  0  0  0  0  0  0  0  0  0  0
   -1.8400    1.6880    0.1880 O   0  0  0  0  0  0  0  0  0  0  0  0
   -3.2240    1.5670    0.4430 C   0  0  0  0  0  0  0  0  0  0  0  0
   -3.6820    0.1660    0.4870 C   0  0  0  0  0  0  0  0  0  0  0  0
   -2.8760   -0.8680    0.3060 C   0  0  0  0  0  0  0  0  0  0  0  0
  1  2  1  0
  2  3  1  0
  3  4  2  0
  3  9  1  0
  4  5  1  0
  4  6  1  0
  6  7  2  0
  7  8  1  0
  7 14  1  0
  8  9  2  0
  8 11  1  0
  9 10  1  0
 11 12  1  0
 12 13  1  0
 13 14  2  0
M  END
