
     RDKit          3D

 14 15  0  0  0  0  0  0  0  0999 V2000
   -1.3030   -1.9930   -0.2730 C   0  0  0  0  0  0  0  0  0  0  0  0
   -1.8380   -0.6430    0.0400 C   0  0  0  0  0  0  0  0  0  0  0  0
   -3.1200   -0.4250    0.0310 C   0  0  0  0  0  0  0  0  0  0  0  0
   -3.6990    0.8850    0.3310 C   0  0  0  0  0  0  0  0  0  0  0  0
   -2.7650    1.9680    0.6620 C   0  0  0  0  0  0  0  0  0  0  0  0
   -1.3380    1.6030    0.6390 C   0  0  0  0  0  0  0  0  0  0  0  0
   -0.8890    0.4090    0.3560 C   0  0  0  0  0  0  0  0  0  0  0  0
    0.4570    0.1450    0.3550 O   0  0  0  0  0  0  0  0  0  0  0  0
    1.3030    0.1900   -0.7570 C   0  0  0  0  0  0  0  0  0  0  0  0
    2.6880   -0.1700   -0.2940 C   0  0  0  0  0  0  0  0  0  0  0  0
    3.7970   -0.2320   -1.1130 C   0  0  0  0  0  0  0  0  0  0  0  0
    4.8400   -0.5940   -0.2830 C   0  0  0  0  0  0  0  0  0  0  0  0
    4.3390   -0.7380    0.9940 C   0  0  0  0  0  0  0  0  0  0  0  0
    3.0680   -0.4750    0.9220 O   0  0  0  0  0  0  0  0  0  0  0  0
  1  2  1  0
  2  3  2  0
  2  7  1  0
  3  4  1  0
  4  5  1  0
  5  6  1  0
  6  7  2  0
  7  8  1  0
  8  9  1  0
  9 10  1  0
 10 11  2  0
 10 14  1  0
 11 12  1  0
 12 13  2  0
 13 14  1  0
M  END
