
     RDKit          3D

 18 19  0  0  0  0  0  0  0  0999 V2000
    4.4080    2.4210    0.4950 C   0  0  0  0  0  0  0  0  0  0  0  0
    3.7550    1.0520    0.6460 C   0  0  0  0  0  0  0  0  0  0  0  0
    2.8570    0.9040   -0.3830 O   0  0  0  0  0  0  0  0  0  0  0  0
    2.2090   -0.3340   -0.3200 C   0  0  2  0  0  0  0  0  0  0  0  0
    2.4760   -1.1260   -1.5590 C   0  0  0  0  0  0  0  0  0  0  0  0
    1.9360   -2.4260   -1.7130 N   0  0  0  0  0  0  0  0  0  0  0  0
    3.3900   -0.4750   -2.7210 S   0  0  0  0  0  0  0  0  0  0  0  0
    0.7370   -0.1590   -0.2190 C   0  0  0  0  0  0  0  0  0  0  0  0
    0.1850    1.0130   -0.2710 N   0  0  0  0  0  0  0  0  0  0  0  0
   -1.2030    1.2370   -0.1810 C   0  0  0  0  0  0  0  0  0  0  0  0
   -2.0190    0.2130   -0.0330 C   0  0  0  0  0  0  0  0  0  0  0  0
   -3.4690    0.3600    0.0690 C   0  0  0  0  0  0  0  0  0  0  0  0
   -4.0500    1.7080    0.0040 C   0  0  0  0  0  0  0  0  0  0  0  0
   -4.1950   -0.7220    0.2140 C   0  0  0  0  0  0  0  0  0  0  0  0
   -3.6560   -2.0970    0.2840 C   0  0  0  0  0  0  0  0  0  0  0  0
   -2.2280   -2.1490    0.1770 N   0  0  0  0  0  0  0  0  0  0  0  0
   -1.4780   -1.1270    0.0340 C   0  0  0  0  0  0  0  0  0  0  0  0
   -0.0620   -1.3220   -0.0610 N   0  0  0  0  0  0  0  0  0  0  0  0
  1  2  1  0
  2  3  1  0
  4  3  1  6
  4  5  1  0
  4  8  1  0
  5  6  1  0
  5  7  2  0
  8  9  2  0
  8 18  1  0
  9 10  1  0
 10 11  2  0
 11 12  1  0
 11 17  1  0
 12 13  1  0
 12 14  2  0
 14 15  1  0
 15 16  1  0
 16 17  2  0
 17 18  1  0
M  END
