
     RDKit          3D

 11 11  0  0  0  0  0  0  0  0999 V2000
   -0.3300    2.7560    0.3470 N   0  0  0  0  0  0  0  0  0  0  0  0
    0.4070    1.5550    0.2320 C   0  0  0  0  0  0  0  0  0  0  0  0
   -0.2860    0.4300    0.0190 C   0  0  0  0  0  0  0  0  0  0  0  0
   -1.7630    0.5010   -0.0830 C   0  0  0  0  0  0  0  0  0  0  0  0
   -2.4060   -0.8010   -0.2880 C   0  0  0  0  0  0  0  0  0  0  0  0
   -3.7900   -0.8620   -0.3870 F   0  0  0  0  0  0  0  0  0  0  0  0
   -1.6940   -1.9000   -0.3790 C   0  0  0  0  0  0  0  0  0  0  0  0
   -0.2440   -1.9110   -0.2840 C   0  0  0  0  0  0  0  0  0  0  0  0
    0.4650   -0.8100   -0.0940 C   0  0  0  0  0  0  0  0  0  0  0  0
    1.9390   -0.8070    0.0050 C   0  0  0  0  0  0  0  0  0  0  0  0
    2.6180   -0.0400   -0.9870 N   0  0  0  0  0  0  0  0  0  0  0  0
  1  2  1  0
  2  3  2  3
  3  4  1  0
  3  9  1  0
  4  5  1  0
  5  6  1  0
  5  7  2  0
  7  8  1  0
  8  9  2  0
  9 10  1  0
 10 11  1  0
M  END
