
     RDKit          3D

 11 11  0  0  0  0  0  0  0  0999 V2000
    1.1650   -1.6940   -0.8930 N   0  0  0  0  0  0  0  0  0  0  0  0
    0.1800   -0.8530   -0.2780 C   0  0  0  0  0  0  0  0  0  0  0  0
   -0.8780   -1.5190    0.1560 C   0  0  0  0  0  0  0  0  0  0  0  0
   -2.0630   -0.9430    0.8320 C   0  0  0  0  0  0  0  0  0  0  0  0
   -2.1220    0.4560    0.8450 N   0  0  0  0  0  0  0  0  0  0  0  0
   -1.8570    1.1970   -0.3040 C   0  0  0  0  0  0  0  0  0  0  0  0
   -0.4680    1.6640   -0.5350 C   0  0  0  0  0  0  0  0  0  0  0  0
    0.5190    0.5450   -0.2550 C   0  0  0  0  0  0  0  0  0  0  0  0
    1.7340    0.8980    0.0520 C   0  0  0  0  0  0  0  0  0  0  0  0
    2.8520    0.0240    0.3990 C   0  0  0  0  0  0  0  0  0  0  0  0
    3.8910    0.1710   -0.5320 F   0  0  0  0  0  0  0  0  0  0  0  0
  1  2  1  0
  2  3  2  0
  2  8  1  0
  3  4  1  0
  4  5  1  0
  5  6  1  0
  6  7  1  0
  7  8  1  0
  8  9  2  3
  9 10  1  0
 10 11  1  0
M  END
