
     RDKit          3D

 22 24  0  0  0  0  0  0  0  0999 V2000
    6.6790    1.3490    0.0750 C   0  0  0  0  0  0  0  0  0  0  0  0
    5.2040    1.4470    0.0750 C   0  0  0  0  0  0  0  0  0  0  0  0
    4.6140    2.5140   -0.3080 O   0  0  0  0  0  0  0  0  0  0  0  0
    4.4750    0.3050    0.5170 N   0  0  0  0  0  0  0  0  0  0  0  0
    3.0390    0.3100    0.5510 C   0  0  0  0  0  0  0  0  0  0  0  0
    2.4170    0.5400   -0.7880 C   0  0  0  0  0  0  0  0  0  0  0  0
    0.9140    0.5510   -0.7230 C   0  0  0  0  0  0  0  0  0  0  0  0
    0.3040   -0.7240   -0.2210 C   0  0  0  0  0  0  0  0  0  0  0  0
   -1.1270   -0.6830   -0.1820 N   0  0  0  0  0  0  0  0  0  0  0  0
   -1.8910   -0.2830    0.8440 C   0  0  0  0  0  0  0  0  0  0  0  0
   -3.2180   -0.3960    0.4780 C   0  0  0  0  0  0  0  0  0  0  0  0
   -3.2560   -0.8800   -0.8090 C   0  0  0  0  0  0  0  0  0  0  0  0
   -4.3070   -1.1780   -1.6520 C   0  0  0  0  0  0  0  0  0  0  0  0
   -4.0210   -1.6560   -2.9100 C   0  0  0  0  0  0  0  0  0  0  0  0
   -2.7310   -1.8390   -3.3360 C   0  0  0  0  0  0  0  0  0  0  0  0
   -1.7070   -1.5340   -2.4730 C   0  0  0  0  0  0  0  0  0  0  0  0
   -1.9420   -1.0440   -1.1820 C   0  0  0  0  0  0  0  0  0  0  0  0
   -4.2970   -0.0200    1.4140 C   0  0  0  0  0  0  0  0  0  0  0  0
   -5.5080   -0.1140    1.1070 O   0  0  0  0  0  0  0  0  0  0  0  0
   -3.9620    0.4640    2.7060 N   0  0  0  0  0  0  0  0  0  0  0  0
   -2.6280    1.0650    2.8180 C   0  0  0  0  0  0  0  0  0  0  0  0
   -1.5620    0.2200    2.2110 C   0  0  0  0  0  0  0  0  0  0  0  0
  1  2  1  0
  2  3  2  0
  2  4  1  0
  4  5  1  0
  5  6  1  0
  6  7  1  0
  7  8  1  0
  8  9  1  0
  9 10  1  0
  9 17  1  0
 10 11  2  0
 10 22  1  0
 11 12  1  0
 11 18  1  0
 12 13  2  0
 12 17  1  0
 13 14  1  0
 14 15  2  0
 15 16  1  0
 16 17  2  0
 18 19  2  0
 18 20  1  0
 20 21  1  0
 21 22  1  0
M  END
