
     RDKit          3D

 18 19  0  0  0  0  0  0  0  0999 V2000
   -4.1610   -1.6770    0.2590 C   0  0  0  0  0  0  0  0  0  0  0  0
   -3.7920   -0.4000    0.3400 C   0  0  0  0  0  0  0  0  0  0  0  0
   -4.8300    0.6120    0.5870 C   0  0  0  0  0  0  0  0  0  0  0  0
   -6.0300    0.2300    0.7140 N   0  0  0  0  0  0  0  0  0  0  0  0
   -2.4620   -0.0380    0.2080 N   0  0  0  0  0  0  0  0  0  0  0  0
   -1.9590    1.3320   -0.0030 C   0  0  0  0  0  0  0  0  0  0  0  0
   -0.5880    1.4320    0.6480 C   0  0  0  0  0  0  0  0  0  0  0  0
    0.4220    0.6700   -0.1090 N   0  0  0  0  0  0  0  0  0  0  0  0
    1.4770    0.2520    0.7960 C   0  0  0  0  0  0  0  0  0  0  0  0
    2.7360   -0.0330    0.0950 C   0  0  2  0  0  0  0  0  0  0  0  0
    3.1390    1.2080   -0.5890 N   0  0  0  0  0  0  0  0  0  0  0  0
    2.7570   -1.1850   -0.8530 C   0  0  0  0  0  0  0  0  0  0  0  0
    4.5980   -1.3090   -1.1370 S   0  0  0  0  0  0  0  0  0  0  0  0
    5.1160   -0.2880    0.3030 C   0  0  0  0  0  0  0  0  0  0  0  0
    3.8550   -0.2800    1.0680 C   0  0  0  0  0  0  0  0  0  0  0  0
    3.7210   -0.4410    2.2500 O   0  0  0  0  0  0  0  0  0  0  0  0
   -0.3000   -0.4590   -0.6880 C   0  0  0  0  0  0  0  0  0  0  0  0
   -1.3680   -1.0020    0.2810 C   0  0  0  0  0  0  0  0  0  0  0  0
  1  2  2  0
  2  3  1  0
  2  5  1  0
  3  4  2  0
  5  6  1  0
  5 18  1  0
  6  7  1  0
  7  8  1  0
  8  9  1  0
  8 17  1  0
  9 10  1  0
 10 11  1  6
 10 12  1  0
 10 15  1  0
 12 13  1  0
 13 14  1  0
 14 15  1  0
 15 16  2  0
 17 18  1  0
M  END
