
     RDKit          3D

 10 10  0  0  0  0  0  0  0  0999 V2000
   -2.3430   -1.4410    0.3290 C   0  0  0  0  0  0  0  0  0  0  0  0
   -1.8800   -0.2480    0.0540 C   0  0  0  0  0  0  0  0  0  0  0  0
   -2.8090    0.8100   -0.2240 N   0  0  0  0  0  0  0  0  0  0  0  0
   -0.4560    0.0180    0.0150 C   0  0  0  0  0  0  0  0  0  0  0  0
   -0.1950    1.3020   -0.2750 C   0  0  0  0  0  0  0  0  0  0  0  0
    1.1030    1.9120   -0.3920 C   0  0  0  0  0  0  0  0  0  0  0  0
    2.3100    1.4120   -0.1640 C   0  0  0  0  0  0  0  0  0  0  0  0
    2.5350    0.0630    0.2750 N   0  0  0  0  0  0  0  0  0  0  0  0
    1.8030   -1.1210   -0.0390 C   0  0  0  0  0  0  0  0  0  0  0  0
    0.3650   -1.1560    0.2860 C   0  0  0  0  0  0  0  0  0  0  0  0
  1  2  2  0
  2  3  1  0
  2  4  1  0
  4  5  2  0
  4 10  1  0
  5  6  1  0
  6  7  2  0
  7  8  1  0
  8  9  1  0
  9 10  1  0
M  END
