
     RDKit          3D

 18 19  0  0  0  0  0  0  0  0999 V2000
    5.5730   -0.6700    0.8260 C   0  0  0  0  0  0  0  0  0  0  0  0
    4.6550    0.1410    0.0640 N   0  0  0  0  0  0  0  0  0  0  0  0
    3.3530   -0.0740    0.1950 C   0  0  0  0  0  0  0  0  0  0  0  0
    2.4460    0.7390   -0.5680 C   0  0  0  0  0  0  0  0  0  0  0  0
    2.9920    1.7320   -1.4250 N   0  0  0  0  0  0  0  0  0  0  0  0
    1.1440    0.6080   -0.5110 C   0  0  0  0  0  0  0  0  0  0  0  0
    0.4990   -0.3550    0.3150 C   0  0  0  0  0  0  0  0  0  0  0  0
   -0.7620   -0.6420    0.5130 C   0  0  0  0  0  0  0  0  0  0  0  0
   -1.2100   -1.7010    1.4330 C   0  0  0  0  0  0  0  0  0  0  0  0
   -2.5250   -1.7690    1.4340 C   0  0  0  0  0  0  0  0  0  0  0  0
   -3.0440   -0.7620    0.5150 C   0  0  0  0  0  0  0  0  0  0  0  0
   -4.2720   -0.3920    0.1310 N   0  0  0  0  0  0  0  0  0  0  0  0
   -4.5620    0.5760   -0.7420 C   0  0  0  0  0  0  0  0  0  0  0  0
   -6.2460    0.9730   -1.1710 S   0  0  0  0  0  0  0  0  0  0  0  0
   -6.8880    1.8880   -0.1590 O   0  0  0  0  0  0  0  0  0  0  0  0
   -3.5240    1.2310   -1.2760 N   0  0  0  0  0  0  0  0  0  0  0  0
   -2.2310    0.9310   -0.9510 C   0  0  0  0  0  0  0  0  0  0  0  0
   -1.9590   -0.0690   -0.0510 C   0  0  0  0  0  0  0  0  0  0  0  0
  1  2  1  0
  2  3  2  3
  3  4  1  0
  4  5  1  0
  4  6  2  3
  6  7  1  0
  7  8  2  3
  8  9  1  0
  8 18  1  0
  9 10  2  0
 10 11  1  0
 11 12  2  0
 11 18  1  0
 12 13  1  0
 13 14  1  0
 13 16  2  0
 14 15  2  0
 16 17  1  0
 17 18  2  0
M  END
