
     RDKit          3D

 11 11  0  0  0  0  0  0  0  0999 V2000
   -3.1360    0.0090   -0.1100 C   0  0  0  0  0  0  0  0  0  0  0  0
   -1.6900    0.2550    0.2740 C   0  0  0  0  0  0  0  0  0  0  0  0
   -0.6300   -0.2300   -0.3350 C   0  0  0  0  0  0  0  0  0  0  0  0
   -0.6950   -1.1190   -1.5260 C   0  0  0  0  0  0  0  0  0  0  0  0
    0.6140    0.1980    0.2840 C   0  0  0  0  0  0  0  0  0  0  0  0
    1.8590   -0.0860   -0.0490 C   0  0  0  0  0  0  0  0  0  0  0  0
    2.1350   -0.9270   -1.1630 N   0  0  0  0  0  0  0  0  0  0  0  0
    3.0190    0.4420    0.7010 C   0  0  0  0  0  0  0  0  0  0  0  0
    3.7730   -0.6050    1.2150 F   0  0  0  0  0  0  0  0  0  0  0  0
    0.2050    1.0180    1.3650 N   0  0  0  0  0  0  0  0  0  0  0  0
   -1.2320    1.0870    1.4040 C   0  0  0  0  0  0  0  0  0  0  0  0
  1  2  1  0
  2  3  2  0
  2 11  1  0
  3  4  1  0
  3  5  1  0
  5  6  2  3
  5 10  1  0
  6  7  1  0
  6  8  1  0
  8  9  1  0
 10 11  1  0
M  END
