
     RDKit          3D

 11 11  0  0  0  0  0  0  0  0999 V2000
    4.0720   -0.0450   -0.5320 C   0  0  0  0  0  0  0  0  0  0  0  0
    2.8060   -0.0690   -0.8770 C   0  0  0  0  0  0  0  0  0  0  0  0
    1.7570    0.0050    0.1100 C   0  0  0  0  0  0  0  0  0  0  0  0
    2.0980    0.1040    1.4380 F   0  0  0  0  0  0  0  0  0  0  0  0
    0.4690   -0.0160   -0.1940 C   0  0  0  0  0  0  0  0  0  0  0  0
   -0.1230   -0.1110   -1.4800 N   0  0  0  0  0  0  0  0  0  0  0  0
   -1.5600   -0.1020   -1.3710 C   0  0  0  0  0  0  0  0  0  0  0  0
   -1.8160    0.0060    0.0730 C   0  0  0  0  0  0  0  0  0  0  0  0
   -3.1830    0.0560    0.7180 C   0  0  0  0  0  0  0  0  0  0  0  0
   -0.6650    0.0530    0.7190 C   0  0  0  0  0  0  0  0  0  0  0  0
   -0.5620    0.1580    2.1320 N   0  0  0  0  0  0  0  0  0  0  0  0
  1  2  2  0
  2  3  1  0
  3  4  1  0
  3  5  2  3
  5  6  1  0
  5 10  1  0
  6  7  1  0
  7  8  1  0
  8  9  1  0
  8 10  2  0
 10 11  1  0
M  END
