
     RDKit          3D

 32 33  0  0  0  0  0  0  0  0999 V2000
   -8.3300    1.5690    1.7000 O   0  0  0  0  0  0  0  0  0  0  0  0
   -7.2860    1.1260    1.2060 C   0  0  0  0  0  0  0  0  0  0  0  0
   -7.2340   -0.2900    1.0190 N   0  0  0  0  0  0  0  0  0  0  0  0
   -6.1350   -1.1190    0.5500 C   0  0  0  0  0  0  0  0  0  0  0  0
   -4.7880   -0.5960    1.0630 C   0  0  1  0  0  0  0  0  0  0  0  0
   -3.8390   -1.7350    1.2470 C   0  0  0  0  0  0  0  0  0  0  0  0
   -3.6490   -2.3850    0.0410 O   0  0  0  0  0  0  0  0  0  0  0  0
   -4.3340    0.4880    0.1530 C   0  0  2  0  0  0  0  0  0  0  0  0
   -2.9340    0.6050    0.0110 O   0  0  0  0  0  0  0  0  0  0  0  0
   -2.2400    0.6750   -1.1620 C   0  0  0  0  0  0  0  0  0  0  0  0
   -2.9020    0.6290   -2.2330 O   0  0  0  0  0  0  0  0  0  0  0  0
   -0.7620    0.8030   -1.1450 C   0  0  1  0  0  0  0  0  0  0  0  0
   -0.3570    0.7260    0.2050 O   0  0  0  0  0  0  0  0  0  0  0  0
   -0.0590   -0.3030   -1.8860 C   0  0  2  0  0  0  0  0  0  0  0  0
   -0.3430   -1.6660   -1.3080 C   0  0  0  0  0  0  0  0  0  0  0  0
    0.0500   -1.7820    0.0080 O   0  0  0  0  0  0  0  0  0  0  0  0
    1.3670   -0.0490   -2.2210 C   0  0  2  0  0  0  0  0  0  0  0  0
    1.8370   -1.1850   -2.9010 O   0  0  0  0  0  0  0  0  0  0  0  0
    2.2460    0.3110   -1.1040 C   0  0  0  0  0  0  0  0  0  0  0  0
    2.0560    1.3300   -0.4270 O   0  0  0  0  0  0  0  0  0  0  0  0
    3.3450   -0.4460   -0.7160 O   0  0  0  0  0  0  0  0  0  0  0  0
    4.2290   -0.2200    0.2930 C   0  0  0  0  0  0  0  0  0  0  0  0
    5.0520    1.0110    0.3110 C   0  0  1  0  0  0  0  0  0  0  0  0
    4.3940    2.2290    0.3520 O   0  0  0  0  0  0  0  0  0  0  0  0
    5.9720    0.9440    1.5480 C   0  0  1  0  0  0  0  0  0  0  0  0
    6.3150   -0.3850    1.8410 O   0  0  0  0  0  0  0  0  0  0  0  0
    7.0420    1.5630    0.7000 C   0  0  0  0  0  0  0  0  0  0  0  0
    6.3140    0.9920   -0.5180 C   0  0  1  0  0  0  0  0  0  0  0  0
    6.7530   -0.2880   -0.7670 O   0  0  0  0  0  0  0  0  0  0  0  0
   -4.9010    1.7730    0.7150 C   0  0  0  0  0  0  0  0  0  0  0  0
   -4.1250    2.6740    1.0630 O   0  0  0  0  0  0  0  0  0  0  0  0
   -6.2520    2.0230    0.8710 O   0  0  0  0  0  0  0  0  0  0  0  0
  1  2  2  0
  2  3  1  0
  2 32  1  0
  3  4  1  0
  4  5  1  0
  5  6  1  6
  5  8  1  0
  6  7  1  0
  8  9  1  1
  8 30  1  0
  9 10  1  0
 10 11  2  0
 10 12  1  0
 12 13  1  1
 12 14  1  0
 14 15  1  1
 14 17  1  0
 15 16  1  0
 17 18  1  1
 17 19  1  0
 19 20  2  0
 19 21  1  0
 21 22  1  0
 22 23  1  0
 23 24  1  1
 23 25  1  0
 23 28  1  0
 25 26  1  6
 25 27  1  0
 27 28  1  0
 28 29  1  1
 30 31  2  0
 30 32  1  0
M  END
