
     RDKit          3D

 32 36  0  0  0  0  0  0  0  0999 V2000
    7.1460   -2.0890    0.5660 C   0  0  0  0  0  0  0  0  0  0  0  0
    6.2670   -0.9150    0.2600 C   0  0  0  0  0  0  0  0  0  0  0  0
    6.7570    0.3670    0.5100 C   0  0  0  0  0  0  0  0  0  0  0  0
    5.9360    1.4510    0.2230 C   0  0  0  0  0  0  0  0  0  0  0  0
    4.6680    1.3200   -0.2930 C   0  0  0  0  0  0  0  0  0  0  0  0
    4.2420    0.0030   -0.5180 C   0  0  0  0  0  0  0  0  0  0  0  0
    5.0130   -1.0970   -0.2530 C   0  0  0  0  0  0  0  0  0  0  0  0
    2.9360   -0.2900   -1.0460 N   0  0  0  0  0  0  0  0  0  0  0  0
    1.8400    0.6160   -1.1790 C   0  0  0  0  0  0  0  0  0  0  0  0
    0.9650    0.3700   -2.0690 O   0  0  0  0  0  0  0  0  0  0  0  0
    1.6470    1.7860   -0.3900 N   0  0  0  0  0  0  0  0  0  0  0  0
    0.3680    2.0050    0.1660 C   0  0  0  0  0  0  0  0  0  0  0  0
    0.1910    3.1900    0.6320 O   0  0  0  0  0  0  0  0  0  0  0  0
   -0.7230    1.0830    0.2680 C   0  0  0  0  0  0  0  0  0  0  0  0
   -2.0080    1.5890    0.5290 C   0  0  0  0  0  0  0  0  0  0  0  0
   -3.1010    0.7860    0.7140 C   0  0  0  0  0  0  0  0  0  0  0  0
   -2.9690   -0.5810    0.6480 C   0  0  0  0  0  0  0  0  0  0  0  0
   -4.1270   -1.4550    0.8370 C   0  0  1  0  0  0  0  0  0  0  0  0
   -4.6750   -1.1830    2.1530 N   0  0  0  0  0  0  0  0  0  0  0  0
   -5.5860   -0.1660    1.9880 O   0  0  0  0  0  0  0  0  0  0  0  0
   -6.1050   -0.2650    0.6840 C   0  0  0  0  0  0  0  0  0  0  0  0
   -7.2440    0.2630    0.1160 C   0  0  0  0  0  0  0  0  0  0  0  0
   -7.4990   -0.0090   -1.2100 C   0  0  0  0  0  0  0  0  0  0  0  0
   -6.6510   -0.7870   -1.9650 C   0  0  0  0  0  0  0  0  0  0  0  0
   -5.5310   -1.2950   -1.3680 C   0  0  0  0  0  0  0  0  0  0  0  0
   -5.2480   -1.0440   -0.0550 C   0  0  0  0  0  0  0  0  0  0  0  0
   -1.7260   -1.0950    0.3960 C   0  0  0  0  0  0  0  0  0  0  0  0
   -1.5550   -2.5600    0.3240 C   0  0  0  0  0  0  0  0  0  0  0  0
   -2.2080   -3.1240   -1.2350 Cl  0  0  0  0  0  0  0  0  0  0  0  0
   -0.6120   -0.2780    0.2080 C   0  0  0  0  0  0  0  0  0  0  0  0
    2.6340    2.8340   -0.1960 C   0  0  0  0  0  0  0  0  0  0  0  0
    4.0240    2.5940   -0.5170 C   0  0  0  0  0  0  0  0  0  0  0  0
  1  2  1  0
  2  3  2  0
  2  7  1  0
  3  4  1  0
  4  5  2  0
  5  6  1  0
  5 32  1  0
  6  7  2  0
  6  8  1  0
  8  9  1  0
  9 10  2  0
  9 11  1  0
 11 12  1  0
 11 31  1  0
 12 13  2  0
 12 14  1  0
 14 15  2  0
 14 30  1  0
 15 16  1  0
 16 17  2  0
 18 17  1  6
 17 27  1  0
 18 19  1  0
 18 26  1  0
 19 20  1  0
 20 21  1  0
 21 22  2  0
 21 26  1  0
 22 23  1  0
 23 24  2  0
 24 25  1  0
 25 26  2  0
 27 28  1  0
 27 30  2  0
 28 29  1  0
 31 32  1  0
M  END
