
     RDKit          3D

 32 32  0  0  0  0  0  0  0  0999 V2000
   -1.2440   -4.6070   -1.5940 O   0  0  0  0  0  0  0  0  0  0  0  0
   -0.6880   -3.8410   -2.4160 C   0  0  0  0  0  0  0  0  0  0  0  0
   -0.9030   -4.0220   -3.7880 O   0  0  0  0  0  0  0  0  0  0  0  0
    0.1850   -2.7590   -1.9060 C   0  0  0  0  0  0  0  0  0  0  0  0
    0.4050   -2.9120   -0.4570 C   0  0  1  0  0  0  0  0  0  0  0  0
    1.1310   -4.2340   -0.2610 C   0  0  0  0  0  0  0  0  0  0  0  0
    2.4060   -4.0680   -0.8510 O   0  0  0  0  0  0  0  0  0  0  0  0
    1.1970   -1.8610    0.2280 C   0  0  0  0  0  0  0  0  0  0  0  0
    1.6760   -0.6980   -0.5140 C   0  0  1  0  0  0  0  0  0  0  0  0
    2.2020   -0.9730   -1.7780 O   0  0  0  0  0  0  0  0  0  0  0  0
    0.7670    0.4760   -0.6650 C   0  0  2  0  0  0  0  0  0  0  0  0
    1.3940    1.3310   -1.6070 O   0  0  0  0  0  0  0  0  0  0  0  0
    0.5250    1.3040    0.5440 C   0  0  2  0  0  0  0  0  0  0  0  0
    1.7130    2.0610    1.0570 C   0  0  0  0  0  0  0  0  0  0  0  0
    2.3320    2.6950   -0.0190 O   0  0  0  0  0  0  0  0  0  0  0  0
    3.4360    3.4190    0.3790 C   0  0  2  0  0  0  0  0  0  0  0  0
    3.3790    4.7510    0.0050 O   0  0  0  0  0  0  0  0  0  0  0  0
    4.6470    2.7600   -0.2920 C   0  0  0  0  0  0  0  0  0  0  0  0
    4.5120    2.7910   -1.6660 O   0  0  0  0  0  0  0  0  0  0  0  0
   -0.1080    0.6550    1.5860 O   0  0  0  0  0  0  0  0  0  0  0  0
   -1.2710    1.2170    2.0260 C   0  0  0  0  0  0  0  0  0  0  0  0
   -2.4230    0.8910    1.1010 C   0  0  2  0  0  0  0  0  0  0  0  0
   -3.6120    1.3810    1.5680 O   0  0  0  0  0  0  0  0  0  0  0  0
   -4.2270    2.3510    0.8380 C   0  0  0  0  0  0  0  0  0  0  0  0
   -4.5710    1.8290   -0.5360 C   0  0  0  0  0  0  0  0  0  0  0  0
   -5.2130    2.8340   -1.3020 O   0  0  0  0  0  0  0  0  0  0  0  0
   -2.4900   -0.5670    0.7130 C   0  0  2  0  0  0  0  0  0  0  0  0
   -3.8630   -0.9180    0.7940 O   0  0  0  0  0  0  0  0  0  0  0  0
   -1.7320   -1.3760    1.6340 N   0  0  0  0  0  0  0  0  0  0  0  0
   -1.3140   -2.7300    1.3750 C   0  0  0  0  0  0  0  0  0  0  0  0
   -1.4100   -3.4840    2.4230 O   0  0  0  0  0  0  0  0  0  0  0  0
   -0.8770   -3.1380    0.1630 O   0  0  0  0  0  0  0  0  0  0  0  0
  1  2  2  0
  2  3  1  0
  2  4  1  0
  5  4  1  6
  5  6  1  0
  5  8  1  0
  5 32  1  0
  6  7  1  0
  8  9  1  0
  9 10  1  6
  9 11  1  0
 11 12  1  6
 11 13  1  0
 13 14  1  1
 13 20  1  0
 14 15  1  0
 15 16  1  0
 16 17  1  6
 16 18  1  0
 18 19  1  0
 20 21  1  0
 21 22  1  0
 22 23  1  1
 22 27  1  0
 23 24  1  0
 24 25  1  0
 25 26  1  0
 27 28  1  1
 27 29  1  0
 29 30  1  0
 30 31  2  0
 30 32  1  0
M  END
