
     RDKit          3D

 32 36  0  0  0  0  0  0  0  0999 V2000
    8.9290    2.0490    0.7990 C   0  0  0  0  0  0  0  0  0  0  0  0
    7.9100    1.0090    0.4200 C   0  0  0  0  0  0  0  0  0  0  0  0
    6.5680    1.2630    0.5880 C   0  0  0  0  0  0  0  0  0  0  0  0
    5.6390    0.3210    0.2450 C   0  0  0  0  0  0  0  0  0  0  0  0
    4.3210    0.7060    0.4660 C   0  0  0  0  0  0  0  0  0  0  0  0
    4.2070    1.7950    1.0620 O   0  0  0  0  0  0  0  0  0  0  0  0
    3.1260    0.0740    0.1300 C   0  0  0  0  0  0  0  0  0  0  0  0
    1.9110    0.6260    0.2860 N   0  0  0  0  0  0  0  0  0  0  0  0
    0.9440   -0.2120   -0.1210 C   0  0  0  0  0  0  0  0  0  0  0  0
   -0.4460   -0.1200   -0.1680 C   0  0  0  0  0  0  0  0  0  0  0  0
   -1.2140   -1.1520   -0.6440 C   0  0  0  0  0  0  0  0  0  0  0  0
   -2.6620   -1.0400   -0.6740 C   0  0  0  0  0  0  0  0  0  0  0  0
   -3.2820   -2.0260   -1.1760 O   0  0  0  0  0  0  0  0  0  0  0  0
   -3.3400    0.1400   -0.1540 C   0  0  2  0  0  0  0  0  0  0  0  0
   -3.0690    0.2920    1.3230 C   0  0  0  0  0  0  0  0  0  0  0  0
   -4.7800    0.2940   -0.5040 C   0  0  2  0  0  0  0  0  0  0  0  0
   -5.2580    1.6060    0.1440 C   0  0  0  0  0  0  0  0  0  0  0  0
   -6.6590    1.8790   -0.3030 C   0  0  0  0  0  0  0  0  0  0  0  0
   -7.5900    0.7710    0.1440 C   0  0  0  0  0  0  0  0  0  0  0  0
   -7.0980   -0.5810   -0.2560 C   0  0  0  0  0  0  0  0  0  0  0  0
   -5.6220   -0.8060    0.0480 C   0  0  0  0  0  0  0  0  0  0  0  0
   -0.5330   -2.2780   -1.0710 C   0  0  0  0  0  0  0  0  0  0  0  0
    0.8340   -2.4010   -1.0400 C   0  0  0  0  0  0  0  0  0  0  0  0
    1.5770   -1.3520   -0.5580 C   0  0  0  0  0  0  0  0  0  0  0  0
    2.9330   -1.1790   -0.4030 C   0  0  0  0  0  0  0  0  0  0  0  0
    3.9070   -2.0810   -0.7200 N   0  0  0  0  0  0  0  0  0  0  0  0
    5.2400   -1.9600   -0.6720 C   0  0  0  0  0  0  0  0  0  0  0  0
    5.8830   -2.9640   -1.0460 O   0  0  0  0  0  0  0  0  0  0  0  0
    6.0180   -0.8970   -0.2720 C   0  0  0  0  0  0  0  0  0  0  0  0
    7.3440   -1.1190   -0.4270 N   0  0  0  0  0  0  0  0  0  0  0  0
    8.2790   -0.2100   -0.0970 C   0  0  0  0  0  0  0  0  0  0  0  0
    9.9980   -0.5680   -0.3260 Cl  0  0  0  0  0  0  0  0  0  0  0  0
  1  2  1  0
  2  3  2  0
  2 31  1  0
  3  4  1  0
  4  5  1  0
  4 29  2  0
  5  6  2  0
  5  7  1  0
  7  8  1  0
  7 25  2  0
  8  9  1  0
  9 10  2  0
  9 24  1  0
 10 11  1  0
 11 12  1  0
 11 22  2  0
 12 13  2  0
 12 14  1  0
 14 15  1  1
 14 16  1  0
 16 17  1  1
 16 21  1  0
 17 18  1  0
 18 19  1  0
 19 20  1  0
 20 21  1  0
 22 23  1  0
 23 24  2  0
 24 25  1  0
 25 26  1  0
 26 27  1  0
 27 28  2  0
 27 29  1  0
 29 30  1  0
 30 31  2  0
 31 32  1  0
M  END
