
     RDKit          3D

 32 35  0  0  0  0  0  0  0  0999 V2000
    7.2980   -1.1860    2.6800 C   0  0  0  0  0  0  0  0  0  0  0  0
    6.1580   -0.3580    2.6160 O   0  0  0  0  0  0  0  0  0  0  0  0
    5.5350   -0.0020    1.4430 C   0  0  0  0  0  0  0  0  0  0  0  0
    5.9780   -0.4290    0.2070 C   0  0  0  0  0  0  0  0  0  0  0  0
    5.3350   -0.0560   -0.9580 C   0  0  0  0  0  0  0  0  0  0  0  0
    4.2120    0.7680   -0.9110 C   0  0  0  0  0  0  0  0  0  0  0  0
    3.5450    1.1600   -2.1530 C   0  0  0  0  0  0  0  0  0  0  0  0
    2.4970    0.1750   -2.5410 C   0  0  2  0  0  0  0  0  0  0  0  0
    1.8800    0.6350   -3.7880 N   0  0  0  0  0  0  0  0  0  0  0  0
    1.4910   -0.1200   -1.5170 C   0  0  0  0  0  0  0  0  0  0  0  0
    1.7920   -0.5630   -0.3810 O   0  0  0  0  0  0  0  0  0  0  0  0
    0.0840    0.0760   -1.7370 N   0  0  0  0  0  0  0  0  0  0  0  0
   -0.9010   -0.2100   -0.7420 C   0  0  2  0  0  0  0  0  0  0  0  0
   -1.8970   -1.2430   -1.2240 C   0  0  1  0  0  0  0  0  0  0  0  0
   -1.3620   -2.6420   -1.0610 C   0  0  0  0  0  0  0  0  0  0  0  0
   -0.9150   -2.7770    0.2650 O   0  0  0  0  0  0  0  0  0  0  0  0
   -2.9680   -0.9970   -0.3400 O   0  0  0  0  0  0  0  0  0  0  0  0
   -3.1800    0.3570   -0.5600 C   0  0  1  0  0  0  0  0  0  0  0  0
   -4.1290    0.9230    0.3710 N   0  0  0  0  0  0  0  0  0  0  0  0
   -4.2920    2.2340    0.6170 C   0  0  0  0  0  0  0  0  0  0  0  0
   -5.2640    2.3730    1.5410 N   0  0  0  0  0  0  0  0  0  0  0  0
   -5.7280    1.1780    1.8930 C   0  0  0  0  0  0  0  0  0  0  0  0
   -6.6960    0.7380    2.7710 C   0  0  0  0  0  0  0  0  0  0  0  0
   -7.4240    1.6940    3.5230 N   0  0  0  0  0  0  0  0  0  0  0  0
   -6.8920   -0.5820    2.8620 N   0  0  0  0  0  0  0  0  0  0  0  0
   -6.1800   -1.4780    2.1310 C   0  0  0  0  0  0  0  0  0  0  0  0
   -5.2380   -1.0440    1.2750 N   0  0  0  0  0  0  0  0  0  0  0  0
   -4.9910    0.2610    1.1350 C   0  0  0  0  0  0  0  0  0  0  0  0
   -1.8220    0.9690   -0.4610 C   0  0  2  0  0  0  0  0  0  0  0  0
   -1.7130    1.9400   -1.4570 O   0  0  0  0  0  0  0  0  0  0  0  0
    3.7840    1.1840    0.3160 C   0  0  0  0  0  0  0  0  0  0  0  0
    4.4340    0.8060    1.4750 C   0  0  0  0  0  0  0  0  0  0  0  0
  1  2  1  0
  2  3  1  0
  3  4  2  0
  3 32  1  0
  4  5  1  0
  5  6  2  0
  6  7  1  0
  6 31  1  0
  7  8  1  0
  8  9  1  6
  8 10  1  0
 10 11  2  0
 10 12  1  0
 13 12  1  6
 13 14  1  0
 13 29  1  0
 14 15  1  1
 14 17  1  0
 15 16  1  0
 17 18  1  0
 18 19  1  1
 18 29  1  0
 19 20  1  0
 19 28  1  0
 20 21  2  0
 21 22  1  0
 22 23  2  0
 22 28  1  0
 23 24  1  0
 23 25  1  0
 25 26  2  0
 26 27  1  0
 27 28  2  0
 29 30  1  6
 31 32  2  0
M  END
