
     RDKit          3D

 32 35  0  0  0  0  0  0  0  0999 V2000
   -0.4800    3.9220    1.4130 C   0  0  0  0  0  0  0  0  0  0  0  0
    0.8690    3.7000    2.0450 C   0  0  0  0  0  0  0  0  0  0  0  0
    1.4430    2.4050    1.6200 C   0  0  0  0  0  0  0  0  0  0  0  0
    1.7530    1.4250    2.4370 C   0  0  0  0  0  0  0  0  0  0  0  0
    2.2880    0.1640    1.9770 C   0  0  0  0  0  0  0  0  0  0  0  0
    2.4760   -0.1240    0.6620 C   0  0  0  0  0  0  0  0  0  0  0  0
    3.0580   -1.4060    0.3380 C   0  0  0  0  0  0  0  0  0  0  0  0
    2.8110   -2.4970   -0.3060 C   0  0  0  0  0  0  0  0  0  0  0  0
    3.9740   -3.5770   -0.2590 C   0  0  0  0  0  0  0  0  0  0  0  0
    1.6710   -2.9730   -1.0550 C   0  0  0  0  0  0  0  0  0  0  0  0
    0.4130   -3.2000   -0.7110 C   0  0  0  0  0  0  0  0  0  0  0  0
   -0.3280   -3.0600    0.5300 C   0  0  0  0  0  0  0  0  0  0  0  0
   -0.5750   -4.1060    1.4000 N   0  0  0  0  0  0  0  0  0  0  0  0
   -1.2600   -3.6400    2.4460 C   0  0  0  0  0  0  0  0  0  0  0  0
   -1.8120   -4.6100    3.8360 Cl  0  0  0  0  0  0  0  0  0  0  0  0
   -1.4600   -2.3290    2.2680 C   0  0  0  0  0  0  0  0  0  0  0  0
   -0.8800   -1.9040    1.0430 C   0  0  0  0  0  0  0  0  0  0  0  0
   -0.9610   -0.5730    0.4840 C   0  0  0  0  0  0  0  0  0  0  0  0
   -1.0920    0.4170    1.3380 O   0  0  0  0  0  0  0  0  0  0  0  0
   -0.9340   -0.0980   -0.8350 N   0  0  0  0  0  0  0  0  0  0  0  0
   -2.1190    0.6080   -1.3580 C   0  0  0  0  0  0  0  0  0  0  0  0
   -2.7160    1.6360   -0.7360 C   0  0  0  0  0  0  0  0  0  0  0  0
   -3.8230    2.2410   -1.3040 C   0  0  0  0  0  0  0  0  0  0  0  0
   -4.3240    1.7910   -2.5170 C   0  0  0  0  0  0  0  0  0  0  0  0
   -5.4440    2.3900   -3.1090 O   0  0  0  0  0  0  0  0  0  0  0  0
   -3.7220    0.7490   -3.1500 C   0  0  0  0  0  0  0  0  0  0  0  0
   -2.6040    0.1540   -2.5570 C   0  0  0  0  0  0  0  0  0  0  0  0
    0.1040   -0.1390   -1.8460 C   0  0  0  0  0  0  0  0  0  0  0  0
    1.3400    0.6010   -1.4870 C   0  0  0  0  0  0  0  0  0  0  0  0
    1.9880    1.0930   -2.5040 O   0  0  0  0  0  0  0  0  0  0  0  0
    1.9260    0.8640   -0.2200 N   0  0  0  0  0  0  0  0  0  0  0  0
    1.9380    2.2890    0.1960 C   0  0  0  0  0  0  0  0  0  0  0  0
  1  2  1  0
  2  3  1  0
  3  4  2  0
  3 32  1  0
  4  5  1  0
  5  6  2  0
  6  7  1  0
  6 31  1  0
  7  8  2  0
  8  9  1  0
  8 10  1  0
 10 11  2  0
 11 12  1  0
 12 13  1  0
 12 17  2  0
 13 14  1  0
 14 15  1  0
 14 16  2  0
 16 17  1  0
 17 18  1  0
 18 19  2  0
 18 20  1  0
 20 21  1  0
 20 28  1  0
 21 22  2  0
 21 27  1  0
 22 23  1  0
 23 24  2  0
 24 25  1  0
 24 26  1  0
 26 27  2  0
 28 29  1  0
 29 30  2  0
 29 31  1  0
 31 32  1  0
M  END
