
     RDKit          3D

 35 38  0  0  0  0  0  0  0  0999 V2000
    7.9260    2.6050   -0.0250 C   0  0  0  0  0  0  0  0  0  0  0  0
    6.8790    1.8420    0.7760 C   0  0  0  0  0  0  0  0  0  0  0  0
    5.5080    2.3060    0.4860 C   0  0  0  0  0  0  0  0  0  0  0  0
    4.6280    1.4970   -0.0370 C   0  0  0  0  0  0  0  0  0  0  0  0
    4.9230    0.1500   -0.3570 N   0  0  0  0  0  0  0  0  0  0  0  0
    5.8690   -0.3730   -1.3010 C   0  0  0  0  0  0  0  0  0  0  0  0
    6.6250    0.3280   -2.0460 O   0  0  0  0  0  0  0  0  0  0  0  0
    5.8510   -1.8300   -1.2960 C   0  0  0  0  0  0  0  0  0  0  0  0
    6.5420   -2.8140   -1.9900 C   0  0  0  0  0  0  0  0  0  0  0  0
    7.7640   -2.3220   -3.1960 S   0  0  0  0  0  0  0  0  0  0  0  0
    6.3140   -4.1580   -1.7770 C   0  0  0  0  0  0  0  0  0  0  0  0
    5.3710   -4.5450   -0.8460 C   0  0  0  0  0  0  0  0  0  0  0  0
    4.6710   -3.5580   -0.1430 C   0  0  0  0  0  0  0  0  0  0  0  0
    4.9120   -2.2200   -0.3680 C   0  0  0  0  0  0  0  0  0  0  0  0
    4.3190   -1.0100    0.2310 C   0  0  0  0  0  0  0  0  0  0  0  0
    3.4180   -1.0120    1.1240 N   0  0  0  0  0  0  0  0  0  0  0  0
    2.8370    0.1030    1.7110 N   0  0  0  0  0  0  0  0  0  0  0  0
    1.4240    0.0320    1.9920 C   0  0  0  0  0  0  0  0  0  0  0  0
    0.7970   -1.0030    1.7020 O   0  0  0  0  0  0  0  0  0  0  0  0
    0.7290    1.1910    2.6230 C   0  0  0  0  0  0  0  0  0  0  0  0
   -0.6600    0.8370    2.7830 N   0  0  0  0  0  0  0  0  0  0  0  0
   -1.4570    0.5100    1.6580 C   0  0  0  0  0  0  0  0  0  0  0  0
   -0.9900    0.5150    0.4940 O   0  0  0  0  0  0  0  0  0  0  0  0
   -2.8380    0.1560    1.7860 N   0  0  0  0  0  0  0  0  0  0  0  0
   -3.6480   -0.1780    0.6300 C   0  0  1  0  0  0  0  0  0  0  0  0
   -4.0590   -1.6170    0.7750 C   0  0  0  0  0  0  0  0  0  0  0  0
   -5.1470   -1.9230   -0.2320 C   0  0  0  0  0  0  0  0  0  0  0  0
   -6.3140   -1.0140    0.1390 C   0  0  2  0  0  0  0  0  0  0  0  0
   -7.5690   -1.3570   -0.6020 C   0  0  0  0  0  0  0  0  0  0  0  0
   -5.9310    0.3500   -0.1420 N   0  0  2  0  0  0  0  0  0  0  0  0
   -5.8430    0.6250   -1.5650 C   0  0  0  0  0  0  0  0  0  0  0  0
   -6.1180    2.1210   -1.7520 C   0  0  0  0  0  0  0  0  0  0  0  0
   -5.3590    2.8730   -0.7040 C   0  0  0  0  0  0  0  0  0  0  0  0
   -4.2460    2.0600   -0.0870 C   0  0  0  0  0  0  0  0  0  0  0  0
   -4.7690    0.7840    0.5500 C   0  0  2  0  0  0  0  0  0  0  0  0
  1  2  1  0
  2  3  1  0
  3  4  2  3
  4  5  1  0
  5  6  1  0
  5 15  1  0
  6  7  2  0
  6  8  1  0
  8  9  2  0
  8 14  1  0
  9 10  1  0
  9 11  1  0
 11 12  2  0
 12 13  1  0
 13 14  2  0
 14 15  1  0
 15 16  2  3
 16 17  1  0
 17 18  1  0
 18 19  2  0
 18 20  1  0
 20 21  1  0
 21 22  1  0
 22 23  2  0
 22 24  1  0
 25 24  1  1
 25 26  1  0
 25 35  1  0
 26 27  1  0
 27 28  1  0
 28 29  1  6
 28 30  1  0
 30 31  1  6
 30 35  1  0
 31 32  1  0
 32 33  1  0
 33 34  1  0
 35 34  1  6
M  CHG  1  30   1
M  END
