
     RDKit          3D

 34 36  0  0  0  0  0  0  0  0999 V2000
    8.5520    1.4020    0.4660 C   0  0  0  0  0  0  0  0  0  0  0  0
    9.4420    0.2220    0.2520 C   0  0  2  0  0  0  0  0  0  0  0  0
   10.8260    0.6000   -0.2390 C   0  0  0  0  0  0  0  0  0  0  0  0
    8.8630   -0.7350   -0.7980 C   0  0  0  0  0  0  0  0  0  0  0  0
    7.5320   -1.1960   -0.2980 C   0  0  0  0  0  0  0  0  0  0  0  0
    7.2970   -2.3130    0.4910 C   0  0  0  0  0  0  0  0  0  0  0  0
    5.9160   -2.3050    0.6800 C   0  0  0  0  0  0  0  0  0  0  0  0
    5.3960   -1.2230    0.0210 C   0  0  0  0  0  0  0  0  0  0  0  0
    4.0160   -0.7840   -0.0810 C   0  0  0  0  0  0  0  0  0  0  0  0
    3.6760    0.3590   -0.8070 C   0  0  0  0  0  0  0  0  0  0  0  0
    2.4070    0.8040   -0.9300 C   0  0  0  0  0  0  0  0  0  0  0  0
    1.3400    0.1240   -0.3190 C   0  0  0  0  0  0  0  0  0  0  0  0
    0.0410    0.6570   -0.4750 N   0  0  0  0  0  0  0  0  0  0  0  0
   -1.1230   -0.0430   -0.1640 C   0  0  0  0  0  0  0  0  0  0  0  0
   -1.1340   -1.2110    0.2780 O   0  0  0  0  0  0  0  0  0  0  0  0
   -2.4620    0.5760   -0.3440 C   0  0  0  0  0  0  0  0  0  0  0  0
   -2.5180    1.7510   -0.7860 O   0  0  0  0  0  0  0  0  0  0  0  0
   -3.6410   -0.1350   -0.0270 N   0  0  0  0  0  0  0  0  0  0  0  0
   -4.9830    0.4520   -0.1940 C   0  0  2  0  0  0  0  0  0  0  0  0
   -5.5930    0.6410    1.1460 C   0  0  1  0  0  0  0  0  0  0  0  0
   -6.3220    2.2470    1.3590 S   0  0  2  0  0  0  0  0  0  0  0  0
   -6.9470    2.4310    3.0230 C   0  0  0  0  0  0  0  0  0  0  0  0
   -7.4980    2.4150    0.4420 O   0  0  0  0  0  0  0  0  0  0  0  0
   -5.3120    3.3380    1.1600 O   0  0  0  0  0  0  0  0  0  0  0  0
   -6.5200   -0.4630    1.5190 C   0  0  0  0  0  0  0  0  0  0  0  0
   -7.5840   -0.7670    0.5170 C   0  0  0  0  0  0  0  0  0  0  0  0
   -7.2330   -0.4710   -0.8970 C   0  0  0  0  0  0  0  0  0  0  0  0
   -5.7850   -0.3050   -1.1940 C   0  0  2  0  0  0  0  0  0  0  0  0
   -5.1730   -1.7010   -1.3750 C   0  0  0  0  0  0  0  0  0  0  0  0
   -5.6980    0.3580   -2.5800 C   0  0  0  0  0  0  0  0  0  0  0  0
    1.6340   -0.9940    0.3970 C   0  0  0  0  0  0  0  0  0  0  0  0
    2.9620   -1.4320    0.5060 C   0  0  0  0  0  0  0  0  0  0  0  0
    3.2030   -2.5600    1.2360 F   0  0  0  0  0  0  0  0  0  0  0  0
    6.4100   -0.6050   -0.5400 O   0  0  0  0  0  0  0  0  0  0  0  0
  2  1  1  6
  2  3  1  0
  2  4  1  0
  4  5  1  0
  5  6  2  0
  5 34  1  0
  6  7  1  0
  7  8  2  0
  8  9  1  0
  8 34  1  0
  9 10  2  0
  9 32  1  0
 10 11  1  0
 11 12  2  0
 12 13  1  0
 12 31  1  0
 13 14  1  0
 14 15  2  0
 14 16  1  0
 16 17  2  0
 16 18  1  0
 19 18  1  1
 19 20  1  0
 19 28  1  0
 20 21  1  0
 20 25  1  6
 21 22  1  1
 21 23  2  0
 21 24  2  0
 25 26  1  0
 26 27  1  0
 27 28  1  0
 28 29  1  6
 28 30  1  0
 31 32  2  0
 32 33  1  0
M  END
