
     RDKit          3D

 35 38  0  0  0  0  0  0  0  0999 V2000
    4.4980    2.4310    1.8870 C   0  0  0  0  0  0  0  0  0  0  0  0
    5.6350    1.6060    1.3540 C   0  0  0  0  0  0  0  0  0  0  0  0
    6.6700    1.3260    2.1650 N   0  0  0  0  0  0  0  0  0  0  0  0
    7.7140    0.5950    1.7510 C   0  0  0  0  0  0  0  0  0  0  0  0
    8.7610    0.3030    2.5450 N   0  0  0  0  0  0  0  0  0  0  0  0
    9.8200   -0.4270    2.1550 C   0  0  0  0  0  0  0  0  0  0  0  0
    9.8290   -0.9020    0.8630 C   0  0  0  0  0  0  0  0  0  0  0  0
    8.7930   -0.6330    0.0230 C   0  0  0  0  0  0  0  0  0  0  0  0
    7.7180    0.1230    0.4620 C   0  0  0  0  0  0  0  0  0  0  0  0
    6.6490    0.4060   -0.3910 C   0  0  0  0  0  0  0  0  0  0  0  0
    6.6680   -0.1130   -1.7840 C   0  0  0  0  0  0  0  0  0  0  0  0
    5.5820    1.1600    0.0500 C   0  0  0  0  0  0  0  0  0  0  0  0
    4.4830    1.4720   -0.7760 N   0  0  0  0  0  0  0  0  0  0  0  0
    3.3480    0.5970   -0.8140 C   0  0  0  0  0  0  0  0  0  0  0  0
    3.4330   -0.4180   -0.0700 O   0  0  0  0  0  0  0  0  0  0  0  0
    2.2290    0.8500   -1.6150 N   0  0  0  0  0  0  0  0  0  0  0  0
    1.0930   -0.0430   -1.6310 C   0  0  0  0  0  0  0  0  0  0  0  0
    0.4840   -0.0970   -0.2720 C   0  0  0  0  0  0  0  0  0  0  0  0
   -0.8970   -1.1910   -0.1040 S   0  0  2  0  0  0  0  0  0  0  0  0
   -1.3160   -1.2720    1.3680 O   0  0  0  0  0  0  0  0  0  0  0  0
   -0.3200   -2.5900   -0.4350 O   0  0  0  0  0  0  0  0  0  0  0  0
   -2.1620   -0.8080   -1.0870 N   0  0  0  0  0  0  0  0  0  0  0  0
   -1.9400   -0.8660   -2.4740 C   0  0  0  0  0  0  0  0  0  0  0  0
   -3.4900   -0.9950   -0.7060 C   0  0  1  0  0  0  0  0  0  0  0  0
   -3.8550   -2.3840   -0.3360 C   0  0  0  0  0  0  0  0  0  0  0  0
   -5.0250   -2.5150    0.5640 C   0  0  2  0  0  0  0  0  0  0  0  0
   -5.7330   -3.8120    0.2180 C   0  0  0  0  0  0  0  0  0  0  0  0
   -6.0280   -1.4060    0.4620 C   0  0  0  0  0  0  0  0  0  0  0  0
   -5.4030   -0.0360    0.3880 C   0  0  1  0  0  0  0  0  0  0  0  0
   -5.9300    0.8450    1.4040 N   0  0  0  0  0  0  0  0  0  0  0  0
   -6.4130    2.0470    0.7310 C   0  0  0  0  0  0  0  0  0  0  0  0
   -5.2670    2.6290   -0.0750 C   0  0  0  0  0  0  0  0  0  0  0  0
   -3.9810    2.4250    0.6610 C   0  0  0  0  0  0  0  0  0  0  0  0
   -3.2230    1.1970    0.3070 C   0  0  0  0  0  0  0  0  0  0  0  0
   -3.8980   -0.1070    0.4970 C   0  0  2  0  0  0  0  0  0  0  0  0
  1  2  1  0
  2  3  2  0
  2 12  1  0
  3  4  1  0
  4  5  2  0
  4  9  1  0
  5  6  1  0
  6  7  2  0
  7  8  1  0
  8  9  2  0
  9 10  1  0
 10 11  1  0
 10 12  2  0
 12 13  1  0
 13 14  1  0
 14 15  2  0
 14 16  1  0
 16 17  1  0
 17 18  1  0
 19 18  1  1
 19 20  2  0
 19 21  2  0
 19 22  1  0
 22 23  1  0
 24 22  1  1
 24 25  1  0
 24 35  1  0
 25 26  1  0
 26 27  1  6
 26 28  1  0
 29 28  1  1
 29 30  1  0
 29 35  1  0
 30 31  1  0
 31 32  1  0
 32 33  1  0
 33 34  1  0
 35 34  1  6
M  CHG  1  30   1
M  END
