
     RDKit          3D

 35 38  0  0  0  0  0  0  0  0999 V2000
    5.4390    6.7540   -0.0120 C   0  0  0  0  0  0  0  0  0  0  0  0
    5.0170    5.5590   -0.6650 O   0  0  0  0  0  0  0  0  0  0  0  0
    5.6170    4.3710   -0.3020 C   0  0  0  0  0  0  0  0  0  0  0  0
    6.5020    4.3620    0.5700 O   0  0  0  0  0  0  0  0  0  0  0  0
    5.1950    3.1180   -0.9610 C   0  0  1  0  0  0  0  0  0  0  0  0
    5.9800    1.9720   -0.3750 C   0  0  0  0  0  0  0  0  0  0  0  0
    3.4180    2.9060   -0.7730 S   0  0  0  0  0  0  0  0  0  0  0  0
    3.0300    1.1670   -0.5570 C   0  0  0  0  0  0  0  0  0  0  0  0
    3.8870    0.1420   -0.5360 N   0  0  0  0  0  0  0  0  0  0  0  0
    3.2040   -0.9750   -0.3510 N   0  0  0  0  0  0  0  0  0  0  0  0
    3.8800   -2.2380   -0.2850 C   0  0  0  0  0  0  0  0  0  0  0  0
    3.1830   -3.4180   -0.4090 C   0  0  0  0  0  0  0  0  0  0  0  0
    3.8680   -4.6300   -0.3430 C   0  0  0  0  0  0  0  0  0  0  0  0
    5.2410   -4.6460   -0.1550 C   0  0  0  0  0  0  0  0  0  0  0  0
    5.9710   -5.8680   -0.0840 N   0  0  0  0  0  0  0  0  0  0  0  0
    5.9580   -3.4830   -0.0290 C   0  0  0  0  0  0  0  0  0  0  0  0
    5.2530   -2.3070   -0.0980 C   0  0  0  0  0  0  0  0  0  0  0  0
    1.9230   -0.7260   -0.2490 N   0  0  0  0  0  0  0  0  0  0  0  0
    1.7640    0.6060   -0.3720 C   0  0  0  0  0  0  0  0  0  0  0  0
    0.5480    1.4040   -0.3260 C   0  0  0  0  0  0  0  0  0  0  0  0
    0.6750    2.6610   -0.4670 O   0  0  0  0  0  0  0  0  0  0  0  0
   -0.7120    0.8170   -0.1320 N   0  0  0  0  0  0  0  0  0  0  0  0
   -1.8710    1.7120   -0.0830 C   0  0  0  0  0  0  0  0  0  0  0  0
   -2.7520    1.1890    1.0320 C   0  0  0  0  0  0  0  0  0  0  0  0
   -3.2110   -0.2160    0.7290 C   0  0  1  0  0  0  0  0  0  0  0  0
   -4.5930   -0.4400    0.7210 N   0  0  0  0  0  0  0  0  0  0  0  0
   -5.4690   -0.0130   -0.2640 C   0  0  2  0  0  0  0  0  0  0  0  0
   -5.4070    1.3950   -0.7630 C   0  0  0  0  0  0  0  0  0  0  0  0
   -6.8830   -0.0600    0.3750 C   0  0  0  0  0  0  0  0  0  0  0  0
   -7.3320   -1.4000    0.6870 C   0  0  0  0  0  0  0  0  0  0  0  0
   -6.9210   -2.4780    0.0570 C   0  0  0  0  0  0  0  0  0  0  0  0
   -5.9370   -2.3490   -1.0460 C   0  0  0  0  0  0  0  0  0  0  0  0
   -5.6520   -0.9530   -1.4520 C   0  0  0  0  0  0  0  0  0  0  0  0
   -2.3910   -0.8920   -0.3440 C   0  0  0  0  0  0  0  0  0  0  0  0
   -0.9140   -0.5850    0.0080 C   0  0  0  0  0  0  0  0  0  0  0  0
  1  2  1  0
  2  3  1  0
  3  4  2  0
  3  5  1  0
  5  6  1  1
  5  7  1  0
  7  8  1  0
  8  9  2  0
  8 19  1  0
  9 10  1  0
 10 11  1  0
 10 18  1  0
 11 12  2  0
 11 17  1  0
 12 13  1  0
 13 14  2  0
 14 15  1  0
 14 16  1  0
 16 17  2  0
 18 19  2  0
 19 20  1  0
 20 21  2  0
 20 22  1  0
 22 23  1  0
 22 35  1  0
 23 24  1  0
 24 25  1  0
 25 26  1  6
 25 34  1  0
 26 27  1  0
 27 28  1  6
 27 29  1  0
 27 33  1  0
 29 30  1  0
 30 31  2  0
 31 32  1  0
 32 33  1  0
 34 35  1  0
M  CHG  1  26   1
M  END
