
     RDKit          3D

 34 36  0  0  0  0  0  0  0  0999 V2000
    4.0060    1.8570   -2.9920 C   0  0  0  0  0  0  0  0  0  0  0  0
    4.1200    0.5740   -2.9000 C   0  0  0  0  0  0  0  0  0  0  0  0
    3.3200   -0.1440   -3.7920 F   0  0  0  0  0  0  0  0  0  0  0  0
    4.9600   -0.1520   -2.0090 C   0  0  0  0  0  0  0  0  0  0  0  0
    4.9690   -1.4790   -2.0390 C   0  0  0  0  0  0  0  0  0  0  0  0
    5.8230   -2.3140   -1.1370 C   0  0  0  0  0  0  0  0  0  0  0  0
    5.9930    0.5980   -0.8500 S   0  0  2  0  0  0  0  0  0  0  0  0
    6.4280    1.9570   -1.3300 O   0  0  0  0  0  0  0  0  0  0  0  0
    7.2730   -0.2310   -0.7270 O   0  0  0  0  0  0  0  0  0  0  0  0
    5.2020    0.7070    0.6420 N   0  0  0  0  0  0  0  0  0  0  0  0
    4.0200    1.4630    0.7390 C   0  0  2  0  0  0  0  0  0  0  0  0
    4.0750    2.5390    1.8070 C   0  0  0  0  0  0  0  0  0  0  0  0
    2.9160    0.4920    1.1920 C   0  0  0  0  0  0  0  0  0  0  0  0
    1.6200    1.1590    1.3320 C   0  0  0  0  0  0  0  0  0  0  0  0
    1.5340    2.3910    1.0990 O   0  0  0  0  0  0  0  0  0  0  0  0
    0.4600    0.3920    1.7350 C   0  0  0  0  0  0  0  0  0  0  0  0
    0.0180    0.1510    3.0070 C   0  0  0  0  0  0  0  0  0  0  0  0
    0.6870    0.6540    4.2400 C   0  0  0  0  0  0  0  0  0  0  0  0
   -1.0920   -0.5970    2.9530 N   0  0  0  0  0  0  0  0  0  0  0  0
   -1.4210   -0.8750    1.6460 C   0  0  0  0  0  0  0  0  0  0  0  0
   -2.5380   -1.6700    1.2640 C   0  0  0  0  0  0  0  0  0  0  0  0
   -3.2550   -2.1960    2.2050 O   0  0  0  0  0  0  0  0  0  0  0  0
   -2.9860   -1.9670   -0.0940 C   0  0  1  0  0  0  0  0  0  0  0  0
   -4.1460   -2.9620   -0.0070 C   0  0  0  0  0  0  0  0  0  0  0  0
   -5.4850   -2.3200    0.0840 C   0  0  0  0  0  0  0  0  0  0  0  0
   -5.6430   -1.5980   -1.1200 O   0  0  0  0  0  0  0  0  0  0  0  0
   -4.8550   -0.4890   -0.9960 C   0  0  2  0  0  0  0  0  0  0  0  0
   -5.4610    0.4510    0.0570 C   0  0  0  0  0  0  0  0  0  0  0  0
   -4.9820    1.8170   -0.3700 C   0  0  0  0  0  0  0  0  0  0  0  0
   -4.9810    1.7770   -1.8670 C   0  0  0  0  0  0  0  0  0  0  0  0
   -5.0550    0.3390   -2.2730 C   0  0  0  0  0  0  0  0  0  0  0  0
   -3.4140   -0.6880   -0.7430 C   0  0  0  0  0  0  0  0  0  0  0  0
   -0.4650   -0.2660    0.8960 C   0  0  0  0  0  0  0  0  0  0  0  0
   -0.2730   -0.2150   -0.5870 C   0  0  0  0  0  0  0  0  0  0  0  0
  1  2  2  0
  2  3  1  0
  2  4  1  0
  4  5  2  3
  4  7  1  0
  5  6  1  0
  7  8  2  0
  7  9  2  0
  7 10  1  1
 10 11  1  0
 11 12  1  1
 11 13  1  0
 13 14  1  0
 14 15  2  0
 14 16  1  0
 16 17  2  0
 16 33  1  0
 17 18  1  0
 17 19  1  0
 19 20  1  0
 20 21  1  0
 20 33  2  0
 21 22  2  0
 23 21  1  1
 23 24  1  0
 23 32  1  0
 24 25  1  0
 25 26  1  0
 26 27  1  0
 27 28  1  1
 27 31  1  0
 27 32  1  0
 28 29  1  0
 29 30  1  0
 30 31  1  0
 33 34  1  0
M  END
