
     RDKit          3D

 26 27  0  0  0  0  0  0  0  0999 V2000
   -8.3050    0.5820    0.9340 C   0  0  0  0  0  0  0  0  0  0  0  0
   -7.0030    0.2650    0.5930 O   0  0  0  0  0  0  0  0  0  0  0  0
   -6.3490    1.3640    0.0440 C   0  0  0  0  0  0  0  0  0  0  0  0
   -4.9640    1.0790   -0.3350 C   0  0  0  0  0  0  0  0  0  0  0  0
   -4.2800    2.0030   -0.8410 O   0  0  0  0  0  0  0  0  0  0  0  0
   -4.3230   -0.1780   -0.1730 N   0  0  0  0  0  0  0  0  0  0  0  0
   -2.9800   -0.4050   -0.5550 C   0  0  0  0  0  0  0  0  0  0  0  0
   -2.3140   -1.5250   -0.4430 C   0  0  0  0  0  0  0  0  0  0  0  0
   -2.9150   -2.7370    0.1260 N   0  0  0  0  0  0  0  0  0  0  0  0
   -0.9340   -1.5160   -0.9400 C   0  0  0  0  0  0  0  0  0  0  0  0
   -0.3380   -0.1360   -0.7670 C   0  0  2  0  0  0  0  0  0  0  0  0
    0.7250    0.1260   -1.6760 N   0  0  0  0  0  0  0  0  0  0  0  0
    2.0640    0.0050   -1.2110 C   0  0  0  0  0  0  0  0  0  0  0  0
    2.9880   -0.4430   -1.9590 O   0  0  0  0  0  0  0  0  0  0  0  0
    2.3660    0.4150    0.1720 C   0  0  2  0  0  0  0  0  0  0  0  0
    2.3150    1.9540    0.1770 C   0  0  0  0  0  0  0  0  0  0  0  0
    3.6690   -0.0760    0.7080 C   0  0  0  0  0  0  0  0  0  0  0  0
    4.8610    0.3610   -0.0160 C   0  0  0  0  0  0  0  0  0  0  0  0
    4.8090    1.1390   -1.0020 O   0  0  0  0  0  0  0  0  0  0  0  0
    6.1610   -0.0960    0.3870 N   0  0  0  0  0  0  0  0  0  0  0  0
    7.3280    0.3510   -0.3460 C   0  0  0  0  0  0  0  0  0  0  0  0
    8.5120   -0.2400    0.2430 N   0  0  0  0  0  0  0  0  0  0  0  0
    1.3050    0.0180    1.0910 N   0  0  0  0  0  0  0  0  0  0  0  0
   -0.0320    0.0900    0.6440 C   0  0  0  0  0  0  0  0  0  0  0  0
   -0.9480    0.3460    1.4540 O   0  0  0  0  0  0  0  0  0  0  0  0
   -1.8610    0.8010   -1.2560 S   0  0  0  0  0  0  0  0  0  0  0  0
  1  2  1  0
  2  3  1  0
  3  4  1  0
  4  5  2  0
  4  6  1  0
  6  7  1  0
  7  8  2  0
  7 26  1  0
  8  9  1  0
  8 10  1  0
 11 10  1  1
 11 12  1  0
 11 24  1  0
 11 26  1  0
 12 13  1  0
 13 14  2  0
 13 15  1  0
 15 16  1  6
 15 17  1  0
 15 23  1  0
 17 18  1  0
 18 19  2  0
 18 20  1  0
 20 21  1  0
 21 22  1  0
 23 24  1  0
 24 25  2  0
M  CHG  1   9   1
M  END
