
     RDKit          3D

 26 27  0  0  0  0  0  0  0  0999 V2000
    4.3150   -1.9260   -1.8110 C   0  0  0  0  0  0  0  0  0  0  0  0
    4.4550   -0.4430   -1.5440 C   0  0  1  0  0  0  0  0  0  0  0  0
    3.3630   -0.0030   -0.1950 S   0  0  0  0  0  0  0  0  0  0  0  0
    1.6160   -0.1890   -0.6330 C   0  0  0  0  0  0  0  0  0  0  0  0
    0.7050    0.1830    0.5100 C   0  0  0  0  0  0  0  0  0  0  0  0
   -0.6630    0.0720    0.3140 N   0  0  0  0  0  0  0  0  0  0  0  0
   -1.4180   -1.1450    0.6160 C   0  0  0  0  0  0  0  0  0  0  0  0
   -0.7950   -2.2290    0.5850 O   0  0  0  0  0  0  0  0  0  0  0  0
   -2.8610   -1.1670    0.9530 C   0  0  2  0  0  0  0  0  0  0  0  0
   -3.3790   -2.4830    0.6470 N   0  0  0  0  0  0  0  0  0  0  0  0
   -3.8100   -3.3210    1.7120 C   0  0  0  0  0  0  0  0  0  0  0  0
   -4.3290   -4.6200    1.5220 N   0  0  0  0  0  0  0  0  0  0  0  0
   -3.7250   -2.8810    2.9050 O   0  0  0  0  0  0  0  0  0  0  0  0
   -3.6230   -0.0750    0.3170 C   0  0  0  0  0  0  0  0  0  0  0  0
   -2.8500    0.6660   -0.7460 C   0  0  1  0  0  0  0  0  0  0  0  0
   -3.5400    1.6600   -1.3500 O   0  0  0  0  0  0  0  0  0  0  0  0
   -3.1940    2.9760   -1.2950 C   0  0  0  0  0  0  0  0  0  0  0  0
   -3.9880    3.8720   -1.7860 O   0  0  0  0  0  0  0  0  0  0  0  0
   -1.9790    3.3800   -0.7100 N   0  0  0  0  0  0  0  0  0  0  0  0
   -1.1210    2.3490   -0.1640 C   0  0  0  0  0  0  0  0  0  0  0  0
    0.1880    2.6860    0.3920 C   0  0  0  0  0  0  0  0  0  0  0  0
    0.1790    3.4490    1.6210 N   0  0  0  0  0  0  0  0  0  0  0  0
   -1.5130    1.1140   -0.2250 C   0  0  0  0  0  0  0  0  0  0  0  0
    5.8260   -0.0500   -1.2120 C   0  0  0  0  0  0  0  0  0  0  0  0
    6.4690   -0.6110   -0.0880 N   0  0  0  0  0  0  0  0  0  0  0  0
    6.4300    0.7770   -1.9160 O   0  0  0  0  0  0  0  0  0  0  0  0
  2  1  1  1
  2  3  1  0
  2 24  1  0
  3  4  1  0
  4  5  1  0
  5  6  1  0
  6  7  1  0
  6 23  1  0
  7  8  2  0
  7  9  1  0
  9 10  1  6
  9 14  1  0
 10 11  1  0
 11 12  1  0
 11 13  2  0
 15 14  1  1
 15 16  1  0
 15 23  1  0
 16 17  1  0
 17 18  2  0
 17 19  1  0
 19 20  1  0
 20 21  1  0
 20 23  2  0
 21 22  1  0
 24 25  1  0
 24 26  2  0
M  CHG  1  22   1
M  END
