
     RDKit          3D

 26 27  0  0  0  0  0  0  0  0999 V2000
    4.3870    0.9170   -2.8600 N   0  0  0  0  0  0  0  0  0  0  0  0
    4.7330    2.2520   -2.5720 C   0  0  0  0  0  0  0  0  0  0  0  0
    5.5870    2.9030   -3.2100 O   0  0  0  0  0  0  0  0  0  0  0  0
    4.0620    2.9590   -1.4500 C   0  0  0  0  0  0  0  0  0  0  0  0
    3.0750    2.1050   -0.7760 N   0  0  0  0  0  0  0  0  0  0  0  0
    2.0230    1.5950   -1.4550 C   0  0  0  0  0  0  0  0  0  0  0  0
    1.9280    1.9060   -2.7260 O   0  0  0  0  0  0  0  0  0  0  0  0
    1.0270    0.8160   -1.1010 N   0  0  0  0  0  0  0  0  0  0  0  0
    0.0780    0.0310   -0.6120 C   0  0  0  0  0  0  0  0  0  0  0  0
   -0.7710   -0.2760   -1.5760 O   0  0  0  0  0  0  0  0  0  0  0  0
   -0.2160   -0.5070    0.6000 N   0  0  0  0  0  0  0  0  0  0  0  0
   -1.3570   -1.3150    0.7600 C   0  0  0  0  0  0  0  0  0  0  0  0
   -2.3910   -0.9320    1.4790 C   0  0  0  0  0  0  0  0  0  0  0  0
   -2.5570    0.2980    2.1960 C   0  0  0  0  0  0  0  0  0  0  0  0
   -3.6750    0.5710    2.8890 C   0  0  0  0  0  0  0  0  0  0  0  0
   -3.7450    1.9020    3.6060 C   0  0  0  0  0  0  0  0  0  0  0  0
   -3.3970    2.9390    2.5280 C   0  0  0  0  0  0  0  0  0  0  0  0
   -1.9760    3.0800    2.3960 N   0  0  0  0  0  0  0  0  0  0  0  0
   -1.2480    1.5010    2.2120 S   0  0  0  0  0  0  0  0  0  0  0  0
   -0.3390    1.2010    3.4200 O   0  0  0  0  0  0  0  0  0  0  0  0
   -1.3440   -2.6140    0.1080 C   0  0  0  0  0  0  0  0  0  0  0  0
   -2.3460   -3.3560    0.2280 O   0  0  0  0  0  0  0  0  0  0  0  0
   -0.2440   -3.0690   -0.6540 N   0  0  0  0  0  0  0  0  0  0  0  0
   -0.3190   -4.3780   -1.2700 C   0  0  2  0  0  0  0  0  0  0  0  0
    1.0050   -5.0740   -1.4180 C   0  0  0  0  0  0  0  0  0  0  0  0
    0.3760   -4.5350   -2.6280 C   0  0  0  0  0  0  0  0  0  0  0  0
  1  2  1  0
  2  3  2  0
  2  4  1  0
  4  5  1  0
  5  6  1  0
  6  7  2  0
  6  8  1  0
  8  9  1  0
  9 10  2  0
  9 11  1  0
 11 12  1  0
 12 13  2  3
 12 21  1  0
 13 14  1  0
 14 15  2  0
 14 19  1  0
 15 16  1  0
 16 17  1  0
 17 18  1  0
 19 18  1  1
 19 20  2  0
 21 22  2  0
 21 23  1  0
 24 23  1  1
 24 25  1  0
 24 26  1  0
 25 26  1  0
M  CHG  1  18   1
M  END
