
     RDKit          3D

 26 27  0  0  0  0  0  0  0  0999 V2000
    5.2050   -1.7850   -0.0830 C   0  0  0  0  0  0  0  0  0  0  0  0
    3.9030   -1.0870    0.2730 C   0  0  1  0  0  0  0  0  0  0  0  0
    4.2050   -0.0840    1.3240 C   0  0  0  0  0  0  0  0  0  0  0  0
    5.0590    1.0000    0.9910 N   0  0  0  0  0  0  0  0  0  0  0  0
    3.7450   -0.1420    2.4890 O   0  0  0  0  0  0  0  0  0  0  0  0
    3.3940   -0.4200   -0.9810 C   0  0  0  0  0  0  0  0  0  0  0  0
    2.0700   -1.0630   -1.3430 C   0  0  0  0  0  0  0  0  0  0  0  0
    1.1480   -0.8400   -0.1680 C   0  0  1  0  0  0  0  0  0  0  0  0
   -0.2340   -1.1230   -0.4680 N   0  0  0  0  0  0  0  0  0  0  0  0
   -1.2380   -0.1080   -0.3670 C   0  0  0  0  0  0  0  0  0  0  0  0
   -0.8610    1.0490   -0.0020 O   0  0  0  0  0  0  0  0  0  0  0  0
   -2.5650   -0.4490   -0.6730 N   0  0  0  0  0  0  0  0  0  0  0  0
   -3.6110    0.5950   -0.5530 C   0  0  0  0  0  0  0  0  0  0  0  0
   -4.1370    0.8810   -1.6860 C   0  0  0  0  0  0  0  0  0  0  0  0
   -5.1280    1.7300   -2.2530 C   0  0  0  0  0  0  0  0  0  0  0  0
   -5.3420    1.6580   -3.7140 N   0  0  0  0  0  0  0  0  0  0  0  0
   -5.8460    2.5370   -1.6590 O   0  0  0  0  0  0  0  0  0  0  0  0
   -3.8160    1.1050    0.8170 C   0  0  0  0  0  0  0  0  0  0  0  0
   -3.1050    0.5640    1.8120 C   0  0  0  0  0  0  0  0  0  0  0  0
   -3.5650    1.3740    3.3080 S   0  0  0  0  0  0  0  0  0  0  0  0
   -2.3600    2.1430    3.8410 O   0  0  0  0  0  0  0  0  0  0  0  0
   -4.7220    2.4710    2.5710 C   0  0  0  0  0  0  0  0  0  0  0  0
   -5.3940    3.3370    3.1700 O   0  0  0  0  0  0  0  0  0  0  0  0
   -4.6800    2.1170    1.1890 N   0  0  0  0  0  0  0  0  0  0  0  0
    1.6610   -1.6340    1.0070 C   0  0  0  0  0  0  0  0  0  0  0  0
    3.0100   -2.1030    0.7830 N   0  0  0  0  0  0  0  0  0  0  0  0
  2  1  1  6
  2  3  1  0
  2  6  1  0
  2 26  1  0
  3  4  1  0
  3  5  2  0
  6  7  1  0
  7  8  1  0
  8  9  1  6
  8 25  1  0
  9 10  1  0
 10 11  2  0
 10 12  1  0
 12 13  1  0
 13 14  2  3
 13 18  1  0
 14 15  1  0
 15 16  1  0
 15 17  2  0
 18 19  2  0
 18 24  1  0
 20 19  1  6
 20 21  2  0
 20 22  1  0
 22 23  2  0
 22 24  1  0
 25 26  1  0
M  CHG  1  26   1
M  END
