
     RDKit          3D

 26 27  0  0  0  0  0  0  0  0999 V2000
    4.9670    2.3200   -0.5290 N   0  0  0  0  0  0  0  0  0  0  0  0
    3.6410    1.8310   -0.4160 C   0  0  0  0  0  0  0  0  0  0  0  0
    2.6940    2.6700   -0.4850 O   0  0  0  0  0  0  0  0  0  0  0  0
    3.3420    0.4000   -0.2240 C   0  0  2  0  0  0  0  0  0  0  0  0
    1.9200    0.1790   -0.1600 N   0  0  0  0  0  0  0  0  0  0  0  0
    1.2640   -0.5460   -1.1180 C   0  0  0  0  0  0  0  0  0  0  0  0
    1.9880   -1.0230   -2.0830 O   0  0  0  0  0  0  0  0  0  0  0  0
   -0.0040   -0.9050   -1.3190 N   0  0  0  0  0  0  0  0  0  0  0  0
   -1.3060   -1.1250   -1.2860 C   0  0  0  0  0  0  0  0  0  0  0  0
   -1.5540   -1.8650   -2.3690 O   0  0  0  0  0  0  0  0  0  0  0  0
   -2.4020   -0.8510   -0.5430 N   0  0  0  0  0  0  0  0  0  0  0  0
   -2.3160   -0.0500    0.6660 C   0  0  0  0  0  0  0  0  0  0  0  0
   -3.3770    1.0360    0.6450 C   0  0  0  0  0  0  0  0  0  0  0  0
   -4.5990    0.3760    0.8300 O   0  0  0  0  0  0  0  0  0  0  0  0
   -5.3250    0.4000   -0.3490 C   0  0  2  0  0  0  0  0  0  0  0  0
   -6.7210   -0.1080   -0.1480 C   0  0  0  0  0  0  0  0  0  0  0  0
   -6.7800   -1.4660    0.3300 N   0  0  0  0  0  0  0  0  0  0  0  0
   -4.5690   -0.2550   -1.4380 C   0  0  0  0  0  0  0  0  0  0  0  0
   -3.6850   -1.4020   -1.0250 C   0  0  0  0  0  0  0  0  0  0  0  0
    3.9580   -0.2290    0.9820 C   0  0  2  0  0  0  0  0  0  0  0  0
    3.5000    0.4580    2.1870 N   0  0  0  0  0  0  0  0  0  0  0  0
    5.4170   -0.2720    0.8840 C   0  0  0  0  0  0  0  0  0  0  0  0
    6.3000    0.2720    1.6800 C   0  0  0  0  0  0  0  0  0  0  0  0
    7.6030    0.0910    1.3750 O   0  0  0  0  0  0  0  0  0  0  0  0
    7.9380   -1.0420    0.6120 C   0  0  0  0  0  0  0  0  0  0  0  0
    6.3680   -1.1140   -0.3690 S   0  0  0  0  0  0  0  0  0  0  0  0
  1  2  1  0
  2  3  2  0
  2  4  1  0
  4  5  1  1
  4 20  1  0
  5  6  1  0
  6  7  2  0
  6  8  1  0
  8  9  1  0
  9 10  2  0
  9 11  1  0
 11 12  1  0
 11 19  1  0
 12 13  1  0
 13 14  1  0
 14 15  1  0
 15 16  1  1
 15 18  1  0
 16 17  1  0
 18 19  1  0
 20 21  1  1
 20 22  1  0
 22 23  2  0
 22 26  1  0
 23 24  1  0
 24 25  1  0
 25 26  1  0
M  CHG  1  17   1
M  END
