
     RDKit          3D

 12 12  0  0  0  0  0  0  0  0999 V2000
    4.4650    0.5160   -1.3000 O   0  0  0  0  0  0  0  0  0  0  0  0
    3.6650    0.1220   -0.4170 C   0  0  0  0  0  0  0  0  0  0  0  0
    4.2190   -0.3890    0.7470 O   0  0  0  0  0  0  0  0  0  0  0  0
    2.2130    0.2070   -0.6220 C   0  0  0  0  0  0  0  0  0  0  0  0
    1.3400   -0.1910    0.2690 C   0  0  0  0  0  0  0  0  0  0  0  0
   -0.1100   -0.1340    0.1260 C   0  0  0  0  0  0  0  0  0  0  0  0
   -0.7570    0.3560   -0.9890 C   0  0  0  0  0  0  0  0  0  0  0  0
   -2.1460    0.3860   -1.0720 C   0  0  0  0  0  0  0  0  0  0  0  0
   -2.9410   -0.0710   -0.0450 C   0  0  0  0  0  0  0  0  0  0  0  0
   -4.3360   -0.0450   -0.1170 O   0  0  0  0  0  0  0  0  0  0  0  0
   -2.2980   -0.5610    1.0720 C   0  0  0  0  0  0  0  0  0  0  0  0
   -0.9220   -0.5900    1.1500 C   0  0  0  0  0  0  0  0  0  0  0  0
  1  2  2  0
  2  3  1  0
  2  4  1  0
  4  5  2  3
  5  6  1  0
  6  7  2  0
  6 12  1  0
  7  8  1  0
  8  9  2  0
  9 10  1  0
  9 11  1  0
 11 12  2  0
M  END
