
     RDKit          3D

 14 15  0  0  0  0  0  0  0  0999 V2000
    0.3660    5.5090   -0.6930 N   0  0  0  0  0  0  0  0  0  0  0  0
    0.1590    4.3660   -0.7480 C   0  0  0  0  0  0  0  0  0  0  0  0
   -0.0740    2.9540   -0.8080 C   0  0  0  0  0  0  0  0  0  0  0  0
   -1.1880    2.2240   -0.9230 C   0  0  0  0  0  0  0  0  0  0  0  0
   -1.1460    0.8950   -0.9580 C   0  0  0  0  0  0  0  0  0  0  0  0
    0.0630    0.2710   -0.8720 C   0  0  0  0  0  0  0  0  0  0  0  0
    0.5020   -1.1380   -0.8780 C   0  0  0  0  0  0  0  0  0  0  0  0
    0.5190   -1.7230    0.4960 C   0  0  0  0  0  0  0  0  0  0  0  0
   -0.5460   -2.3490    1.0370 N   0  0  0  0  0  0  0  0  0  0  0  0
   -0.2670   -2.7730    2.2620 N   0  0  0  0  0  0  0  0  0  0  0  0
    1.0080   -2.3950    2.4770 C   0  0  0  0  0  0  0  0  0  0  0  0
    1.6780   -2.6030    3.5350 O   0  0  0  0  0  0  0  0  0  0  0  0
    1.4460   -1.7660    1.3910 O   0  0  0  0  0  0  0  0  0  0  0  0
    1.2270    1.7080   -0.7320 S   0  0  0  0  0  0  0  0  0  0  0  0
  1  2  3  0
  2  3  1  0
  3  4  2  0
  3 14  1  0
  4  5  1  0
  5  6  2  0
  6  7  1  0
  6 14  1  0
  7  8  1  0
  8  9  2  0
  8 13  1  0
  9 10  1  0
 10 11  1  0
 11 12  2  0
 11 13  1  0
M  END
