
     RDKit          3D

 14 15  0  0  0  0  0  0  0  0999 V2000
   -4.3440    0.3780   -0.1520 O   0  0  0  0  0  0  0  0  0  0  0  0
   -3.0910    0.4100   -0.0060 C   0  0  0  0  0  0  0  0  0  0  0  0
   -2.3300   -0.6030   -0.4770 N   0  0  0  0  0  0  0  0  0  0  0  0
   -0.9940   -0.5910   -0.3300 C   0  0  0  0  0  0  0  0  0  0  0  0
   -0.1920   -1.6290   -0.7930 C   0  0  0  0  0  0  0  0  0  0  0  0
    1.1640   -1.6080   -0.6250 C   0  0  0  0  0  0  0  0  0  0  0  0
    1.8090   -0.5560    0.0140 C   0  0  0  0  0  0  0  0  0  0  0  0
    3.2170   -0.5480    0.1930 N   0  0  0  0  0  0  0  0  0  0  0  0
    4.3510    0.5240   -0.5990 S   0  0  0  0  0  0  0  0  0  0  0  0
    1.0010    0.4630    0.4660 C   0  0  0  0  0  0  0  0  0  0  0  0
   -0.3750    0.4660    0.3070 C   0  0  0  0  0  0  0  0  0  0  0  0
   -1.1530    1.4600    0.7640 N   0  0  0  0  0  0  0  0  0  0  0  0
   -2.5020    1.4800    0.6360 C   0  0  0  0  0  0  0  0  0  0  0  0
   -3.1860    2.4520    1.0960 O   0  0  0  0  0  0  0  0  0  0  0  0
  1  2  2  0
  2  3  1  0
  2 13  1  0
  3  4  1  0
  4  5  2  0
  4 11  1  0
  5  6  1  0
  6  7  2  0
  7  8  1  0
  7 10  1  0
  8  9  1  0
 10 11  2  0
 11 12  1  0
 12 13  1  0
 13 14  2  0
M  END
