
     RDKit          3D

 14 15  0  0  0  0  0  0  0  0999 V2000
    0.0050    1.3260   -0.9650 O   0  0  0  0  0  0  0  0  0  0  0  0
   -0.7740    0.5790   -0.4640 C   0  0  0  0  0  0  0  0  0  0  0  0
   -2.2270    0.5790   -0.7770 C   0  0  0  0  0  0  0  0  0  0  0  0
   -2.8990    0.6690    0.6000 C   0  0  0  0  0  0  0  0  0  0  0  0
   -2.7400   -0.6740    1.2590 C   0  0  0  0  0  0  0  0  0  0  0  0
   -1.4540   -1.3410    0.9440 C   0  0  0  0  0  0  0  0  0  0  0  0
   -0.3270   -0.4260    0.5340 C   0  0  1  0  0  0  0  0  0  0  0  0
    0.9530   -1.4260   -0.2910 S   0  0  0  0  0  0  0  0  0  0  0  0
    2.3730   -0.4020   -0.6080 C   0  0  0  0  0  0  0  0  0  0  0  0
    2.6540    0.3390   -1.6820 N   0  0  0  0  0  0  0  0  0  0  0  0
    3.8330    0.9630   -1.5230 N   0  0  0  0  0  0  0  0  0  0  0  0
    4.3200    0.6030   -0.2990 C   0  0  0  0  0  0  0  0  0  0  0  0
    5.4220    1.0050    0.1890 O   0  0  0  0  0  0  0  0  0  0  0  0
    3.4180   -0.2280    0.2440 N   0  0  0  0  0  0  0  0  0  0  0  0
  1  2  2  0
  2  3  1  0
  2  7  1  0
  3  4  1  0
  4  5  1  0
  5  6  1  0
  6  7  1  0
  7  8  1  6
  8  9  1  0
  9 10  2  0
  9 14  1  0
 10 11  1  0
 11 12  1  0
 12 13  2  0
 12 14  1  0
M  END
