
     RDKit          3D

 14 15  0  0  0  0  0  0  0  0999 V2000
   -4.0020    0.3560    0.8650 C   0  0  0  0  0  0  0  0  0  0  0  0
   -3.2520    0.0930   -0.7840 S   0  0  0  0  0  0  0  0  0  0  0  0
   -1.5200   -0.1990   -0.5270 C   0  0  0  0  0  0  0  0  0  0  0  0
   -1.0710   -1.4730   -0.3390 C   0  0  0  0  0  0  0  0  0  0  0  0
    0.2680   -1.7260   -0.1370 C   0  0  0  0  0  0  0  0  0  0  0  0
    1.1670   -0.6710   -0.1250 C   0  0  0  0  0  0  0  0  0  0  0  0
    2.4830   -0.8570    0.0670 N   0  0  0  0  0  0  0  0  0  0  0  0
    3.2860    0.2280    0.0630 C   0  0  0  0  0  0  0  0  0  0  0  0
    4.5290    0.0470    0.2450 O   0  0  0  0  0  0  0  0  0  0  0  0
    2.7810    1.5050   -0.1330 C   0  0  0  0  0  0  0  0  0  0  0  0
    3.5810    2.4770   -0.1250 O   0  0  0  0  0  0  0  0  0  0  0  0
    1.4660    1.6980   -0.3250 N   0  0  0  0  0  0  0  0  0  0  0  0
    0.6490    0.6010   -0.3220 C   0  0  0  0  0  0  0  0  0  0  0  0
   -0.6650    0.8160   -0.5170 N   0  0  0  0  0  0  0  0  0  0  0  0
  1  2  1  0
  2  3  1  0
  3  4  2  0
  3 14  1  0
  4  5  1  0
  5  6  2  0
  6  7  1  0
  6 13  1  0
  7  8  1  0
  8  9  2  0
  8 10  1  0
 10 11  2  0
 10 12  1  0
 12 13  1  0
 13 14  2  0
M  END
