
     RDKit          3D

 14 14  0  0  0  0  0  0  0  0999 V2000
   -2.9400    1.3050    0.3570 C   0  0  0  0  0  0  0  0  0  0  0  0
   -2.8780    0.3510    1.3220 O   0  0  0  0  0  0  0  0  0  0  0  0
   -2.6660   -0.9340    0.9500 C   0  0  0  0  0  0  0  0  0  0  0  0
   -1.4040   -1.1130    0.2320 C   0  0  0  0  0  0  0  0  0  0  0  0
   -1.2200   -0.6330   -1.1600 C   0  0  0  0  0  0  0  0  0  0  0  0
   -0.4010   -1.7140    0.8220 N   0  0  0  0  0  0  0  0  0  0  0  0
    0.7960   -1.8780    0.1250 C   0  0  0  0  0  0  0  0  0  0  0  0
    1.6950   -0.9380    0.0740 C   0  0  0  0  0  0  0  0  0  0  0  0
    1.6030    0.7000    0.8500 S   0  0  0  0  0  0  0  0  0  0  0  0
    3.1990    1.2320    0.2540 C   0  0  0  0  0  0  0  0  0  0  0  0
    3.7600    2.4900    0.5210 N   0  0  0  0  0  0  0  0  0  0  0  0
    3.6910    0.3050   -0.4140 N   0  0  0  0  0  0  0  0  0  0  0  0
    2.9980   -0.8740   -0.5770 C   0  0  0  0  0  0  0  0  0  0  0  0
    3.4540   -1.8640   -1.2550 O   0  0  0  0  0  0  0  0  0  0  0  0
  1  2  1  0
  2  3  1  0
  3  4  1  0
  4  5  1  0
  4  6  2  3
  6  7  1  0
  7  8  2  3
  8  9  1  0
  8 13  1  0
  9 10  1  0
 10 11  1  0
 10 12  2  0
 12 13  1  0
 13 14  2  0
M  END
