
     RDKit          3D

 25 28  0  0  0  0  0  0  0  0999 V2000
   -5.3230    2.7650   -0.9260 C   0  0  0  0  0  0  0  0  0  0  0  0
   -4.8910    1.5930   -0.4360 C   0  0  0  0  0  0  0  0  0  0  0  0
   -3.9140    0.8170   -1.1570 C   0  0  0  0  0  0  0  0  0  0  0  0
   -3.4380   -0.3160   -0.7950 C   0  0  0  0  0  0  0  0  0  0  0  0
   -2.3920   -1.0860   -1.6050 C   0  0  0  0  0  0  0  0  0  0  0  0
   -1.6020   -1.5630   -0.4660 N   0  0  0  0  0  0  0  0  0  0  0  0
   -0.1850   -1.6480   -0.3810 C   0  0  0  0  0  0  0  0  0  0  0  0
    0.4850   -0.2880   -0.3450 C   0  0  0  0  0  0  0  0  0  0  0  0
    1.9420   -0.4390   -0.2620 N   0  0  0  0  0  0  0  0  0  0  0  0
    2.7490    0.6980   -0.1820 C   0  0  0  0  0  0  0  0  0  0  0  0
    2.1640    1.9480   -0.1610 C   0  0  0  0  0  0  0  0  0  0  0  0
    2.9380    3.1080   -0.0770 C   0  0  0  0  0  0  0  0  0  0  0  0
    4.3010    2.9790   -0.0140 C   0  0  0  0  0  0  0  0  0  0  0  0
    4.9000    1.7580   -0.0330 C   0  0  0  0  0  0  0  0  0  0  0  0
    6.2770    1.6410    0.0300 C   0  0  0  0  0  0  0  0  0  0  0  0
    6.9420    0.4370    0.0140 C   0  0  0  0  0  0  0  0  0  0  0  0
    6.1560   -0.6870   -0.0700 C   0  0  0  0  0  0  0  0  0  0  0  0
    4.7560   -0.5970   -0.1350 C   0  0  0  0  0  0  0  0  0  0  0  0
    4.1150    0.6220   -0.1170 C   0  0  0  0  0  0  0  0  0  0  0  0
   -2.5620   -1.9260    0.5340 C   0  0  0  0  0  0  0  0  0  0  0  0
   -2.5720   -2.8290    1.5680 C   0  0  0  0  0  0  0  0  0  0  0  0
   -3.6470   -3.0220    2.4180 C   0  0  0  0  0  0  0  0  0  0  0  0
   -4.7720   -2.2550    2.2030 C   0  0  0  0  0  0  0  0  0  0  0  0
   -4.7980   -1.3310    1.1670 C   0  0  0  0  0  0  0  0  0  0  0  0
   -3.7120   -1.1620    0.3420 C   0  0  0  0  0  0  0  0  0  0  0  0
  1  2  2  0
  2  3  1  0
  3  4  2  3
  4  5  1  0
  4 25  1  0
  5  6  1  0
  6  7  1  0
  6 20  1  0
  7  8  1  0
  8  9  1  0
  9 10  1  0
 10 11  2  0
 10 19  1  0
 11 12  1  0
 12 13  2  0
 13 14  1  0
 14 15  2  0
 14 19  1  0
 15 16  1  0
 16 17  2  0
 17 18  1  0
 18 19  2  0
 20 21  2  0
 20 25  1  0
 21 22  1  0
 22 23  2  0
 23 24  1  0
 24 25  2  0
M  END
