
     RDKit          3D

 25 28  0  0  0  0  0  0  0  0999 V2000
   -5.6670   -0.5110    1.8240 C   0  0  0  0  0  0  0  0  0  0  0  0
   -5.1460    0.0410    0.5220 C   0  0  1  0  0  0  0  0  0  0  0  0
   -3.6890   -0.0800    0.4660 C   0  0  0  0  0  0  0  0  0  0  0  0
   -3.0180    1.0510    0.4000 C   0  0  0  0  0  0  0  0  0  0  0  0
   -1.5840    1.2950    0.3310 C   0  0  0  0  0  0  0  0  0  0  0  0
   -0.5700    0.4290    0.2130 C   0  0  0  0  0  0  0  0  0  0  0  0
   -0.6260   -1.0160    0.1230 C   0  0  0  0  0  0  0  0  0  0  0  0
    0.4280   -1.7030   -0.1670 C   0  0  0  0  0  0  0  0  0  0  0  0
    1.7490   -1.1680   -0.4260 C   0  0  0  0  0  0  0  0  0  0  0  0
    2.4990   -0.3070    0.3420 C   0  0  0  0  0  0  0  0  0  0  0  0
    3.6980   -0.0290   -0.2990 C   0  0  0  0  0  0  0  0  0  0  0  0
    4.7810    0.8740    0.2300 C   0  0  0  0  0  0  0  0  0  0  0  0
    5.7590    0.1580    1.0080 N   0  0  0  0  0  0  0  0  0  0  0  0
    6.7260    1.1210    1.4860 C   0  0  0  0  0  0  0  0  0  0  0  0
    7.8940    1.1260    0.5530 C   0  0  0  0  0  0  0  0  0  0  0  0
    7.4300    0.2130   -0.5890 C   0  0  0  0  0  0  0  0  0  0  0  0
    6.5340   -0.7380    0.1770 C   0  0  0  0  0  0  0  0  0  0  0  0
    3.6670   -0.7380   -1.4750 C   0  0  0  0  0  0  0  0  0  0  0  0
    2.5110   -1.4080   -1.5420 N   0  0  0  0  0  0  0  0  0  0  0  0
   -1.8530   -1.8100    0.3590 C   0  0  0  0  0  0  0  0  0  0  0  0
   -3.0990   -1.4180    0.4970 C   0  0  0  0  0  0  0  0  0  0  0  0
   -5.8200   -0.7670   -0.5820 C   0  0  0  0  0  0  0  0  0  0  0  0
   -7.2260   -0.2080   -0.5500 C   0  0  0  0  0  0  0  0  0  0  0  0
   -7.1040    1.2070   -0.0540 C   0  0  0  0  0  0  0  0  0  0  0  0
   -5.6100    1.4210    0.2130 C   0  0  0  0  0  0  0  0  0  0  0  0
  2  1  1  1
  2  3  1  0
  2 22  1  0
  2 25  1  0
  3  4  2  0
  3 21  1  0
  4  5  1  0
  5  6  2  0
  6  7  1  0
  7  8  2  3
  7 20  1  0
  8  9  1  0
  9 10  2  0
  9 19  1  0
 10 11  1  0
 11 12  1  0
 11 18  2  0
 12 13  1  0
 13 14  1  0
 13 17  1  0
 14 15  1  0
 15 16  1  0
 16 17  1  0
 18 19  1  0
 20 21  2  0
 22 23  1  0
 23 24  1  0
 24 25  1  0
M  END
