
     RDKit          3D

 25 28  0  0  0  0  0  0  0  0999 V2000
    8.0080   -1.0070   -1.3290 C   0  0  0  0  0  0  0  0  0  0  0  0
    6.9330   -0.7860   -0.2980 C   0  0  0  0  0  0  0  0  0  0  0  0
    6.6350   -1.8060    0.5770 C   0  0  0  0  0  0  0  0  0  0  0  0
    5.6490   -1.6000    1.5230 C   0  0  0  0  0  0  0  0  0  0  0  0
    4.9510   -0.4280    1.6330 C   0  0  0  0  0  0  0  0  0  0  0  0
    5.2550    0.6580    0.7170 C   0  0  0  0  0  0  0  0  0  0  0  0
    6.2500    0.4030   -0.2120 C   0  0  0  0  0  0  0  0  0  0  0  0
    4.1950    0.8590    1.7440 C   0  0  1  0  0  0  0  0  0  0  0  0
    2.8280    0.7560    1.1830 C   0  0  0  0  0  0  0  0  0  0  0  0
    2.1270   -0.4070    1.4120 C   0  0  0  0  0  0  0  0  0  0  0  0
    0.8590   -0.6140    0.9280 C   0  0  0  0  0  0  0  0  0  0  0  0
    0.2600    0.4050    0.1680 C   0  0  0  0  0  0  0  0  0  0  0  0
   -1.1110    0.2230   -0.3760 C   0  0  0  0  0  0  0  0  0  0  0  0
   -2.1150    0.9940    0.4340 C   0  0  0  0  0  0  0  0  0  0  0  0
   -3.4590    0.9140    0.0160 N   0  0  0  0  0  0  0  0  0  0  0  0
   -3.7080    1.5250   -1.2220 C   0  0  0  0  0  0  0  0  0  0  0  0
   -4.2830   -0.1390    0.4670 C   0  0  2  0  0  0  0  0  0  0  0  0
   -3.8770   -1.5160    0.0460 C   0  0  0  0  0  0  0  0  0  0  0  0
   -5.1030   -2.4350   -0.0100 C   0  0  0  0  0  0  0  0  0  0  0  0
   -5.9300   -1.8890   -1.0700 N   0  0  0  0  0  0  0  0  0  0  0  0
   -6.4660   -0.6020   -0.7380 C   0  0  0  0  0  0  0  0  0  0  0  0
   -5.7560    0.1540    0.3210 C   0  0  0  0  0  0  0  0  0  0  0  0
    0.9330    1.5780   -0.0780 C   0  0  0  0  0  0  0  0  0  0  0  0
    0.3450    2.6700   -0.8690 C   0  0  0  0  0  0  0  0  0  0  0  0
    2.2230    1.7220    0.4470 C   0  0  0  0  0  0  0  0  0  0  0  0
  1  2  1  0
  2  3  2  0
  2  7  1  0
  3  4  1  0
  4  5  2  0
  5  6  1  0
  5  8  1  0
  6  7  2  0
  6  8  1  0
  8  9  1  6
  9 10  2  0
  9 25  1  0
 10 11  1  0
 11 12  2  0
 12 13  1  0
 12 23  1  0
 13 14  1  0
 14 15  1  0
 15 16  1  0
 17 15  1  6
 17 18  1  0
 17 22  1  0
 18 19  1  0
 19 20  1  0
 20 21  1  0
 21 22  1  0
 23 24  1  0
 23 25  2  0
M  END
