
     RDKit          3D

 25 28  0  0  0  0  0  0  0  0999 V2000
    7.4780    2.3300   -0.5850 C   0  0  0  0  0  0  0  0  0  0  0  0
    6.4790    1.4140    0.0050 C   0  0  0  0  0  0  0  0  0  0  0  0
    5.3150    1.0620   -0.6170 C   0  0  0  0  0  0  0  0  0  0  0  0
    4.4150    0.1790    0.0210 C   0  0  0  0  0  0  0  0  0  0  0  0
    4.6260   -0.3620    1.2410 C   0  0  0  0  0  0  0  0  0  0  0  0
    3.7120   -1.2350    1.9230 C   0  0  0  0  0  0  0  0  0  0  0  0
    2.5660   -1.7220    1.8340 C   0  0  0  0  0  0  0  0  0  0  0  0
    1.3790   -1.7880    1.0650 C   0  0  0  0  0  0  0  0  0  0  0  0
    1.1430   -1.0270   -0.1770 C   0  0  0  0  0  0  0  0  0  0  0  0
   -0.2600   -1.3200   -0.7450 C   0  0  0  0  0  0  0  0  0  0  0  0
   -1.3000   -0.9820    0.1690 N   0  0  0  0  0  0  0  0  0  0  0  0
   -1.3910    0.4400    0.3420 C   0  0  0  0  0  0  0  0  0  0  0  0
   -2.3230    0.9000   -0.7580 C   0  0  0  0  0  0  0  0  0  0  0  0
   -3.3170   -0.2290   -0.8270 C   0  0  2  0  0  0  0  0  0  0  0  0
   -3.8110   -0.4740   -2.2270 C   0  0  0  0  0  0  0  0  0  0  0  0
   -4.9020    0.4760   -2.3020 N   0  0  0  0  0  0  0  0  0  0  0  0
   -5.4630    0.5670   -0.9960 C   0  0  0  0  0  0  0  0  0  0  0  0
   -6.7370    0.9990   -0.6350 C   0  0  0  0  0  0  0  0  0  0  0  0
   -7.0740    0.9980    0.6900 C   0  0  0  0  0  0  0  0  0  0  0  0
   -6.1490    0.5740    1.6200 C   0  0  0  0  0  0  0  0  0  0  0  0
   -4.8960    0.1500    1.2570 C   0  0  0  0  0  0  0  0  0  0  0  0
   -4.5230    0.1390   -0.0810 C   0  0  0  0  0  0  0  0  0  0  0  0
   -2.6050   -1.4230   -0.2490 C   0  0  0  0  0  0  0  0  0  0  0  0
    5.8410    0.0180    1.8640 C   0  0  0  0  0  0  0  0  0  0  0  0
    6.7160    0.8760    1.2430 C   0  0  0  0  0  0  0  0  0  0  0  0
  1  2  1  0
  2  3  2  0
  2 25  1  0
  3  4  1  0
  4  5  2  0
  5  6  1  0
  5 24  1  0
  6  7  2  3
  7  8  1  0
  8  9  1  0
  9 10  1  0
 10 11  1  0
 11 12  1  0
 11 23  1  0
 12 13  1  0
 14 13  1  6
 14 15  1  0
 14 22  1  0
 14 23  1  0
 15 16  1  0
 16 17  1  0
 17 18  2  0
 17 22  1  0
 18 19  1  0
 19 20  2  0
 20 21  1  0
 21 22  2  0
 24 25  2  0
M  END
