
     RDKit          3D

 25 28  0  0  0  0  0  0  0  0999 V2000
    7.8350    0.0320    0.6910 C   0  0  0  0  0  0  0  0  0  0  0  0
    6.5650    0.1390   -0.0660 C   0  0  0  0  0  0  0  0  0  0  0  0
    6.5310    0.5160   -1.3910 C   0  0  0  0  0  0  0  0  0  0  0  0
    5.3530    0.6170   -2.1000 C   0  0  0  0  0  0  0  0  0  0  0  0
    4.1470    0.3310   -1.4690 C   0  0  0  0  0  0  0  0  0  0  0  0
    4.1540   -0.0530   -0.1280 C   0  0  0  0  0  0  0  0  0  0  0  0
    2.9450   -0.3440    0.5240 C   0  0  0  0  0  0  0  0  0  0  0  0
    1.7310   -0.2240   -0.2740 C   0  0  0  0  0  0  0  0  0  0  0  0
    0.4900   -0.5150    0.3770 N   0  0  0  0  0  0  0  0  0  0  0  0
   -0.6980   -0.3980   -0.3920 C   0  0  0  0  0  0  0  0  0  0  0  0
   -0.6740   -0.0170   -1.7150 C   0  0  0  0  0  0  0  0  0  0  0  0
   -1.8190    0.1010   -2.4760 C   0  0  0  0  0  0  0  0  0  0  0  0
   -3.0330   -0.1720   -1.8920 C   0  0  0  0  0  0  0  0  0  0  0  0
   -3.0790   -0.5540   -0.5690 C   0  0  0  0  0  0  0  0  0  0  0  0
   -4.3520   -0.8580    0.1070 C   0  0  0  0  0  0  0  0  0  0  0  0
   -4.9390    0.2550    0.7960 N   0  0  0  0  0  0  0  0  0  0  0  0
   -5.2470    1.3770   -0.0330 C   0  0  0  0  0  0  0  0  0  0  0  0
   -6.6320    1.0210   -0.5760 C   0  0  0  0  0  0  0  0  0  0  0  0
   -7.3030    0.5040    0.6790 C   0  0  0  0  0  0  0  0  0  0  0  0
   -6.1820   -0.2010    1.3850 C   0  0  0  0  0  0  0  0  0  0  0  0
   -1.9200   -0.6720    0.1950 C   0  0  0  0  0  0  0  0  0  0  0  0
    2.9260   -0.7230    1.8390 C   0  0  0  0  0  0  0  0  0  0  0  0
    4.1530   -0.8050    2.4970 C   0  0  0  0  0  0  0  0  0  0  0  0
    5.3220   -0.5190    1.8520 C   0  0  0  0  0  0  0  0  0  0  0  0
    5.3380   -0.1400    0.5340 C   0  0  0  0  0  0  0  0  0  0  0  0
  1  2  1  0
  2  3  2  0
  2 25  1  0
  3  4  1  0
  4  5  2  0
  5  6  1  0
  6  7  2  0
  6 25  1  0
  7  8  1  0
  7 22  1  0
  8  9  1  0
  9 10  1  0
 10 11  2  0
 10 21  1  0
 11 12  1  0
 12 13  2  0
 13 14  1  0
 14 15  1  0
 14 21  2  0
 15 16  1  0
 16 17  1  0
 16 20  1  0
 17 18  1  0
 18 19  1  0
 19 20  1  0
 22 23  2  0
 23 24  1  0
 24 25  2  0
M  END
