
     RDKit          3D

 25 28  0  0  0  0  0  0  0  0999 V2000
    4.1570    3.3310    0.2770 C   0  0  0  0  0  0  0  0  0  0  0  0
    4.6550    1.9480    0.1170 C   0  0  0  0  0  0  0  0  0  0  0  0
    3.9170    0.8760    0.2960 C   0  0  0  0  0  0  0  0  0  0  0  0
    4.3910   -0.4830    0.1430 C   0  0  0  0  0  0  0  0  0  0  0  0
    5.6980   -0.7580   -0.1630 C   0  0  0  0  0  0  0  0  0  0  0  0
    6.1410   -2.0710   -0.3090 C   0  0  0  0  0  0  0  0  0  0  0  0
    5.2790   -3.1410   -0.1500 C   0  0  0  0  0  0  0  0  0  0  0  0
    3.9720   -2.8360    0.1570 C   0  0  0  0  0  0  0  0  0  0  0  0
    3.5080   -1.5270    0.3070 C   0  0  0  0  0  0  0  0  0  0  0  0
    2.0840   -1.2850    0.6170 C   0  0  0  0  0  0  0  0  0  0  0  0
    1.3090   -0.8470   -0.6180 C   0  0  0  0  0  0  0  0  0  0  0  0
   -0.0670   -0.6240   -0.4190 N   0  0  0  0  0  0  0  0  0  0  0  0
   -0.8830   -1.7690   -0.1570 C   0  0  0  0  0  0  0  0  0  0  0  0
   -2.0940   -1.7640   -1.1110 C   0  0  0  0  0  0  0  0  0  0  0  0
   -3.0800   -0.7400   -0.6120 C   0  0  0  0  0  0  0  0  0  0  0  0
   -2.9310    0.2520    0.2450 C   0  0  0  0  0  0  0  0  0  0  0  0
   -1.7010    0.6280    0.9630 C   0  0  0  0  0  0  0  0  0  0  0  0
   -0.5440    0.6200   -0.0070 C   0  0  0  0  0  0  0  0  0  0  0  0
   -4.0510    1.1380    0.6230 C   0  0  0  0  0  0  0  0  0  0  0  0
   -4.1700    2.1730    1.4340 C   0  0  0  0  0  0  0  0  0  0  0  0
   -5.5630    2.6400    1.3860 C   0  0  0  0  0  0  0  0  0  0  0  0
   -6.2290    1.7310    0.4390 C   0  0  0  0  0  0  0  0  0  0  0  0
   -5.3290    0.8470   -0.0080 C   0  0  0  0  0  0  0  0  0  0  0  0
   -5.5230   -0.2630   -0.9700 C   0  0  0  0  0  0  0  0  0  0  0  0
   -4.3240   -0.9850   -1.2410 N   0  0  0  0  0  0  0  0  0  0  0  0
  1  2  1  0
  2  3  2  3
  3  4  1  0
  4  5  2  0
  4  9  1  0
  5  6  1  0
  6  7  2  0
  7  8  1  0
  8  9  2  0
  9 10  1  0
 10 11  1  0
 11 12  1  0
 12 13  1  0
 12 18  1  0
 13 14  1  0
 14 15  1  0
 15 16  2  0
 15 25  1  0
 16 17  1  0
 16 19  1  0
 17 18  1  0
 19 20  2  0
 19 23  1  0
 20 21  1  0
 21 22  1  0
 22 23  2  0
 23 24  1  0
 24 25  1  0
M  END
