
     RDKit          3D

 31 34  0  0  0  0  0  0  0  0999 V2000
   -3.2460   -2.0890   -1.3360 C   0  0  0  0  0  0  0  0  0  0  0  0
   -4.3430   -1.2290   -0.8890 C   0  0  0  0  0  0  0  0  0  0  0  0
   -4.2480   -0.4420    0.1660 C   0  0  0  0  0  0  0  0  0  0  0  0
   -3.1460   -0.2920    1.0060 N   0  0  0  0  0  0  0  0  0  0  0  0
   -1.7960   -0.0510    0.6760 C   0  0  0  0  0  0  0  0  0  0  0  0
   -1.3910    1.2130    0.2960 C   0  0  0  0  0  0  0  0  0  0  0  0
   -2.3610    2.3070    0.1790 C   0  0  0  0  0  0  0  0  0  0  0  0
   -0.0520    1.5010    0.0050 C   0  0  0  0  0  0  0  0  0  0  0  0
    0.8980    0.5290    0.0890 C   0  0  0  0  0  0  0  0  0  0  0  0
    2.2280    0.7440   -0.1830 C   0  0  0  0  0  0  0  0  0  0  0  0
    2.6370    1.9740   -0.5550 F   0  0  0  0  0  0  0  0  0  0  0  0
    3.1380   -0.2970   -0.0750 C   0  0  0  0  0  0  0  0  0  0  0  0
    2.7460   -1.5640    0.3040 C   0  0  0  0  0  0  0  0  0  0  0  0
    1.4290   -1.7420    0.5650 N   0  0  0  0  0  0  0  0  0  0  0  0
    0.5320   -0.7440    0.4650 C   0  0  0  0  0  0  0  0  0  0  0  0
   -0.7930   -1.0240    0.7530 C   0  0  0  0  0  0  0  0  0  0  0  0
   -1.1560   -2.2650    1.1410 F   0  0  0  0  0  0  0  0  0  0  0  0
    3.8890   -2.4250    0.3290 N   0  0  0  0  0  0  0  0  0  0  0  0
    4.9530   -1.7850   -0.0050 C   0  0  0  0  0  0  0  0  0  0  0  0
    6.3640   -2.1210   -0.1540 C   0  0  0  0  0  0  0  0  0  0  0  0
    6.7360   -3.3030    0.0770 O   0  0  0  0  0  0  0  0  0  0  0  0
    7.2780   -1.1040   -0.5570 N   0  0  0  0  0  0  0  0  0  0  0  0
    6.9080    0.0990   -0.7940 C   0  0  0  0  0  0  0  0  0  0  0  0
    7.9010    1.1380   -1.2150 C   0  0  0  0  0  0  0  0  0  0  0  0
    5.4990    0.4670   -0.6530 C   0  0  0  0  0  0  0  0  0  0  0  0
    4.5820   -0.3950   -0.2890 C   0  0  0  0  0  0  0  0  0  0  0  0
   -5.4520    0.3420    0.4620 C   0  0  0  0  0  0  0  0  0  0  0  0
   -6.6790    0.2060   -0.4130 C   0  0  0  0  0  0  0  0  0  0  0  0
   -5.5500    1.1730    1.4530 C   0  0  0  0  0  0  0  0  0  0  0  0
   -4.5230    1.3780    2.3000 F   0  0  0  0  0  0  0  0  0  0  0  0
   -6.6940    1.8910    1.7010 F   0  0  0  0  0  0  0  0  0  0  0  0
  1  2  1  0
  2  3  2  3
  3  4  1  0
  3 27  1  0
  4  5  1  0
  5  6  2  0
  5 16  1  0
  6  7  1  0
  6  8  1  0
  8  9  2  0
  9 10  1  0
  9 15  1  0
 10 11  1  0
 10 12  2  0
 12 13  1  0
 12 26  1  0
 13 14  2  0
 13 18  1  0
 14 15  1  0
 15 16  2  0
 16 17  1  0
 18 19  2  0
 19 20  1  0
 19 26  1  0
 20 21  2  0
 20 22  1  0
 22 23  2  0
 23 24  1  0
 23 25  1  0
 25 26  2  0
 27 28  1  0
 27 29  2  3
 29 30  1  0
 29 31  1  0
M  END
