
     RDKit          3D

 31 35  0  0  0  0  0  0  0  0999 V2000
    1.1520   -0.4700    0.6010 O   0  0  0  0  0  0  0  0  0  0  0  0
    0.4420   -0.3940   -0.4340 C   0  0  0  0  0  0  0  0  0  0  0  0
    1.1020   -0.3420   -1.6790 N   0  0  0  0  0  0  0  0  0  0  0  0
    2.5110   -0.3440   -1.9210 C   0  0  0  0  0  0  0  0  0  0  0  0
    3.3130    0.8050   -1.4680 C   0  0  2  0  0  0  0  0  0  0  0  0
    4.7890    0.6620   -1.7630 C   0  0  0  0  0  0  0  0  0  0  0  0
    5.5280   -0.3750   -1.0620 C   0  0  0  0  0  0  0  0  0  0  0  0
    5.1730   -0.7840    0.3030 C   0  0  0  0  0  0  0  0  0  0  0  0
    4.8520    0.2620    1.2960 C   0  0  0  0  0  0  0  0  0  0  0  0
    3.7660    1.1400    0.9950 N   0  0  0  0  0  0  0  0  0  0  0  0
    3.2600    1.9150    1.9720 C   0  0  0  0  0  0  0  0  0  0  0  0
    2.2820    2.6420    1.4540 N   0  0  0  0  0  0  0  0  0  0  0  0
    2.1760    2.3320    0.1850 N   0  0  0  0  0  0  0  0  0  0  0  0
    3.1000    1.3810   -0.1480 C   0  0  0  0  0  0  0  0  0  0  0  0
   -1.0330   -0.3640   -0.2890 C   0  0  0  0  0  0  0  0  0  0  0  0
   -1.8860   -0.2590   -1.3410 C   0  0  0  0  0  0  0  0  0  0  0  0
   -3.2630   -0.2360   -1.1500 C   0  0  0  0  0  0  0  0  0  0  0  0
   -3.7450   -0.3210    0.1180 C   0  0  0  0  0  0  0  0  0  0  0  0
   -2.8940   -0.4300    1.2240 C   0  0  0  0  0  0  0  0  0  0  0  0
   -1.5360   -0.4500    0.9910 C   0  0  0  0  0  0  0  0  0  0  0  0
   -3.3860   -0.5110    2.4360 C   0  0  0  0  0  0  0  0  0  0  0  0
   -4.8200   -0.4880    2.6490 C   0  0  0  0  0  0  0  0  0  0  0  0
   -5.3190   -0.5720    3.8980 C   0  0  0  0  0  0  0  0  0  0  0  0
   -6.6410   -0.5480    4.0600 F   0  0  0  0  0  0  0  0  0  0  0  0
   -4.4870   -0.6750    4.9340 F   0  0  0  0  0  0  0  0  0  0  0  0
   -5.7300   -0.3730    1.4940 C   0  0  1  0  0  0  0  0  0  0  0  0
   -6.4480   -1.5860    1.4690 F   0  0  0  0  0  0  0  0  0  0  0  0
   -6.6460    0.6570    1.6690 F   0  0  0  0  0  0  0  0  0  0  0  0
   -5.0360   -0.2930    0.2160 C   0  0  0  0  0  0  0  0  0  0  0  0
   -5.5830   -0.1690   -1.1900 C   0  0  0  0  0  0  0  0  0  0  0  0
   -4.4020   -0.1310   -2.0910 C   0  0  0  0  0  0  0  0  0  0  0  0
  1  2  2  0
  2  3  1  0
  2 15  1  0
  3  4  1  0
  5  4  1  1
  5  6  1  0
  5 14  1  0
  6  7  1  0
  7  8  1  0
  8  9  1  0
  9 10  1  0
 10 11  1  0
 10 14  1  0
 11 12  2  0
 12 13  1  0
 13 14  2  0
 15 16  1  0
 15 20  2  0
 16 17  2  0
 17 18  1  0
 17 31  1  0
 18 19  1  0
 18 29  2  0
 19 20  1  0
 19 21  2  0
 21 22  1  0
 22 23  2  3
 22 26  1  0
 23 24  1  0
 23 25  1  0
 26 27  1  6
 26 28  1  0
 26 29  1  0
 29 30  1  0
 30 31  1  0
M  END
