
     RDKit          3D

 31 35  0  0  0  0  0  0  0  0999 V2000
   -2.1700    1.0660   -1.5660 C   0  0  0  0  0  0  0  0  0  0  0  0
   -3.0200    0.5130   -0.5640 N   0  0  0  0  0  0  0  0  0  0  0  0
   -4.4010    0.8710   -0.7030 C   0  0  0  0  0  0  0  0  0  0  0  0
   -4.5280    2.2330   -1.3190 C   0  0  2  0  0  0  0  0  0  0  0  0
   -3.8810    3.1830   -0.5760 F   0  0  0  0  0  0  0  0  0  0  0  0
   -5.8920    2.5520   -1.2170 F   0  0  0  0  0  0  0  0  0  0  0  0
   -5.5120    0.2530   -0.4090 C   0  0  0  0  0  0  0  0  0  0  0  0
   -6.5800    1.0480   -0.7480 F   0  0  0  0  0  0  0  0  0  0  0  0
   -5.9630   -1.0160    0.1540 C   0  0  0  0  0  0  0  0  0  0  0  0
   -5.2940   -1.4480    1.3940 C   0  0  0  0  0  0  0  0  0  0  0  0
   -4.0700   -1.4940    1.8740 C   0  0  0  0  0  0  0  0  0  0  0  0
   -2.7320   -1.1260    1.3950 C   0  0  0  0  0  0  0  0  0  0  0  0
   -2.2920   -0.2900    0.3800 C   0  0  0  0  0  0  0  0  0  0  0  0
   -0.9970   -0.1150    0.1390 N   0  0  0  0  0  0  0  0  0  0  0  0
   -0.0380   -0.7510    0.8820 C   0  0  0  0  0  0  0  0  0  0  0  0
    1.3660   -0.5170    0.5630 C   0  0  0  0  0  0  0  0  0  0  0  0
    1.6810    0.3720   -0.4770 C   0  0  0  0  0  0  0  0  0  0  0  0
    2.9870    0.6280   -0.8240 C   0  0  0  0  0  0  0  0  0  0  0  0
    4.0490    0.0340   -0.1810 C   0  0  0  0  0  0  0  0  0  0  0  0
    5.4150    0.3430   -0.5970 C   0  0  0  0  0  0  0  0  0  0  0  0
    5.7520    1.5690   -1.0920 C   0  0  0  0  0  0  0  0  0  0  0  0
    7.0730    1.7860   -1.4660 C   0  0  0  0  0  0  0  0  0  0  0  0
    8.0140    0.8310   -1.3530 N   0  0  0  0  0  0  0  0  0  0  0  0
    7.6680   -0.3780   -0.8620 C   0  0  0  0  0  0  0  0  0  0  0  0
    6.3740   -0.6550   -0.4740 C   0  0  0  0  0  0  0  0  0  0  0  0
    3.7640   -0.8400    0.8400 C   0  0  0  0  0  0  0  0  0  0  0  0
    2.4320   -1.0900    1.1810 C   0  0  0  0  0  0  0  0  0  0  0  0
    2.2470   -1.9570    2.1860 F   0  0  0  0  0  0  0  0  0  0  0  0
   -0.4860   -1.5480    1.8510 N   0  0  0  0  0  0  0  0  0  0  0  0
   -1.7970   -1.7580    2.1340 C   0  0  0  0  0  0  0  0  0  0  0  0
   -2.1830   -2.5180    3.0570 O   0  0  0  0  0  0  0  0  0  0  0  0
  1  2  1  0
  2  3  1  0
  2 13  1  0
  3  4  1  0
  3  7  2  0
  4  5  1  1
  4  6  1  0
  7  8  1  0
  7  9  1  0
  9 10  1  0
 10 11  2  0
 11 12  1  0
 12 13  2  0
 12 30  1  0
 13 14  1  0
 14 15  2  0
 15 16  1  0
 15 29  1  0
 16 17  2  0
 16 27  1  0
 17 18  1  0
 18 19  2  0
 19 20  1  0
 19 26  1  0
 20 21  2  0
 20 25  1  0
 21 22  1  0
 22 23  2  0
 23 24  1  0
 24 25  2  0
 26 27  2  0
 27 28  1  0
 29 30  1  0
 30 31  2  0
  8  6  1  0
M  END
