
     RDKit          3D

 31 35  0  0  0  0  0  0  0  0999 V2000
    5.3640   -2.4090   -0.5950 O   0  0  0  0  0  0  0  0  0  0  0  0
    4.7280   -1.3560   -0.3850 C   0  0  0  0  0  0  0  0  0  0  0  0
    3.3200   -1.3570   -0.1880 N   0  0  0  0  0  0  0  0  0  0  0  0
    2.7760   -0.2510    0.6010 C   0  0  2  0  0  0  0  0  0  0  0  0
    1.3170   -0.3590    0.5110 C   0  0  0  0  0  0  0  0  0  0  0  0
    0.7160   -1.5830    0.6860 C   0  0  0  0  0  0  0  0  0  0  0  0
   -0.6410   -1.6800    0.5990 N   0  0  0  0  0  0  0  0  0  0  0  0
   -1.3840   -0.5950    0.3470 C   0  0  0  0  0  0  0  0  0  0  0  0
   -2.8210   -0.7420    0.2640 C   0  0  0  0  0  0  0  0  0  0  0  0
   -3.4600   -1.9570    0.4340 C   0  0  0  0  0  0  0  0  0  0  0  0
   -4.8350   -1.9850    0.3340 C   0  0  0  0  0  0  0  0  0  0  0  0
   -5.5150   -3.1420    0.4900 F   0  0  0  0  0  0  0  0  0  0  0  0
   -5.5730   -0.8470    0.0730 C   0  0  0  0  0  0  0  0  0  0  0  0
   -6.9430   -0.8550   -0.0300 C   0  0  0  0  0  0  0  0  0  0  0  0
   -7.5660   -2.0560    0.1380 F   0  0  0  0  0  0  0  0  0  0  0  0
   -7.6300    0.3070   -0.2920 C   0  0  0  0  0  0  0  0  0  0  0  0
   -6.9790    1.5130   -0.4590 C   0  0  0  0  0  0  0  0  0  0  0  0
   -7.6990    2.6560   -0.7190 F   0  0  0  0  0  0  0  0  0  0  0  0
   -5.6170    1.5310   -0.3580 C   0  0  0  0  0  0  0  0  0  0  0  0
   -4.9280    0.3740   -0.0970 C   0  0  0  0  0  0  0  0  0  0  0  0
   -3.5740    0.3900    0.0030 C   0  0  0  0  0  0  0  0  0  0  0  0
   -0.8110    0.6010    0.1760 N   0  0  0  0  0  0  0  0  0  0  0  0
    0.5500    0.7460    0.2540 C   0  0  0  0  0  0  0  0  0  0  0  0
    3.2870    1.0630    0.0820 C   0  0  0  0  0  0  0  0  0  0  0  0
    4.7390    1.0840   -0.1050 C   0  0  0  0  0  0  0  0  0  0  0  0
    5.3690    2.2900   -0.0480 N   0  0  0  0  0  0  0  0  0  0  0  0
    6.6940    2.3540   -0.2200 C   0  0  0  0  0  0  0  0  0  0  0  0
    7.2840    3.5750   -0.1560 F   0  0  0  0  0  0  0  0  0  0  0  0
    7.4750    1.2300   -0.4580 C   0  0  0  0  0  0  0  0  0  0  0  0
    6.7970    0.0240   -0.5080 C   0  0  0  0  0  0  0  0  0  0  0  0
    5.4310   -0.0760   -0.3350 C   0  0  0  0  0  0  0  0  0  0  0  0
  1  2  2  0
  2  3  1  0
  2 31  1  0
  3  4  1  0
  4  5  1  6
  4 24  1  0
  5  6  2  0
  5 23  1  0
  6  7  1  0
  7  8  2  0
  8  9  1  0
  8 22  1  0
  9 10  2  0
  9 21  1  0
 10 11  1  0
 11 12  1  0
 11 13  2  0
 13 14  1  0
 13 20  1  0
 14 15  1  0
 14 16  2  0
 16 17  1  0
 17 18  1  0
 17 19  2  0
 19 20  1  0
 20 21  2  0
 22 23  2  0
 24 25  1  0
 25 26  2  0
 25 31  1  0
 26 27  1  0
 27 28  1  0
 27 29  2  0
 29 30  1  0
 30 31  2  0
M  END
