
     RDKit          3D

 30 33  0  0  0  0  0  0  0  0999 V2000
    4.8190    0.6460    2.6450 C   0  0  0  0  0  0  0  0  0  0  0  0
    4.0280   -0.0590    1.7370 O   0  0  0  0  0  0  0  0  0  0  0  0
    3.3150    0.5130    0.6980 C   0  0  0  0  0  0  0  0  0  0  0  0
    3.3610    1.7450    0.5380 O   0  0  0  0  0  0  0  0  0  0  0  0
    2.5240   -0.4110   -0.1700 C   0  0  2  0  0  0  0  0  0  0  0  0
    3.5170   -1.3780   -0.7810 C   0  0  0  0  0  0  0  0  0  0  0  0
    1.8560    0.3150   -1.2900 C   0  0  2  0  0  0  0  0  0  0  0  0
    0.9230    1.3460   -0.8300 N   0  0  0  0  0  0  0  0  0  0  0  0
   -0.2940    1.2400   -0.3480 C   0  0  0  0  0  0  0  0  0  0  0  0
   -1.0330    2.4150    0.0370 C   0  0  0  0  0  0  0  0  0  0  0  0
   -0.2540    3.6010    0.0010 C   0  0  0  0  0  0  0  0  0  0  0  0
   -0.8380    4.8120    0.2330 C   0  0  0  0  0  0  0  0  0  0  0  0
   -2.1870    4.9170    0.5050 C   0  0  0  0  0  0  0  0  0  0  0  0
   -2.9140    6.4820    0.8010 Cl  0  0  0  0  0  0  0  0  0  0  0  0
   -2.9340    3.7430    0.5340 C   0  0  0  0  0  0  0  0  0  0  0  0
   -2.3620    2.5170    0.3020 C   0  0  0  0  0  0  0  0  0  0  0  0
   -0.8940   -0.0560   -0.0750 C   0  0  0  0  0  0  0  0  0  0  0  0
   -1.6400   -0.1000    1.0720 C   0  0  0  0  0  0  0  0  0  0  0  0
   -2.2420   -1.2870    1.4200 C   0  0  0  0  0  0  0  0  0  0  0  0
   -3.0030   -1.2870    2.6030 O   0  0  0  0  0  0  0  0  0  0  0  0
   -3.6190   -2.5070    2.9560 C   0  0  0  0  0  0  0  0  0  0  0  0
   -2.1070   -2.4350    0.6430 C   0  0  0  0  0  0  0  0  0  0  0  0
   -1.3490   -2.4120   -0.5220 C   0  0  0  0  0  0  0  0  0  0  0  0
   -0.7740   -1.2260   -0.8390 C   0  0  0  0  0  0  0  0  0  0  0  0
    0.0200   -1.3260   -2.0140 N   0  0  0  0  0  0  0  0  0  0  0  0
   -0.2810   -2.0840   -3.0420 C   0  0  0  0  0  0  0  0  0  0  0  0
   -1.4910   -2.8960   -3.2460 C   0  0  0  0  0  0  0  0  0  0  0  0
    0.7600   -1.8890   -3.9110 N   0  0  0  0  0  0  0  0  0  0  0  0
    1.6430   -1.0230   -3.3780 N   0  0  0  0  0  0  0  0  0  0  0  0
    1.2090   -0.6490   -2.1920 C   0  0  0  0  0  0  0  0  0  0  0  0
  1  2  1  0
  2  3  1  0
  3  4  2  0
  3  5  1  0
  5  6  1  6
  5  7  1  0
  7  8  1  1
  7 30  1  0
  8  9  2  0
  9 10  1  0
  9 17  1  0
 10 11  2  0
 10 16  1  0
 11 12  1  0
 12 13  2  0
 13 14  1  0
 13 15  1  0
 15 16  2  0
 17 18  2  0
 17 24  1  0
 18 19  1  0
 19 20  1  0
 19 22  2  0
 20 21  1  0
 22 23  1  0
 23 24  2  0
 24 25  1  0
 25 26  1  0
 25 30  1  0
 26 27  1  0
 26 28  2  0
 28 29  1  0
 29 30  2  0
M  END
