
     RDKit          3D

 31 34  0  0  0  0  0  0  0  0999 V2000
    4.2660    6.4410   -1.5140 F   0  0  0  0  0  0  0  0  0  0  0  0
    3.7600    5.1440   -1.3020 C   0  0  0  0  0  0  0  0  0  0  0  0
    4.5220    4.1430   -1.6330 C   0  0  0  0  0  0  0  0  0  0  0  0
    4.2890    2.7490   -1.5420 C   0  0  0  0  0  0  0  0  0  0  0  0
    5.2450    1.8880   -1.9180 C   0  0  0  0  0  0  0  0  0  0  0  0
    6.5390    2.3510   -2.4210 C   0  0  1  0  0  0  0  0  0  0  0  0
    6.3550    3.0480   -3.6010 F   0  0  0  0  0  0  0  0  0  0  0  0
    7.2120    3.1340   -1.5310 F   0  0  0  0  0  0  0  0  0  0  0  0
    7.3880    1.2520   -2.6530 F   0  0  0  0  0  0  0  0  0  0  0  0
    3.0410    2.1660   -1.0030 C   0  0  0  0  0  0  0  0  0  0  0  0
    2.9720    0.8160   -0.5710 C   0  0  0  0  0  0  0  0  0  0  0  0
    1.6840    0.5420   -0.2030 C   0  0  0  0  0  0  0  0  0  0  0  0
    1.0850   -0.6190    0.2900 C   0  0  0  0  0  0  0  0  0  0  0  0
   -0.2510   -0.6110    0.5840 C   0  0  0  0  0  0  0  0  0  0  0  0
   -0.8940   -1.7890    1.0970 N   0  0  0  0  0  0  0  0  0  0  0  0
   -0.0590   -2.9430    1.2600 C   0  0  0  0  0  0  0  0  0  0  0  0
   -0.6520   -4.1410    1.8860 C   0  0  0  0  0  0  0  0  0  0  0  0
   -1.8570   -3.8550    2.5910 O   0  0  0  0  0  0  0  0  0  0  0  0
   -2.7640   -2.9960    1.9910 C   0  0  0  0  0  0  0  0  0  0  0  0
   -4.0430   -3.3120    1.9540 N   0  0  0  0  0  0  0  0  0  0  0  0
   -4.9920   -2.4550    1.3490 C   0  0  0  0  0  0  0  0  0  0  0  0
   -5.3130   -2.5710    0.0150 C   0  0  0  0  0  0  0  0  0  0  0  0
   -6.2450   -1.7270   -0.5550 C   0  0  0  0  0  0  0  0  0  0  0  0
   -6.8650   -0.7700    0.1670 N   0  0  0  0  0  0  0  0  0  0  0  0
   -6.5780   -0.6270    1.4720 C   0  0  0  0  0  0  0  0  0  0  0  0
   -5.6540   -1.4550    2.0650 C   0  0  0  0  0  0  0  0  0  0  0  0
   -2.2840   -1.7410    1.4030 C   0  0  0  0  0  0  0  0  0  0  0  0
   -0.9560    0.5220    0.3880 C   0  0  0  0  0  0  0  0  0  0  0  0
   -0.3730    1.6970   -0.1060 C   0  0  0  0  0  0  0  0  0  0  0  0
    0.9770    1.6910   -0.4030 C   0  0  0  0  0  0  0  0  0  0  0  0
    1.8260    2.6520   -0.8870 N   0  0  0  0  0  0  0  0  0  0  0  0
  1  2  1  0
  2  3  2  3
  3  4  1  0
  4  5  2  3
  4 10  1  0
  5  6  1  0
  6  7  1  6
  6  8  1  0
  6  9  1  0
 10 11  2  0
 10 31  1  0
 11 12  1  0
 12 13  2  0
 12 30  1  0
 13 14  1  0
 14 15  1  0
 14 28  2  0
 15 16  1  0
 15 27  1  0
 16 17  1  0
 17 18  1  0
 18 19  1  0
 19 20  2  3
 19 27  1  0
 20 21  1  0
 21 22  2  0
 21 26  1  0
 22 23  1  0
 23 24  2  0
 24 25  1  0
 25 26  2  0
 28 29  1  0
 29 30  2  0
 30 31  1  0
M  END
