
     RDKit          3D

 30 33  0  0  0  0  0  0  0  0999 V2000
   -7.3210   -0.8850   -0.6980 C   0  0  0  0  0  0  0  0  0  0  0  0
   -6.3900   -0.9960    0.2720 C   0  0  0  0  0  0  0  0  0  0  0  0
   -5.0010   -1.0620   -0.1380 C   0  0  0  0  0  0  0  0  0  0  0  0
   -3.9990   -1.1610    0.7200 C   0  0  0  0  0  0  0  0  0  0  0  0
   -2.6720   -1.2200    0.2490 N   0  0  0  0  0  0  0  0  0  0  0  0
   -1.9030   -0.2280    0.0720 C   0  0  0  0  0  0  0  0  0  0  0  0
   -0.5330   -0.3530   -0.4210 C   0  0  0  0  0  0  0  0  0  0  0  0
    0.2540    0.6770   -0.6000 C   0  0  0  0  0  0  0  0  0  0  0  0
    1.6370    0.3810   -1.1130 C   0  0  0  0  0  0  0  0  0  0  0  0
    2.6910    0.8530   -0.1410 C   0  0  0  0  0  0  0  0  0  0  0  0
    4.0270    0.5740   -0.6220 N   0  0  0  0  0  0  0  0  0  0  0  0
    4.7050    1.4800   -1.3660 C   0  0  0  0  0  0  0  0  0  0  0  0
    4.1180    2.5610   -1.6120 O   0  0  0  0  0  0  0  0  0  0  0  0
    5.9420    1.2280   -1.8160 N   0  0  0  0  0  0  0  0  0  0  0  0
    6.5870    0.0840   -1.5670 C   0  0  0  0  0  0  0  0  0  0  0  0
    7.7340   -0.1820   -1.9680 O   0  0  0  0  0  0  0  0  0  0  0  0
    5.9400   -0.8810   -0.8100 C   0  0  0  0  0  0  0  0  0  0  0  0
    6.5570   -2.0830   -0.5240 C   0  0  0  0  0  0  0  0  0  0  0  0
    5.8660   -3.0020    0.2280 C   0  0  0  0  0  0  0  0  0  0  0  0
    4.5890   -2.7300    0.6850 C   0  0  0  0  0  0  0  0  0  0  0  0
    3.9820   -1.5480    0.4050 C   0  0  0  0  0  0  0  0  0  0  0  0
    4.6500   -0.5920   -0.3540 C   0  0  0  0  0  0  0  0  0  0  0  0
   -0.1700    2.0460   -0.3230 C   0  0  0  0  0  0  0  0  0  0  0  0
   -1.5370    2.1680    0.1690 C   0  0  0  0  0  0  0  0  0  0  0  0
   -2.0740    3.5700    0.4890 C   0  0  0  0  0  0  0  0  0  0  0  0
   -2.3250    1.1380    0.3480 C   0  0  0  0  0  0  0  0  0  0  0  0
   -3.9550    1.4790    0.9530 Cl  0  0  0  0  0  0  0  0  0  0  0  0
   -4.3660   -1.2070    2.1230 C   0  0  0  0  0  0  0  0  0  0  0  0
   -5.6040   -1.1560    2.5590 C   0  0  0  0  0  0  0  0  0  0  0  0
   -6.7770   -1.0470    1.6850 C   0  0  0  0  0  0  0  0  0  0  0  0
  1  2  2  0
  2  3  1  0
  2 30  1  0
  3  4  2  0
  4  5  1  0
  4 28  1  0
  5  6  2  3
  6  7  1  0
  6 26  1  0
  7  8  2  0
  8  9  1  0
  8 23  1  0
  9 10  1  0
 10 11  1  0
 11 12  1  0
 11 22  1  0
 12 13  2  0
 12 14  1  0
 14 15  1  0
 15 16  2  0
 15 17  1  0
 17 18  2  0
 17 22  1  0
 18 19  1  0
 19 20  2  0
 20 21  1  0
 21 22  2  0
 23 24  1  0
 24 25  1  0
 24 26  2  0
 26 27  1  0
 28 29  2  0
 29 30  1  0
M  END
