
     RDKit          3D

 29 30  0  0  0  0  0  0  0  0999 V2000
   -0.1780   -1.7730    0.6580 C   0  0  0  0  0  0  0  0  0  0  0  0
   -0.6720   -1.0910   -0.5980 C   0  0  1  0  0  0  0  0  0  0  0  0
   -1.6320   -2.0580   -1.2920 C   0  0  0  0  0  0  0  0  0  0  0  0
   -1.4140    0.1540   -0.3470 C   0  0  0  0  0  0  0  0  0  0  0  0
   -1.4920    1.1160   -1.3320 C   0  0  0  0  0  0  0  0  0  0  0  0
   -2.2190    2.1330   -0.8440 N   0  0  0  0  0  0  0  0  0  0  0  0
   -2.6120    1.8740    0.4000 C   0  0  0  0  0  0  0  0  0  0  0  0
   -3.4130    2.7360    1.2780 C   0  0  1  0  0  0  0  0  0  0  0  0
   -2.7980    3.9710    1.4780 F   0  0  0  0  0  0  0  0  0  0  0  0
   -4.6750    2.9880    0.7490 F   0  0  0  0  0  0  0  0  0  0  0  0
   -2.1150    0.6220    0.7410 C   0  0  0  0  0  0  0  0  0  0  0  0
   -2.3760   -0.0210    2.0500 C   0  0  0  0  0  0  0  0  0  0  0  0
   -1.6390    0.0870    3.0370 O   0  0  0  0  0  0  0  0  0  0  0  0
   -3.6160   -0.8570    2.1920 C   0  0  1  0  0  0  0  0  0  0  0  0
   -4.7680   -0.0940    2.0940 F   0  0  0  0  0  0  0  0  0  0  0  0
   -3.6800   -1.8450    1.2070 F   0  0  0  0  0  0  0  0  0  0  0  0
   -3.6010   -1.5000    3.4090 F   0  0  0  0  0  0  0  0  0  0  0  0
   -0.8430    0.9150   -2.6470 C   0  0  0  0  0  0  0  0  0  0  0  0
   -0.9010    1.7720   -3.5610 O   0  0  0  0  0  0  0  0  0  0  0  0
   -0.1590   -0.3180   -2.7780 N   0  0  0  0  0  0  0  0  0  0  0  0
    0.4580   -0.8620   -1.5840 C   0  0  2  0  0  0  0  0  0  0  0  0
    1.2140   -2.1350   -1.8860 C   0  0  0  0  0  0  0  0  0  0  0  0
    1.4550    0.1280   -1.1320 C   0  0  0  0  0  0  0  0  0  0  0  0
    1.5980    1.2550   -1.6790 O   0  0  0  0  0  0  0  0  0  0  0  0
    2.3040   -0.1570   -0.0500 N   0  0  0  0  0  0  0  0  0  0  0  0
    3.3050    0.8180    0.4240 C   0  0  0  0  0  0  0  0  0  0  0  0
    4.0920    0.3050    1.5830 C   0  0  0  0  0  0  0  0  0  0  0  0
    5.0770    1.3610    1.9920 C   0  0  0  0  0  0  0  0  0  0  0  0
    4.3880    2.5150    2.3560 F   0  0  0  0  0  0  0  0  0  0  0  0
  2  1  1  1
  2  3  1  0
  2  4  1  0
  2 21  1  0
  4  5  2  0
  4 11  1  0
  5  6  1  0
  5 18  1  0
  6  7  1  0
  7  8  1  0
  7 11  2  0
  8  9  1  6
  8 10  1  0
 11 12  1  0
 12 13  2  0
 12 14  1  0
 14 15  1  1
 14 16  1  0
 14 17  1  0
 18 19  2  0
 18 20  1  0
 20 21  1  0
 21 22  1  6
 21 23  1  0
 23 24  2  0
 23 25  1  0
 25 26  1  0
 26 27  1  0
 27 28  1  0
 28 29  1  0
M  END
