
     RDKit          3D

 29 29  0  0  0  0  0  0  0  0999 V2000
   -4.7970   -3.4500    1.3900 C   0  0  0  0  0  0  0  0  0  0  0  0
   -3.6960   -2.5340    1.2620 N   0  0  0  0  0  0  0  0  0  0  0  0
   -3.0480   -2.0410    2.4520 C   0  0  0  0  0  0  0  0  0  0  0  0
   -3.2310   -2.1050   -0.0040 C   0  0  0  0  0  0  0  0  0  0  0  0
   -3.8080   -2.5460   -1.0480 O   0  0  0  0  0  0  0  0  0  0  0  0
   -2.1250   -1.1850   -0.1220 N   0  0  0  0  0  0  0  0  0  0  0  0
   -1.7370   -0.8170   -1.4460 C   0  0  0  0  0  0  0  0  0  0  0  0
   -0.6000    0.1450   -1.5440 C   0  0  2  0  0  0  0  0  0  0  0  0
    0.5840   -0.3840   -0.9160 N   0  0  0  0  0  0  0  0  0  0  0  0
    1.7520   -0.7620   -1.6320 C   0  0  0  0  0  0  0  0  0  0  0  0
    1.7220   -0.6160   -2.8800 O   0  0  0  0  0  0  0  0  0  0  0  0
    2.9650   -1.3080   -0.9520 C   0  0  1  0  0  0  0  0  0  0  0  0
    4.1050   -0.3380   -1.1790 C   0  0  0  0  0  0  0  0  0  0  0  0
    4.0330    0.5050    0.0950 C   0  0  0  0  0  0  0  0  0  0  0  0
    3.6710   -0.5250    1.0960 C   0  0  0  0  0  0  0  0  0  0  0  0
    4.1010   -0.5850    2.3420 C   0  0  0  0  0  0  0  0  0  0  0  0
    5.0330    0.4560    2.8220 C   0  0  1  0  0  0  0  0  0  0  0  0
    4.6430    1.7200    2.4220 F   0  0  0  0  0  0  0  0  0  0  0  0
    5.1330    0.3630    4.1930 F   0  0  0  0  0  0  0  0  0  0  0  0
    6.2940    0.1770    2.3010 F   0  0  0  0  0  0  0  0  0  0  0  0
    2.7950   -1.3910    0.4350 O   0  0  0  0  0  0  0  0  0  0  0  0
   -0.9190    1.5630   -1.2200 C   0  0  2  0  0  0  0  0  0  0  0  0
   -1.9970    1.9990   -2.2290 C   0  0  0  0  0  0  0  0  0  0  0  0
    0.3100    2.3980   -1.5700 C   0  0  0  0  0  0  0  0  0  0  0  0
   -1.3690    1.8230    0.1800 C   0  0  0  0  0  0  0  0  0  0  0  0
   -1.6440    3.3040    0.3620 C   0  0  2  0  0  0  0  0  0  0  0  0
   -2.6240    3.7690   -0.4860 F   0  0  0  0  0  0  0  0  0  0  0  0
   -0.5020    4.0640    0.3190 F   0  0  0  0  0  0  0  0  0  0  0  0
   -2.1560    3.4370    1.6600 F   0  0  0  0  0  0  0  0  0  0  0  0
  1  2  1  0
  2  3  1  0
  2  4  1  0
  4  5  2  0
  4  6  1  0
  6  7  1  0
  8  7  1  1
  8  9  1  0
  8 22  1  0
  9 10  1  0
 10 11  2  0
 12 10  1  6
 12 13  1  0
 12 21  1  0
 13 14  1  0
 14 15  1  0
 15 16  2  3
 15 21  1  0
 16 17  1  0
 17 18  1  1
 17 19  1  0
 17 20  1  0
 22 23  1  6
 22 24  1  0
 22 25  1  0
 25 26  1  0
 26 27  1  6
 26 28  1  0
 26 29  1  0
M  END
