
     RDKit          3D

 29 30  0  0  0  0  0  0  0  0999 V2000
    2.0270   -2.9380    0.3900 C   0  0  0  0  0  0  0  0  0  0  0  0
    2.6920   -1.6430    0.1350 C   0  0  0  0  0  0  0  0  0  0  0  0
    4.0500   -1.5750   -0.0330 N   0  0  0  0  0  0  0  0  0  0  0  0
    4.3160   -0.2940   -0.1630 C   0  0  0  0  0  0  0  0  0  0  0  0
    5.4680    0.2050   -0.3380 O   0  0  0  0  0  0  0  0  0  0  0  0
    3.1730    0.4470   -0.0830 N   0  0  0  0  0  0  0  0  0  0  0  0
    3.1490    1.8850   -0.2000 C   0  0  0  0  0  0  0  0  0  0  0  0
    2.9140    2.2570   -1.6560 C   0  0  0  0  0  0  0  0  0  0  0  0
    2.8770    3.6300   -1.8340 O   0  0  0  0  0  0  0  0  0  0  0  0
    2.1080   -0.4120    0.1070 C   0  0  0  0  0  0  0  0  0  0  0  0
    0.7490    0.0390    0.1260 C   0  0  0  0  0  0  0  0  0  0  0  0
    0.6200    1.3770    0.2830 O   0  0  0  0  0  0  0  0  0  0  0  0
   -0.5210   -0.4990    0.0230 N   0  0  0  0  0  0  0  0  0  0  0  0
   -0.9250   -1.8350   -0.1880 C   0  0  0  0  0  0  0  0  0  0  0  0
   -0.9930   -2.3400   -1.6020 C   0  0  2  0  0  0  0  0  0  0  0  0
   -1.3550   -3.7120   -1.5940 F   0  0  0  0  0  0  0  0  0  0  0  0
    0.1400   -2.2310   -2.3390 F   0  0  0  0  0  0  0  0  0  0  0  0
   -1.9980   -1.6790   -2.3020 F   0  0  0  0  0  0  0  0  0  0  0  0
   -1.6580    0.4560    0.2800 C   0  0  1  0  0  0  0  0  0  0  0  0
   -2.3670    0.8000   -0.9740 C   0  0  0  0  0  0  0  0  0  0  0  0
   -1.6390    1.4420   -2.0960 C   0  0  2  0  0  0  0  0  0  0  0  0
   -0.4990    0.7820   -2.4650 F   0  0  0  0  0  0  0  0  0  0  0  0
   -1.3050    2.7320   -1.6550 F   0  0  0  0  0  0  0  0  0  0  0  0
   -2.4560    1.6340   -3.1930 F   0  0  0  0  0  0  0  0  0  0  0  0
   -3.6830    0.6240   -1.1240 C   0  0  0  0  0  0  0  0  0  0  0  0
   -4.5140    0.0940   -0.0670 C   0  0  0  0  0  0  0  0  0  0  0  0
   -3.9430   -0.2030    1.0680 C   0  0  0  0  0  0  0  0  0  0  0  0
   -2.5040   -0.0400    1.3870 C   0  0  2  0  0  0  0  0  0  0  0  0
   -2.4950    0.9870    2.5490 C   0  0  0  0  0  0  0  0  0  0  0  0
  1  2  1  0
  2  3  1  0
  2 10  2  0
  3  4  1  0
  4  5  2  0
  4  6  1  0
  6  7  1  0
  6 10  1  0
  7  8  1  0
  8  9  1  0
 10 11  1  0
 11 12  2  0
 11 13  1  0
 13 14  1  0
 19 13  1  6
 14 15  1  0
 15 16  1  1
 15 17  1  0
 15 18  1  0
 19 20  1  0
 19 28  1  0
 20 21  1  0
 20 25  2  0
 21 22  1  6
 21 23  1  0
 21 24  1  0
 25 26  1  0
 26 27  2  0
 27 28  1  0
 28 29  1  1
M  END
