
     RDKit          3D

 28 29  0  0  0  0  0  0  0  0999 V2000
   -5.3850   -0.9960    1.0230 C   0  0  0  0  0  0  0  0  0  0  0  0
   -4.5380    0.2270    0.9950 C   0  0  0  0  0  0  0  0  0  0  0  0
   -3.2360    0.0340    0.2620 C   0  0  0  0  0  0  0  0  0  0  0  0
   -2.1320    0.1510    0.9630 C   0  0  0  0  0  0  0  0  0  0  0  0
   -2.2150    0.4620    2.4200 C   0  0  0  0  0  0  0  0  0  0  0  0
   -0.8480   -0.0980    0.3190 C   0  0  0  0  0  0  0  0  0  0  0  0
   -0.8590   -0.4460   -0.9550 C   0  0  0  0  0  0  0  0  0  0  0  0
    0.3760   -0.7150   -1.6570 N   0  0  0  0  0  0  0  0  0  0  0  0
    1.6080   -0.6080   -0.9770 C   0  0  0  0  0  0  0  0  0  0  0  0
    2.8010   -0.8940   -1.7180 N   0  0  0  0  0  0  0  0  0  0  0  0
    1.6290   -0.2590    0.2860 C   0  0  0  0  0  0  0  0  0  0  0  0
    2.9470   -0.1730    0.9450 C   0  0  0  0  0  0  0  0  0  0  0  0
    3.0780    0.1430    2.1400 O   0  0  0  0  0  0  0  0  0  0  0  0
    4.1120   -0.4470    0.2450 O   0  0  0  0  0  0  0  0  0  0  0  0
    5.3930   -0.3740    0.8470 C   0  0  0  0  0  0  0  0  0  0  0  0
    6.4790   -0.7270   -0.1630 C   0  0  1  0  0  0  0  0  0  0  0  0
    7.7200   -0.6570    0.4190 F   0  0  0  0  0  0  0  0  0  0  0  0
    6.2480   -2.0430   -0.5660 F   0  0  0  0  0  0  0  0  0  0  0  0
    6.3910    0.0790   -1.2740 F   0  0  0  0  0  0  0  0  0  0  0  0
    0.4080    0.1190    1.0700 C   0  0  1  0  0  0  0  0  0  0  0  0
    0.5730    1.6290    1.3640 C   0  0  0  0  0  0  0  0  0  0  0  0
    0.6270    2.4240    0.0630 C   0  0  0  0  0  0  0  0  0  0  0  0
    1.6710    2.0860   -0.7520 O   0  0  0  0  0  0  0  0  0  0  0  0
   -2.0420   -0.6080   -1.7150 N   0  0  0  0  0  0  0  0  0  0  0  0
   -1.9530   -1.1690   -3.0760 C   0  0  0  0  0  0  0  0  0  0  0  0
   -3.3150   -0.2430   -1.1900 C   0  0  1  0  0  0  0  0  0  0  0  0
   -4.2740   -1.2300   -1.3820 F   0  0  0  0  0  0  0  0  0  0  0  0
   -3.7810    0.8940   -1.8520 F   0  0  0  0  0  0  0  0  0  0  0  0
  1  2  1  0
  2  3  1  0
  3  4  2  0
  3 26  1  0
  4  5  1  0
  4  6  1  0
  6  7  2  0
  6 20  1  0
  7  8  1  0
  7 24  1  0
  8  9  1  0
  9 10  1  0
  9 11  2  0
 11 12  1  0
 11 20  1  0
 12 13  2  0
 12 14  1  0
 14 15  1  0
 15 16  1  0
 16 17  1  1
 16 18  1  0
 16 19  1  0
 20 21  1  6
 21 22  1  0
 22 23  1  0
 24 25  1  0
 24 26  1  0
 26 27  1  1
 26 28  1  0
M  END
