
     RDKit          3D

 30 34  0  0  0  0  0  0  0  0999 V2000
    2.5650   -3.2730    0.1500 O   0  0  0  0  0  0  0  0  0  0  0  0
    3.2190   -2.0680   -0.0270 C   0  0  0  0  0  0  0  0  0  0  0  0
    2.3170   -1.0240    0.0450 C   0  0  0  0  0  0  0  0  0  0  0  0
    2.1990    0.2320    0.0370 C   0  0  0  0  0  0  0  0  0  0  0  0
    3.2180    1.1810   -0.0630 O   0  0  0  0  0  0  0  0  0  0  0  0
    3.4790    2.3080    0.7140 C   0  0  0  0  0  0  0  0  0  0  0  0
    2.5100    3.4150    0.6950 C   0  0  0  0  0  0  0  0  0  0  0  0
    1.1450    3.1540    0.1800 C   0  0  0  0  0  0  0  0  0  0  0  0
    0.4170    2.0270    0.9150 C   0  0  0  0  0  0  0  0  0  0  0  0
    0.7820    0.7980    0.1400 C   0  0  0  0  0  0  0  0  0  0  0  0
   -0.0750    0.1120   -0.5250 C   0  0  0  0  0  0  0  0  0  0  0  0
   -1.5110    0.4640   -0.5790 C   0  0  0  0  0  0  0  0  0  0  0  0
   -1.9520    1.7050   -0.9210 C   0  0  0  0  0  0  0  0  0  0  0  0
   -3.2920    2.0330   -0.9430 C   0  0  0  0  0  0  0  0  0  0  0  0
   -4.2020    1.0620   -0.6050 C   0  0  0  0  0  0  0  0  0  0  0  0
   -5.5600    1.3590   -0.6160 C   0  0  0  0  0  0  0  0  0  0  0  0
   -6.4400    0.3550   -0.2680 C   0  0  0  0  0  0  0  0  0  0  0  0
   -5.9810   -0.9140    0.0820 C   0  0  0  0  0  0  0  0  0  0  0  0
   -6.6340   -2.0380    0.4530 N   0  0  0  0  0  0  0  0  0  0  0  0
   -5.7490   -3.0210    0.6940 C   0  0  0  0  0  0  0  0  0  0  0  0
   -4.4880   -2.5110    0.4700 C   0  0  0  0  0  0  0  0  0  0  0  0
   -4.6310   -1.1800    0.0830 C   0  0  0  0  0  0  0  0  0  0  0  0
   -3.7240   -0.1890   -0.2620 C   0  0  0  0  0  0  0  0  0  0  0  0
   -2.4190   -0.4890   -0.2470 N   0  0  0  0  0  0  0  0  0  0  0  0
    4.6240   -2.2530   -0.2290 C   0  0  0  0  0  0  0  0  0  0  0  0
    5.1870   -3.5010   -0.1420 C   0  0  0  0  0  0  0  0  0  0  0  0
    6.6210   -3.4170   -0.3940 C   0  0  0  0  0  0  0  0  0  0  0  0
    6.8550   -2.0660   -0.6630 N   0  0  0  0  0  0  0  0  0  0  0  0
    5.7180   -1.3990   -0.5670 C   0  0  0  0  0  0  0  0  0  0  0  0
    5.7370    0.3050   -0.9180 Cl  0  0  0  0  0  0  0  0  0  0  0  0
  1  2  2  0
  2  3  1  0
  2 25  1  0
  3  4  2  3
  4  5  1  0
  4 10  1  0
  5  6  1  0
  6  7  1  0
  7  8  1  0
  8  9  1  0
  9 10  1  0
 10 11  2  3
 11 12  1  0
 12 13  2  0
 12 24  1  0
 13 14  1  0
 14 15  2  0
 15 16  1  0
 15 23  1  0
 16 17  2  0
 17 18  1  0
 18 19  1  0
 18 22  2  0
 19 20  1  0
 20 21  2  0
 21 22  1  0
 22 23  1  0
 23 24  2  0
 25 26  2  0
 25 29  1  0
 26 27  1  0
 27 28  1  0
 28 29  2  0
 29 30  1  0
M  END
