
     RDKit          3D

 30 34  0  0  0  0  0  0  0  0999 V2000
    6.3160    2.8300   -1.0130 C   0  0  0  0  0  0  0  0  0  0  0  0
    5.4790    1.8330   -0.3210 N   0  0  0  0  0  0  0  0  0  0  0  0
    4.2010    1.5090   -0.8090 C   0  0  0  0  0  0  0  0  0  0  0  0
    3.8550    2.1660   -1.8680 O   0  0  0  0  0  0  0  0  0  0  0  0
    3.2650    0.5470   -0.2500 C   0  0  0  0  0  0  0  0  0  0  0  0
    3.6630   -0.4990    0.5260 C   0  0  0  0  0  0  0  0  0  0  0  0
    5.0870   -0.8800    0.7710 C   0  0  0  0  0  0  0  0  0  0  0  0
    2.7020   -1.3270    1.0820 C   0  0  0  0  0  0  0  0  0  0  0  0
    3.1300   -2.4540    1.9650 C   0  0  0  0  0  0  0  0  0  0  0  0
    1.3490   -1.0820    0.8360 C   0  0  0  0  0  0  0  0  0  0  0  0
    0.9400   -0.0610    0.0750 N   0  0  0  0  0  0  0  0  0  0  0  0
    1.9010    0.7210   -0.4450 C   0  0  0  0  0  0  0  0  0  0  0  0
    1.5750    1.7090   -1.1770 O   0  0  0  0  0  0  0  0  0  0  0  0
   -0.3090    0.4520   -0.3500 C   0  0  0  0  0  0  0  0  0  0  0  0
   -1.5220   -0.2580   -0.0460 C   0  0  0  0  0  0  0  0  0  0  0  0
   -2.6410    0.4850   -0.4400 C   0  0  0  0  0  0  0  0  0  0  0  0
   -3.9170    0.0010   -0.2510 C   0  0  0  0  0  0  0  0  0  0  0  0
   -4.1210   -1.2400    0.3360 C   0  0  0  0  0  0  0  0  0  0  0  0
   -5.7510   -1.8300    0.5640 Cl  0  0  0  0  0  0  0  0  0  0  0  0
   -3.0400   -1.9940    0.7350 C   0  0  0  0  0  0  0  0  0  0  0  0
   -3.2010   -3.3310    1.3670 C   0  0  0  0  0  0  0  0  0  0  0  0
   -1.7520   -1.4880    0.5360 C   0  0  0  0  0  0  0  0  0  0  0  0
   -0.7450   -2.3700    0.9970 N   0  0  0  0  0  0  0  0  0  0  0  0
    0.5500   -2.0970    1.5150 C   0  0  0  0  0  0  0  0  0  0  0  0
   -4.8500    1.0130   -0.7680 C   0  0  0  0  0  0  0  0  0  0  0  0
   -6.1340    1.2820   -0.9400 C   0  0  0  0  0  0  0  0  0  0  0  0
   -6.3230    2.6080   -1.5820 C   0  0  0  0  0  0  0  0  0  0  0  0
   -4.9340    3.0700   -1.7560 C   0  0  0  0  0  0  0  0  0  0  0  0
   -4.0940    2.1430   -1.2830 C   0  0  0  0  0  0  0  0  0  0  0  0
   -2.6640    1.8230   -1.0810 C   0  0  0  0  0  0  0  0  0  0  0  0
  1  2  1  0
  2  3  1  0
  3  4  2  0
  3  5  1  0
  5  6  2  0
  5 12  1  0
  6  7  1  0
  6  8  1  0
  8  9  1  0
  8 10  2  0
 10 11  1  0
 10 24  1  0
 11 12  1  0
 11 14  1  0
 12 13  2  0
 14 15  1  0
 15 16  2  0
 15 22  1  0
 16 17  1  0
 16 30  1  0
 17 18  2  0
 17 25  1  0
 18 19  1  0
 18 20  1  0
 20 21  1  0
 20 22  2  0
 22 23  1  0
 23 24  1  0
 25 26  2  0
 25 29  1  0
 26 27  1  0
 27 28  1  0
 28 29  2  0
 29 30  1  0
M  END
