
     RDKit          3D

 29 28  0  0  0  0  0  0  0  0999 V2000
   -0.8970    4.1270    1.4630 C   0  0  0  0  0  0  0  0  0  0  0  0
   -1.3210    3.3240    2.3870 C   0  0  0  0  0  0  0  0  0  0  0  0
   -1.2760    1.9270    2.4740 C   0  0  0  0  0  0  0  0  0  0  0  0
   -1.8430    1.4130    3.6270 C   0  0  0  0  0  0  0  0  0  0  0  0
   -2.4280    2.2750    4.6490 C   0  0  0  0  0  0  0  0  0  0  0  0
   -0.7400    0.8930    1.6190 C   0  0  0  0  0  0  0  0  0  0  0  0
   -0.8880   -0.3380    2.0160 O   0  0  0  0  0  0  0  0  0  0  0  0
   -0.0630    1.0050    0.3960 N   0  0  0  0  0  0  0  0  0  0  0  0
    0.4220   -0.1060   -0.3880 C   0  0  1  0  0  0  0  0  0  0  0  0
    1.2830   -1.0860    0.3160 C   0  0  0  0  0  0  0  0  0  0  0  0
   -0.5700   -0.7430   -1.2960 C   0  0  0  0  0  0  0  0  0  0  0  0
   -1.7540   -1.3210   -0.8360 N   0  0  0  0  0  0  0  0  0  0  0  0
   -1.9020   -2.4470   -0.0020 C   0  0  0  0  0  0  0  0  0  0  0  0
   -0.8950   -3.0480    0.4060 O   0  0  0  0  0  0  0  0  0  0  0  0
   -3.2540   -2.9480    0.4140 C   0  0  0  0  0  0  0  0  0  0  0  0
   -3.1990   -4.1400    1.2970 C   0  0  0  0  0  0  0  0  0  0  0  0
    1.3510    0.6030   -1.4350 C   0  0  0  0  0  0  0  0  0  0  0  0
    1.3850    1.8430   -1.4340 O   0  0  0  0  0  0  0  0  0  0  0  0
    2.0850   -0.2060   -2.3020 N   0  0  0  0  0  0  0  0  0  0  0  0
    2.9500    0.3240   -3.2820 C   0  0  0  0  0  0  0  0  0  0  0  0
    4.2430    0.0830   -3.1480 C   0  0  0  0  0  0  0  0  0  0  0  0
    4.7880   -0.7150   -2.0120 C   0  0  2  0  0  0  0  0  0  0  0  0
    4.6060    0.0430   -0.8590 F   0  0  0  0  0  0  0  0  0  0  0  0
    6.1380   -0.9150   -2.1980 F   0  0  0  0  0  0  0  0  0  0  0  0
    4.1570   -1.9050   -1.8180 F   0  0  0  0  0  0  0  0  0  0  0  0
    2.4770    1.0990   -4.4410 C   0  0  1  0  0  0  0  0  0  0  0  0
    3.5690    1.5540   -5.1980 F   0  0  0  0  0  0  0  0  0  0  0  0
    1.7840    0.2780   -5.3470 F   0  0  0  0  0  0  0  0  0  0  0  0
    1.7460    2.2160   -4.1100 F   0  0  0  0  0  0  0  0  0  0  0  0
  1  2  2  0
  2  3  1  0
  3  4  2  3
  3  6  1  0
  4  5  1  0
  6  7  2  0
  6  8  1  0
  8  9  1  0
  9 10  1  1
  9 11  1  0
  9 17  1  0
 11 12  1  0
 12 13  1  0
 13 14  2  0
 13 15  1  0
 15 16  1  0
 17 18  2  0
 17 19  1  0
 19 20  1  0
 20 21  2  3
 20 26  1  0
 21 22  1  0
 22 23  1  1
 22 24  1  0
 22 25  1  0
 26 27  1  6
 26 28  1  0
 26 29  1  0
M  END
