
     RDKit          3D

 25 28  0  0  0  0  0  0  0  0999 V2000
    3.5190   -1.6530   -1.6770 C   0  0  0  0  0  0  0  0  0  0  0  0
    2.1970   -1.0890   -1.1830 C   0  0  2  0  0  0  0  0  0  0  0  0
    1.9700    0.0270   -2.0250 O   0  0  0  0  0  0  0  0  0  0  0  0
    2.7100    1.0610   -1.5000 C   0  0  0  0  0  0  0  0  0  0  0  0
    2.8890    0.8070   -0.0120 C   0  0  2  0  0  0  0  0  0  0  0  0
    4.3350    0.9990    0.2810 C   0  0  1  0  0  0  0  0  0  0  0  0
    4.8940    0.8330    1.6650 C   0  0  0  0  0  0  0  0  0  0  0  0
    5.3010   -0.0950    0.5640 C   0  0  0  0  0  0  0  0  0  0  0  0
    2.3160   -0.5600    0.1970 C   0  0  1  0  0  0  0  0  0  0  0  0
    1.1420   -0.5830    1.0710 C   0  0  1  0  0  0  0  0  0  0  0  0
    1.5330   -0.0210    2.2920 O   0  0  0  0  0  0  0  0  0  0  0  0
   -0.1830   -0.1180    0.7040 C   0  0  1  0  0  0  0  0  0  0  0  0
   -0.4130    1.2780    0.3010 C   0  0  0  0  0  0  0  0  0  0  0  0
   -1.9100    1.5430    0.2380 C   0  0  2  0  0  0  0  0  0  0  0  0
   -2.3620    1.9850   -1.1400 C   0  0  0  0  0  0  0  0  0  0  0  0
   -2.2420    2.7180    1.1710 C   0  0  0  0  0  0  0  0  0  0  0  0
   -2.7510    0.4010    0.6630 C   0  0  0  0  0  0  0  0  0  0  0  0
   -2.4100   -0.9100    0.0220 C   0  0  2  0  0  0  0  0  0  0  0  0
   -3.1900   -1.1940   -1.2280 C   0  0  0  0  0  0  0  0  0  0  0  0
   -4.6570   -1.3300   -0.9920 C   0  0  0  0  0  0  0  0  0  0  0  0
   -5.0120   -1.9480    0.3210 C   0  0  0  0  0  0  0  0  0  0  0  0
   -3.9270   -2.6570    0.8930 O   0  0  0  0  0  0  0  0  0  0  0  0
   -2.7140   -1.9910    0.9960 C   0  0  0  0  0  0  0  0  0  0  0  0
   -1.8910   -2.3030    1.9000 O   0  0  0  0  0  0  0  0  0  0  0  0
   -0.9210   -1.0150   -0.2920 C   0  0  0  0  0  0  0  0  0  0  0  0
  2  1  1  6
  2  3  1  0
  9  2  1  6
  3  4  1  0
  5  4  1  6
  5  6  1  0
  5  9  1  0
  6  7  1  1
  6  8  1  0
  7  8  1  0
  9 10  1  0
 10 11  1  1
 10 12  1  0
 12 13  1  6
 12 25  1  0
 13 14  1  0
 14 15  1  6
 14 16  1  0
 14 17  1  0
 18 17  1  1
 18 19  1  0
 18 23  1  0
 18 25  1  0
 19 20  1  0
 20 21  1  0
 21 22  1  0
 22 23  1  0
 23 24  2  0
M  END
