
     RDKit          3D

 25 28  0  0  0  0  0  0  0  0999 V2000
   -1.3210   -2.5870    1.6270 C   0  0  0  0  0  0  0  0  0  0  0  0
   -2.3490   -1.5050    1.3730 C   0  0  2  0  0  0  0  0  0  0  0  0
   -3.6590   -2.2030    1.0840 C   0  0  0  0  0  0  0  0  0  0  0  0
   -3.9230   -3.0290    2.1770 O   0  0  0  0  0  0  0  0  0  0  0  0
   -1.9360   -0.6050    0.2070 C   0  0  0  0  0  0  0  0  0  0  0  0
   -1.0610    0.4870    0.7820 C   0  0  1  0  0  0  0  0  0  0  0  0
   -0.0950    1.0520   -0.2360 C   0  0  1  0  0  0  0  0  0  0  0  0
   -0.8500    1.5870   -1.4170 C   0  0  0  0  0  0  0  0  0  0  0  0
   -1.2560    2.9870   -1.4520 C   0  0  0  0  0  0  0  0  0  0  0  0
   -0.1230    3.9000   -1.0530 C   0  0  0  0  0  0  0  0  0  0  0  0
    0.2620    3.4700    0.3430 C   0  0  0  0  0  0  0  0  0  0  0  0
    0.8310    2.0680    0.3550 C   0  0  2  0  0  0  0  0  0  0  0  0
    2.1710    2.1460   -0.3010 C   0  0  0  0  0  0  0  0  0  0  0  0
    2.3490    1.2970   -1.3630 O   0  0  0  0  0  0  0  0  0  0  0  0
    2.0620   -0.0270   -1.0900 C   0  0  1  0  0  0  0  0  0  0  0  0
    2.3440   -0.7580   -2.4060 C   0  0  0  0  0  0  0  0  0  0  0  0
    2.1980   -2.2510   -2.2380 C   0  0  0  0  0  0  0  0  0  0  0  0
    3.0810   -2.7980   -1.1510 C   0  0  0  0  0  0  0  0  0  0  0  0
    3.0630   -2.0210    0.1130 C   0  0  2  0  0  0  0  0  0  0  0  0
    2.0920   -2.4560    1.0040 O   0  0  0  0  0  0  0  0  0  0  0  0
    3.0800   -0.5590   -0.1370 C   0  0  0  0  0  0  0  0  0  0  0  0
    0.6540   -0.1840   -0.7580 C   0  0  0  0  0  0  0  0  0  0  0  0
   -1.8670    1.4010    1.5900 C   0  0  0  0  0  0  0  0  0  0  0  0
   -2.9140    0.5250    2.3080 C   0  0  0  0  0  0  0  0  0  0  0  0
   -2.4530   -0.7500    2.5430 O   0  0  0  0  0  0  0  0  0  0  0  0
  2  1  1  1
  2  3  1  0
  2  5  1  0
  2 25  1  0
  3  4  1  0
  6  5  1  6
  6  7  1  0
  6 23  1  0
  7  8  1  6
  7 12  1  0
  7 22  1  0
  8  9  1  0
  9 10  1  0
 10 11  1  0
 12 11  1  6
 12 13  1  0
 13 14  1  0
 14 15  1  0
 15 16  1  6
 15 21  1  0
 15 22  1  0
 16 17  1  0
 17 18  1  0
 18 19  1  0
 19 20  1  6
 19 21  1  0
 23 24  1  0
 24 25  1  0
M  END
