
     RDKit          3D

 25 28  0  0  0  0  0  0  0  0999 V2000
    5.6110    0.3660   -0.1790 C   0  0  0  0  0  0  0  0  0  0  0  0
    4.1680   -0.1270   -0.2580 C   0  0  2  0  0  0  0  0  0  0  0  0
    4.0940   -1.5050   -0.7850 C   0  0  0  0  0  0  0  0  0  0  0  0
    3.4010    0.8990   -1.0460 C   0  0  2  0  0  0  0  0  0  0  0  0
    3.3830    2.0890   -0.0920 C   0  0  0  0  0  0  0  0  0  0  0  0
    3.7200    1.5460    1.2540 C   0  0  0  0  0  0  0  0  0  0  0  0
    4.0460    2.2030    2.1980 O   0  0  0  0  0  0  0  0  0  0  0  0
    3.5510    0.0560    1.1090 C   0  0  2  0  0  0  0  0  0  0  0  0
    4.3390   -0.6770    2.1700 C   0  0  0  0  0  0  0  0  0  0  0  0
    2.0990   -0.2420    1.1590 C   0  0  0  0  0  0  0  0  0  0  0  0
    1.4120   -0.3750   -0.1550 C   0  0  1  0  0  0  0  0  0  0  0  0
    0.0580    0.0270   -0.0530 O   0  0  0  0  0  0  0  0  0  0  0  0
   -0.9920   -0.8440   -0.2700 C   0  0  0  0  0  0  0  0  0  0  0  0
   -0.6560   -2.0400   -0.5710 O   0  0  0  0  0  0  0  0  0  0  0  0
   -2.4110   -0.4730   -0.1760 C   0  0  2  0  0  0  0  0  0  0  0  0
   -2.7720    0.6350   -1.1670 C   0  0  0  0  0  0  0  0  0  0  0  0
   -4.2550    0.8700   -1.0590 C   0  0  1  0  0  0  0  0  0  0  0  0
   -5.0090   -0.3460   -1.4750 C   0  0  0  0  0  0  0  0  0  0  0  0
   -5.7700   -1.0050   -0.3670 C   0  0  0  0  0  0  0  0  0  0  0  0
   -5.0130   -1.0810    0.9280 C   0  0  0  0  0  0  0  0  0  0  0  0
   -4.2750    0.1710    1.2720 C   0  0  2  0  0  0  0  0  0  0  0  0
   -4.6760    1.2940    0.3270 C   0  0  0  0  0  0  0  0  0  0  0  0
   -2.7820    0.0400    1.2040 C   0  0  1  0  0  0  0  0  0  0  0  0
   -2.2560   -0.7530    2.2070 O   0  0  0  0  0  0  0  0  0  0  0  0
    2.0280    0.3710   -1.2860 C   0  0  0  0  0  0  0  0  0  0  0  0
  2  1  1  1
  2  3  1  0
  2  4  1  0
  2  8  1  0
  4  5  1  1
  4 25  1  0
  5  6  1  0
  6  7  2  0
  6  8  1  0
  8  9  1  1
  8 10  1  0
 10 11  1  0
 11 12  1  1
 11 25  1  0
 12 13  1  0
 13 14  2  0
 15 13  1  1
 15 16  1  0
 15 23  1  0
 17 16  1  1
 17 18  1  0
 17 22  1  0
 18 19  1  0
 19 20  1  0
 21 20  1  6
 21 22  1  0
 21 23  1  0
 23 24  1  1
M  END
