
     RDKit          3D

 25 28  0  0  0  0  0  0  0  0999 V2000
    1.5980    1.4320    1.1570 C   0  0  0  0  0  0  0  0  0  0  0  0
    1.7000    0.5890   -0.0780 C   0  0  2  0  0  0  0  0  0  0  0  0
    1.0230    1.3270   -1.2030 C   0  0  0  0  0  0  0  0  0  0  0  0
   -0.4320    1.3020   -0.9040 C   0  0  0  0  0  0  0  0  0  0  0  0
   -1.0350    2.3470   -0.9770 O   0  0  0  0  0  0  0  0  0  0  0  0
   -1.0700    0.0500   -0.5420 C   0  0  1  0  0  0  0  0  0  0  0  0
   -0.3380   -0.7960    0.4650 C   0  0  1  0  0  0  0  0  0  0  0  0
   -0.8490   -2.2000    0.4260 C   0  0  0  0  0  0  0  0  0  0  0  0
   -2.3130   -2.3690    0.2860 C   0  0  0  0  0  0  0  0  0  0  0  0
   -3.0520   -1.2100   -0.2250 C   0  0  0  0  0  0  0  0  0  0  0  0
   -4.2080   -1.4290   -0.8220 C   0  0  0  0  0  0  0  0  0  0  0  0
   -5.0050   -0.3320   -1.3570 C   0  0  0  0  0  0  0  0  0  0  0  0
   -5.8320   -0.4470   -2.2790 O   0  0  0  0  0  0  0  0  0  0  0  0
   -4.7710    0.9830   -0.7200 C   0  0  0  0  0  0  0  0  0  0  0  0
   -3.2790    1.2340   -0.7340 C   0  0  0  0  0  0  0  0  0  0  0  0
   -2.5040    0.1530   -0.0700 C   0  0  2  0  0  0  0  0  0  0  0  0
   -2.4260    0.5230    1.4230 C   0  0  0  0  0  0  0  0  0  0  0  0
    1.1050   -0.7990    0.1060 C   0  0  2  0  0  0  0  0  0  0  0  0
    2.0270   -1.3770    1.1200 C   0  0  0  0  0  0  0  0  0  0  0  0
    3.3880   -0.7760    0.7690 C   0  0  0  0  0  0  0  0  0  0  0  0
    3.1190    0.1930   -0.3860 C   0  0  2  0  0  0  0  0  0  0  0  0
    4.0550    1.3050   -0.4270 C   0  0  0  0  0  0  0  0  0  0  0  0
    3.6730    2.4380   -0.2230 O   0  0  0  0  0  0  0  0  0  0  0  0
    5.4870    1.0630   -0.7200 C   0  0  0  0  0  0  0  0  0  0  0  0
    5.7350   -0.2910   -0.9250 O   0  0  0  0  0  0  0  0  0  0  0  0
  2  1  1  1
  2  3  1  0
  2 18  1  0
  2 21  1  0
  3  4  1  0
  4  5  2  0
  6  4  1  1
  6  7  1  0
  6 16  1  0
  7  8  1  6
  7 18  1  0
  8  9  1  0
  9 10  1  0
 10 11  2  0
 10 16  1  0
 11 12  1  0
 12 13  2  0
 12 14  1  0
 14 15  1  0
 15 16  1  0
 16 17  1  1
 18 19  1  1
 19 20  1  0
 20 21  1  0
 21 22  1  1
 22 23  2  0
 22 24  1  0
 24 25  1  0
M  END
