
     RDKit          3D

 25 28  0  0  0  0  0  0  0  0999 V2000
    5.9450   -0.3460    0.7750 C   0  0  0  0  0  0  0  0  0  0  0  0
    5.5060   -0.5140   -0.6520 C   0  0  0  0  0  0  0  0  0  0  0  0
    4.2770    0.1050   -0.8850 O   0  0  0  0  0  0  0  0  0  0  0  0
    3.2740   -0.4270   -0.0760 C   0  0  0  0  0  0  0  0  0  0  0  0
    2.0010    0.3130   -0.4130 C   0  0  2  0  0  0  0  0  0  0  0  0
    1.6350    0.1800   -1.7280 O   0  0  0  0  0  0  0  0  0  0  0  0
    2.1830    1.8050   -0.1190 C   0  0  0  0  0  0  0  0  0  0  0  0
    1.3430    2.6060   -0.8870 O   0  0  0  0  0  0  0  0  0  0  0  0
    0.5740    3.6770   -0.5130 C   0  0  0  0  0  0  0  0  0  0  0  0
    0.7260    4.8690   -0.9560 O   0  0  0  0  0  0  0  0  0  0  0  0
   -0.5350    3.5330    0.4680 C   0  0  0  0  0  0  0  0  0  0  0  0
   -1.7390    2.8470   -0.1340 C   0  0  0  0  0  0  0  0  0  0  0  0
   -2.5510    2.1000    0.8810 C   0  0  0  0  0  0  0  0  0  0  0  0
   -2.8630    0.7220    0.3550 C   0  0  2  0  0  0  0  0  0  0  0  0
   -3.3270    0.6620   -1.0520 C   0  0  0  0  0  0  0  0  0  0  0  0
   -3.2950   -0.3650    1.2710 C   0  0  1  0  0  0  0  0  0  0  0  0
   -4.0810   -1.4970    0.7610 C   0  0  0  0  0  0  0  0  0  0  0  0
   -3.3550   -2.5850    0.0710 C   0  0  0  0  0  0  0  0  0  0  0  0
   -1.8840   -2.4800    0.0070 C   0  0  2  0  0  0  0  0  0  0  0  0
   -1.1610   -2.9760    1.2420 C   0  0  0  0  0  0  0  0  0  0  0  0
    0.2580   -2.5260    0.9640 C   0  0  0  0  0  0  0  0  0  0  0  0
    0.1620   -1.3560    0.0160 C   0  0  2  0  0  0  0  0  0  0  0  0
    0.8470   -0.1210    0.4910 C   0  0  0  0  0  0  0  0  0  0  0  0
   -1.3440   -1.0920   -0.1370 C   0  0  2  0  0  0  0  0  0  0  0  0
   -1.8950   -0.2430    0.9430 C   0  0  1  0  0  0  0  0  0  0  0  0
  1  2  1  0
  2  3  1  0
  3  4  1  0
  4  5  1  0
  5  6  1  6
  5  7  1  0
  5 23  1  0
  7  8  1  0
  8  9  1  0
  9 10  2  0
  9 11  1  0
 11 12  1  0
 12 13  1  0
 13 14  1  0
 14 15  1  6
 14 16  1  0
 14 25  1  0
 16 17  1  6
 25 16  1  1
 17 18  1  0
 19 18  1  1
 19 20  1  0
 24 19  1  1
 20 21  1  0
 22 21  1  1
 22 23  1  0
 22 24  1  0
 24 25  1  0
M  END
