
     RDKit          3D

 25 28  0  0  0  0  0  0  0  0999 V2000
    2.2750    1.2900   -2.9740 C   0  0  0  0  0  0  0  0  0  0  0  0
    1.8520    0.5650   -1.8570 O   0  0  0  0  0  0  0  0  0  0  0  0
    2.6660    0.2330   -0.7900 C   0  0  0  0  0  0  0  0  0  0  0  0
    3.8760    0.6450   -0.8890 O   0  0  0  0  0  0  0  0  0  0  0  0
    2.1880   -0.5390    0.3820 C   0  0  1  0  0  0  0  0  0  0  0  0
    3.3890   -0.6780    1.2980 C   0  0  0  0  0  0  0  0  0  0  0  0
    3.5380    0.7870    1.7040 C   0  0  0  0  0  0  0  0  0  0  0  0
    2.3490    1.4400    1.2980 O   0  0  0  0  0  0  0  0  0  0  0  0
    1.4280    0.4090    1.2800 C   0  0  1  0  0  0  0  0  0  0  0  0
    0.1410    0.6560    0.6860 C   0  0  0  0  0  0  0  0  0  0  0  0
   -0.5480    1.6750    0.1710 C   0  0  0  0  0  0  0  0  0  0  0  0
   -0.0500    3.0520    0.0660 C   0  0  0  0  0  0  0  0  0  0  0  0
   -1.8750    1.2300   -0.2120 C   0  0  0  0  0  0  0  0  0  0  0  0
   -3.1530    1.5520   -0.4370 C   0  0  0  0  0  0  0  0  0  0  0  0
   -3.9290    0.3400   -0.8350 C   0  0  2  0  0  0  0  0  0  0  0  0
   -5.2880    0.2750   -0.2220 C   0  0  0  0  0  0  0  0  0  0  0  0
   -3.0570   -0.7680   -0.3000 C   0  0  0  0  0  0  0  0  0  0  0  0
   -3.4550   -1.7960    0.1510 O   0  0  0  0  0  0  0  0  0  0  0  0
   -1.6880   -0.2550   -0.4810 C   0  0  1  0  0  0  0  0  0  0  0  0
   -1.2020   -0.4490   -1.9000 C   0  0  0  0  0  0  0  0  0  0  0  0
   -0.7110   -0.5840    0.5790 C   0  0  2  0  0  0  0  0  0  0  0  0
   -1.4940   -0.6070    1.9040 C   0  0  0  0  0  0  0  0  0  0  0  0
    0.0390   -1.8420    0.3980 C   0  0  0  0  0  0  0  0  0  0  0  0
    1.4820   -1.7880    0.0650 C   0  0  2  0  0  0  0  0  0  0  0  0
    2.1610   -3.0240    0.6830 C   0  0  0  0  0  0  0  0  0  0  0  0
  1  2  1  0
  2  3  1  0
  3  4  2  0
  5  3  1  6
  5  6  1  0
  5  9  1  0
  5 24  1  0
  6  7  1  0
  7  8  1  0
  9  8  1  6
  9 10  1  0
 10 11  2  0
 10 21  1  0
 11 12  1  0
 11 13  1  0
 13 14  2  0
 13 19  1  0
 14 15  1  0
 15 16  1  1
 15 17  1  0
 17 18  2  0
 17 19  1  0
 19 20  1  6
 19 21  1  0
 21 22  1  1
 21 23  1  0
 23 24  1  0
 24 25  1  1
M  END
