
     RDKit          3D

 25 28  0  0  0  0  0  0  0  0999 V2000
    5.6410    2.2470    1.0700 C   0  0  0  0  0  0  0  0  0  0  0  0
    4.6030    1.2050    1.3240 C   0  0  0  0  0  0  0  0  0  0  0  0
    4.1870    1.0570    2.4520 O   0  0  0  0  0  0  0  0  0  0  0  0
    4.0590    0.3470    0.2380 C   0  0  0  0  0  0  0  0  0  0  0  0
    2.5760    0.2260    0.2910 C   0  0  0  0  0  0  0  0  0  0  0  0
    2.1070   -0.6520   -0.8530 C   0  0  1  0  0  0  0  0  0  0  0  0
    0.6200   -0.7680   -0.8510 C   0  0  0  0  0  0  0  0  0  0  0  0
    0.1090    0.2370   -1.5480 C   0  0  0  0  0  0  0  0  0  0  0  0
    1.1880    1.1080   -2.0760 C   0  0  0  0  0  0  0  0  0  0  0  0
    2.3110    0.0630   -2.1920 C   0  0  2  0  0  0  0  0  0  0  0  0
    1.9540   -0.8320   -3.1890 O   0  0  0  0  0  0  0  0  0  0  0  0
   -1.3340    0.3130   -1.6690 C   0  0  0  0  0  0  0  0  0  0  0  0
   -1.8800    0.7590   -2.7440 O   0  0  0  0  0  0  0  0  0  0  0  0
   -2.2190   -0.1310   -0.5410 C   0  0  2  0  0  0  0  0  0  0  0  0
   -3.5520   -0.5880   -1.0910 C   0  0  0  0  0  0  0  0  0  0  0  0
   -4.5010    0.0190   -0.0870 C   0  0  0  0  0  0  0  0  0  0  0  0
   -3.7310    0.6130    0.9120 O   0  0  0  0  0  0  0  0  0  0  0  0
   -2.6850    1.1540    0.1550 C   0  0  2  0  0  0  0  0  0  0  0  0
   -3.3010    2.1340   -0.7950 C   0  0  0  0  0  0  0  0  0  0  0  0
   -1.6510    1.8600    0.9230 C   0  0  0  0  0  0  0  0  0  0  0  0
   -1.5390   -1.0500    0.3570 C   0  0  1  0  0  0  0  0  0  0  0  0
   -2.2640   -2.3610    0.6950 C   0  0  0  0  0  0  0  0  0  0  0  0
   -1.1240   -3.0860    1.4290 C   0  0  0  0  0  0  0  0  0  0  0  0
    0.1760   -2.4470    0.9410 C   0  0  0  0  0  0  0  0  0  0  0  0
   -0.3120   -1.7080   -0.2710 C   0  0  2  0  0  0  0  0  0  0  0  0
  1  2  1  0
  2  3  2  0
  2  4  1  0
  4  5  1  0
  6  5  1  1
  6  7  1  0
  6 10  1  0
  7  8  2  0
  7 25  1  0
  8  9  1  0
  8 12  1  0
  9 10  1  0
 10 11  1  6
 12 13  2  0
 12 14  1  0
 14 15  1  6
 14 18  1  0
 14 21  1  0
 15 16  1  0
 16 17  1  0
 17 18  1  0
 18 19  1  6
 18 20  1  0
 21 22  1  6
 21 25  1  0
 22 23  1  0
 23 24  1  0
 25 24  1  1
M  END
