
     RDKit          3D

 25 28  0  0  0  0  0  0  0  0999 V2000
    4.8460   -2.5620    0.0490 C   0  0  0  0  0  0  0  0  0  0  0  0
    3.7140   -2.0280   -0.7190 C   0  0  0  0  0  0  0  0  0  0  0  0
    2.8720   -1.1580   -0.2090 C   0  0  0  0  0  0  0  0  0  0  0  0
    2.9790   -0.6220    1.2010 C   0  0  0  0  0  0  0  0  0  0  0  0
    1.9340    0.5420    1.1550 C   0  0  2  0  0  0  0  0  0  0  0  0
    2.6480    1.6110    0.4180 C   0  0  0  0  0  0  0  0  0  0  0  0
    1.6960    0.7770    2.4830 O   0  0  0  0  0  0  0  0  0  0  0  0
    0.8560   -0.1900    0.4090 C   0  0  1  0  0  0  0  0  0  0  0  0
   -0.3940    0.4690    0.0730 C   0  0  1  0  0  0  0  0  0  0  0  0
   -1.4310   -0.5450   -0.3640 C   0  0  1  0  0  0  0  0  0  0  0  0
   -1.1300   -1.4170   -1.5050 C   0  0  0  0  0  0  0  0  0  0  0  0
   -2.3160   -2.3690   -1.6760 C   0  0  0  0  0  0  0  0  0  0  0  0
   -3.5230   -1.9620   -0.8700 C   0  0  0  0  0  0  0  0  0  0  0  0
   -3.2620   -1.8770    0.6150 C   0  0  0  0  0  0  0  0  0  0  0  0
   -1.8210   -1.4550    0.8050 C   0  0  0  0  0  0  0  0  0  0  0  0
   -1.0500    1.2670    1.1860 C   0  0  0  0  0  0  0  0  0  0  0  0
   -1.0300    2.6410    0.6950 C   0  0  2  0  0  0  0  0  0  0  0  0
   -2.1160    3.5740    0.9800 C   0  0  0  0  0  0  0  0  0  0  0  0
   -2.0340    4.4370   -0.1750 O   0  0  0  0  0  0  0  0  0  0  0  0
   -1.3660    3.7580   -1.2140 C   0  0  0  0  0  0  0  0  0  0  0  0
   -0.8860    4.3030   -2.2300 O   0  0  0  0  0  0  0  0  0  0  0  0
   -1.4020    2.3690   -0.7870 C   0  0  1  0  0  0  0  0  0  0  0  0
   -0.3000    1.4710   -1.1010 C   0  0  0  0  0  0  0  0  0  0  0  0
    1.6970   -0.5130   -0.8190 C   0  0  0  0  0  0  0  0  0  0  0  0
    1.5480   -0.3370   -2.0150 O   0  0  0  0  0  0  0  0  0  0  0  0
  1  2  1  0
  2  3  2  3
  3  4  1  0
  3 24  1  0
  4  5  1  0
  5  6  1  6
  5  7  1  0
  5  8  1  0
  8  9  1  0
  8 24  1  6
  9 10  1  0
  9 16  1  1
  9 23  1  0
 10 11  1  6
 10 15  1  0
 11 12  1  0
 12 13  1  0
 13 14  1  0
 14 15  1  0
 17 16  1  1
 17 18  1  0
 17 22  1  0
 18 19  1  0
 19 20  1  0
 20 21  2  0
 20 22  1  0
 22 23  1  6
 24 25  2  0
M  END
