
     RDKit          3D

 25 28  0  0  0  0  0  0  0  0999 V2000
    5.8480    0.5110   -0.4170 C   0  0  0  0  0  0  0  0  0  0  0  0
    4.6940   -0.3750    0.0130 C   0  0  0  0  0  0  0  0  0  0  0  0
    3.7520    0.3770    0.9650 C   0  0  1  0  0  0  0  0  0  0  0  0
    3.1660    1.5950    0.3320 C   0  0  0  0  0  0  0  0  0  0  0  0
    1.6580    1.4780    0.2040 C   0  0  0  0  0  0  0  0  0  0  0  0
    1.0740    2.4960    0.4170 O   0  0  0  0  0  0  0  0  0  0  0  0
    1.1650    0.1580   -0.1560 C   0  0  1  0  0  0  0  0  0  0  0  0
    1.5130   -0.8200    0.9400 C   0  0  2  0  0  0  0  0  0  0  0  0
    2.8080   -0.5390    1.6200 C   0  0  0  0  0  0  0  0  0  0  0  0
    1.4620   -2.1120    0.3640 O   0  0  0  0  0  0  0  0  0  0  0  0
    0.4510   -2.4040   -0.5150 C   0  0  0  0  0  0  0  0  0  0  0  0
   -0.0200   -3.5650   -0.5530 O   0  0  0  0  0  0  0  0  0  0  0  0
   -0.1020   -1.3970   -1.4180 C   0  0  1  0  0  0  0  0  0  0  0  0
   -1.3390   -1.7960   -2.1230 C   0  0  0  0  0  0  0  0  0  0  0  0
   -0.1550   -0.0100   -0.7600 C   0  0  2  0  0  0  0  0  0  0  0  0
   -0.1730    0.9390   -1.9890 C   0  0  0  0  0  0  0  0  0  0  0  0
   -1.4280    0.1770   -0.1240 C   0  0  2  0  0  0  0  0  0  0  0  0
   -1.7550    1.5550    0.4080 C   0  0  0  0  0  0  0  0  0  0  0  0
   -3.2700    1.6340    0.6140 C   0  0  1  0  0  0  0  0  0  0  0  0
   -4.0500    1.0960   -0.5380 C   0  0  0  0  0  0  0  0  0  0  0  0
   -4.1550   -0.3830   -0.2550 C   0  0  0  0  0  0  0  0  0  0  0  0
   -3.4360   -0.6420    1.0220 C   0  0  2  0  0  0  0  0  0  0  0  0
   -4.0230   -1.6840    1.7150 O   0  0  0  0  0  0  0  0  0  0  0  0
   -3.6840    0.7010    1.7380 C   0  0  0  0  0  0  0  0  0  0  0  0
   -1.9310   -0.7840    0.9120 C   0  0  0  0  0  0  0  0  0  0  0  0
  1  2  1  0
  3  2  1  6
  3  4  1  0
  3  9  1  0
  4  5  1  0
  5  6  2  0
  7  5  1  1
  7  8  1  0
  7 15  1  0
  8  9  1  6
  8 10  1  0
 10 11  1  0
 11 12  2  0
 11 13  1  0
 13 14  1  1
 13 15  1  0
 15 16  1  6
 15 17  1  0
 17 18  1  1
 17 25  1  0
 19 18  1  6
 19 20  1  0
 19 24  1  0
 20 21  1  0
 21 22  1  0
 22 23  1  1
 22 24  1  0
 22 25  1  0
M  END
