
     RDKit          3D

 10  9  0  0  0  0  0  0  0  0999 V2000
    2.7290   -1.0210    1.8920 C   0  0  0  0  0  0  0  0  0  0  0  0
    1.7600   -0.6960    0.7320 C   0  0  0  0  0  0  0  0  0  0  0  0
    2.2580   -1.0110   -0.5310 N   0  0  0  0  0  0  0  0  0  0  0  0
    0.6490   -0.1920    1.0570 C   0  0  0  0  0  0  0  0  0  0  0  0
   -0.5720    0.2890    0.5080 C   0  0  0  0  0  0  0  0  0  0  0  0
   -1.0130    0.3740   -0.8350 C   0  0  0  0  0  0  0  0  0  0  0  0
   -0.5300    0.0760   -1.9930 C   0  0  0  0  0  0  0  0  0  0  0  0
   -1.3370    0.3280   -3.2110 N   0  0  0  0  0  0  0  0  0  0  0  0
   -1.4760    0.7510    1.4420 C   0  0  0  0  0  0  0  0  0  0  0  0
   -2.7180    1.2550    1.0570 N   0  0  0  0  0  0  0  0  0  0  0  0
  1  2  1  0
  2  3  1  0
  2  4  2  3
  4  5  1  0
  5  6  1  0
  5  9  2  3
  6  7  2  3
  7  8  1  0
  9 10  1  0
M  CHG  3   3   1   8   1  10   1
M  END
