
     RDKit          3D

 10  9  0  0  0  0  0  0  0  0999 V2000
   -2.0720    0.3290    1.5840 C   0  0  0  0  0  0  0  0  0  0  0  0
   -1.0670    0.6910    0.7690 C   0  0  0  0  0  0  0  0  0  0  0  0
   -0.9330    2.1080    0.6260 N   0  0  0  0  0  0  0  0  0  0  0  0
   -0.2280   -0.3180    0.1380 C   0  0  0  0  0  0  0  0  0  0  0  0
   -0.6320   -1.7500    0.4980 C   0  0  0  0  0  0  0  0  0  0  0  0
   -1.9250   -2.0420   -0.0400 N   0  0  0  0  0  0  0  0  0  0  0  0
    0.7890   -0.1610   -0.6630 C   0  0  0  0  0  0  0  0  0  0  0  0
    1.4770   -1.4160   -1.1560 C   0  0  0  0  0  0  0  0  0  0  0  0
    1.2430    1.1320   -1.1590 C   0  0  0  0  0  0  0  0  0  0  0  0
    2.5540    1.5560   -0.7560 N   0  0  0  0  0  0  0  0  0  0  0  0
  1  2  2  0
  2  3  1  0
  2  4  1  0
  4  5  1  0
  4  7  2  3
  5  6  1  0
  7  8  1  0
  7  9  1  0
  9 10  1  0
M  CHG  3   3   1   6   1  10   1
M  END
