
     RDKit          3D

 10  9  0  0  0  0  0  0  0  0999 V2000
    1.8340    1.0600   -1.2320 C   0  0  0  0  0  0  0  0  0  0  0  0
    1.3710    0.5620    0.1710 C   0  0  1  0  0  0  0  0  0  0  0  0
   -0.0600    0.7480    0.2240 C   0  0  0  0  0  0  0  0  0  0  0  0
   -1.1030    0.0200    0.3860 C   0  0  0  0  0  0  0  0  0  0  0  0
   -2.4900    0.6530    0.3740 C   0  0  0  0  0  0  0  0  0  0  0  0
   -2.4460    2.0740    0.1690 N   0  0  0  0  0  0  0  0  0  0  0  0
   -1.1310   -1.4280    0.5800 C   0  0  0  0  0  0  0  0  0  0  0  0
   -1.8960   -2.1090   -0.4680 N   0  0  0  0  0  0  0  0  0  0  0  0
    1.9950   -0.7550    0.3510 C   0  0  0  0  0  0  0  0  0  0  0  0
    3.4700   -0.5530    0.2640 N   0  0  0  0  0  0  0  0  0  0  0  0
  2  1  1  6
  2  3  1  0
  2  9  1  0
  3  4  2  3
  4  5  1  0
  4  7  1  0
  5  6  1  0
  7  8  1  0
  9 10  1  0
M  CHG  3   6   1   8   1  10   1
M  END
