
     RDKit          3D

 10  9  0  0  0  0  0  0  0  0999 V2000
    0.8810   -1.8400    0.6810 C   0  0  0  0  0  0  0  0  0  0  0  0
    0.4230   -0.4900    0.2090 C   0  0  0  0  0  0  0  0  0  0  0  0
    1.2170    0.5460    0.1310 C   0  0  0  0  0  0  0  0  0  0  0  0
    2.6500    0.6010    0.4730 C   0  0  0  0  0  0  0  0  0  0  0  0
    3.4560    0.9820   -0.7010 N   0  0  0  0  0  0  0  0  0  0  0  0
   -0.9980   -0.4260   -0.1380 C   0  0  0  0  0  0  0  0  0  0  0  0
   -1.7860   -1.4940   -0.0640 C   0  0  0  0  0  0  0  0  0  0  0  0
   -3.1600   -1.4520   -0.3950 N   0  0  0  0  0  0  0  0  0  0  0  0
   -1.5660    0.8730   -0.5900 C   0  0  0  0  0  0  0  0  0  0  0  0
   -1.5010    1.9060    0.3970 N   0  0  0  0  0  0  0  0  0  0  0  0
  1  2  1  0
  2  3  2  3
  2  6  1  0
  3  4  1  0
  4  5  1  0
  6  7  2  3
  6  9  1  0
  7  8  1  0
  9 10  1  0
M  CHG  3   5   1   8   1  10   1
M  END
