
     RDKit          3D

 10  9  0  0  0  0  0  0  0  0999 V2000
   -1.1790   -1.8750    0.6330 C   0  0  0  0  0  0  0  0  0  0  0  0
   -0.9520   -0.4090    0.6550 C   0  0  0  0  0  0  0  0  0  0  0  0
   -1.7550    0.3340    1.3450 C   0  0  0  0  0  0  0  0  0  0  0  0
   -2.8290   -0.2420    2.0650 N   0  0  0  0  0  0  0  0  0  0  0  0
    0.1820    0.1260   -0.0970 C   0  0  0  0  0  0  0  0  0  0  0  0
    0.9660   -0.6780   -0.7950 C   0  0  0  0  0  0  0  0  0  0  0  0
    2.1310   -0.3260   -1.5960 C   0  0  0  0  0  0  0  0  0  0  0  0
    1.9810   -0.6850   -2.9960 N   0  0  0  0  0  0  0  0  0  0  0  0
    0.4250    1.6120   -0.0750 C   0  0  0  0  0  0  0  0  0  0  0  0
    0.7310    2.1110    1.2300 N   0  0  0  0  0  0  0  0  0  0  0  0
  1  2  1  0
  2  3  2  3
  2  5  1  0
  3  4  1  0
  5  6  2  3
  5  9  1  0
  6  7  1  0
  7  8  1  0
  9 10  1  0
M  CHG  3   4   1   8   1  10   1
M  END
