
     RDKit          3D

 23 25  0  0  0  0  0  0  0  0999 V2000
    6.6510   -0.9050    1.3340 C   0  0  0  0  0  0  0  0  0  0  0  0
    5.7940    0.3420    1.3270 C   0  0  0  0  0  0  0  0  0  0  0  0
    4.6130    0.1660    0.5710 O   0  0  0  0  0  0  0  0  0  0  0  0
    4.6390   -0.1480   -0.7780 C   0  0  0  0  0  0  0  0  0  0  0  0
    3.5340    0.0070   -1.4800 C   0  0  0  0  0  0  0  0  0  0  0  0
    2.3090    0.4970   -0.8630 C   0  0  0  0  0  0  0  0  0  0  0  0
    1.1990    0.6580   -1.5510 C   0  0  0  0  0  0  0  0  0  0  0  0
    0.9980    0.3900   -2.9790 C   0  0  0  0  0  0  0  0  0  0  0  0
   -0.2380    0.6950   -3.1910 N   0  0  0  0  0  0  0  0  0  0  0  0
   -0.8710    1.1350   -2.0480 N   0  0  0  0  0  0  0  0  0  0  0  0
   -0.0820    1.1410   -1.0350 C   0  0  0  0  0  0  0  0  0  0  0  0
   -0.3340    1.6020    0.6640 S   0  0  0  0  0  0  0  0  0  0  0  0
   -1.9930    2.1460    1.0380 C   0  0  0  0  0  0  0  0  0  0  0  0
   -2.9280    0.9870    0.8900 C   0  0  0  0  0  0  0  0  0  0  0  0
   -3.1360    0.1340    1.9780 C   0  0  0  0  0  0  0  0  0  0  0  0
   -3.9730   -0.9400    1.9390 C   0  0  0  0  0  0  0  0  0  0  0  0
   -4.6460   -1.1860    0.7530 C   0  0  0  0  0  0  0  0  0  0  0  0
   -5.5190   -2.1240    0.3730 N   0  0  0  0  0  0  0  0  0  0  0  0
   -5.8760   -1.9140   -0.8900 C   0  0  0  0  0  0  0  0  0  0  0  0
   -6.6930   -2.6260   -1.5580 O   0  0  0  0  0  0  0  0  0  0  0  0
   -5.2250   -0.8300   -1.3290 N   0  0  0  0  0  0  0  0  0  0  0  0
   -4.4700   -0.3690   -0.3440 C   0  0  0  0  0  0  0  0  0  0  0  0
   -3.6090    0.7160   -0.2690 C   0  0  0  0  0  0  0  0  0  0  0  0
  1  2  1  0
  2  3  1  0
  3  4  1  0
  4  5  2  3
  5  6  1  0
  6  7  2  3
  7  8  1  0
  7 11  1  0
  8  9  2  0
  9 10  1  0
 10 11  2  0
 11 12  1  0
 12 13  1  0
 13 14  1  0
 14 15  2  0
 14 23  1  0
 15 16  1  0
 16 17  2  0
 17 18  1  0
 17 22  1  0
 18 19  1  0
 19 20  2  0
 19 21  1  0
 21 22  1  0
 22 23  2  0
M  END
