
     RDKit          3D

 10  9  0  0  0  0  0  0  0  0999 V2000
   -1.1470   -1.9710    0.0870 C   0  0  0  0  0  0  0  0  0  0  0  0
   -1.1260   -0.4790   -0.2260 C   0  0  0  0  0  0  0  0  0  0  0  0
   -2.4510    0.1640   -0.2630 C   0  0  0  0  0  0  0  0  0  0  0  0
   -3.1440    0.0200    1.0260 N   0  0  0  0  0  0  0  0  0  0  0  0
    0.0320    0.1120   -0.4250 C   0  0  0  0  0  0  0  0  0  0  0  0
    1.2570   -0.7020   -0.3320 C   0  0  0  0  0  0  0  0  0  0  0  0
    2.4490   -0.2100   -0.5140 C   0  0  0  0  0  0  0  0  0  0  0  0
    3.6150   -1.0120   -0.4200 N   0  0  0  0  0  0  0  0  0  0  0  0
    0.1100    1.5450   -0.7420 C   0  0  0  0  0  0  0  0  0  0  0  0
    0.8620    2.2870    0.2580 N   0  0  0  0  0  0  0  0  0  0  0  0
  1  2  1  0
  2  3  1  0
  2  5  2  3
  3  4  1  0
  5  6  1  0
  5  9  1  0
  6  7  2  3
  7  8  1  0
  9 10  1  0
M  CHG  3   4   1   8   1  10   1
M  END
