
     RDKit          3D

 10  9  0  0  0  0  0  0  0  0999 V2000
   -0.1260    2.7850   -0.3400 C   0  0  0  0  0  0  0  0  0  0  0  0
    0.6230    1.7420   -0.1360 C   0  0  0  0  0  0  0  0  0  0  0  0
    0.3620    0.3550   -0.0000 C   0  0  0  0  0  0  0  0  0  0  0  0
    1.3850   -0.5040    0.2110 C   0  0  0  0  0  0  0  0  0  0  0  0
    2.7750   -0.1510    0.3190 C   0  0  0  0  0  0  0  0  0  0  0  0
    3.6950   -1.0680    0.5260 N   0  0  0  0  0  0  0  0  0  0  0  0
   -0.9210   -0.2850   -0.0630 C   0  0  0  0  0  0  0  0  0  0  0  0
   -0.9610   -1.7590    0.1070 N   0  0  0  0  0  0  0  0  0  0  0  0
   -2.1150    0.2010   -0.2490 C   0  0  0  0  0  0  0  0  0  0  0  0
   -3.2860   -0.6760   -0.2710 N   0  0  0  0  0  0  0  0  0  0  0  0
  1  2  2  0
  2  3  1  0
  3  4  2  3
  3  7  1  0
  4  5  1  0
  5  6  2  0
  7  8  1  0
  7  9  2  3
  9 10  1  0
M  CHG  2   6   1  10   1
M  END
