
     RDKit          3D

  6  5  0  0  0  0  0  0  0  0999 V2000
    1.9960   -0.0440    0.1530 C   0  0  0  0  0  0  0  0  0  0  0  0
    0.7180   -0.3080    0.6370 O   0  0  0  0  0  0  0  0  0  0  0  0
   -0.2200   -0.4100   -0.3720 C   0  0  1  0  0  0  0  0  0  0  0  0
   -0.8270   -1.6460   -0.3720 O   0  0  0  0  0  0  0  0  0  0  0  0
   -1.3030    0.6450   -0.2440 C   0  0  0  0  0  0  0  0  0  0  0  0
   -1.9590    0.5010    0.9720 O   0  0  0  0  0  0  0  0  0  0  0  0
  1  2  1  0
  2  3  1  0
  3  4  1  1
  3  5  1  0
  5  6  1  0
M  END
