
     RDKit          3D

  5  4  0  0  0  0  0  0  0  0999 V2000
    2.1860    0.0800    0.2980 O   0  0  0  0  0  0  0  0  0  0  0  0
    0.9730   -0.5590    0.4240 C   0  0  0  0  0  0  0  0  0  0  0  0
   -0.1950    0.4070    0.1830 C   0  0  0  0  0  0  0  0  0  0  0  0
   -1.3530   -0.3480    0.3370 O   0  0  0  0  0  0  0  0  0  0  0  0
   -2.4390    0.3670    0.1560 O   0  0  0  0  0  0  0  0  0  0  0  0
  1  2  1  0
  2  3  1  0
  3  4  1  0
  4  5  1  0
M  END
