
     RDKit          3D

 23 23  0  0  0  0  0  0  0  0999 V2000
    4.9200    1.2230   -1.4350 C   0  0  0  0  0  0  0  0  0  0  0  0
    4.4440    1.0180   -0.1650 O   0  0  0  0  0  0  0  0  0  0  0  0
    3.7710   -0.5000    0.0590 S   0  0  1  0  0  0  0  0  0  0  0  0
    4.5160   -1.5570   -0.7060 O   0  0  0  0  0  0  0  0  0  0  0  0
    3.9040   -0.8350    1.5210 O   0  0  0  0  0  0  0  0  0  0  0  0
    2.0830   -0.4740   -0.4080 N   0  0  0  0  0  0  0  0  0  0  0  0
    1.3360   -0.1300    0.7360 C   0  0  0  0  0  0  0  0  0  0  0  0
   -0.1290   -0.0330    0.6270 C   0  0  1  0  0  0  0  0  0  0  0  0
   -0.6060    0.3250    1.9160 O   0  0  0  0  0  0  0  0  0  0  0  0
   -0.5420    1.0920   -0.2760 C   0  0  0  0  0  0  0  0  0  0  0  0
   -2.0210    1.3810   -0.2550 C   0  0  1  0  0  0  0  0  0  0  0  0
   -2.3960    2.3640    0.8320 C   0  0  0  0  0  0  0  0  0  0  0  0
   -2.4450    2.1640   -1.8050 S   0  0  1  0  0  0  0  0  0  0  0  0
   -1.7050    3.4440   -1.9950 O   0  0  0  0  0  0  0  0  0  0  0  0
   -2.1770    1.2330   -2.9520 O   0  0  0  0  0  0  0  0  0  0  0  0
   -4.0980    2.5150   -1.8430 O   0  0  0  0  0  0  0  0  0  0  0  0
   -2.8030    0.2380   -0.0910 O   0  0  0  0  0  0  0  0  0  0  0  0
   -2.3270   -0.9460    0.4140 C   0  0  0  0  0  0  0  0  0  0  0  0
   -3.1280   -1.7130    0.9840 O   0  0  0  0  0  0  0  0  0  0  0  0
   -0.8650   -1.2760    0.2640 C   0  0  1  0  0  0  0  0  0  0  0  0
   -0.6730   -1.7250   -1.1460 C   0  0  0  0  0  0  0  0  0  0  0  0
   -0.6100   -2.4000    1.2650 C   0  0  0  0  0  0  0  0  0  0  0  0
   -1.3160   -3.5970    0.9200 N   0  0  0  0  0  0  0  0  0  0  0  0
  1  2  1  0
  2  3  1  0
  3  4  2  0
  3  5  2  0
  3  6  1  6
  6  7  1  0
  7  8  1  0
  8  9  1  1
  8 10  1  0
  8 20  1  0
 10 11  1  0
 11 12  1  1
 11 13  1  0
 11 17  1  0
 13 14  2  0
 13 15  2  0
 13 16  1  1
 17 18  1  0
 18 19  2  0
 18 20  1  0
 20 21  1  6
 20 22  1  0
 22 23  1  0
M  END
