
     RDKit          3D

 23 23  0  0  0  0  0  0  0  0999 V2000
   -0.0260    1.6120   -0.1910 C   0  0  0  0  0  0  0  0  0  0  0  0
   -0.6540    0.2740    0.1260 C   0  0  2  0  0  0  0  0  0  0  0  0
   -2.1730    0.3620   -0.1810 C   0  0  2  0  0  0  0  0  0  0  0  0
   -2.3180    0.6950   -1.5190 O   0  0  0  0  0  0  0  0  0  0  0  0
   -2.9020    1.2660    0.7380 C   0  0  0  0  0  0  0  0  0  0  0  0
   -4.2780    1.2310    0.4510 O   0  0  0  0  0  0  0  0  0  0  0  0
   -5.0210    0.0860    0.5750 C   0  0  0  0  0  0  0  0  0  0  0  0
   -4.5220   -0.9890    0.9570 O   0  0  0  0  0  0  0  0  0  0  0  0
   -6.4220    0.0700    0.2670 N   0  0  0  0  0  0  0  0  0  0  0  0
   -7.1660   -1.0480    0.3860 O   0  0  0  0  0  0  0  0  0  0  0  0
   -0.5690   -0.0560    1.4500 O   0  0  0  0  0  0  0  0  0  0  0  0
   -0.1770   -1.3660    1.5750 C   0  0  0  0  0  0  0  0  0  0  0  0
    0.3900   -1.7280    0.3720 O   0  0  0  0  0  0  0  0  0  0  0  0
   -0.1690   -0.8870   -0.6270 C   0  0  2  0  0  0  0  0  0  0  0  0
    0.8570   -0.6610   -1.7030 C   0  0  0  0  0  0  0  0  0  0  0  0
    2.4130    0.0200   -1.1670 S   0  0  0  0  0  0  0  0  0  0  0  0
    3.2820   -1.1420   -0.0960 C   0  0  0  0  0  0  0  0  0  0  0  0
    4.5670   -0.6180    0.3880 C   0  0  0  0  0  0  0  0  0  0  0  0
    5.2570   -1.3190    1.1560 O   0  0  0  0  0  0  0  0  0  0  0  0
    5.0680    0.6570    0.0230 N   0  0  0  0  0  0  0  0  0  0  0  0
    6.5960    1.2820    0.6000 S   0  0  0  0  0  0  0  0  0  0  0  0
    6.9540    2.5900   -0.0570 O   0  0  0  0  0  0  0  0  0  0  0  0
    7.8100    0.1400    0.3790 O   0  0  0  0  0  0  0  0  0  0  0  0
  2  1  1  1
  2  3  1  0
  2 11  1  0
  2 14  1  0
  3  4  1  6
  3  5  1  0
  5  6  1  0
  6  7  1  0
  7  8  2  0
  7  9  1  0
  9 10  1  0
 11 12  1  0
 12 13  1  0
 13 14  1  0
 14 15  1  6
 15 16  1  0
 16 17  1  0
 17 18  1  0
 18 19  2  0
 18 20  1  0
 20 21  1  0
 21 22  2  0
 21 23  1  6
M  END
