
     RDKit          3D

 24 24  0  0  0  0  0  0  0  0999 V2000
    4.9410    2.3770   -1.8740 C   0  0  0  0  0  0  0  0  0  0  0  0
    4.6500    0.9750   -1.8450 O   0  0  0  0  0  0  0  0  0  0  0  0
    3.5820    0.5160   -1.0970 C   0  0  0  0  0  0  0  0  0  0  0  0
    2.9030    1.3840   -0.4620 O   0  0  0  0  0  0  0  0  0  0  0  0
    3.2030   -0.8360   -0.9930 N   0  0  0  0  0  0  0  0  0  0  0  0
    2.0680   -1.2200   -0.1840 C   0  0  2  0  0  0  0  0  0  0  0  0
    0.8960   -0.4690   -0.4880 N   0  0  0  0  0  0  0  0  0  0  0  0
   -0.2590   -0.6080    0.3240 C   0  0  0  0  0  0  0  0  0  0  0  0
   -0.1910   -1.4040    1.2940 O   0  0  0  0  0  0  0  0  0  0  0  0
   -1.4320    0.0800    0.0990 O   0  0  0  0  0  0  0  0  0  0  0  0
   -2.5850   -0.0300    0.8730 C   0  0  1  0  0  0  0  0  0  0  0  0
   -2.9100    1.3050    1.4370 C   0  0  0  0  0  0  0  0  0  0  0  0
   -3.9090    1.4990    2.1800 O   0  0  0  0  0  0  0  0  0  0  0  0
   -2.1150    2.4080    1.1610 O   0  0  0  0  0  0  0  0  0  0  0  0
   -3.7560   -0.5150    0.0350 C   0  0  1  0  0  0  0  0  0  0  0  0
   -4.8690   -0.6070    0.8470 O   0  0  0  0  0  0  0  0  0  0  0  0
   -4.0090    0.3890   -1.1380 C   0  0  0  0  0  0  0  0  0  0  0  0
   -4.3350    1.6850   -0.7170 O   0  0  0  0  0  0  0  0  0  0  0  0
    2.5110   -1.0550    1.6010 S   0  0  0  0  0  0  0  0  0  0  0  0
    2.8870   -2.7760    1.8510 C   0  0  0  0  0  0  0  0  0  0  0  0
    3.4330   -3.4460    3.2070 S   0  0  0  0  0  0  0  0  0  0  0  0
    2.6150   -3.3910    0.6620 O   0  0  0  0  0  0  0  0  0  0  0  0
    1.8500   -2.6880   -0.2190 C   0  0  0  0  0  0  0  0  0  0  0  0
    1.0170   -3.2200   -1.0120 O   0  0  0  0  0  0  0  0  0  0  0  0
  1  2  1  0
  2  3  1  0
  3  4  2  0
  3  5  1  0
  6  5  1  6
  6  7  1  0
  6 19  1  0
  6 23  1  0
  7  8  1  0
  8  9  2  0
  8 10  1  0
 11 10  1  6
 11 12  1  0
 11 15  1  0
 12 13  2  0
 12 14  1  0
 15 16  1  1
 15 17  1  0
 17 18  1  0
 19 20  1  0
 20 21  2  0
 20 22  1  0
 22 23  1  0
 23 24  2  0
M  END
