
     RDKit          3D

 23 23  0  0  0  0  0  0  0  0999 V2000
    3.9630    1.0470   -1.5770 C   0  0  0  0  0  0  0  0  0  0  0  0
    4.6670    0.0830   -0.2640 S   0  0  0  0  0  0  0  0  0  0  0  0
    3.6290   -1.1990    0.4110 C   0  0  2  0  0  0  0  0  0  0  0  0
    3.3470   -2.2660   -0.5360 N   0  0  0  0  0  0  0  0  0  0  0  0
    2.7310   -1.8700   -1.6440 O   0  0  0  0  0  0  0  0  0  0  0  0
    2.4900   -0.8020    1.0380 O   0  0  0  0  0  0  0  0  0  0  0  0
    1.5650   -0.1020    0.3350 C   0  0  2  0  0  0  0  0  0  0  0  0
    1.3380    1.2130    1.0900 C   0  0  0  0  0  0  0  0  0  0  0  0
    0.8790    0.9160    2.3730 O   0  0  0  0  0  0  0  0  0  0  0  0
    0.2150   -0.7770    0.3130 C   0  0  0  0  0  0  0  0  0  0  0  0
    0.0230   -1.8740    0.8950 O   0  0  0  0  0  0  0  0  0  0  0  0
   -0.8640   -0.1830   -0.3670 N   0  0  0  0  0  0  0  0  0  0  0  0
   -2.1730   -0.7310   -0.4530 C   0  0  0  0  0  0  0  0  0  0  0  0
   -2.3790   -1.8290    0.1210 O   0  0  0  0  0  0  0  0  0  0  0  0
   -3.1830    0.0290   -1.2070 C   0  0  1  0  0  0  0  0  0  0  0  0
   -4.4240   -0.6030   -1.2330 O   0  0  0  0  0  0  0  0  0  0  0  0
   -5.3650    0.4290   -1.3590 C   0  0  0  0  0  0  0  0  0  0  0  0
   -4.7760    1.5820   -0.8760 O   0  0  0  0  0  0  0  0  0  0  0  0
   -3.5400    1.2500   -0.3450 C   0  0  1  0  0  0  0  0  0  0  0  0
   -3.6600    0.7870    1.0960 C   0  0  0  0  0  0  0  0  0  0  0  0
   -4.4720   -0.3320    1.2030 O   0  0  0  0  0  0  0  0  0  0  0  0
    4.6410   -2.0040    1.7310 S   0  0  0  0  0  0  0  0  0  0  0  0
    4.8660   -0.8300    2.9630 O   0  0  0  0  0  0  0  0  0  0  0  0
  1  2  1  0
  2  3  1  0
  3  4  1  6
  3  6  1  0
  3 22  1  0
  4  5  1  0
  6  7  1  0
  7  8  1  1
  7 10  1  0
  8  9  1  0
 10 11  2  0
 10 12  1  0
 12 13  1  0
 13 14  2  0
 15 13  1  1
 15 16  1  0
 15 19  1  0
 16 17  1  0
 17 18  1  0
 18 19  1  0
 19 20  1  1
 20 21  1  0
 22 23  1  0
M  END
