
     RDKit          3D

 23 23  0  0  0  0  0  0  0  0999 V2000
    0.9860   -2.1080    1.5160 C   0  0  0  0  0  0  0  0  0  0  0  0
    0.3680   -1.4480    0.2680 C   0  0  1  0  0  0  0  0  0  0  0  0
    1.3510   -0.4710   -0.2730 C   0  0  0  0  0  0  0  0  0  0  0  0
    1.9410   -0.6390   -1.3990 O   0  0  0  0  0  0  0  0  0  0  0  0
    1.7270    0.7330    0.3920 N   0  0  0  0  0  0  0  0  0  0  0  0
    2.6440    1.5930   -0.2000 N   0  0  0  0  0  0  0  0  0  0  0  0
    4.2360    0.9950   -0.2970 S   0  0  2  0  0  0  0  0  0  0  0  0
    4.8710    1.1890   -1.6440 O   0  0  0  0  0  0  0  0  0  0  0  0
    4.2360   -0.4890   -0.0030 O   0  0  0  0  0  0  0  0  0  0  0  0
    5.2810    1.8490    0.8860 C   0  0  0  0  0  0  0  0  0  0  0  0
    5.2640    3.2210    0.5750 O   0  0  0  0  0  0  0  0  0  0  0  0
    0.1720   -2.4150   -0.7190 O   0  0  0  0  0  0  0  0  0  0  0  0
   -0.6190   -1.8380   -1.7050 C   0  0  1  0  0  0  0  0  0  0  0  0
   -0.6000   -2.6590   -2.9800 C   0  0  0  0  0  0  0  0  0  0  0  0
   -1.0650   -3.9350   -2.7930 O   0  0  0  0  0  0  0  0  0  0  0  0
   -1.8920   -1.7310   -1.1800 O   0  0  0  0  0  0  0  0  0  0  0  0
   -1.8740   -0.8530   -0.1270 C   0  0  2  0  0  0  0  0  0  0  0  0
   -2.0340    0.5670   -0.7040 C   0  0  0  0  0  0  0  0  0  0  0  0
   -2.0200    1.7670    0.6720 S   0  0  0  0  0  0  0  0  0  0  0  0
   -3.4710    1.5240    1.7260 C   0  0  0  0  0  0  0  0  0  0  0  0
   -4.7440    1.8860    1.0310 C   0  0  0  0  0  0  0  0  0  0  0  0
   -4.9130    1.1090   -0.0950 O   0  0  0  0  0  0  0  0  0  0  0  0
   -0.7580   -0.8030    0.6440 O   0  0  0  0  0  0  0  0  0  0  0  0
  2  1  1  1
  2  3  1  0
  2 12  1  0
  2 23  1  0
  3  4  2  0
  3  5  1  0
  5  6  1  0
  6  7  1  0
  7  8  2  0
  7  9  2  0
  7 10  1  1
 10 11  1  0
 12 13  1  0
 13 14  1  6
 13 16  1  0
 14 15  1  0
 16 17  1  0
 17 18  1  6
 17 23  1  0
 18 19  1  0
 19 20  1  0
 20 21  1  0
 21 22  1  0
M  END
