
     RDKit          3D

 17 18  0  0  0  0  0  0  0  0999 V2000
   -4.7460    0.0320    1.1740 C   0  0  0  0  0  0  0  0  0  0  0  0
   -3.8850   -0.0570   -0.1550 N   0  0  1  0  0  0  0  0  0  0  0  0
   -4.8790    0.4380   -1.0820 C   0  0  0  0  0  0  0  0  0  0  0  0
   -2.7260    0.5780    0.1620 C   0  0  0  0  0  0  0  0  0  0  0  0
   -1.3580    0.2860   -0.2850 C   0  0  0  0  0  0  0  0  0  0  0  0
   -0.6350    0.6600   -1.4060 C   0  0  0  0  0  0  0  0  0  0  0  0
    0.6910    0.4540   -1.1620 N   0  0  0  0  0  0  0  0  0  0  0  0
    0.8730   -0.0500    0.0820 C   0  0  0  0  0  0  0  0  0  0  0  0
    2.0140   -0.4820    0.7430 C   0  0  0  0  0  0  0  0  0  0  0  0
    3.3800   -0.1790    0.3820 C   0  0  0  0  0  0  0  0  0  0  0  0
    4.1410   -0.7420   -0.7340 C   0  0  0  0  0  0  0  0  0  0  0  0
    5.5400   -0.0390   -0.6040 C   0  0  0  0  0  0  0  0  0  0  0  0
    5.2860    1.3190   -0.8050 O   0  0  0  0  0  0  0  0  0  0  0  0
    1.8010   -1.0570    2.0210 C   0  0  0  0  0  0  0  0  0  0  0  0
    0.5470   -1.1710    2.5660 C   0  0  0  0  0  0  0  0  0  0  0  0
   -0.5450   -0.7160    1.8540 C   0  0  0  0  0  0  0  0  0  0  0  0
   -0.3540   -0.1690    0.6420 C   0  0  0  0  0  0  0  0  0  0  0  0
  2  1  1  1
  2  3  1  0
  2  4  1  0
  4  5  1  0
  5  6  2  0
  5 17  1  0
  6  7  1  0
  7  8  1  0
  8  9  2  0
  8 17  1  0
  9 10  1  0
  9 14  1  0
 10 11  1  0
 11 12  1  0
 12 13  1  0
 14 15  2  0
 15 16  1  0
 16 17  2  0
M  CHG  1   2   1
M  END
