
     RDKit          3D

 17 18  0  0  0  0  0  0  0  0999 V2000
    3.9200    2.2200   -0.2940 C   0  0  0  0  0  0  0  0  0  0  0  0
    2.7730    1.5680   -0.9250 C   0  0  0  0  0  0  0  0  0  0  0  0
    2.3360    0.3270   -0.6460 C   0  0  0  0  0  0  0  0  0  0  0  0
    1.1740   -0.0890   -1.4140 C   0  0  0  0  0  0  0  0  0  0  0  0
   -0.1030   -0.1050   -0.8410 N   0  0  0  0  0  0  0  0  0  0  0  0
   -0.7130   -0.7510    0.2330 C   0  0  0  0  0  0  0  0  0  0  0  0
   -0.0860   -1.5320    0.9390 O   0  0  0  0  0  0  0  0  0  0  0  0
   -2.1590   -0.5350    0.5890 C   0  0  2  0  0  0  0  0  0  0  0  0
   -2.9450   -0.9620   -0.6490 C   0  0  0  0  0  0  0  0  0  0  0  0
   -4.4060   -1.0030   -0.2480 C   0  0  0  0  0  0  0  0  0  0  0  0
   -4.6810    0.0440    0.8050 C   0  0  0  0  0  0  0  0  0  0  0  0
   -3.8100    1.1890    0.6360 N   0  0  0  0  0  0  0  0  0  0  0  0
   -2.4340    0.8810    0.9740 C   0  0  0  0  0  0  0  0  0  0  0  0
    3.1040   -0.4990    0.3130 C   0  0  0  0  0  0  0  0  0  0  0  0
    2.9410   -1.7160    0.7020 C   0  0  0  0  0  0  0  0  0  0  0  0
    4.0690   -1.7010    1.5920 C   0  0  0  0  0  0  0  0  0  0  0  0
    4.2470   -0.2960    1.1630 C   0  0  0  0  0  0  0  0  0  0  0  0
  1  2  1  0
  2  3  2  3
  3  4  1  0
  3 14  1  0
  4  5  1  0
  5  6  1  0
  6  7  2  0
  8  6  1  6
  8  9  1  0
  8 13  1  0
  9 10  1  0
 10 11  1  0
 11 12  1  0
 12 13  1  0
 14 15  2  0
 14 17  1  0
 15 16  1  0
 16 17  1  0
M  CHG  1  12   1
M  END
