
     RDKit          3D

 17 18  0  0  0  0  0  0  0  0999 V2000
    2.7060   -3.3500    0.7400 C   0  0  0  0  0  0  0  0  0  0  0  0
    1.6340   -2.3520    0.3160 C   0  0  0  0  0  0  0  0  0  0  0  0
    1.3470   -1.3390    1.0560 C   0  0  0  0  0  0  0  0  0  0  0  0
    2.0580   -1.2010    2.2650 O   0  0  0  0  0  0  0  0  0  0  0  0
    3.2360   -0.4240    2.3290 C   0  0  0  0  0  0  0  0  0  0  0  0
    0.3720   -0.3320    0.7620 C   0  0  0  0  0  0  0  0  0  0  0  0
    0.1130    0.6720    1.6300 C   0  0  0  0  0  0  0  0  0  0  0  0
   -0.9010    1.6620    1.3180 C   0  0  0  0  0  0  0  0  0  0  0  0
   -1.1130    2.7620    2.3110 C   0  0  0  0  0  0  0  0  0  0  0  0
   -1.6270    1.6360    0.2230 C   0  0  0  0  0  0  0  0  0  0  0  0
   -2.5970    2.6050   -0.0840 N   0  0  0  0  0  0  0  0  0  0  0  0
   -1.5050    0.4370   -0.6440 C   0  0  1  0  0  0  0  0  0  0  0  0
   -1.8310    0.7030   -2.0710 C   0  0  0  0  0  0  0  0  0  0  0  0
   -1.7300   -0.6030   -2.8310 C   0  0  0  0  0  0  0  0  0  0  0  0
   -0.4080   -1.2910   -2.6060 C   0  0  0  0  0  0  0  0  0  0  0  0
    0.4900   -0.4320   -1.7570 C   0  0  0  0  0  0  0  0  0  0  0  0
   -0.2100   -0.1370   -0.5200 N   0  0  0  0  0  0  0  0  0  0  0  0
  1  2  1  0
  2  3  2  3
  3  4  1  0
  3  6  1  0
  4  5  1  0
  6  7  2  0
  6 17  1  0
  7  8  1  0
  8  9  1  0
  8 10  2  0
 10 11  1  0
 10 12  1  0
 12 13  1  6
 12 17  1  0
 13 14  1  0
 14 15  1  0
 15 16  1  0
 16 17  1  0
M  CHG  1  11   1
M  END
