
     RDKit          3D

 17 17  0  0  0  0  0  0  0  0999 V2000
    5.8690   -0.6790   -0.0760 C   0  0  0  0  0  0  0  0  0  0  0  0
    4.6790    0.0100   -0.5790 C   0  0  0  0  0  0  0  0  0  0  0  0
    3.4560   -0.4590   -0.4090 C   0  0  0  0  0  0  0  0  0  0  0  0
    2.2940    0.2450   -0.9180 C   0  0  0  0  0  0  0  0  0  0  0  0
    1.0980   -0.2580   -0.7260 C   0  0  0  0  0  0  0  0  0  0  0  0
   -0.1270    0.4520   -1.2440 C   0  0  0  0  0  0  0  0  0  0  0  0
   -1.0080    0.7850   -0.1430 N   0  0  0  0  0  0  0  0  0  0  0  0
   -0.5510    1.7770    0.7940 C   0  0  0  0  0  0  0  0  0  0  0  0
   -0.5000    3.1110    0.1160 C   0  0  0  0  0  0  0  0  0  0  0  0
   -2.2490    0.1190   -0.0670 C   0  0  0  0  0  0  0  0  0  0  0  0
   -2.3220   -1.1780   -0.3210 C   0  0  0  0  0  0  0  0  0  0  0  0
   -3.6620   -1.8050   -0.2200 C   0  0  0  0  0  0  0  0  0  0  0  0
   -4.3150   -1.3950    0.9770 N   0  0  0  0  0  0  0  0  0  0  0  0
   -4.2040   -0.0200    1.3250 C   0  0  0  0  0  0  0  0  0  0  0  0
   -3.5200    0.8370    0.3000 C   0  0  0  0  0  0  0  0  0  0  0  0
    3.3190   -1.6470    0.2730 O   0  0  0  0  0  0  0  0  0  0  0  0
    3.1620   -1.6510    1.6660 C   0  0  0  0  0  0  0  0  0  0  0  0
  1  2  1  0
  2  3  2  3
  3  4  1  0
  3 16  1  0
  4  5  2  3
  5  6  1  0
  6  7  1  0
  7  8  1  0
  7 10  1  0
  8  9  1  0
 10 11  2  0
 10 15  1  0
 11 12  1  0
 12 13  1  0
 13 14  1  0
 14 15  1  0
 16 17  1  0
M  CHG  1  13   1
M  END
