
     RDKit          3D

 17 18  0  0  0  0  0  0  0  0999 V2000
    4.2970    1.8230   -1.2670 C   0  0  0  0  0  0  0  0  0  0  0  0
    4.0390    0.6960   -0.6460 C   0  0  0  0  0  0  0  0  0  0  0  0
    2.6390    0.3320   -0.3900 C   0  0  0  0  0  0  0  0  0  0  0  0
    2.3100   -0.8380    0.1240 C   0  0  0  0  0  0  0  0  0  0  0  0
    0.9120   -1.2380    0.3950 C   0  0  0  0  0  0  0  0  0  0  0  0
   -0.0440   -0.2340    0.0460 N   0  0  0  0  0  0  0  0  0  0  0  0
   -1.3520   -0.6880    0.4000 C   0  0  1  0  0  0  0  0  0  0  0  0
   -1.7220   -0.4240    1.8270 C   0  0  0  0  0  0  0  0  0  0  0  0
   -2.4190   -0.1120   -0.4990 C   0  0  1  0  0  0  0  0  0  0  0  0
   -3.7920   -0.5750   -0.1440 C   0  0  0  0  0  0  0  0  0  0  0  0
   -4.6550    0.5410   -0.7010 C   0  0  0  0  0  0  0  0  0  0  0  0
   -3.9110    1.7610   -0.1490 C   0  0  0  0  0  0  0  0  0  0  0  0
   -2.4700    1.3780   -0.4870 C   0  0  0  0  0  0  0  0  0  0  0  0
    3.3810   -1.7740    0.4360 C   0  0  0  0  0  0  0  0  0  0  0  0
    3.0810   -2.9040    0.9300 O   0  0  0  0  0  0  0  0  0  0  0  0
    4.7470   -1.4760    0.2100 N   0  0  0  0  0  0  0  0  0  0  0  0
    5.1360   -0.1700   -0.2240 C   0  0  0  0  0  0  0  0  0  0  0  0
  1  2  2  0
  2  3  1  0
  2 17  1  0
  3  4  2  0
  4  5  1  0
  4 14  1  0
  5  6  1  0
  6  7  1  0
  7  8  1  1
  7  9  1  0
  9 10  1  1
  9 13  1  0
 10 11  1  0
 11 12  1  0
 12 13  1  0
 14 15  2  0
 14 16  1  0
 16 17  1  0
M  CHG  1   6   1
M  END
