
     RDKit          3D

 17 18  0  0  0  0  0  0  0  0999 V2000
   -1.6200   -0.9980   -2.4970 C   0  0  0  0  0  0  0  0  0  0  0  0
   -1.8530   -0.5350   -1.1430 N   0  0  0  0  0  0  0  0  0  0  0  0
   -0.7230   -0.1680   -0.3680 C   0  0  0  0  0  0  0  0  0  0  0  0
   -0.9230    0.2340    0.8120 O   0  0  0  0  0  0  0  0  0  0  0  0
    0.6600   -0.2460   -0.9080 C   0  0  0  0  0  0  0  0  0  0  0  0
    1.6850    0.1910    0.0910 C   0  0  0  0  0  0  0  0  0  0  0  0
    3.0490    0.0750   -0.5540 C   0  0  0  0  0  0  0  0  0  0  0  0
    4.1420    0.4880    0.3610 C   0  0  0  0  0  0  0  0  0  0  0  0
    4.9860    1.4710    0.1280 C   0  0  0  0  0  0  0  0  0  0  0  0
    5.9290    1.5950    1.2460 C   0  0  0  0  0  0  0  0  0  0  0  0
    5.5750    0.6520    2.0940 C   0  0  0  0  0  0  0  0  0  0  0  0
    4.4650   -0.0890    1.6200 N   0  0  0  0  0  0  0  0  0  0  0  0
   -3.1950   -0.4740   -0.6660 C   0  0  1  0  0  0  0  0  0  0  0  0
   -3.4500   -1.2990    0.5780 C   0  0  0  0  0  0  0  0  0  0  0  0
   -4.8770   -0.8470    0.9170 C   0  0  0  0  0  0  0  0  0  0  0  0
   -4.7780    0.6570    0.7470 C   0  0  0  0  0  0  0  0  0  0  0  0
   -3.6300    0.9020   -0.2100 C   0  0  0  0  0  0  0  0  0  0  0  0
  1  2  1  0
  2  3  1  0
 13  2  1  1
  3  4  2  0
  3  5  1  0
  5  6  1  0
  6  7  1  0
  7  8  1  0
  8  9  2  0
  8 12  1  0
  9 10  1  0
 10 11  2  0
 11 12  1  0
 13 14  1  0
 13 17  1  0
 14 15  1  0
 15 16  1  0
 16 17  1  0
M  CHG  1  12   1
M  END
