
     RDKit          3D

 17 18  0  0  0  0  0  0  0  0999 V2000
   -4.1190    1.7450    0.0740 C   0  0  0  0  0  0  0  0  0  0  0  0
   -3.3760    0.7420   -0.3070 C   0  0  0  0  0  0  0  0  0  0  0  0
   -2.0750    0.8360   -1.0790 C   0  0  0  0  0  0  0  0  0  0  0  0
   -1.3110   -0.0840   -0.2120 N   0  0  2  0  0  0  0  0  0  0  0  0
    0.0460   -0.1970   -0.6290 C   0  0  0  0  0  0  0  0  0  0  0  0
    0.8500    0.7850    0.2180 C   0  0  1  0  0  0  0  0  0  0  0  0
    0.7260    0.4600    1.5420 O   0  0  0  0  0  0  0  0  0  0  0  0
    2.2250    1.0170   -0.2800 C   0  0  0  0  0  0  0  0  0  0  0  0
    3.1430   -0.0610   -0.1680 N   0  0  0  0  0  0  0  0  0  0  0  0
    3.5170   -0.3980    1.1760 C   0  0  0  0  0  0  0  0  0  0  0  0
    4.9120   -0.9830    1.1030 C   0  0  0  0  0  0  0  0  0  0  0  0
    5.3370   -0.7300   -0.3380 C   0  0  0  0  0  0  0  0  0  0  0  0
    4.4240    0.4180   -0.7130 C   0  0  0  0  0  0  0  0  0  0  0  0
   -2.1050   -1.2610   -0.2480 C   0  0  0  0  0  0  0  0  0  0  0  0
   -3.5100   -0.6960   -0.1400 C   0  0  0  0  0  0  0  0  0  0  0  0
   -4.6080   -1.3720    0.0510 C   0  0  0  0  0  0  0  0  0  0  0  0
   -5.9330   -0.7310    0.1250 C   0  0  0  0  0  0  0  0  0  0  0  0
  1  2  2  0
  2  3  1  0
  2 15  1  0
  3  4  1  0
  4  5  1  6
  4 14  1  0
  5  6  1  0
  6  7  1  1
  6  8  1  0
  8  9  1  0
  9 10  1  0
  9 13  1  0
 10 11  1  0
 11 12  1  0
 12 13  1  0
 14 15  1  0
 15 16  2  3
 16 17  1  0
M  CHG  1   4   1
M  END
