
     RDKit          3D

 23 24  0  0  0  0  0  0  0  0999 V2000
    6.2550    0.2540   -0.2820 C   0  0  0  0  0  0  0  0  0  0  0  0
    5.4360   -0.1870   -1.4730 C   0  0  0  0  0  0  0  0  0  0  0  0
    4.0700   -0.2190   -1.1680 O   0  0  0  0  0  0  0  0  0  0  0  0
    3.3430    0.8620   -0.7500 C   0  0  0  0  0  0  0  0  0  0  0  0
    4.0100    1.9600   -0.6550 O   0  0  0  0  0  0  0  0  0  0  0  0
    1.9400    0.8430   -0.4190 C   0  0  0  0  0  0  0  0  0  0  0  0
    1.0920   -0.1390   -0.4550 C   0  0  0  0  0  0  0  0  0  0  0  0
    1.4590   -1.5120   -0.8840 C   0  0  0  0  0  0  0  0  0  0  0  0
    1.2540   -2.4850    0.1700 N   0  0  0  0  0  0  0  0  0  0  0  0
    0.8210   -2.1510    1.2630 O   0  0  0  0  0  0  0  0  0  0  0  0
    1.5460   -3.7950   -0.0710 O   0  0  0  0  0  0  0  0  0  0  0  0
   -0.3340    0.0180   -0.0620 C   0  0  0  0  0  0  0  0  0  0  0  0
   -1.1010   -0.9610   -0.0810 O   0  0  0  0  0  0  0  0  0  0  0  0
   -0.8490    1.2650    0.3390 N   0  0  0  0  0  0  0  0  0  0  0  0
   -2.1010    1.5910    0.7430 N   0  0  0  0  0  0  0  0  0  0  0  0
   -3.3480    1.0050    0.7440 C   0  0  0  0  0  0  0  0  0  0  0  0
   -4.3510    1.5570    1.5190 N   0  0  0  0  0  0  0  0  0  0  0  0
   -5.5090    0.8380    1.3630 C   0  0  0  0  0  0  0  0  0  0  0  0
   -6.7860    1.0120    1.9460 C   0  0  0  0  0  0  0  0  0  0  0  0
   -7.6770   -0.3770    1.1890 S   0  0  0  0  0  0  0  0  0  0  0  0
   -6.2980   -1.0190    0.2100 C   0  0  0  0  0  0  0  0  0  0  0  0
   -5.2750   -0.1280    0.5360 C   0  0  0  0  0  0  0  0  0  0  0  0
   -3.9460   -0.0330    0.1480 N   0  0  0  0  0  0  0  0  0  0  0  0
  1  2  1  0
  2  3  1  0
  3  4  1  0
  4  5  2  0
  4  6  1  0
  6  7  2  3
  7  8  1  0
  7 12  1  0
  8  9  1  0
  9 10  2  0
  9 11  1  0
 12 13  2  0
 12 14  1  0
 14 15  1  0
 15 16  1  0
 16 17  2  0
 16 23  1  0
 17 18  1  0
 18 19  2  0
 18 22  1  0
 19 20  1  0
 20 21  1  0
 21 22  2  0
 22 23  1  0
M  CHG  2   9   1  11  -1
M  END
