
     RDKit          3D

 35 37  0  0  0  0  0  0  0  0999 V2000
    1.6830   -0.2150    2.2420 C   0  0  0  0  0  0  0  0  0  0  0  0
    1.4230   -0.4160    0.8130 C   0  0  0  0  0  0  0  0  0  0  0  0
    2.2760   -1.2050    0.0690 C   0  0  0  0  0  0  0  0  0  0  0  0
    3.4200   -1.8180    0.7640 C   0  0  0  0  0  0  0  0  0  0  0  0
    4.4780   -2.7500   -0.3270 S   0  0  0  0  0  0  0  0  0  0  0  0
    5.3580   -1.6370   -1.4380 C   0  0  0  0  0  0  0  0  0  0  0  0
    6.2780   -0.7920   -0.5920 C   0  0  0  0  0  0  0  0  0  0  0  0
    6.3230   -0.9460    0.6510 O   0  0  0  0  0  0  0  0  0  0  0  0
    7.0740    0.1580   -1.1810 O   0  0  0  0  0  0  0  0  0  0  0  0
    7.9640    1.0110   -0.5610 C   0  0  0  0  0  0  0  0  0  0  0  0
    9.0990    0.3780    0.1860 C   0  0  2  0  0  0  0  0  0  0  0  0
    9.8430   -0.3920   -0.7150 F   0  0  0  0  0  0  0  0  0  0  0  0
    8.6890   -0.3210    1.2700 F   0  0  0  0  0  0  0  0  0  0  0  0
    9.9060    1.4320    0.6410 F   0  0  0  0  0  0  0  0  0  0  0  0
    2.0310   -1.3930   -1.2300 N   0  0  0  0  0  0  0  0  0  0  0  0
    0.9810   -0.8430   -1.8660 C   0  0  0  0  0  0  0  0  0  0  0  0
    0.7550   -1.0210   -3.0830 O   0  0  0  0  0  0  0  0  0  0  0  0
    0.1130   -0.0430   -1.1230 C   0  0  0  0  0  0  0  0  0  0  0  0
   -1.0390    0.5730   -1.7980 C   0  0  1  0  0  0  0  0  0  0  0  0
   -1.2390   -0.1510   -3.0040 O   0  0  0  0  0  0  0  0  0  0  0  0
   -2.2820    0.6020   -1.0070 C   0  0  0  0  0  0  0  0  0  0  0  0
   -2.9880   -0.5690   -0.7620 C   0  0  0  0  0  0  0  0  0  0  0  0
   -4.1640   -0.6070   -0.0370 C   0  0  0  0  0  0  0  0  0  0  0  0
   -4.6750    0.5640    0.4750 C   0  0  0  0  0  0  0  0  0  0  0  0
   -3.9990    1.7400    0.2490 C   0  0  0  0  0  0  0  0  0  0  0  0
   -2.8040    1.7780   -0.4880 C   0  0  0  0  0  0  0  0  0  0  0  0
   -2.2160    3.0160   -0.6480 O   0  0  0  0  0  0  0  0  0  0  0  0
   -5.9300    0.2870    1.2130 C   0  0  1  0  0  0  0  0  0  0  0  0
   -7.3240    0.4700    0.0950 S   0  0  0  0  0  0  0  0  0  0  0  0
   -7.3940    2.1410   -0.5740 C   0  0  0  0  0  0  0  0  0  0  0  0
   -8.6310    0.0380    0.7290 O   0  0  0  0  0  0  0  0  0  0  0  0
   -5.7870   -1.1730    1.5520 C   0  0  0  0  0  0  0  0  0  0  0  0
   -5.0820   -1.7340    0.3410 C   0  0  0  0  0  0  0  0  0  0  0  0
    0.3320    0.1740    0.2250 C   0  0  0  0  0  0  0  0  0  0  0  0
   -0.5060    0.9760    1.0400 N   0  0  0  0  0  0  0  0  0  0  0  0
  1  2  1  0
  2  3  2  0
  2 34  1  0
  3  4  1  0
  3 15  1  0
  4  5  1  0
  5  6  1  0
  6  7  1  0
  7  8  2  0
  7  9  1  0
  9 10  1  0
 10 11  1  0
 11 12  1  6
 11 13  1  0
 11 14  1  0
 15 16  1  0
 16 17  2  0
 16 18  1  0
 18 19  1  0
 18 34  2  0
 19 20  1  6
 19 21  1  0
 21 22  2  0
 21 26  1  0
 22 23  1  0
 23 24  2  0
 23 33  1  0
 24 25  1  0
 24 28  1  0
 25 26  2  0
 26 27  1  0
 28 29  1  0
 28 32  1  6
 29 30  1  1
 29 31  2  0
 32 33  1  0
 34 35  1  0
M  END
