
     RDKit          3D

 29 30  0  0  0  0  0  0  0  0999 V2000
    9.0250    0.6770    0.1030 C   0  0  0  0  0  0  0  0  0  0  0  0
    7.8640    0.2000    0.4490 C   0  0  0  0  0  0  0  0  0  0  0  0
    6.6330    0.6830   -0.1850 C   0  0  0  0  0  0  0  0  0  0  0  0
    5.3960    0.2330    0.1310 C   0  0  0  0  0  0  0  0  0  0  0  0
    4.3610    0.8800   -0.6470 C   0  0  0  0  0  0  0  0  0  0  0  0
    3.0320    0.6790   -0.6170 C   0  0  0  0  0  0  0  0  0  0  0  0
    2.3730   -0.2740    0.2450 C   0  0  0  0  0  0  0  0  0  0  0  0
    3.1030   -0.9770    1.0210 O   0  0  0  0  0  0  0  0  0  0  0  0
    0.9550   -0.4760    0.2810 C   0  0  0  0  0  0  0  0  0  0  0  0
    0.4010   -1.7560    1.3930 Cl  0  0  0  0  0  0  0  0  0  0  0  0
    0.0200    0.1230   -0.4280 C   0  0  0  0  0  0  0  0  0  0  0  0
   -1.3540   -0.2710   -0.1830 C   0  0  0  0  0  0  0  0  0  0  0  0
   -2.0350   -1.1040   -1.0550 C   0  0  0  0  0  0  0  0  0  0  0  0
   -1.3280   -1.5120   -2.3130 C   0  0  0  0  0  0  0  0  0  0  0  0
   -3.3380   -1.5100   -0.8000 C   0  0  0  0  0  0  0  0  0  0  0  0
   -3.9670   -2.3390   -1.6890 O   0  0  0  0  0  0  0  0  0  0  0  0
   -4.7400   -1.8990   -2.7910 C   0  0  0  0  0  0  0  0  0  0  0  0
   -3.9260   -1.0390    0.3710 C   0  0  0  0  0  0  0  0  0  0  0  0
   -5.2300   -1.4330    0.6580 O   0  0  0  0  0  0  0  0  0  0  0  0
   -5.5390   -2.6270    1.3440 C   0  0  0  0  0  0  0  0  0  0  0  0
   -3.2680   -0.2070    1.2480 C   0  0  0  0  0  0  0  0  0  0  0  0
   -3.9220    0.2470    2.5130 C   0  0  0  0  0  0  0  0  0  0  0  0
   -1.9700    0.1940    0.9880 C   0  0  0  0  0  0  0  0  0  0  0  0
   -1.2180    1.0920    1.8610 C   0  0  0  0  0  0  0  0  0  0  0  0
   -0.6410    2.5690    0.9030 S   0  0  0  0  0  0  0  0  0  0  0  0
   -2.0090    3.5110    0.2430 C   0  0  0  0  0  0  0  0  0  0  0  0
    5.0680    1.7950   -1.4970 N   0  0  0  0  0  0  0  0  0  0  0  0
    6.4520    1.6780   -1.2170 C   0  0  0  0  0  0  0  0  0  0  0  0
    7.3620    2.3340   -1.7790 O   0  0  0  0  0  0  0  0  0  0  0  0
  1  2  2  0
  2  3  1  0
  3  4  2  0
  3 28  1  0
  4  5  1  0
  5  6  2  3
  5 27  1  0
  6  7  1  0
  7  8  2  0
  7  9  1  0
  9 10  1  0
  9 11  2  3
 11 12  1  0
 12 13  2  0
 12 23  1  0
 13 14  1  0
 13 15  1  0
 15 16  1  0
 15 18  2  0
 16 17  1  0
 18 19  1  0
 18 21  1  0
 19 20  1  0
 21 22  1  0
 21 23  2  0
 23 24  1  0
 24 25  1  0
 25 26  1  0
 27 28  1  0
 28 29  2  0
M  END
