
     RDKit          3D

 29 31  0  0  0  0  0  0  0  0999 V2000
   -3.7570   -2.7710   -2.0490 C   0  0  0  0  0  0  0  0  0  0  0  0
   -4.0780   -2.2640   -0.8910 C   0  0  0  0  0  0  0  0  0  0  0  0
   -5.4100   -2.5670   -0.2780 C   0  0  0  0  0  0  0  0  0  0  0  0
   -6.3130   -1.0530   -0.0400 Cl  0  0  0  0  0  0  0  0  0  0  0  0
   -3.0960   -1.3810   -0.1860 C   0  0  0  0  0  0  0  0  0  0  0  0
   -1.8140   -1.2280   -0.9230 C   0  0  0  0  0  0  0  0  0  0  0  0
   -0.8960   -0.3910   -0.2260 N   0  0  0  0  0  0  0  0  0  0  0  0
   -1.1770    1.0010   -0.5290 C   0  0  0  0  0  0  0  0  0  0  0  0
   -2.2630    1.2450   -1.1420 O   0  0  0  0  0  0  0  0  0  0  0  0
   -0.4350    2.2190   -0.2610 C   0  0  0  0  0  0  0  0  0  0  0  0
    0.9370    2.2490    0.0260 C   0  0  0  0  0  0  0  0  0  0  0  0
    1.5140    3.4590    0.2580 C   0  0  0  0  0  0  0  0  0  0  0  0
    0.7480    4.6210    0.2070 C   0  0  0  0  0  0  0  0  0  0  0  0
   -0.6130    4.6070   -0.0760 C   0  0  0  0  0  0  0  0  0  0  0  0
   -1.1710    3.3700   -0.3070 C   0  0  0  0  0  0  0  0  0  0  0  0
   -2.5980    3.6290   -0.5770 C   0  0  0  0  0  0  0  0  0  0  0  0
   -2.8430    4.9360   -0.1620 O   0  0  0  0  0  0  0  0  0  0  0  0
   -1.6760    5.6530   -0.2020 C   0  0  0  0  0  0  0  0  0  0  0  0
    1.8370    1.0900    0.1010 C   0  0  0  0  0  0  0  0  0  0  0  0
    1.4810   -0.1520    0.3300 C   0  0  0  0  0  0  0  0  0  0  0  0
    2.8680   -1.2780    0.3410 S   0  0  0  0  0  0  0  0  0  0  0  0
    4.4070   -0.3970    0.0030 C   0  0  0  0  0  0  0  0  0  0  0  0
    5.5370   -1.3570    0.0190 C   0  0  0  0  0  0  0  0  0  0  0  0
    5.8440   -1.9130   -1.0630 O   0  0  0  0  0  0  0  0  0  0  0  0
    6.2170   -1.6180    1.2010 O   0  0  0  0  0  0  0  0  0  0  0  0
    7.2940   -2.5520    1.1470 C   0  0  0  0  0  0  0  0  0  0  0  0
    0.1630   -0.8190    0.6040 C   0  0  2  0  0  0  0  0  0  0  0  0
    0.3940   -2.2540    0.8240 C   0  0  0  0  0  0  0  0  0  0  0  0
   -0.6860   -3.0490    1.4790 C   0  0  0  0  0  0  0  0  0  0  0  0
  1  2  2  0
  2  3  1  0
  2  5  1  0
  3  4  1  0
  5  6  1  0
  6  7  1  0
  7  8  1  0
  7 27  1  0
  8  9  2  0
  8 10  1  0
 10 11  2  0
 10 15  1  0
 11 12  1  0
 11 19  1  0
 12 13  2  0
 13 14  1  0
 14 15  2  0
 14 18  1  0
 15 16  1  0
 16 17  1  0
 17 18  1  0
 19 20  2  0
 20 21  1  0
 20 27  1  0
 21 22  1  0
 22 23  1  0
 23 24  2  0
 23 25  1  0
 25 26  1  0
 27 28  1  6
 28 29  1  0
M  END
