
     RDKit          3D

 34 36  0  0  0  0  0  0  0  0999 V2000
    5.4690    3.0150    0.9590 C   0  0  0  0  0  0  0  0  0  0  0  0
    4.6040    1.8310    1.2390 C   0  0  0  0  0  0  0  0  0  0  0  0
    3.4310    1.7280    2.5820 S   0  0  0  0  0  0  0  0  0  0  0  0
    2.8690    0.0630    2.1880 C   0  0  0  0  0  0  0  0  0  0  0  0
    1.6640   -0.8500    3.0990 S   0  0  0  0  0  0  0  0  0  0  0  0
   -0.0280   -0.5700    2.6390 C   0  0  0  0  0  0  0  0  0  0  0  0
   -0.3720   -1.0670    1.2940 C   0  0  0  0  0  0  0  0  0  0  0  0
    0.4120   -1.6590    0.5150 O   0  0  0  0  0  0  0  0  0  0  0  0
   -1.6780   -0.8910    0.7820 O   0  0  0  0  0  0  0  0  0  0  0  0
   -2.0420   -1.3510   -0.4950 C   0  0  2  0  0  0  0  0  0  0  0  0
   -2.5910   -0.2400   -1.3660 C   0  0  0  0  0  0  0  0  0  0  0  0
   -3.9650   -0.6530   -1.8120 C   0  0  2  0  0  0  0  0  0  0  0  0
   -5.0490    0.1280   -1.1480 C   0  0  0  0  0  0  0  0  0  0  0  0
   -5.1850    0.1470    0.2230 C   0  0  0  0  0  0  0  0  0  0  0  0
   -6.1820    0.8620    0.8560 C   0  0  0  0  0  0  0  0  0  0  0  0
   -7.0910    1.5940    0.1230 C   0  0  0  0  0  0  0  0  0  0  0  0
   -8.1770    2.3710    0.8120 C   0  0  0  0  0  0  0  0  0  0  0  0
   -9.2620    1.4880    0.9160 O   0  0  0  0  0  0  0  0  0  0  0  0
   -6.9710    1.5870   -1.2480 C   0  0  0  0  0  0  0  0  0  0  0  0
   -5.9620    0.8630   -1.8760 C   0  0  0  0  0  0  0  0  0  0  0  0
   -4.0860   -2.1290   -1.5000 C   0  0  0  0  0  0  0  0  0  0  0  0
   -3.0840   -2.3950   -0.4380 C   0  0  0  0  0  0  0  0  0  0  0  0
   -3.1200   -3.3120    0.3370 O   0  0  0  0  0  0  0  0  0  0  0  0
    3.6250   -0.2730    1.0650 C   0  0  0  0  0  0  0  0  0  0  0  0
    3.4670   -1.6070    0.4360 N   0  0  0  0  0  0  0  0  0  0  0  0
    4.4990    0.6540    0.6100 C   0  0  0  0  0  0  0  0  0  0  0  0
    5.3450    0.4060   -0.5690 N   0  0  0  0  0  0  0  0  0  0  0  0
    6.6240   -0.1660   -0.4470 C   0  0  0  0  0  0  0  0  0  0  0  0
    7.0200   -0.4610    0.7270 O   0  0  0  0  0  0  0  0  0  0  0  0
    7.5180   -0.4390   -1.5990 C   0  0  1  0  0  0  0  0  0  0  0  0
    6.9590   -1.3190   -2.4900 F   0  0  0  0  0  0  0  0  0  0  0  0
    7.7220    0.7870   -2.2290 F   0  0  0  0  0  0  0  0  0  0  0  0
    8.8730   -0.9470   -1.1170 C   0  0  0  0  0  0  0  0  0  0  0  0
    8.6420   -2.1240   -0.3990 O   0  0  0  0  0  0  0  0  0  0  0  0
  1  2  1  0
  2  3  1  0
  2 26  2  0
  3  4  1  0
  4  5  1  0
  4 24  2  0
  5  6  1  0
  6  7  1  0
  7  8  2  0
  7  9  1  0
 10  9  1  1
 10 11  1  0
 10 22  1  0
 11 12  1  0
 12 13  1  1
 12 21  1  0
 13 14  2  0
 13 20  1  0
 14 15  1  0
 15 16  2  0
 16 17  1  0
 16 19  1  0
 17 18  1  0
 19 20  2  0
 21 22  1  0
 22 23  2  0
 24 25  1  0
 24 26  1  0
 26 27  1  0
 27 28  1  0
 28 29  2  0
 28 30  1  0
 30 31  1  6
 30 32  1  0
 30 33  1  0
 33 34  1  0
M  END
