
     RDKit          3D

 29 31  0  0  0  0  0  0  0  0999 V2000
   -3.7830    4.1390   -0.1520 C   0  0  0  0  0  0  0  0  0  0  0  0
   -4.1090    2.7110   -0.5830 C   0  0  0  0  0  0  0  0  0  0  0  0
   -3.2600    1.8010    0.2960 C   0  0  0  0  0  0  0  0  0  0  0  0
   -3.5160    0.4620   -0.0550 O   0  0  0  0  0  0  0  0  0  0  0  0
   -2.9110   -0.6170    0.5490 C   0  0  0  0  0  0  0  0  0  0  0  0
   -1.9740   -0.4710    1.5780 C   0  0  0  0  0  0  0  0  0  0  0  0
   -1.3630   -1.5230    2.1890 C   0  0  0  0  0  0  0  0  0  0  0  0
   -0.3680   -1.3350    3.2480 C   0  0  0  0  0  0  0  0  0  0  0  0
    1.3290   -1.4900    2.7770 S   0  0  0  0  0  0  0  0  0  0  0  0
    1.9600   -0.1510    1.7950 C   0  0  0  0  0  0  0  0  0  0  0  0
    3.2180   -0.2570    1.2000 C   0  0  0  0  0  0  0  0  0  0  0  0
    3.7550    0.7610    0.4630 C   0  0  0  0  0  0  0  0  0  0  0  0
    5.0880    0.6400   -0.1610 C   0  0  0  0  0  0  0  0  0  0  0  0
    5.8900   -0.4770   -0.0600 C   0  0  0  0  0  0  0  0  0  0  0  0
    7.0460   -0.2150   -0.7680 C   0  0  0  0  0  0  0  0  0  0  0  0
    6.8860    1.0650   -1.2700 C   0  0  0  0  0  0  0  0  0  0  0  0
    7.8950    1.7680   -2.1050 C   0  0  0  0  0  0  0  0  0  0  0  0
    5.7210    1.5050   -0.8780 O   0  0  0  0  0  0  0  0  0  0  0  0
    3.0120    1.9080    0.3190 C   0  0  0  0  0  0  0  0  0  0  0  0
    1.7690    2.0520    0.8890 C   0  0  0  0  0  0  0  0  0  0  0  0
    1.0940    3.1130    0.7500 O   0  0  0  0  0  0  0  0  0  0  0  0
    1.3080    0.9990    1.6050 N   0  0  0  0  0  0  0  0  0  0  0  0
   -1.7020   -2.8160    1.7530 C   0  0  0  0  0  0  0  0  0  0  0  0
   -2.6170   -2.9950    0.7460 C   0  0  0  0  0  0  0  0  0  0  0  0
   -3.2130   -1.8990    0.1520 C   0  0  0  0  0  0  0  0  0  0  0  0
   -4.1400   -2.1210   -0.8690 O   0  0  0  0  0  0  0  0  0  0  0  0
   -4.4630   -3.4190   -1.2880 C   0  0  0  0  0  0  0  0  0  0  0  0
   -5.4760   -3.4420   -2.3940 C   0  0  0  0  0  0  0  0  0  0  0  0
   -5.8680   -5.0940   -2.9020 Cl  0  0  0  0  0  0  0  0  0  0  0  0
  1  2  1  0
  2  3  1  0
  3  4  1  0
  4  5  1  0
  5  6  2  0
  5 25  1  0
  6  7  1  0
  7  8  1  0
  7 23  2  0
  8  9  1  0
  9 10  1  0
 10 11  2  0
 10 22  1  0
 11 12  1  0
 12 13  1  0
 12 19  2  0
 13 14  2  0
 13 18  1  0
 14 15  1  0
 15 16  2  0
 16 17  1  0
 16 18  1  0
 19 20  1  0
 20 21  2  0
 20 22  1  0
 23 24  1  0
 24 25  2  0
 25 26  1  0
 26 27  1  0
 27 28  1  0
 28 29  1  0
M  END
