
     RDKit          3D

 29 31  0  0  0  0  0  0  0  0999 V2000
   -6.3530   -3.5870    0.1930 C   0  0  0  0  0  0  0  0  0  0  0  0
   -6.6580   -2.3460   -0.0610 C   0  0  0  0  0  0  0  0  0  0  0  0
   -7.9790   -1.8320   -0.4330 C   0  0  0  0  0  0  0  0  0  0  0  0
   -7.8840   -0.5360   -0.6060 C   0  0  0  0  0  0  0  0  0  0  0  0
   -6.5130   -0.1350   -0.3590 C   0  0  0  0  0  0  0  0  0  0  0  0
   -5.7720   -1.1870   -0.0360 C   0  0  0  0  0  0  0  0  0  0  0  0
   -4.3200   -1.1780    0.2860 C   0  0  0  0  0  0  0  0  0  0  0  0
   -3.8570    0.1310    0.1920 O   0  0  0  0  0  0  0  0  0  0  0  0
   -2.5490    0.5450    0.4220 C   0  0  0  0  0  0  0  0  0  0  0  0
   -1.5600   -0.3620    0.7790 C   0  0  0  0  0  0  0  0  0  0  0  0
   -0.2540    0.0180    1.0140 C   0  0  0  0  0  0  0  0  0  0  0  0
    0.1190    1.3410    0.8980 C   0  0  0  0  0  0  0  0  0  0  0  0
    1.5050    1.7680    1.1430 C   0  0  1  0  0  0  0  0  0  0  0  0
    1.8140    2.0040    2.6070 C   0  0  0  0  0  0  0  0  0  0  0  0
    2.4980    0.9000    0.5170 N   0  0  0  0  0  0  0  0  0  0  0  0
    3.3530    1.3460   -0.5020 C   0  0  0  0  0  0  0  0  0  0  0  0
    3.2500    2.5640   -0.8580 O   0  0  0  0  0  0  0  0  0  0  0  0
    4.3770    0.4720   -1.1780 C   0  0  0  0  0  0  0  0  0  0  0  0
    5.6320    0.9130   -1.4330 C   0  0  0  0  0  0  0  0  0  0  0  0
    6.5300    0.0900   -1.9470 C   0  0  0  0  0  0  0  0  0  0  0  0
    7.8790    0.2840   -2.3030 O   0  0  0  0  0  0  0  0  0  0  0  0
    8.8220    0.1440   -1.2530 C   0  0  0  0  0  0  0  0  0  0  0  0
    5.6840   -1.4870   -2.1480 S   0  0  0  0  0  0  0  0  0  0  0  0
    4.0920   -0.8220   -1.4710 C   0  0  0  0  0  0  0  0  0  0  0  0
    2.8990   -1.6590   -1.4540 C   0  0  0  0  0  0  0  0  0  0  0  0
    1.7560   -1.2860   -1.1780 O   0  0  0  0  0  0  0  0  0  0  0  0
   -0.8740    2.2470    0.5390 C   0  0  0  0  0  0  0  0  0  0  0  0
   -2.1770    1.8690    0.3050 C   0  0  0  0  0  0  0  0  0  0  0  0
   -3.3550    3.0780   -0.1400 Cl  0  0  0  0  0  0  0  0  0  0  0  0
  1  2  2  0
  2  3  1  0
  2  6  1  0
  3  4  2  0
  4  5  1  0
  5  6  2  0
  6  7  1  0
  7  8  1  0
  8  9  1  0
  9 10  2  0
  9 28  1  0
 10 11  1  0
 11 12  2  0
 12 13  1  0
 12 27  1  0
 13 14  1  1
 13 15  1  0
 15 16  1  0
 16 17  2  0
 16 18  1  0
 18 19  1  0
 18 24  2  0
 19 20  2  0
 20 21  1  0
 20 23  1  0
 21 22  1  0
 23 24  1  0
 24 25  1  0
 25 26  2  0
 27 28  2  0
 28 29  1  0
M  END
