
     RDKit          3D

 35 37  0  0  0  0  0  0  0  0999 V2000
   -4.0950    0.3560   -2.2740 C   0  0  0  0  0  0  0  0  0  0  0  0
   -3.3300    1.5900   -2.5920 C   0  0  0  0  0  0  0  0  0  0  0  0
   -1.9770    1.7200   -1.9700 C   0  0  0  0  0  0  0  0  0  0  0  0
   -1.8290    1.7530   -0.6530 O   0  0  0  0  0  0  0  0  0  0  0  0
   -2.0020    1.0900    0.5070 C   0  0  0  0  0  0  0  0  0  0  0  0
   -2.6940    1.6660    1.4660 C   0  0  0  0  0  0  0  0  0  0  0  0
   -2.9630    1.1130    2.7620 C   0  0  0  0  0  0  0  0  0  0  0  0
   -2.5160   -0.1290    3.2740 N   0  0  0  0  0  0  0  0  0  0  0  0
   -3.6880    1.8030    3.5650 O   0  0  0  0  0  0  0  0  0  0  0  0
   -3.2580    3.0410    1.1900 C   0  0  1  0  0  0  0  0  0  0  0  0
   -4.6330    2.9760    1.2580 F   0  0  0  0  0  0  0  0  0  0  0  0
   -2.8650    3.9250    2.1760 F   0  0  0  0  0  0  0  0  0  0  0  0
   -2.9150    3.4870   -0.0660 F   0  0  0  0  0  0  0  0  0  0  0  0
   -1.3970   -0.2390    0.5880 C   0  0  0  0  0  0  0  0  0  0  0  0
    0.0050   -0.3020    0.5750 C   0  0  0  0  0  0  0  0  0  0  0  0
    0.7270    0.9710    0.5730 C   0  0  0  0  0  0  0  0  0  0  0  0
    2.5030    0.7040    0.4370 S   0  0  0  0  0  0  0  0  0  0  0  0
    3.0570    0.2280   -1.1950 C   0  0  0  0  0  0  0  0  0  0  0  0
    4.5430    0.0010   -1.1670 C   0  0  1  0  0  0  0  0  0  0  0  0
    5.0430   -0.3750   -2.4130 O   0  0  0  0  0  0  0  0  0  0  0  0
    5.2490    1.2550   -0.6580 C   0  0  0  0  0  0  0  0  0  0  0  0
    6.7320    0.8620   -0.7170 C   0  0  0  0  0  0  0  0  0  0  0  0
    6.6430   -0.7750    0.0250 S   0  0  2  0  0  0  0  0  0  0  0  0
    7.0450   -0.7560    1.4560 O   0  0  0  0  0  0  0  0  0  0  0  0
    7.4070   -1.7640   -0.7870 O   0  0  0  0  0  0  0  0  0  0  0  0
    4.8750   -1.0690   -0.1500 C   0  0  0  0  0  0  0  0  0  0  0  0
    0.5470   -1.5610    0.6120 C   0  0  0  0  0  0  0  0  0  0  0  0
    1.7950   -1.6940    0.6100 O   0  0  0  0  0  0  0  0  0  0  0  0
   -0.2310   -2.6760    0.6570 N   0  0  0  0  0  0  0  0  0  0  0  0
   -1.5740   -2.6040    0.6680 C   0  0  0  0  0  0  0  0  0  0  0  0
   -2.3330   -3.7490    0.6950 C   0  0  0  0  0  0  0  0  0  0  0  0
   -3.7010   -3.6690    0.6860 C   0  0  0  0  0  0  0  0  0  0  0  0
   -4.3300   -2.4520    0.6500 C   0  0  0  0  0  0  0  0  0  0  0  0
   -3.5730   -1.3070    0.6240 C   0  0  0  0  0  0  0  0  0  0  0  0
   -2.2010   -1.3470    0.6320 C   0  0  0  0  0  0  0  0  0  0  0  0
  1  2  1  0
  2  3  1  0
  3  4  1  0
  4  5  1  0
  5  6  2  3
  5 14  1  0
  6  7  1  0
  6 10  1  0
  7  8  1  0
  7  9  2  0
 10 11  1  6
 10 12  1  0
 10 13  1  0
 14 15  2  0
 14 35  1  0
 15 16  1  0
 15 27  1  0
 16 17  1  0
 17 18  1  0
 18 19  1  0
 19 20  1  6
 19 21  1  0
 19 26  1  0
 21 22  1  0
 23 22  1  6
 23 24  2  0
 23 25  2  0
 23 26  1  0
 27 28  2  0
 27 29  1  0
 29 30  1  0
 30 31  2  0
 30 35  1  0
 31 32  1  0
 32 33  2  0
 33 34  1  0
 34 35  2  0
M  END
