
     RDKit          3D

 35 37  0  0  0  0  0  0  0  0999 V2000
   -2.4850   -4.8170    0.0290 N   0  0  0  0  0  0  0  0  0  0  0  0
   -1.2300   -4.4630   -0.5250 C   0  0  0  0  0  0  0  0  0  0  0  0
   -1.0820   -4.4350   -2.1440 S   0  0  0  0  0  0  0  0  0  0  0  0
   -0.0930   -4.1280    0.3620 C   0  0  0  0  0  0  0  0  0  0  0  0
   -0.3610   -3.0300    1.1950 O   0  0  0  0  0  0  0  0  0  0  0  0
   -0.6700   -1.7680    0.6620 C   0  0  0  0  0  0  0  0  0  0  0  0
    0.2610   -1.1360    0.0150 C   0  0  0  0  0  0  0  0  0  0  0  0
    0.0870    0.1850   -0.5960 C   0  0  2  0  0  0  0  0  0  0  0  0
   -0.4900    0.1090   -1.9260 N   0  0  0  0  0  0  0  0  0  0  0  0
    1.4480    0.8580   -0.7480 C   0  0  1  0  0  0  0  0  0  0  0  0
    2.0890    1.0100    0.6030 C   0  0  0  0  0  0  0  0  0  0  0  0
    3.2950    1.9030    0.4860 C   0  0  0  0  0  0  0  0  0  0  0  0
    4.1420    1.4640   -0.6800 C   0  0  1  0  0  0  0  0  0  0  0  0
    5.5960    1.5310   -0.3170 C   0  0  0  0  0  0  0  0  0  0  0  0
    6.3690    2.2710   -0.9710 O   0  0  0  0  0  0  0  0  0  0  0  0
    6.1310    0.8050    0.7200 O   0  0  0  0  0  0  0  0  0  0  0  0
    7.7630    0.8780    1.1300 S   0  0  1  0  0  0  0  0  0  0  0  0
    8.4360    2.0430    0.4890 O   0  0  0  0  0  0  0  0  0  0  0  0
    7.8710    0.9910    2.6340 O   0  0  0  0  0  0  0  0  0  0  0  0
    3.7450    0.0640   -1.0740 C   0  0  0  0  0  0  0  0  0  0  0  0
    2.3650    0.1260   -1.6770 C   0  0  0  0  0  0  0  0  0  0  0  0
   -2.0360   -1.2390    0.8720 C   0  0  0  0  0  0  0  0  0  0  0  0
   -3.0350   -1.9030    1.5490 C   0  0  0  0  0  0  0  0  0  0  0  0
   -4.1520   -1.0790    1.5260 C   0  0  0  0  0  0  0  0  0  0  0  0
   -3.7880    0.0470    0.8400 C   0  0  0  0  0  0  0  0  0  0  0  0
   -4.6240    1.2100    0.5520 C   0  0  0  0  0  0  0  0  0  0  0  0
   -4.0850    2.2770   -0.1480 C   0  0  0  0  0  0  0  0  0  0  0  0
   -2.7820    2.2460   -0.5620 F   0  0  0  0  0  0  0  0  0  0  0  0
   -4.8260    3.3930   -0.4470 C   0  0  0  0  0  0  0  0  0  0  0  0
   -6.1520    3.4980   -0.0580 C   0  0  0  0  0  0  0  0  0  0  0  0
   -6.8990    4.5970   -0.3470 F   0  0  0  0  0  0  0  0  0  0  0  0
   -6.7090    2.4570    0.6350 C   0  0  0  0  0  0  0  0  0  0  0  0
   -5.9350    1.3280    0.9300 C   0  0  0  0  0  0  0  0  0  0  0  0
   -6.5340    0.3130    1.6240 F   0  0  0  0  0  0  0  0  0  0  0  0
   -2.5330   -0.1050    0.4810 O   0  0  0  0  0  0  0  0  0  0  0  0
  1  2  1  0
  2  3  2  0
  2  4  1  0
  4  5  1  0
  5  6  1  0
  6  7  2  3
  6 22  1  0
  7  8  1  0
  8  9  1  6
  8 10  1  0
 10 11  1  1
 10 21  1  0
 11 12  1  0
 12 13  1  0
 13 14  1  1
 13 20  1  0
 14 15  2  0
 14 16  1  0
 17 16  1  1
 17 18  2  0
 17 19  2  0
 20 21  1  0
 22 23  2  0
 22 35  1  0
 23 24  1  0
 24 25  2  0
 25 26  1  0
 25 35  1  0
 26 27  2  0
 26 33  1  0
 27 28  1  0
 27 29  1  0
 29 30  2  0
 30 31  1  0
 30 32  1  0
 32 33  2  0
 33 34  1  0
M  END
