
     RDKit          3D

 29 31  0  0  0  0  0  0  0  0999 V2000
   -6.4560    2.7150   -0.6300 C   0  0  0  0  0  0  0  0  0  0  0  0
   -6.2100    1.4140   -0.3880 C   0  0  0  0  0  0  0  0  0  0  0  0
   -7.1410    0.3800   -0.8760 C   0  0  0  0  0  0  0  0  0  0  0  0
   -6.7330   -0.9980   -0.5320 C   0  0  0  0  0  0  0  0  0  0  0  0
   -5.6600   -1.3310    0.1400 C   0  0  0  0  0  0  0  0  0  0  0  0
   -5.3680   -2.7550    0.4170 C   0  0  0  0  0  0  0  0  0  0  0  0
   -4.7890   -0.2660    0.5890 C   0  0  0  0  0  0  0  0  0  0  0  0
   -3.3620   -0.7190    1.4840 S   0  0  1  0  0  0  0  0  0  0  0  0
   -3.0420    0.4220    2.4210 O   0  0  0  0  0  0  0  0  0  0  0  0
   -3.6010   -1.9260    2.3360 O   0  0  0  0  0  0  0  0  0  0  0  0
   -2.0030   -1.0010    0.5060 N   0  0  0  0  0  0  0  0  0  0  0  0
   -1.5440    0.1080   -0.2620 C   0  0  0  0  0  0  0  0  0  0  0  0
   -0.3330   -0.3560   -1.0580 C   0  0  0  0  0  0  0  0  0  0  0  0
    0.6970   -0.7960   -0.2680 O   0  0  0  0  0  0  0  0  0  0  0  0
    1.1780    0.1760    0.6050 C   0  0  0  0  0  0  0  0  0  0  0  0
    1.7020    1.3830   -0.0910 C   0  0  0  0  0  0  0  0  0  0  0  0
    2.7360    1.2310   -0.9620 O   0  0  0  0  0  0  0  0  0  0  0  0
    4.0180    0.8280   -0.8840 C   0  0  0  0  0  0  0  0  0  0  0  0
    4.8090    0.7800   -2.0450 C   0  0  0  0  0  0  0  0  0  0  0  0
    6.1120    0.3800   -2.0150 C   0  0  0  0  0  0  0  0  0  0  0  0
    6.7080    0.0020   -0.8250 C   0  0  0  0  0  0  0  0  0  0  0  0
    8.0290   -0.4060   -0.7840 C   0  0  0  0  0  0  0  0  0  0  0  0
    8.5970   -0.7760    0.4130 C   0  0  0  0  0  0  0  0  0  0  0  0
    7.8570   -0.7450    1.5750 C   0  0  0  0  0  0  0  0  0  0  0  0
    6.5490   -0.3360    1.5060 C   0  0  0  0  0  0  0  0  0  0  0  0
    5.9500    0.0420    0.3230 C   0  0  0  0  0  0  0  0  0  0  0  0
    4.6150    0.4530    0.2900 C   0  0  0  0  0  0  0  0  0  0  0  0
   -5.0260    1.0100    0.3550 C   0  0  0  0  0  0  0  0  0  0  0  0
   -3.9610    2.2880    0.9090 Cl  0  0  0  0  0  0  0  0  0  0  0  0
  1  2  2  0
  2  3  1  0
  2 28  1  0
  3  4  1  0
  4  5  2  0
  5  6  1  0
  5  7  1  0
  7  8  1  0
  7 28  2  0
  8  9  2  0
  8 10  2  0
  8 11  1  6
 11 12  1  0
 12 13  1  0
 13 14  1  0
 14 15  1  0
 15 16  1  0
 16 17  1  0
 17 18  1  0
 18 19  2  0
 18 27  1  0
 19 20  1  0
 20 21  2  0
 21 22  1  0
 21 26  1  0
 22 23  2  0
 23 24  1  0
 24 25  2  0
 25 26  1  0
 26 27  2  0
 28 29  1  0
M  END
