
     RDKit          3D

 43 48  0  0  0  0  0  0  0  0999 V2000
   -9.1020   -3.8820   -0.6160 C   0  0  0  0  0  0  0  0  0  0  0  0
   -8.2090   -2.7490   -0.2450 C   0  0  0  0  0  0  0  0  0  0  0  0
   -7.5000   -2.7640    0.9460 C   0  0  0  0  0  0  0  0  0  0  0  0
   -6.6660   -1.7270    1.3120 C   0  0  0  0  0  0  0  0  0  0  0  0
   -5.9830   -1.7760    2.4970 F   0  0  0  0  0  0  0  0  0  0  0  0
   -6.5050   -0.6250    0.4980 C   0  0  0  0  0  0  0  0  0  0  0  0
   -5.5940    0.4790    0.9190 C   0  0  0  0  0  0  0  0  0  0  0  0
   -4.1950   -0.0050    0.6810 C   0  0  0  0  0  0  0  0  0  0  0  0
   -3.9500   -1.1530    0.2070 O   0  0  0  0  0  0  0  0  0  0  0  0
   -3.0600    0.8110    0.9780 N   0  0  0  0  0  0  0  0  0  0  0  0
   -1.7440    0.3130    0.7350 C   0  0  0  0  0  0  0  0  0  0  0  0
   -1.5440   -0.9160    0.2240 N   0  0  0  0  0  0  0  0  0  0  0  0
   -0.3100   -1.3900   -0.0100 C   0  0  0  0  0  0  0  0  0  0  0  0
    0.8470   -0.6370    0.2620 C   0  0  0  0  0  0  0  0  0  0  0  0
    2.1330   -1.2460   -0.0060 C   0  0  0  0  0  0  0  0  0  0  0  0
    2.1100   -2.3210   -0.7130 O   0  0  0  0  0  0  0  0  0  0  0  0
    3.3790   -0.8160    0.4040 N   0  0  0  0  0  0  0  0  0  0  0  0
    4.6280   -1.4310    0.1140 C   0  0  0  0  0  0  0  0  0  0  0  0
    4.8310   -2.3910   -0.8400 C   0  0  0  0  0  0  0  0  0  0  0  0
    6.0910   -2.9730   -1.0680 C   0  0  0  0  0  0  0  0  0  0  0  0
    7.1900   -2.5990   -0.3360 C   0  0  0  0  0  0  0  0  0  0  0  0
    8.4270   -3.1650   -0.5550 C   0  0  0  0  0  0  0  0  0  0  0  0
    9.5280   -2.7860    0.1820 C   0  0  0  0  0  0  0  0  0  0  0  0
    9.3350   -1.8180    1.1460 C   0  0  0  0  0  0  0  0  0  0  0  0
    8.1010   -1.2480    1.3700 C   0  0  0  0  0  0  0  0  0  0  0  0
    6.9860   -1.6330    0.6220 C   0  0  0  0  0  0  0  0  0  0  0  0
    5.7650   -1.0570    0.8560 C   0  0  0  0  0  0  0  0  0  0  0  0
    0.6840    0.6140    0.7790 C   0  0  0  0  0  0  0  0  0  0  0  0
    1.7630    1.4640    1.0740 N   0  0  0  0  0  0  0  0  0  0  0  0
    2.0600    2.5420    0.4890 C   0  0  0  0  0  0  0  0  0  0  0  0
    3.0790    3.3600    0.7570 N   0  0  0  0  0  0  0  0  0  0  0  0
    3.0610    4.4190   -0.0970 C   0  0  0  0  0  0  0  0  0  0  0  0
    3.8470    5.5190   -0.2600 C   0  0  0  0  0  0  0  0  0  0  0  0
    3.5470    6.4330   -1.2520 C   0  0  0  0  0  0  0  0  0  0  0  0
    2.4390    6.1900   -2.0510 C   0  0  0  0  0  0  0  0  0  0  0  0
    1.6610    5.1110   -1.8960 N   0  0  0  0  0  0  0  0  0  0  0  0
    1.9790    4.2370   -0.9220 C   0  0  0  0  0  0  0  0  0  0  0  0
    1.3970    3.0880   -0.5350 N   0  0  0  0  0  0  0  0  0  0  0  0
   -0.6210    1.0540    1.0020 C   0  0  0  0  0  0  0  0  0  0  0  0
   -0.7460    2.4410    1.5770 C   0  0  0  0  0  0  0  0  0  0  0  0
   -7.2070   -0.6030   -0.6890 C   0  0  0  0  0  0  0  0  0  0  0  0
   -8.0500   -1.6490   -1.0620 C   0  0  0  0  0  0  0  0  0  0  0  0
   -8.7850   -1.5750   -2.3560 C   0  0  0  0  0  0  0  0  0  0  0  0
  1  2  1  0
  2  3  2  0
  2 42  1  0
  3  4  1  0
  4  5  1  0
  4  6  2  0
  6  7  1  0
  6 41  1  0
  7  8  1  0
  8  9  2  0
  8 10  1  0
 10 11  1  0
 11 12  2  0
 11 39  1  0
 12 13  1  0
 13 14  2  0
 14 15  1  0
 14 28  1  0
 15 16  2  0
 15 17  1  0
 17 18  1  0
 18 19  2  0
 18 27  1  0
 19 20  1  0
 20 21  2  0
 21 22  1  0
 21 26  1  0
 22 23  2  0
 23 24  1  0
 24 25  2  0
 25 26  1  0
 26 27  2  0
 28 29  1  0
 28 39  2  0
 29 30  2  3
 30 31  1  0
 30 38  1  0
 31 32  1  0
 32 33  2  0
 32 37  1  0
 33 34  1  0
 34 35  2  0
 35 36  1  0
 36 37  2  0
 37 38  1  0
 39 40  1  0
 41 42  2  0
 42 43  1  0
M  END
