
     RDKit          3D

 43 48  0  0  0  0  0  0  0  0999 V2000
   -8.2770   -2.5240    2.5410 C   0  0  0  0  0  0  0  0  0  0  0  0
   -7.9580   -3.5710    1.7940 C   0  0  0  0  0  0  0  0  0  0  0  0
   -7.3120   -3.4600    0.4640 C   0  0  0  0  0  0  0  0  0  0  0  0
   -7.1210   -2.0070    0.1650 C   0  0  0  0  0  0  0  0  0  0  0  0
   -5.8830   -1.4030    0.2710 C   0  0  0  0  0  0  0  0  0  0  0  0
   -5.6150   -0.0910    0.0180 C   0  0  0  0  0  0  0  0  0  0  0  0
   -4.3720    0.5430    0.1030 N   0  0  0  0  0  0  0  0  0  0  0  0
   -3.1920   -0.0330    0.5700 C   0  0  0  0  0  0  0  0  0  0  0  0
   -3.1610   -1.2150    0.9720 O   0  0  0  0  0  0  0  0  0  0  0  0
   -1.9130    0.6890    0.6300 C   0  0  0  0  0  0  0  0  0  0  0  0
   -0.9560    0.3730    1.5720 C   0  0  0  0  0  0  0  0  0  0  0  0
    0.2470    1.0420    1.6160 C   0  0  0  0  0  0  0  0  0  0  0  0
    0.5020    2.0460    0.7010 C   0  0  0  0  0  0  0  0  0  0  0  0
    1.7900    2.7930    0.7160 C   0  0  0  0  0  0  0  0  0  0  0  0
    2.7270    2.1060   -0.1330 N   0  0  0  0  0  0  0  0  0  0  0  0
    3.0130    0.7720    0.2550 C   0  0  0  0  0  0  0  0  0  0  0  0
    3.9470    0.1910   -0.8240 C   0  0  0  0  0  0  0  0  0  0  0  0
    5.1910    0.9030   -0.6130 N   0  0  0  0  0  0  0  0  0  0  0  0
    6.4090    0.1750   -0.6290 C   0  0  0  0  0  0  0  0  0  0  0  0
    6.3960   -1.0910   -0.8270 O   0  0  0  0  0  0  0  0  0  0  0  0
    7.6680    0.7750   -0.4330 N   0  0  0  0  0  0  0  0  0  0  0  0
    8.9220    0.0790   -0.4350 C   0  0  0  0  0  0  0  0  0  0  0  0
   10.1340    0.6800   -0.2440 N   0  0  0  0  0  0  0  0  0  0  0  0
   11.1040   -0.2370   -0.2980 C   0  0  0  0  0  0  0  0  0  0  0  0
   12.4870   -0.1500   -0.1680 C   0  0  0  0  0  0  0  0  0  0  0  0
   13.2590   -1.2770   -0.2700 C   0  0  0  0  0  0  0  0  0  0  0  0
   12.6370   -2.5000   -0.5030 C   0  0  0  0  0  0  0  0  0  0  0  0
   11.2810   -2.6050   -0.6330 C   0  0  0  0  0  0  0  0  0  0  0  0
   10.5060   -1.4760   -0.5320 C   0  0  0  0  0  0  0  0  0  0  0  0
    9.1870   -1.2160   -0.6050 N   0  0  0  0  0  0  0  0  0  0  0  0
    5.1860    2.3250   -0.3880 C   0  0  0  0  0  0  0  0  0  0  0  0
    3.8240    2.9330   -0.5010 C   0  0  0  0  0  0  0  0  0  0  0  0
   -0.4760    2.3360   -0.2260 C   0  0  0  0  0  0  0  0  0  0  0  0
   -1.6610    1.6760   -0.2680 C   0  0  0  0  0  0  0  0  0  0  0  0
   -6.7210    0.6860   -0.3840 C   0  0  0  0  0  0  0  0  0  0  0  0
   -6.5220    2.1270   -0.6740 C   0  0  0  0  0  0  0  0  0  0  0  0
   -7.9710    0.1200   -0.5020 C   0  0  0  0  0  0  0  0  0  0  0  0
   -8.1850   -1.2160   -0.2320 C   0  0  0  0  0  0  0  0  0  0  0  0
   -9.4680   -1.8130   -0.3420 N   0  0  0  0  0  0  0  0  0  0  0  0
  -10.6250   -1.0870   -0.7620 C   0  0  0  0  0  0  0  0  0  0  0  0
  -10.3520    0.3270   -1.0370 C   0  0  0  0  0  0  0  0  0  0  0  0
  -11.4060    1.1260   -1.4370 F   0  0  0  0  0  0  0  0  0  0  0  0
   -9.1580    0.8700   -0.9200 C   0  0  0  0  0  0  0  0  0  0  0  0
  1  2  2  0
  2  3  1  0
  3  4  1  0
  4  5  2  0
  4 38  1  0
  5  6  1  0
  6  7  1  0
  6 35  2  0
  7  8  1  0
  8  9  2  0
  8 10  1  0
 10 11  2  0
 10 34  1  0
 11 12  1  0
 12 13  2  0
 13 14  1  0
 13 33  1  0
 14 15  1  0
 15 16  1  0
 15 32  1  0
 16 17  1  0
 17 18  1  0
 18 19  1  0
 18 31  1  0
 19 20  2  0
 19 21  1  0
 21 22  1  0
 22 23  2  0
 22 30  1  0
 23 24  1  0
 24 25  2  0
 24 29  1  0
 25 26  1  0
 26 27  2  0
 27 28  1  0
 28 29  2  0
 29 30  1  0
 31 32  1  0
 33 34  2  0
 35 36  1  0
 35 37  1  0
 37 38  2  0
 37 43  1  0
 38 39  1  0
 39 40  1  0
 40 41  1  0
 41 42  1  0
 41 43  2  0
M  END
