
     RDKit          3D

 43 48  0  0  0  0  0  0  0  0999 V2000
   -6.7940    1.6990    1.5400 C   0  0  0  0  0  0  0  0  0  0  0  0
   -5.3430    1.4070    1.1830 C   0  0  1  0  0  0  0  0  0  0  0  0
   -4.9970    1.9660   -0.1480 C   0  0  0  0  0  0  0  0  0  0  0  0
   -4.5060    2.0870    2.2470 C   0  0  0  0  0  0  0  0  0  0  0  0
   -5.0610   -0.0860    1.3060 C   0  0  0  0  0  0  0  0  0  0  0  0
   -5.9400   -0.8580    0.3830 C   0  0  0  0  0  0  0  0  0  0  0  0
   -5.8220   -2.3210    0.3960 C   0  0  1  0  0  0  0  0  0  0  0  0
   -6.8730   -2.7780   -0.6000 N   0  0  0  0  0  0  0  0  0  0  0  0
   -4.6150   -3.0090   -0.0630 C   0  0  0  0  0  0  0  0  0  0  0  0
   -3.3280   -2.7130    0.6030 C   0  0  0  0  0  0  0  0  0  0  0  0
   -2.9610   -3.1650    1.8440 N   0  0  0  0  0  0  0  0  0  0  0  0
   -1.7100   -2.8160    2.1120 C   0  0  0  0  0  0  0  0  0  0  0  0
   -1.2200   -2.1030    1.0030 C   0  0  0  0  0  0  0  0  0  0  0  0
    0.1490   -1.5440    0.9370 C   0  0  0  0  0  0  0  0  0  0  0  0
    0.7370   -1.4060    2.0390 O   0  0  0  0  0  0  0  0  0  0  0  0
    0.8210   -1.1760   -0.2240 N   0  0  0  0  0  0  0  0  0  0  0  0
    2.1320   -0.6390   -0.3440 C   0  0  0  0  0  0  0  0  0  0  0  0
    2.5530   -0.3640   -1.5900 N   0  0  0  0  0  0  0  0  0  0  0  0
    3.7530    0.1390   -1.8780 C   0  0  0  0  0  0  0  0  0  0  0  0
    4.1330    0.3910   -3.0500 O   0  0  0  0  0  0  0  0  0  0  0  0
    4.6490    0.4070   -0.8610 C   0  0  0  0  0  0  0  0  0  0  0  0
    5.9070    0.9300   -1.1410 C   0  0  0  0  0  0  0  0  0  0  0  0
    6.7470    1.1690   -0.0710 C   0  0  0  0  0  0  0  0  0  0  0  0
    6.2800    0.8730    1.1980 C   0  0  0  0  0  0  0  0  0  0  0  0
    7.1250    1.1130    2.2640 C   0  0  0  0  0  0  0  0  0  0  0  0
    8.3840    1.6270    2.0700 C   0  0  0  0  0  0  0  0  0  0  0  0
    8.8350    1.9150    0.8160 C   0  0  0  0  0  0  0  0  0  0  0  0
   10.1140    2.4370    0.6000 C   0  0  0  0  0  0  0  0  0  0  0  0
   10.5700    2.7250   -0.6620 C   0  0  0  0  0  0  0  0  0  0  0  0
    9.7350    2.4890   -1.7300 C   0  0  0  0  0  0  0  0  0  0  0  0
    8.4710    1.9780   -1.5620 C   0  0  0  0  0  0  0  0  0  0  0  0
    8.0270    1.6930   -0.2990 C   0  0  0  0  0  0  0  0  0  0  0  0
    5.0540    0.3690    1.4170 N   0  0  0  0  0  0  0  0  0  0  0  0
    4.2070    0.1220    0.4080 C   0  0  0  0  0  0  0  0  0  0  0  0
    2.9710   -0.3910    0.6530 N   0  0  0  0  0  0  0  0  0  0  0  0
   -2.2250   -2.0710    0.1380 N   0  0  0  0  0  0  0  0  0  0  0  0
   -2.2150   -1.4670   -1.1430 C   0  0  0  0  0  0  0  0  0  0  0  0
   -2.2880   -2.3540   -2.2180 C   0  0  0  0  0  0  0  0  0  0  0  0
   -2.3010   -1.8760   -3.4920 C   0  0  0  0  0  0  0  0  0  0  0  0
   -2.2420   -0.5160   -3.6980 C   0  0  0  0  0  0  0  0  0  0  0  0
   -2.1680    0.3910   -2.6650 C   0  0  0  0  0  0  0  0  0  0  0  0
   -2.1550   -0.1320   -1.3650 C   0  0  0  0  0  0  0  0  0  0  0  0
   -2.0520    0.7350   -0.3390 F   0  0  0  0  0  0  0  0  0  0  0  0
  2  1  1  1
  2  3  1  0
  2  4  1  0
  2  5  1  0
  5  6  1  0
  6  7  1  0
  7  8  1  6
  7  9  1  0
  9 10  1  0
 10 11  2  0
 10 36  1  0
 11 12  1  0
 12 13  2  0
 13 14  1  0
 13 36  1  0
 14 15  2  0
 14 16  1  0
 16 17  1  0
 17 18  2  0
 17 35  1  0
 18 19  1  0
 19 20  2  0
 19 21  1  0
 21 22  2  0
 21 34  1  0
 22 23  1  0
 23 24  2  0
 23 32  1  0
 24 25  1  0
 24 33  1  0
 25 26  2  0
 26 27  1  0
 27 28  2  0
 27 32  1  0
 28 29  1  0
 29 30  2  0
 30 31  1  0
 31 32  2  0
 33 34  2  0
 34 35  1  0
 36 37  1  0
 37 38  2  0
 37 42  1  0
 38 39  1  0
 39 40  2  0
 40 41  1  0
 41 42  2  0
 42 43  1  0
M  END
