
     RDKit          3D

 43 48  0  0  0  0  0  0  0  0999 V2000
    2.6610   -4.3890    0.5320 C   0  0  0  0  0  0  0  0  0  0  0  0
    3.7820   -3.4900    0.5770 N   0  0  0  0  0  0  0  0  0  0  0  0
    3.5650   -2.0800    0.2190 C   0  0  0  0  0  0  0  0  0  0  0  0
    2.3590   -1.7330    0.1420 N   0  0  0  0  0  0  0  0  0  0  0  0
    1.8500   -0.4730   -0.1700 C   0  0  0  0  0  0  0  0  0  0  0  0
    1.8720    0.0800   -1.2930 O   0  0  0  0  0  0  0  0  0  0  0  0
    1.1960    0.3320    0.9380 C   0  0  0  0  0  0  0  0  0  0  0  0
   -0.2510    0.5240    0.6270 C   0  0  0  0  0  0  0  0  0  0  0  0
   -1.0380   -0.6110    0.7090 C   0  0  0  0  0  0  0  0  0  0  0  0
   -2.4090   -0.5120    0.4680 C   0  0  0  0  0  0  0  0  0  0  0  0
   -3.1810   -1.6690    0.5710 N   0  0  0  0  0  0  0  0  0  0  0  0
   -4.5470   -1.8250    0.2310 C   0  0  0  0  0  0  0  0  0  0  0  0
   -5.1760   -0.8640   -0.2140 O   0  0  0  0  0  0  0  0  0  0  0  0
   -5.2280   -3.0600    0.3880 N   0  0  0  0  0  0  0  0  0  0  0  0
   -6.5740   -3.3440    0.0970 C   0  0  0  0  0  0  0  0  0  0  0  0
   -6.9940   -4.6840    0.2100 C   0  0  0  0  0  0  0  0  0  0  0  0
   -8.2770   -5.0450   -0.0450 C   0  0  0  0  0  0  0  0  0  0  0  0
   -9.1720   -4.0560   -0.4210 C   0  0  0  0  0  0  0  0  0  0  0  0
   -8.8060   -2.7490   -0.5420 C   0  0  0  0  0  0  0  0  0  0  0  0
   -9.6870   -1.7710   -0.9130 F   0  0  0  0  0  0  0  0  0  0  0  0
   -7.4710   -2.3930   -0.2740 C   0  0  0  0  0  0  0  0  0  0  0  0
   -2.9360    0.7160    0.1540 C   0  0  0  0  0  0  0  0  0  0  0  0
   -2.1440    1.8640    0.0710 C   0  0  0  0  0  0  0  0  0  0  0  0
   -2.7480    3.1600   -0.2340 C   0  0  0  0  0  0  0  0  0  0  0  0
   -4.0730    3.3740   -0.4400 N   0  0  0  0  0  0  0  0  0  0  0  0
   -4.2610    4.6860   -0.6710 C   0  0  0  0  0  0  0  0  0  0  0  0
   -5.3860    5.4680   -0.9340 C   0  0  0  0  0  0  0  0  0  0  0  0
   -5.2560    6.8260   -1.1250 C   0  0  0  0  0  0  0  0  0  0  0  0
   -4.0040    7.4030   -1.0550 C   0  0  0  0  0  0  0  0  0  0  0  0
   -2.9180    6.6280   -0.7990 N   0  0  0  0  0  0  0  0  0  0  0  0
   -3.0320    5.3090   -0.6110 C   0  0  0  0  0  0  0  0  0  0  0  0
   -2.1370    4.3510   -0.3440 N   0  0  0  0  0  0  0  0  0  0  0  0
   -0.7940    1.7550    0.3100 C   0  0  0  0  0  0  0  0  0  0  0  0
    4.7450   -1.2580   -0.0420 C   0  0  0  0  0  0  0  0  0  0  0  0
    4.9750   -0.6680   -1.2570 C   0  0  0  0  0  0  0  0  0  0  0  0
    6.1050    0.1090   -1.4640 C   0  0  0  0  0  0  0  0  0  0  0  0
    6.3920    0.7560   -2.7890 C   0  0  0  0  0  0  0  0  0  0  0  0
    7.0530    0.3300   -0.4640 C   0  0  0  0  0  0  0  0  0  0  0  0
    6.8070   -0.2700    0.7510 C   0  0  0  0  0  0  0  0  0  0  0  0
    5.6740   -1.0480    0.9550 C   0  0  0  0  0  0  0  0  0  0  0  0
    7.8960    0.0670    1.6980 C   0  0  0  0  0  0  0  0  0  0  0  0
    8.9130    0.8330    0.8890 C   0  0  0  0  0  0  0  0  0  0  0  0
    8.3190    1.1020   -0.4600 C   0  0  0  0  0  0  0  0  0  0  0  0
  1  2  1  0
  2  3  1  0
  3  4  2  3
  3 34  1  0
  4  5  1  0
  5  6  2  0
  5  7  1  0
  7  8  1  0
  8  9  2  0
  8 33  1  0
  9 10  1  0
 10 11  1  0
 10 22  2  0
 11 12  1  0
 12 13  2  0
 12 14  1  0
 14 15  1  0
 15 16  2  0
 15 21  1  0
 16 17  1  0
 17 18  2  0
 18 19  1  0
 19 20  1  0
 19 21  2  0
 22 23  1  0
 23 24  1  0
 23 33  2  0
 24 25  2  0
 24 32  1  0
 25 26  1  0
 26 27  2  0
 26 31  1  0
 27 28  1  0
 28 29  2  0
 29 30  1  0
 30 31  2  0
 31 32  1  0
 34 35  2  0
 34 40  1  0
 35 36  1  0
 36 37  1  0
 36 38  2  0
 38 39  1  0
 38 43  1  0
 39 40  2  0
 39 41  1  0
 41 42  1  0
 42 43  1  0
M  END
