
     RDKit          3D

 42 47  0  0  0  0  0  0  0  0999 V2000
    4.6180   -2.4570    0.8830 C   0  0  0  0  0  0  0  0  0  0  0  0
    5.9140   -1.8510    0.4750 C   0  0  0  0  0  0  0  0  0  0  0  0
    7.1160   -2.3280    0.9610 C   0  0  0  0  0  0  0  0  0  0  0  0
    8.0970   -1.5350    0.4670 C   0  0  0  0  0  0  0  0  0  0  0  0
    7.5220   -0.6110   -0.2910 N   0  0  0  0  0  0  0  0  0  0  0  0
    6.1460   -0.7760   -0.3130 C   0  0  0  0  0  0  0  0  0  0  0  0
    5.3230    0.0530   -1.1470 C   0  0  0  0  0  0  0  0  0  0  0  0
    5.9390    1.3720   -1.4610 N   0  0  0  0  0  0  0  0  0  0  0  0
    4.1770   -0.0900   -1.6480 C   0  0  0  0  0  0  0  0  0  0  0  0
    3.0910   -1.0470   -1.7090 C   0  0  0  0  0  0  0  0  0  0  0  0
    1.8520   -0.4800   -1.0880 C   0  0  0  0  0  0  0  0  0  0  0  0
    1.1500    0.5090   -1.7870 C   0  0  0  0  0  0  0  0  0  0  0  0
   -0.0230    1.0280   -1.2230 C   0  0  0  0  0  0  0  0  0  0  0  0
   -0.7480    2.1000   -1.9120 C   0  0  0  0  0  0  0  0  0  0  0  0
   -0.4330    2.3600   -3.2250 C   0  0  0  0  0  0  0  0  0  0  0  0
   -1.1000    3.3600   -3.9360 C   0  0  0  0  0  0  0  0  0  0  0  0
   -2.0770    4.0780   -3.2930 C   0  0  0  0  0  0  0  0  0  0  0  0
   -2.3740    3.7860   -1.9540 C   0  0  0  0  0  0  0  0  0  0  0  0
   -1.6960    2.8180   -1.3400 N   0  0  0  0  0  0  0  0  0  0  0  0
   -0.4770    0.5780   -0.0150 C   0  0  0  0  0  0  0  0  0  0  0  0
   -1.7920    1.0200    0.4920 C   0  0  0  0  0  0  0  0  0  0  0  0
   -1.7990    1.5390    1.6200 O   0  0  0  0  0  0  0  0  0  0  0  0
   -2.9630    0.8510   -0.2540 N   0  0  0  0  0  0  0  0  0  0  0  0
   -4.2380    1.2300    0.1520 C   0  0  0  0  0  0  0  0  0  0  0  0
   -4.5210    1.6900    1.3980 C   0  0  0  0  0  0  0  0  0  0  0  0
   -5.8070    2.0430    1.8220 C   0  0  0  0  0  0  0  0  0  0  0  0
   -6.8400    1.9120    0.9210 C   0  0  0  0  0  0  0  0  0  0  0  0
   -6.5800    1.4510   -0.3390 C   0  0  0  0  0  0  0  0  0  0  0  0
   -7.6210    1.3520   -1.1800 N   0  0  0  0  0  0  0  0  0  0  0  0
   -7.5090    0.9220   -2.4490 C   0  0  0  0  0  0  0  0  0  0  0  0
   -6.2530    0.5660   -2.8920 C   0  0  0  0  0  0  0  0  0  0  0  0
   -5.1320    0.6530   -2.0510 C   0  0  0  0  0  0  0  0  0  0  0  0
   -5.2940    1.0990   -0.7680 C   0  0  0  0  0  0  0  0  0  0  0  0
    0.2290   -0.3940    0.6580 C   0  0  0  0  0  0  0  0  0  0  0  0
   -0.1750   -0.8970    1.9040 N   0  0  0  0  0  0  0  0  0  0  0  0
    0.0640   -0.2280    3.1390 C   0  0  0  0  0  0  0  0  0  0  0  0
    0.5820   -1.3610    4.0740 C   0  0  0  0  0  0  0  0  0  0  0  0
    1.0630   -2.4280    3.3480 O   0  0  0  0  0  0  0  0  0  0  0  0
    0.1230   -3.1250    2.6200 C   0  0  1  0  0  0  0  0  0  0  0  0
   -0.5590   -4.2380    3.3520 C   0  0  0  0  0  0  0  0  0  0  0  0
   -0.8690   -2.1630    1.9480 C   0  0  0  0  0  0  0  0  0  0  0  0
    1.3800   -0.8810    0.0750 N   0  0  0  0  0  0  0  0  0  0  0  0
  1  2  1  0
  2  3  1  0
  2  6  2  0
  3  4  2  0
  4  5  1  0
  5  6  1  0
  6  7  1  0
  7  8  1  0
  7  9  2  3
  9 10  1  0
 10 11  1  0
 11 12  2  0
 11 42  1  0
 12 13  1  0
 13 14  1  0
 13 20  2  0
 14 15  2  0
 14 19  1  0
 15 16  1  0
 16 17  2  0
 17 18  1  0
 18 19  2  0
 20 21  1  0
 20 34  1  0
 21 22  2  0
 21 23  1  0
 23 24  1  0
 24 25  2  0
 24 33  1  0
 25 26  1  0
 26 27  2  0
 27 28  1  0
 28 29  2  0
 28 33  1  0
 29 30  1  0
 30 31  2  0
 31 32  1  0
 32 33  2  0
 34 35  1  0
 34 42  2  0
 35 36  1  0
 35 41  1  0
 36 37  1  0
 37 38  1  0
 38 39  1  0
 39 40  1  1
 39 41  1  0
M  END
