
     RDKit          3D

 43 48  0  0  0  0  0  0  0  0999 V2000
    7.8190   -5.2240   -1.3990 C   0  0  0  0  0  0  0  0  0  0  0  0
    6.3770   -4.9480   -1.2740 C   0  0  0  0  0  0  0  0  0  0  0  0
    5.4990   -6.0520   -0.8910 C   0  0  0  0  0  0  0  0  0  0  0  0
    4.1620   -5.8520   -0.7460 C   0  0  0  0  0  0  0  0  0  0  0  0
    3.6410   -4.5870   -0.9710 C   0  0  0  0  0  0  0  0  0  0  0  0
    2.3110   -4.3710   -0.8020 C   0  0  0  0  0  0  0  0  0  0  0  0
    1.8060   -3.1490   -1.0100 N   0  0  0  0  0  0  0  0  0  0  0  0
    2.4840   -2.1100   -1.3760 C   0  0  0  0  0  0  0  0  0  0  0  0
    1.8430   -0.8100   -1.5080 N   0  0  0  0  0  0  0  0  0  0  0  0
    1.0290   -0.3230   -0.4790 C   0  0  0  0  0  0  0  0  0  0  0  0
    1.1640   -0.8410    0.7100 O   0  0  0  0  0  0  0  0  0  0  0  0
    0.0260    0.7120   -0.6200 C   0  0  0  0  0  0  0  0  0  0  0  0
   -0.7130    0.6450   -1.8000 C   0  0  0  0  0  0  0  0  0  0  0  0
   -1.9040    1.2760   -1.9970 C   0  0  0  0  0  0  0  0  0  0  0  0
   -2.4060    2.0250   -0.9260 C   0  0  0  0  0  0  0  0  0  0  0  0
   -3.7260    2.5800   -0.8840 C   0  0  0  0  0  0  0  0  0  0  0  0
   -4.8650    2.0870   -1.1330 C   0  0  0  0  0  0  0  0  0  0  0  0
   -6.0510    3.1410   -0.9090 C   0  0  0  0  0  0  0  0  0  0  0  0
   -6.7520    3.7620   -0.7930 N   0  0  0  0  0  0  0  0  0  0  0  0
   -5.2670    0.7790   -1.4520 C   0  0  0  0  0  0  0  0  0  0  0  0
   -6.4680    0.3390   -1.8760 N   0  0  0  0  0  0  0  0  0  0  0  0
   -6.5980   -0.9340   -1.9970 C   0  0  0  0  0  0  0  0  0  0  0  0
   -5.3040   -1.4390   -1.6110 C   0  0  0  0  0  0  0  0  0  0  0  0
   -4.5530   -0.3960   -1.2990 N   0  0  0  0  0  0  0  0  0  0  0  0
   -5.3390   -2.7560   -1.7110 C   0  0  0  0  0  0  0  0  0  0  0  0
   -6.6530   -3.1910   -2.1620 C   0  0  0  0  0  0  0  0  0  0  0  0
   -7.4060   -1.9220   -2.2940 C   0  0  0  0  0  0  0  0  0  0  0  0
   -1.6440    2.0820    0.2280 C   0  0  0  0  0  0  0  0  0  0  0  0
   -0.4710    1.4800    0.4370 C   0  0  0  0  0  0  0  0  0  0  0  0
    0.2650    1.6330    1.6040 N   0  0  0  0  0  0  0  0  0  0  0  0
    0.2870    2.8860    2.2910 C   0  0  0  0  0  0  0  0  0  0  0  0
   -0.3950    3.8110    1.6830 O   0  0  0  0  0  0  0  0  0  0  0  0
    0.9500    3.2220    3.4900 N   0  0  0  0  0  0  0  0  0  0  0  0
    0.9360    4.5730    3.9670 C   0  0  0  0  0  0  0  0  0  0  0  0
    0.8820    5.5940    2.9570 C   0  0  0  0  0  0  0  0  0  0  0  0
    0.9290    6.9270    3.3740 C   0  0  0  0  0  0  0  0  0  0  0  0
    1.0250    7.2730    4.6920 C   0  0  0  0  0  0  0  0  0  0  0  0
    1.0910    6.3030    5.6830 C   0  0  0  0  0  0  0  0  0  0  0  0
    1.0390    4.9760    5.2260 C   0  0  0  0  0  0  0  0  0  0  0  0
    1.0810    4.0400    6.2690 F   0  0  0  0  0  0  0  0  0  0  0  0
    3.8940   -2.2110   -1.5760 C   0  0  0  0  0  0  0  0  0  0  0  0
    4.4180   -3.4980   -1.3530 C   0  0  0  0  0  0  0  0  0  0  0  0
    5.7430   -3.8060   -1.4620 C   0  0  0  0  0  0  0  0  0  0  0  0
  1  2  1  0
  2  3  2  0
  2 43  1  0
  3  4  1  0
  4  5  2  0
  5  6  1  0
  5 42  1  0
  6  7  2  0
  7  8  1  0
  8  9  1  0
  8 41  2  0
  9 10  1  0
 10 11  2  0
 10 12  1  0
 12 13  2  0
 12 29  1  0
 13 14  1  0
 14 15  2  0
 15 16  1  0
 15 28  1  0
 16 17  2  3
 17 18  1  0
 17 20  1  0
 18 19  3  0
 20 21  2  0
 20 24  1  0
 21 22  1  0
 22 23  1  0
 22 27  2  0
 23 24  1  0
 23 25  2  0
 25 26  1  0
 26 27  1  0
 28 29  2  0
 29 30  1  0
 30 31  1  0
 31 32  2  0
 31 33  1  0
 33 34  1  0
 34 35  2  0
 34 39  1  0
 35 36  1  0
 36 37  2  0
 37 38  1  0
 38 39  2  0
 39 40  1  0
 41 42  1  0
 42 43  2  0
M  END
