
     RDKit          3D

 43 48  0  0  0  0  0  0  0  0999 V2000
   11.4680    1.2480   -2.7550 C   0  0  0  0  0  0  0  0  0  0  0  0
   10.3640    1.8480   -3.1010 C   0  0  0  0  0  0  0  0  0  0  0  0
   10.3730    2.8540   -4.0460 F   0  0  0  0  0  0  0  0  0  0  0  0
    9.0840    1.5150   -2.5070 C   0  0  0  0  0  0  0  0  0  0  0  0
    8.9120    0.9480   -1.2810 C   0  0  0  0  0  0  0  0  0  0  0  0
   10.0520    0.6870   -0.4510 N   0  0  0  0  0  0  0  0  0  0  0  0
    7.6710    0.6440   -0.8180 N   0  0  0  0  0  0  0  0  0  0  0  0
    6.5610    0.8870   -1.5400 C   0  0  0  0  0  0  0  0  0  0  0  0
    5.2430    0.5270   -0.9800 C   0  0  0  0  0  0  0  0  0  0  0  0
    4.0710    0.7190   -1.6530 C   0  0  0  0  0  0  0  0  0  0  0  0
    2.8310    0.3670   -1.0950 C   0  0  0  0  0  0  0  0  0  0  0  0
    2.7620   -0.1850    0.1570 C   0  0  0  0  0  0  0  0  0  0  0  0
    1.4870   -0.5710    0.7690 C   0  0  0  0  0  0  0  0  0  0  0  0
    0.3400   -0.4310    0.1590 C   0  0  0  0  0  0  0  0  0  0  0  0
   -0.9710   -0.8040    0.7320 C   0  0  0  0  0  0  0  0  0  0  0  0
   -2.0150   -0.6200    0.0220 O   0  0  0  0  0  0  0  0  0  0  0  0
   -1.0420   -1.3320    1.9980 N   0  0  0  0  0  0  0  0  0  0  0  0
   -2.1800   -1.7950    2.7640 C   0  0  1  0  0  0  0  0  0  0  0  0
   -2.1730   -1.1020    4.0700 C   0  0  0  0  0  0  0  0  0  0  0  0
   -1.0450   -1.1840    5.0510 C   0  0  0  0  0  0  0  0  0  0  0  0
   -3.2680   -0.4560    4.1800 N   0  0  0  0  0  0  0  0  0  0  0  0
   -4.0970   -0.6330    3.0650 N   0  0  0  0  0  0  0  0  0  0  0  0
   -3.5090   -1.4480    2.1990 C   0  0  0  0  0  0  0  0  0  0  0  0
   -4.3710   -1.6660    1.1260 C   0  0  0  0  0  0  0  0  0  0  0  0
   -4.1780   -2.6120    0.0090 C   0  0  0  0  0  0  0  0  0  0  0  0
   -5.5050   -0.9120    1.4140 C   0  0  0  0  0  0  0  0  0  0  0  0
   -6.6930   -0.7260    0.7770 C   0  0  0  0  0  0  0  0  0  0  0  0
   -6.9320   -1.2520   -0.5920 C   0  0  0  0  0  0  0  0  0  0  0  0
   -6.5700   -0.1810   -1.5640 C   0  0  0  0  0  0  0  0  0  0  0  0
   -5.3110    0.3270   -1.6920 C   0  0  0  0  0  0  0  0  0  0  0  0
   -5.0360    1.3220   -2.6500 C   0  0  0  0  0  0  0  0  0  0  0  0
   -6.0210    1.7650   -3.4360 N   0  0  0  0  0  0  0  0  0  0  0  0
   -7.2810    1.3010   -3.3540 C   0  0  0  0  0  0  0  0  0  0  0  0
   -7.5430    0.3350   -2.4220 C   0  0  0  0  0  0  0  0  0  0  0  0
   -7.6930    0.0850    1.3510 C   0  0  0  0  0  0  0  0  0  0  0  0
   -7.5130    0.7120    2.5510 C   0  0  0  0  0  0  0  0  0  0  0  0
   -6.3140    0.5310    3.1980 C   0  0  0  0  0  0  0  0  0  0  0  0
   -5.3370   -0.2630    2.6370 C   0  0  0  0  0  0  0  0  0  0  0  0
    3.9630   -0.3760    0.8360 C   0  0  0  0  0  0  0  0  0  0  0  0
    5.1680   -0.0280    0.2780 C   0  0  0  0  0  0  0  0  0  0  0  0
    6.7220    1.4460   -2.7470 N   0  0  0  0  0  0  0  0  0  0  0  0
    7.9100    1.7640   -3.2500 C   0  0  0  0  0  0  0  0  0  0  0  0
    8.0480    2.2960   -4.4020 O   0  0  0  0  0  0  0  0  0  0  0  0
  1  2  2  0
  2  3  1  0
  2  4  1  0
  4  5  2  0
  4 42  1  0
  5  6  1  0
  5  7  1  0
  7  8  2  0
  8  9  1  0
  8 41  1  0
  9 10  2  0
  9 40  1  0
 10 11  1  0
 11 12  2  0
 12 13  1  0
 12 39  1  0
 13 14  2  3
 14 15  1  0
 15 16  2  0
 15 17  1  0
 18 17  1  6
 18 19  1  0
 18 23  1  0
 19 20  1  0
 19 21  2  0
 21 22  1  0
 22 23  1  0
 22 38  1  0
 23 24  2  0
 24 25  1  0
 24 26  1  0
 26 27  2  0
 26 38  1  0
 27 28  1  0
 27 35  1  0
 28 29  1  0
 29 30  2  0
 29 34  1  0
 30 31  1  0
 31 32  2  0
 32 33  1  0
 33 34  2  0
 35 36  2  0
 36 37  1  0
 37 38  2  0
 39 40  2  0
 41 42  1  0
 42 43  2  0
M  END
