
     RDKit          3D

 43 48  0  0  0  0  0  0  0  0999 V2000
   -8.6770   -3.1470    0.7340 C   0  0  0  0  0  0  0  0  0  0  0  0
   -8.9890   -1.7620    0.2690 C   0  0  0  0  0  0  0  0  0  0  0  0
   -7.9560   -1.1930   -0.5660 N   0  0  0  0  0  0  0  0  0  0  0  0
   -6.6330   -0.9390   -0.0920 C   0  0  0  0  0  0  0  0  0  0  0  0
   -6.2860   -1.1240    1.2280 C   0  0  0  0  0  0  0  0  0  0  0  0
   -4.9900   -0.8650    1.6330 C   0  0  0  0  0  0  0  0  0  0  0  0
   -3.9900   -0.4160    0.7600 C   0  0  0  0  0  0  0  0  0  0  0  0
   -2.6570   -0.1920    1.3500 C   0  0  2  0  0  0  0  0  0  0  0  0
   -2.6330   -0.2720    2.8320 C   0  0  0  0  0  0  0  0  0  0  0  0
   -1.3450    0.2450    3.4040 C   0  0  0  0  0  0  0  0  0  0  0  0
   -0.2240    0.3720    2.4510 C   0  0  0  0  0  0  0  0  0  0  0  0
   -0.5180    0.7760    1.2250 C   0  0  0  0  0  0  0  0  0  0  0  0
   -1.9450    1.0640    0.9220 C   0  0  0  0  0  0  0  0  0  0  0  0
    0.5170    0.9100    0.2640 C   0  0  0  0  0  0  0  0  0  0  0  0
    0.2060    1.3610   -1.1110 C   0  0  0  0  0  0  0  0  0  0  0  0
    1.7750    0.6520    0.5250 N   0  0  0  0  0  0  0  0  0  0  0  0
    2.1640    0.2140    1.8190 C   0  0  0  0  0  0  0  0  0  0  0  0
    3.4460   -0.0760    2.1300 C   0  0  0  0  0  0  0  0  0  0  0  0
    4.4170    0.0710    1.0650 C   0  0  0  0  0  0  0  0  0  0  0  0
    5.4110    0.9960    1.2320 N   0  0  0  0  0  0  0  0  0  0  0  0
    6.3480    1.2080    0.3280 N   0  0  0  0  0  0  0  0  0  0  0  0
    7.3510    2.1860    0.5730 C   0  0  0  0  0  0  0  0  0  0  0  0
    7.1890    3.4620    0.0780 C   0  0  0  0  0  0  0  0  0  0  0  0
    8.1680    4.4180    0.3180 C   0  0  0  0  0  0  0  0  0  0  0  0
    9.2830    4.1340    1.0260 N   0  0  0  0  0  0  0  0  0  0  0  0
    9.4670    2.9030    1.5180 C   0  0  0  0  0  0  0  0  0  0  0  0
    8.5000    1.9370    1.2890 C   0  0  0  0  0  0  0  0  0  0  0  0
    6.3140    0.4770   -0.8000 C   0  0  0  0  0  0  0  0  0  0  0  0
    7.1960    0.6700   -1.6640 O   0  0  0  0  0  0  0  0  0  0  0  0
    5.3420   -0.4740   -1.0340 C   0  0  0  0  0  0  0  0  0  0  0  0
    5.3100   -1.2430   -2.1740 C   0  0  0  0  0  0  0  0  0  0  0  0
    4.3540   -2.2170   -2.4090 C   0  0  0  0  0  0  0  0  0  0  0  0
    4.3370   -3.0040   -3.5850 N   0  0  0  0  0  0  0  0  0  0  0  0
    3.4050   -2.3950   -1.4280 C   0  0  0  0  0  0  0  0  0  0  0  0
    3.3890   -1.6370   -0.2440 C   0  0  0  0  0  0  0  0  0  0  0  0
    4.3660   -0.6900   -0.0810 C   0  0  0  0  0  0  0  0  0  0  0  0
    1.1410    0.0710    2.8070 N   0  0  0  0  0  0  0  0  0  0  0  0
   -4.3460   -0.2390   -0.5380 C   0  0  0  0  0  0  0  0  0  0  0  0
   -3.3910    0.2040   -1.4500 O   0  0  0  0  0  0  0  0  0  0  0  0
   -3.7980    0.3800   -2.7960 C   0  0  0  0  0  0  0  0  0  0  0  0
   -2.6140    0.8840   -3.6240 C   0  0  0  0  0  0  0  0  0  0  0  0
   -2.1680    2.1020   -3.1130 F   0  0  0  0  0  0  0  0  0  0  0  0
   -5.6520   -0.4990   -0.9500 C   0  0  0  0  0  0  0  0  0  0  0  0
  1  2  1  0
  2  3  1  0
  3  4  1  0
  4  5  2  0
  4 43  1  0
  5  6  1  0
  6  7  2  0
  8  7  1  1
  7 38  1  0
  8  9  1  0
  8 13  1  0
  9 10  1  0
 10 11  1  0
 11 12  2  0
 11 37  1  0
 12 13  1  0
 12 14  1  0
 14 15  1  0
 14 16  2  0
 16 17  1  0
 17 18  2  3
 17 37  1  0
 18 19  1  0
 19 20  2  0
 19 36  1  0
 20 21  1  0
 21 22  1  0
 21 28  1  0
 22 23  2  0
 22 27  1  0
 23 24  1  0
 24 25  2  0
 25 26  1  0
 26 27  2  0
 28 29  2  0
 28 30  1  0
 30 31  2  0
 30 36  1  0
 31 32  1  0
 32 33  1  0
 32 34  2  0
 34 35  1  0
 35 36  2  0
 38 39  1  0
 38 43  2  0
 39 40  1  0
 40 41  1  0
 41 42  1  0
M  END
