
     RDKit          3D

 49 53  0  0  0  0  0  0  0  0999 V2000
   -3.1000   -2.0130   -4.2670 C   0  0  0  0  0  0  0  0  0  0  0  0
   -1.8990   -2.4070   -3.4380 C   0  0  2  0  0  0  0  0  0  0  0  0
   -0.6880   -1.6910   -3.9730 C   0  0  0  0  0  0  0  0  0  0  0  0
   -1.6910   -3.9010   -3.7110 C   0  0  0  0  0  0  0  0  0  0  0  0
   -2.0960   -2.2240   -2.0400 N   0  0  0  0  0  0  0  0  0  0  0  0
   -2.4040   -1.0040   -1.4100 C   0  0  0  0  0  0  0  0  0  0  0  0
   -2.5280    0.0250   -2.0900 O   0  0  0  0  0  0  0  0  0  0  0  0
   -2.5950   -0.8890    0.0820 C   0  0  2  0  0  0  0  0  0  0  0  0
   -3.9210   -1.6340    0.3110 C   0  0  0  0  0  0  0  0  0  0  0  0
   -4.3600   -1.6050    1.7290 C   0  0  2  0  0  0  0  0  0  0  0  0
   -5.7850   -1.1070    1.8900 C   0  0  0  0  0  0  0  0  0  0  0  0
   -6.2230   -1.2440    3.3100 C   0  0  0  0  0  0  0  0  0  0  0  0
   -5.0450   -1.4730    4.2520 C   0  0  0  0  0  0  0  0  0  0  0  0
   -3.9750   -0.4750    3.8690 C   0  0  0  0  0  0  0  0  0  0  0  0
   -3.3890   -0.7460    2.5040 C   0  0  2  0  0  0  0  0  0  0  0  0
   -3.1940    0.5980    1.8250 C   0  0  0  0  0  0  0  0  0  0  0  0
   -2.8240    0.4920    0.4610 N   0  0  1  0  0  0  0  0  0  0  0  0
   -1.8100    1.4050    0.0040 C   0  0  0  0  0  0  0  0  0  0  0  0
   -1.0600    2.0420    1.1190 C   0  0  1  0  0  0  0  0  0  0  0  0
   -0.3760    1.1020    1.8630 O   0  0  0  0  0  0  0  0  0  0  0  0
    0.0440    2.9990    0.5440 C   0  0  2  0  0  0  0  0  0  0  0  0
   -0.5620    4.2480    0.1390 C   0  0  0  0  0  0  0  0  0  0  0  0
    0.2040    5.3580   -0.4420 C   0  0  2  0  0  0  0  0  0  0  0  0
   -0.7590    6.5190   -0.6770 C   0  0  0  0  0  0  0  0  0  0  0  0
   -0.4060    7.4420   -1.5190 C   0  0  0  0  0  0  0  0  0  0  0  0
    0.8480    7.5170   -2.3060 C   0  0  0  0  0  0  0  0  0  0  0  0
    1.7180    6.3020   -2.0880 C   0  0  0  0  0  0  0  0  0  0  0  0
    0.7660    5.1340   -1.8300 C   0  0  0  0  0  0  0  0  0  0  0  0
    0.9210    2.2360   -0.2800 N   0  0  0  0  0  0  0  0  0  0  0  0
    2.0570    1.5420    0.2800 C   0  0  0  0  0  0  0  0  0  0  0  0
    2.1700    1.6980    1.5570 O   0  0  0  0  0  0  0  0  0  0  0  0
    3.0330    0.7180   -0.4080 C   0  0  2  0  0  0  0  0  0  0  0  0
    2.7630    0.4980   -1.8650 C   0  0  0  0  0  0  0  0  0  0  0  0
    2.8340    1.7390   -2.6550 C   0  0  0  0  0  0  0  0  0  0  0  0
    2.3520    1.7840   -3.9670 N   0  0  0  0  0  0  0  0  0  0  0  0
    3.3380    2.7390   -2.1100 O   0  0  0  0  0  0  0  0  0  0  0  0
    3.3880   -0.5350    0.2090 N   0  0  0  0  0  0  0  0  0  0  0  0
    4.6840   -0.8460    0.6950 C   0  0  0  0  0  0  0  0  0  0  0  0
    5.5500    0.0520    0.5790 O   0  0  0  0  0  0  0  0  0  0  0  0
    5.0510   -2.1230    1.3030 C   0  0  0  0  0  0  0  0  0  0  0  0
    6.2930   -2.2670    1.7100 C   0  0  0  0  0  0  0  0  0  0  0  0
    6.8700   -3.4590    2.3430 C   0  0  0  0  0  0  0  0  0  0  0  0
    5.8950   -4.5400    2.4630 C   0  0  0  0  0  0  0  0  0  0  0  0
    6.3740   -5.7320    3.0380 C   0  0  0  0  0  0  0  0  0  0  0  0
    5.4710   -6.7610    3.1600 C   0  0  0  0  0  0  0  0  0  0  0  0
    4.1680   -6.6470    2.7470 C   0  0  0  0  0  0  0  0  0  0  0  0
    3.7310   -5.4570    2.1840 C   0  0  0  0  0  0  0  0  0  0  0  0
    4.6030   -4.4010    2.0430 C   0  0  0  0  0  0  0  0  0  0  0  0
    4.1380   -3.1820    1.4470 N   0  0  0  0  0  0  0  0  0  0  0  0
  2  1  1  6
  2  3  1  0
  2  4  1  0
  2  5  1  0
  5  6  1  0
  6  7  2  0
  8  6  1  6
  8  9  1  0
  8 17  1  0
 10  9  1  6
 10 11  1  0
 10 15  1  0
 11 12  1  0
 12 13  1  0
 13 14  1  0
 15 14  1  1
 15 16  1  0
 16 17  1  0
 17 18  1  1
 18 19  1  0
 19 20  1  6
 19 21  1  0
 21 22  1  6
 21 29  1  0
 23 22  1  6
 23 24  1  0
 23 28  1  0
 24 25  2  0
 25 26  1  0
 26 27  1  0
 27 28  1  0
 29 30  1  0
 30 31  2  0
 30 32  1  0
 32 33  1  6
 32 37  1  0
 33 34  1  0
 34 35  1  0
 34 36  2  0
 37 38  1  0
 38 39  2  0
 38 40  1  0
 40 41  2  0
 40 49  1  0
 41 42  1  0
 42 43  1  0
 43 44  2  0
 43 48  1  0
 44 45  1  0
 45 46  2  0
 46 47  1  0
 47 48  2  0
 48 49  1  0
M  CHG  1  17   1
M  END
