
     RDKit          3D

 43 48  0  0  0  0  0  0  0  0999 V2000
   -9.7640   -0.9630   -1.4370 C   0  0  0  0  0  0  0  0  0  0  0  0
   -9.5700   -0.9930    0.0590 C   0  0  0  0  0  0  0  0  0  0  0  0
   -8.3020   -0.2470    0.3510 C   0  0  0  0  0  0  0  0  0  0  0  0
   -8.1090    0.9490    0.8310 N   0  0  0  0  0  0  0  0  0  0  0  0
   -6.7800    1.2450    0.9420 N   0  0  0  0  0  0  0  0  0  0  0  0
   -6.4390    2.4940    1.5000 C   0  0  1  0  0  0  0  0  0  0  0  0
   -6.5880    3.6590    0.5250 C   0  0  0  0  0  0  0  0  0  0  0  0
   -7.5960    2.8780    2.5510 C   0  0  0  0  0  0  0  0  0  0  0  0
   -6.1390    0.1800    0.5070 C   0  0  0  0  0  0  0  0  0  0  0  0
   -7.0630   -0.8020    0.1200 C   0  0  0  0  0  0  0  0  0  0  0  0
   -6.6540   -2.0260   -0.3440 C   0  0  0  0  0  0  0  0  0  0  0  0
   -5.3210   -2.3240   -0.4450 C   0  0  0  0  0  0  0  0  0  0  0  0
   -4.8420   -3.6560   -0.9470 C   0  0  0  0  0  0  0  0  0  0  0  0
   -4.3850   -1.3960   -0.0830 C   0  0  0  0  0  0  0  0  0  0  0  0
   -3.0420   -1.4080   -0.0830 N   0  0  0  0  0  0  0  0  0  0  0  0
   -2.5960   -0.2340    0.3580 C   0  0  0  0  0  0  0  0  0  0  0  0
   -1.1650    0.1190    0.5140 C   0  0  0  0  0  0  0  0  0  0  0  0
   -0.7510    1.1510    1.0590 O   0  0  0  0  0  0  0  0  0  0  0  0
   -0.1760   -0.7690    0.0120 N   0  0  0  0  0  0  0  0  0  0  0  0
    1.2190   -0.6030    0.0770 C   0  0  0  0  0  0  0  0  0  0  0  0
    1.8450    0.2700    0.9360 C   0  0  0  0  0  0  0  0  0  0  0  0
    3.2520    0.3620    0.8890 C   0  0  0  0  0  0  0  0  0  0  0  0
    4.0150   -0.3730    0.0320 C   0  0  0  0  0  0  0  0  0  0  0  0
    5.4230   -0.3190   -0.0550 N   0  0  0  0  0  0  0  0  0  0  0  0
    6.2790    0.4890    0.7050 C   0  0  0  0  0  0  0  0  0  0  0  0
    5.7830    1.2740    1.5780 O   0  0  0  0  0  0  0  0  0  0  0  0
    7.7280    0.4860    0.5530 C   0  0  0  0  0  0  0  0  0  0  0  0
    8.3420   -0.2750   -0.3070 C   0  0  0  0  0  0  0  0  0  0  0  0
    9.8070   -0.3080   -0.4910 C   0  0  0  0  0  0  0  0  0  0  0  0
   10.3670   -1.1620   -1.4450 C   0  0  0  0  0  0  0  0  0  0  0  0
   11.7180   -1.2320   -1.6560 C   0  0  0  0  0  0  0  0  0  0  0  0
   12.5450   -0.4390   -0.9090 C   0  0  0  0  0  0  0  0  0  0  0  0
   13.8990   -0.3140   -0.9160 N   0  0  0  0  0  0  0  0  0  0  0  0
   14.2180    0.5750   -0.0160 N   0  0  0  0  0  0  0  0  0  0  0  0
   13.1230    1.0490    0.5930 C   0  0  0  0  0  0  0  0  0  0  0  0
   12.0400    0.4120    0.0360 C   0  0  0  0  0  0  0  0  0  0  0  0
   10.6600    0.4630    0.2300 C   0  0  0  0  0  0  0  0  0  0  0  0
    3.3750   -1.2640   -0.8440 C   0  0  0  0  0  0  0  0  0  0  0  0
    4.0450   -2.0250   -1.7160 F   0  0  0  0  0  0  0  0  0  0  0  0
    2.0070   -1.3610   -0.8060 C   0  0  0  0  0  0  0  0  0  0  0  0
   -3.6570    0.5940    0.6610 C   0  0  0  0  0  0  0  0  0  0  0  0
   -3.4680    1.9860    1.0710 C   0  0  0  0  0  0  0  0  0  0  0  0
   -4.7820   -0.1360    0.3930 C   0  0  0  0  0  0  0  0  0  0  0  0
  1  2  1  0
  2  3  1  0
  3  4  2  0
  3 10  1  0
  4  5  1  0
  5  6  1  0
  5  9  1  0
  6  7  1  6
  6  8  1  0
  9 10  2  0
  9 43  1  0
 10 11  1  0
 11 12  2  0
 12 13  1  0
 12 14  1  0
 14 15  1  0
 14 43  2  0
 15 16  1  0
 16 17  1  0
 16 41  2  0
 17 18  2  0
 17 19  1  0
 19 20  1  0
 20 21  2  0
 20 40  1  0
 21 22  1  0
 22 23  2  0
 23 24  1  0
 23 38  1  0
 24 25  1  0
 25 26  2  0
 25 27  1  0
 27 28  2  3
 28 29  1  0
 29 30  2  0
 29 37  1  0
 30 31  1  0
 31 32  2  0
 32 33  1  0
 32 36  1  0
 33 34  1  0
 34 35  2  0
 35 36  1  0
 36 37  2  0
 38 39  1  0
 38 40  2  0
 41 42  1  0
 41 43  1  0
M  END
