
     RDKit          3D

 27 28  0  0  0  0  0  0  0  0999 V2000
   -7.5280    1.2700   -0.8190 N   0  0  0  0  0  0  0  0  0  0  0  0
   -6.9850    0.6870    0.3730 C   0  0  0  0  0  0  0  0  0  0  0  0
   -5.5660    0.3030    0.0910 C   0  0  0  0  0  0  0  0  0  0  0  0
   -4.5550    1.2120    0.3030 C   0  0  0  0  0  0  0  0  0  0  0  0
   -3.2330    0.8730    0.0470 C   0  0  0  0  0  0  0  0  0  0  0  0
   -2.8620   -0.3660   -0.4230 C   0  0  0  0  0  0  0  0  0  0  0  0
   -1.4560   -0.7680   -0.6990 C   0  0  0  0  0  0  0  0  0  0  0  0
   -0.7480   -1.4330    0.4000 C   0  0  2  0  0  0  0  0  0  0  0  0
   -0.5160   -0.7880    1.6860 C   0  0  0  0  0  0  0  0  0  0  0  0
    0.4230    0.6970    1.8210 P   0  0  2  0  0  0  0  0  0  0  0  0
    1.1420    0.6490    3.1940 O   0  0  0  0  0  0  0  0  0  0  0  0
   -0.4710    2.1260    1.9350 O   0  0  0  0  0  0  0  0  0  0  0  0
    1.7840    0.8530    0.6320 C   0  0  1  0  0  0  0  0  0  0  0  0
    1.3750    1.5190   -0.5820 N   0  0  0  0  0  0  0  0  0  0  0  0
    2.9580    1.5360    1.2860 C   0  0  0  0  0  0  0  0  0  0  0  0
    4.1460    1.7190    0.4050 C   0  0  0  0  0  0  0  0  0  0  0  0
    4.7230    0.4620   -0.1130 C   0  0  0  0  0  0  0  0  0  0  0  0
    5.7070   -0.2140    0.6180 C   0  0  0  0  0  0  0  0  0  0  0  0
    6.2800   -1.3830    0.1790 C   0  0  0  0  0  0  0  0  0  0  0  0
    5.8750   -1.9160   -1.0260 C   0  0  0  0  0  0  0  0  0  0  0  0
    4.8980   -1.2440   -1.7510 C   0  0  0  0  0  0  0  0  0  0  0  0
    4.3190   -0.0700   -1.3170 C   0  0  0  0  0  0  0  0  0  0  0  0
    0.5260   -2.0530   -0.1280 C   0  0  0  0  0  0  0  0  0  0  0  0
    0.8590   -1.9330   -1.3350 O   0  0  0  0  0  0  0  0  0  0  0  0
    1.3500   -2.7700    0.7240 O   0  0  0  0  0  0  0  0  0  0  0  0
   -3.9130   -1.2720   -0.6300 C   0  0  0  0  0  0  0  0  0  0  0  0
   -5.2280   -0.9440   -0.3790 C   0  0  0  0  0  0  0  0  0  0  0  0
  1  2  1  0
  2  3  1  0
  3  4  2  0
  3 27  1  0
  4  5  1  0
  5  6  2  0
  6  7  1  0
  6 26  1  0
  8  7  1  6
  8  9  1  0
  8 23  1  0
  9 10  1  0
 10 11  2  0
 10 12  1  1
 10 13  1  0
 13 14  1  6
 13 15  1  0
 15 16  1  0
 16 17  1  0
 17 18  2  0
 17 22  1  0
 18 19  1  0
 19 20  2  0
 20 21  1  0
 21 22  2  0
 23 24  2  0
 23 25  1  0
 26 27  2  0
M  END
