
     RDKit          3D

 12 12  0  0  0  0  0  0  0  0999 V2000
    2.7000    0.1940    1.4190 O   0  0  0  0  0  0  0  0  0  0  0  0
    2.9680    0.3380    0.1990 C   0  0  0  0  0  0  0  0  0  0  0  0
    4.0010    1.2450   -0.1340 O   0  0  0  0  0  0  0  0  0  0  0  0
    2.2870   -0.3540   -0.7720 O   0  0  0  0  0  0  0  0  0  0  0  0
    1.2660   -1.2440   -0.4470 C   0  0  0  0  0  0  0  0  0  0  0  0
    0.1410   -0.5200    0.2420 C   0  0  2  0  0  0  0  0  0  0  0  0
   -0.8290   -1.4910    0.5190 O   0  0  0  0  0  0  0  0  0  0  0  0
   -2.0430   -1.0190    0.0750 C   0  0  0  0  0  0  0  0  0  0  0  0
   -1.7650    0.4680   -0.0430 C   0  0  2  0  0  0  0  0  0  0  0  0
   -2.6570    1.0740   -0.9110 O   0  0  0  0  0  0  0  0  0  0  0  0
   -3.2940    2.0420   -0.3080 O   0  0  0  0  0  0  0  0  0  0  0  0
   -0.4600    0.4250   -0.5820 O   0  0  0  0  0  0  0  0  0  0  0  0
  1  2  2  0
  2  3  1  0
  2  4  1  0
  4  5  1  0
  6  5  1  6
  6  7  1  0
  6 12  1  0
  7  8  1  0
  8  9  1  0
  9 10  1  6
  9 12  1  0
 10 11  1  0
M  END
