
     RDKit          3D

 27 29  0  0  0  0  0  0  0  0999 V2000
    1.5380    1.4080   -0.5620 O   0  0  0  0  0  0  0  0  0  0  0  0
    2.1930    0.3990   -0.2300 C   0  0  0  0  0  0  0  0  0  0  0  0
    3.2730    0.0180   -0.9900 O   0  0  0  0  0  0  0  0  0  0  0  0
    4.0600   -1.0370   -0.7660 O   0  0  0  0  0  0  0  0  0  0  0  0
    5.3340   -0.6650   -0.7020 O   0  0  0  0  0  0  0  0  0  0  0  0
    5.5170    0.4360   -0.0440 O   0  0  0  0  0  0  0  0  0  0  0  0
    4.8050    1.4490   -0.4410 O   0  0  0  0  0  0  0  0  0  0  0  0
    4.3190    2.1690    0.5710 O   0  0  0  0  0  0  0  0  0  0  0  0
    3.4870    1.4500    1.3080 O   0  0  0  0  0  0  0  0  0  0  0  0
    4.0120    0.2800    1.5060 O   0  0  0  0  0  0  0  0  0  0  0  0
    3.0820   -0.7280    1.7340 C   0  0  0  0  0  0  0  0  0  0  0  0
    1.8220   -0.3840    0.9630 C   0  0  2  0  0  0  0  0  0  0  0  0
    1.0500   -1.4770    0.6910 O   0  0  0  0  0  0  0  0  0  0  0  0
   -0.2100   -1.5080    1.2040 C   0  0  0  0  0  0  0  0  0  0  0  0
   -1.1190   -0.3990    0.7320 C   0  0  1  0  0  0  0  0  0  0  0  0
   -1.2850   -0.4150   -0.6490 O   0  0  0  0  0  0  0  0  0  0  0  0
   -2.5450   -0.0730   -1.0710 C   0  0  2  0  0  0  0  0  0  0  0  0
   -3.5880   -1.0640   -0.5350 C   0  0  0  0  0  0  0  0  0  0  0  0
   -3.4660   -1.1220    0.8850 O   0  0  0  0  0  0  0  0  0  0  0  0
   -2.4080   -0.4580    1.4650 C   0  0  0  0  0  0  0  0  0  0  0  0
   -2.4960    0.0950    2.5810 O   0  0  0  0  0  0  0  0  0  0  0  0
   -2.5980   -0.1390   -2.4420 O   0  0  0  0  0  0  0  0  0  0  0  0
   -3.1960    0.9710   -3.0040 C   0  0  0  0  0  0  0  0  0  0  0  0
   -4.4600    1.2240   -2.4240 O   0  0  0  0  0  0  0  0  0  0  0  0
   -4.1650    1.7540   -1.2060 O   0  0  0  0  0  0  0  0  0  0  0  0
   -2.9420    1.3090   -0.6720 C   0  0  0  0  0  0  0  0  0  0  0  0
   -2.2440    2.0310    0.0830 O   0  0  0  0  0  0  0  0  0  0  0  0
  1  2  2  0
  2  3  1  0
  2 12  1  0
  3  4  1  0
  4  5  1  0
  5  6  1  0
  6  7  1  0
  7  8  1  0
  8  9  1  0
  9 10  1  0
 10 11  1  0
 11 12  1  0
 12 13  1  6
 13 14  1  0
 15 14  1  1
 15 16  1  0
 15 20  1  0
 16 17  1  0
 17 18  1  1
 17 22  1  0
 17 26  1  0
 18 19  1  0
 19 20  1  0
 20 21  2  0
 22 23  1  0
 23 24  1  0
 24 25  1  0
 25 26  1  0
 26 27  2  0
M  END
