
     RDKit          3D

 27 27  0  0  0  0  0  0  0  0999 V2000
    0.3700    1.6710   -2.2280 O   0  0  0  0  0  0  0  0  0  0  0  0
    1.3110    0.8280   -2.1220 C   0  0  0  0  0  0  0  0  0  0  0  0
    2.4820    1.0910   -2.8340 O   0  0  0  0  0  0  0  0  0  0  0  0
    1.1660   -0.3030   -1.3270 O   0  0  0  0  0  0  0  0  0  0  0  0
   -0.0570   -0.4780   -0.6480 C   0  0  2  0  0  0  0  0  0  0  0  0
    0.0130   -1.7460    0.1350 C   0  0  0  0  0  0  0  0  0  0  0  0
    1.0130   -1.7060    1.0920 O   0  0  0  0  0  0  0  0  0  0  0  0
    2.3510   -1.6380    0.9870 C   0  0  0  0  0  0  0  0  0  0  0  0
    2.8850   -1.6120   -0.1450 O   0  0  0  0  0  0  0  0  0  0  0  0
    3.2250   -1.5940    2.0930 O   0  0  0  0  0  0  0  0  0  0  0  0
    4.6000   -1.5240    1.9190 C   0  0  0  0  0  0  0  0  0  0  0  0
    5.0840   -1.5000    0.7500 O   0  0  0  0  0  0  0  0  0  0  0  0
    5.4900   -1.4780    2.9730 O   0  0  0  0  0  0  0  0  0  0  0  0
    6.8220   -1.4110    2.7980 O   0  0  0  0  0  0  0  0  0  0  0  0
   -1.0260   -0.4890   -1.6680 O   0  0  0  0  0  0  0  0  0  0  0  0
   -2.3570   -0.6970   -1.6170 C   0  0  0  0  0  0  0  0  0  0  0  0
   -2.9730   -1.6730   -2.1740 O   0  0  0  0  0  0  0  0  0  0  0  0
   -3.1590    0.1880   -0.9210 O   0  0  0  0  0  0  0  0  0  0  0  0
   -3.1590    1.5870   -1.0290 C   0  0  0  0  0  0  0  0  0  0  0  0
   -3.9700    2.1460    0.1150 C   0  0  0  0  0  0  0  0  0  0  0  0
   -3.9300    1.2170    1.1580 O   0  0  0  0  0  0  0  0  0  0  0  0
   -2.8110    1.2990    1.8190 O   0  0  0  0  0  0  0  0  0  0  0  0
   -2.3200    0.0540    2.2130 C   0  0  0  0  0  0  0  0  0  0  0  0
   -0.9460    0.1330    2.3450 O   0  0  0  0  0  0  0  0  0  0  0  0
   -0.0190    0.7500    1.5380 C   0  0  0  0  0  0  0  0  0  0  0  0
    0.9150    1.3540    2.1220 O   0  0  0  0  0  0  0  0  0  0  0  0
   -0.1740    0.6680    0.1820 O   0  0  0  0  0  0  0  0  0  0  0  0
  1  2  2  0
  2  3  1  0
  2  4  1  0
  4  5  1  0
  5  6  1  1
  5 15  1  0
  5 27  1  0
  6  7  1  0
  7  8  1  0
  8  9  2  0
  8 10  1  0
 10 11  1  0
 11 12  2  0
 11 13  1  0
 13 14  1  0
 15 16  1  0
 16 17  2  0
 16 18  1  0
 18 19  1  0
 19 20  1  0
 20 21  1  0
 21 22  1  0
 22 23  1  0
 23 24  1  0
 24 25  1  0
 25 26  2  0
 25 27  1  0
M  END
