
     RDKit          3D

 27 30  0  0  0  0  0  0  0  0999 V2000
    1.1940   -2.2820   -1.7480 O   0  0  0  0  0  0  0  0  0  0  0  0
    0.2660   -1.9720   -0.9790 C   0  0  0  0  0  0  0  0  0  0  0  0
   -0.7280   -1.0670   -1.1420 O   0  0  0  0  0  0  0  0  0  0  0  0
   -1.9540   -1.3840   -0.4580 C   0  0  1  0  0  0  0  0  0  0  0  0
   -2.0260   -2.8340   -0.5650 C   0  0  0  0  0  0  0  0  0  0  0  0
   -0.9810   -3.4330    0.1800 O   0  0  0  0  0  0  0  0  0  0  0  0
    0.1060   -2.6180    0.3570 C   0  0  1  0  0  0  0  0  0  0  0  0
    1.3140   -3.0710    0.6730 O   0  0  0  0  0  0  0  0  0  0  0  0
    1.9510   -2.2200    1.4440 O   0  0  0  0  0  0  0  0  0  0  0  0
    2.2170   -0.9720    0.9990 C   0  0  2  0  0  0  0  0  0  0  0  0
    3.1330   -0.4420    1.9270 O   0  0  0  0  0  0  0  0  0  0  0  0
    4.2110   -0.0620    1.2950 O   0  0  0  0  0  0  0  0  0  0  0  0
    4.3560    1.2370    1.4470 O   0  0  0  0  0  0  0  0  0  0  0  0
    4.6890    1.8260    0.3100 O   0  0  0  0  0  0  0  0  0  0  0  0
    6.0040    1.8510    0.1590 O   0  0  0  0  0  0  0  0  0  0  0  0
    1.1390   -0.0520    1.0950 O   0  0  0  0  0  0  0  0  0  0  0  0
    1.2520    1.0280    0.2770 C   0  0  0  0  0  0  0  0  0  0  0  0
   -0.0320    1.4960   -0.4030 C   0  0  0  0  0  0  0  0  0  0  0  0
   -1.0390    0.7530   -0.1450 O   0  0  0  0  0  0  0  0  0  0  0  0
   -2.2830    0.6790   -0.5510 C   0  0  2  0  0  0  0  0  0  0  0  0
   -2.9750    1.7810   -0.9010 O   0  0  0  0  0  0  0  0  0  0  0  0
   -3.1530    2.7100    0.1070 C   0  0  0  0  0  0  0  0  0  0  0  0
   -3.2650    2.2410    1.3720 O   0  0  0  0  0  0  0  0  0  0  0  0
   -2.6270    1.1480    1.6770 O   0  0  0  0  0  0  0  0  0  0  0  0
   -2.9660    0.1940    0.7800 C   0  0  2  0  0  0  0  0  0  0  0  0
   -2.1830   -0.9770    0.8010 O   0  0  0  0  0  0  0  0  0  0  0  0
   -2.7270   -0.5250   -1.1940 O   0  0  0  0  0  0  0  0  0  0  0  0
  1  2  2  0
  2  3  1  0
  2  7  1  0
  3  4  1  0
  4  5  1  1
  4 26  1  0
  4 27  1  0
  5  6  1  0
  7  6  1  6
  7  8  1  0
  8  9  1  0
  9 10  1  0
 10 11  1  1
 10 16  1  0
 11 12  1  0
 12 13  1  0
 13 14  1  0
 14 15  1  0
 16 17  1  0
 17 18  1  0
 18 19  1  0
 20 19  1  1
 20 21  1  0
 20 25  1  0
 20 27  1  0
 21 22  1  0
 22 23  1  0
 23 24  1  0
 25 24  1  1
 25 26  1  0
M  END
