
     RDKit          3D

 12 12  0  0  0  0  0  0  0  0999 V2000
   -0.7130    1.9270   -1.4160 O   0  0  0  0  0  0  0  0  0  0  0  0
   -1.5150    1.2930   -0.6700 C   0  0  0  0  0  0  0  0  0  0  0  0
   -2.8460    1.6070   -0.5670 O   0  0  0  0  0  0  0  0  0  0  0  0
   -3.6310    1.1660    0.4220 O   0  0  0  0  0  0  0  0  0  0  0  0
   -3.1330   -0.0720    0.8360 C   0  0  0  0  0  0  0  0  0  0  0  0
   -1.8190    0.1440    1.3130 O   0  0  0  0  0  0  0  0  0  0  0  0
   -1.0130    0.1410    0.1510 C   0  0  2  0  0  0  0  0  0  0  0  0
    0.3200    0.2520    0.4540 O   0  0  0  0  0  0  0  0  0  0  0  0
    1.0020   -0.8400   -0.0240 C   0  0  0  0  0  0  0  0  0  0  0  0
    2.4720   -0.7400    0.2970 C   0  0  0  0  0  0  0  0  0  0  0  0
    2.9410    0.4310   -0.3190 O   0  0  0  0  0  0  0  0  0  0  0  0
    4.2260    0.5820   -0.0790 O   0  0  0  0  0  0  0  0  0  0  0  0
  1  2  2  0
  2  3  1  0
  2  7  1  0
  3  4  1  0
  4  5  1  0
  5  6  1  0
  6  7  1  0
  7  8  1  1
  8  9  1  0
  9 10  1  0
 10 11  1  0
 11 12  1  0
M  END
