
     RDKit          3D

 12 12  0  0  0  0  0  0  0  0999 V2000
    1.3670   -0.2600    1.2050 O   0  0  0  0  0  0  0  0  0  0  0  0
    1.4640    0.2380   -0.0030 C   0  0  0  0  0  0  0  0  0  0  0  0
    2.7690    0.4040   -0.6310 C   0  0  0  0  0  0  0  0  0  0  0  0
    3.6970   -0.1990    0.2410 O   0  0  0  0  0  0  0  0  0  0  0  0
    4.5270   -1.0630   -0.4420 O   0  0  0  0  0  0  0  0  0  0  0  0
    0.3060    0.5360   -0.5820 O   0  0  0  0  0  0  0  0  0  0  0  0
   -0.9300    0.2630    0.0810 C   0  0  1  0  0  0  0  0  0  0  0  0
   -1.9680    1.3260    0.1050 C   0  0  0  0  0  0  0  0  0  0  0  0
   -3.0340    1.0540   -0.7710 O   0  0  0  0  0  0  0  0  0  0  0  0
   -3.5960   -0.0920   -0.4340 O   0  0  0  0  0  0  0  0  0  0  0  0
   -2.7220   -1.1570   -0.4170 C   0  0  0  0  0  0  0  0  0  0  0  0
   -1.4490   -0.8220   -0.7290 O   0  0  0  0  0  0  0  0  0  0  0  0
  1  2  2  0
  2  3  1  0
  2  6  1  0
  3  4  1  0
  4  5  1  0
  7  6  1  6
  7  8  1  0
  7 12  1  0
  8  9  1  0
  9 10  1  0
 10 11  1  0
 11 12  1  0
M  END
