
     RDKit          3D

 35 36  0  0  0  0  0  0  0  0999 V2000
    7.2230   -1.5630    2.0200 C   0  0  0  0  0  0  0  0  0  0  0  0
    6.5170   -0.9590    0.8300 C   0  0  0  0  0  0  0  0  0  0  0  0
    5.3680   -1.8320    0.4360 C   0  0  0  0  0  0  0  0  0  0  0  0
    4.5920   -1.3250   -0.7420 C   0  0  2  0  0  0  0  0  0  0  0  0
    3.4700   -2.3370   -0.9960 C   0  0  0  0  0  0  0  0  0  0  0  0
    5.4140   -1.1840   -1.9830 C   0  0  0  0  0  0  0  0  0  0  0  0
    3.9190   -0.0170   -0.3840 C   0  0  0  0  0  0  0  0  0  0  0  0
    3.1280    0.5200   -1.5540 C   0  0  0  0  0  0  0  0  0  0  0  0
    3.1420   -0.1510   -2.5960 O   0  0  0  0  0  0  0  0  0  0  0  0
    2.4300    1.7060   -1.4400 N   0  0  0  0  0  0  0  0  0  0  0  0
    1.6450    2.3320   -2.4270 C   0  0  0  0  0  0  0  0  0  0  0  0
    0.4740    1.5560   -2.8860 C   0  0  2  0  0  0  0  0  0  0  0  0
   -0.3830    1.1630   -1.8240 O   0  0  0  0  0  0  0  0  0  0  0  0
   -1.6750    1.6420   -1.6640 C   0  0  0  0  0  0  0  0  0  0  0  0
   -2.0810    2.4690   -2.5210 O   0  0  0  0  0  0  0  0  0  0  0  0
   -2.5380    1.2230   -0.5650 C   0  0  0  0  0  0  0  0  0  0  0  0
   -2.6610    1.7920    0.6700 C   0  0  0  0  0  0  0  0  0  0  0  0
   -1.9070    2.9850    1.1300 C   0  0  0  0  0  0  0  0  0  0  0  0
   -2.2950    3.2670    2.4340 O   0  0  0  0  0  0  0  0  0  0  0  0
   -1.6250    4.3820    2.9380 C   0  0  0  0  0  0  0  0  0  0  0  0
   -3.5850    1.0720    1.3830 N   0  0  0  0  0  0  0  0  0  0  0  0
   -4.0730    0.0550    0.6650 C   0  0  0  0  0  0  0  0  0  0  0  0
   -5.0500   -0.9780    0.9520 C   0  0  0  0  0  0  0  0  0  0  0  0
   -5.2560   -1.8090   -0.0450 O   0  0  0  0  0  0  0  0  0  0  0  0
   -5.8200   -1.2550    2.1020 C   0  0  0  0  0  0  0  0  0  0  0  0
   -6.6650   -2.3050    2.0810 C   0  0  0  0  0  0  0  0  0  0  0  0
   -7.5220   -2.7030    3.2080 C   0  0  0  0  0  0  0  0  0  0  0  0
   -7.4140   -1.9100    4.3490 O   0  0  0  0  0  0  0  0  0  0  0  0
   -6.5630   -0.8290    4.4110 C   0  0  0  0  0  0  0  0  0  0  0  0
   -5.7980   -0.5160    3.3320 C   0  0  0  0  0  0  0  0  0  0  0  0
   -3.4050    0.1610   -0.5630 C   0  0  0  0  0  0  0  0  0  0  0  0
   -3.5830   -0.7360   -1.7300 C   0  0  0  0  0  0  0  0  0  0  0  0
    0.7290    0.4300   -3.7650 C   0  0  0  0  0  0  0  0  0  0  0  0
    0.2930   -0.9190   -3.5490 N   0  0  0  0  0  0  0  0  0  0  0  0
    1.4020    0.6400   -4.8350 O   0  0  0  0  0  0  0  0  0  0  0  0
  1  2  1  0
  2  3  1  0
  3  4  1  0
  4  5  1  6
  4  6  1  0
  4  7  1  0
  7  8  1  0
  8  9  2  0
  8 10  1  0
 10 11  1  0
 12 11  1  1
 12 13  1  0
 12 33  1  0
 13 14  1  0
 14 15  2  0
 14 16  1  0
 16 17  2  0
 16 31  1  0
 17 18  1  0
 17 21  1  0
 18 19  1  0
 19 20  1  0
 21 22  1  0
 22 23  1  0
 22 31  2  0
 23 24  2  0
 23 25  1  0
 25 26  2  0
 25 30  1  0
 26 27  1  0
 27 28  1  0
 28 29  1  0
 29 30  2  0
 31 32  1  0
 33 34  1  0
 33 35  2  0
M  END
