
     RDKit          3D

 34 38  0  0  0  0  0  0  0  0999 V2000
   -7.9460    2.2820    0.4620 C   0  0  0  0  0  0  0  0  0  0  0  0
   -7.0900    1.0400    0.5610 C   0  0  0  0  0  0  0  0  0  0  0  0
   -5.8050    1.1470    0.3160 C   0  0  0  0  0  0  0  0  0  0  0  0
   -5.1490    2.3440   -0.0370 C   0  0  0  0  0  0  0  0  0  0  0  0
   -3.8210    2.0940   -0.1980 C   0  0  0  0  0  0  0  0  0  0  0  0
   -3.6320    0.7400    0.0520 C   0  0  0  0  0  0  0  0  0  0  0  0
   -2.4460    0.0180    0.0200 C   0  0  0  0  0  0  0  0  0  0  0  0
   -1.2970    0.6540   -0.2730 N   0  0  0  0  0  0  0  0  0  0  0  0
   -0.1420   -0.0140   -0.2860 C   0  0  0  0  0  0  0  0  0  0  0  0
    1.1210    0.6210   -0.6040 N   0  0  0  0  0  0  0  0  0  0  0  0
    1.0660    1.5760   -1.6720 C   0  0  0  0  0  0  0  0  0  0  0  0
    2.2410    0.2510    0.1810 C   0  0  0  0  0  0  0  0  0  0  0  0
    3.3270   -0.5100   -0.4800 C   0  0  1  0  0  0  0  0  0  0  0  0
    4.0110    0.1460   -1.6250 C   0  0  0  0  0  0  0  0  0  0  0  0
    4.7600   -0.9410   -2.4000 C   0  0  0  0  0  0  0  0  0  0  0  0
    5.5320   -1.7480   -1.3770 C   0  0  0  0  0  0  0  0  0  0  0  0
    5.6200   -1.0670   -0.1070 N   0  0  0  0  0  0  0  0  0  0  0  0
    6.8910   -0.7180    0.4120 C   0  0  0  0  0  0  0  0  0  0  0  0
    7.9690   -0.9750   -0.1810 O   0  0  0  0  0  0  0  0  0  0  0  0
    7.0120   -0.0040    1.7310 C   0  0  0  0  0  0  0  0  0  0  0  0
    8.4500    0.2610    2.0580 C   0  0  0  0  0  0  0  0  0  0  0  0
    9.2300    1.2700    0.8260 Cl  0  0  0  0  0  0  0  0  0  0  0  0
    4.4030   -0.7600    0.5990 C   0  0  0  0  0  0  0  0  0  0  0  0
   -0.1660   -1.3500    0.0040 C   0  0  0  0  0  0  0  0  0  0  0  0
   -1.3460   -2.0270    0.3090 C   0  0  0  0  0  0  0  0  0  0  0  0
   -2.5140   -1.3120    0.3140 C   0  0  0  0  0  0  0  0  0  0  0  0
   -3.7610   -1.8890    0.6290 C   0  0  0  0  0  0  0  0  0  0  0  0
   -3.7010   -3.3170    0.9050 C   0  0  0  0  0  0  0  0  0  0  0  0
   -4.8970   -1.1440    0.6480 C   0  0  0  0  0  0  0  0  0  0  0  0
   -6.1990   -1.7690    0.9790 C   0  0  0  0  0  0  0  0  0  0  0  0
   -4.8310    0.1890    0.3570 N   0  0  0  0  0  0  0  0  0  0  0  0
   -3.1390    3.2900   -0.5550 N   0  0  0  0  0  0  0  0  0  0  0  0
   -4.0340    4.2040   -0.6010 C   0  0  0  0  0  0  0  0  0  0  0  0
   -5.3640    3.6310   -0.2680 C   0  0  0  0  0  0  0  0  0  0  0  0
  1  2  1  0
  2  3  2  3
  3  4  1  0
  3 31  1  0
  4  5  1  0
  4 34  2  0
  5  6  2  0
  5 32  1  0
  6  7  1  0
  6 31  1  0
  7  8  2  0
  7 26  1  0
  8  9  1  0
  9 10  1  0
  9 24  2  0
 10 11  1  0
 10 12  1  0
 13 12  1  1
 13 14  1  0
 13 23  1  0
 14 15  1  0
 15 16  1  0
 16 17  1  0
 17 18  1  0
 17 23  1  0
 18 19  2  0
 18 20  1  0
 20 21  1  0
 21 22  1  0
 24 25  1  0
 25 26  2  0
 26 27  1  0
 27 28  1  0
 27 29  2  0
 29 30  1  0
 29 31  1  0
 32 33  2  0
 33 34  1  0
M  END
