
     RDKit          3D

 35 36  0  0  0  0  0  0  0  0999 V2000
    3.4080   -5.8060   -0.4170 C   0  0  0  0  0  0  0  0  0  0  0  0
    3.2100   -4.3590   -0.8530 C   0  0  0  0  0  0  0  0  0  0  0  0
    1.9320   -3.8250   -0.3290 C   0  0  0  0  0  0  0  0  0  0  0  0
    1.9130   -2.7700    0.4820 C   0  0  0  0  0  0  0  0  0  0  0  0
    3.0670   -2.1290    0.8720 O   0  0  0  0  0  0  0  0  0  0  0  0
    3.5930   -0.9880    0.3260 C   0  0  0  0  0  0  0  0  0  0  0  0
    3.0090   -0.3210   -0.7260 C   0  0  0  0  0  0  0  0  0  0  0  0
    3.5990    0.8220   -1.2200 C   0  0  0  0  0  0  0  0  0  0  0  0
    4.7670    1.3410   -0.7030 C   0  0  0  0  0  0  0  0  0  0  0  0
    5.3790    2.5500   -1.2350 C   0  0  0  0  0  0  0  0  0  0  0  0
    4.8020    3.1180   -2.1970 O   0  0  0  0  0  0  0  0  0  0  0  0
    6.5330    3.1030   -0.7580 O   0  0  0  0  0  0  0  0  0  0  0  0
    7.1390    4.2830   -1.2710 C   0  0  0  0  0  0  0  0  0  0  0  0
    5.3520    0.6730    0.3510 C   0  0  0  0  0  0  0  0  0  0  0  0
    6.5550    1.1370    0.9430 N   0  0  0  0  0  0  0  0  0  0  0  0
    4.7670   -0.4910    0.8660 C   0  0  0  0  0  0  0  0  0  0  0  0
    0.6360   -2.2960    0.9620 C   0  0  0  0  0  0  0  0  0  0  0  0
   -0.4360   -2.8920    0.6040 O   0  0  0  0  0  0  0  0  0  0  0  0
    0.5730   -1.1750    1.8240 N   0  0  0  0  0  0  0  0  0  0  0  0
   -0.7010   -0.7230    2.2930 C   0  0  0  0  0  0  0  0  0  0  0  0
   -1.4220    0.0040    1.2180 C   0  0  0  0  0  0  0  0  0  0  0  0
   -2.8060    0.2030    1.2820 C   0  0  0  0  0  0  0  0  0  0  0  0
   -3.4950    0.8660    0.3100 C   0  0  0  0  0  0  0  0  0  0  0  0
   -4.9740    1.0330    0.4530 C   0  0  2  0  0  0  0  0  0  0  0  0
   -5.7250    0.2010   -0.5100 C   0  0  0  0  0  0  0  0  0  0  0  0
   -5.3470   -1.2760   -0.2230 C   0  0  0  0  0  0  0  0  0  0  0  0
   -5.6910   -1.6110    1.0780 O   0  0  0  0  0  0  0  0  0  0  0  0
   -5.2470    2.4690    0.5920 C   0  0  0  0  0  0  0  0  0  0  0  0
   -6.6260    2.9640    0.7440 C   0  0  0  0  0  0  0  0  0  0  0  0
   -7.4840    2.7950   -0.4230 C   0  0  0  0  0  0  0  0  0  0  0  0
   -7.0660    2.5380   -1.5150 O   0  0  0  0  0  0  0  0  0  0  0  0
   -2.8140    1.3440   -0.7450 N   0  0  0  0  0  0  0  0  0  0  0  0
   -1.4640    1.1700   -0.8420 C   0  0  0  0  0  0  0  0  0  0  0  0
   -0.8490    1.6300   -1.8450 O   0  0  0  0  0  0  0  0  0  0  0  0
   -0.7380    0.5040    0.1220 C   0  0  0  0  0  0  0  0  0  0  0  0
  1  2  1  0
  2  3  1  0
  3  4  2  3
  4  5  1  0
  4 17  1  0
  5  6  1  0
  6  7  2  0
  6 16  1  0
  7  8  1  0
  8  9  2  0
  9 10  1  0
  9 14  1  0
 10 11  2  0
 10 12  1  0
 12 13  1  0
 14 15  1  0
 14 16  2  0
 17 18  2  0
 17 19  1  0
 19 20  1  0
 20 21  1  0
 21 22  1  0
 21 35  2  0
 22 23  2  0
 23 24  1  0
 23 32  1  0
 24 25  1  6
 24 28  1  0
 25 26  1  0
 26 27  1  0
 28 29  1  0
 29 30  1  0
 30 31  2  0
 32 33  1  0
 33 34  2  0
 33 35  1  0
M  END
