
     RDKit          3D

 35 37  0  0  0  0  0  0  0  0999 V2000
    2.8710    0.9250    4.7630 N   0  0  0  0  0  0  0  0  0  0  0  0
    2.1230   -0.4970    4.1910 S   0  0  1  0  0  0  0  0  0  0  0  0
    2.8870   -1.6960    4.7320 O   0  0  0  0  0  0  0  0  0  0  0  0
    0.7070   -0.5910    4.6810 O   0  0  0  0  0  0  0  0  0  0  0  0
    2.0770   -0.5490    2.4420 C   0  0  0  0  0  0  0  0  0  0  0  0
    3.1220   -1.1230    1.7720 C   0  0  0  0  0  0  0  0  0  0  0  0
    4.1580   -1.6340    2.4780 F   0  0  0  0  0  0  0  0  0  0  0  0
    3.0640   -1.1510    0.4000 C   0  0  0  0  0  0  0  0  0  0  0  0
    4.1240   -1.7310   -0.2440 F   0  0  0  0  0  0  0  0  0  0  0  0
    1.9950   -0.6240   -0.3370 C   0  0  0  0  0  0  0  0  0  0  0  0
    2.0920   -0.6610   -2.0570 S   0  0  2  0  0  0  0  0  0  0  0  0
    0.7660   -0.7240   -2.7300 O   0  0  0  0  0  0  0  0  0  0  0  0
    2.8410   -1.9170   -2.4480 O   0  0  0  0  0  0  0  0  0  0  0  0
    2.9230    0.7670   -2.7190 C   0  0  0  0  0  0  0  0  0  0  0  0
    4.3390    0.8740   -2.2010 C   0  0  0  0  0  0  0  0  0  0  0  0
    4.9580    2.0000   -2.7370 O   0  0  0  0  0  0  0  0  0  0  0  0
    0.9450   -0.0510    0.3370 C   0  0  0  0  0  0  0  0  0  0  0  0
   -0.2120    0.4590   -0.3040 N   0  0  0  0  0  0  0  0  0  0  0  0
   -1.4440   -0.2280   -0.2330 C   0  0  2  0  0  0  0  0  0  0  0  0
   -1.4230   -1.6280   -0.7560 C   0  0  0  0  0  0  0  0  0  0  0  0
   -2.1670   -2.0310   -1.8500 C   0  0  0  0  0  0  0  0  0  0  0  0
   -2.1780   -3.3330   -2.3340 C   0  0  0  0  0  0  0  0  0  0  0  0
   -1.4220   -4.2770   -1.7090 C   0  0  0  0  0  0  0  0  0  0  0  0
   -0.6660   -3.9440   -0.6240 C   0  0  0  0  0  0  0  0  0  0  0  0
   -0.6720   -2.6400   -0.1620 C   0  0  0  0  0  0  0  0  0  0  0  0
   -2.6540    0.4480   -0.7420 C   0  0  1  0  0  0  0  0  0  0  0  0
   -3.7210   -0.4760   -0.5270 O   0  0  0  0  0  0  0  0  0  0  0  0
   -3.0910    1.6790   -0.1020 C   0  0  0  0  0  0  0  0  0  0  0  0
   -4.4080    2.0800   -0.3420 C   0  0  0  0  0  0  0  0  0  0  0  0
   -4.9460    3.2130    0.1960 C   0  0  0  0  0  0  0  0  0  0  0  0
   -4.1820    4.0160    1.0160 C   0  0  0  0  0  0  0  0  0  0  0  0
   -2.8870    3.6540    1.2740 C   0  0  0  0  0  0  0  0  0  0  0  0
   -2.3510    2.4900    0.7140 C   0  0  0  0  0  0  0  0  0  0  0  0
    1.0270   -0.0330    1.7430 C   0  0  0  0  0  0  0  0  0  0  0  0
    0.0000    0.5260    2.4470 F   0  0  0  0  0  0  0  0  0  0  0  0
  2  1  1  6
  2  3  2  0
  2  4  2  0
  2  5  1  0
  5  6  2  0
  5 34  1  0
  6  7  1  0
  6  8  1  0
  8  9  1  0
  8 10  2  0
 10 11  1  0
 10 17  1  0
 11 12  2  0
 11 13  2  0
 11 14  1  6
 14 15  1  0
 15 16  1  0
 17 18  1  0
 17 34  2  0
 19 18  1  6
 19 20  1  0
 19 26  1  0
 20 21  2  0
 20 25  1  0
 21 22  1  0
 22 23  2  0
 23 24  1  0
 24 25  2  0
 26 27  1  1
 26 28  1  0
 28 29  2  0
 28 33  1  0
 29 30  1  0
 30 31  2  0
 31 32  1  0
 32 33  2  0
 34 35  1  0
M  END
