
     RDKit          3D

 34 38  0  0  0  0  0  0  0  0999 V2000
    9.7880    0.8900    0.0280 C   0  0  0  0  0  0  0  0  0  0  0  0
    8.3890    0.5370    0.5150 C   0  0  2  0  0  0  0  0  0  0  0  0
    8.1060   -0.8960    0.0980 C   0  0  0  0  0  0  0  0  0  0  0  0
    7.3900    1.5010    0.0380 C   0  0  0  0  0  0  0  0  0  0  0  0
    7.7090    2.4950   -0.7010 O   0  0  0  0  0  0  0  0  0  0  0  0
    5.9940    1.3380    0.4070 C   0  0  0  0  0  0  0  0  0  0  0  0
    5.1120    0.5440   -0.3220 C   0  0  0  0  0  0  0  0  0  0  0  0
    3.7860    0.3860   -0.0110 C   0  0  0  0  0  0  0  0  0  0  0  0
    2.8870   -0.4730   -0.8330 C   0  0  1  0  0  0  0  0  0  0  0  0
    2.4720   -1.7130   -0.1110 C   0  0  0  0  0  0  0  0  0  0  0  0
    0.9970   -1.8180   -0.3810 C   0  0  0  0  0  0  0  0  0  0  0  0
    0.0400   -2.7960   -0.1630 C   0  0  0  0  0  0  0  0  0  0  0  0
   -1.2900   -2.6010   -0.5430 C   0  0  0  0  0  0  0  0  0  0  0  0
   -1.6730   -1.4260   -1.1450 C   0  0  0  0  0  0  0  0  0  0  0  0
   -3.0640   -1.1730   -1.5830 C   0  0  0  0  0  0  0  0  0  0  0  0
   -3.9230   -0.5650   -0.6550 N   0  0  0  0  0  0  0  0  0  0  0  0
   -4.1260   -1.2740    0.5520 C   0  0  0  0  0  0  0  0  0  0  0  0
   -5.3250   -0.7130    1.2910 C   0  0  0  0  0  0  0  0  0  0  0  0
   -5.8930    0.4550    0.6080 N   0  0  0  0  0  0  0  0  0  0  0  0
   -7.3090    0.5420    0.5400 C   0  0  0  0  0  0  0  0  0  0  0  0
   -7.9920    1.3430   -0.3420 C   0  0  0  0  0  0  0  0  0  0  0  0
   -9.3900    1.4050   -0.3680 C   0  0  0  0  0  0  0  0  0  0  0  0
  -10.1250    0.6480    0.5120 C   0  0  0  0  0  0  0  0  0  0  0  0
   -9.4210   -0.1470    1.3880 C   0  0  0  0  0  0  0  0  0  0  0  0
   -8.0820   -0.1970    1.4000 N   0  0  0  0  0  0  0  0  0  0  0  0
   -5.0370    1.4690    0.0500 C   0  0  0  0  0  0  0  0  0  0  0  0
   -3.7690    0.8440   -0.5320 C   0  0  0  0  0  0  0  0  0  0  0  0
   -0.7360   -0.4870   -1.3510 N   0  0  0  0  0  0  0  0  0  0  0  0
    0.5510   -0.6560   -0.9910 C   0  0  0  0  0  0  0  0  0  0  0  0
    1.6570    0.2310   -1.1320 N   0  0  0  0  0  0  0  0  0  0  0  0
    3.2920    1.0650    1.1050 C   0  0  0  0  0  0  0  0  0  0  0  0
    4.1390    1.8590    1.8470 C   0  0  0  0  0  0  0  0  0  0  0  0
    5.4830    1.9990    1.5050 C   0  0  0  0  0  0  0  0  0  0  0  0
    6.5350    3.0090    2.4620 Cl  0  0  0  0  0  0  0  0  0  0  0  0
  2  1  1  6
  2  3  1  0
  2  4  1  0
  4  5  2  0
  4  6  1  0
  6  7  2  0
  6 33  1  0
  7  8  1  0
  9  8  1  1
  8 31  2  0
  9 10  1  0
  9 30  1  0
 10 11  1  0
 11 12  2  0
 11 29  1  0
 12 13  1  0
 13 14  2  0
 14 15  1  0
 14 28  1  0
 15 16  1  0
 16 17  1  0
 16 27  1  0
 17 18  1  0
 18 19  1  0
 19 20  1  0
 19 26  1  0
 20 21  2  0
 20 25  1  0
 21 22  1  0
 22 23  2  0
 23 24  1  0
 24 25  2  0
 26 27  1  0
 28 29  2  0
 29 30  1  0
 31 32  1  0
 32 33  2  0
 33 34  1  0
M  END
