
     RDKit          3D

 35 36  0  0  0  0  0  0  0  0999 V2000
    9.6240    1.6740    1.7380 C   0  0  0  0  0  0  0  0  0  0  0  0
    8.2880    1.1260    1.2270 C   0  0  0  0  0  0  0  0  0  0  0  0
    8.2300   -0.1250    0.9350 C   0  0  0  0  0  0  0  0  0  0  0  0
    7.1910   -0.9920    0.4410 C   0  0  0  0  0  0  0  0  0  0  0  0
    7.5050   -2.3390    0.1480 C   0  0  0  0  0  0  0  0  0  0  0  0
    6.5940   -3.2240   -0.3120 C   0  0  0  0  0  0  0  0  0  0  0  0
    5.2890   -2.7990   -0.5090 C   0  0  0  0  0  0  0  0  0  0  0  0
    4.2360   -3.7190   -1.0130 C   0  0  0  0  0  0  0  0  0  0  0  0
    4.9370   -1.5100   -0.2400 C   0  0  0  0  0  0  0  0  0  0  0  0
    3.6490   -1.0890   -0.4350 O   0  0  0  0  0  0  0  0  0  0  0  0
    3.1950   -0.5510   -1.6530 C   0  0  0  0  0  0  0  0  0  0  0  0
    1.7210   -0.2260   -1.5090 C   0  0  2  0  0  0  0  0  0  0  0  0
    1.2330    0.3160   -2.7230 O   0  0  0  0  0  0  0  0  0  0  0  0
    1.5760    0.7930   -0.4100 C   0  0  0  0  0  0  0  0  0  0  0  0
    0.1820    1.1330   -0.2710 N   0  0  0  0  0  0  0  0  0  0  0  0
   -0.7940    0.1740    0.0630 C   0  0  0  0  0  0  0  0  0  0  0  0
   -0.4880   -1.0360    0.2610 O   0  0  0  0  0  0  0  0  0  0  0  0
   -2.1620    0.6110    0.1730 N   0  0  0  0  0  0  0  0  0  0  0  0
   -3.1370   -0.3790    0.5130 C   0  0  0  0  0  0  0  0  0  0  0  0
   -4.5800    0.1710    0.5940 C   0  0  1  0  0  0  0  0  0  0  0  0
   -5.5130   -0.9370    1.0120 C   0  0  0  0  0  0  0  0  0  0  0  0
   -5.5890   -2.1440    0.1680 C   0  0  0  0  0  0  0  0  0  0  0  0
   -4.4150   -2.8820    0.0530 O   0  0  0  0  0  0  0  0  0  0  0  0
   -4.5910    1.2660    1.6360 C   0  0  0  0  0  0  0  0  0  0  0  0
   -4.5270    2.4990    0.8310 C   0  0  0  0  0  0  0  0  0  0  0  0
   -4.5940    3.6560    1.3580 O   0  0  0  0  0  0  0  0  0  0  0  0
   -4.3930    2.1650   -0.4860 O   0  0  0  0  0  0  0  0  0  0  0  0
   -4.9090    0.8160   -0.6730 C   0  0  2  0  0  0  0  0  0  0  0  0
   -6.3250    1.0260   -1.0720 C   0  0  0  0  0  0  0  0  0  0  0  0
   -7.1480    1.9040   -0.1770 C   0  0  0  0  0  0  0  0  0  0  0  0
   -8.5190    1.9570   -0.8190 C   0  0  0  0  0  0  0  0  0  0  0  0
   -9.4950    2.7390   -0.1500 N   0  0  0  0  0  0  0  0  0  0  0  0
   -8.8120    1.3660   -1.8660 O   0  0  0  0  0  0  0  0  0  0  0  0
    5.9070   -0.6250    0.2340 C   0  0  0  0  0  0  0  0  0  0  0  0
    5.4460    0.7630    0.5310 C   0  0  0  0  0  0  0  0  0  0  0  0
  1  2  1  0
  2  3  2  3
  3  4  1  0
  4  5  2  0
  4 34  1  0
  5  6  1  0
  6  7  2  0
  7  8  1  0
  7  9  1  0
  9 10  1  0
  9 34  2  0
 10 11  1  0
 11 12  1  0
 12 13  1  6
 12 14  1  0
 14 15  1  0
 15 16  1  0
 16 17  2  0
 16 18  1  0
 18 19  1  0
 20 19  1  6
 20 21  1  0
 20 24  1  0
 20 28  1  0
 21 22  1  0
 22 23  1  0
 24 25  1  0
 25 26  2  0
 25 27  1  0
 27 28  1  0
 28 29  1  1
 29 30  1  0
 30 31  1  0
 31 32  1  0
 31 33  2  0
 34 35  1  0
M  END
