
     RDKit          3D

 34 38  0  0  0  0  0  0  0  0999 V2000
   -6.4930    1.4260   -1.4830 C   0  0  0  0  0  0  0  0  0  0  0  0
   -5.1470    1.1160   -0.9620 C   0  0  0  0  0  0  0  0  0  0  0  0
   -4.0390    1.8390   -1.4160 C   0  0  0  0  0  0  0  0  0  0  0  0
   -2.7630    1.5840   -0.9560 C   0  0  0  0  0  0  0  0  0  0  0  0
   -2.5870    0.5850   -0.0220 C   0  0  0  0  0  0  0  0  0  0  0  0
   -3.6740   -0.1430    0.4390 C   0  0  0  0  0  0  0  0  0  0  0  0
   -3.5030   -1.2190    1.4410 C   0  0  0  0  0  0  0  0  0  0  0  0
   -4.9450    0.1170   -0.0240 C   0  0  0  0  0  0  0  0  0  0  0  0
   -6.0750   -0.6760    0.4900 C   0  0  0  0  0  0  0  0  0  0  0  0
   -6.8830    0.0790    1.4720 C   0  0  0  0  0  0  0  0  0  0  0  0
   -7.5120    0.6680    2.2370 N   0  0  0  0  0  0  0  0  0  0  0  0
   -1.2320    0.4920    0.3050 O   0  0  0  0  0  0  0  0  0  0  0  0
   -0.4560    1.2890   -0.5680 C   0  0  1  0  0  0  0  0  0  0  0  0
    0.1850    0.4120   -1.6330 C   0  0  0  0  0  0  0  0  0  0  0  0
    1.0530   -0.5990   -1.0650 N   0  0  0  0  0  0  0  0  0  0  0  0
    2.3690   -0.4840   -0.8130 C   0  0  0  0  0  0  0  0  0  0  0  0
    3.2540    0.7160   -1.0550 C   0  0  0  0  0  0  0  0  0  0  0  0
    3.9780    1.0690    0.1310 N   0  0  0  0  0  0  0  0  0  0  0  0
    3.2180    1.4690    1.3350 C   0  0  0  0  0  0  0  0  0  0  0  0
    5.4020    1.0660    0.2770 C   0  0  0  0  0  0  0  0  0  0  0  0
    6.2500    0.6800   -0.7290 C   0  0  0  0  0  0  0  0  0  0  0  0
    7.6380    0.6920   -0.5620 C   0  0  0  0  0  0  0  0  0  0  0  0
    8.1610    1.1000    0.6350 C   0  0  0  0  0  0  0  0  0  0  0  0
    7.2770    1.4790    1.6190 C   0  0  0  0  0  0  0  0  0  0  0  0
    5.9540    1.4670    1.4590 N   0  0  0  0  0  0  0  0  0  0  0  0
    2.7830   -1.6510   -0.2910 N   0  0  0  0  0  0  0  0  0  0  0  0
    1.7650   -2.5270   -0.1960 C   0  0  0  0  0  0  0  0  0  0  0  0
    1.6210   -3.8240    0.2490 C   0  0  0  0  0  0  0  0  0  0  0  0
    0.4170   -4.4940    0.2270 C   0  0  0  0  0  0  0  0  0  0  0  0
   -0.6800   -3.8200   -0.2660 C   0  0  0  0  0  0  0  0  0  0  0  0
   -2.2190   -4.6670   -0.2970 Cl  0  0  0  0  0  0  0  0  0  0  0  0
   -0.5370   -2.5220   -0.7120 C   0  0  0  0  0  0  0  0  0  0  0  0
    0.6570   -1.8400   -0.6970 C   0  0  0  0  0  0  0  0  0  0  0  0
   -1.4370    2.2030   -1.2780 C   0  0  0  0  0  0  0  0  0  0  0  0
  1  2  1  0
  2  3  2  0
  2  8  1  0
  3  4  1  0
  4  5  2  0
  4 34  1  0
  5  6  1  0
  5 12  1  0
  6  7  1  0
  6  8  2  0
  8  9  1  0
  9 10  1  0
 10 11  3  0
 12 13  1  0
 13 14  1  6
 13 34  1  0
 14 15  1  0
 15 16  1  0
 15 33  1  0
 16 17  1  0
 16 26  2  0
 17 18  1  0
 18 19  1  0
 18 20  1  0
 20 21  2  0
 20 25  1  0
 21 22  1  0
 22 23  2  0
 23 24  1  0
 24 25  2  0
 26 27  1  0
 27 28  2  0
 27 33  1  0
 28 29  1  0
 29 30  2  0
 30 31  1  0
 30 32  1  0
 32 33  2  0
M  END
