
     RDKit          3D

 35 36  0  0  0  0  0  0  0  0999 V2000
   -7.6200   -2.9380   -0.9440 C   0  0  0  0  0  0  0  0  0  0  0  0
   -8.3440   -2.0920    0.0670 C   0  0  0  0  0  0  0  0  0  0  0  0
   -7.6800   -1.1380    0.6770 C   0  0  0  0  0  0  0  0  0  0  0  0
   -6.2340   -0.9090    0.3620 C   0  0  0  0  0  0  0  0  0  0  0  0
   -5.6620    0.0400    1.0020 C   0  0  0  0  0  0  0  0  0  0  0  0
   -4.3460    0.6220    1.0490 C   0  0  0  0  0  0  0  0  0  0  0  0
   -4.1640    1.6600    2.0010 C   0  0  0  0  0  0  0  0  0  0  0  0
   -5.2580    2.1200    2.7990 N   0  0  0  0  0  0  0  0  0  0  0  0
   -2.9240    2.2240    2.1510 C   0  0  0  0  0  0  0  0  0  0  0  0
   -2.7530    3.2970    3.1360 C   0  0  0  0  0  0  0  0  0  0  0  0
   -3.6920    3.7260    3.8540 O   0  0  0  0  0  0  0  0  0  0  0  0
   -1.8320    1.8420    1.4310 C   0  0  0  0  0  0  0  0  0  0  0  0
   -0.5010    2.5060    1.6540 C   0  0  0  0  0  0  0  0  0  0  0  0
   -1.9620    0.8390    0.4960 C   0  0  0  0  0  0  0  0  0  0  0  0
   -0.9290    0.4020   -0.2380 O   0  0  0  0  0  0  0  0  0  0  0  0
   -0.2370    0.5920   -1.3580 C   0  0  0  0  0  0  0  0  0  0  0  0
    0.9350   -0.3850   -1.5580 C   0  0  0  0  0  0  0  0  0  0  0  0
    1.8590   -0.2730   -0.5210 N   0  0  0  0  0  0  0  0  0  0  0  0
    1.5700   -0.7110    0.7810 C   0  0  0  0  0  0  0  0  0  0  0  0
    2.5100    0.0070    1.7660 C   0  0  0  0  0  0  0  0  0  0  0  0
    3.2790    0.8890    1.0270 O   0  0  0  0  0  0  0  0  0  0  0  0
    4.1100    0.1840    0.1210 C   0  0  2  0  0  0  0  0  0  0  0  0
    4.9680    1.2030   -0.5710 C   0  0  0  0  0  0  0  0  0  0  0  0
    5.8760    0.6410   -1.5210 N   0  0  0  0  0  0  0  0  0  0  0  0
    6.8680   -0.2980   -1.1360 C   0  0  0  0  0  0  0  0  0  0  0  0
    6.9000   -0.6020    0.0810 O   0  0  0  0  0  0  0  0  0  0  0  0
    7.7610   -0.8660   -2.0060 O   0  0  0  0  0  0  0  0  0  0  0  0
    8.7500   -1.7900   -1.6410 C   0  0  0  0  0  0  0  0  0  0  0  0
    9.7000   -1.1600   -0.6680 C   0  0  0  0  0  0  0  0  0  0  0  0
   10.6870   -2.0800   -0.3040 O   0  0  0  0  0  0  0  0  0  0  0  0
    3.2220   -0.5650   -0.8520 C   0  0  0  0  0  0  0  0  0  0  0  0
   -3.2400    0.2520    0.3300 C   0  0  0  0  0  0  0  0  0  0  0  0
   -3.3650   -0.7890   -0.7270 C   0  0  0  0  0  0  0  0  0  0  0  0
   -4.0130   -0.2080   -1.9280 C   0  0  0  0  0  0  0  0  0  0  0  0
   -3.3110    0.8710   -2.4940 O   0  0  0  0  0  0  0  0  0  0  0  0
  1  2  1  0
  2  3  2  3
  3  4  1  0
  4  5  2  3
  5  6  1  0
  6  7  2  0
  6 32  1  0
  7  8  1  0
  7  9  1  0
  9 10  1  0
  9 12  2  0
 10 11  2  0
 12 13  1  0
 12 14  1  0
 14 15  1  0
 14 32  2  0
 15 16  1  0
 16 17  1  0
 17 18  1  0
 18 19  1  0
 18 31  1  0
 19 20  1  0
 20 21  1  0
 21 22  1  0
 22 23  1  6
 22 31  1  0
 23 24  1  0
 24 25  1  0
 25 26  2  0
 25 27  1  0
 27 28  1  0
 28 29  1  0
 29 30  1  0
 32 33  1  0
 33 34  1  0
 34 35  1  0
M  END
