
     RDKit          3D

 34 38  0  0  0  0  0  0  0  0999 V2000
    7.8830    1.8220   -0.7350 C   0  0  0  0  0  0  0  0  0  0  0  0
    6.6050    1.1690   -0.3550 C   0  0  0  0  0  0  0  0  0  0  0  0
    5.4040    1.5970   -0.7760 N   0  0  0  0  0  0  0  0  0  0  0  0
    4.2440    1.0140   -0.4390 C   0  0  0  0  0  0  0  0  0  0  0  0
    2.9530    1.5090   -0.9170 C   0  0  0  0  0  0  0  0  0  0  0  0
    2.9700    2.6140   -1.7400 C   0  0  0  0  0  0  0  0  0  0  0  0
    1.7930    3.1550   -2.2420 C   0  0  0  0  0  0  0  0  0  0  0  0
    0.5910    2.5310   -1.8780 C   0  0  0  0  0  0  0  0  0  0  0  0
    0.5610    1.4280   -1.0580 C   0  0  0  0  0  0  0  0  0  0  0  0
   -0.7110    0.7890   -0.6750 C   0  0  0  0  0  0  0  0  0  0  0  0
   -0.6290   -0.3680   -0.2640 O   0  0  0  0  0  0  0  0  0  0  0  0
   -1.9120    1.4700   -0.7780 N   0  0  0  0  0  0  0  0  0  0  0  0
   -3.2370    1.0150   -0.5440 C   0  0  0  0  0  0  0  0  0  0  0  0
   -4.2580    1.9140   -0.4290 N   0  0  0  0  0  0  0  0  0  0  0  0
   -5.4300    1.2650   -0.2240 C   0  0  0  0  0  0  0  0  0  0  0  0
   -6.5760    1.8950   -0.0760 C   0  0  0  0  0  0  0  0  0  0  0  0
   -7.8900    1.3610    0.1440 C   0  0  0  0  0  0  0  0  0  0  0  0
   -8.2370    1.0330    1.5850 C   0  0  0  0  0  0  0  0  0  0  0  0
   -8.1300    2.5280    2.5610 Cl  0  0  0  0  0  0  0  0  0  0  0  0
   -5.1500   -0.0770   -0.2090 C   0  0  0  0  0  0  0  0  0  0  0  0
   -3.7940   -0.1880   -0.4130 N   0  0  0  0  0  0  0  0  0  0  0  0
   -3.1860   -1.4900   -0.5340 C   0  0  0  0  0  0  0  0  0  0  0  0
   -4.1920   -2.5500   -0.9940 C   0  0  0  0  0  0  0  0  0  0  0  0
   -5.3410   -2.5100   -0.0490 C   0  0  2  0  0  0  0  0  0  0  0  0
   -6.3960   -3.5150   -0.4850 C   0  0  0  0  0  0  0  0  0  0  0  0
   -5.9290   -1.1250   -0.0090 C   0  0  0  0  0  0  0  0  0  0  0  0
    1.7650    0.9440   -0.5950 C   0  0  0  0  0  0  0  0  0  0  0  0
    4.3190   -0.0730    0.3780 N   0  0  0  0  0  0  0  0  0  0  0  0
    5.4540   -0.5740    0.8490 C   0  0  0  0  0  0  0  0  0  0  0  0
    6.6400    0.0650    0.4720 C   0  0  0  0  0  0  0  0  0  0  0  0
    7.9670   -0.4170    0.9430 C   0  0  0  0  0  0  0  0  0  0  0  0
    7.9140   -1.8480    1.4070 C   0  0  0  0  0  0  0  0  0  0  0  0
    6.7450   -2.0990    2.3360 C   0  0  0  0  0  0  0  0  0  0  0  0
    5.4240   -1.7650    1.7340 C   0  0  0  0  0  0  0  0  0  0  0  0
  1  2  1  0
  2  3  2  0
  2 30  1  0
  3  4  1  0
  4  5  1  0
  4 28  2  0
  5  6  2  0
  5 27  1  0
  6  7  1  0
  7  8  2  0
  8  9  1  0
  9 10  1  0
  9 27  2  0
 10 11  2  0
 10 12  1  0
 12 13  1  0
 13 14  2  0
 13 21  1  0
 14 15  1  0
 15 16  2  3
 15 20  1  0
 16 17  1  0
 17 18  1  0
 18 19  1  0
 20 21  1  0
 20 26  2  0
 21 22  1  0
 22 23  1  0
 23 24  1  0
 24 25  1  6
 24 26  1  0
 28 29  1  0
 29 30  2  0
 29 34  1  0
 30 31  1  0
 31 32  1  0
 32 33  1  0
 33 34  1  0
M  END
