
     RDKit          3D

 27 27  0  0  0  0  0  0  0  0999 V2000
   -2.7820    3.7620   -0.8150 C   0  0  0  0  0  0  0  0  0  0  0  0
   -3.0980    2.4760   -0.0890 C   0  0  2  0  0  0  0  0  0  0  0  0
   -1.9290    1.7980    0.4110 C   0  0  0  0  0  0  0  0  0  0  0  0
   -1.6460    0.5080    0.4920 C   0  0  0  0  0  0  0  0  0  0  0  0
   -0.3410    0.2110    1.0640 C   0  0  0  0  0  0  0  0  0  0  0  0
    0.5070    1.1870    1.1510 O   0  0  0  0  0  0  0  0  0  0  0  0
    0.1740   -0.9820    1.5810 N   0  0  0  0  0  0  0  0  0  0  0  0
    1.4780   -1.2880    2.0690 C   0  0  0  0  0  0  0  0  0  0  0  0
    2.6340   -1.4050    1.1940 C   0  0  0  0  0  0  0  0  0  0  0  0
    3.1800   -0.1130    0.1660 S   0  0  1  0  0  0  0  0  0  0  0  0
    2.1610    0.1960   -0.9250 O   0  0  0  0  0  0  0  0  0  0  0  0
    3.4830    1.1440    0.8920 O   0  0  0  0  0  0  0  0  0  0  0  0
    4.6870   -0.6250   -0.6990 C   0  0  0  0  0  0  0  0  0  0  0  0
    5.2070    0.4070   -1.6330 C   0  0  0  0  0  0  0  0  0  0  0  0
    5.5700    1.6730   -0.9480 C   0  0  0  0  0  0  0  0  0  0  0  0
    6.5400    1.4430    0.0450 O   0  0  0  0  0  0  0  0  0  0  0  0
   -2.6160   -0.5490    0.1510 C   0  0  0  0  0  0  0  0  0  0  0  0
   -2.2310   -1.7700   -0.1870 C   0  0  0  0  0  0  0  0  0  0  0  0
   -0.9040   -2.0330   -0.2340 F   0  0  0  0  0  0  0  0  0  0  0  0
   -3.0820   -2.9180   -0.5600 C   0  0  1  0  0  0  0  0  0  0  0  0
   -3.3990   -3.7710    0.4740 O   0  0  0  0  0  0  0  0  0  0  0  0
   -4.1450   -2.6540   -1.3500 F   0  0  0  0  0  0  0  0  0  0  0  0
   -2.2510   -3.7270   -1.4170 F   0  0  0  0  0  0  0  0  0  0  0  0
   -3.9770   -0.1580   -0.2410 C   0  0  0  0  0  0  0  0  0  0  0  0
   -5.0150   -0.7750    0.1410 C   0  0  0  0  0  0  0  0  0  0  0  0
   -6.3510   -0.4240   -0.2270 N   0  0  0  0  0  0  0  0  0  0  0  0
   -4.0460    1.3540   -1.1830 S   0  0  0  0  0  0  0  0  0  0  0  0
  2  1  1  6
  2  3  1  0
  2 27  1  0
  3  4  2  0
  4  5  1  0
  4 17  1  0
  5  6  2  0
  5  7  1  0
  7  8  1  0
  8  9  1  0
 10  9  1  1
 10 11  2  0
 10 12  2  0
 10 13  1  0
 13 14  1  0
 14 15  1  0
 15 16  1  0
 17 18  2  3
 17 24  1  0
 18 19  1  0
 18 20  1  0
 20 21  1  1
 20 22  1  0
 20 23  1  0
 24 25  2  3
 24 27  1  0
 25 26  1  0
M  END
