
     RDKit          3D

 27 28  0  0  0  0  0  0  0  0999 V2000
   -4.7950   -2.8640   -0.2860 N   0  0  0  0  0  0  0  0  0  0  0  0
   -4.5440   -1.8800   -1.3170 C   0  0  2  0  0  0  0  0  0  0  0  0
   -5.3590   -2.1630   -2.4270 F   0  0  0  0  0  0  0  0  0  0  0  0
   -3.2470   -2.0650   -1.8130 F   0  0  0  0  0  0  0  0  0  0  0  0
   -4.7680   -0.4940   -0.8970 C   0  0  0  0  0  0  0  0  0  0  0  0
   -3.9840    0.1310   -0.0540 C   0  0  0  0  0  0  0  0  0  0  0  0
   -2.8230   -0.5490    0.5140 C   0  0  0  0  0  0  0  0  0  0  0  0
   -1.6040    0.1220    0.1740 O   0  0  0  0  0  0  0  0  0  0  0  0
   -0.3810   -0.3140    0.5850 C   0  0  0  0  0  0  0  0  0  0  0  0
   -0.2890   -1.3370    1.2870 O   0  0  0  0  0  0  0  0  0  0  0  0
    0.8670    0.3830    0.2310 C   0  0  0  0  0  0  0  0  0  0  0  0
    1.1110    1.5040   -0.5090 C   0  0  0  0  0  0  0  0  0  0  0  0
    2.3790    1.8960   -0.6510 C   0  0  0  0  0  0  0  0  0  0  0  0
    3.3730    1.2080   -0.0840 C   0  0  0  0  0  0  0  0  0  0  0  0
    4.8170    1.4290   -0.0750 C   0  0  0  0  0  0  0  0  0  0  0  0
    5.7090    0.4940   -0.1800 C   0  0  0  0  0  0  0  0  0  0  0  0
    7.4960    0.7640   -0.1670 S   0  0  0  0  0  0  0  0  0  0  0  0
    7.8880   -0.9430    0.3180 C   0  0  0  0  0  0  0  0  0  0  0  0
    8.9440   -1.3040    0.8600 O   0  0  0  0  0  0  0  0  0  0  0  0
    6.7380   -1.6730   -0.0710 N   0  0  0  0  0  0  0  0  0  0  0  0
    5.5940   -0.9270   -0.3330 C   0  0  0  0  0  0  0  0  0  0  0  0
    4.4960   -1.4860   -0.6940 O   0  0  0  0  0  0  0  0  0  0  0  0
    2.5180   -0.1220    0.7380 S   0  0  0  0  0  0  0  0  0  0  0  0
   -4.2530    1.5200    0.3400 C   0  0  0  0  0  0  0  0  0  0  0  0
   -5.3730    2.1120   -0.2480 O   0  0  0  0  0  0  0  0  0  0  0  0
   -3.5430    2.2080    1.1700 C   0  0  0  0  0  0  0  0  0  0  0  0
   -2.4430    1.7880    1.8170 F   0  0  0  0  0  0  0  0  0  0  0  0
  2  1  1  1
  2  3  1  0
  2  4  1  0
  2  5  1  0
  5  6  2  3
  6  7  1  0
  6 24  1  0
  7  8  1  0
  8  9  1  0
  9 10  2  0
  9 11  1  0
 11 12  2  0
 11 23  1  0
 12 13  1  0
 13 14  2  0
 14 15  1  0
 14 23  1  0
 15 16  2  3
 16 17  1  0
 16 21  1  0
 17 18  1  0
 18 19  2  0
 18 20  1  0
 20 21  1  0
 21 22  2  0
 24 25  1  0
 24 26  2  3
 26 27  1  0
M  END
