
     RDKit          3D

 27 27  0  0  0  0  0  0  0  0999 V2000
   -1.6160   -1.8910   -1.2870 C   0  0  0  0  0  0  0  0  0  0  0  0
   -0.9450   -0.6670   -0.8140 C   0  0  0  0  0  0  0  0  0  0  0  0
   -1.2470    0.5500   -1.4440 N   0  0  0  0  0  0  0  0  0  0  0  0
   -2.4370    1.2780   -1.0620 C   0  0  0  0  0  0  0  0  0  0  0  0
   -3.0470    0.9060    0.0230 C   0  0  0  0  0  0  0  0  0  0  0  0
   -4.2480    1.4170    0.6750 C   0  0  2  0  0  0  0  0  0  0  0  0
   -5.3580    1.3350   -0.1320 F   0  0  0  0  0  0  0  0  0  0  0  0
   -4.0310    2.7310    1.0440 F   0  0  0  0  0  0  0  0  0  0  0  0
   -4.5520    0.6880    1.8310 F   0  0  0  0  0  0  0  0  0  0  0  0
   -2.8830    2.3600   -1.8890 C   0  0  0  0  0  0  0  0  0  0  0  0
   -2.1430    2.6770   -3.0500 O   0  0  0  0  0  0  0  0  0  0  0  0
   -4.1800    3.2670   -1.6080 S   0  0  0  0  0  0  0  0  0  0  0  0
   -0.0400   -0.6800    0.2160 C   0  0  0  0  0  0  0  0  0  0  0  0
    0.5300    0.5940    0.5620 C   0  0  0  0  0  0  0  0  0  0  0  0
    0.1120    1.6080   -0.1390 O   0  0  0  0  0  0  0  0  0  0  0  0
    1.5070    0.9120    1.5830 C   0  0  0  0  0  0  0  0  0  0  0  0
    1.8580    2.7250    1.6250 S   0  0  0  0  0  0  0  0  0  0  0  0
    2.6720    3.2420    0.1020 C   0  0  0  0  0  0  0  0  0  0  0  0
    4.0120    2.6220    0.0170 C   0  0  0  0  0  0  0  0  0  0  0  0
    4.9020    2.8400   -1.0670 N   0  0  0  0  0  0  0  0  0  0  0  0
    4.4170    1.8500    0.9430 O   0  0  0  0  0  0  0  0  0  0  0  0
    0.2410   -1.9570    0.8340 C   0  0  0  0  0  0  0  0  0  0  0  0
    1.0590   -2.1850    1.8280 C   0  0  0  0  0  0  0  0  0  0  0  0
    1.2280   -3.5050    2.3320 O   0  0  0  0  0  0  0  0  0  0  0  0
    1.0910   -4.6560    1.5550 C   0  0  0  0  0  0  0  0  0  0  0  0
    0.4170   -4.3040    0.2580 C   0  0  0  0  0  0  0  0  0  0  0  0
   -0.3870   -3.1550    0.3900 O   0  0  0  0  0  0  0  0  0  0  0  0
  1  2  1  0
  2  3  1  0
  2 13  2  3
  3  4  1  0
  4  5  2  3
  4 10  1  0
  5  6  1  0
  6  7  1  6
  6  8  1  0
  6  9  1  0
 10 11  1  0
 10 12  2  0
 13 14  1  0
 13 22  1  0
 14 15  2  0
 14 16  1  0
 16 17  1  0
 17 18  1  0
 18 19  1  0
 19 20  1  0
 19 21  2  0
 22 23  2  0
 22 27  1  0
 23 24  1  0
 24 25  1  0
 25 26  1  0
 26 27  1  0
M  END
