
     RDKit          3D

 27 27  0  0  0  0  0  0  0  0999 V2000
   -3.4650    2.8580   -0.9660 C   0  0  0  0  0  0  0  0  0  0  0  0
   -4.2100    1.6700   -0.3200 C   0  0  2  0  0  0  0  0  0  0  0  0
   -4.5970    2.1940    1.0640 C   0  0  0  0  0  0  0  0  0  0  0  0
   -3.2620    0.5630   -0.1520 C   0  0  0  0  0  0  0  0  0  0  0  0
   -3.3360   -0.6810   -0.5030 C   0  0  0  0  0  0  0  0  0  0  0  0
   -2.1710   -1.5960   -0.1860 C   0  0  0  0  0  0  0  0  0  0  0  0
   -2.3000   -2.7840   -0.5490 O   0  0  0  0  0  0  0  0  0  0  0  0
   -0.8380   -0.8810    0.6250 S   0  0  0  0  0  0  0  0  0  0  0  0
    0.5770   -1.7850    1.0600 C   0  0  0  0  0  0  0  0  0  0  0  0
    0.8070   -3.0430    0.8380 C   0  0  0  0  0  0  0  0  0  0  0  0
   -0.0470   -3.9430    0.1940 N   0  0  0  0  0  0  0  0  0  0  0  0
    1.8480   -0.8360    1.9110 S   0  0  1  0  0  0  0  0  0  0  0  0
    1.1330    0.2020    2.7090 O   0  0  0  0  0  0  0  0  0  0  0  0
    2.5750   -1.7920    2.7840 O   0  0  0  0  0  0  0  0  0  0  0  0
    2.9300   -0.1190    0.8300 N   0  0  0  0  0  0  0  0  0  0  0  0
    3.6650   -1.0360    0.0190 C   0  0  0  0  0  0  0  0  0  0  0  0
    4.7810   -0.3210   -0.6930 C   0  0  0  0  0  0  0  0  0  0  0  0
    4.7770    1.1550   -0.5050 C   0  0  2  0  0  0  0  0  0  0  0  0
    5.5910    1.5520    0.7290 C   0  0  2  0  0  0  0  0  0  0  0  0
    5.5320    2.9490    0.8260 F   0  0  0  0  0  0  0  0  0  0  0  0
    6.9160    1.2530    0.4740 F   0  0  0  0  0  0  0  0  0  0  0  0
    5.1210    0.9550    1.8600 F   0  0  0  0  0  0  0  0  0  0  0  0
    3.4270    1.7880   -0.5100 C   0  0  0  0  0  0  0  0  0  0  0  0
    2.3240    0.8670   -0.0430 C   0  0  0  0  0  0  0  0  0  0  0  0
   -4.4610   -1.3040   -1.1880 C   0  0  2  0  0  0  0  0  0  0  0  0
   -5.5620   -0.5210   -1.3990 O   0  0  0  0  0  0  0  0  0  0  0  0
   -4.8610   -2.4830   -0.4920 O   0  0  0  0  0  0  0  0  0  0  0  0
  2  1  1  6
  2  3  1  0
  2  4  1  0
  4  5  2  3
  5  6  1  0
  5 25  1  0
  6  7  2  0
  6  8  1  0
  8  9  1  0
  9 10  2  3
  9 12  1  0
 10 11  1  0
 12 13  2  0
 12 14  2  0
 12 15  1  6
 15 16  1  0
 15 24  1  0
 16 17  1  0
 18 17  1  1
 18 19  1  0
 18 23  1  0
 19 20  1  1
 19 21  1  0
 19 22  1  0
 23 24  1  0
 25 26  1  1
 25 27  1  0
M  END
