
     RDKit          3D

 27 28  0  0  0  0  0  0  0  0999 V2000
    2.1460   -4.0960   -0.3850 N   0  0  0  0  0  0  0  0  0  0  0  0
    2.1110   -2.7170   -0.0590 C   0  0  0  0  0  0  0  0  0  0  0  0
    3.1580   -2.1520    0.2310 O   0  0  0  0  0  0  0  0  0  0  0  0
    0.7900   -2.0500   -0.0930 C   0  0  0  0  0  0  0  0  0  0  0  0
   -0.6780   -2.8630   -0.5100 S   0  0  0  0  0  0  0  0  0  0  0  0
   -2.0170   -1.5900   -0.3990 C   0  0  0  0  0  0  0  0  0  0  0  0
   -3.2230   -1.9190   -0.6590 N   0  0  0  0  0  0  0  0  0  0  0  0
   -4.2720   -0.9990   -0.5910 C   0  0  0  0  0  0  0  0  0  0  0  0
   -5.4200   -1.4580   -0.3280 O   0  0  0  0  0  0  0  0  0  0  0  0
   -4.0730    0.4300   -0.8100 C   0  0  0  0  0  0  0  0  0  0  0  0
   -5.3690    1.1810   -0.6620 C   0  0  1  0  0  0  0  0  0  0  0  0
   -6.3110    0.7040   -1.5590 O   0  0  0  0  0  0  0  0  0  0  0  0
   -5.8160    1.1450    0.7680 C   0  0  0  0  0  0  0  0  0  0  0  0
   -4.7640    1.6490    1.5540 O   0  0  0  0  0  0  0  0  0  0  0  0
   -1.1670   -0.3440    0.0320 S   0  0  0  0  0  0  0  0  0  0  0  0
    0.5760   -0.7400    0.1950 C   0  0  0  0  0  0  0  0  0  0  0  0
    1.3660    0.2120    0.5440 O   0  0  0  0  0  0  0  0  0  0  0  0
    2.6250    0.5390    0.8110 C   0  0  0  0  0  0  0  0  0  0  0  0
    3.1420    0.4390    2.1080 C   0  0  0  0  0  0  0  0  0  0  0  0
    4.4410    0.7750    2.3990 C   0  0  0  0  0  0  0  0  0  0  0  0
    4.8860    0.6570    3.6750 F   0  0  0  0  0  0  0  0  0  0  0  0
    5.2600    1.2250    1.3730 C   0  0  0  0  0  0  0  0  0  0  0  0
    6.5320    1.5500    1.6850 F   0  0  0  0  0  0  0  0  0  0  0  0
    4.7900    1.3380    0.0830 C   0  0  0  0  0  0  0  0  0  0  0  0
    5.7220    1.8310   -0.9880 C   0  0  0  0  0  0  0  0  0  0  0  0
    5.8960    3.1970   -0.8970 F   0  0  0  0  0  0  0  0  0  0  0  0
    3.4870    1.0000   -0.1990 C   0  0  0  0  0  0  0  0  0  0  0  0
  1  2  1  0
  2  3  2  0
  2  4  1  0
  4  5  1  0
  4 16  2  0
  5  6  1  0
  6  7  2  3
  6 15  1  0
  7  8  1  0
  8  9  2  0
  8 10  1  0
 10 11  1  0
 11 12  1  6
 11 13  1  0
 13 14  1  0
 15 16  1  0
 16 17  1  0
 17 18  1  0
 18 19  2  0
 18 27  1  0
 19 20  1  0
 20 21  1  0
 20 22  2  0
 22 23  1  0
 22 24  1  0
 24 25  1  0
 24 27  2  0
 25 26  1  0
M  END
