
     RDKit          3D

 27 27  0  0  0  0  0  0  0  0999 V2000
    8.4740    0.3540    0.6300 C   0  0  0  0  0  0  0  0  0  0  0  0
    7.2040    0.6550    0.7080 C   0  0  0  0  0  0  0  0  0  0  0  0
    6.2810   -0.2320    0.3030 N   0  0  0  0  0  0  0  0  0  0  0  0
    4.7730   -0.1160    0.3300 C   0  0  0  0  0  0  0  0  0  0  0  0
    4.3600    0.8250    0.7550 O   0  0  0  0  0  0  0  0  0  0  0  0
    4.3460   -1.3640   -0.2380 N   0  0  0  0  0  0  0  0  0  0  0  0
    2.7040   -0.8830   -0.4580 C   0  0  0  0  0  0  0  0  0  0  0  0
    2.4260    0.1550   -0.0360 O   0  0  0  0  0  0  0  0  0  0  0  0
    1.9730   -1.8890   -1.1410 C   0  0  0  0  0  0  0  0  0  0  0  0
    0.2140   -1.6890   -1.0970 S   0  0  1  0  0  0  0  0  0  0  0  0
   -0.1210   -0.4850   -1.8740 O   0  0  0  0  0  0  0  0  0  0  0  0
   -0.4430   -2.9250   -1.7600 O   0  0  0  0  0  0  0  0  0  0  0  0
   -0.4260   -1.5570    0.5620 C   0  0  0  0  0  0  0  0  0  0  0  0
   -1.8660   -1.3150    0.3950 C   0  0  0  0  0  0  0  0  0  0  0  0
   -2.4680   -0.1690    0.7430 C   0  0  0  0  0  0  0  0  0  0  0  0
   -3.8520   -0.1010    0.5240 C   0  0  0  0  0  0  0  0  0  0  0  0
   -4.5410    1.0610    0.3800 C   0  0  0  0  0  0  0  0  0  0  0  0
   -5.9850    1.0720    0.1700 C   0  0  0  0  0  0  0  0  0  0  0  0
   -6.6840   -0.0250    0.1520 O   0  0  0  0  0  0  0  0  0  0  0  0
   -6.5850    2.2520    0.0150 C   0  0  0  0  0  0  0  0  0  0  0  0
   -8.0730    2.3000   -0.2040 C   0  0  0  0  0  0  0  0  0  0  0  0
   -4.5290   -1.3820    0.3450 C   0  0  0  0  0  0  0  0  0  0  0  0
   -3.0950   -2.3920   -0.2350 S   0  0  0  0  0  0  0  0  0  0  0  0
    6.9120    2.0380    1.1660 C   0  0  2  0  0  0  0  0  0  0  0  0
    8.1050    2.7740    1.1410 F   0  0  0  0  0  0  0  0  0  0  0  0
    6.3800    2.1810    2.4030 F   0  0  0  0  0  0  0  0  0  0  0  0
    6.0620    2.6690    0.2290 F   0  0  0  0  0  0  0  0  0  0  0  0
  1  2  2  0
  2  3  1  0
  2 24  1  0
  3  4  1  0
  4  5  2  0
  4  6  1  0
  6  7  1  0
  7  8  2  0
  7  9  1  0
 10  9  1  1
 10 11  2  0
 10 12  2  0
 10 13  1  0
 13 14  1  0
 14 15  2  0
 14 23  1  0
 15 16  1  0
 16 17  2  3
 16 22  1  0
 17 18  1  0
 18 19  1  0
 18 20  2  3
 20 21  1  0
 22 23  1  0
 24 25  1  1
 24 26  1  0
 24 27  1  0
M  END
