
     RDKit          3D

 27 27  0  0  0  0  0  0  0  0999 V2000
   -3.6920    4.4770    1.1770 C   0  0  0  0  0  0  0  0  0  0  0  0
   -3.2110    3.5660    2.0020 C   0  0  0  0  0  0  0  0  0  0  0  0
   -2.4900    2.4060    1.5060 C   0  0  0  0  0  0  0  0  0  0  0  0
   -2.0560    1.5720    2.3400 O   0  0  0  0  0  0  0  0  0  0  0  0
   -2.3080    2.2730    0.0490 C   0  0  0  0  0  0  0  0  0  0  0  0
   -1.5820    1.0860   -0.2850 O   0  0  0  0  0  0  0  0  0  0  0  0
   -0.3460    0.8510    0.1500 C   0  0  0  0  0  0  0  0  0  0  0  0
    0.1420    1.7870    0.8950 O   0  0  0  0  0  0  0  0  0  0  0  0
    0.4700   -0.3480   -0.1420 C   0  0  0  0  0  0  0  0  0  0  0  0
    1.6800   -0.3510    0.4360 C   0  0  0  0  0  0  0  0  0  0  0  0
    1.9730    0.8200    1.2670 N   0  0  0  0  0  0  0  0  0  0  0  0
    3.0110   -1.4720    0.1970 S   0  0  0  0  0  0  0  0  0  0  0  0
    4.4860   -0.9600    1.0180 C   0  0  0  0  0  0  0  0  0  0  0  0
    5.1020    0.1660    0.7040 C   0  0  0  0  0  0  0  0  0  0  0  0
    6.3440    0.5540    1.4260 C   0  0  1  0  0  0  0  0  0  0  0  0
    7.2280   -0.5040    1.3900 F   0  0  0  0  0  0  0  0  0  0  0  0
    6.8650    1.6760    0.7930 F   0  0  0  0  0  0  0  0  0  0  0  0
    6.0430    0.8890    2.7320 F   0  0  0  0  0  0  0  0  0  0  0  0
   -0.0490   -1.4850   -0.8130 C   0  0  0  0  0  0  0  0  0  0  0  0
    0.5670   -2.8170   -0.5960 C   0  0  0  0  0  0  0  0  0  0  0  0
    0.0300   -3.9190   -1.3790 N   0  0  0  0  0  0  0  0  0  0  0  0
    1.4600   -3.0750    0.1560 O   0  0  0  0  0  0  0  0  0  0  0  0
   -1.1820   -1.5390   -1.5250 C   0  0  0  0  0  0  0  0  0  0  0  0
   -1.6430   -2.7330   -2.1690 O   0  0  0  0  0  0  0  0  0  0  0  0
   -3.0220   -2.8800   -2.1360 C   0  0  0  0  0  0  0  0  0  0  0  0
   -3.6350   -1.5940   -2.6960 C   0  0  0  0  0  0  0  0  0  0  0  0
   -2.4480   -0.4110   -1.9750 S   0  0  0  0  0  0  0  0  0  0  0  0
  1  2  2  0
  2  3  1  0
  3  4  2  0
  3  5  1  0
  5  6  1  0
  6  7  1  0
  7  8  2  0
  7  9  1  0
  9 10  2  3
  9 19  1  0
 10 11  1  0
 10 12  1  0
 12 13  1  0
 13 14  2  3
 14 15  1  0
 15 16  1  1
 15 17  1  0
 15 18  1  0
 19 20  1  0
 19 23  2  3
 20 21  1  0
 20 22  2  0
 23 24  1  0
 23 27  1  0
 24 25  1  0
 25 26  1  0
 26 27  1  0
M  END
