
     RDKit          3D

 26 28  0  0  0  0  0  0  0  0999 V2000
   -2.9890   -2.8050   -0.9310 C   0  0  0  0  0  0  0  0  0  0  0  0
   -1.7610   -2.3280   -0.2000 C   0  0  0  0  0  0  0  0  0  0  0  0
   -1.1620   -3.2470    0.5290 C   0  0  0  0  0  0  0  0  0  0  0  0
    0.2800   -2.8150    1.4590 S   0  0  2  0  0  0  0  0  0  0  0  0
    0.9530   -1.3010    0.6800 C   0  0  0  0  0  0  0  0  0  0  0  0
    2.1560   -1.0250    0.9520 C   0  0  0  0  0  0  0  0  0  0  0  0
    2.8520   -1.9780    1.9080 C   0  0  0  0  0  0  0  0  0  0  0  0
    2.2280   -2.9340    2.3460 O   0  0  0  0  0  0  0  0  0  0  0  0
    3.0780   -0.1370    0.3970 N   0  0  0  0  0  0  0  0  0  0  0  0
    3.0220    0.7390   -0.6930 C   0  0  0  0  0  0  0  0  0  0  0  0
    1.9940    0.7970   -1.4060 O   0  0  0  0  0  0  0  0  0  0  0  0
    4.1050    1.6340   -1.0930 C   0  0  0  0  0  0  0  0  0  0  0  0
    5.2300    1.7100   -0.4790 C   0  0  0  0  0  0  0  0  0  0  0  0
    6.3130    2.6660   -0.9530 C   0  0  2  0  0  0  0  0  0  0  0  0
    6.0770    2.8780   -2.3070 F   0  0  0  0  0  0  0  0  0  0  0  0
    7.5460    2.0860   -0.8250 F   0  0  0  0  0  0  0  0  0  0  0  0
   -0.0210   -0.5760   -0.0820 C   0  0  0  0  0  0  0  0  0  0  0  0
   -1.2180   -1.0230   -0.4870 C   0  0  0  0  0  0  0  0  0  0  0  0
   -2.2080    0.1330   -1.4170 S   0  0  2  0  0  0  0  0  0  0  0  0
   -3.0210   -0.6680   -2.3480 O   0  0  0  0  0  0  0  0  0  0  0  0
   -1.2450    0.9440   -2.2880 O   0  0  0  0  0  0  0  0  0  0  0  0
   -2.9790    1.1540   -0.3720 N   0  0  0  0  0  0  0  0  0  0  0  0
   -3.8850    0.7920    0.5920 C   0  0  2  0  0  0  0  0  0  0  0  0
   -5.0660    1.6480    0.9260 C   0  0  0  0  0  0  0  0  0  0  0  0
   -4.2040    2.5250    1.5740 O   0  0  0  0  0  0  0  0  0  0  0  0
   -3.4850    1.3710    1.9670 C   0  0  0  0  0  0  0  0  0  0  0  0
  1  2  1  0
  2  3  2  0
  2 18  1  0
  3  4  1  0
  4  5  1  0
  5  6  2  0
  5 17  1  0
  6  7  1  0
  6  9  1  0
  7  8  2  0
  9 10  1  0
 10 11  2  0
 10 12  1  0
 12 13  2  3
 13 14  1  0
 14 15  1  6
 14 16  1  0
 17 18  2  0
 18 19  1  0
 19 20  2  0
 19 21  2  0
 19 22  1  1
 23 22  1  6
 23 24  1  0
 23 26  1  0
 24 25  1  0
 25 26  1  0
  8  4  1  0
M  END
