
     RDKit          3D

 27 28  0  0  0  0  0  0  0  0999 V2000
   -0.4380    1.9920    1.6880 N   0  0  0  0  0  0  0  0  0  0  0  0
   -1.2040    1.2530    0.7420 C   0  0  0  0  0  0  0  0  0  0  0  0
   -2.4650    1.2190    0.8480 O   0  0  0  0  0  0  0  0  0  0  0  0
   -0.5530    0.5090   -0.3810 C   0  0  0  0  0  0  0  0  0  0  0  0
    1.1990    0.6410   -0.4010 S   0  0  0  0  0  0  0  0  0  0  0  0
    1.6880   -0.3490   -1.8500 C   0  0  0  0  0  0  0  0  0  0  0  0
    2.9170   -0.5010   -2.2080 N   0  0  0  0  0  0  0  0  0  0  0  0
    3.9300    0.1460   -1.4180 C   0  0  0  0  0  0  0  0  0  0  0  0
    4.4950    1.1450   -1.8930 O   0  0  0  0  0  0  0  0  0  0  0  0
    4.2000   -0.4520   -0.1050 C   0  0  0  0  0  0  0  0  0  0  0  0
    5.3350    0.2180    0.5790 C   0  0  1  0  0  0  0  0  0  0  0  0
    5.5580   -0.3450    1.8590 O   0  0  0  0  0  0  0  0  0  0  0  0
    6.6460    0.1080   -0.2090 C   0  0  0  0  0  0  0  0  0  0  0  0
    6.9480   -1.2440   -0.2970 O   0  0  0  0  0  0  0  0  0  0  0  0
    0.2440   -0.7990   -2.3140 S   0  0  0  0  0  0  0  0  0  0  0  0
   -1.0820   -0.1930   -1.3060 C   0  0  0  0  0  0  0  0  0  0  0  0
   -2.4060   -0.5400   -1.6410 O   0  0  0  0  0  0  0  0  0  0  0  0
   -3.5930   -0.3090   -1.1790 C   0  0  0  0  0  0  0  0  0  0  0  0
   -4.3340    0.7920   -1.6140 C   0  0  0  0  0  0  0  0  0  0  0  0
   -5.5870    1.0110   -1.1140 C   0  0  0  0  0  0  0  0  0  0  0  0
   -6.3080    2.1010   -1.5520 F   0  0  0  0  0  0  0  0  0  0  0  0
   -6.1190    0.1460   -0.1810 C   0  0  0  0  0  0  0  0  0  0  0  0
   -7.3820    0.4160    0.2860 F   0  0  0  0  0  0  0  0  0  0  0  0
   -5.4200   -0.9540    0.2760 C   0  0  0  0  0  0  0  0  0  0  0  0
   -6.0660   -1.8390    1.2850 C   0  0  0  0  0  0  0  0  0  0  0  0
   -7.0050   -2.6060    0.6130 F   0  0  0  0  0  0  0  0  0  0  0  0
   -4.1700   -1.1640   -0.2300 C   0  0  0  0  0  0  0  0  0  0  0  0
  1  2  1  0
  2  3  2  0
  2  4  1  0
  4  5  1  0
  4 16  2  0
  5  6  1  0
  6  7  2  3
  6 15  1  0
  7  8  1  0
  8  9  2  0
  8 10  1  0
 10 11  1  0
 11 12  1  1
 11 13  1  0
 13 14  1  0
 15 16  1  0
 16 17  1  0
 17 18  1  0
 18 19  2  0
 18 27  1  0
 19 20  1  0
 20 21  1  0
 20 22  2  0
 22 23  1  0
 22 24  1  0
 24 25  1  0
 24 27  2  0
 25 26  1  0
M  END
