
     RDKit          3D

 27 28  0  0  0  0  0  0  0  0999 V2000
    0.1400    5.9020    1.3890 N   0  0  0  0  0  0  0  0  0  0  0  0
    0.6090    5.1830   -0.0970 S   0  0  1  0  0  0  0  0  0  0  0  0
   -0.4750    5.3190   -1.1310 O   0  0  0  0  0  0  0  0  0  0  0  0
    1.8140    5.9050   -0.6150 O   0  0  0  0  0  0  0  0  0  0  0  0
    0.9800    3.4930    0.2110 C   0  0  0  0  0  0  0  0  0  0  0  0
    2.2530    3.0850    0.5520 C   0  0  0  0  0  0  0  0  0  0  0  0
    3.2180    4.0340    0.6450 F   0  0  0  0  0  0  0  0  0  0  0  0
    2.5890    1.7720    0.8020 C   0  0  0  0  0  0  0  0  0  0  0  0
    3.8290    1.3710    1.1350 F   0  0  0  0  0  0  0  0  0  0  0  0
    1.5700    0.8080    0.7000 C   0  0  0  0  0  0  0  0  0  0  0  0
    1.9670   -0.8460    1.0390 S   0  0  2  0  0  0  0  0  0  0  0  0
    0.7340   -1.6280    1.4780 O   0  0  0  0  0  0  0  0  0  0  0  0
    2.9170   -0.8930    2.2120 O   0  0  0  0  0  0  0  0  0  0  0  0
    2.6330   -1.7190   -0.3470 C   0  0  0  0  0  0  0  0  0  0  0  0
    2.9220   -3.1430    0.1250 C   0  0  0  0  0  0  0  0  0  0  0  0
    1.7130   -3.6840    0.5460 O   0  0  0  0  0  0  0  0  0  0  0  0
    0.2920    1.1580    0.3650 C   0  0  0  0  0  0  0  0  0  0  0  0
   -0.7140    0.1960    0.2720 N   0  0  0  0  0  0  0  0  0  0  0  0
   -1.1350   -0.5020   -0.8890 C   0  0  0  0  0  0  0  0  0  0  0  0
   -2.2370   -1.4550   -0.7230 C   0  0  0  0  0  0  0  0  0  0  0  0
   -3.0760   -1.5890    0.3290 C   0  0  0  0  0  0  0  0  0  0  0  0
   -4.0810   -2.5580    0.3360 C   0  0  0  0  0  0  0  0  0  0  0  0
   -4.2590   -3.4120   -0.7180 C   0  0  0  0  0  0  0  0  0  0  0  0
   -3.4140   -3.2980   -1.8080 C   0  0  0  0  0  0  0  0  0  0  0  0
   -2.4310   -2.3380   -1.7980 C   0  0  0  0  0  0  0  0  0  0  0  0
    0.0180    2.5090    0.1240 C   0  0  0  0  0  0  0  0  0  0  0  0
   -1.2570    2.8210   -0.2050 F   0  0  0  0  0  0  0  0  0  0  0  0
  2  1  1  1
  2  3  2  0
  2  4  2  0
  2  5  1  0
  5  6  2  0
  5 26  1  0
  6  7  1  0
  6  8  1  0
  8  9  1  0
  8 10  2  0
 10 11  1  0
 10 17  1  0
 11 12  2  0
 11 13  2  0
 11 14  1  6
 14 15  1  0
 15 16  1  0
 17 18  1  0
 17 26  2  0
 18 19  1  0
 19 20  1  0
 20 21  2  0
 20 25  1  0
 21 22  1  0
 22 23  2  0
 23 24  1  0
 24 25  2  0
 26 27  1  0
M  END
