
     RDKit          3D

 27 27  0  0  0  0  0  0  0  0999 V2000
   -3.8100    0.9530   -3.5850 C   0  0  0  0  0  0  0  0  0  0  0  0
   -3.0540    0.8580   -1.9580 S   0  0  0  0  0  0  0  0  0  0  0  0
   -4.2650    0.4380   -0.7390 C   0  0  0  0  0  0  0  0  0  0  0  0
   -5.5200    0.3550   -1.1430 C   0  0  0  0  0  0  0  0  0  0  0  0
   -6.6230    0.0200   -0.2520 C   0  0  0  0  0  0  0  0  0  0  0  0
   -6.2290   -0.1840    1.1390 C   0  0  0  0  0  0  0  0  0  0  0  0
   -7.2350   -0.4810    2.0450 F   0  0  0  0  0  0  0  0  0  0  0  0
   -4.9810   -0.1010    1.5580 C   0  0  0  0  0  0  0  0  0  0  0  0
   -4.7080   -0.3300    2.9890 C   0  0  2  0  0  0  0  0  0  0  0  0
   -4.1160    0.7010    3.6480 F   0  0  0  0  0  0  0  0  0  0  0  0
   -3.9520   -1.4950    3.0900 F   0  0  0  0  0  0  0  0  0  0  0  0
   -3.8740    0.2200    0.6400 C   0  0  0  0  0  0  0  0  0  0  0  0
   -2.6660    0.2370    1.0760 C   0  0  0  0  0  0  0  0  0  0  0  0
   -1.3760    0.4380    0.5090 C   0  0  0  0  0  0  0  0  0  0  0  0
   -1.0650    0.6710   -0.6800 O   0  0  0  0  0  0  0  0  0  0  0  0
   -0.1900    0.3760    1.3610 N   0  0  0  0  0  0  0  0  0  0  0  0
    1.0930    0.5620    0.7980 N   0  0  0  0  0  0  0  0  0  0  0  0
    2.2290    0.2140    1.5390 C   0  0  0  0  0  0  0  0  0  0  0  0
    2.0970   -0.2550    2.7080 O   0  0  0  0  0  0  0  0  0  0  0  0
    3.6000    0.3820    0.9790 C   0  0  0  0  0  0  0  0  0  0  0  0
    3.7280   -0.4560   -0.5900 S   0  0  1  0  0  0  0  0  0  0  0  0
    3.3790   -1.8950   -0.3420 O   0  0  0  0  0  0  0  0  0  0  0  0
    2.7970    0.0990   -1.6100 O   0  0  0  0  0  0  0  0  0  0  0  0
    5.3720   -0.2390   -1.2190 C   0  0  0  0  0  0  0  0  0  0  0  0
    6.4110   -0.8060   -0.2850 C   0  0  0  0  0  0  0  0  0  0  0  0
    7.7870   -0.5980   -0.8730 C   0  0  0  0  0  0  0  0  0  0  0  0
    8.0270    0.7780   -1.0580 O   0  0  0  0  0  0  0  0  0  0  0  0
  1  2  1  0
  2  3  1  0
  3  4  2  0
  3 12  1  0
  4  5  1  0
  5  6  1  0
  6  7  1  0
  6  8  2  0
  8  9  1  0
  8 12  1  0
  9 10  1  6
  9 11  1  0
 12 13  2  3
 13 14  1  0
 14 15  2  0
 14 16  1  0
 16 17  1  0
 17 18  1  0
 18 19  2  0
 18 20  1  0
 21 20  1  1
 21 22  2  0
 21 23  2  0
 21 24  1  0
 24 25  1  0
 25 26  1  0
 26 27  1  0
M  END
