
     RDKit          3D

 27 27  0  0  0  0  0  0  0  0999 V2000
   -5.3990    1.1330   -2.4210 C   0  0  0  0  0  0  0  0  0  0  0  0
   -5.4670    0.4440   -1.1130 C   0  0  2  0  0  0  0  0  0  0  0  0
   -5.9860    1.5210   -0.1160 C   0  0  0  0  0  0  0  0  0  0  0  0
   -4.2960   -0.1860   -0.5560 C   0  0  0  0  0  0  0  0  0  0  0  0
   -3.0630   -0.3160   -0.9320 C   0  0  0  0  0  0  0  0  0  0  0  0
   -2.1600   -1.0680   -0.0170 C   0  0  0  0  0  0  0  0  0  0  0  0
   -2.6800   -1.5030    1.0270 O   0  0  0  0  0  0  0  0  0  0  0  0
   -0.5010   -1.2940   -0.4390 S   0  0  0  0  0  0  0  0  0  0  0  0
    0.6310   -1.9670    0.6870 C   0  0  0  0  0  0  0  0  0  0  0  0
    0.4970   -2.0040    1.9860 C   0  0  0  0  0  0  0  0  0  0  0  0
   -0.6290   -1.4740    2.6480 N   0  0  0  0  0  0  0  0  0  0  0  0
    2.1720   -2.5890    0.0100 S   0  0  2  0  0  0  0  0  0  0  0  0
    1.8660   -3.1080   -1.3560 O   0  0  0  0  0  0  0  0  0  0  0  0
    2.6410   -3.7140    0.8730 O   0  0  0  0  0  0  0  0  0  0  0  0
    3.3550   -1.3550   -0.0360 N   0  0  0  0  0  0  0  0  0  0  0  0
    2.9160   -0.3010   -0.8780 C   0  0  0  0  0  0  0  0  0  0  0  0
    3.7360    0.9360   -0.8640 C   0  0  0  0  0  0  0  0  0  0  0  0
    4.2950    1.2880    0.4920 C   0  0  2  0  0  0  0  0  0  0  0  0
    5.3630    2.3470    0.3400 C   0  0  2  0  0  0  0  0  0  0  0  0
    4.8690    3.4980   -0.2330 F   0  0  0  0  0  0  0  0  0  0  0  0
    6.4770    1.8820   -0.2900 F   0  0  0  0  0  0  0  0  0  0  0  0
    5.7470    2.7030    1.6400 F   0  0  0  0  0  0  0  0  0  0  0  0
    4.9720    0.0340    1.0280 C   0  0  0  0  0  0  0  0  0  0  0  0
    3.8350   -0.9700    1.2490 C   0  0  0  0  0  0  0  0  0  0  0  0
   -2.4060    0.1820   -2.1530 C   0  0  1  0  0  0  0  0  0  0  0  0
   -1.4720    1.2020   -1.8360 O   0  0  0  0  0  0  0  0  0  0  0  0
   -1.5860   -0.9140   -2.5910 O   0  0  0  0  0  0  0  0  0  0  0  0
  2  1  1  6
  2  3  1  0
  2  4  1  0
  4  5  2  3
  5  6  1  0
  5 25  1  0
  6  7  2  0
  6  8  1  0
  8  9  1  0
  9 10  2  3
  9 12  1  0
 10 11  1  0
 12 13  2  0
 12 14  2  0
 12 15  1  6
 15 16  1  0
 15 24  1  0
 16 17  1  0
 18 17  1  6
 18 19  1  0
 18 23  1  0
 19 20  1  6
 19 21  1  0
 19 22  1  0
 23 24  1  0
 25 26  1  1
 25 27  1  0
M  END
