
     RDKit          3D

 27 27  0  0  0  0  0  0  0  0999 V2000
   -0.3360    2.2460    0.4650 C   0  0  0  0  0  0  0  0  0  0  0  0
   -0.6580    0.8150    0.4440 C   0  0  0  0  0  0  0  0  0  0  0  0
   -2.0070    0.4990    0.7860 N   0  0  0  0  0  0  0  0  0  0  0  0
   -3.1140    0.8310   -0.1200 C   0  0  0  0  0  0  0  0  0  0  0  0
   -3.4230    2.0780   -0.2550 C   0  0  0  0  0  0  0  0  0  0  0  0
   -4.4650    2.6720   -1.0820 C   0  0  2  0  0  0  0  0  0  0  0  0
   -4.3700    2.4350   -2.4280 F   0  0  0  0  0  0  0  0  0  0  0  0
   -4.4270    4.0820   -0.8880 F   0  0  0  0  0  0  0  0  0  0  0  0
   -5.7050    2.2660   -0.6360 F   0  0  0  0  0  0  0  0  0  0  0  0
   -3.7920   -0.2390   -0.7710 C   0  0  0  0  0  0  0  0  0  0  0  0
   -3.4770   -1.5950   -0.6040 O   0  0  0  0  0  0  0  0  0  0  0  0
   -5.0370    0.0130   -1.8050 S   0  0  0  0  0  0  0  0  0  0  0  0
    0.2030   -0.1020   -0.0110 C   0  0  0  0  0  0  0  0  0  0  0  0
    1.5030    0.1740   -0.5510 C   0  0  0  0  0  0  0  0  0  0  0  0
    2.2220   -0.7950   -0.9610 O   0  0  0  0  0  0  0  0  0  0  0  0
    2.1830    1.4830   -0.7250 C   0  0  0  0  0  0  0  0  0  0  0  0
    3.7190    1.2920   -1.7440 S   0  0  0  0  0  0  0  0  0  0  0  0
    4.9370    0.3160   -0.8220 C   0  0  0  0  0  0  0  0  0  0  0  0
    5.4180    1.0230    0.3760 C   0  0  0  0  0  0  0  0  0  0  0  0
    6.3630    0.4320    1.2280 N   0  0  0  0  0  0  0  0  0  0  0  0
    4.9790    2.1630    0.6400 O   0  0  0  0  0  0  0  0  0  0  0  0
   -0.1550   -1.5070    0.2890 C   0  0  0  0  0  0  0  0  0  0  0  0
    0.5640   -2.4990   -0.1500 C   0  0  0  0  0  0  0  0  0  0  0  0
    0.1700   -3.8290    0.1760 O   0  0  0  0  0  0  0  0  0  0  0  0
   -1.2030   -4.0370    0.4190 C   0  0  0  0  0  0  0  0  0  0  0  0
   -1.5440   -3.0680    1.5600 C   0  0  0  0  0  0  0  0  0  0  0  0
   -1.2810   -1.7840    1.0720 O   0  0  0  0  0  0  0  0  0  0  0  0
  1  2  1  0
  2  3  1  0
  2 13  2  3
  3  4  1  0
  4  5  2  3
  4 10  1  0
  5  6  1  0
  6  7  1  6
  6  8  1  0
  6  9  1  0
 10 11  1  0
 10 12  2  0
 13 14  1  0
 13 22  1  0
 14 15  2  0
 14 16  1  0
 16 17  1  0
 17 18  1  0
 18 19  1  0
 19 20  1  0
 19 21  2  0
 22 23  2  0
 22 27  1  0
 23 24  1  0
 24 25  1  0
 25 26  1  0
 26 27  1  0
M  END
