
     RDKit          3D

 27 27  0  0  0  0  0  0  0  0999 V2000
   -4.1980    3.6730   -1.6790 C   0  0  0  0  0  0  0  0  0  0  0  0
   -3.5730    2.7900   -2.4330 C   0  0  0  0  0  0  0  0  0  0  0  0
   -2.4280    2.0990   -1.8710 C   0  0  0  0  0  0  0  0  0  0  0  0
   -1.8280    1.2590   -2.5800 O   0  0  0  0  0  0  0  0  0  0  0  0
   -1.9790    2.3750   -0.5050 C   0  0  0  0  0  0  0  0  0  0  0  0
   -0.8500    1.6010   -0.1300 O   0  0  0  0  0  0  0  0  0  0  0  0
   -0.8920    0.1880   -0.1140 C   0  0  0  0  0  0  0  0  0  0  0  0
   -1.9720   -0.2730   -0.4470 O   0  0  0  0  0  0  0  0  0  0  0  0
    0.3170   -0.6020    0.2860 C   0  0  0  0  0  0  0  0  0  0  0  0
    1.3100    0.1790    0.6110 C   0  0  0  0  0  0  0  0  0  0  0  0
    1.1540    1.6000    0.5800 N   0  0  0  0  0  0  0  0  0  0  0  0
    2.9590   -0.4030    0.8800 S   0  0  0  0  0  0  0  0  0  0  0  0
    4.1470    0.9020    1.0620 C   0  0  0  0  0  0  0  0  0  0  0  0
    4.5580    1.5790   -0.0100 C   0  0  0  0  0  0  0  0  0  0  0  0
    5.5530    2.6810    0.1050 C   0  0  1  0  0  0  0  0  0  0  0  0
    4.9440    3.8960    0.3730 F   0  0  0  0  0  0  0  0  0  0  0  0
    6.4430    2.4380    1.1520 F   0  0  0  0  0  0  0  0  0  0  0  0
    6.2840    2.7150   -1.0680 F   0  0  0  0  0  0  0  0  0  0  0  0
    0.1480   -2.0120    0.4830 C   0  0  0  0  0  0  0  0  0  0  0  0
    0.9320   -2.7400    1.4950 C   0  0  0  0  0  0  0  0  0  0  0  0
    1.7960   -2.2400    2.4230 N   0  0  0  0  0  0  0  0  0  0  0  0
    0.7910   -4.0370    1.5410 O   0  0  0  0  0  0  0  0  0  0  0  0
   -0.8370   -2.7800   -0.0150 C   0  0  0  0  0  0  0  0  0  0  0  0
   -0.9590   -4.1730    0.2210 O   0  0  0  0  0  0  0  0  0  0  0  0
   -2.2990   -4.5730    0.4090 C   0  0  0  0  0  0  0  0  0  0  0  0
   -3.0710   -4.1160   -0.8050 C   0  0  0  0  0  0  0  0  0  0  0  0
   -2.2360   -2.5040   -1.0570 S   0  0  0  0  0  0  0  0  0  0  0  0
  1  2  2  0
  2  3  1  0
  3  4  2  0
  3  5  1  0
  5  6  1  0
  6  7  1  0
  7  8  2  0
  7  9  1  0
  9 10  2  3
  9 19  1  0
 10 11  1  0
 10 12  1  0
 12 13  1  0
 13 14  2  3
 14 15  1  0
 15 16  1  1
 15 17  1  0
 15 18  1  0
 19 20  1  0
 19 23  2  3
 20 21  1  0
 20 22  2  0
 23 24  1  0
 23 27  1  0
 24 25  1  0
 25 26  1  0
 26 27  1  0
M  END
