
     RDKit          3D

 26 27  0  0  0  0  0  0  0  0999 V2000
   -3.3600   -2.2780   -0.9800 C   0  0  0  0  0  0  0  0  0  0  0  0
   -1.8830   -2.2410   -0.6330 C   0  0  0  0  0  0  0  0  0  0  0  0
   -1.1630   -3.2170   -1.1450 C   0  0  0  0  0  0  0  0  0  0  0  0
    0.5630   -3.3240   -0.8270 S   0  0  0  0  0  0  0  0  0  0  0  0
    1.0360   -1.7710    0.0240 C   0  0  0  0  0  0  0  0  0  0  0  0
    2.3070   -1.6250    0.1910 C   0  0  0  0  0  0  0  0  0  0  0  0
    3.0870   -2.8320   -0.3730 C   0  0  0  0  0  0  0  0  0  0  0  0
    4.3080   -2.8000   -0.2650 O   0  0  0  0  0  0  0  0  0  0  0  0
    3.1900   -0.6640    0.6300 N   0  0  0  0  0  0  0  0  0  0  0  0
    3.0420    0.6230    1.0750 C   0  0  0  0  0  0  0  0  0  0  0  0
    1.9190    1.1510    1.1220 O   0  0  0  0  0  0  0  0  0  0  0  0
    4.1420    1.4990    1.5300 C   0  0  0  0  0  0  0  0  0  0  0  0
    5.3830    1.0990    1.5440 C   0  0  0  0  0  0  0  0  0  0  0  0
    6.4740    2.0370    2.0210 C   0  0  2  0  0  0  0  0  0  0  0  0
    6.8660    2.8870    1.0260 F   0  0  0  0  0  0  0  0  0  0  0  0
    7.4840    1.2420    2.5040 F   0  0  0  0  0  0  0  0  0  0  0  0
   -0.0580   -0.9660    0.4130 C   0  0  0  0  0  0  0  0  0  0  0  0
   -1.3640   -1.1430    0.1320 C   0  0  0  0  0  0  0  0  0  0  0  0
   -2.4900    0.0800    0.7440 S   0  0  1  0  0  0  0  0  0  0  0  0
   -3.8370   -0.4720    1.0200 O   0  0  0  0  0  0  0  0  0  0  0  0
   -1.9150    0.5410    2.0720 O   0  0  0  0  0  0  0  0  0  0  0  0
   -2.6450    1.4030   -0.3160 N   0  0  0  0  0  0  0  0  0  0  0  0
   -3.9610    1.4840   -0.8580 C   0  0  1  0  0  0  0  0  0  0  0  0
   -4.5810    2.8780   -0.7710 C   0  0  0  0  0  0  0  0  0  0  0  0
   -5.1580    2.6310   -2.0160 O   0  0  0  0  0  0  0  0  0  0  0  0
   -4.0240    1.8790   -2.3270 C   0  0  0  0  0  0  0  0  0  0  0  0
  1  2  1  0
  2  3  2  0
  2 18  1  0
  3  4  1  0
  4  5  1  0
  5  6  2  3
  5 17  1  0
  6  7  1  0
  6  9  1  0
  7  8  2  0
  9 10  1  0
 10 11  2  0
 10 12  1  0
 12 13  2  3
 13 14  1  0
 14 15  1  6
 14 16  1  0
 17 18  2  0
 18 19  1  0
 19 20  2  0
 19 21  2  0
 19 22  1  6
 23 22  1  1
 23 24  1  0
 23 26  1  0
 24 25  1  0
 25 26  1  0
M  END
