
     RDKit          3D

 36 39  0  0  0  0  0  0  0  0999 V2000
    0.6990   -0.1950    1.4560 O   0  0  0  0  0  0  0  0  0  0  0  0
    1.1030    0.2410    0.3200 C   0  0  0  0  0  0  0  0  0  0  0  0
    2.5530    0.3890    0.1700 C   0  0  0  0  0  0  0  0  0  0  0  0
    3.3370   -0.1180    1.3380 C   0  0  0  0  0  0  0  0  0  0  0  0
    4.7950    0.1330    1.0330 C   0  0  0  0  0  0  0  0  0  0  0  0
    5.5410    1.2230    1.3690 C   0  0  0  0  0  0  0  0  0  0  0  0
    6.8150    0.9820    0.8660 C   0  0  0  0  0  0  0  0  0  0  0  0
    6.7860   -0.2400    0.2480 C   0  0  0  0  0  0  0  0  0  0  0  0
    7.8910   -0.8830   -0.4150 C   0  0  0  0  0  0  0  0  0  0  0  0
    9.0990   -0.4350   -0.5560 C   0  0  0  0  0  0  0  0  0  0  0  0
    9.7030    1.0960    0.0330 Cl  0  0  0  0  0  0  0  0  0  0  0  0
    5.5430   -0.7110    0.3770 O   0  0  0  0  0  0  0  0  0  0  0  0
    0.1630    0.5430   -0.6940 N   0  0  0  0  0  0  0  0  0  0  0  0
   -1.1740    0.4180   -0.5820 N   0  0  0  0  0  0  0  0  0  0  0  0
   -1.9420   -0.5740   -0.5120 C   0  0  0  0  0  0  0  0  0  0  0  0
   -1.4620   -1.9870   -0.5460 C   0  0  0  0  0  0  0  0  0  0  0  0
   -0.2540   -2.2890   -0.5630 O   0  0  0  0  0  0  0  0  0  0  0  0
   -2.5420   -2.8280   -0.5530 N   0  0  0  0  0  0  0  0  0  0  0  0
   -2.4810   -4.2880   -0.5790 C   0  0  0  0  0  0  0  0  0  0  0  0
   -2.2530   -5.2270    0.0810 N   0  0  0  0  0  0  0  0  0  0  0  0
   -2.2840   -6.4860   -0.2480 C   0  0  0  0  0  0  0  0  0  0  0  0
   -2.6410   -6.7530   -1.5770 C   0  0  0  0  0  0  0  0  0  0  0  0
   -2.8940   -5.0520   -2.1910 S   0  0  0  0  0  0  0  0  0  0  0  0
   -3.7020   -2.0600   -0.5260 C   0  0  0  0  0  0  0  0  0  0  0  0
   -4.8480   -2.5730   -0.5290 O   0  0  0  0  0  0  0  0  0  0  0  0
   -3.3860   -0.5730   -0.4950 C   0  0  0  0  0  0  0  0  0  0  0  0
   -4.3490    0.2860   -0.3650 C   0  0  0  0  0  0  0  0  0  0  0  0
   -4.5790    1.6650   -0.1520 C   0  0  0  0  0  0  0  0  0  0  0  0
   -5.8890    2.1330   -0.2130 C   0  0  0  0  0  0  0  0  0  0  0  0
   -7.3480    1.2140   -0.5260 Cl  0  0  0  0  0  0  0  0  0  0  0  0
   -5.9240    3.5700   -0.0200 C   0  0  0  0  0  0  0  0  0  0  0  0
   -4.6400    3.9930    0.3650 N   0  0  0  0  0  0  0  0  0  0  0  0
   -3.7920    2.8190    0.2240 C   0  0  0  0  0  0  0  0  0  0  0  0
   -2.5310    2.8900    0.6030 C   0  0  0  0  0  0  0  0  0  0  0  0
   -1.8670    4.1570    0.9420 C   0  0  0  0  0  0  0  0  0  0  0  0
   -1.2820    4.1130    2.6350 Cl  0  0  0  0  0  0  0  0  0  0  0  0
  1  2  2  0
  2  3  1  0
  2 13  1  0
  3  4  1  0
  4  5  1  0
  5  6  2  0
  5 12  1  0
  6  7  1  0
  7  8  2  0
  8  9  1  0
  8 12  1  0
  9 10  2  3
 10 11  1  0
 13 14  1  0
 14 15  2  3
 15 16  1  0
 15 26  1  0
 16 17  2  0
 16 18  1  0
 18 19  1  0
 18 24  1  0
 19 20  2  0
 19 23  1  0
 20 21  1  0
 21 22  2  0
 22 23  1  0
 24 25  2  0
 24 26  1  0
 26 27  2  3
 27 28  1  0
 28 29  2  0
 28 33  1  0
 29 30  1  0
 29 31  1  0
 31 32  1  0
 32 33  1  0
 33 34  2  3
 34 35  1  0
 35 36  1  0
M  END
