
     RDKit          3D

 35 38  0  0  0  0  0  0  0  0999 V2000
   -6.3200   -0.7750   -2.7770 C   0  0  0  0  0  0  0  0  0  0  0  0
   -5.6250   -0.5040   -1.4410 C   0  0  2  0  0  0  0  0  0  0  0  0
   -4.5020   -1.5210   -1.3690 C   0  0  0  0  0  0  0  0  0  0  0  0
   -3.3620   -1.1170   -0.4920 C   0  0  0  0  0  0  0  0  0  0  0  0
   -3.6960   -0.8360    0.8740 N   0  0  0  0  0  0  0  0  0  0  0  0
   -2.6450   -0.4890    1.7320 C   0  0  0  0  0  0  0  0  0  0  0  0
   -2.9590   -0.2430    2.9570 O   0  0  0  0  0  0  0  0  0  0  0  0
   -1.2320   -0.3810    1.3590 C   0  0  0  0  0  0  0  0  0  0  0  0
   -0.5390   -0.6690   -0.3090 S   0  0  0  0  0  0  0  0  0  0  0  0
    1.1770   -0.3070    0.2620 C   0  0  0  0  0  0  0  0  0  0  0  0
    2.2080   -0.3990   -0.7550 N   0  0  0  0  0  0  0  0  0  0  0  0
    3.5310   -0.1250   -0.3250 C   0  0  0  0  0  0  0  0  0  0  0  0
    3.7230    0.1720    0.8740 O   0  0  0  0  0  0  0  0  0  0  0  0
    4.6450   -0.1760   -1.2000 N   0  0  0  0  0  0  0  0  0  0  0  0
    5.9880    0.0840   -0.8440 C   0  0  0  0  0  0  0  0  0  0  0  0
    6.4550    0.4310    0.3940 C   0  0  0  0  0  0  0  0  0  0  0  0
    7.7740    0.5890    0.3330 O   0  0  0  0  0  0  0  0  0  0  0  0
    8.2290    0.3700   -0.8700 C   0  0  0  0  0  0  0  0  0  0  0  0
    9.6140    0.4410   -1.3430 C   0  0  0  0  0  0  0  0  0  0  0  0
   10.6960    0.7600   -0.5760 C   0  0  0  0  0  0  0  0  0  0  0  0
   11.8030    0.7130   -1.4010 C   0  0  0  0  0  0  0  0  0  0  0  0
   11.3370    0.3650   -2.6440 C   0  0  0  0  0  0  0  0  0  0  0  0
   10.0550    0.2190   -2.5520 O   0  0  0  0  0  0  0  0  0  0  0  0
    7.1150    0.0470   -1.6390 C   0  0  0  0  0  0  0  0  0  0  0  0
    1.0020   -0.0700    1.4000 N   0  0  0  0  0  0  0  0  0  0  0  0
   -0.1160   -0.0660    2.0790 C   0  0  0  0  0  0  0  0  0  0  0  0
   -0.2210    0.2560    3.5520 C   0  0  0  0  0  0  0  0  0  0  0  0
    1.0970    0.5790    4.1750 C   0  0  0  0  0  0  0  0  0  0  0  0
    0.8490    0.9330    5.8750 Cl  0  0  0  0  0  0  0  0  0  0  0  0
   -4.9860   -0.8580    1.4990 C   0  0  0  0  0  0  0  0  0  0  0  0
   -6.0960   -1.4260    0.7150 C   0  0  0  0  0  0  0  0  0  0  0  0
   -6.5540   -0.5870   -0.3850 N   0  0  0  0  0  0  0  0  0  0  0  0
   -7.2010    0.5810    0.0760 C   0  0  0  0  0  0  0  0  0  0  0  0
   -7.8020    1.4780   -0.9450 C   0  0  0  0  0  0  0  0  0  0  0  0
   -6.7300    2.2000   -2.1150 Cl  0  0  0  0  0  0  0  0  0  0  0  0
  2  1  1  6
  2  3  1  0
  2 32  1  0
  3  4  1  0
  4  5  1  0
  5  6  1  0
  5 30  1  0
  6  7  2  0
  6  8  1  0
  8  9  1  0
  8 26  2  0
  9 10  1  0
 10 11  1  0
 10 25  2  0
 11 12  1  0
 12 13  2  0
 12 14  1  0
 14 15  1  0
 15 16  2  0
 15 24  1  0
 16 17  1  0
 17 18  1  0
 18 19  1  0
 18 24  2  0
 19 20  2  0
 19 23  1  0
 20 21  1  0
 21 22  2  0
 22 23  1  0
 25 26  1  0
 26 27  1  0
 27 28  1  0
 28 29  1  0
 30 31  1  0
 31 32  1  0
 32 33  1  0
 33 34  1  0
 34 35  1  0
M  END
