
     RDKit          3D

 36 39  0  0  0  0  0  0  0  0999 V2000
   -4.7080   -3.3090    1.8150 C   0  0  0  0  0  0  0  0  0  0  0  0
   -4.5450   -1.8180    1.6840 C   0  0  0  0  0  0  0  0  0  0  0  0
   -5.5930   -1.0440    1.4700 C   0  0  0  0  0  0  0  0  0  0  0  0
   -5.0630    0.3340    1.3980 C   0  0  0  0  0  0  0  0  0  0  0  0
   -5.7720    1.4240    1.2140 C   0  0  0  0  0  0  0  0  0  0  0  0
   -5.3680    2.7630    1.1420 N   0  0  0  0  0  0  0  0  0  0  0  0
   -6.5150    3.6090    0.8840 C   0  0  0  0  0  0  0  0  0  0  0  0
   -6.4890    4.8590    0.7620 O   0  0  0  0  0  0  0  0  0  0  0  0
   -7.6710    2.7980    0.7930 N   0  0  0  0  0  0  0  0  0  0  0  0
   -7.2270    1.4520    0.9950 C   0  0  0  0  0  0  0  0  0  0  0  0
   -8.0160    0.4760    0.9750 O   0  0  0  0  0  0  0  0  0  0  0  0
   -3.6330    0.2180    1.5880 C   0  0  0  0  0  0  0  0  0  0  0  0
   -2.3520    1.4380    1.4960 S   0  0  0  0  0  0  0  0  0  0  0  0
   -2.1870    2.1050   -0.1390 C   0  0  0  0  0  0  0  0  0  0  0  0
   -1.6270    1.2300   -1.1780 C   0  0  0  0  0  0  0  0  0  0  0  0
   -1.7740    1.7180   -2.3740 O   0  0  0  0  0  0  0  0  0  0  0  0
   -0.9880    0.0110   -1.0950 N   0  0  0  0  0  0  0  0  0  0  0  0
   -0.6140   -0.7710    0.0410 C   0  0  0  0  0  0  0  0  0  0  0  0
    0.9030   -1.0660    0.0330 C   0  0  0  0  0  0  0  0  0  0  0  0
    1.3560   -1.5010   -1.2360 N   0  0  0  0  0  0  0  0  0  0  0  0
    2.4370   -0.7950   -1.8220 C   0  0  0  0  0  0  0  0  0  0  0  0
    3.6840   -0.8440   -1.0030 C   0  0  0  0  0  0  0  0  0  0  0  0
    4.2270   -1.9420   -0.3930 C   0  0  0  0  0  0  0  0  0  0  0  0
    5.3890   -1.4940    0.2540 C   0  0  0  0  0  0  0  0  0  0  0  0
    5.5010   -0.1540    0.0100 C   0  0  0  0  0  0  0  0  0  0  0  0
    6.5120    0.7850    0.4410 C   0  0  0  0  0  0  0  0  0  0  0  0
    7.5310    0.6160    1.1560 C   0  0  0  0  0  0  0  0  0  0  0  0
    8.1260   -0.5150    1.8320 C   0  0  0  0  0  0  0  0  0  0  0  0
    9.7920   -0.7680    1.1610 Cl  0  0  0  0  0  0  0  0  0  0  0  0
    6.2810    2.2240   -0.0690 C   0  0  2  0  0  0  0  0  0  0  0  0
    4.7390    2.8130    0.5490 Cl  0  0  0  0  0  0  0  0  0  0  0  0
    6.2510    2.1640   -1.8460 Cl  0  0  0  0  0  0  0  0  0  0  0  0
    4.4460    0.1630   -0.7480 O   0  0  0  0  0  0  0  0  0  0  0  0
    0.3400   -1.7470   -2.2020 C   0  0  0  0  0  0  0  0  0  0  0  0
   -0.6310   -0.6300   -2.3950 C   0  0  0  0  0  0  0  0  0  0  0  0
   -3.3820   -1.0490    1.7520 N   0  0  0  0  0  0  0  0  0  0  0  0
  1  2  1  0
  2  3  2  0
  2 36  1  0
  3  4  1  0
  4  5  2  3
  4 12  1  0
  5  6  1  0
  5 10  1  0
  6  7  1  0
  7  8  2  0
  7  9  1  0
  9 10  1  0
 10 11  2  0
 12 13  1  0
 12 36  2  0
 13 14  1  0
 14 15  1  0
 15 16  2  0
 15 17  1  0
 17 18  1  0
 17 35  1  0
 18 19  1  0
 19 20  1  0
 20 21  1  0
 20 34  1  0
 21 22  1  0
 22 23  2  0
 22 33  1  0
 23 24  1  0
 24 25  2  0
 25 26  1  0
 25 33  1  0
 26 27  2  3
 26 30  1  0
 27 28  1  0
 28 29  1  0
 30 31  1  1
 30 32  1  0
 34 35  1  0
M  END
