
     RDKit          3D

 36 39  0  0  0  0  0  0  0  0999 V2000
    7.7420    1.4900    1.7480 C   0  0  0  0  0  0  0  0  0  0  0  0
    7.2430    1.6390    0.5540 C   0  0  0  0  0  0  0  0  0  0  0  0
    8.0200    2.7690   -0.5950 S   0  0  0  0  0  0  0  0  0  0  0  0
    7.1700    2.4830   -2.1990 C   0  0  0  0  0  0  0  0  0  0  0  0
    6.8820    1.0230   -2.2640 C   0  0  0  0  0  0  0  0  0  0  0  0
    5.8960    0.6560   -1.2390 N   0  0  0  0  0  0  0  0  0  0  0  0
    4.7250    0.0220   -1.3190 N   0  0  0  0  0  0  0  0  0  0  0  0
    4.1470   -0.1070   -0.1160 C   0  0  0  0  0  0  0  0  0  0  0  0
    2.8900   -0.7340    0.1640 N   0  0  0  0  0  0  0  0  0  0  0  0
    2.0930   -1.3090   -0.8600 C   0  0  0  0  0  0  0  0  0  0  0  0
    2.5320   -1.2490   -2.0360 O   0  0  0  0  0  0  0  0  0  0  0  0
    0.7680   -1.9690   -0.5610 C   0  0  1  0  0  0  0  0  0  0  0  0
    1.0070   -3.4540   -0.9120 C   0  0  0  0  0  0  0  0  0  0  0  0
    0.4790   -1.9260    0.7760 O   0  0  0  0  0  0  0  0  0  0  0  0
   -0.6610   -1.4430    1.3390 C   0  0  0  0  0  0  0  0  0  0  0  0
   -1.6920   -0.9220    0.5790 C   0  0  0  0  0  0  0  0  0  0  0  0
   -2.8310   -0.4390    1.1300 C   0  0  0  0  0  0  0  0  0  0  0  0
   -3.9210    0.1050    0.4270 N   0  0  0  0  0  0  0  0  0  0  0  0
   -3.9980    0.2330   -0.9830 C   0  0  0  0  0  0  0  0  0  0  0  0
   -3.0890   -0.1300   -1.7440 O   0  0  0  0  0  0  0  0  0  0  0  0
   -5.2330    0.8320   -1.5120 C   0  0  0  0  0  0  0  0  0  0  0  0
   -5.3350    2.1880   -1.6940 C   0  0  0  0  0  0  0  0  0  0  0  0
   -6.5130    2.7530   -2.1990 C   0  0  0  0  0  0  0  0  0  0  0  0
   -6.6490    4.4730   -2.4320 Cl  0  0  0  0  0  0  0  0  0  0  0  0
   -7.5770    1.9490   -2.5150 C   0  0  0  0  0  0  0  0  0  0  0  0
   -7.4760    0.5870   -2.3330 C   0  0  0  0  0  0  0  0  0  0  0  0
   -6.2920    0.0210   -1.8270 C   0  0  0  0  0  0  0  0  0  0  0  0
   -6.1620   -1.6950   -1.5960 Cl  0  0  0  0  0  0  0  0  0  0  0  0
   -2.9220   -0.4900    2.5260 C   0  0  0  0  0  0  0  0  0  0  0  0
   -4.0550   -0.0130    3.1360 O   0  0  0  0  0  0  0  0  0  0  0  0
   -4.1590   -0.0590    4.5410 C   0  0  0  0  0  0  0  0  0  0  0  0
   -1.9040   -1.0040    3.2770 C   0  0  0  0  0  0  0  0  0  0  0  0
   -0.7590   -1.4890    2.7120 C   0  0  0  0  0  0  0  0  0  0  0  0
    0.5550   -2.1530    3.6900 Cl  0  0  0  0  0  0  0  0  0  0  0  0
    4.9820    0.4660    0.7630 N   0  0  0  0  0  0  0  0  0  0  0  0
    6.0600    0.9360    0.0660 C   0  0  0  0  0  0  0  0  0  0  0  0
  1  2  2  0
  2  3  1  0
  2 36  1  0
  3  4  1  0
  4  5  1  0
  5  6  1  0
  6  7  1  0
  6 36  1  0
  7  8  2  0
  8  9  1  0
  8 35  1  0
  9 10  1  0
 10 11  2  0
 10 12  1  0
 12 13  1  1
 12 14  1  0
 14 15  1  0
 15 16  2  0
 15 33  1  0
 16 17  1  0
 17 18  1  0
 17 29  2  0
 18 19  1  0
 19 20  2  0
 19 21  1  0
 21 22  2  0
 21 27  1  0
 22 23  1  0
 23 24  1  0
 23 25  2  0
 25 26  1  0
 26 27  2  0
 27 28  1  0
 29 30  1  0
 29 32  1  0
 30 31  1  0
 32 33  2  0
 33 34  1  0
 35 36  2  0
M  END
