
     RDKit          3D

 35 38  0  0  0  0  0  0  0  0999 V2000
   -5.9720    0.4790    2.4440 C   0  0  0  0  0  0  0  0  0  0  0  0
   -4.7530   -0.1510    1.9870 N   0  0  0  0  0  0  0  0  0  0  0  0
   -3.7580    0.5140    1.2420 C   0  0  0  0  0  0  0  0  0  0  0  0
   -3.9010    1.7110    0.9390 O   0  0  0  0  0  0  0  0  0  0  0  0
   -2.5250   -0.1650    0.7940 C   0  0  0  0  0  0  0  0  0  0  0  0
   -2.1590   -1.4220    1.0350 N   0  0  0  0  0  0  0  0  0  0  0  0
   -0.9580   -1.6730    0.4620 C   0  0  0  0  0  0  0  0  0  0  0  0
   -0.3480   -3.0140    0.6030 C   0  0  0  0  0  0  0  0  0  0  0  0
    0.8870   -3.3970    0.1670 C   0  0  0  0  0  0  0  0  0  0  0  0
    1.0250   -4.7390    0.5170 C   0  0  0  0  0  0  0  0  0  0  0  0
   -0.1360   -5.0980    1.1490 C   0  0  0  0  0  0  0  0  0  0  0  0
   -0.9120   -4.0550    1.1760 O   0  0  0  0  0  0  0  0  0  0  0  0
   -0.5460   -0.5810   -0.1510 N   0  0  0  0  0  0  0  0  0  0  0  0
    0.6540   -0.4170   -0.9110 C   0  0  0  0  0  0  0  0  0  0  0  0
    1.8220   -0.0350   -0.1330 C   0  0  0  0  0  0  0  0  0  0  0  0
    1.7380    0.1290    1.1050 O   0  0  0  0  0  0  0  0  0  0  0  0
    3.0840    0.1630   -0.7430 N   0  0  0  0  0  0  0  0  0  0  0  0
    4.2470    0.5360    0.0070 C   0  0  0  0  0  0  0  0  0  0  0  0
    4.2020    0.7190    1.3360 N   0  0  0  0  0  0  0  0  0  0  0  0
    5.2900    1.0670    2.0400 C   0  0  0  0  0  0  0  0  0  0  0  0
    5.0870    1.2730    3.7720 Cl  0  0  0  0  0  0  0  0  0  0  0  0
    6.5280    1.2590    1.4220 C   0  0  0  0  0  0  0  0  0  0  0  0
    6.6010    1.0790    0.0720 C   0  0  0  0  0  0  0  0  0  0  0  0
    7.8900    1.2720   -0.6180 C   0  0  0  0  0  0  0  0  0  0  0  0
    5.4620    0.7220   -0.6110 C   0  0  0  0  0  0  0  0  0  0  0  0
    5.6030    0.5020   -2.3520 Cl  0  0  0  0  0  0  0  0  0  0  0  0
   -1.5110    0.3700    0.0460 C   0  0  0  0  0  0  0  0  0  0  0  0
   -1.4260    2.0110   -0.6030 S   0  0  0  0  0  0  0  0  0  0  0  0
   -2.1480    2.0370   -2.2570 C   0  0  0  0  0  0  0  0  0  0  0  0
   -3.6020    1.7580   -2.2600 C   0  0  0  0  0  0  0  0  0  0  0  0
   -4.5790    2.7150   -2.1530 C   0  0  0  0  0  0  0  0  0  0  0  0
   -5.7860    2.0310   -2.1980 C   0  0  0  0  0  0  0  0  0  0  0  0
   -5.4830    0.6850   -2.3320 C   0  0  0  0  0  0  0  0  0  0  0  0
   -6.6960   -0.5890   -2.4330 Cl  0  0  0  0  0  0  0  0  0  0  0  0
   -4.1810    0.5970   -2.3610 O   0  0  0  0  0  0  0  0  0  0  0  0
  1  2  1  0
  2  3  1  0
  3  4  2  0
  3  5  1  0
  5  6  1  0
  5 27  2  0
  6  7  2  0
  7  8  1  0
  7 13  1  0
  8  9  2  0
  8 12  1  0
  9 10  1  0
 10 11  2  0
 11 12  1  0
 13 14  1  0
 13 27  1  0
 14 15  1  0
 15 16  2  0
 15 17  1  0
 17 18  1  0
 18 19  2  0
 18 25  1  0
 19 20  1  0
 20 21  1  0
 20 22  2  0
 22 23  1  0
 23 24  1  0
 23 25  2  0
 25 26  1  0
 27 28  1  0
 28 29  1  0
 29 30  1  0
 30 31  2  0
 30 35  1  0
 31 32  1  0
 32 33  2  0
 33 34  1  0
 33 35  1  0
M  END
