
     RDKit          3D

 36 39  0  0  0  0  0  0  0  0999 V2000
   -1.3800    0.9880   -2.8750 C   0  0  0  0  0  0  0  0  0  0  0  0
   -0.6050    0.9150   -1.6770 O   0  0  0  0  0  0  0  0  0  0  0  0
    0.8060    1.0790   -1.7260 C   0  0  0  0  0  0  0  0  0  0  0  0
    1.2460    1.2830   -2.8770 O   0  0  0  0  0  0  0  0  0  0  0  0
    1.5630    1.0000   -0.5010 C   0  0  0  0  0  0  0  0  0  0  0  0
    0.6050    0.6910    1.0100 S   0  0  0  0  0  0  0  0  0  0  0  0
   -1.1460    0.5500    0.5940 C   0  0  0  0  0  0  0  0  0  0  0  0
   -1.9180    1.6520    0.5880 N   0  0  0  0  0  0  0  0  0  0  0  0
   -3.2050    1.6280    0.2940 N   0  0  0  0  0  0  0  0  0  0  0  0
   -3.7910    0.4430   -0.0180 C   0  0  0  0  0  0  0  0  0  0  0  0
   -3.0080   -0.6770   -0.0120 C   0  0  0  0  0  0  0  0  0  0  0  0
   -1.6760   -0.6410    0.2930 N   0  0  0  0  0  0  0  0  0  0  0  0
   -3.8620   -1.8320   -0.3800 C   0  0  0  0  0  0  0  0  0  0  0  0
   -5.1990   -1.2550   -0.5930 C   0  0  0  0  0  0  0  0  0  0  0  0
   -5.1590    0.1000   -0.3780 C   0  0  0  0  0  0  0  0  0  0  0  0
   -6.3060    0.8950   -0.5150 C   0  0  0  0  0  0  0  0  0  0  0  0
   -7.4660    0.2820   -0.8690 C   0  0  0  0  0  0  0  0  0  0  0  0
   -8.9480    1.1930   -1.0640 Cl  0  0  0  0  0  0  0  0  0  0  0  0
   -7.5040   -1.0690   -1.0830 C   0  0  0  0  0  0  0  0  0  0  0  0
   -9.0120   -1.8670   -1.5440 Cl  0  0  0  0  0  0  0  0  0  0  0  0
   -6.3890   -1.8820   -0.9560 C   0  0  0  0  0  0  0  0  0  0  0  0
   -6.4510   -3.2780   -1.1820 N   0  0  0  0  0  0  0  0  0  0  0  0
    2.8660    1.1300   -0.3720 C   0  0  0  0  0  0  0  0  0  0  0  0
    3.7420    1.3750   -1.4750 C   0  0  0  0  0  0  0  0  0  0  0  0
    5.0510    1.5030   -1.3270 C   0  0  0  0  0  0  0  0  0  0  0  0
    5.9330    1.7600   -2.5100 C   0  0  0  0  0  0  0  0  0  0  0  0
    5.8280    1.3850    0.2130 Cl  0  0  0  0  0  0  0  0  0  0  0  0
    3.3470    1.0010    0.9860 N   0  0  0  0  0  0  0  0  0  0  0  0
    3.4490    2.0250    1.8370 C   0  0  0  0  0  0  0  0  0  0  0  0
    3.9080    1.5700    3.0800 C   0  0  0  0  0  0  0  0  0  0  0  0
    4.0860    0.2100    2.9570 C   0  0  0  0  0  0  0  0  0  0  0  0
    4.5540   -0.7040    3.9910 C   0  0  0  0  0  0  0  0  0  0  0  0
    4.8290   -0.2360    5.1230 O   0  0  0  0  0  0  0  0  0  0  0  0
    4.7060   -2.0590    3.7840 O   0  0  0  0  0  0  0  0  0  0  0  0
    5.1630   -2.9460    4.7990 C   0  0  0  0  0  0  0  0  0  0  0  0
    3.7280   -0.0880    1.6530 C   0  0  0  0  0  0  0  0  0  0  0  0
  1  2  1  0
  2  3  1  0
  3  4  2  0
  3  5  1  0
  5  6  1  0
  5 23  2  3
  6  7  1  0
  7  8  2  0
  7 12  1  0
  8  9  1  0
  9 10  2  0
 10 11  1  0
 10 15  1  0
 11 12  2  0
 11 13  1  0
 13 14  1  0
 14 15  2  0
 14 21  1  0
 15 16  1  0
 16 17  2  0
 17 18  1  0
 17 19  1  0
 19 20  1  0
 19 21  2  0
 21 22  1  0
 23 24  1  0
 23 28  1  0
 24 25  2  3
 25 26  1  0
 25 27  1  0
 28 29  1  0
 28 36  1  0
 29 30  2  0
 30 31  1  0
 31 32  1  0
 31 36  2  0
 32 33  2  0
 32 34  1  0
 34 35  1  0
M  END
