
     RDKit          3D

 36 39  0  0  0  0  0  0  0  0999 V2000
   -6.2040    5.6910    0.9210 C   0  0  0  0  0  0  0  0  0  0  0  0
   -5.3020    4.9550   -0.0090 C   0  0  0  0  0  0  0  0  0  0  0  0
   -4.6390    3.8190    0.6560 N   0  0  0  0  0  0  0  0  0  0  0  0
   -3.7590    2.9520   -0.0830 C   0  0  0  0  0  0  0  0  0  0  0  0
   -3.6020    3.2220   -1.2930 O   0  0  0  0  0  0  0  0  0  0  0  0
   -3.1000    1.8090    0.5660 C   0  0  0  0  0  0  0  0  0  0  0  0
   -2.3710    0.9450   -0.3670 C   0  0  1  0  0  0  0  0  0  0  0  0
   -1.2300    1.5530   -1.0870 C   0  0  0  0  0  0  0  0  0  0  0  0
   -0.6910    0.6700   -2.0310 O   0  0  0  0  0  0  0  0  0  0  0  0
   -0.1200   -0.4670   -1.4420 C   0  0  1  0  0  0  0  0  0  0  0  0
    1.3640   -0.2550   -1.3410 C   0  0  0  0  0  0  0  0  0  0  0  0
    2.0360   -0.7340   -0.2980 N   0  0  0  0  0  0  0  0  0  0  0  0
    3.3840   -0.5500   -0.1760 C   0  0  0  0  0  0  0  0  0  0  0  0
    4.0990   -1.0420    0.8880 C   0  0  0  0  0  0  0  0  0  0  0  0
    5.4810   -0.8230    0.9630 C   0  0  0  0  0  0  0  0  0  0  0  0
    6.1640   -0.1190   -0.0070 C   0  0  0  0  0  0  0  0  0  0  0  0
    7.8520    0.2080    0.0060 S   0  0  2  0  0  0  0  0  0  0  0  0
    8.4620    0.1680    1.5980 C   0  0  0  0  0  0  0  0  0  0  0  0
    7.9240    1.9560   -0.3790 C   0  0  0  0  0  0  0  0  0  0  0  0
    5.4050    0.3530   -1.0570 C   0  0  0  0  0  0  0  0  0  0  0  0
    4.0400    0.1530   -1.1630 C   0  0  0  0  0  0  0  0  0  0  0  0
    3.3040    0.6290   -2.2180 C   0  0  0  0  0  0  0  0  0  0  0  0
    3.9150    1.2880   -3.1300 O   0  0  0  0  0  0  0  0  0  0  0  0
    1.9860    0.4390   -2.3270 N   0  0  0  0  0  0  0  0  0  0  0  0
   -0.6670   -0.6450   -0.0470 C   0  0  0  0  0  0  0  0  0  0  0  0
   -1.9960   -0.3600    0.2160 N   0  0  0  0  0  0  0  0  0  0  0  0
   -3.0850   -1.2160   -0.0130 C   0  0  0  0  0  0  0  0  0  0  0  0
   -3.0770   -2.5750    0.5110 C   0  0  0  0  0  0  0  0  0  0  0  0
   -3.3560   -3.6270   -0.3610 C   0  0  0  0  0  0  0  0  0  0  0  0
   -3.4680   -4.8940    0.1650 C   0  0  0  0  0  0  0  0  0  0  0  0
   -3.8050   -6.0460   -0.7120 C   0  0  0  0  0  0  0  0  0  0  0  0
   -3.3070   -5.1240    1.5210 C   0  0  0  0  0  0  0  0  0  0  0  0
   -3.4000   -6.3740    1.9840 F   0  0  0  0  0  0  0  0  0  0  0  0
   -3.0260   -4.0630    2.3850 C   0  0  0  0  0  0  0  0  0  0  0  0
   -2.9130   -2.7910    1.8660 C   0  0  0  0  0  0  0  0  0  0  0  0
   -2.6360   -1.6690    2.6500 O   0  0  0  0  0  0  0  0  0  0  0  0
  1  2  1  0
  2  3  1  0
  3  4  1  0
  4  5  2  0
  4  6  1  0
  7  6  1  1
  7  8  1  0
  7 26  1  0
  8  9  1  0
  9 10  1  0
 10 11  1  1
 10 25  1  0
 11 12  2  0
 11 24  1  0
 12 13  1  0
 13 14  2  0
 13 21  1  0
 14 15  1  0
 15 16  2  0
 16 17  1  0
 16 20  1  0
 17 18  1  1
 17 19  1  0
 20 21  2  0
 21 22  1  0
 22 23  2  0
 22 24  1  0
 25 26  1  0
 26 27  1  0
 27 28  1  0
 28 29  2  0
 28 35  1  0
 29 30  1  0
 30 31  1  0
 30 32  2  0
 32 33  1  0
 32 34  1  0
 34 35  2  0
 35 36  1  0
M  END
