
     RDKit          3D

 36 40  0  0  0  0  0  0  0  0999 V2000
   -7.2120    1.7590   -1.8700 C   0  0  0  0  0  0  0  0  0  0  0  0
   -6.0780    2.1660   -0.9910 C   0  0  0  0  0  0  0  0  0  0  0  0
   -5.7060    1.1190    0.0180 C   0  0  0  0  0  0  0  0  0  0  0  0
   -5.2500   -0.1520   -0.6140 C   0  0  2  0  0  0  0  0  0  0  0  0
   -4.9140   -1.1320    0.5300 C   0  0  0  0  0  0  0  0  0  0  0  0
   -3.9810   -0.4720    1.5100 C   0  0  0  0  0  0  0  0  0  0  0  0
   -2.9320    0.2960    0.8550 N   0  0  0  0  0  0  0  0  0  0  0  0
   -2.0060    1.1000    1.6120 C   0  0  0  0  0  0  0  0  0  0  0  0
   -1.0650    0.2290    2.4540 C   0  0  0  0  0  0  0  0  0  0  0  0
   -0.1810    1.0470    3.2110 N   0  0  0  0  0  0  0  0  0  0  0  0
    1.1900    1.0460    2.8460 C   0  0  2  0  0  0  0  0  0  0  0  0
    1.5040    1.8040    1.6010 C   0  0  0  0  0  0  0  0  0  0  0  0
    2.9700    1.9000    1.5220 N   0  0  0  0  0  0  0  0  0  0  0  0
    3.7300    0.6610    1.4500 C   0  0  0  0  0  0  0  0  0  0  0  0
    4.7760    0.5630    0.8930 N   0  0  0  0  0  0  0  0  0  0  0  0
    6.1440   -0.0470    0.3020 S   0  0  1  0  0  0  0  0  0  0  0  0
    7.0370    1.0580   -0.3060 O   0  0  0  0  0  0  0  0  0  0  0  0
    7.0430   -0.6130    1.4060 O   0  0  0  0  0  0  0  0  0  0  0  0
    6.0090   -1.3410   -0.9110 C   0  0  2  0  0  0  0  0  0  0  0  0
    7.3780   -1.6620   -1.5110 C   0  0  0  0  0  0  0  0  0  0  0  0
    7.6280   -0.6300   -2.5810 C   0  0  0  0  0  0  0  0  0  0  0  0
    6.2600   -0.3510   -3.1090 C   0  0  0  0  0  0  0  0  0  0  0  0
    5.2440   -0.7500   -2.0900 C   0  0  0  0  0  0  0  0  0  0  0  0
    3.0390   -0.4400    2.1620 C   0  0  0  0  0  0  0  0  0  0  0  0
    3.6890   -1.6810    2.1230 C   0  0  0  0  0  0  0  0  0  0  0  0
    3.0980   -2.7570    2.7450 C   0  0  0  0  0  0  0  0  0  0  0  0
    1.8900   -2.5980    3.3900 C   0  0  0  0  0  0  0  0  0  0  0  0
    1.2540   -1.3800    3.4270 C   0  0  0  0  0  0  0  0  0  0  0  0
    1.8340   -0.2860    2.8060 C   0  0  0  0  0  0  0  0  0  0  0  0
   -2.8410    0.2330   -0.5600 C   0  0  0  0  0  0  0  0  0  0  0  0
   -1.6330    0.3870   -1.2010 C   0  0  0  0  0  0  0  0  0  0  0  0
   -1.5370    0.3190   -2.5790 C   0  0  0  0  0  0  0  0  0  0  0  0
   -2.6720    0.0930   -3.3210 C   0  0  0  0  0  0  0  0  0  0  0  0
   -3.9070   -0.0670   -2.7060 C   0  0  0  0  0  0  0  0  0  0  0  0
   -5.0770   -0.3080   -3.5650 C   0  0  0  0  0  0  0  0  0  0  0  0
   -3.9690    0.0060   -1.3500 C   0  0  0  0  0  0  0  0  0  0  0  0
  1  2  1  0
  2  3  1  0
  4  3  1  1
  4  5  1  0
  4 36  1  0
  5  6  1  0
  6  7  1  0
  7  8  1  0
  7 30  1  0
  8  9  1  0
  9 10  1  0
 11 10  1  6
 11 12  1  0
 11 29  1  0
 12 13  1  0
 13 14  1  0
 14 15  2  3
 14 24  1  0
 16 15  1  1
 16 17  2  0
 16 18  2  0
 16 19  1  0
 19 20  1  6
 19 23  1  0
 20 21  1  0
 21 22  1  0
 22 23  1  0
 24 25  2  0
 24 29  1  0
 25 26  1  0
 26 27  2  0
 27 28  1  0
 28 29  2  0
 30 31  2  0
 30 36  1  0
 31 32  1  0
 32 33  2  0
 33 34  1  0
 34 35  1  0
 34 36  2  0
M  CHG  1  10   1
M  END
