
     RDKit          3D

 36 39  0  0  0  0  0  0  0  0999 V2000
   -3.6670    3.8800   -0.3550 C   0  0  0  0  0  0  0  0  0  0  0  0
   -3.6430    2.4220   -0.2080 C   0  0  0  0  0  0  0  0  0  0  0  0
   -4.7260    1.7620    0.0590 C   0  0  0  0  0  0  0  0  0  0  0  0
   -6.0990    2.4170    0.2370 C   0  0  0  0  0  0  0  0  0  0  0  0
   -7.0070    1.4440   -0.5460 C   0  0  0  0  0  0  0  0  0  0  0  0
   -7.1160    0.1180    0.1570 C   0  0  2  0  0  0  0  0  0  0  0  0
   -8.3200    0.1390    1.0420 C   0  0  0  0  0  0  0  0  0  0  0  0
   -5.8400   -0.2670    0.8750 C   0  0  0  0  0  0  0  0  0  0  0  0
   -4.6830    0.3680    0.2450 N   0  0  0  0  0  0  0  0  0  0  0  0
   -3.5760   -0.4900   -0.1540 C   0  0  0  0  0  0  0  0  0  0  0  0
   -2.3620    0.3200   -0.4340 C   0  0  0  0  0  0  0  0  0  0  0  0
   -1.1000   -0.4360   -0.6940 C   0  0  0  0  0  0  0  0  0  0  0  0
   -1.1500   -1.7230   -0.6590 C   0  0  0  0  0  0  0  0  0  0  0  0
    0.1020   -2.8450   -0.9030 S   0  0  2  0  0  0  0  0  0  0  0  0
   -0.1940   -3.7140   -2.1570 O   0  0  0  0  0  0  0  0  0  0  0  0
    0.1440   -3.8340    0.2840 O   0  0  0  0  0  0  0  0  0  0  0  0
    1.6350   -2.1840   -1.1640 N   0  0  0  0  0  0  0  0  0  0  0  0
    1.6640   -1.3820   -2.3620 C   0  0  1  0  0  0  0  0  0  0  0  0
    2.4710   -0.1570   -2.1580 C   0  0  0  0  0  0  0  0  0  0  0  0
    3.9130   -0.5800   -1.9230 C   0  0  0  0  0  0  0  0  0  0  0  0
    4.5810   -0.1180   -0.9500 C   0  0  0  0  0  0  0  0  0  0  0  0
    5.9510   -0.4410   -0.5980 C   0  0  0  0  0  0  0  0  0  0  0  0
    6.7280   -0.0920    0.2400 C   0  0  0  0  0  0  0  0  0  0  0  0
    6.8110    0.7870    1.3290 O   0  0  0  0  0  0  0  0  0  0  0  0
    6.8070    0.4880    2.6530 C   0  0  0  0  0  0  0  0  0  0  0  0
    6.6070   -0.8190    3.1120 C   0  0  0  0  0  0  0  0  0  0  0  0
    6.6290   -1.0460    4.5010 C   0  0  0  0  0  0  0  0  0  0  0  0
    6.8460   -0.0080    5.3610 C   0  0  0  0  0  0  0  0  0  0  0  0
    6.8920   -0.3670    6.7150 F   0  0  0  0  0  0  0  0  0  0  0  0
    7.0400    1.2430    4.9700 C   0  0  0  0  0  0  0  0  0  0  0  0
    7.0180    1.4970    3.5500 C   0  0  0  0  0  0  0  0  0  0  0  0
    4.4830   -1.4820   -2.8900 N   0  0  0  0  0  0  0  0  0  0  0  0
    3.6150   -2.3480   -3.6210 C   0  0  0  0  0  0  0  0  0  0  0  0
    4.1210   -3.1490   -4.4890 O   0  0  0  0  0  0  0  0  0  0  0  0
    2.2480   -2.3030   -3.3750 N   0  0  0  0  0  0  0  0  0  0  0  0
   -2.4190    1.6260   -0.4570 C   0  0  0  0  0  0  0  0  0  0  0  0
  1  2  1  0
  2  3  2  0
  2 36  1  0
  3  4  1  0
  3  9  1  0
  4  5  1  0
  5  6  1  0
  6  7  1  1
  6  8  1  0
  8  9  1  0
  9 10  1  0
 10 11  1  0
 11 12  1  0
 11 36  2  0
 12 13  2  3
 13 14  1  0
 14 15  2  0
 14 16  2  0
 14 17  1  6
 18 17  1  1
 18 19  1  0
 18 35  1  0
 19 20  1  0
 20 21  2  3
 20 32  1  0
 21 22  1  0
 22 23  2  3
 23 24  1  0
 24 25  1  0
 25 26  2  0
 25 31  1  0
 26 27  1  0
 27 28  2  0
 28 29  1  0
 28 30  1  0
 30 31  2  0
 32 33  1  0
 33 34  2  0
 33 35  1  0
M  END
