
     RDKit          3D

 36 39  0  0  0  0  0  0  0  0999 V2000
    4.0170   -0.5920    4.7610 C   0  0  0  0  0  0  0  0  0  0  0  0
    5.0690   -0.7890    4.0200 C   0  0  0  0  0  0  0  0  0  0  0  0
    6.5710   -1.4270    4.7190 S   0  0  0  0  0  0  0  0  0  0  0  0
    7.7290   -1.5710    3.3770 C   0  0  0  0  0  0  0  0  0  0  0  0
    7.3430   -1.2000    2.1870 C   0  0  0  0  0  0  0  0  0  0  0  0
    8.2950   -1.3410    1.1990 F   0  0  0  0  0  0  0  0  0  0  0  0
    6.0560   -0.6810    1.8060 C   0  0  0  0  0  0  0  0  0  0  0  0
    5.0140   -0.4790    2.5800 C   0  0  0  0  0  0  0  0  0  0  0  0
    3.7170    0.0660    2.1280 C   0  0  0  0  0  0  0  0  0  0  0  0
    3.6270    0.4010    0.7370 N   0  0  0  0  0  0  0  0  0  0  0  0
    2.3800    0.9370    0.2020 C   0  0  0  0  0  0  0  0  0  0  0  0
    1.4820    1.0530    1.0620 O   0  0  0  0  0  0  0  0  0  0  0  0
    2.3130    1.2590   -1.1700 C   0  0  1  0  0  0  0  0  0  0  0  0
    2.9820    0.2780   -2.1150 C   0  0  0  0  0  0  0  0  0  0  0  0
    2.9940    0.7340   -3.5460 C   0  0  0  0  0  0  0  0  0  0  0  0
    1.8730    1.5640   -4.0460 C   0  0  0  0  0  0  0  0  0  0  0  0
    1.1550    2.3470   -2.9630 C   0  0  0  0  0  0  0  0  0  0  0  0
    0.9970    1.4510   -1.8070 N   0  0  0  0  0  0  0  0  0  0  0  0
   -0.1440    0.7910   -1.4430 C   0  0  0  0  0  0  0  0  0  0  0  0
   -0.0930    0.0960   -0.3590 O   0  0  0  0  0  0  0  0  0  0  0  0
   -1.4240    0.7590   -2.1150 C   0  0  0  0  0  0  0  0  0  0  0  0
   -1.8200    1.2540   -3.3020 N   0  0  0  0  0  0  0  0  0  0  0  0
   -3.1260    1.0270   -3.5220 C   0  0  0  0  0  0  0  0  0  0  0  0
   -3.9430    1.4220   -4.7250 C   0  0  0  0  0  0  0  0  0  0  0  0
   -3.6200    0.3500   -2.4350 C   0  0  0  0  0  0  0  0  0  0  0  0
   -2.5890    0.1720   -1.5510 C   0  0  0  0  0  0  0  0  0  0  0  0
   -2.8650   -0.5260   -0.3050 C   0  0  0  0  0  0  0  0  0  0  0  0
   -4.2360   -0.3580    0.2740 C   0  0  2  0  0  0  0  0  0  0  0  0
   -4.4610   -1.3800    1.3000 N   0  0  0  0  0  0  0  0  0  0  0  0
   -4.6570   -1.0060    2.6500 C   0  0  0  0  0  0  0  0  0  0  0  0
   -4.6330    0.2110    2.9460 O   0  0  0  0  0  0  0  0  0  0  0  0
   -4.8910   -1.9810    3.7370 C   0  0  0  0  0  0  0  0  0  0  0  0
   -5.0890   -1.3340    5.0670 C   0  0  0  0  0  0  0  0  0  0  0  0
   -5.3590   -0.3030   -0.7010 C   0  0  0  0  0  0  0  0  0  0  0  0
   -4.9390   -0.1770   -2.0970 C   0  0  0  0  0  0  0  0  0  0  0  0
   -5.7190   -0.5250   -3.0120 O   0  0  0  0  0  0  0  0  0  0  0  0
  1  2  2  0
  2  3  1  0
  2  8  1  0
  3  4  1  0
  4  5  2  0
  5  6  1  0
  5  7  1  0
  7  8  2  0
  8  9  1  0
  9 10  1  0
 10 11  1  0
 11 12  2  0
 13 11  1  1
 13 14  1  0
 13 18  1  0
 14 15  1  0
 15 16  1  0
 16 17  1  0
 17 18  1  0
 18 19  1  0
 19 20  2  0
 19 21  1  0
 21 22  1  0
 21 26  2  0
 22 23  1  0
 23 24  1  0
 23 25  2  0
 25 26  1  0
 25 35  1  0
 26 27  1  0
 27 28  1  0
 28 29  1  1
 28 34  1  0
 29 30  1  0
 30 31  2  0
 30 32  1  0
 32 33  1  0
 34 35  1  0
 35 36  2  0
M  END
