
     RDKit          3D

 15 15  0  0  0  0  0  0  0  0999 V2000
    4.5990    0.9000   -0.2710 C   0  0  0  0  0  0  0  0  0  0  0  0
    3.7050    0.0890    0.6640 C   0  0  0  0  0  0  0  0  0  0  0  0
    2.3900    0.3500    0.2920 O   0  0  0  0  0  0  0  0  0  0  0  0
    1.5240   -0.3520    1.0960 C   0  0  0  0  0  0  0  0  0  0  0  0
    0.1230   -0.0400    0.6590 C   0  0  0  0  0  0  0  0  0  0  0  0
   -0.5220   -0.7890   -0.3030 C   0  0  0  0  0  0  0  0  0  0  0  0
   -1.8160   -0.5200   -0.7240 C   0  0  0  0  0  0  0  0  0  0  0  0
   -2.4570   -1.3500   -1.7530 C   0  0  0  0  0  0  0  0  0  0  0  0
   -2.5020    0.5450   -0.1600 C   0  0  0  0  0  0  0  0  0  0  0  0
   -3.8570    0.8550   -0.5760 C   0  0  0  0  0  0  0  0  0  0  0  0
   -4.4760    0.1970   -1.4470 O   0  0  0  0  0  0  0  0  0  0  0  0
   -4.5200    1.9250    0.0040 O   0  0  0  0  0  0  0  0  0  0  0  0
   -1.8240    1.2680    0.7970 C   0  0  0  0  0  0  0  0  0  0  0  0
   -0.5670    0.9870    1.1880 N   0  0  0  0  0  0  0  0  0  0  0  0
    0.0620    1.7520    2.1570 O   0  0  0  0  0  0  0  0  0  0  0  0
  1  2  1  0
  2  3  1  0
  3  4  1  0
  4  5  1  0
  5  6  2  0
  5 14  1  0
  6  7  1  0
  7  8  1  0
  7  9  2  0
  9 10  1  0
  9 13  1  0
 10 11  2  0
 10 12  1  0
 13 14  2  0
 14 15  1  0
M  CHG  2  14   1  15  -1
M  END
