
     RDKit          3D

 24 25  0  0  0  0  0  0  0  0999 V2000
    4.3810   -1.0790   -0.5550 C   0  0  0  0  0  0  0  0  0  0  0  0
    4.1290   -0.5900    0.8530 C   0  0  1  0  0  0  0  0  0  0  0  0
    5.4070   -0.7940    1.6470 C   0  0  0  0  0  0  0  0  0  0  0  0
    3.6540    0.8260    0.9080 C   0  0  0  0  0  0  0  0  0  0  0  0
    2.3600    1.0820    0.1860 C   0  0  1  0  0  0  0  0  0  0  0  0
    1.9670    2.5480    0.3030 C   0  0  0  0  0  0  0  0  0  0  0  0
    2.3760    0.6470   -1.1330 O   0  0  0  0  0  0  0  0  0  0  0  0
    1.2190   -0.0870   -1.4490 C   0  0  0  0  0  0  0  0  0  0  0  0
    0.9690   -0.4310   -2.6330 O   0  0  0  0  0  0  0  0  0  0  0  0
    0.4800   -0.3260   -0.2590 N   0  0  0  0  0  0  0  0  0  0  0  0
   -0.7310   -1.0440   -0.0840 C   0  0  0  0  0  0  0  0  0  0  0  0
   -2.0240   -0.3240   -0.2070 C   0  0  2  0  0  0  0  0  0  0  0  0
   -3.1190   -1.3670    0.0630 C   0  0  1  0  0  0  0  0  0  0  0  0
   -4.3870   -0.8720   -0.0300 O   0  0  0  0  0  0  0  0  0  0  0  0
   -3.0010   -2.5930   -0.7750 C   0  0  0  0  0  0  0  0  0  0  0  0
   -3.2540   -2.3840   -2.1850 N   0  0  0  0  0  0  0  0  0  0  0  0
   -2.2780    0.4030   -1.4800 C   0  0  0  0  0  0  0  0  0  0  0  0
   -2.4260    1.7950   -1.2580 O   0  0  0  0  0  0  0  0  0  0  0  0
   -3.5370    2.0210   -0.5110 N   0  0  0  0  0  0  0  0  0  0  0  0
   -3.4040    1.5270    0.8270 C   0  0  0  0  0  0  0  0  0  0  0  0
   -2.1170    0.7300    0.8920 C   0  0  2  0  0  0  0  0  0  0  0  0
   -1.1230    1.6840    0.5180 O   0  0  0  0  0  0  0  0  0  0  0  0
    1.2370    0.2910    0.7870 C   0  0  0  0  0  0  0  0  0  0  0  0
    1.0660    0.2360    2.0460 O   0  0  0  0  0  0  0  0  0  0  0  0
  2  1  1  6
  2  3  1  0
  2  4  1  0
  4  5  1  0
  5  6  1  6
  5  7  1  0
  5 23  1  0
  7  8  1  0
  8  9  2  0
  8 10  1  0
 10 11  1  0
 10 23  1  0
 12 11  1  6
 12 13  1  0
 12 17  1  0
 12 21  1  0
 13 14  1  6
 13 15  1  0
 15 16  1  0
 17 18  1  0
 18 19  1  0
 19 20  1  0
 20 21  1  0
 21 22  1  6
 23 24  2  0
M  CHG  1  19   1
M  END
