
     RDKit          3D

 25 26  0  0  0  0  0  0  0  0999 V2000
   -1.4100   -4.1610    0.7080 N   0  0  0  0  0  0  0  0  0  0  0  0
   -0.5330   -3.3920   -0.0760 C   0  0  0  0  0  0  0  0  0  0  0  0
    0.1000   -3.7900   -1.0860 O   0  0  0  0  0  0  0  0  0  0  0  0
   -0.2920   -2.0460    0.2380 O   0  0  0  0  0  0  0  0  0  0  0  0
    0.5620   -1.2340   -0.4980 C   0  0  2  0  0  0  0  0  0  0  0  0
    1.7430   -0.7120    0.2710 C   0  0  0  0  0  0  0  0  0  0  0  0
    2.6310    0.0820   -0.6250 C   0  0  2  0  0  0  0  0  0  0  0  0
    3.4700    1.0860    0.1740 C   0  0  0  0  0  0  0  0  0  0  0  0
    4.3200    0.3440    1.1570 C   0  0  0  0  0  0  0  0  0  0  0  0
    5.1680    1.2530    1.9780 C   0  0  0  0  0  0  0  0  0  0  0  0
    6.1280    2.0710    1.2150 C   0  0  0  0  0  0  0  0  0  0  0  0
    6.8190    2.9430    1.8020 O   0  0  0  0  0  0  0  0  0  0  0  0
    6.3290    1.9410   -0.1490 O   0  0  0  0  0  0  0  0  0  0  0  0
    1.9400    0.8290   -1.6020 O   0  0  0  0  0  0  0  0  0  0  0  0
    0.5790    1.0620   -1.5130 C   0  0  0  0  0  0  0  0  0  0  0  0
    0.0050    2.1090   -1.8520 O   0  0  0  0  0  0  0  0  0  0  0  0
   -0.2150   -0.0590   -0.9640 C   0  0  0  0  0  0  0  0  0  0  0  0
   -1.5270    0.0350   -0.9150 C   0  0  0  0  0  0  0  0  0  0  0  0
   -2.1730    1.1940   -1.3820 N   0  0  0  0  0  0  0  0  0  0  0  0
   -2.2740   -1.0030   -0.4060 O   0  0  0  0  0  0  0  0  0  0  0  0
   -3.5990   -0.8430    0.0470 C   0  0  2  0  0  0  0  0  0  0  0  0
   -4.5060   -0.3610   -1.0320 C   0  0  0  0  0  0  0  0  0  0  0  0
   -5.2660    0.8000   -0.4400 C   0  0  0  0  0  0  0  0  0  0  0  0
   -4.7750    1.0460    0.8730 N   0  0  0  0  0  0  0  0  0  0  0  0
   -3.7260    0.1350    1.1810 C   0  0  0  0  0  0  0  0  0  0  0  0
  1  2  1  0
  2  3  2  0
  2  4  1  0
  5  4  1  1
  5  6  1  0
  5 17  1  0
  6  7  1  0
  7  8  1  1
  7 14  1  0
  8  9  1  0
  9 10  1  0
 10 11  1  0
 11 12  2  0
 11 13  1  0
 14 15  1  0
 15 16  2  0
 15 17  1  0
 17 18  2  3
 18 19  1  0
 18 20  1  0
 21 20  1  6
 21 22  1  0
 21 25  1  0
 22 23  1  0
 23 24  1  0
 24 25  1  0
M  CHG  1  24   1
M  END
