
     RDKit          3D

 15 14  0  0  0  0  0  0  0  0999 V2000
    4.0980    1.0540    0.2230 C   0  0  0  0  0  0  0  0  0  0  0  0
    3.9300    0.0520   -0.8590 C   0  0  0  0  0  0  0  0  0  0  0  0
    2.9930   -0.8070   -0.8910 N   0  0  0  0  0  0  0  0  0  0  0  0
    2.8920   -1.7030   -1.9130 O   0  0  0  0  0  0  0  0  0  0  0  0
    2.0110   -0.8190    0.2020 C   0  0  0  0  0  0  0  0  0  0  0  0
    0.6650   -0.5680   -0.4550 C   0  0  1  0  0  0  0  0  0  0  0  0
    0.3560   -1.5500   -1.3910 O   0  0  0  0  0  0  0  0  0  0  0  0
   -0.4410   -0.4400    0.5430 C   0  0  1  0  0  0  0  0  0  0  0  0
   -0.6400   -1.6470    1.4000 C   0  0  0  0  0  0  0  0  0  0  0  0
   -0.1270    0.7300    1.4790 C   0  0  0  0  0  0  0  0  0  0  0  0
   -1.6870   -0.1000   -0.1830 C   0  0  0  0  0  0  0  0  0  0  0  0
   -1.7120    0.0390   -1.4330 O   0  0  0  0  0  0  0  0  0  0  0  0
   -2.8980    0.0860    0.4800 O   0  0  0  0  0  0  0  0  0  0  0  0
   -4.1020    0.4090   -0.1610 C   0  0  0  0  0  0  0  0  0  0  0  0
   -4.0540    1.7040   -0.9230 C   0  0  0  0  0  0  0  0  0  0  0  0
  1  2  1  0
  2  3  2  3
  3  4  1  0
  3  5  1  0
  5  6  1  0
  6  7  1  6
  6  8  1  0
  8  9  1  1
  8 10  1  0
  8 11  1  0
 11 12  2  0
 11 13  1  0
 13 14  1  0
 14 15  1  0
M  CHG  2   3   1   4  -1
M  END
