
     RDKit          3D

 24 25  0  0  0  0  0  0  0  0999 V2000
    4.1280    2.3820    1.1210 N   0  0  0  0  0  0  0  0  0  0  0  0
    4.3090    1.6290   -0.0980 C   0  0  0  0  0  0  0  0  0  0  0  0
    4.2050    0.1180    0.1690 C   0  0  1  0  0  0  0  0  0  0  0  0
    5.3290   -0.1760    1.1640 C   0  0  0  0  0  0  0  0  0  0  0  0
    5.3910   -1.5390    1.3910 O   0  0  0  0  0  0  0  0  0  0  0  0
    2.8750   -0.1040    0.8170 C   0  0  0  0  0  0  0  0  0  0  0  0
    2.0650   -1.1020    0.1530 N   0  0  0  0  0  0  0  0  0  0  0  0
    0.6560   -1.0290    0.1270 C   0  0  0  0  0  0  0  0  0  0  0  0
    0.1080   -0.0450    0.7140 O   0  0  0  0  0  0  0  0  0  0  0  0
   -0.1830   -2.0560   -0.5560 C   0  0  0  0  0  0  0  0  0  0  0  0
   -1.5560   -1.7530   -0.4500 O   0  0  0  0  0  0  0  0  0  0  0  0
   -2.0200   -0.5640   -0.9860 C   0  0  0  0  0  0  0  0  0  0  0  0
   -1.1960    0.1980   -1.5490 O   0  0  0  0  0  0  0  0  0  0  0  0
   -3.4510   -0.1810   -0.9090 C   0  0  2  0  0  0  0  0  0  0  0  0
   -3.6560    1.1560   -1.5740 C   0  0  0  0  0  0  0  0  0  0  0  0
   -3.4610    2.3090   -0.6110 C   0  0  0  0  0  0  0  0  0  0  0  0
   -4.5040    2.2980    0.4810 C   0  0  0  0  0  0  0  0  0  0  0  0
   -5.0700    0.8960    0.5660 C   0  0  2  0  0  0  0  0  0  0  0  0
   -5.7830    0.7240    1.7560 O   0  0  0  0  0  0  0  0  0  0  0  0
   -3.8800   -0.0670    0.5460 C   0  0  1  0  0  0  0  0  0  0  0  0
   -4.2300   -1.3450    1.1090 N   0  0  0  0  0  0  0  0  0  0  0  0
    2.7550   -2.1940   -0.4930 C   0  0  0  0  0  0  0  0  0  0  0  0
    4.0240   -1.8020   -1.1420 C   0  0  0  0  0  0  0  0  0  0  0  0
    4.3890   -0.4970   -1.0310 O   0  0  0  0  0  0  0  0  0  0  0  0
  1  2  1  0
  3  2  1  6
  3  4  1  0
  3  6  1  0
  3 24  1  0
  4  5  1  0
  6  7  1  0
  7  8  1  0
  7 22  1  0
  8  9  2  0
  8 10  1  0
 10 11  1  0
 11 12  1  0
 12 13  2  0
 14 12  1  1
 14 15  1  0
 14 20  1  0
 15 16  1  0
 16 17  1  0
 17 18  1  0
 18 19  1  1
 18 20  1  0
 20 21  1  6
 22 23  1  0
 23 24  1  0
M  CHG  1  21   1
M  END
