
     RDKit          3D

 15 14  0  0  0  0  0  0  0  0999 V2000
    3.9300    1.0760   -1.1100 C   0  0  0  0  0  0  0  0  0  0  0  0
    3.4950    0.2100   -0.1780 C   0  0  0  0  0  0  0  0  0  0  0  0
    4.4430   -0.6780    0.2970 O   0  0  0  0  0  0  0  0  0  0  0  0
    2.0940    0.2950    0.2290 C   0  0  0  0  0  0  0  0  0  0  0  0
    1.3520   -0.9840   -0.0610 C   0  0  2  0  0  0  0  0  0  0  0  0
   -0.0990   -0.8170    0.3460 C   0  0  0  0  0  0  0  0  0  0  0  0
   -0.5970   -1.5810    1.1410 O   0  0  0  0  0  0  0  0  0  0  0  0
   -0.8520    0.2820   -0.2510 C   0  0  0  0  0  0  0  0  0  0  0  0
   -2.2940    0.3350    0.1960 C   0  0  2  0  0  0  0  0  0  0  0  0
   -2.9140    1.5390   -0.5260 C   0  0  0  0  0  0  0  0  0  0  0  0
   -2.4650    0.5430    1.6620 C   0  0  0  0  0  0  0  0  0  0  0  0
   -3.0660   -0.8740   -0.3010 C   0  0  0  0  0  0  0  0  0  0  0  0
    1.8550   -2.1320    0.6530 N   0  0  0  0  0  0  0  0  0  0  0  0
    2.7060   -2.0090    1.5270 O   0  0  0  0  0  0  0  0  0  0  0  0
    1.3510   -3.3690    0.3650 O   0  0  0  0  0  0  0  0  0  0  0  0
  1  2  2  0
  2  3  1  0
  2  4  1  0
  5  4  1  1
  5  6  1  0
  5 13  1  0
  6  7  2  0
  6  8  1  0
  8  9  1  0
  9 10  1  6
  9 11  1  0
  9 12  1  0
 13 14  2  0
 13 15  1  0
M  CHG  2  13   1  15  -1
M  END
