
     RDKit          3D

 20 20  0  0  0  0  0  0  0  0999 V2000
   -3.1740   -1.1060   -1.9700 C   0  0  0  0  0  0  0  0  0  0  0  0
   -3.0630   -0.0770   -0.8870 C   0  0  0  0  0  0  0  0  0  0  0  0
   -1.8790   -0.3750    0.0480 C   0  0  1  0  0  0  0  0  0  0  0  0
   -2.1290   -1.7170    0.6470 C   0  0  0  0  0  0  0  0  0  0  0  0
   -3.4560   -1.6260    1.4130 C   0  0  0  0  0  0  0  0  0  0  0  0
   -0.7460   -0.2690   -0.7060 O   0  0  0  0  0  0  0  0  0  0  0  0
    0.1150    0.7280   -0.4050 C   0  0  2  0  0  0  0  0  0  0  0  0
    0.4590    1.6280   -1.5280 C   0  0  0  0  0  0  0  0  0  0  0  0
    1.4420    2.4900   -1.3240 C   0  0  0  0  0  0  0  0  0  0  0  0
    1.8730    3.4270   -2.3530 C   0  0  0  0  0  0  0  0  0  0  0  0
    1.2990    3.4330   -3.4890 O   0  0  0  0  0  0  0  0  0  0  0  0
    2.8930    4.3150   -2.1270 O   0  0  0  0  0  0  0  0  0  0  0  0
    2.1280    2.5040   -0.0070 C   0  0  0  0  0  0  0  0  0  0  0  0
    2.4820    1.1040    0.3630 C   0  0  2  0  0  0  0  0  0  0  0  0
    3.7470    0.7460   -0.2900 N   0  0  0  0  0  0  0  0  0  0  0  0
    1.4330    0.0820    0.0390 C   0  0  1  0  0  0  0  0  0  0  0  0
    1.2490   -0.7510    1.1980 N   0  0  0  0  0  0  0  0  0  0  0  0
    1.5000   -2.1480    1.1180 C   0  0  0  0  0  0  0  0  0  0  0  0
    1.3290   -3.0650    2.2790 C   0  0  0  0  0  0  0  0  0  0  0  0
    1.8880   -2.6010   -0.0120 O   0  0  0  0  0  0  0  0  0  0  0  0
  1  2  1  0
  3  2  1  6
  3  4  1  0
  3  6  1  0
  4  5  1  0
  7  6  1  6
  7  8  1  0
  7 16  1  0
  8  9  2  0
  9 10  1  0
  9 13  1  0
 10 11  2  0
 10 12  1  0
 13 14  1  0
 14 15  1  6
 14 16  1  0
 16 17  1  1
 17 18  1  0
 18 19  1  0
 18 20  2  0
M  END
