
     RDKit          3D

 14 14  0  0  0  0  0  0  0  0999 V2000
    2.9030   -2.4460   -0.6550 C   0  0  0  0  0  0  0  0  0  0  0  0
    2.3720   -1.1870   -0.8830 O   0  0  0  0  0  0  0  0  0  0  0  0
    1.4150   -0.8290    0.0400 C   0  0  0  0  0  0  0  0  0  0  0  0
    0.8840    0.5640   -0.2820 C   0  0  0  0  0  0  0  0  0  0  0  0
   -0.1700    0.9890    0.7100 C   0  0  2  0  0  0  0  0  0  0  0  0
    0.4970    0.9730    1.9650 O   0  0  0  0  0  0  0  0  0  0  0  0
   -1.3290    0.1000    0.8600 C   0  0  0  0  0  0  0  0  0  0  0  0
   -2.2020   -0.1920   -0.2850 C   0  0  1  0  0  0  0  0  0  0  0  0
   -1.8030   -0.8350   -1.5440 C   0  0  0  0  0  0  0  0  0  0  0  0
   -2.5000   -1.6750   -0.5080 C   0  0  0  0  0  0  0  0  0  0  0  0
   -0.4960    2.4360    0.4560 C   0  0  0  0  0  0  0  0  0  0  0  0
    0.7110    3.2330    0.4120 N   0  0  0  0  0  0  0  0  0  0  0  0
    1.0530    3.8870   -0.5750 O   0  0  0  0  0  0  0  0  0  0  0  0
    1.4960    3.2470    1.5350 O   0  0  0  0  0  0  0  0  0  0  0  0
  1  2  1  0
  2  3  1  0
  3  4  1  0
  4  5  1  0
  5  6  1  1
  5  7  1  0
  5 11  1  0
  8  7  1  1
  8  9  1  0
  8 10  1  0
  9 10  1  0
 11 12  1  0
 12 13  2  0
 12 14  1  0
M  CHG  2  12   1  14  -1
M  END
