
     RDKit          3D

 32 33  0  0  0  0  0  0  0  0999 V2000
   -1.5820    0.2490   -2.6230 C   0  0  0  0  0  0  0  0  0  0  0  0
   -1.4770   -0.8240   -1.8760 C   0  0  0  0  0  0  0  0  0  0  0  0
   -0.7660   -1.9780   -2.1540 O   0  0  0  0  0  0  0  0  0  0  0  0
   -0.9880   -2.8320   -1.1130 O   0  0  0  0  0  0  0  0  0  0  0  0
   -2.2000   -2.5010   -0.6550 O   0  0  0  0  0  0  0  0  0  0  0  0
   -2.0820   -1.0890   -0.5580 C   0  0  1  0  0  0  0  0  0  0  0  0
   -1.2580   -0.7700    0.6270 C   0  0  1  0  0  0  0  0  0  0  0  0
   -1.9520   -1.1860    1.8680 C   0  0  0  0  0  0  0  0  0  0  0  0
   -1.3660   -1.3940    2.9890 N   0  0  0  0  0  0  0  0  0  0  0  0
   -3.3620   -1.3660    1.8130 N   0  0  0  0  0  0  0  0  0  0  0  0
    0.0890   -1.3220    0.6060 N   0  0  0  0  0  0  0  0  0  0  0  0
    0.8820   -0.4610    0.0660 C   0  0  0  0  0  0  0  0  0  0  0  0
    2.2920   -0.7830   -0.1010 C   0  0  0  0  0  0  0  0  0  0  0  0
    2.7500   -1.9750    0.2370 C   0  0  0  0  0  0  0  0  0  0  0  0
    1.8650   -2.9030    0.7480 O   0  0  0  0  0  0  0  0  0  0  0  0
    2.2570   -3.6290    1.8020 F   0  0  0  0  0  0  0  0  0  0  0  0
    4.1610   -2.3790    0.0990 C   0  0  2  0  0  0  0  0  0  0  0  0
    4.1790   -3.4880   -0.7710 O   0  0  0  0  0  0  0  0  0  0  0  0
    4.6660   -2.8040    1.3140 F   0  0  0  0  0  0  0  0  0  0  0  0
    4.9940   -1.3840   -0.4710 N   0  0  0  0  0  0  0  0  0  0  0  0
    5.9280   -0.7480    0.3500 S   0  0  0  0  0  0  0  0  0  0  0  0
    0.2870    0.8950    0.0580 C   0  0  0  0  0  0  0  0  0  0  0  0
    0.6530    1.9050   -0.6810 C   0  0  0  0  0  0  0  0  0  0  0  0
    0.0330    3.2730   -0.6330 C   0  0  0  0  0  0  0  0  0  0  0  0
    1.5040    1.7780   -1.8890 C   0  0  0  0  0  0  0  0  0  0  0  0
    1.9250    0.5780   -2.4450 N   0  0  0  0  0  0  0  0  0  0  0  0
    1.8740    2.8800   -2.4530 O   0  0  0  0  0  0  0  0  0  0  0  0
   -0.9750    0.7350    0.7690 C   0  0  0  0  0  0  0  0  0  0  0  0
   -1.7740    1.4950    1.4460 C   0  0  0  0  0  0  0  0  0  0  0  0
   -2.0250    2.7970    1.9010 C   0  0  0  0  0  0  0  0  0  0  0  0
   -1.4430    3.8820    1.8250 O   0  0  0  0  0  0  0  0  0  0  0  0
   -3.2650    2.9750    2.6560 O   0  0  0  0  0  0  0  0  0  0  0  0
  1  2  2  0
  2  3  1  0
  2  6  1  0
  3  4  1  0
  4  5  1  0
  6  5  1  6
  6  7  1  0
  7  8  1  1
  7 11  1  0
  7 28  1  0
  8  9  2  0
  8 10  1  0
 11 12  2  0
 12 13  1  0
 12 22  1  0
 13 14  2  3
 14 15  1  0
 14 17  1  0
 15 16  1  0
 17 18  1  6
 17 19  1  0
 17 20  1  0
 20 21  2  0
 22 23  2  3
 22 28  1  0
 23 24  1  0
 23 25  1  0
 25 26  1  0
 25 27  2  0
 28 29  2  3
 29 30  1  0
 30 31  2  0
 30 32  1  0
M  CHG  1  18  -1
M  END
