
     RDKit          3D

 30 30  0  0  0  0  0  0  0  0999 V2000
   -3.1080    3.9600   -0.5430 C   0  0  0  0  0  0  0  0  0  0  0  0
   -2.4720    2.7560   -0.7630 O   0  0  0  0  0  0  0  0  0  0  0  0
   -3.3160    1.6610   -0.5880 C   0  0  2  0  0  0  0  0  0  0  0  0
   -4.5050    1.7150   -1.5500 C   0  0  0  0  0  0  0  0  0  0  0  0
   -3.8420    1.6460    0.7400 N   0  0  0  0  0  0  0  0  0  0  0  0
   -2.5330    0.4300   -0.9400 C   0  0  1  0  0  0  0  0  0  0  0  0
   -1.3630    0.2720   -0.1010 N   0  0  0  0  0  0  0  0  0  0  0  0
   -0.8810   -1.0260   -0.0040 C   0  0  0  0  0  0  0  0  0  0  0  0
    0.3940   -1.3430    0.1740 C   0  0  0  0  0  0  0  0  0  0  0  0
    1.3920   -0.2960    0.2810 N   0  0  0  0  0  0  0  0  0  0  0  0
    2.7360   -0.5840    0.4670 C   0  0  0  0  0  0  0  0  0  0  0  0
    3.0620   -1.8210    0.5410 O   0  0  0  0  0  0  0  0  0  0  0  0
    3.8150    0.4350    0.5860 C   0  0  0  0  0  0  0  0  0  0  0  0
    5.0080   -0.0360    0.7570 C   0  0  0  0  0  0  0  0  0  0  0  0
    6.2800    0.5870    0.9110 C   0  0  0  0  0  0  0  0  0  0  0  0
    6.5520    1.9340    0.9140 O   0  0  0  0  0  0  0  0  0  0  0  0
    7.3730   -0.2050    1.0760 C   0  0  0  0  0  0  0  0  0  0  0  0
    7.2020   -1.5590    1.0860 O   0  0  0  0  0  0  0  0  0  0  0  0
    3.5090    1.8360    0.5110 C   0  0  0  0  0  0  0  0  0  0  0  0
    4.4130    2.7600    0.6090 N   0  0  0  0  0  0  0  0  0  0  0  0
    2.2110    2.3630    0.3260 O   0  0  0  0  0  0  0  0  0  0  0  0
   -1.9250   -2.0730   -0.1130 C   0  0  1  0  0  0  0  0  0  0  0  0
   -1.6580   -2.8740   -1.3610 C   0  0  0  0  0  0  0  0  0  0  0  0
   -0.4370   -3.5020   -1.3860 O   0  0  0  0  0  0  0  0  0  0  0  0
   -2.0330   -2.9210    1.1130 C   0  0  1  0  0  0  0  0  0  0  0  0
   -3.1000   -3.9840    0.9900 C   0  0  0  0  0  0  0  0  0  0  0  0
   -0.8420   -3.5820    1.3480 F   0  0  0  0  0  0  0  0  0  0  0  0
   -2.3000   -2.1690    2.2490 O   0  0  0  0  0  0  0  0  0  0  0  0
   -2.3820   -2.9780    3.2900 F   0  0  0  0  0  0  0  0  0  0  0  0
   -3.4240   -1.0950   -0.4210 S   0  0  0  0  0  0  0  0  0  0  0  0
  1  2  1  0
  2  3  1  0
  3  4  1  6
  3  5  1  0
  3  6  1  0
  6  7  1  1
  6 30  1  0
  7  8  1  0
  8  9  2  3
  8 22  1  0
  9 10  1  0
 10 11  1  0
 11 12  2  0
 11 13  1  0
 13 14  2  3
 13 19  1  0
 14 15  1  0
 15 16  1  0
 15 17  2  3
 17 18  1  0
 19 20  2  0
 19 21  1  0
 22 23  1  6
 22 25  1  0
 22 30  1  0
 23 24  1  0
 25 26  1  6
 25 27  1  0
 25 28  1  0
 28 29  1  0
M  CHG  1  24  -1
M  END
