
     RDKit          3D

 33 33  0  0  0  0  0  0  0  0999 V2000
    6.5040   -2.7700    1.2340 C   0  0  0  0  0  0  0  0  0  0  0  0
    6.8950   -1.5050    1.2690 C   0  0  0  0  0  0  0  0  0  0  0  0
    7.9800   -1.2620    2.1690 N   0  0  0  0  0  0  0  0  0  0  0  0
    6.2690   -0.4450    0.4540 C   0  0  0  0  0  0  0  0  0  0  0  0
    6.6870    0.7800    0.5240 C   0  0  0  0  0  0  0  0  0  0  0  0
    7.8000    1.2200    1.4010 C   0  0  0  0  0  0  0  0  0  0  0  0
    5.2090   -0.8510   -0.3800 N   0  0  0  0  0  0  0  0  0  0  0  0
    4.4240   -0.0370   -1.2530 C   0  0  0  0  0  0  0  0  0  0  0  0
    4.6760    1.1710   -1.3100 O   0  0  0  0  0  0  0  0  0  0  0  0
    3.3280   -0.6740   -2.0630 C   0  0  0  0  0  0  0  0  0  0  0  0
    2.2750    0.1680   -2.5720 C   0  0  0  0  0  0  0  0  0  0  0  0
    1.2610    0.8750   -1.7690 C   0  0  2  0  0  0  0  0  0  0  0  0
    1.8340    1.8500   -0.7640 C   0  0  0  0  0  0  0  0  0  0  0  0
    0.3020   -0.0970   -1.1050 C   0  0  2  0  0  0  0  0  0  0  0  0
    0.9230   -0.9270   -0.1360 N   0  0  0  0  0  0  0  0  0  0  0  0
    0.2700   -0.9720    1.1610 C   0  0  0  0  0  0  0  0  0  0  0  0
    1.3300   -0.9330    2.2760 C   0  0  0  0  0  0  0  0  0  0  0  0
   -0.0090   -1.0590   -2.2780 C   0  0  0  0  0  0  0  0  0  0  0  0
    0.3950   -2.3840   -2.1950 N   0  0  0  0  0  0  0  0  0  0  0  0
   -0.6180   -0.6320   -3.2820 O   0  0  0  0  0  0  0  0  0  0  0  0
   -1.0170    0.3920   -0.7640 C   0  0  0  0  0  0  0  0  0  0  0  0
   -1.9770   -0.5800   -0.4840 C   0  0  0  0  0  0  0  0  0  0  0  0
   -3.2840   -0.3050   -0.1830 C   0  0  0  0  0  0  0  0  0  0  0  0
   -3.7020    1.0040   -0.1480 C   0  0  0  0  0  0  0  0  0  0  0  0
   -5.0330    1.2970    0.1590 O   0  0  0  0  0  0  0  0  0  0  0  0
   -5.9350    0.2640    0.4280 C   0  0  0  0  0  0  0  0  0  0  0  0
   -7.3040    0.7940    0.7320 C   0  0  1  0  0  0  0  0  0  0  0  0
   -8.2980   -0.3430    0.8270 C   0  0  0  0  0  0  0  0  0  0  0  0
   -8.2020   -1.1980   -0.3360 N   0  0  0  0  0  0  0  0  0  0  0  0
   -7.3630    1.6310    1.8200 O   0  0  0  0  0  0  0  0  0  0  0  0
   -7.7770    2.9190    1.5110 C   0  0  0  0  0  0  0  0  0  0  0  0
   -2.7820    1.9870   -0.4200 C   0  0  0  0  0  0  0  0  0  0  0  0
   -1.4460    1.6800   -0.7270 C   0  0  0  0  0  0  0  0  0  0  0  0
  1  2  2  0
  2  3  1  0
  2  4  1  0
  4  5  2  3
  4  7  1  0
  5  6  1  0
  7  8  1  0
  8  9  2  0
  8 10  1  0
 10 11  1  0
 11 12  1  0
 12 13  1  1
 12 14  1  0
 14 15  1  1
 14 18  1  0
 14 21  1  0
 15 16  1  0
 16 17  1  0
 18 19  1  0
 18 20  2  0
 21 22  2  0
 21 33  1  0
 22 23  1  0
 23 24  2  0
 24 25  1  0
 24 32  1  0
 25 26  1  0
 27 26  1  1
 27 28  1  0
 27 30  1  0
 28 29  1  0
 30 31  1  0
 32 33  2  0
M  CHG  2  15   1  29   1
M  END
