
     RDKit          3D

 30 31  0  0  0  0  0  0  0  0999 V2000
   -5.8770    0.5990    1.8540 C   0  0  0  0  0  0  0  0  0  0  0  0
   -4.5240    0.9000    1.5040 O   0  0  0  0  0  0  0  0  0  0  0  0
   -3.7360    0.0060    0.8200 C   0  0  0  0  0  0  0  0  0  0  0  0
   -4.2170   -1.0870    0.5010 O   0  0  0  0  0  0  0  0  0  0  0  0
   -2.3300    0.4120    0.4980 C   0  0  0  0  0  0  0  0  0  0  0  0
   -1.6050   -0.4320   -0.1410 C   0  0  0  0  0  0  0  0  0  0  0  0
   -2.2240   -1.7120   -0.5000 N   0  0  0  0  0  0  0  0  0  0  0  0
   -2.9360   -2.5280   -1.3870 C   0  0  0  0  0  0  0  0  0  0  0  0
   -2.5500   -3.0690   -0.2500 C   0  0  0  0  0  0  0  0  0  0  0  0
   -2.5220   -4.1940    0.5560 O   0  0  0  0  0  0  0  0  0  0  0  0
   -1.5110   -4.4660    1.3880 O   0  0  0  0  0  0  0  0  0  0  0  0
   -0.1930   -0.2700   -0.5790 C   0  0  2  0  0  0  0  0  0  0  0  0
    0.2800   -1.7150   -0.8410 N   0  0  0  0  0  0  0  0  0  0  0  0
    0.6930    0.0940    0.5350 C   0  0  0  0  0  0  0  0  0  0  0  0
    0.1970   -0.0770    1.7610 N   0  0  0  0  0  0  0  0  0  0  0  0
    2.0620    0.5470    0.4500 C   0  0  0  0  0  0  0  0  0  0  0  0
    2.7800    0.7850   -0.6210 C   0  0  0  0  0  0  0  0  0  0  0  0
    4.1100    1.2250   -0.2140 C   0  0  0  0  0  0  0  0  0  0  0  0
    5.1270    1.4960   -1.0030 C   0  0  0  0  0  0  0  0  0  0  0  0
    5.0320    1.3840   -2.3930 O   0  0  0  0  0  0  0  0  0  0  0  0
    4.1010    1.3090    1.2470 C   0  0  2  0  0  0  0  0  0  0  0  0
    5.1490    0.5130    1.8600 N   0  0  0  0  0  0  0  0  0  0  0  0
    2.8510    0.8060    1.5880 O   0  0  0  0  0  0  0  0  0  0  0  0
    0.0280    0.4160   -1.8270 C   0  0  0  0  0  0  0  0  0  0  0  0
    0.3520   -0.3700   -3.1140 C   0  0  0  0  0  0  0  0  0  0  0  0
   -0.0020    1.6110   -2.0660 O   0  0  0  0  0  0  0  0  0  0  0  0
   -1.9850    1.7480    0.9490 C   0  0  1  0  0  0  0  0  0  0  0  0
   -3.0360    2.5760    0.4200 F   0  0  0  0  0  0  0  0  0  0  0  0
   -2.1300    1.8210    2.3360 F   0  0  0  0  0  0  0  0  0  0  0  0
   -0.8390    2.2900    0.5320 F   0  0  0  0  0  0  0  0  0  0  0  0
  1  2  1  0
  2  3  1  0
  3  4  2  0
  3  5  1  0
  5  6  2  3
  5 27  1  0
  6  7  1  0
  6 12  1  0
  7  8  1  0
  7  9  1  0
  8  9  2  0
  9 10  1  0
 10 11  1  0
 12 13  1  6
 12 14  1  0
 12 24  1  0
 14 15  2  0
 14 16  1  0
 16 17  2  0
 16 23  1  0
 17 18  1  0
 18 19  2  3
 18 21  1  0
 19 20  1  0
 21 22  1  1
 21 23  1  0
 24 25  1  0
 24 26  2  0
 27 28  1  6
 27 29  1  0
 27 30  1  0
M  CHG  1  11  -1
M  END
