
     RDKit          3D

 33 33  0  0  0  0  0  0  0  0999 V2000
   -5.4850   -2.4910   -0.1340 C   0  0  0  0  0  0  0  0  0  0  0  0
   -4.2430   -2.5990   -0.5710 C   0  0  0  0  0  0  0  0  0  0  0  0
   -3.7860   -3.8900   -1.0010 C   0  0  0  0  0  0  0  0  0  0  0  0
   -2.6530   -4.2120   -1.4780 N   0  0  0  0  0  0  0  0  0  0  0  0
   -3.4450   -1.3860   -0.6490 C   0  0  0  0  0  0  0  0  0  0  0  0
   -2.5040   -1.0920    0.4910 C   0  0  2  0  0  0  0  0  0  0  0  0
   -1.4990   -2.2890    0.5450 C   0  0  0  0  0  0  0  0  0  0  0  0
   -3.1860   -1.2300    1.7980 C   0  0  0  0  0  0  0  0  0  0  0  0
   -4.2540   -0.5130    2.1540 O   0  0  0  0  0  0  0  0  0  0  0  0
   -1.7440    0.1070    0.1830 C   0  0  0  0  0  0  0  0  0  0  0  0
   -0.3400   -0.0320    0.1070 C   0  0  0  0  0  0  0  0  0  0  0  0
    0.5200    0.9920   -0.1900 C   0  0  0  0  0  0  0  0  0  0  0  0
    1.9290    0.8840   -0.2930 N   0  0  0  0  0  0  0  0  0  0  0  0
    2.6810   -0.2900   -0.3580 C   0  0  0  0  0  0  0  0  0  0  0  0
    2.1340   -1.4070   -0.3340 O   0  0  0  0  0  0  0  0  0  0  0  0
    4.2190   -0.2050   -0.4620 C   0  0  0  0  0  0  0  0  0  0  0  0
    4.7080   -1.5930   -0.5080 C   0  0  0  0  0  0  0  0  0  0  0  0
    6.1130   -1.9270   -0.6790 C   0  0  0  0  0  0  0  0  0  0  0  0
    7.1770   -1.5420    0.2510 C   0  0  0  0  0  0  0  0  0  0  0  0
    7.4680   -0.1060    0.4430 C   0  0  0  0  0  0  0  0  0  0  0  0
    8.5770    0.1340    1.3630 N   0  0  0  0  0  0  0  0  0  0  0  0
    9.8950   -0.3150    1.1220 C   0  0  0  0  0  0  0  0  0  0  0  0
   10.9550   -0.0580    2.0640 N   0  0  0  0  0  0  0  0  0  0  0  0
   10.1320   -0.9510    0.0590 O   0  0  0  0  0  0  0  0  0  0  0  0
   -0.0830    2.2330   -0.4240 C   0  0  0  0  0  0  0  0  0  0  0  0
   -1.4330    2.4290   -0.3640 C   0  0  0  0  0  0  0  0  0  0  0  0
   -2.2750    1.3540   -0.0570 C   0  0  0  0  0  0  0  0  0  0  0  0
   -3.6280    1.6360    0.0190 N   0  0  0  0  0  0  0  0  0  0  0  0
   -4.1760    2.9300   -0.4270 C   0  0  2  0  0  0  0  0  0  0  0  0
   -5.6630    2.9760   -0.0590 C   0  0  0  0  0  0  0  0  0  0  0  0
   -6.4490    1.8840   -0.7010 C   0  0  0  0  0  0  0  0  0  0  0  0
   -4.1150    3.0670   -1.9300 C   0  0  0  0  0  0  0  0  0  0  0  0
   -4.6690    4.3700   -2.2520 N   0  0  0  0  0  0  0  0  0  0  0  0
  1  2  2  0
  2  3  1  0
  2  5  1  0
  3  4  2  0
  5  6  1  0
  6  7  1  1
  6  8  1  0
  6 10  1  0
  8  9  1  0
 10 11  2  0
 10 27  1  0
 11 12  1  0
 12 13  1  0
 12 25  2  0
 13 14  1  0
 14 15  2  0
 14 16  1  0
 16 17  1  0
 17 18  1  0
 18 19  1  0
 19 20  1  0
 20 21  1  0
 21 22  1  0
 22 23  1  0
 22 24  2  0
 25 26  1  0
 26 27  2  0
 27 28  1  0
 28 29  1  0
 29 30  1  6
 29 32  1  0
 30 31  1  0
 32 33  1  0
M  CHG  1  33   1
M  END
