
     RDKit          3D

 33 33  0  0  0  0  0  0  0  0999 V2000
   -3.7270    1.9060    1.8620 C   0  0  0  0  0  0  0  0  0  0  0  0
   -2.9790    1.0780    0.9900 O   0  0  0  0  0  0  0  0  0  0  0  0
   -1.9970    0.2070    1.4040 C   0  0  0  0  0  0  0  0  0  0  0  0
   -1.7700    0.1640    2.6370 O   0  0  0  0  0  0  0  0  0  0  0  0
   -1.2050   -0.6700    0.5190 C   0  0  2  0  0  0  0  0  0  0  0  0
   -2.2100   -1.5200   -0.2920 C   0  0  0  0  0  0  0  0  0  0  0  0
   -0.5380   -1.6840    1.3040 N   0  0  0  0  0  0  0  0  0  0  0  0
   -0.7910   -1.7360    2.5790 O   0  0  0  0  0  0  0  0  0  0  0  0
    0.6990   -1.7600    0.8080 N   0  0  0  0  0  0  0  0  0  0  0  0
    1.2200   -3.1120    0.7020 C   0  0  1  0  0  0  0  0  0  0  0  0
    1.1940   -3.6140    2.0130 F   0  0  0  0  0  0  0  0  0  0  0  0
    0.4150   -3.9300   -0.0550 F   0  0  0  0  0  0  0  0  0  0  0  0
    2.6250   -3.1190    0.2690 C   0  0  0  0  0  0  0  0  0  0  0  0
    3.5510   -2.5140    1.0450 F   0  0  0  0  0  0  0  0  0  0  0  0
    2.9480   -3.7720   -0.9660 S   0  0  0  0  0  0  0  0  0  0  0  0
    0.8700   -1.0160   -0.2290 O   0  0  0  0  0  0  0  0  0  0  0  0
   -0.1850   -0.1170   -0.3320 C   0  0  2  0  0  0  0  0  0  0  0  0
    0.4230    1.1990   -0.0160 C   0  0  1  0  0  0  0  0  0  0  0  0
   -0.2530    2.4590   -0.4560 C   0  0  0  0  0  0  0  0  0  0  0  0
    1.0180    1.4090    1.2110 O   0  0  0  0  0  0  0  0  0  0  0  0
    2.1100    0.8480    1.8350 C   0  0  0  0  0  0  0  0  0  0  0  0
    1.9180    0.2460    2.9830 C   0  0  0  0  0  0  0  0  0  0  0  0
    2.8490   -0.4210    3.8490 C   0  0  0  0  0  0  0  0  0  0  0  0
    4.0780   -0.5800    3.7010 O   0  0  0  0  0  0  0  0  0  0  0  0
    3.4640    0.9290    1.2270 C   0  0  0  0  0  0  0  0  0  0  0  0
    3.5500    0.3300   -0.0260 O   0  0  0  0  0  0  0  0  0  0  0  0
   -0.4740   -0.1380   -1.8340 C   0  0  1  0  0  0  0  0  0  0  0  0
    0.8330    0.1360   -2.5410 C   0  0  0  0  0  0  0  0  0  0  0  0
   -0.8270   -1.4340   -2.2460 O   0  0  0  0  0  0  0  0  0  0  0  0
   -1.5430    0.7070   -2.2560 N   0  0  0  0  0  0  0  0  0  0  0  0
   -1.8980    0.8260   -3.6470 C   0  0  0  0  0  0  0  0  0  0  0  0
   -2.9630    1.6720   -4.0100 N   0  0  0  0  0  0  0  0  0  0  0  0
   -1.2850    0.1980   -4.5320 O   0  0  0  0  0  0  0  0  0  0  0  0
  1  2  1  0
  2  3  1  0
  3  4  2  0
  3  5  1  0
  5  6  1  6
  5  7  1  0
  5 17  1  0
  7  8  1  0
  7  9  1  0
  9 10  1  0
  9 16  1  0
 10 11  1  1
 10 12  1  0
 10 13  1  0
 13 14  1  0
 13 15  2  0
 17 16  1  6
 17 18  1  0
 17 27  1  0
 18 19  1  1
 18 20  1  0
 20 21  1  0
 21 22  2  3
 21 25  1  0
 22 23  1  0
 23 24  2  0
 25 26  1  0
 27 28  1  6
 27 29  1  0
 27 30  1  0
 30 31  1  0
 31 32  1  0
 31 33  2  0
M  CHG  1   8  -1
M  END
