
     RDKit          3D

 32 35  0  0  0  0  0  0  0  0999 V2000
    2.0280   -0.1690   -2.2900 C   0  0  0  0  0  0  0  0  0  0  0  0
    3.1630   -0.6700   -1.4540 C   0  0  0  0  0  0  0  0  0  0  0  0
    3.9850   -1.7030   -1.6920 N   0  0  0  0  0  0  0  0  0  0  0  0
    4.8910   -1.8270   -0.6820 C   0  0  0  0  0  0  0  0  0  0  0  0
    5.9320   -2.6920   -0.4210 C   0  0  0  0  0  0  0  0  0  0  0  0
    6.7170   -2.6020    0.7030 C   0  0  0  0  0  0  0  0  0  0  0  0
    6.4750   -1.6120    1.6310 C   0  0  0  0  0  0  0  0  0  0  0  0
    5.4370   -0.7270    1.4000 C   0  0  0  0  0  0  0  0  0  0  0  0
    4.6530   -0.8290    0.2600 C   0  0  0  0  0  0  0  0  0  0  0  0
    3.5830   -0.1260   -0.2360 C   0  0  0  0  0  0  0  0  0  0  0  0
    2.9110    1.0440    0.3790 C   0  0  0  0  0  0  0  0  0  0  0  0
    1.6430    0.5770    0.9930 C   0  0  0  0  0  0  0  0  0  0  0  0
    1.6630   -0.2900    1.9000 O   0  0  0  0  0  0  0  0  0  0  0  0
    0.3810    1.0810    0.5890 N   0  0  0  0  0  0  0  0  0  0  0  0
   -0.8760    0.6390    1.1930 C   0  0  1  0  0  0  0  0  0  0  0  0
   -1.5410    1.8480    1.8560 C   0  0  0  0  0  0  0  0  0  0  0  0
   -1.8010    2.9120    0.8580 C   0  0  0  0  0  0  0  0  0  0  0  0
   -0.8040    3.8280    0.6110 C   0  0  0  0  0  0  0  0  0  0  0  0
   -0.9920    4.8560   -0.3210 C   0  0  0  0  0  0  0  0  0  0  0  0
   -2.1870    4.9530   -0.9990 C   0  0  0  0  0  0  0  0  0  0  0  0
   -3.1890    4.0430   -0.7590 C   0  0  0  0  0  0  0  0  0  0  0  0
   -2.9860    3.0190    0.1770 C   0  0  0  0  0  0  0  0  0  0  0  0
   -1.7630   -0.0570    0.2510 C   0  0  0  0  0  0  0  0  0  0  0  0
   -1.7600    0.2840   -0.9550 O   0  0  0  0  0  0  0  0  0  0  0  0
   -2.6160   -1.1030    0.6760 N   0  0  0  0  0  0  0  0  0  0  0  0
   -2.5730   -1.5670    2.0580 C   0  0  0  0  0  0  0  0  0  0  0  0
   -3.5240   -1.7640   -0.1880 C   0  0  0  0  0  0  0  0  0  0  0  0
   -4.8690   -1.8270    0.1040 C   0  0  0  0  0  0  0  0  0  0  0  0
   -5.7710   -2.4680   -0.7200 C   0  0  0  0  0  0  0  0  0  0  0  0
   -5.3520   -3.0750   -1.8780 C   0  0  0  0  0  0  0  0  0  0  0  0
   -4.0160   -3.0270   -2.1940 C   0  0  0  0  0  0  0  0  0  0  0  0
   -3.1300   -2.3810   -1.3560 C   0  0  0  0  0  0  0  0  0  0  0  0
  1  2  1  0
  2  3  1  0
  2 10  2  0
  3  4  1  0
  4  5  2  0
  4  9  1  0
  5  6  1  0
  6  7  2  0
  7  8  1  0
  8  9  2  0
  9 10  1  0
 10 11  1  0
 11 12  1  0
 12 13  2  0
 12 14  1  0
 14 15  1  0
 15 16  1  6
 15 23  1  0
 16 17  1  0
 17 18  2  0
 17 22  1  0
 18 19  1  0
 19 20  2  0
 20 21  1  0
 21 22  2  0
 23 24  2  0
 23 25  1  0
 25 26  1  0
 25 27  1  0
 27 28  2  0
 27 32  1  0
 28 29  1  0
 29 30  2  0
 30 31  1  0
 31 32  2  0
M  END
