
     RDKit          3D

 33 33  0  0  0  0  0  0  0  0999 V2000
   -8.9880    0.5940   -2.3740 C   0  0  0  0  0  0  0  0  0  0  0  0
   -7.5450    0.7430   -2.0760 C   0  0  0  0  0  0  0  0  0  0  0  0
   -7.0580    0.2150   -0.9750 C   0  0  0  0  0  0  0  0  0  0  0  0
   -7.9750   -0.4980   -0.0930 C   0  0  0  0  0  0  0  0  0  0  0  0
   -7.3600   -0.8510    1.1820 C   0  0  0  0  0  0  0  0  0  0  0  0
   -8.2270   -1.4330    2.2210 N   0  0  0  0  0  0  0  0  0  0  0  0
   -6.1030   -0.6730    1.4460 C   0  0  0  0  0  0  0  0  0  0  0  0
   -5.6420   -1.1050    2.8200 C   0  0  0  0  0  0  0  0  0  0  0  0
   -5.1140   -0.0390    0.5220 C   0  0  0  0  0  0  0  0  0  0  0  0
   -3.8730    0.2310    1.0930 N   0  0  0  0  0  0  0  0  0  0  0  0
   -2.7810    1.0190    0.7370 C   0  0  0  0  0  0  0  0  0  0  0  0
   -2.8290    1.7290   -0.2530 O   0  0  0  0  0  0  0  0  0  0  0  0
   -1.5610    1.0150    1.5310 N   0  0  0  0  0  0  0  0  0  0  0  0
   -0.4730    1.8380    1.1250 C   0  0  0  0  0  0  0  0  0  0  0  0
    0.1500    1.5770   -0.1900 C   0  0  0  0  0  0  0  0  0  0  0  0
    0.7920    0.2380   -0.3720 C   0  0  2  0  0  0  0  0  0  0  0  0
   -0.1170   -0.9410   -0.2430 C   0  0  0  0  0  0  0  0  0  0  0  0
   -1.1520   -0.8980   -1.1500 O   0  0  0  0  0  0  0  0  0  0  0  0
    1.9130    0.1330    0.5800 N   0  0  0  0  0  0  0  0  0  0  0  0
    3.1640   -0.2040   -0.1360 C   0  0  2  0  0  0  0  0  0  0  0  0
    4.0940   -1.0160    0.6530 C   0  0  0  0  0  0  0  0  0  0  0  0
    3.5070   -2.3540    1.1120 C   0  0  0  0  0  0  0  0  0  0  0  0
    3.0700   -3.2300   -0.0040 C   0  0  0  0  0  0  0  0  0  0  0  0
    3.6540    1.0280   -0.8280 C   0  0  0  0  0  0  0  0  0  0  0  0
    4.8760    0.8860   -1.5250 N   0  0  0  0  0  0  0  0  0  0  0  0
    6.1640    0.7280   -0.9920 C   0  0  0  0  0  0  0  0  0  0  0  0
    6.3500    0.7600    0.2290 O   0  0  0  0  0  0  0  0  0  0  0  0
    7.3190    0.5240   -1.8070 N   0  0  0  0  0  0  0  0  0  0  0  0
    8.6570    0.3610   -1.2790 C   0  0  0  0  0  0  0  0  0  0  0  0
    9.1450    1.5310   -0.4860 C   0  0  0  0  0  0  0  0  0  0  0  0
   10.5570    1.2010   -0.0090 C   0  0  0  0  0  0  0  0  0  0  0  0
   -5.6400    0.3450   -0.6130 C   0  0  0  0  0  0  0  0  0  0  0  0
   -4.7600    0.7910   -1.7280 C   0  0  0  0  0  0  0  0  0  0  0  0
  1  2  1  0
  2  3  2  3
  3  4  1  0
  3 32  1  0
  4  5  1  0
  5  6  1  0
  5  7  2  0
  7  8  1  0
  7  9  1  0
  9 10  1  0
  9 32  2  0
 10 11  1  0
 11 12  2  0
 11 13  1  0
 13 14  1  0
 14 15  1  0
 16 15  1  1
 16 17  1  0
 16 19  1  0
 17 18  1  0
 19 20  1  0
 20 21  1  1
 20 24  1  0
 21 22  1  0
 22 23  1  0
 24 25  1  0
 25 26  1  0
 26 27  2  0
 26 28  1  0
 28 29  1  0
 29 30  1  0
 30 31  1  0
 32 33  1  0
M  CHG  1  19   1
M  END
