
     RDKit          3D

 22 25  0  0  0  0  0  0  0  0999 V2000
   -5.5140   -2.6290   -0.0830 C   0  0  0  0  0  0  0  0  0  0  0  0
   -4.2500   -1.8140    0.1090 C   0  0  0  0  0  0  0  0  0  0  0  0
   -2.6180   -2.3580    0.2460 S   0  0  0  0  0  0  0  0  0  0  0  0
   -1.8420   -0.7370    0.4400 C   0  0  0  0  0  0  0  0  0  0  0  0
   -0.4550   -0.6030    0.5970 N   0  0  0  0  0  0  0  0  0  0  0  0
    0.3270    0.5080    0.8640 C   0  0  0  0  0  0  0  0  0  0  0  0
   -0.1920    1.6080    1.0130 O   0  0  0  0  0  0  0  0  0  0  0  0
    1.8240    0.4350    0.9790 C   0  0  0  0  0  0  0  0  0  0  0  0
    2.4790    0.2720   -0.7000 S   0  0  0  0  0  0  0  0  0  0  0  0
    4.2720    0.1460   -0.6170 C   0  0  0  0  0  0  0  0  0  0  0  0
    5.1480   -0.6250   -0.5110 N   0  0  0  0  0  0  0  0  0  0  0  0
    6.4390   -0.4330   -0.4900 C   0  0  0  0  0  0  0  0  0  0  0  0
    7.6580   -1.1360   -0.3800 C   0  0  0  0  0  0  0  0  0  0  0  0
    8.6280   -0.2820   -0.4390 O   0  0  0  0  0  0  0  0  0  0  0  0
    8.2570    0.9480   -0.5770 C   0  0  0  0  0  0  0  0  0  0  0  0
    6.8370    0.8930   -0.6140 C   0  0  0  0  0  0  0  0  0  0  0  0
    5.3100    1.7350   -0.7480 S   0  0  0  0  0  0  0  0  0  0  0  0
   -2.9300    0.0870    0.3770 C   0  0  0  0  0  0  0  0  0  0  0  0
   -4.1450   -0.4190    0.2160 C   0  0  0  0  0  0  0  0  0  0  0  0
   -5.1950    0.6910    0.2300 C   0  0  0  0  0  0  0  0  0  0  0  0
   -4.4090    1.8430   -0.2880 C   0  0  0  0  0  0  0  0  0  0  0  0
   -3.0640    1.6110    0.3950 C   0  0  0  0  0  0  0  0  0  0  0  0
  1  2  1  0
  2  3  1  0
  2 19  2  0
  3  4  1  0
  4  5  1  0
  4 18  2  0
  5  6  1  0
  6  7  2  0
  6  8  1  0
  8  9  1  0
  9 10  1  0
 10 11  2  0
 10 17  1  0
 11 12  1  0
 12 13  2  0
 12 16  1  0
 13 14  1  0
 14 15  1  0
 15 16  2  0
 16 17  1  0
 18 19  1  0
 18 22  1  0
 19 20  1  0
 20 21  1  0
 21 22  1  0
M  END
