
     RDKit          3D

 22 25  0  0  0  0  0  0  0  0999 V2000
   -3.4230   -2.2230   -0.1880 C   0  0  0  0  0  0  0  0  0  0  0  0
   -2.8210   -0.8780   -0.0290 C   0  0  0  0  0  0  0  0  0  0  0  0
   -1.4680   -0.7710   -0.0550 C   0  0  0  0  0  0  0  0  0  0  0  0
   -0.9300    0.4770    0.1580 C   0  0  0  0  0  0  0  0  0  0  0  0
    0.5650    0.6320    0.1490 C   0  0  0  0  0  0  0  0  0  0  0  0
    1.2460    1.7450   -0.2260 N   0  0  0  0  0  0  0  0  0  0  0  0
    2.5410    1.6200   -0.3110 C   0  0  0  0  0  0  0  0  0  0  0  0
    3.8790    2.8300   -0.8110 S   0  0  0  0  0  0  0  0  0  0  0  0
    5.1960    1.6570   -0.6110 C   0  0  0  0  0  0  0  0  0  0  0  0
    6.5030    1.4240   -0.6910 O   0  0  0  0  0  0  0  0  0  0  0  0
    6.7450    0.2200   -0.3600 N   0  0  0  0  0  0  0  0  0  0  0  0
    5.5940   -0.4130   -0.0460 C   0  0  0  0  0  0  0  0  0  0  0  0
    5.5310   -1.8350    0.3810 C   0  0  0  0  0  0  0  0  0  0  0  0
    4.5550    0.5190   -0.2040 C   0  0  0  0  0  0  0  0  0  0  0  0
    3.2110    0.6140   -0.0880 C   0  0  0  0  0  0  0  0  0  0  0  0
    1.8260   -0.5520    0.3690 S   0  0  0  0  0  0  0  0  0  0  0  0
   -1.6950    1.5890    0.3990 C   0  0  0  0  0  0  0  0  0  0  0  0
   -1.0850    2.8080    0.6030 O   0  0  0  0  0  0  0  0  0  0  0  0
   -3.0940    1.4500    0.4250 C   0  0  0  0  0  0  0  0  0  0  0  0
   -3.6360    0.2240    0.2050 C   0  0  0  0  0  0  0  0  0  0  0  0
   -5.0680    0.0470   -0.0840 C   0  0  0  0  0  0  0  0  0  0  0  0
   -6.1060   -0.4230    1.3330 S   0  0  0  0  0  0  0  0  0  0  0  0
  1  2  1  0
  2  3  2  0
  2 20  1  0
  3  4  1  0
  4  5  1  0
  4 17  2  0
  5  6  2  0
  5 16  1  0
  6  7  1  0
  7  8  1  0
  7 15  2  0
  8  9  1  0
  9 10  1  0
  9 14  2  0
 10 11  1  0
 11 12  2  0
 12 13  1  0
 12 14  1  0
 14 15  1  0
 15 16  1  0
 17 18  1  0
 17 19  1  0
 19 20  2  0
 20 21  1  0
 21 22  1  0
M  END
