
     RDKit          3D

 23 25  0  0  0  0  0  0  0  0999 V2000
   -6.7480    0.9460   -2.0200 C   0  0  0  0  0  0  0  0  0  0  0  0
   -5.8480    0.4880   -0.9160 C   0  0  0  0  0  0  0  0  0  0  0  0
   -4.6160   -0.0690   -0.9910 C   0  0  0  0  0  0  0  0  0  0  0  0
   -3.9920   -0.4030    0.1580 C   0  0  0  0  0  0  0  0  0  0  0  0
   -2.6770   -0.9980    0.0790 O   0  0  0  0  0  0  0  0  0  0  0  0
   -1.5770   -0.1750    0.0910 C   0  0  0  0  0  0  0  0  0  0  0  0
   -1.7390    1.0450    0.1680 O   0  0  0  0  0  0  0  0  0  0  0  0
   -0.2100   -0.6940    0.0150 C   0  0  0  0  0  0  0  0  0  0  0  0
    0.9760   -0.0350    0.0150 C   0  0  0  0  0  0  0  0  0  0  0  0
    2.1080   -0.7070   -0.0630 C   0  0  0  0  0  0  0  0  0  0  0  0
    3.4690   -0.0550   -0.0690 C   0  0  0  0  0  0  0  0  0  0  0  0
    3.7180    1.2610    0.0000 N   0  0  0  0  0  0  0  0  0  0  0  0
    5.0310    1.5110   -0.0290 C   0  0  0  0  0  0  0  0  0  0  0  0
    5.8150    3.1330    0.0410 S   0  0  0  0  0  0  0  0  0  0  0  0
    7.8790    2.9320   -0.0390 Cl  0  0  0  0  0  0  0  0  0  0  0  0
    5.6420    0.2870   -0.1210 C   0  0  0  0  0  0  0  0  0  0  0  0
    7.0740    0.0070   -0.1850 C   0  0  0  0  0  0  0  0  0  0  0  0
    4.6550   -0.6460   -0.1430 N   0  0  0  0  0  0  0  0  0  0  0  0
    2.0580   -2.0840   -0.1420 C   0  0  0  0  0  0  0  0  0  0  0  0
    0.2700   -2.3710   -0.1000 S   0  0  0  0  0  0  0  0  0  0  0  0
   -4.5630   -0.1950    1.3320 C   0  0  0  0  0  0  0  0  0  0  0  0
   -4.2060   -0.4180    2.7470 C   0  0  0  0  0  0  0  0  0  0  0  0
   -6.1790    0.5640    0.8100 S   0  0  0  0  0  0  0  0  0  0  0  0
  1  2  1  0
  2  3  2  0
  2 23  1  0
  3  4  1  0
  4  5  1  0
  4 21  2  0
  5  6  1  0
  6  7  2  0
  6  8  1  0
  8  9  2  0
  8 20  1  0
  9 10  1  0
 10 11  1  0
 10 19  2  0
 11 12  2  0
 11 18  1  0
 12 13  1  0
 13 14  1  0
 13 16  2  0
 14 15  1  0
 16 17  1  0
 16 18  1  0
 19 20  1  0
 21 22  1  0
 21 23  1  0
M  END
