
     RDKit          3D

 23 26  0  0  0  0  0  0  0  0999 V2000
   -1.3090    0.5970   -0.7080 O   0  0  0  0  0  0  0  0  0  0  0  0
   -1.6800    1.0620    0.3510 C   0  0  0  0  0  0  0  0  0  0  0  0
   -0.7430    1.8540    1.1620 C   0  0  0  0  0  0  0  0  0  0  0  0
    0.5760    1.9390    0.4760 C   0  0  0  0  0  0  0  0  0  0  0  0
    0.9730    2.8780   -0.4010 N   0  0  0  0  0  0  0  0  0  0  0  0
    2.2070    2.5840   -0.7690 N   0  0  0  0  0  0  0  0  0  0  0  0
    2.5770    1.4820   -0.1360 C   0  0  0  0  0  0  0  0  0  0  0  0
    3.8840    0.8310   -0.2780 C   0  0  0  0  0  0  0  0  0  0  0  0
    4.9400    1.2100   -1.0550 C   0  0  0  0  0  0  0  0  0  0  0  0
    6.0660    0.4010   -0.9950 C   0  0  0  0  0  0  0  0  0  0  0  0
    7.3690    0.6130   -1.7670 C   0  0  0  0  0  0  0  0  0  0  0  0
    8.3500   -0.7800   -1.2090 S   0  0  0  0  0  0  0  0  0  0  0  0
    7.1650   -1.4650   -0.1460 C   0  0  0  0  0  0  0  0  0  0  0  0
    7.3310   -2.9180    0.8410 Cl  0  0  0  0  0  0  0  0  0  0  0  0
    6.1180   -0.6000   -0.2850 C   0  0  0  0  0  0  0  0  0  0  0  0
    4.4250   -0.6100    0.5240 S   0  0  0  0  0  0  0  0  0  0  0  0
    1.5940    1.1040    0.6060 O   0  0  0  0  0  0  0  0  0  0  0  0
   -3.3450    0.7700    0.8890 S   0  0  0  0  0  0  0  0  0  0  0  0
   -4.2840   -0.2250   -0.2790 C   0  0  2  0  0  0  0  0  0  0  0  0
   -5.6840   -0.4230    0.2570 C   0  0  0  0  0  0  0  0  0  0  0  0
   -5.5110   -1.5500    1.2590 C   0  0  0  0  0  0  0  0  0  0  0  0
   -4.2760   -2.3120    0.8240 C   0  0  0  0  0  0  0  0  0  0  0  0
   -3.7700   -1.6310   -0.4100 C   0  0  0  0  0  0  0  0  0  0  0  0
  1  2  2  0
  2  3  1  0
  2 18  1  0
  3  4  1  0
  4  5  2  0
  4 17  1  0
  5  6  1  0
  6  7  2  0
  7  8  1  0
  7 17  1  0
  8  9  2  0
  8 16  1  0
  9 10  1  0
 10 11  2  0
 10 15  1  0
 11 12  1  0
 12 13  1  0
 13 14  1  0
 13 15  2  0
 15 16  1  0
 19 18  1  1
 19 20  1  0
 19 23  1  0
 20 21  1  0
 21 22  1  0
 22 23  1  0
M  END
