
     RDKit          3D

 23 25  0  0  0  0  0  0  0  0999 V2000
   -1.7810   -4.0550    0.3830 C   0  0  0  0  0  0  0  0  0  0  0  0
   -2.7610   -3.1560    0.8250 N   0  0  0  0  0  0  0  0  0  0  0  0
   -2.9670   -1.9290    0.7440 C   0  0  0  0  0  0  0  0  0  0  0  0
   -4.3980   -1.0640    1.4640 S   0  0  0  0  0  0  0  0  0  0  0  0
   -3.9200    0.5810    0.8990 C   0  0  0  0  0  0  0  0  0  0  0  0
   -4.4490    1.8080    1.0140 N   0  0  0  0  0  0  0  0  0  0  0  0
   -4.0470    2.7950    0.6050 C   0  0  0  0  0  0  0  0  0  0  0  0
   -4.3590    4.2410    0.5520 C   0  0  0  0  0  0  0  0  0  0  0  0
   -2.4770    2.1380   -0.2340 S   0  0  0  0  0  0  0  0  0  0  0  0
   -2.8090    0.4410    0.2510 C   0  0  0  0  0  0  0  0  0  0  0  0
   -2.2030   -0.8720    0.1050 C   0  0  0  0  0  0  0  0  0  0  0  0
   -1.0670   -1.0690   -0.5500 C   0  0  0  0  0  0  0  0  0  0  0  0
   -0.1840    0.2590   -1.3060 S   0  0  0  0  0  0  0  0  0  0  0  0
    1.5640   -0.0310   -1.2460 C   0  0  0  0  0  0  0  0  0  0  0  0
    2.3210    0.4060   -0.1860 C   0  0  0  0  0  0  0  0  0  0  0  0
    3.6780    0.1790   -0.1430 C   0  0  0  0  0  0  0  0  0  0  0  0
    4.4310    0.6210    0.9240 O   0  0  0  0  0  0  0  0  0  0  0  0
    3.8890    1.3180    2.0220 C   0  0  0  0  0  0  0  0  0  0  0  0
    4.2770   -0.4960   -1.1810 C   0  0  0  0  0  0  0  0  0  0  0  0
    5.6270   -0.7070   -1.1090 O   0  0  0  0  0  0  0  0  0  0  0  0
    3.5420   -0.9490   -2.2630 C   0  0  0  0  0  0  0  0  0  0  0  0
    2.1840   -0.7040   -2.2720 C   0  0  0  0  0  0  0  0  0  0  0  0
    1.2280   -1.2700   -3.6360 Cl  0  0  0  0  0  0  0  0  0  0  0  0
  1  2  1  0
  2  3  2  3
  3  4  1  0
  3 11  1  0
  4  5  1  0
  5  6  1  0
  5 10  2  0
  6  7  2  0
  7  8  1  0
  7  9  1  0
  9 10  1  0
 10 11  1  0
 11 12  2  3
 12 13  1  0
 13 14  1  0
 14 15  2  0
 14 22  1  0
 15 16  1  0
 16 17  1  0
 16 19  2  0
 17 18  1  0
 19 20  1  0
 19 21  1  0
 21 22  2  0
 22 23  1  0
M  END
