
     RDKit          3D

 23 26  0  0  0  0  0  0  0  0999 V2000
   -3.5450   -0.9580    0.9230 C   0  0  0  0  0  0  0  0  0  0  0  0
   -4.3180   -0.4210   -0.2900 C   0  0  1  0  0  0  0  0  0  0  0  0
   -4.6890    1.0010    0.0780 C   0  0  0  0  0  0  0  0  0  0  0  0
   -3.2300   -0.5000   -1.7310 S   0  0  0  0  0  0  0  0  0  0  0  0
   -1.8650    0.6130   -1.6120 C   0  0  0  0  0  0  0  0  0  0  0  0
   -2.0210    1.9000   -2.1290 C   0  0  0  0  0  0  0  0  0  0  0  0
   -3.5240    2.4110   -2.8900 Cl  0  0  0  0  0  0  0  0  0  0  0  0
   -0.9540    2.7700   -2.0300 C   0  0  0  0  0  0  0  0  0  0  0  0
    0.2340    2.3470   -1.4250 C   0  0  0  0  0  0  0  0  0  0  0  0
    0.3420    1.0660   -0.9290 C   0  0  0  0  0  0  0  0  0  0  0  0
   -0.7160    0.1900   -1.0220 C   0  0  0  0  0  0  0  0  0  0  0  0
   -0.4980   -1.0200   -0.5040 N   0  0  0  0  0  0  0  0  0  0  0  0
    0.6340   -1.4070    0.0700 C   0  0  0  0  0  0  0  0  0  0  0  0
    1.7690   -0.5590    0.2030 C   0  0  0  0  0  0  0  0  0  0  0  0
    2.9990   -0.7770    0.7540 C   0  0  0  0  0  0  0  0  0  0  0  0
    3.9030    0.2620    0.7270 C   0  0  0  0  0  0  0  0  0  0  0  0
    3.0000    1.5530   -0.0820 S   0  0  0  0  0  0  0  0  0  0  0  0
    1.5380    0.6770   -0.3290 C   0  0  0  0  0  0  0  0  0  0  0  0
    5.4210   -0.2830    1.4620 S   0  0  2  0  0  0  0  0  0  0  0  0
    5.3980    0.0440    2.8860 O   0  0  0  0  0  0  0  0  0  0  0  0
    6.6080    0.1590    0.7020 O   0  0  0  0  0  0  0  0  0  0  0  0
    5.0330   -2.0260    1.1450 C   0  0  0  0  0  0  0  0  0  0  0  0
    3.6210   -1.9080    1.4340 N   0  0  0  0  0  0  0  0  0  0  0  0
  2  1  1  1
  2  3  1  0
  2  4  1  0
  4  5  1  0
  5  6  2  0
  5 11  1  0
  6  7  1  0
  6  8  1  0
  8  9  2  0
  9 10  1  0
 10 11  2  0
 10 18  1  0
 11 12  1  0
 12 13  2  0
 13 14  1  0
 14 15  1  0
 14 18  2  0
 15 16  2  0
 15 23  1  0
 16 17  1  0
 16 19  1  0
 17 18  1  0
 19 20  2  0
 19 21  2  0
 19 22  1  1
 22 23  1  0
M  END
