
     RDKit          3D

 23 25  0  0  0  0  0  0  0  0999 V2000
    6.0990    0.9050    0.1910 C   0  0  0  0  0  0  0  0  0  0  0  0
    4.8130    0.1630    0.0710 C   0  0  0  0  0  0  0  0  0  0  0  0
    3.5310    0.6380    0.1140 C   0  0  0  0  0  0  0  0  0  0  0  0
    2.5260   -0.2500   -0.0210 C   0  0  0  0  0  0  0  0  0  0  0  0
    1.0890    0.1790    0.0170 C   0  0  0  0  0  0  0  0  0  0  0  0
    0.4000   -0.2540   -1.0480 N   0  0  0  0  0  0  0  0  0  0  0  0
   -0.9190   -0.0410   -1.2730 C   0  0  0  0  0  0  0  0  0  0  0  0
   -1.6760    0.9920   -0.7530 C   0  0  0  0  0  0  0  0  0  0  0  0
   -3.2510    1.2800   -1.5340 S   0  0  0  0  0  0  0  0  0  0  0  0
   -4.4810    0.2600   -0.6170 C   0  0  0  0  0  0  0  0  0  0  0  0
   -5.2350    0.6550    0.5030 C   0  0  0  0  0  0  0  0  0  0  0  0
   -6.0640   -0.2210    1.0190 C   0  0  0  0  0  0  0  0  0  0  0  0
   -6.2110   -1.4930    0.5010 C   0  0  0  0  0  0  0  0  0  0  0  0
   -7.1530   -2.8650    0.8800 Cl  0  0  0  0  0  0  0  0  0  0  0  0
   -4.9860   -1.3800   -0.9070 S   0  0  0  0  0  0  0  0  0  0  0  0
   -1.3970    1.8450    0.2960 C   0  0  0  0  0  0  0  0  0  0  0  0
   -2.1160    2.8530    0.4030 O   0  0  0  0  0  0  0  0  0  0  0  0
   -0.4110    1.7060    1.2370 N   0  0  0  0  0  0  0  0  0  0  0  0
    0.6800    0.9290    1.0890 C   0  0  0  0  0  0  0  0  0  0  0  0
    1.4220    0.8940    2.0800 O   0  0  0  0  0  0  0  0  0  0  0  0
    2.8260   -1.5610   -0.1920 C   0  0  0  0  0  0  0  0  0  0  0  0
    1.9430   -2.7390   -0.3650 C   0  0  0  0  0  0  0  0  0  0  0  0
    4.6020   -1.5680   -0.1650 S   0  0  0  0  0  0  0  0  0  0  0  0
  1  2  1  0
  2  3  2  0
  2 23  1  0
  3  4  1  0
  4  5  1  0
  4 21  2  0
  5  6  2  0
  5 19  1  0
  6  7  1  0
  7  8  2  0
  8  9  1  0
  8 16  1  0
  9 10  1  0
 10 11  2  0
 10 15  1  0
 11 12  1  0
 12 13  2  0
 13 14  1  0
 13 15  1  0
 16 17  2  0
 16 18  1  0
 18 19  1  0
 19 20  2  0
 21 22  1  0
 21 23  1  0
M  END
