
     RDKit          3D

 33 35  0  0  0  0  0  0  0  0999 V2000
    9.6330   -2.6930    1.4350 O   0  0  0  0  0  0  0  0  0  0  0  0
   10.5440   -2.0810    0.8130 C   0  0  0  0  0  0  0  0  0  0  0  0
   10.2790   -0.8300    0.2300 N   0  0  0  0  0  0  0  0  0  0  0  0
    9.0480   -0.1470    0.2610 C   0  0  0  0  0  0  0  0  0  0  0  0
    9.0540    1.1390   -0.2980 C   0  0  0  0  0  0  0  0  0  0  0  0
    7.8780    1.8620   -0.3250 C   0  0  0  0  0  0  0  0  0  0  0  0
    6.6910    1.3820    0.1730 C   0  0  0  0  0  0  0  0  0  0  0  0
    5.5260    2.1720    0.1100 N   0  0  0  0  0  0  0  0  0  0  0  0
    4.3080    1.5360   -0.1760 C   0  0  0  0  0  0  0  0  0  0  0  0
    4.3140    0.2800   -0.3710 O   0  0  0  0  0  0  0  0  0  0  0  0
    3.0230    2.1760   -0.2800 N   0  0  0  0  0  0  0  0  0  0  0  0
    1.9060    1.4140   -0.5940 N   0  0  0  0  0  0  0  0  0  0  0  0
    0.6710    1.4070    0.0390 C   0  0  0  0  0  0  0  0  0  0  0  0
    0.4660    2.1690    1.0220 O   0  0  0  0  0  0  0  0  0  0  0  0
   -0.3910    0.5200   -0.4300 C   0  0  0  0  0  0  0  0  0  0  0  0
   -0.3090   -0.2860   -1.5600 C   0  0  0  0  0  0  0  0  0  0  0  0
   -1.4420   -0.9880   -1.6880 N   0  0  0  0  0  0  0  0  0  0  0  0
   -2.2880   -0.6790   -0.6760 C   0  0  0  0  0  0  0  0  0  0  0  0
   -3.5670   -1.2970   -0.5120 C   0  0  0  0  0  0  0  0  0  0  0  0
   -3.8450   -2.3160   -1.2480 O   0  0  0  0  0  0  0  0  0  0  0  0
   -4.6050   -0.9270    0.3820 N   0  0  0  0  0  0  0  0  0  0  0  0
   -5.8680   -1.6530    0.4430 C   0  0  0  0  0  0  0  0  0  0  0  0
   -6.6170   -1.6290   -0.8670 C   0  0  1  0  0  0  0  0  0  0  0  0
   -7.7810   -2.4060   -0.6670 O   0  0  0  0  0  0  0  0  0  0  0  0
   -7.0960   -0.2360   -1.2510 C   0  0  0  0  0  0  0  0  0  0  0  0
   -8.0010    0.2060   -0.2120 N   0  0  0  0  0  0  0  0  0  0  0  0
   -7.6760    0.8860    0.8880 C   0  0  0  0  0  0  0  0  0  0  0  0
   -8.8260    1.1310    1.6380 C   0  0  0  0  0  0  0  0  0  0  0  0
   -9.8510    0.5620    0.9280 C   0  0  0  0  0  0  0  0  0  0  0  0
   -9.3120    0.0150   -0.1800 N   0  0  0  0  0  0  0  0  0  0  0  0
   -1.6420    0.2520    0.1020 C   0  0  0  0  0  0  0  0  0  0  0  0
    6.6990    0.1250    0.7200 C   0  0  0  0  0  0  0  0  0  0  0  0
    7.8790   -0.6190    0.7540 C   0  0  0  0  0  0  0  0  0  0  0  0
  1  2  2  0
  2  3  1  0
  3  4  1  0
  4  5  2  0
  4 33  1  0
  5  6  1  0
  6  7  2  0
  7  8  1  0
  7 32  1  0
  8  9  1  0
  9 10  2  0
  9 11  1  0
 11 12  1  0
 12 13  1  0
 13 14  2  0
 13 15  1  0
 15 16  2  0
 15 31  1  0
 16 17  1  0
 17 18  1  0
 18 19  1  0
 18 31  2  0
 19 20  2  0
 19 21  1  0
 21 22  1  0
 22 23  1  0
 23 24  1  1
 23 25  1  0
 25 26  1  0
 26 27  1  0
 26 30  1  0
 27 28  2  0
 28 29  1  0
 29 30  2  0
 32 33  2  0
M  END
