
     RDKit          3D

 33 35  0  0  0  0  0  0  0  0999 V2000
   -7.2820   -1.8750    2.8550 N   0  0  0  0  0  0  0  0  0  0  0  0
   -6.4710   -1.3420    2.2440 C   0  0  0  0  0  0  0  0  0  0  0  0
   -5.4590   -0.6530    1.4530 C   0  0  0  0  0  0  0  0  0  0  0  0
   -4.3600   -0.0790    1.9370 N   0  0  0  0  0  0  0  0  0  0  0  0
   -3.6540    0.4320    0.8900 C   0  0  0  0  0  0  0  0  0  0  0  0
   -2.4110    1.0260    1.0440 N   0  0  0  0  0  0  0  0  0  0  0  0
   -1.4470    0.0630    0.9180 C   0  0  0  0  0  0  0  0  0  0  0  0
   -1.9060   -1.2480    0.6650 C   0  0  0  0  0  0  0  0  0  0  0  0
   -1.6890   -2.1540    1.8160 N   0  0  0  0  0  0  0  0  0  0  0  0
   -2.0260   -3.5140    1.6220 C   0  0  0  0  0  0  0  0  0  0  0  0
   -1.8830   -4.4950    2.6170 N   0  0  0  0  0  0  0  0  0  0  0  0
   -2.4730   -3.7540    0.4390 O   0  0  0  0  0  0  0  0  0  0  0  0
   -0.3100    0.8310    1.1010 N   0  0  0  0  0  0  0  0  0  0  0  0
    0.9310    0.2970    1.3400 C   0  0  0  0  0  0  0  0  0  0  0  0
    0.8340   -0.9360    1.3990 O   0  0  0  0  0  0  0  0  0  0  0  0
    2.0680    1.0590    1.5030 N   0  0  0  0  0  0  0  0  0  0  0  0
    3.2960    0.4750    1.8960 C   0  0  0  0  0  0  0  0  0  0  0  0
    4.3740    1.5080    2.0080 C   0  0  0  0  0  0  0  0  0  0  0  0
    4.6930    2.1800    0.8120 O   0  0  0  0  0  0  0  0  0  0  0  0
    5.2080    1.5030   -0.2890 C   0  0  0  0  0  0  0  0  0  0  0  0
    5.8150    0.3480   -0.1860 C   0  0  0  0  0  0  0  0  0  0  0  0
    6.3840   -0.4230   -1.3180 C   0  0  0  0  0  0  0  0  0  0  0  0
    6.2300    0.1950   -2.5560 O   0  0  0  0  0  0  0  0  0  0  0  0
    5.5900    1.4150   -2.6820 C   0  0  0  0  0  0  0  0  0  0  0  0
    5.0890    2.0790   -1.6570 C   0  0  0  0  0  0  0  0  0  0  0  0
    4.4550    3.2960   -1.8260 O   0  0  0  0  0  0  0  0  0  0  0  0
   -4.3190    0.1750   -0.2690 C   0  0  0  0  0  0  0  0  0  0  0  0
   -3.9230    0.5380   -1.6540 C   0  0  0  0  0  0  0  0  0  0  0  0
   -2.8760    1.2070   -2.0400 C   0  0  0  0  0  0  0  0  0  0  0  0
   -2.8950    1.3230   -3.5210 C   0  0  0  0  0  0  0  0  0  0  0  0
   -4.1310    0.6040   -3.9170 C   0  0  0  0  0  0  0  0  0  0  0  0
   -4.6940    0.1680   -2.8310 C   0  0  0  0  0  0  0  0  0  0  0  0
   -5.4300   -0.4960    0.1110 N   0  0  0  0  0  0  0  0  0  0  0  0
  1  2  3  0
  2  3  1  0
  3  4  2  0
  3 33  1  0
  4  5  1  0
  5  6  1  0
  5 27  2  0
  6  7  2  3
  7  8  1  0
  7 13  1  0
  8  9  1  0
  9 10  1  0
 10 11  1  0
 10 12  2  0
 13 14  1  0
 14 15  2  0
 14 16  1  0
 16 17  1  0
 17 18  1  0
 18 19  1  0
 19 20  1  0
 20 21  2  0
 20 25  1  0
 21 22  1  0
 22 23  1  0
 23 24  1  0
 24 25  2  0
 25 26  1  0
 27 28  1  0
 27 33  1  0
 28 29  2  0
 28 32  1  0
 29 30  1  0
 30 31  1  0
 31 32  2  0
M  END
