
     RDKit          3D

 33 36  0  0  0  0  0  0  0  0999 V2000
   -0.4020   -3.9000   -0.1470 C   0  0  0  0  0  0  0  0  0  0  0  0
    0.8410   -3.1510    0.2830 C   0  0  0  0  0  0  0  0  0  0  0  0
    1.9690   -3.4510   -0.3330 C   0  0  0  0  0  0  0  0  0  0  0  0
    3.2970   -2.9030   -0.1370 C   0  0  0  0  0  0  0  0  0  0  0  0
    3.8550   -1.8140   -0.6410 C   0  0  0  0  0  0  0  0  0  0  0  0
    5.2640   -1.5680   -0.1980 C   0  0  0  0  0  0  0  0  0  0  0  0
    5.9820   -0.5520   -0.5890 C   0  0  0  0  0  0  0  0  0  0  0  0
    7.3610   -0.3500   -0.1290 C   0  0  0  0  0  0  0  0  0  0  0  0
    7.5470    0.8480    0.5480 O   0  0  0  0  0  0  0  0  0  0  0  0
    3.3620   -0.8850   -1.5570 N   0  0  0  0  0  0  0  0  0  0  0  0
    2.1850   -0.1050   -1.6160 C   0  0  0  0  0  0  0  0  0  0  0  0
    1.4870   -0.1940   -2.6860 O   0  0  0  0  0  0  0  0  0  0  0  0
    1.6540    0.8120   -0.5900 C   0  0  0  0  0  0  0  0  0  0  0  0
    0.2310    0.9960   -0.7130 N   0  0  2  0  0  0  0  0  0  0  0  0
   -0.2580    1.7610    0.4360 C   0  0  1  0  0  0  0  0  0  0  0  0
    0.7340    2.8910    0.7560 C   0  0  0  0  0  0  0  0  0  0  0  0
    0.6690    3.9840   -0.2620 C   0  0  0  0  0  0  0  0  0  0  0  0
   -0.6610    4.6850   -0.0830 C   0  0  0  0  0  0  0  0  0  0  0  0
   -1.5730    3.8570    0.6230 N   0  0  0  0  0  0  0  0  0  0  0  0
   -1.5600    2.4470    0.1920 C   0  0  0  0  0  0  0  0  0  0  0  0
   -0.5310   -0.1050   -1.1110 C   0  0  0  0  0  0  0  0  0  0  0  0
   -1.7140   -0.5170   -0.3330 C   0  0  0  0  0  0  0  0  0  0  0  0
   -2.9440   -0.2060   -0.8610 C   0  0  0  0  0  0  0  0  0  0  0  0
   -4.1550   -0.5140   -0.2780 C   0  0  0  0  0  0  0  0  0  0  0  0
   -5.4450   -0.3030   -0.6250 N   0  0  0  0  0  0  0  0  0  0  0  0
   -6.2720   -0.8080    0.3030 C   0  0  0  0  0  0  0  0  0  0  0  0
   -7.7630   -0.7750    0.2790 C   0  0  0  0  0  0  0  0  0  0  0  0
   -5.4540   -1.3600    1.2730 C   0  0  0  0  0  0  0  0  0  0  0  0
   -4.1330   -1.1820    0.9220 C   0  0  0  0  0  0  0  0  0  0  0  0
   -2.8990   -1.4930    1.4490 C   0  0  0  0  0  0  0  0  0  0  0  0
   -1.6770   -1.1880    0.8690 C   0  0  0  0  0  0  0  0  0  0  0  0
   -0.5540   -1.5630    1.5130 O   0  0  0  0  0  0  0  0  0  0  0  0
    0.6330   -2.1750    1.3610 C   0  0  0  0  0  0  0  0  0  0  0  0
  1  2  1  0
  2  3  2  0
  2 33  1  0
  3  4  1  0
  4  5  2  0
  5  6  1  0
  5 10  1  0
  6  7  2  3
  7  8  1  0
  8  9  1  0
 10 11  1  0
 11 12  2  0
 11 13  1  0
 14 13  1  1
 14 15  1  0
 14 21  1  0
 15 16  1  6
 15 20  1  0
 16 17  1  0
 17 18  1  0
 18 19  1  0
 19 20  1  0
 21 22  1  0
 22 23  2  0
 22 31  1  0
 23 24  1  0
 24 25  1  0
 24 29  2  0
 25 26  1  0
 26 27  1  0
 26 28  2  0
 28 29  1  0
 29 30  1  0
 30 31  2  0
 31 32  1  0
 32 33  1  0
M  CHG  2  14   1  19   1
M  END
