
     RDKit          3D

 33 36  0  0  0  0  0  0  0  0999 V2000
   -5.2840    2.1480    1.5350 C   0  0  0  0  0  0  0  0  0  0  0  0
   -4.0510    1.3650    1.5860 C   0  0  0  0  0  0  0  0  0  0  0  0
   -3.1090    1.4890    2.6080 C   0  0  0  0  0  0  0  0  0  0  0  0
   -1.9830    0.7270    2.6380 C   0  0  0  0  0  0  0  0  0  0  0  0
   -1.7670   -0.1730    1.6470 C   0  0  0  0  0  0  0  0  0  0  0  0
   -2.6940   -0.3030    0.6240 C   0  0  0  0  0  0  0  0  0  0  0  0
   -3.8670    0.4570    0.5600 C   0  0  0  0  0  0  0  0  0  0  0  0
   -4.9120    0.1720   -0.4070 C   0  0  0  0  0  0  0  0  0  0  0  0
   -4.6850   -0.8770   -1.2060 C   0  0  0  0  0  0  0  0  0  0  0  0
   -5.7860   -1.1590   -2.2220 C   0  0  0  0  0  0  0  0  0  0  0  0
   -7.0810   -1.2230   -1.4820 C   0  0  0  0  0  0  0  0  0  0  0  0
   -7.2650   -0.1090   -0.4440 C   0  0  0  0  0  0  0  0  0  0  0  0
   -6.1310    0.8920   -0.6240 C   0  0  0  0  0  0  0  0  0  0  0  0
   -3.5310   -1.7960   -1.1090 C   0  0  0  0  0  0  0  0  0  0  0  0
   -2.3900   -1.1690   -0.4490 N   0  0  0  0  0  0  0  0  0  0  0  0
   -1.1150   -1.3810   -0.9450 C   0  0  0  0  0  0  0  0  0  0  0  0
   -0.9930   -2.4880   -1.6380 O   0  0  0  0  0  0  0  0  0  0  0  0
    0.1290   -0.6240   -0.8630 C   0  0  1  0  0  0  0  0  0  0  0  0
    0.1110    0.7960   -0.4890 C   0  0  0  0  0  0  0  0  0  0  0  0
    1.2270   -1.4220   -0.3520 N   0  0  0  0  0  0  0  0  0  0  0  0
    2.4600   -0.7220   -0.2840 C   0  0  1  0  0  0  0  0  0  0  0  0
    3.1710   -1.0490    0.9990 C   0  0  0  0  0  0  0  0  0  0  0  0
    2.3680   -0.6570    2.2070 C   0  0  0  0  0  0  0  0  0  0  0  0
    3.0910   -0.9840    3.3810 O   0  0  0  0  0  0  0  0  0  0  0  0
    3.3380   -1.0580   -1.4720 C   0  0  0  0  0  0  0  0  0  0  0  0
    4.6040   -0.3540   -1.4240 N   0  0  0  0  0  0  0  0  0  0  0  0
    4.8420    0.9490   -2.0000 C   0  0  0  0  0  0  0  0  0  0  0  0
    5.9810    1.4780   -1.2740 N   0  0  1  0  0  0  0  0  0  0  0  0
    5.5980    2.3710   -0.2100 C   0  0  0  0  0  0  0  0  0  0  0  0
    6.7570    0.3610   -0.8510 C   0  0  1  0  0  0  0  0  0  0  0  0
    7.2420    0.5370    0.5960 C   0  0  0  0  0  0  0  0  0  0  0  0
    5.8140   -0.7700   -0.8320 C   0  0  0  0  0  0  0  0  0  0  0  0
    6.0220   -1.9470   -0.3640 O   0  0  0  0  0  0  0  0  0  0  0  0
  1  2  1  0
  2  3  2  0
  2  7  1  0
  3  4  1  0
  4  5  2  0
  5  6  1  0
  6  7  2  0
  6 15  1  0
  7  8  1  0
  8  9  2  0
  8 13  1  0
  9 10  1  0
  9 14  1  0
 10 11  1  0
 11 12  1  0
 12 13  1  0
 14 15  1  0
 15 16  1  0
 16 17  2  0
 16 18  1  0
 18 19  1  1
 18 20  1  0
 20 21  1  0
 21 22  1  1
 21 25  1  0
 22 23  1  0
 23 24  1  0
 25 26  1  0
 26 27  1  0
 26 32  1  0
 27 28  1  0
 28 29  1  1
 28 30  1  0
 30 31  1  1
 30 32  1  0
 32 33  2  0
M  CHG  2  20   1  28   1
M  END
