
     RDKit          3D

 33 35  0  0  0  0  0  0  0  0999 V2000
    7.2690    0.7780   -2.7670 C   0  0  0  0  0  0  0  0  0  0  0  0
    7.7710    0.0100   -1.6630 N   0  0  0  0  0  0  0  0  0  0  0  0
    6.9470   -0.2060   -0.5290 C   0  0  0  0  0  0  0  0  0  0  0  0
    5.6520    0.3290   -0.5020 C   0  0  0  0  0  0  0  0  0  0  0  0
    4.8110    0.1560    0.5610 C   0  0  0  0  0  0  0  0  0  0  0  0
    3.4890    0.6400    0.6820 N   0  0  0  0  0  0  0  0  0  0  0  0
    2.7140    1.2160   -0.3410 C   0  0  0  0  0  0  0  0  0  0  0  0
    3.1620    1.3430   -1.5010 O   0  0  0  0  0  0  0  0  0  0  0  0
    1.3080    1.7040   -0.0780 C   0  0  0  0  0  0  0  0  0  0  0  0
    0.3230    0.6900   -0.2750 N   0  0  0  0  0  0  0  0  0  0  0  0
   -0.3260    0.4130   -1.4340 C   0  0  0  0  0  0  0  0  0  0  0  0
   -1.1550   -0.5990   -1.1580 N   0  0  0  0  0  0  0  0  0  0  0  0
   -1.0580   -0.9720    0.1250 C   0  0  0  0  0  0  0  0  0  0  0  0
   -1.8270   -2.0630    0.8270 C   0  0  0  0  0  0  0  0  0  0  0  0
   -2.9580   -1.3970    1.4530 N   0  0  0  0  0  0  0  0  0  0  0  0
   -4.0440   -1.0040    0.6230 C   0  0  0  0  0  0  0  0  0  0  0  0
   -4.0040   -1.2430   -0.6160 O   0  0  0  0  0  0  0  0  0  0  0  0
   -5.1320   -0.3500    1.2600 N   0  0  0  0  0  0  0  0  0  0  0  0
   -6.2520    0.0710    0.4780 C   0  0  2  0  0  0  0  0  0  0  0  0
   -7.2990    0.7600    1.3580 C   0  0  0  0  0  0  0  0  0  0  0  0
   -6.6990    1.9380    2.0000 C   0  0  0  0  0  0  0  0  0  0  0  0
   -6.5340    2.9710    1.3740 O   0  0  0  0  0  0  0  0  0  0  0  0
   -6.9750   -1.0810   -0.1990 C   0  0  0  0  0  0  0  0  0  0  0  0
   -7.6050   -0.3870   -1.3420 C   0  0  0  0  0  0  0  0  0  0  0  0
   -8.6600   -0.7760   -1.9040 O   0  0  0  0  0  0  0  0  0  0  0  0
   -6.8200    0.7540   -1.6670 N   0  0  0  0  0  0  0  0  0  0  0  0
   -5.8230    0.9380   -0.6420 C   0  0  0  0  0  0  0  0  0  0  0  0
   -4.8060    1.6620   -0.6560 O   0  0  0  0  0  0  0  0  0  0  0  0
   -0.1100   -0.1450    0.6900 C   0  0  0  0  0  0  0  0  0  0  0  0
    5.3290   -0.5900    1.6180 C   0  0  0  0  0  0  0  0  0  0  0  0
    6.6000   -1.1200    1.6030 C   0  0  0  0  0  0  0  0  0  0  0  0
    7.4400   -0.9400    0.5250 C   0  0  0  0  0  0  0  0  0  0  0  0
    8.7560   -1.4770    0.4900 N   0  0  0  0  0  0  0  0  0  0  0  0
  1  2  1  0
  2  3  1  0
  3  4  2  0
  3 32  1  0
  4  5  1  0
  5  6  1  0
  5 30  2  0
  6  7  1  0
  7  8  2  0
  7  9  1  0
  9 10  1  0
 10 11  1  0
 10 29  1  0
 11 12  2  0
 12 13  1  0
 13 14  1  0
 13 29  2  0
 14 15  1  0
 15 16  1  0
 16 17  2  0
 16 18  1  0
 18 19  1  0
 19 20  1  1
 19 23  1  0
 19 27  1  0
 20 21  1  0
 21 22  2  0
 23 24  1  0
 24 25  2  0
 24 26  1  0
 26 27  1  0
 27 28  2  0
 30 31  1  0
 31 32  2  0
 32 33  1  0
M  END
