
     RDKit          3D

 33 35  0  0  0  0  0  0  0  0999 V2000
   -7.3110    2.9790    3.0810 C   0  0  0  0  0  0  0  0  0  0  0  0
   -6.5250    2.5210    2.0880 C   0  0  0  0  0  0  0  0  0  0  0  0
   -5.2930    1.8540    2.3720 C   0  0  0  0  0  0  0  0  0  0  0  0
   -4.4020    1.3690    1.5840 C   0  0  0  0  0  0  0  0  0  0  0  0
   -3.2220    0.7110    2.2430 C   0  0  0  0  0  0  0  0  0  0  0  0
   -2.3920   -0.0190    1.3070 N   0  0  1  0  0  0  0  0  0  0  0  0
   -1.2210   -0.5060    1.9990 C   0  0  0  0  0  0  0  0  0  0  0  0
    0.0920   -0.1070    1.3380 C   0  0  1  0  0  0  0  0  0  0  0  0
    1.1790   -0.6970    2.2160 C   0  0  0  0  0  0  0  0  0  0  0  0
    0.1010   -0.6330    0.0190 N   0  0  0  0  0  0  0  0  0  0  0  0
    1.1700   -0.2900   -0.8490 C   0  0  1  0  0  0  0  0  0  0  0  0
    1.8710    0.9970   -0.6170 C   0  0  0  0  0  0  0  0  0  0  0  0
    2.1360   -1.4800   -1.0180 C   0  0  0  0  0  0  0  0  0  0  0  0
    3.2460   -1.1690   -1.9100 C   0  0  0  0  0  0  0  0  0  0  0  0
    2.9880   -1.0690   -3.1510 O   0  0  0  0  0  0  0  0  0  0  0  0
    4.5530   -0.9820   -1.4670 N   0  0  0  0  0  0  0  0  0  0  0  0
    4.9020   -1.0680   -0.0790 C   0  0  0  0  0  0  0  0  0  0  0  0
    6.0010   -0.1050    0.3120 C   0  0  0  0  0  0  0  0  0  0  0  0
    7.1010   -0.2410   -0.5960 N   0  0  0  0  0  0  0  0  0  0  0  0
    8.3190    0.4200   -0.3230 C   0  0  0  0  0  0  0  0  0  0  0  0
    9.2910    0.3040   -1.1130 O   0  0  0  0  0  0  0  0  0  0  0  0
    8.5070    1.2170    0.8050 O   0  0  0  0  0  0  0  0  0  0  0  0
    6.9650   -1.0410   -1.7840 C   0  0  0  0  0  0  0  0  0  0  0  0
    5.6320   -0.6960   -2.4260 C   0  0  0  0  0  0  0  0  0  0  0  0
   -3.0570   -1.1960    0.7280 C   0  0  0  0  0  0  0  0  0  0  0  0
   -3.6850   -0.8430   -0.5830 C   0  0  0  0  0  0  0  0  0  0  0  0
   -3.7410   -1.7370   -1.5100 C   0  0  0  0  0  0  0  0  0  0  0  0
   -3.1820   -3.1000   -1.2600 C   0  0  0  0  0  0  0  0  0  0  0  0
   -4.2350    0.4810   -0.8590 C   0  0  0  0  0  0  0  0  0  0  0  0
   -4.4770    0.9620   -2.0420 C   0  0  0  0  0  0  0  0  0  0  0  0
   -5.0330    2.3430   -1.9020 C   0  0  0  0  0  0  0  0  0  0  0  0
   -5.0010    2.6070   -0.4260 C   0  0  0  0  0  0  0  0  0  0  0  0
   -4.5730    1.5260    0.1510 C   0  0  0  0  0  0  0  0  0  0  0  0
  1  2  2  0
  2  3  1  0
  3  4  2  3
  4  5  1  0
  4 33  1  0
  5  6  1  0
  6  7  1  1
  6 25  1  0
  7  8  1  0
  8  9  1  1
  8 10  1  0
 10 11  1  0
 11 12  1  1
 11 13  1  0
 13 14  1  0
 14 15  2  0
 14 16  1  0
 16 17  1  0
 16 24  1  0
 17 18  1  0
 18 19  1  0
 19 20  1  0
 19 23  1  0
 20 21  2  0
 20 22  1  0
 23 24  1  0
 25 26  1  0
 26 27  2  3
 26 29  1  0
 27 28  1  0
 29 30  2  0
 29 33  1  0
 30 31  1  0
 31 32  1  0
 32 33  2  0
M  CHG  2   6   1  10   1
M  END
