
     RDKit          3D

 38 39  0  0  0  0  0  0  0  0999 V2000
   -3.9800   -0.7020    1.2330 O   0  0  0  0  0  0  0  0  0  0  0  0
   -3.6160   -1.1350    0.1280 C   0  0  0  0  0  0  0  0  0  0  0  0
   -4.6770   -1.6410   -0.7040 N   0  0  0  0  0  0  0  0  0  0  0  0
   -6.0410   -1.6460   -0.2890 C   0  0  0  0  0  0  0  0  0  0  0  0
   -6.2970   -2.4470    0.9620 C   0  0  0  0  0  0  0  0  0  0  0  0
   -5.8390   -4.2190    0.7810 P   0  0  0  0  0  0  0  0  0  0  0  0
   -4.3420   -4.4570   -0.0370 O   0  0  0  0  0  0  0  0  0  0  0  0
   -5.8440   -4.9710    2.3460 O   0  0  0  0  0  0  0  0  0  0  0  0
   -2.2630   -1.1370   -0.2980 N   0  0  0  0  0  0  0  0  0  0  0  0
   -1.1430   -0.6280    0.4030 C   0  0  0  0  0  0  0  0  0  0  0  0
   -0.9880    0.8240    0.6350 C   0  0  2  0  0  0  0  0  0  0  0  0
   -1.9680    1.4570    1.5610 C   0  0  0  0  0  0  0  0  0  0  0  0
   -1.6060    2.7380    1.9940 O   0  0  0  0  0  0  0  0  0  0  0  0
   -1.4830    3.6920    1.0350 C   0  0  0  0  0  0  0  0  0  0  0  0
   -2.7270    3.9800    0.2340 C   0  0  1  0  0  0  0  0  0  0  0  0
   -3.7760    4.4210    1.0430 O   0  0  0  0  0  0  0  0  0  0  0  0
   -2.3140    5.3890   -0.9270 P   0  0  0  0  0  0  0  0  0  0  0  0
   -3.5540    5.5900   -2.1160 O   0  0  0  0  0  0  0  0  0  0  0  0
   -2.0600    6.8490   -0.0520 O   0  0  0  0  0  0  0  0  0  0  0  0
   -0.9190    1.5260   -0.5780 O   0  0  0  0  0  0  0  0  0  0  0  0
    0.3490    1.1920   -1.1070 C   0  0  0  0  0  0  0  0  0  0  0  0
    1.1940    1.1440    0.1400 C   0  0  2  0  0  0  0  0  0  0  0  0
    1.9110    2.3910    0.1700 O   0  0  0  0  0  0  0  0  0  0  0  0
    3.0660    2.5140   -0.5970 C   0  0  0  0  0  0  0  0  0  0  0  0
    3.6840    3.6070   -0.5290 O   0  0  0  0  0  0  0  0  0  0  0  0
    3.6050    1.4590   -1.4750 C   0  0  0  0  0  0  0  0  0  0  0  0
    3.2430    0.1690   -0.8890 N   0  0  0  0  0  0  0  0  0  0  0  0
    3.9250   -1.0210   -1.3470 C   0  0  0  0  0  0  0  0  0  0  0  0
    5.1580   -1.2570   -0.4970 C   0  0  0  0  0  0  0  0  0  0  0  0
    5.8130   -2.4320   -0.9660 O   0  0  0  0  0  0  0  0  0  0  0  0
    6.9780   -2.8790   -0.3600 C   0  0  0  0  0  0  0  0  0  0  0  0
    7.4480   -2.2300    0.6110 O   0  0  0  0  0  0  0  0  0  0  0  0
    7.6520   -4.0100   -0.7740 O   0  0  0  0  0  0  0  0  0  0  0  0
    8.8450   -4.3950   -0.0900 C   0  0  0  0  0  0  0  0  0  0  0  0
    8.5290   -4.6260    1.2440 O   0  0  0  0  0  0  0  0  0  0  0  0
    2.2270    0.0910    0.1250 C   0  0  0  0  0  0  0  0  0  0  0  0
    2.2990   -0.8730    0.9250 O   0  0  0  0  0  0  0  0  0  0  0  0
    0.3210    1.0620    1.1830 O   0  0  0  0  0  0  0  0  0  0  0  0
  1  2  2  0
  2  3  1  0
  2  9  1  0
  3  4  1  0
  4  5  1  0
  5  6  1  0
  6  7  1  0
  6  8  1  0
  9 10  1  0
 11 10  1  6
 11 12  1  0
 11 20  1  0
 11 38  1  0
 12 13  1  0
 13 14  1  0
 14 15  1  0
 15 16  1  1
 15 17  1  0
 17 18  1  0
 17 19  1  0
 20 21  1  0
 22 21  1  6
 22 23  1  0
 22 36  1  0
 22 38  1  0
 23 24  1  0
 24 25  2  0
 24 26  1  0
 26 27  1  0
 27 28  1  0
 27 36  1  0
 28 29  1  0
 29 30  1  0
 30 31  1  0
 31 32  2  0
 31 33  1  0
 33 34  1  0
 34 35  1  0
 36 37  2  0
M  END
