
     RDKit          3D

 38 39  0  0  0  0  0  0  0  0999 V2000
   -0.6540   -6.2030    2.6210 C   0  0  0  0  0  0  0  0  0  0  0  0
   -0.8820   -4.8240    2.2850 O   0  0  0  0  0  0  0  0  0  0  0  0
    0.0550   -4.1720    1.4380 C   0  0  0  0  0  0  0  0  0  0  0  0
    0.9920   -4.8290    1.0530 O   0  0  0  0  0  0  0  0  0  0  0  0
   -0.0850   -2.8460    1.0640 N   0  0  0  0  0  0  0  0  0  0  0  0
    0.6090   -1.9610    0.2620 C   0  0  0  0  0  0  0  0  0  0  0  0
    1.6780   -2.0920   -0.4900 C   0  0  0  0  0  0  0  0  0  0  0  0
    2.4310   -3.3310   -0.6690 C   0  0  0  0  0  0  0  0  0  0  0  0
    4.1480   -3.2270    0.0340 P   0  0  0  0  0  0  0  0  0  0  0  0
    4.9870   -1.8770   -0.6120 O   0  0  0  0  0  0  0  0  0  0  0  0
    4.9890   -4.7100   -0.2270 O   0  0  0  0  0  0  0  0  0  0  0  0
    2.1750   -0.8900   -1.2470 C   0  0  0  0  0  0  0  0  0  0  0  0
    2.5720   -1.0730   -2.4340 O   0  0  0  0  0  0  0  0  0  0  0  0
    2.1760    0.4100   -0.5860 C   0  0  1  0  0  0  0  0  0  0  0  0
    2.3270    1.4890   -1.4920 O   0  0  0  0  0  0  0  0  0  0  0  0
    3.3860    2.3650   -1.4680 C   0  0  0  0  0  0  0  0  0  0  0  0
    4.2620    2.1600   -0.5610 O   0  0  0  0  0  0  0  0  0  0  0  0
    3.5240    3.4900   -2.4290 C   0  0  1  0  0  0  0  0  0  0  0  0
    2.4050    4.5140   -2.2560 C   0  0  0  0  0  0  0  0  0  0  0  0
    2.9240    5.5280   -1.4450 O   0  0  0  0  0  0  0  0  0  0  0  0
    4.3080    5.3750   -1.3830 C   0  0  0  0  0  0  0  0  0  0  0  0
    5.0250    6.1570   -0.7070 O   0  0  0  0  0  0  0  0  0  0  0  0
    4.7250    4.2630   -2.1610 N   0  0  0  0  0  0  0  0  0  0  0  0
    1.0030    0.5560    0.3040 C   0  0  0  0  0  0  0  0  0  0  0  0
    0.1130   -0.5680    0.2040 N   0  0  0  0  0  0  0  0  0  0  0  0
   -1.2850   -0.3880    0.0560 C   0  0  0  0  0  0  0  0  0  0  0  0
   -2.1500   -1.2660   -0.0470 O   0  0  0  0  0  0  0  0  0  0  0  0
   -1.7570    0.9350    0.0220 O   0  0  0  0  0  0  0  0  0  0  0  0
   -3.1420    1.2270   -0.1200 C   0  0  1  0  0  0  0  0  0  0  0  0
   -3.6190    1.9360    1.1490 C   0  0  0  0  0  0  0  0  0  0  0  0
   -4.9520    2.2500    1.1170 O   0  0  0  0  0  0  0  0  0  0  0  0
   -5.8060    1.1810    1.0060 C   0  0  0  0  0  0  0  0  0  0  0  0
   -5.5880    0.0310    2.4520 P   0  0  0  0  0  0  0  0  0  0  0  0
   -7.0640   -0.7600    2.8740 O   0  0  0  0  0  0  0  0  0  0  0  0
   -5.0250    0.9070    3.8260 O   0  0  0  0  0  0  0  0  0  0  0  0
   -3.3640    2.0750   -1.3120 C   0  0  0  0  0  0  0  0  0  0  0  0
   -4.5180    2.4530   -1.6220 O   0  0  0  0  0  0  0  0  0  0  0  0
   -2.3360    2.5050   -2.1540 O   0  0  0  0  0  0  0  0  0  0  0  0
  1  2  1  0
  2  3  1  0
  3  4  2  0
  3  5  1  0
  5  6  1  0
  6  7  2  0
  6 25  1  0
  7  8  1  0
  7 12  1  0
  8  9  1  0
  9 10  1  0
  9 11  1  0
 12 13  2  0
 12 14  1  0
 14 15  1  6
 14 24  1  0
 15 16  1  0
 16 17  2  0
 18 16  1  1
 18 19  1  0
 18 23  1  0
 19 20  1  0
 20 21  1  0
 21 22  2  0
 21 23  1  0
 24 25  1  0
 25 26  1  0
 26 27  2  0
 26 28  1  0
 28 29  1  0
 29 30  1  1
 29 36  1  0
 30 31  1  0
 31 32  1  0
 32 33  1  0
 33 34  1  0
 33 35  1  0
 36 37  2  0
 36 38  1  0
M  END
