
     RDKit          3D

 36 39  0  0  0  0  0  0  0  0999 V2000
   -2.7010    4.0130    3.1390 N   0  0  0  0  0  0  0  0  0  0  0  0
   -2.2970    2.7870    2.5490 C   0  0  0  0  0  0  0  0  0  0  0  0
   -1.9390    1.7040    3.2300 N   0  0  0  0  0  0  0  0  0  0  0  0
   -1.5570    0.5470    2.6460 C   0  0  0  0  0  0  0  0  0  0  0  0
   -1.5440    0.5030    1.3010 N   0  0  0  0  0  0  0  0  0  0  0  0
   -1.8840    1.5320    0.5420 C   0  0  0  0  0  0  0  0  0  0  0  0
   -2.2750    2.7190    1.1640 C   0  0  0  0  0  0  0  0  0  0  0  0
   -2.5510    3.5520    0.1660 N   0  0  0  0  0  0  0  0  0  0  0  0
   -2.3580    2.9640   -1.0000 C   0  0  0  0  0  0  0  0  0  0  0  0
   -1.9340    1.6810   -0.7860 N   0  0  0  0  0  0  0  0  0  0  0  0
   -1.6450    0.7950   -1.8680 C   0  0  2  0  0  0  0  0  0  0  0  0
   -2.8610    0.2310   -2.2720 O   0  0  0  0  0  0  0  0  0  0  0  0
   -2.7260   -1.1260   -2.3630 C   0  0  2  0  0  0  0  0  0  0  0  0
   -3.2140   -1.8500   -1.1580 C   0  0  0  0  0  0  0  0  0  0  0  0
   -4.5680   -1.6210   -0.9060 O   0  0  0  0  0  0  0  0  0  0  0  0
   -5.1810   -2.3180    0.3210 P   0  0  0  0  0  0  0  0  0  0  0  0
   -6.6100   -1.5680   -0.0210 O   0  0  0  0  0  0  0  0  0  0  0  0
   -5.7740   -3.0280    1.5400 O   0  0  0  0  0  0  0  0  0  0  0  0
   -4.8610   -3.7620   -0.4160 O   0  0  0  0  0  0  0  0  0  0  0  0
   -1.2430   -1.3700   -2.5430 C   0  0  1  0  0  0  0  0  0  0  0  0
   -0.9560   -1.0850   -3.8720 O   0  0  0  0  0  0  0  0  0  0  0  0
   -0.7110   -0.3200   -1.5940 C   0  0  1  0  0  0  0  0  0  0  0  0
    0.6170   -0.0410   -1.7510 O   0  0  0  0  0  0  0  0  0  0  0  0
    1.4290   -0.2940   -0.6900 C   0  0  1  0  0  0  0  0  0  0  0  0
    2.5300   -1.0820   -0.9950 O   0  0  0  0  0  0  0  0  0  0  0  0
    3.5180   -0.2830   -1.4950 C   0  0  2  0  0  0  0  0  0  0  0  0
    4.8870   -0.6540   -0.9260 C   0  0  0  0  0  0  0  0  0  0  0  0
    4.8380   -0.5060    0.4290 O   0  0  0  0  0  0  0  0  0  0  0  0
    6.2160   -0.8540    1.2560 P   0  0  0  0  0  0  0  0  0  0  0  0
    6.0550    0.3760    2.1470 O   0  0  0  0  0  0  0  0  0  0  0  0
    6.0690   -1.8180    2.6670 O   0  0  0  0  0  0  0  0  0  0  0  0
    7.6900   -0.5430    0.6970 O   0  0  0  0  0  0  0  0  0  0  0  0
    3.2380    1.1330   -1.1230 C   0  0  1  0  0  0  0  0  0  0  0  0
    2.9030    1.9430   -2.1950 O   0  0  0  0  0  0  0  0  0  0  0  0
    2.0440    1.0020   -0.2070 C   0  0  1  0  0  0  0  0  0  0  0  0
    1.1860    2.0880   -0.3480 O   0  0  0  0  0  0  0  0  0  0  0  0
  1  2  1  0
  2  3  2  0
  2  7  1  0
  3  4  1  0
  4  5  2  0
  5  6  1  0
  6  7  2  0
  6 10  1  0
  7  8  1  0
  8  9  2  0
  9 10  1  0
 11 10  1  1
 11 12  1  0
 11 22  1  0
 12 13  1  0
 13 14  1  1
 13 20  1  0
 14 15  1  0
 15 16  1  0
 16 17  1  0
 16 18  1  0
 16 19  1  0
 20 21  1  6
 20 22  1  0
 22 23  1  6
 24 23  1  6
 24 25  1  0
 24 35  1  0
 25 26  1  0
 26 27  1  1
 26 33  1  0
 27 28  1  0
 28 29  1  0
 29 30  1  0
 29 31  1  0
 29 32  1  0
 33 34  1  6
 33 35  1  0
 35 36  1  6
M  END
