
     RDKit          3D

 39 41  0  0  0  0  0  0  0  0999 V2000
   -4.4690   -4.5100    0.8560 C   0  0  0  0  0  0  0  0  0  0  0  0
   -4.7920   -4.2880    2.1490 O   0  0  0  0  0  0  0  0  0  0  0  0
   -5.4010   -3.1310    2.4800 C   0  0  0  0  0  0  0  0  0  0  0  0
   -4.5910   -1.9230    2.1820 C   0  0  0  0  0  0  0  0  0  0  0  0
   -4.2510   -1.7240    0.8350 O   0  0  0  0  0  0  0  0  0  0  0  0
   -3.4930   -0.6000    0.5340 C   0  0  0  0  0  0  0  0  0  0  0  0
   -4.0630    0.4380   -0.0480 C   0  0  0  0  0  0  0  0  0  0  0  0
   -3.3880    1.6380   -0.4000 N   0  0  0  0  0  0  0  0  0  0  0  0
   -4.0270    2.7540   -1.0320 C   0  0  0  0  0  0  0  0  0  0  0  0
   -4.1070    3.9800   -0.5450 C   0  0  0  0  0  0  0  0  0  0  0  0
   -4.8410    4.8880   -1.4640 C   0  0  0  0  0  0  0  0  0  0  0  0
   -5.6890    3.8740   -2.2520 C   0  0  0  0  0  0  0  0  0  0  0  0
   -4.7040    2.7380   -2.3460 C   0  0  0  0  0  0  0  0  0  0  0  0
   -1.9770    1.6660   -0.0740 C   0  0  0  0  0  0  0  0  0  0  0  0
   -1.4510    2.7740    0.1200 O   0  0  0  0  0  0  0  0  0  0  0  0
   -1.2500    0.3660    0.0080 C   0  0  2  0  0  0  0  0  0  0  0  0
    0.0240    0.4710    0.5900 N   0  0  0  0  0  0  0  0  0  0  0  0
    1.2690    1.2330   -0.2340 S   0  0  1  0  0  0  0  0  0  0  0  0
    0.6950    2.2970   -1.1650 O   0  0  0  0  0  0  0  0  0  0  0  0
    2.0810    2.0400    0.7760 O   0  0  0  0  0  0  0  0  0  0  0  0
    2.3150    0.1900   -1.0860 N   0  0  0  0  0  0  0  0  0  0  0  0
    3.4750   -0.3720   -0.4730 C   0  0  0  0  0  0  0  0  0  0  0  0
    4.6550    0.1600   -0.7070 C   0  0  0  0  0  0  0  0  0  0  0  0
    5.9510   -0.3300   -0.1290 C   0  0  0  0  0  0  0  0  0  0  0  0
    7.0080    0.3370   -0.4430 C   0  0  0  0  0  0  0  0  0  0  0  0
    8.3960    0.3940   -0.2460 C   0  0  0  0  0  0  0  0  0  0  0  0
    9.0750    1.4040   -0.8970 C   0  0  0  0  0  0  0  0  0  0  0  0
    8.4010    2.3030   -1.6960 O   0  0  0  0  0  0  0  0  0  0  0  0
    5.8380   -1.4450    0.7160 N   0  0  0  0  0  0  0  0  0  0  0  0
    6.9200   -2.1180    1.2750 C   0  0  0  0  0  0  0  0  0  0  0  0
    6.6230   -3.0640    2.1180 O   0  0  0  0  0  0  0  0  0  0  0  0
    8.2400   -1.9690    1.0920 O   0  0  0  0  0  0  0  0  0  0  0  0
    4.4950   -1.9970    0.9450 C   0  0  0  0  0  0  0  0  0  0  0  0
    4.4250   -3.0960    1.7890 O   0  0  0  0  0  0  0  0  0  0  0  0
    3.4190   -1.5070    0.4020 C   0  0  0  0  0  0  0  0  0  0  0  0
   -1.2390   -0.3920   -1.6890 P   0  0  0  0  0  0  0  0  0  0  0  0
   -0.0600   -1.6740   -1.7060 O   0  0  0  0  0  0  0  0  0  0  0  0
   -2.8040   -1.0970   -1.9450 O   0  0  0  0  0  0  0  0  0  0  0  0
   -2.0760   -0.6000    0.8740 C   0  0  0  0  0  0  0  0  0  0  0  0
  1  2  1  0
  2  3  1  0
  3  4  1  0
  4  5  1  0
  5  6  1  0
  6  7  2  0
  6 39  1  0
  7  8  1  0
  8  9  1  0
  8 14  1  0
  9 10  2  0
  9 13  1  0
 10 11  1  0
 11 12  1  0
 12 13  1  0
 14 15  2  0
 14 16  1  0
 16 17  1  1
 16 36  1  0
 16 39  1  0
 18 17  1  1
 18 19  2  0
 18 20  2  0
 18 21  1  0
 21 22  1  0
 22 23  2  0
 22 35  1  0
 23 24  1  0
 24 25  2  3
 24 29  1  0
 25 26  1  0
 26 27  2  3
 27 28  1  0
 29 30  1  0
 29 33  1  0
 30 31  2  0
 30 32  1  0
 33 34  1  0
 33 35  2  0
 36 37  1  0
 36 38  1  0
M  END
