
     RDKit          3D

 38 40  0  0  0  0  0  0  0  0999 V2000
   -4.4480   -0.3910   -4.9230 C   0  0  0  0  0  0  0  0  0  0  0  0
   -3.4920   -0.5030   -3.8800 O   0  0  0  0  0  0  0  0  0  0  0  0
   -3.7220    0.2040   -2.6810 C   0  0  0  0  0  0  0  0  0  0  0  0
   -4.7470    0.8870   -2.6000 O   0  0  0  0  0  0  0  0  0  0  0  0
   -2.7150    0.0590   -1.6410 C   0  0  0  0  0  0  0  0  0  0  0  0
   -1.6140   -0.7100   -1.8130 N   0  0  0  0  0  0  0  0  0  0  0  0
   -0.6630   -0.8700   -0.8900 C   0  0  0  0  0  0  0  0  0  0  0  0
    0.5030   -1.7420   -1.1940 C   0  0  2  0  0  0  0  0  0  0  0  0
    0.1350   -2.9410   -1.7870 O   0  0  0  0  0  0  0  0  0  0  0  0
   -0.6010   -3.7590   -0.9450 C   0  0  0  0  0  0  0  0  0  0  0  0
   -0.7830   -3.2490    0.3110 O   0  0  0  0  0  0  0  0  0  0  0  0
    0.3630   -2.8600    0.9590 C   0  0  0  0  0  0  0  0  0  0  0  0
    1.3030   -2.0600    0.0410 C   0  0  1  0  0  0  0  0  0  0  0  0
    2.4080   -2.9990   -0.3270 C   0  0  0  0  0  0  0  0  0  0  0  0
    3.4040   -2.4700   -1.1060 O   0  0  0  0  0  0  0  0  0  0  0  0
    4.5610   -3.7580   -1.3920 P   0  0  0  0  0  0  0  0  0  0  0  0
    4.9510   -4.5130    0.1310 O   0  0  0  0  0  0  0  0  0  0  0  0
    3.8990   -4.9600   -2.4390 O   0  0  0  0  0  0  0  0  0  0  0  0
    1.6910   -0.9390    0.7620 O   0  0  0  0  0  0  0  0  0  0  0  0
    2.4610    0.0930    0.3190 C   0  0  0  0  0  0  0  0  0  0  0  0
    2.8910    0.0870   -0.8440 O   0  0  0  0  0  0  0  0  0  0  0  0
    2.7760    1.1720    1.1740 N   0  0  0  0  0  0  0  0  0  0  0  0
    3.5930    2.2400    0.6640 C   0  0  0  0  0  0  0  0  0  0  0  0
    3.8350    3.3140    1.7070 C   0  0  0  0  0  0  0  0  0  0  0  0
    4.6400    4.2920    1.0870 O   0  0  0  0  0  0  0  0  0  0  0  0
    4.9950    5.5830    2.1680 P   0  0  0  0  0  0  0  0  0  0  0  0
    6.4270    6.1640    2.2930 O   0  0  0  0  0  0  0  0  0  0  0  0
   -0.8150   -0.2280    0.2740 N   0  0  0  0  0  0  0  0  0  0  0  0
   -1.9030    0.5570    0.4980 C   0  0  0  0  0  0  0  0  0  0  0  0
   -2.8930    0.7330   -0.4440 C   0  0  0  0  0  0  0  0  0  0  0  0
   -4.0760    1.5880   -0.1840 C   0  0  0  0  0  0  0  0  0  0  0  0
   -4.1130    2.0660    1.1020 O   0  0  0  0  0  0  0  0  0  0  0  0
   -2.9010    2.3630    1.6730 C   0  0  1  0  0  0  0  0  0  0  0  0
   -2.3230    3.4310    1.0230 O   0  0  0  0  0  0  0  0  0  0  0  0
   -3.1580    2.7410    3.1210 C   0  0  0  0  0  0  0  0  0  0  0  0
   -1.9480    3.0530    3.7440 O   0  0  0  0  0  0  0  0  0  0  0  0
   -2.0940    3.3860    4.9870 O   0  0  0  0  0  0  0  0  0  0  0  0
   -2.0470    1.2200    1.7140 O   0  0  0  0  0  0  0  0  0  0  0  0
  1  2  1  0
  2  3  1  0
  3  4  2  0
  3  5  1  0
  5  6  2  0
  5 30  1  0
  6  7  1  0
  8  7  1  1
  7 28  2  0
  8  9  1  0
  8 13  1  0
  9 10  1  0
 10 11  1  0
 11 12  1  0
 12 13  1  0
 13 14  1  6
 13 19  1  0
 14 15  1  0
 15 16  1  0
 16 17  1  0
 16 18  1  0
 19 20  1  0
 20 21  2  0
 20 22  1  0
 22 23  1  0
 23 24  1  0
 24 25  1  0
 25 26  1  0
 26 27  2  0
 28 29  1  0
 29 30  2  0
 29 38  1  0
 30 31  1  0
 31 32  1  0
 32 33  1  0
 33 34  1  6
 33 35  1  0
 33 38  1  0
 35 36  1  0
 36 37  1  0
M  END
