
     RDKit          3D

 39 41  0  0  0  0  0  0  0  0999 V2000
    4.4600    0.3450   -0.7550 C   0  0  0  0  0  0  0  0  0  0  0  0
    3.9630    0.8820    0.5130 N   0  0  0  0  0  0  0  0  0  0  0  0
    4.9570    1.2060    1.5170 C   0  0  0  0  0  0  0  0  0  0  0  0
    5.4200    2.6440    1.3630 C   0  0  0  0  0  0  0  0  0  0  0  0
    5.9840    2.8250    0.0960 O   0  0  0  0  0  0  0  0  0  0  0  0
    6.3980    4.0390   -0.0930 O   0  0  0  0  0  0  0  0  0  0  0  0
    2.5690    1.0700    0.7310 C   0  0  0  0  0  0  0  0  0  0  0  0
    2.1930    1.5280    1.8270 O   0  0  0  0  0  0  0  0  0  0  0  0
    1.6410    0.7700   -0.2040 O   0  0  0  0  0  0  0  0  0  0  0  0
    0.2830    0.8440   -0.2310 C   0  0  0  0  0  0  0  0  0  0  0  0
   -0.5110   -0.0530    0.7040 C   0  0  2  0  0  0  0  0  0  0  0  0
   -0.0100    0.2240    1.9960 O   0  0  0  0  0  0  0  0  0  0  0  0
    0.2630   -0.7530    2.9110 C   0  0  0  0  0  0  0  0  0  0  0  0
    0.5050   -0.4500    4.0980 O   0  0  0  0  0  0  0  0  0  0  0  0
    0.2570   -2.1360    2.4440 C   0  0  1  0  0  0  0  0  0  0  0  0
    0.0100   -3.1580    3.3880 N   0  0  0  0  0  0  0  0  0  0  0  0
   -0.7580   -4.1330    2.6990 C   0  0  0  0  0  0  0  0  0  0  0  0
   -1.0630   -5.3140    3.0390 O   0  0  0  0  0  0  0  0  0  0  0  0
   -1.1820   -3.5700    1.4680 O   0  0  0  0  0  0  0  0  0  0  0  0
   -1.0520   -2.2050    1.6300 C   0  0  2  0  0  0  0  0  0  0  0  0
   -0.6550   -1.4610    0.3110 C   0  0  2  0  0  0  0  0  0  0  0  0
    0.3930   -2.1870   -0.1420 O   0  0  0  0  0  0  0  0  0  0  0  0
    0.8600   -2.1140   -1.3920 C   0  0  0  0  0  0  0  0  0  0  0  0
   -0.1480   -2.4690   -2.4840 C   0  0  0  0  0  0  0  0  0  0  0  0
   -0.6220   -3.7500   -2.3440 O   0  0  0  0  0  0  0  0  0  0  0  0
   -1.7570   -4.2030   -3.5410 P   0  0  0  0  0  0  0  0  0  0  0  0
   -2.7050   -5.4130   -3.3520 O   0  0  0  0  0  0  0  0  0  0  0  0
   -1.7860   -1.7600   -0.5210 O   0  0  0  0  0  0  0  0  0  0  0  0
   -3.0420   -1.2840   -0.2580 C   0  0  0  0  0  0  0  0  0  0  0  0
   -4.0990   -1.8990   -0.5520 O   0  0  0  0  0  0  0  0  0  0  0  0
   -3.0910   -0.0090    0.3890 N   0  0  0  0  0  0  0  0  0  0  0  0
   -4.3840    0.5830    0.7130 C   0  0  0  0  0  0  0  0  0  0  0  0
   -4.9070    1.4380   -0.3920 C   0  0  0  0  0  0  0  0  0  0  0  0
   -4.0740    2.4960   -0.7060 O   0  0  0  0  0  0  0  0  0  0  0  0
   -4.7190    3.4650   -1.9920 P   0  0  0  0  0  0  0  0  0  0  0  0
   -3.5730    4.6480   -2.5240 O   0  0  0  0  0  0  0  0  0  0  0  0
   -6.1130    4.3100   -1.3910 O   0  0  0  0  0  0  0  0  0  0  0  0
   -1.8900    0.6380    0.6940 C   0  0  0  0  0  0  0  0  0  0  0  0
   -1.9180    1.8790    0.9870 O   0  0  0  0  0  0  0  0  0  0  0  0
  1  2  1  0
  2  3  1  0
  2  7  1  0
  3  4  1  0
  4  5  1  0
  5  6  1  0
  7  8  2  0
  7  9  1  0
  9 10  1  0
 11 10  1  6
 11 12  1  0
 11 21  1  0
 11 38  1  0
 12 13  1  0
 13 14  2  0
 13 15  1  0
 15 16  1  1
 15 20  1  0
 16 17  1  0
 17 18  2  0
 17 19  1  0
 20 19  1  6
 20 21  1  0
 21 22  1  6
 21 28  1  0
 22 23  1  0
 23 24  1  0
 24 25  1  0
 25 26  1  0
 26 27  2  0
 28 29  1  0
 29 30  2  0
 29 31  1  0
 31 32  1  0
 31 38  1  0
 32 33  1  0
 33 34  1  0
 34 35  1  0
 35 36  1  0
 35 37  1  0
 38 39  2  0
M  END
