
     RDKit          3D

 38 39  0  0  0  0  0  0  0  0999 V2000
   -1.6350    5.9050   -0.6180 C   0  0  0  0  0  0  0  0  0  0  0  0
   -0.6660    4.8260   -0.2390 C   0  0  0  0  0  0  0  0  0  0  0  0
   -1.2510    3.5430   -0.2870 O   0  0  0  0  0  0  0  0  0  0  0  0
   -0.0400    2.4160    0.1650 P   0  0  0  0  0  0  0  0  0  0  0  0
    1.4780    3.1590    0.5260 O   0  0  0  0  0  0  0  0  0  0  0  0
   -0.5290    1.3150    1.3780 O   0  0  0  0  0  0  0  0  0  0  0  0
   -0.1020    0.0120    1.0060 C   0  0  1  0  0  0  0  0  0  0  0  0
    0.9330   -0.2900    2.0050 N   0  0  0  0  0  0  0  0  0  0  0  0
    2.3090   -0.3330    1.8470 C   0  0  0  0  0  0  0  0  0  0  0  0
    3.0060    0.5290    2.5240 O   0  0  0  0  0  0  0  0  0  0  0  0
    3.1390   -1.2240    1.0110 C   0  0  1  0  0  0  0  0  0  0  0  0
    3.2030   -0.5870   -0.3820 C   0  0  0  0  0  0  0  0  0  0  0  0
    3.7230    0.6870   -0.2350 O   0  0  0  0  0  0  0  0  0  0  0  0
    3.8310    1.4860   -1.7720 P   0  0  0  0  0  0  0  0  0  0  0  0
    5.2770    2.4050   -1.9240 O   0  0  0  0  0  0  0  0  0  0  0  0
    3.5530    0.4250   -3.0920 O   0  0  0  0  0  0  0  0  0  0  0  0
    4.5360   -1.2240    1.4620 N   0  0  0  0  0  0  0  0  0  0  0  0
    4.9360   -1.5700    2.7710 C   0  0  0  0  0  0  0  0  0  0  0  0
    4.0950   -1.8930    3.6200 O   0  0  0  0  0  0  0  0  0  0  0  0
    6.2730   -1.5590    3.1480 O   0  0  0  0  0  0  0  0  0  0  0  0
    2.7190   -2.6310    0.9640 C   0  0  0  0  0  0  0  0  0  0  0  0
    2.5510   -3.2280    2.0610 O   0  0  0  0  0  0  0  0  0  0  0  0
    2.5190   -3.2730   -0.2080 O   0  0  0  0  0  0  0  0  0  0  0  0
    1.5610   -3.2440   -1.1930 C   0  0  0  0  0  0  0  0  0  0  0  0
    0.1580   -2.8930   -0.7480 C   0  0  0  0  0  0  0  0  0  0  0  0
   -0.2080   -1.7090   -1.3180 O   0  0  0  0  0  0  0  0  0  0  0  0
   -1.5150   -1.3290   -1.1700 C   0  0  0  0  0  0  0  0  0  0  0  0
   -2.0020   -1.1340    0.2220 C   0  0  2  0  0  0  0  0  0  0  0  0
   -2.6890   -2.4660    0.6140 C   0  0  0  0  0  0  0  0  0  0  0  0
   -3.6020   -2.8510   -0.3720 O   0  0  0  0  0  0  0  0  0  0  0  0
   -4.5970   -1.9680   -0.7540 C   0  0  0  0  0  0  0  0  0  0  0  0
   -5.6570   -2.3430   -1.3280 O   0  0  0  0  0  0  0  0  0  0  0  0
   -4.3650   -0.5730   -0.4630 N   0  0  0  0  0  0  0  0  0  0  0  0
   -5.3960    0.3690   -0.8560 C   0  0  0  0  0  0  0  0  0  0  0  0
   -6.4130    0.5690    0.2510 C   0  0  0  0  0  0  0  0  0  0  0  0
   -3.1620   -0.1680    0.1850 C   0  0  0  0  0  0  0  0  0  0  0  0
   -3.1420    0.9710    0.6880 O   0  0  0  0  0  0  0  0  0  0  0  0
   -1.0990   -0.8900    1.1890 O   0  0  0  0  0  0  0  0  0  0  0  0
  1  2  1  0
  2  3  1  0
  3  4  1  0
  4  5  1  0
  4  6  1  0
  7  6  1  1
  7  8  1  0
  7 38  1  0
  8  9  1  0
  9 10  2  0
  9 11  1  0
 11 12  1  6
 11 17  1  0
 11 21  1  0
 12 13  1  0
 13 14  1  0
 14 15  1  0
 14 16  1  0
 17 18  1  0
 18 19  2  0
 18 20  1  0
 21 22  2  0
 21 23  1  0
 23 24  1  0
 24 25  1  0
 25 26  1  0
 26 27  1  0
 28 27  1  6
 28 29  1  0
 28 36  1  0
 28 38  1  0
 29 30  1  0
 30 31  1  0
 31 32  2  0
 31 33  1  0
 33 34  1  0
 33 36  1  0
 34 35  1  0
 36 37  2  0
M  END
