
     RDKit          3D

 39 40  0  0  0  0  0  0  0  0999 V2000
   -5.7350   -3.1640   -1.1410 C   0  0  0  0  0  0  0  0  0  0  0  0
   -4.4750   -2.5970   -0.8450 O   0  0  0  0  0  0  0  0  0  0  0  0
   -4.1250   -1.3050   -1.2020 C   0  0  0  0  0  0  0  0  0  0  0  0
   -4.9780   -0.6210   -1.8170 O   0  0  0  0  0  0  0  0  0  0  0  0
   -2.8170   -0.6750   -0.9100 C   0  0  2  0  0  0  0  0  0  0  0  0
   -1.9520   -1.5820   -0.2040 N   0  0  0  0  0  0  0  0  0  0  0  0
   -1.0250   -2.3900   -0.9720 C   0  0  0  0  0  0  0  0  0  0  0  0
    0.3030   -2.5760   -0.3040 C   0  0  0  0  0  0  0  0  0  0  0  0
    1.3710   -2.5590   -1.1990 O   0  0  0  0  0  0  0  0  0  0  0  0
    1.5690   -1.2940   -1.7320 C   0  0  0  0  0  0  0  0  0  0  0  0
    2.8380   -0.7220   -1.1070 C   0  0  1  0  0  0  0  0  0  0  0  0
    3.9150   -1.4640   -1.6500 O   0  0  0  0  0  0  0  0  0  0  0  0
    4.7890   -2.1930   -0.8480 C   0  0  0  0  0  0  0  0  0  0  0  0
    4.5690   -2.1580    0.3900 O   0  0  0  0  0  0  0  0  0  0  0  0
    5.8510   -2.9280   -1.3480 O   0  0  0  0  0  0  0  0  0  0  0  0
    6.8860   -3.8100   -0.2230 P   0  0  0  0  0  0  0  0  0  0  0  0
    6.2690   -3.7580    1.3870 O   0  0  0  0  0  0  0  0  0  0  0  0
    8.5270   -3.2730   -0.3220 O   0  0  0  0  0  0  0  0  0  0  0  0
    2.9440    0.6760   -1.5720 C   0  0  0  0  0  0  0  0  0  0  0  0
    3.8750    1.0920   -2.3020 O   0  0  0  0  0  0  0  0  0  0  0  0
    1.9630    1.5780   -1.1810 O   0  0  0  0  0  0  0  0  0  0  0  0
    1.3470    1.5050    0.1020 C   0  0  0  0  0  0  0  0  0  0  0  0
    0.0750    2.2800    0.1590 C   0  0  1  0  0  0  0  0  0  0  0  0
    0.4540    3.7520    0.3570 C   0  0  0  0  0  0  0  0  0  0  0  0
    1.1620    3.8410    1.5510 O   0  0  0  0  0  0  0  0  0  0  0  0
    1.6260    5.4890    1.8380 P   0  0  0  0  0  0  0  0  0  0  0  0
    0.3820    6.5380    1.2400 O   0  0  0  0  0  0  0  0  0  0  0  0
    1.7890    5.7070    3.5520 O   0  0  0  0  0  0  0  0  0  0  0  0
   -0.7260    2.2030   -1.0800 C   0  0  0  0  0  0  0  0  0  0  0  0
   -0.1220    1.9750   -2.1600 O   0  0  0  0  0  0  0  0  0  0  0  0
   -2.1420    2.3690   -1.1490 N   0  0  0  0  0  0  0  0  0  0  0  0
   -3.0670    1.7620   -0.2570 C   0  0  0  0  0  0  0  0  0  0  0  0
   -3.9660    2.4940    0.2910 O   0  0  0  0  0  0  0  0  0  0  0  0
   -3.0650    0.3650    0.0760 N   0  0  0  0  0  0  0  0  0  0  0  0
   -3.2830   -0.3420    1.3070 C   0  0  2  0  0  0  0  0  0  0  0  0
   -2.9480    0.4260    2.5450 C   0  0  0  0  0  0  0  0  0  0  0  0
   -3.1650   -0.2680    3.7070 O   0  0  0  0  0  0  0  0  0  0  0  0
   -2.2590   -1.4390    1.1730 C   0  0  0  0  0  0  0  0  0  0  0  0
   -1.7500   -2.1220    2.0940 O   0  0  0  0  0  0  0  0  0  0  0  0
  1  2  1  0
  2  3  1  0
  3  4  2  0
  5  3  1  1
  5  6  1  0
  5 34  1  0
  6  7  1  0
  6 38  1  0
  7  8  1  0
  8  9  1  0
  9 10  1  0
 10 11  1  0
 11 12  1  6
 11 19  1  0
 12 13  1  0
 13 14  2  0
 13 15  1  0
 15 16  1  0
 16 17  1  0
 16 18  1  0
 19 20  2  0
 19 21  1  0
 21 22  1  0
 22 23  1  0
 23 24  1  6
 23 29  1  0
 24 25  1  0
 25 26  1  0
 26 27  1  0
 26 28  1  0
 29 30  2  0
 29 31  1  0
 31 32  1  0
 32 33  2  0
 32 34  1  0
 34 35  1  0
 35 36  1  1
 35 38  1  0
 36 37  1  0
 38 39  2  0
M  END
