
     RDKit          3D

  9  9  0  0  0  0  0  0  0  0999 V2000
   -3.1280    0.6530   -1.0080 C   0  0  0  0  0  0  0  0  0  0  0  0
   -1.8900    0.2410   -0.2920 C   0  0  0  0  0  0  0  0  0  0  0  0
   -1.5960    0.5810    1.0180 C   0  0  0  0  0  0  0  0  0  0  0  0
   -0.3740    0.0230    1.3300 C   0  0  0  0  0  0  0  0  0  0  0  0
    0.0380   -0.6370    0.2040 C   0  0  0  0  0  0  0  0  0  0  0  0
    1.3240   -1.4100    0.0430 C   0  0  0  0  0  0  0  0  0  0  0  0
    2.3850   -0.4340   -0.4700 C   0  0  0  0  0  0  0  0  0  0  0  0
    2.5320    0.6270    0.5090 N   0  0  0  0  0  0  0  0  0  0  0  0
   -0.8870   -0.4750   -0.7100 O   0  0  0  0  0  0  0  0  0  0  0  0
  1  2  1  0
  2  3  2  0
  2  9  1  0
  3  4  1  0
  4  5  2  0
  5  6  1  0
  5  9  1  0
  6  7  1  0
  7  8  1  0
M  END
