
     RDKit          3D

  9  9  0  0  0  0  0  0  0  0999 V2000
   -1.9420    0.1110   -0.2400 C   0  0  0  0  0  0  0  0  0  0  0  0
   -0.5990   -0.1070    0.4260 C   0  0  1  0  0  0  0  0  0  0  0  0
    0.0170   -1.3770    0.0760 C   0  0  0  0  0  0  0  0  0  0  0  0
    1.2250   -1.4790   -0.2960 N   0  0  0  0  0  0  0  0  0  0  0  0
    2.1480   -0.4200   -0.4310 C   0  0  0  0  0  0  0  0  0  0  0  0
    3.3370   -0.5480   -0.8010 O   0  0  0  0  0  0  0  0  0  0  0  0
    1.6270    0.8730   -0.1070 N   0  0  0  0  0  0  0  0  0  0  0  0
    0.2970    1.0280    0.3090 C   0  0  0  0  0  0  0  0  0  0  0  0
   -0.0760    2.2320    0.5780 O   0  0  0  0  0  0  0  0  0  0  0  0
  2  1  1  6
  2  3  1  0
  2  8  1  0
  3  4  2  0
  4  5  1  0
  5  6  2  0
  5  7  1  0
  7  8  1  0
  8  9  2  0
M  END
