
     RDKit          3D

 10 10  0  0  0  0  0  0  0  0999 V2000
   -2.6250   -0.2400   -0.7560 N   0  0  0  0  0  0  0  0  0  0  0  0
   -1.7610   -0.8740    0.2210 C   0  0  0  0  0  0  0  0  0  0  0  0
   -0.3640   -0.3580    0.0740 C   0  0  0  0  0  0  0  0  0  0  0  0
    0.7430   -1.1740   -0.0030 C   0  0  0  0  0  0  0  0  0  0  0  0
    2.0040   -0.6090   -0.0680 C   0  0  0  0  0  0  0  0  0  0  0  0
    3.1070   -1.4460   -0.1380 O   0  0  0  0  0  0  0  0  0  0  0  0
    2.2070    0.7430   -0.0640 C   0  0  0  0  0  0  0  0  0  0  0  0
    1.0910    1.5600    0.0110 C   0  0  0  0  0  0  0  0  0  0  0  0
   -0.1690    1.0260    0.0800 C   0  0  0  0  0  0  0  0  0  0  0  0
   -1.2510    1.8700    0.1530 O   0  0  0  0  0  0  0  0  0  0  0  0
  1  2  1  0
  2  3  1  0
  3  4  2  0
  3  9  1  0
  4  5  1  0
  5  6  1  0
  5  7  2  0
  7  8  1  0
  8  9  2  0
  9 10  1  0
M  END
