
     RDKit          3D

 10 10  0  0  0  0  0  0  0  0999 V2000
    3.0560    0.6370    0.1290 N   0  0  0  0  0  0  0  0  0  0  0  0
    2.3040   -0.1630   -0.7520 C   0  0  0  0  0  0  0  0  0  0  0  0
    2.6250   -0.1020   -1.9900 O   0  0  0  0  0  0  0  0  0  0  0  0
    1.1970   -1.0380   -0.3280 C   0  0  0  0  0  0  0  0  0  0  0  0
    0.0150   -0.2530    0.1780 C   0  0  1  0  0  0  0  0  0  0  0  0
    0.3600    0.5250    1.2780 O   0  0  0  0  0  0  0  0  0  0  0  0
   -0.5320    0.7000   -0.8620 C   0  0  0  0  0  0  0  0  0  0  0  0
   -1.9360    0.9570   -0.3110 C   0  0  0  0  0  0  0  0  0  0  0  0
   -2.3880   -0.3180    0.3490 C   0  0  0  0  0  0  0  0  0  0  0  0
   -1.1320   -1.1810    0.3870 C   0  0  0  0  0  0  0  0  0  0  0  0
  1  2  1  0
  2  3  2  0
  2  4  1  0
  4  5  1  0
  5  6  1  1
  5  7  1  0
  5 10  1  0
  7  8  1  0
  8  9  1  0
  9 10  1  0
M  END
