
     RDKit          3D

  9  9  0  0  0  0  0  0  0  0999 V2000
   -2.1650    2.2220   -0.1170 O   0  0  0  0  0  0  0  0  0  0  0  0
   -1.5200    1.1320   -0.1030 C   0  0  0  0  0  0  0  0  0  0  0  0
   -0.1360    1.1690   -0.1880 C   0  0  0  0  0  0  0  0  0  0  0  0
    0.5630   -0.0250   -0.1720 C   0  0  0  0  0  0  0  0  0  0  0  0
    2.0370    0.0140   -0.2630 C   0  0  0  0  0  0  0  0  0  0  0  0
    2.6410    0.0920    1.0090 O   0  0  0  0  0  0  0  0  0  0  0  0
   -0.0950   -1.2280   -0.0730 C   0  0  0  0  0  0  0  0  0  0  0  0
   -1.4700   -1.2350    0.0110 C   0  0  0  0  0  0  0  0  0  0  0  0
   -2.1410   -0.0670   -0.0060 N   0  0  0  0  0  0  0  0  0  0  0  0
  1  2  2  0
  2  3  1  0
  2  9  1  0
  3  4  2  0
  4  5  1  0
  4  7  1  0
  5  6  1  0
  7  8  2  0
  8  9  1  0
M  END
