
     RDKit          3D

  7  6  0  0  0  0  0  0  0  0999 V2000
   -2.6170   -0.2190   -0.9570 C   0  0  0  0  0  0  0  0  0  0  0  0
   -1.3180   -0.2870   -0.6830 C   0  0  0  0  0  0  0  0  0  0  0  0
   -0.8520   -0.5230    0.7010 C   0  0  0  0  0  0  0  0  0  0  0  0
   -0.0570    0.5050    1.1810 O   0  0  0  0  0  0  0  0  0  0  0  0
    1.0850    0.7100    0.4340 C   0  0  0  0  0  0  0  0  0  0  0  0
    1.9750   -0.4790    0.3780 C   0  0  0  0  0  0  0  0  0  0  0  0
    3.1230   -0.3470   -0.1430 N   0  0  0  0  0  0  0  0  0  0  0  0
  1  2  2  0
  2  3  1  0
  3  4  1  0
  4  5  1  0
  5  6  1  0
  6  7  2  0
M  END
