
     RDKit          3D

  7  6  0  0  0  0  0  0  0  0999 V2000
   -2.2880    1.0170   -0.6140 C   0  0  0  0  0  0  0  0  0  0  0  0
   -2.0570   -0.4420   -0.3730 C   0  0  0  0  0  0  0  0  0  0  0  0
   -0.6850   -0.8710   -0.4460 N   0  0  0  0  0  0  0  0  0  0  0  0
    0.1370   -0.3570    0.6210 C   0  0  0  0  0  0  0  0  0  0  0  0
    1.5070   -0.9790    0.6540 C   0  0  0  0  0  0  0  0  0  0  0  0
    2.2740   -0.8310   -0.4600 O   0  0  0  0  0  0  0  0  0  0  0  0
    2.5590    0.4440   -0.8530 C   0  0  0  0  0  0  0  0  0  0  0  0
  1  2  1  0
  2  3  1  0
  3  4  1  0
  4  5  1  0
  5  6  1  0
  6  7  1  0
M  END
