
     RDKit          3D

  7  7  0  0  0  0  0  0  0  0999 V2000
    2.0750   -0.6410   -0.2320 C   0  0  0  0  0  0  0  0  0  0  0  0
    1.1300    0.2590    0.4610 C   0  0  0  0  0  0  0  0  0  0  0  0
   -0.0570    0.6400   -0.2020 N   0  0  0  0  0  0  0  0  0  0  0  0
   -0.9720    1.1390    0.8230 C   0  0  0  0  0  0  0  0  0  0  0  0
   -1.7230   -0.1570    1.1490 C   0  0  0  0  0  0  0  0  0  0  0  0
   -1.9110   -0.6820   -0.1140 O   0  0  0  0  0  0  0  0  0  0  0  0
   -0.8080   -0.3390   -0.8760 C   0  0  0  0  0  0  0  0  0  0  0  0
  1  2  1  0
  2  3  1  0
  3  4  1  0
  3  7  1  0
  4  5  1  0
  5  6  1  0
  6  7  1  0
M  END
