
     RDKit          3D

  7  6  0  0  0  0  0  0  0  0999 V2000
    0.7110   -1.5410    0.6300 C   0  0  0  0  0  0  0  0  0  0  0  0
    0.6400   -0.0930    0.2780 C   0  0  1  0  0  0  0  0  0  0  0  0
    1.4610    0.2480   -0.9470 C   0  0  0  0  0  0  0  0  0  0  0  0
    1.5780    1.6400   -1.1020 O   0  0  0  0  0  0  0  0  0  0  0  0
   -0.6510    0.4590    0.1380 N   0  0  0  0  0  0  0  0  0  0  0  0
   -1.4810    0.4690    1.2820 C   0  0  0  0  0  0  0  0  0  0  0  0
   -1.3180    0.2640   -1.0980 C   0  0  0  0  0  0  0  0  0  0  0  0
  2  1  1  6
  2  3  1  0
  2  5  1  0
  3  4  1  0
  5  6  1  0
  5  7  1  0
M  END
