
     RDKit          3D

  6  5  0  0  0  0  0  0  0  0999 V2000
    1.1680    1.3650    0.3630 C   0  0  0  0  0  0  0  0  0  0  0  0
    0.6180    0.1190   -0.2560 C   0  0  1  0  0  0  0  0  0  0  0  0
    1.5780   -1.0640   -0.1380 C   0  0  0  0  0  0  0  0  0  0  0  0
   -0.6370   -0.3120    0.2470 N   0  0  0  0  0  0  0  0  0  0  0  0
   -1.3340   -1.0800   -0.7460 C   0  0  0  0  0  0  0  0  0  0  0  0
   -1.4960    0.7010    0.7710 C   0  0  0  0  0  0  0  0  0  0  0  0
  2  1  1  1
  2  3  1  0
  2  4  1  0
  4  5  1  0
  4  6  1  0
M  END
