
     RDKit          3D

  7  6  0  0  0  0  0  0  0  0999 V2000
   -2.6430   -0.8070   -0.3850 C   0  0  0  0  0  0  0  0  0  0  0  0
   -1.5550    0.1570   -0.3410 N   0  0  0  0  0  0  0  0  0  0  0  0
   -0.2260   -0.2600   -0.1990 C   0  0  0  0  0  0  0  0  0  0  0  0
    0.7470    0.5380    0.1800 C   0  0  0  0  0  0  0  0  0  0  0  0
    0.3860    1.9660    0.4690 C   0  0  0  0  0  0  0  0  0  0  0  0
    2.0520    0.1780    0.3320 O   0  0  0  0  0  0  0  0  0  0  0  0
    2.6000   -1.0860    0.1410 C   0  0  0  0  0  0  0  0  0  0  0  0
  1  2  1  0
  2  3  1  0
  3  4  2  3
  4  5  1  0
  4  6  1  0
  6  7  1  0
M  END
