
     RDKit          3D

  7  6  0  0  0  0  0  0  0  0999 V2000
    2.8210   -0.1380    0.4210 C   0  0  0  0  0  0  0  0  0  0  0  0
    2.3380   -0.1820   -0.8830 O   0  0  0  0  0  0  0  0  0  0  0  0
    1.0380    0.2570   -1.0010 C   0  0  0  0  0  0  0  0  0  0  0  0
    0.0290   -0.5490   -0.2150 C   0  0  0  0  0  0  0  0  0  0  0  0
   -1.3100   -0.0120   -0.3870 N   0  0  0  0  0  0  0  0  0  0  0  0
   -1.4760    1.2670    0.2300 C   0  0  0  0  0  0  0  0  0  0  0  0
   -2.2930   -0.9390    0.1090 C   0  0  0  0  0  0  0  0  0  0  0  0
  1  2  1  0
  2  3  1  0
  3  4  1  0
  4  5  1  0
  5  6  1  0
  5  7  1  0
M  END
