
     RDKit          3D

  7  6  0  0  0  0  0  0  0  0999 V2000
   -2.5190    0.8370   -0.1820 C   0  0  0  0  0  0  0  0  0  0  0  0
   -1.9130   -0.3620    0.3920 N   0  0  0  0  0  0  0  0  0  0  0  0
   -0.9240   -0.9240   -0.4860 C   0  0  0  0  0  0  0  0  0  0  0  0
    0.3460   -0.1090   -0.5400 C   0  0  0  0  0  0  0  0  0  0  0  0
    1.0040    0.0140    0.8050 C   0  0  0  0  0  0  0  0  0  0  0  0
    2.1360    0.7650    0.7010 O   0  0  0  0  0  0  0  0  0  0  0  0
    3.1150    0.2990   -0.1350 C   0  0  0  0  0  0  0  0  0  0  0  0
  1  2  1  0
  2  3  1  0
  3  4  1  0
  4  5  1  0
  5  6  1  0
  6  7  1  0
M  CHG  1   2   1
M  END
