
     RDKit          3D

 27 27  0  0  0  0  0  0  0  0999 V2000
    7.6030    0.4850    1.6520 C   0  0  0  0  0  0  0  0  0  0  0  0
    7.5730    0.4680    0.3480 C   0  0  0  0  0  0  0  0  0  0  0  0
    6.5000    0.4620   -0.4970 N   0  0  0  0  0  0  0  0  0  0  0  0
    5.0610    0.4750   -0.0500 C   0  0  0  0  0  0  0  0  0  0  0  0
    4.8410    0.4910    1.1030 O   0  0  0  0  0  0  0  0  0  0  0  0
    4.2790    0.4700   -1.2280 N   0  0  0  0  0  0  0  0  0  0  0  0
    2.7470    0.8770   -0.4790 C   0  0  0  0  0  0  0  0  0  0  0  0
    2.8200    0.9290    0.6820 O   0  0  0  0  0  0  0  0  0  0  0  0
    1.6990    1.0790   -1.4390 C   0  0  0  0  0  0  0  0  0  0  0  0
    0.1960    0.2260   -1.2300 S   0  0  1  0  0  0  0  0  0  0  0  0
   -0.7410    0.6390   -2.3480 O   0  0  0  0  0  0  0  0  0  0  0  0
    0.3550   -1.2670   -1.3890 O   0  0  0  0  0  0  0  0  0  0  0  0
   -0.6710    0.5830    0.2840 C   0  0  0  0  0  0  0  0  0  0  0  0
   -1.9600   -0.1630    0.3250 C   0  0  0  0  0  0  0  0  0  0  0  0
   -3.1780    0.2850    0.4130 C   0  0  0  0  0  0  0  0  0  0  0  0
   -4.2390   -0.6620    0.4370 C   0  0  0  0  0  0  0  0  0  0  0  0
   -5.5410   -0.3300    0.6110 C   0  0  0  0  0  0  0  0  0  0  0  0
   -6.5850   -1.3250    0.6190 C   0  0  0  0  0  0  0  0  0  0  0  0
   -6.2780   -2.6550    0.4380 O   0  0  0  0  0  0  0  0  0  0  0  0
   -7.8520   -0.9460    0.7990 C   0  0  0  0  0  0  0  0  0  0  0  0
   -8.1710    0.4740    0.9900 C   0  0  0  0  0  0  0  0  0  0  0  0
   -3.8500   -2.0890    0.2960 C   0  0  0  0  0  0  0  0  0  0  0  0
   -2.0380   -1.9310    0.2620 S   0  0  0  0  0  0  0  0  0  0  0  0
    8.9350    0.4520   -0.3490 C   0  0  2  0  0  0  0  0  0  0  0  0
    9.1690    1.6340   -1.0160 F   0  0  0  0  0  0  0  0  0  0  0  0
    8.9230   -0.5270   -1.3590 F   0  0  0  0  0  0  0  0  0  0  0  0
    9.8850    0.1150    0.5680 F   0  0  0  0  0  0  0  0  0  0  0  0
  1  2  2  0
  2  3  1  0
  2 24  1  0
  3  4  1  0
  4  5  2  0
  4  6  1  0
  6  7  1  0
  7  8  2  0
  7  9  1  0
 10  9  1  1
 10 11  2  0
 10 12  2  0
 10 13  1  0
 13 14  1  0
 14 15  2  0
 14 23  1  0
 15 16  1  0
 16 17  2  3
 16 22  1  0
 17 18  1  0
 18 19  1  0
 18 20  2  3
 20 21  1  0
 22 23  1  0
 24 25  1  6
 24 26  1  0
 24 27  1  0
M  END
