
     RDKit          3D

 27 27  0  0  0  0  0  0  0  0999 V2000
    5.9270    1.2730   -0.6590 C   0  0  0  0  0  0  0  0  0  0  0  0
    4.5550    1.2690   -1.1810 C   0  0  2  0  0  0  0  0  0  0  0  0
    3.9570    2.6580   -0.8250 C   0  0  0  0  0  0  0  0  0  0  0  0
    3.5840    0.2920   -0.7310 C   0  0  0  0  0  0  0  0  0  0  0  0
    3.5960   -0.6870    0.1040 C   0  0  0  0  0  0  0  0  0  0  0  0
    2.3270   -1.4690    0.2730 C   0  0  0  0  0  0  0  0  0  0  0  0
    2.3710   -2.4160    1.0930 O   0  0  0  0  0  0  0  0  0  0  0  0
    0.8960   -1.0410   -0.6480 S   0  0  0  0  0  0  0  0  0  0  0  0
   -0.5000   -2.0590   -0.3270 C   0  0  0  0  0  0  0  0  0  0  0  0
   -0.4560   -3.0430    0.5310 C   0  0  0  0  0  0  0  0  0  0  0  0
   -1.6440   -3.8300    0.7370 N   0  0  0  0  0  0  0  0  0  0  0  0
   -2.0390   -1.7500   -1.1930 S   0  0  1  0  0  0  0  0  0  0  0  0
   -1.7410   -1.3000   -2.5940 O   0  0  0  0  0  0  0  0  0  0  0  0
   -2.7280   -3.0800   -1.2790 O   0  0  0  0  0  0  0  0  0  0  0  0
   -3.0070   -0.6650   -0.3190 N   0  0  0  0  0  0  0  0  0  0  0  0
   -2.4470    0.6150   -0.1180 C   0  0  0  0  0  0  0  0  0  0  0  0
   -3.3540    1.7120    0.2940 C   0  0  0  0  0  0  0  0  0  0  0  0
   -4.7710    1.5900   -0.1400 C   0  0  2  0  0  0  0  0  0  0  0  0
   -5.6540    2.5650    0.6030 C   0  0  1  0  0  0  0  0  0  0  0  0
   -5.2610    3.8710    0.3830 F   0  0  0  0  0  0  0  0  0  0  0  0
   -6.9660    2.4100    0.1730 F   0  0  0  0  0  0  0  0  0  0  0  0
   -5.5950    2.2560    1.9520 F   0  0  0  0  0  0  0  0  0  0  0  0
   -5.2420    0.1800    0.2210 C   0  0  0  0  0  0  0  0  0  0  0  0
   -4.3980   -0.7590   -0.5710 C   0  0  0  0  0  0  0  0  0  0  0  0
    4.7450   -1.1020    0.9000 C   0  0  1  0  0  0  0  0  0  0  0  0
    5.2310   -0.1280    1.7660 O   0  0  0  0  0  0  0  0  0  0  0  0
    4.3740   -2.1700    1.7910 O   0  0  0  0  0  0  0  0  0  0  0  0
  2  1  1  1
  2  3  1  0
  2  4  1  0
  4  5  2  3
  5  6  1  0
  5 25  1  0
  6  7  2  0
  6  8  1  0
  8  9  1  0
  9 10  2  3
  9 12  1  0
 10 11  1  0
 12 13  2  0
 12 14  2  0
 12 15  1  1
 15 16  1  0
 15 24  1  0
 16 17  1  0
 18 17  1  1
 18 19  1  0
 18 23  1  0
 19 20  1  1
 19 21  1  0
 19 22  1  0
 23 24  1  0
 25 26  1  1
 25 27  1  0
M  END
