
     RDKit          3D

 27 27  0  0  0  0  0  0  0  0999 V2000
   -0.4810   -2.5380    0.8490 C   0  0  0  0  0  0  0  0  0  0  0  0
   -0.6380   -1.5320   -0.2020 C   0  0  0  0  0  0  0  0  0  0  0  0
   -1.9570   -1.2490   -0.6820 N   0  0  0  0  0  0  0  0  0  0  0  0
   -2.8190   -0.3370    0.0180 C   0  0  0  0  0  0  0  0  0  0  0  0
   -2.3490    0.2040    1.1080 C   0  0  0  0  0  0  0  0  0  0  0  0
   -3.0120    1.1640    2.0100 C   0  0  2  0  0  0  0  0  0  0  0  0
   -4.1570    0.6920    2.6010 F   0  0  0  0  0  0  0  0  0  0  0  0
   -3.3050    2.3730    1.4010 F   0  0  0  0  0  0  0  0  0  0  0  0
   -2.1700    1.4860    3.0970 F   0  0  0  0  0  0  0  0  0  0  0  0
   -4.1190   -0.0750   -0.5130 C   0  0  0  0  0  0  0  0  0  0  0  0
   -4.4670   -0.7530   -1.7180 O   0  0  0  0  0  0  0  0  0  0  0  0
   -5.2480    0.9190    0.1140 S   0  0  0  0  0  0  0  0  0  0  0  0
    0.3880   -0.8730   -0.7170 C   0  0  0  0  0  0  0  0  0  0  0  0
    1.6980   -1.1560   -0.2260 C   0  0  0  0  0  0  0  0  0  0  0  0
    1.8270   -2.0530    0.7380 O   0  0  0  0  0  0  0  0  0  0  0  0
    3.0160   -0.6230   -0.5980 C   0  0  0  0  0  0  0  0  0  0  0  0
    3.3470    0.9380    0.2680 S   0  0  0  0  0  0  0  0  0  0  0  0
    3.5060    0.7040    2.0390 C   0  0  0  0  0  0  0  0  0  0  0  0
    4.6830   -0.0840    2.4370 C   0  0  0  0  0  0  0  0  0  0  0  0
    4.9180   -0.3490    3.8020 N   0  0  0  0  0  0  0  0  0  0  0  0
    5.4710   -0.5170    1.5770 O   0  0  0  0  0  0  0  0  0  0  0  0
    0.0720    0.0920   -1.7520 C   0  0  0  0  0  0  0  0  0  0  0  0
    0.8990    0.8690   -2.4070 C   0  0  0  0  0  0  0  0  0  0  0  0
    0.4570    1.7570   -3.3880 O   0  0  0  0  0  0  0  0  0  0  0  0
   -0.8490    2.2940   -3.4360 C   0  0  0  0  0  0  0  0  0  0  0  0
   -1.8130    1.4480   -2.6680 C   0  0  0  0  0  0  0  0  0  0  0  0
   -1.2800    0.2690   -2.1580 O   0  0  0  0  0  0  0  0  0  0  0  0
  1  2  1  0
  2  3  1  0
  2 13  2  3
  3  4  1  0
  4  5  2  3
  4 10  1  0
  5  6  1  0
  6  7  1  1
  6  8  1  0
  6  9  1  0
 10 11  1  0
 10 12  2  0
 13 14  1  0
 13 22  1  0
 14 15  2  0
 14 16  1  0
 16 17  1  0
 17 18  1  0
 18 19  1  0
 19 20  1  0
 19 21  2  0
 22 23  2  0
 22 27  1  0
 23 24  1  0
 24 25  1  0
 25 26  1  0
 26 27  1  0
M  END
