
     RDKit          3D

 27 28  0  0  0  0  0  0  0  0999 V2000
   -1.7790    5.6710   -0.0930 N   0  0  0  0  0  0  0  0  0  0  0  0
   -1.8520    4.4020   -1.2810 S   0  0  2  0  0  0  0  0  0  0  0  0
   -0.7890    4.6010   -2.3170 O   0  0  0  0  0  0  0  0  0  0  0  0
   -3.1930    4.4210   -1.9830 O   0  0  0  0  0  0  0  0  0  0  0  0
   -1.6880    2.8300   -0.5290 C   0  0  0  0  0  0  0  0  0  0  0  0
   -2.8360    2.1720   -0.1050 C   0  0  0  0  0  0  0  0  0  0  0  0
   -4.0720    2.7350   -0.2680 F   0  0  0  0  0  0  0  0  0  0  0  0
   -2.7500    0.9260    0.4960 C   0  0  0  0  0  0  0  0  0  0  0  0
   -3.9090    0.3240    0.8930 F   0  0  0  0  0  0  0  0  0  0  0  0
   -1.5230    0.3220    0.6800 C   0  0  0  0  0  0  0  0  0  0  0  0
   -1.4050   -1.2180    1.4620 S   0  0  1  0  0  0  0  0  0  0  0  0
   -0.0620   -1.3790    2.1670 O   0  0  0  0  0  0  0  0  0  0  0  0
   -2.4240   -1.2450    2.5890 O   0  0  0  0  0  0  0  0  0  0  0  0
   -1.6010   -2.6040    0.4220 C   0  0  0  0  0  0  0  0  0  0  0  0
   -2.9390   -2.6460   -0.2800 C   0  0  0  0  0  0  0  0  0  0  0  0
   -2.9620   -3.7940   -1.0720 O   0  0  0  0  0  0  0  0  0  0  0  0
   -0.4050    0.9860    0.2560 C   0  0  0  0  0  0  0  0  0  0  0  0
    0.8660    0.3990    0.4210 N   0  0  0  0  0  0  0  0  0  0  0  0
    1.4350   -0.3580   -0.6720 C   0  0  0  0  0  0  0  0  0  0  0  0
    2.7540   -0.9310   -0.3040 C   0  0  0  0  0  0  0  0  0  0  0  0
    2.7780   -2.1940    0.2550 C   0  0  0  0  0  0  0  0  0  0  0  0
    3.9910   -2.7360    0.6000 C   0  0  0  0  0  0  0  0  0  0  0  0
    5.1520   -2.0050    0.3790 C   0  0  0  0  0  0  0  0  0  0  0  0
    5.1310   -0.7480   -0.1760 C   0  0  0  0  0  0  0  0  0  0  0  0
    3.9030   -0.2030   -0.5250 C   0  0  0  0  0  0  0  0  0  0  0  0
   -0.4530    2.2330   -0.3480 C   0  0  0  0  0  0  0  0  0  0  0  0
    0.6800    2.8650   -0.7580 F   0  0  0  0  0  0  0  0  0  0  0  0
  2  1  1  1
  2  3  2  0
  2  4  2  0
  2  5  1  0
  5  6  2  0
  5 26  1  0
  6  7  1  0
  6  8  1  0
  8  9  1  0
  8 10  2  0
 10 11  1  0
 10 17  1  0
 11 12  2  0
 11 13  2  0
 11 14  1  6
 14 15  1  0
 15 16  1  0
 17 18  1  0
 17 26  2  0
 18 19  1  0
 19 20  1  0
 20 21  2  0
 20 25  1  0
 21 22  1  0
 22 23  2  0
 23 24  1  0
 24 25  2  0
 26 27  1  0
M  END
