
     RDKit          3D

 27 28  0  0  0  0  0  0  0  0999 V2000
   -4.9570    0.3310   -3.7390 C   0  0  0  0  0  0  0  0  0  0  0  0
   -4.7690    0.2230   -2.3250 O   0  0  0  0  0  0  0  0  0  0  0  0
   -3.5130    0.0170   -1.8000 C   0  0  0  0  0  0  0  0  0  0  0  0
   -2.5590   -0.0690   -2.5990 O   0  0  0  0  0  0  0  0  0  0  0  0
   -3.3380   -0.0900   -0.3620 C   0  0  0  0  0  0  0  0  0  0  0  0
   -2.2510   -0.2840    0.3470 C   0  0  0  0  0  0  0  0  0  0  0  0
   -0.8940   -0.4440   -0.1710 N   0  0  0  0  0  0  0  0  0  0  0  0
    0.2080   -0.6490    0.6790 C   0  0  0  0  0  0  0  0  0  0  0  0
    1.5800   -0.8170    0.2240 C   0  0  0  0  0  0  0  0  0  0  0  0
    2.0530   -0.8130   -0.9730 C   0  0  0  0  0  0  0  0  0  0  0  0
    1.4820   -0.6470   -2.3160 C   0  0  2  0  0  0  0  0  0  0  0  0
    2.5420   -0.7270   -3.2850 F   0  0  0  0  0  0  0  0  0  0  0  0
    1.0240    0.6300   -2.4810 F   0  0  0  0  0  0  0  0  0  0  0  0
    0.6490   -1.6530   -2.7110 F   0  0  0  0  0  0  0  0  0  0  0  0
    2.8370   -1.1020    1.5360 S   0  0  0  0  0  0  0  0  0  0  0  0
    4.4860   -0.9320    0.8810 C   0  0  0  0  0  0  0  0  0  0  0  0
    4.8710    0.4860    0.5080 C   0  0  0  0  0  0  0  0  0  0  0  0
    4.8200    1.3840    1.6870 C   0  0  0  0  0  0  0  0  0  0  0  0
    5.1770    2.7430    1.5140 N   0  0  0  0  0  0  0  0  0  0  0  0
    4.4760    0.9780    2.8040 O   0  0  0  0  0  0  0  0  0  0  0  0
   -0.0330   -0.6940    2.0110 C   0  0  0  0  0  0  0  0  0  0  0  0
   -1.3490   -0.5430    2.5880 C   0  0  0  0  0  0  0  0  0  0  0  0
   -2.4070   -0.3460    1.7640 C   0  0  0  0  0  0  0  0  0  0  0  0
   -3.8060   -0.1810    2.2570 C   0  0  0  0  0  0  0  0  0  0  0  0
   -4.6810    0.0390    0.7520 S   0  0  2  0  0  0  0  0  0  0  0  0
   -5.7130   -1.0190    0.5160 O   0  0  0  0  0  0  0  0  0  0  0  0
   -5.2460    1.4200    0.6030 O   0  0  0  0  0  0  0  0  0  0  0  0
  1  2  1  0
  2  3  1  0
  3  4  2  0
  3  5  1  0
  5  6  2  0
  5 25  1  0
  6  7  1  0
  6 23  1  0
  7  8  1  0
  8  9  1  0
  8 21  2  0
  9 10  2  3
  9 15  1  0
 10 11  1  0
 11 12  1  6
 11 13  1  0
 11 14  1  0
 15 16  1  0
 16 17  1  0
 17 18  1  0
 18 19  1  0
 18 20  2  0
 21 22  1  0
 22 23  2  0
 23 24  1  0
 25 24  1  1
 25 26  2  0
 25 27  2  0
M  END
