
     RDKit          3D

 27 28  0  0  0  0  0  0  0  0999 V2000
    0.7240   -3.8720   -0.6520 N   0  0  0  0  0  0  0  0  0  0  0  0
    1.3350   -2.6440   -0.9590 C   0  0  0  0  0  0  0  0  0  0  0  0
    2.5340   -2.5570   -1.3670 O   0  0  0  0  0  0  0  0  0  0  0  0
    0.5660   -1.3390   -0.8090 C   0  0  0  0  0  0  0  0  0  0  0  0
   -1.0060   -1.2650   -0.2730 S   0  0  0  0  0  0  0  0  0  0  0  0
   -1.4710    0.4740   -0.2590 C   0  0  0  0  0  0  0  0  0  0  0  0
   -2.7190    0.8820    0.1350 N   0  0  0  0  0  0  0  0  0  0  0  0
   -3.6610   -0.0670    0.5380 C   0  0  0  0  0  0  0  0  0  0  0  0
   -3.5630   -0.6310    1.6420 O   0  0  0  0  0  0  0  0  0  0  0  0
   -4.7860   -0.4020   -0.3570 C   0  0  0  0  0  0  0  0  0  0  0  0
   -5.7560    0.7770   -0.2630 C   0  0  1  0  0  0  0  0  0  0  0  0
   -6.8770    0.6360   -1.0370 O   0  0  0  0  0  0  0  0  0  0  0  0
   -6.0190    1.1690    1.1490 C   0  0  0  0  0  0  0  0  0  0  0  0
   -6.8080    0.2780    1.8570 O   0  0  0  0  0  0  0  0  0  0  0  0
   -0.1290    1.1220   -0.7770 S   0  0  0  0  0  0  0  0  0  0  0  0
    1.0640   -0.1220   -1.0840 C   0  0  0  0  0  0  0  0  0  0  0  0
    2.3310    0.1430   -1.5460 O   0  0  0  0  0  0  0  0  0  0  0  0
    3.3810    0.4660   -0.7150 C   0  0  0  0  0  0  0  0  0  0  0  0
    3.2350    0.4790    0.6400 C   0  0  0  0  0  0  0  0  0  0  0  0
    4.2820    0.8000    1.4750 C   0  0  0  0  0  0  0  0  0  0  0  0
    4.1400    0.8150    2.8300 F   0  0  0  0  0  0  0  0  0  0  0  0
    5.5160    1.1200    0.9510 C   0  0  0  0  0  0  0  0  0  0  0  0
    6.5630    1.4380    1.7330 F   0  0  0  0  0  0  0  0  0  0  0  0
    5.6900    1.1150   -0.4060 C   0  0  0  0  0  0  0  0  0  0  0  0
    6.9830    1.4460   -1.0460 C   0  0  0  0  0  0  0  0  0  0  0  0
    7.8370    0.3460   -0.9030 F   0  0  0  0  0  0  0  0  0  0  0  0
    4.6210    0.7880   -1.2360 C   0  0  0  0  0  0  0  0  0  0  0  0
  1  2  1  0
  2  3  2  0
  2  4  1  0
  4  5  1  0
  4 16  2  0
  5  6  1  0
  6  7  2  3
  6 15  1  0
  7  8  1  0
  8  9  2  0
  8 10  1  0
 10 11  1  0
 11 12  1  1
 11 13  1  0
 13 14  1  0
 15 16  1  0
 16 17  1  0
 17 18  1  0
 18 19  2  0
 18 27  1  0
 19 20  1  0
 20 21  1  0
 20 22  2  0
 22 23  1  0
 22 24  1  0
 24 25  1  0
 24 27  2  0
 25 26  1  0
M  END
