
     RDKit          3D

 27 28  0  0  0  0  0  0  0  0999 V2000
   -3.8520    4.0190   -0.5210 C   0  0  0  0  0  0  0  0  0  0  0  0
   -2.7780    3.7160   -1.2120 C   0  0  0  0  0  0  0  0  0  0  0  0
   -1.8650    2.6920   -0.7480 C   0  0  0  0  0  0  0  0  0  0  0  0
   -2.1160    2.0980    0.3260 O   0  0  0  0  0  0  0  0  0  0  0  0
   -0.6670    2.3910   -1.5720 C   0  0  0  0  0  0  0  0  0  0  0  0
    0.1240    1.3730   -0.9900 O   0  0  0  0  0  0  0  0  0  0  0  0
   -0.3800    0.0780   -0.7480 C   0  0  0  0  0  0  0  0  0  0  0  0
   -1.5550   -0.0570   -1.0930 O   0  0  0  0  0  0  0  0  0  0  0  0
    0.4970   -0.9470   -0.1350 C   0  0  0  0  0  0  0  0  0  0  0  0
    1.7110   -0.5200    0.1200 C   0  0  0  0  0  0  0  0  0  0  0  0
    2.8250   -1.1720    0.6930 N   0  0  0  0  0  0  0  0  0  0  0  0
    2.0820    1.2370   -0.3320 S   0  0  2  0  0  0  0  0  0  0  0  0
    3.7560    1.6060    0.0860 C   0  0  0  0  0  0  0  0  0  0  0  0
    4.0900    2.5710    0.9650 C   0  0  0  0  0  0  0  0  0  0  0  0
    5.4890    2.8720    1.3090 C   0  0  1  0  0  0  0  0  0  0  0  0
    5.9890    3.9210    0.5240 F   0  0  0  0  0  0  0  0  0  0  0  0
    5.6320    3.3000    2.6240 F   0  0  0  0  0  0  0  0  0  0  0  0
    6.3110    1.7870    1.1440 F   0  0  0  0  0  0  0  0  0  0  0  0
   -0.0560   -2.2770    0.0660 C   0  0  0  0  0  0  0  0  0  0  0  0
    0.7190   -3.4050    0.5460 C   0  0  0  0  0  0  0  0  0  0  0  0
    0.0920   -4.6810    0.7340 N   0  0  0  0  0  0  0  0  0  0  0  0
    1.9050   -3.3850    0.8200 O   0  0  0  0  0  0  0  0  0  0  0  0
   -1.3360   -2.5870   -0.2100 C   0  0  0  0  0  0  0  0  0  0  0  0
   -2.4280   -1.9320   -0.6900 O   0  0  0  0  0  0  0  0  0  0  0  0
   -3.6170   -2.2150    0.0390 C   0  0  0  0  0  0  0  0  0  0  0  0
   -3.8110   -3.7140   -0.0480 C   0  0  0  0  0  0  0  0  0  0  0  0
   -2.0770   -4.2540    0.0250 S   0  0  0  0  0  0  0  0  0  0  0  0
  1  2  2  0
  2  3  1  0
  3  4  2  0
  3  5  1  0
  5  6  1  0
  6  7  1  0
  7  8  2  0
  7  9  1  0
  9 10  2  0
  9 19  1  0
 10 11  1  0
 10 12  1  0
 12 13  1  0
 13 14  2  3
 14 15  1  0
 15 16  1  6
 15 17  1  0
 15 18  1  0
 19 20  1  0
 19 23  2  3
 20 21  1  0
 20 22  2  0
 23 24  1  0
 23 27  1  0
 24 25  1  0
 25 26  1  0
 26 27  1  0
 12  6  1  0
M  END
