
     RDKit          3D

 45 49  0  0  0  0  0  0  0  0999 V2000
   -9.3050   -1.8960    1.9150 C   0  0  0  0  0  0  0  0  0  0  0  0
   -8.7150   -1.4380    0.7580 O   0  0  0  0  0  0  0  0  0  0  0  0
   -9.5610   -0.5370    0.0940 C   0  0  0  0  0  0  0  0  0  0  0  0
   -8.9230   -0.0280   -1.1800 C   0  0  0  0  0  0  0  0  0  0  0  0
   -7.6400    0.6690   -0.7980 C   0  0  2  0  0  0  0  0  0  0  0  0
   -7.9260    1.8350    0.1440 C   0  0  0  0  0  0  0  0  0  0  0  0
   -6.9200    1.1590   -1.8770 O   0  0  0  0  0  0  0  0  0  0  0  0
   -5.6350    0.7200   -2.1340 C   0  0  0  0  0  0  0  0  0  0  0  0
   -5.1640   -0.1380   -1.3430 O   0  0  0  0  0  0  0  0  0  0  0  0
   -4.8430    1.2420   -3.3010 C   0  0  0  0  0  0  0  0  0  0  0  0
   -3.5870    0.6390   -3.3120 O   0  0  0  0  0  0  0  0  0  0  0  0
   -2.6880    0.8020   -2.2230 C   0  0  0  0  0  0  0  0  0  0  0  0
   -3.1230    1.5020   -1.3180 O   0  0  0  0  0  0  0  0  0  0  0  0
   -1.3920    0.1400   -2.3030 C   0  0  0  0  0  0  0  0  0  0  0  0
   -1.1550   -0.6400   -3.4260 C   0  0  0  0  0  0  0  0  0  0  0  0
    0.0450   -1.2760   -3.5440 C   0  0  0  0  0  0  0  0  0  0  0  0
    1.0330   -1.1840   -2.6050 C   0  0  0  0  0  0  0  0  0  0  0  0
    0.7970   -0.3890   -1.4510 C   0  0  0  0  0  0  0  0  0  0  0  0
    1.8930   -0.3010   -0.4960 C   0  0  0  0  0  0  0  0  0  0  0  0
    3.1820   -0.4760   -0.9250 N   0  0  0  0  0  0  0  0  0  0  0  0
    4.0570   -0.2810    0.1100 C   0  0  0  0  0  0  0  0  0  0  0  0
    5.4010   -0.3140    0.2850 C   0  0  0  0  0  0  0  0  0  0  0  0
    5.8960   -0.0490    1.5150 C   0  0  0  0  0  0  0  0  0  0  0  0
    7.2600   -0.0040    2.0110 C   0  0  0  0  0  0  0  0  0  0  0  0
    7.4530    0.2830    3.2010 O   0  0  0  0  0  0  0  0  0  0  0  0
    8.3530   -0.2810    1.1560 N   0  0  0  0  0  0  0  0  0  0  0  0
    9.7340   -0.2380    1.6420 C   0  0  2  0  0  0  0  0  0  0  0  0
   10.5230    0.6890    0.7720 C   0  0  0  0  0  0  0  0  0  0  0  0
   11.7360    0.0480    0.1810 C   0  0  0  0  0  0  0  0  0  0  0  0
   11.3720   -1.2310   -0.5490 C   0  0  0  0  0  0  0  0  0  0  0  0
   10.8430   -2.1350    0.4110 O   0  0  0  0  0  0  0  0  0  0  0  0
   10.2850   -1.6360    1.5850 C   0  0  0  0  0  0  0  0  0  0  0  0
   10.2180   -2.3180    2.6280 O   0  0  0  0  0  0  0  0  0  0  0  0
    4.4350    0.2600    2.4720 S   0  0  0  0  0  0  0  0  0  0  0  0
    3.2670    0.0110    1.1500 C   0  0  0  0  0  0  0  0  0  0  0  0
    1.9460   -0.0020    0.7860 N   0  0  0  0  0  0  0  0  0  0  0  0
   -0.4110    0.2600   -1.3240 C   0  0  0  0  0  0  0  0  0  0  0  0
   -0.6890    1.1540   -0.1720 C   0  0  0  0  0  0  0  0  0  0  0  0
   -1.5340    0.5590    0.8730 C   0  0  0  0  0  0  0  0  0  0  0  0
   -1.4770   -0.7950    1.0770 C   0  0  0  0  0  0  0  0  0  0  0  0
   -2.2290   -1.3570    2.0770 C   0  0  0  0  0  0  0  0  0  0  0  0
   -3.0520   -0.5930    2.8950 C   0  0  0  0  0  0  0  0  0  0  0  0
   -3.7990   -1.1410    3.8870 F   0  0  0  0  0  0  0  0  0  0  0  0
   -3.0820    0.7790    2.6560 C   0  0  0  0  0  0  0  0  0  0  0  0
   -2.3370    1.3390    1.6640 C   0  0  0  0  0  0  0  0  0  0  0  0
  1  2  1  0
  2  3  1  0
  3  4  1  0
  4  5  1  0
  5  6  1  1
  5  7  1  0
  7  8  1  0
  8  9  2  0
  8 10  1  0
 10 11  1  0
 11 12  1  0
 12 13  2  0
 12 14  1  0
 14 15  2  0
 14 37  1  0
 15 16  1  0
 16 17  2  0
 17 18  1  0
 18 19  1  0
 18 37  2  0
 19 20  2  0
 19 36  1  0
 20 21  1  0
 21 22  1  0
 21 35  2  0
 22 23  2  0
 23 24  1  0
 23 34  1  0
 24 25  2  0
 24 26  1  0
 27 26  1  6
 27 28  1  0
 27 32  1  0
 28 29  1  0
 29 30  1  0
 30 31  1  0
 31 32  1  0
 32 33  2  0
 34 35  1  0
 35 36  1  0
 37 38  1  0
 38 39  1  0
 39 40  2  0
 39 45  1  0
 40 41  1  0
 41 42  2  0
 42 43  1  0
 42 44  1  0
 44 45  2  0
M  END
