
     RDKit          3D

 46 51  0  0  0  0  0  0  0  0999 V2000
   -4.0610    1.8290   -4.3920 C   0  0  0  0  0  0  0  0  0  0  0  0
   -3.6120    1.4910   -2.9710 C   0  0  0  0  0  0  0  0  0  0  0  0
   -2.5260    0.9760   -2.9280 O   0  0  0  0  0  0  0  0  0  0  0  0
   -4.4950    1.8050   -1.8390 C   0  0  0  0  0  0  0  0  0  0  0  0
   -4.0460    1.4300   -0.4750 C   0  0  1  0  0  0  0  0  0  0  0  0
   -5.1030    1.8770    0.5540 C   0  0  0  0  0  0  0  0  0  0  0  0
   -6.4130    1.1680    0.4100 C   0  0  1  0  0  0  0  0  0  0  0  0
   -7.0250    1.1710    1.8260 C   0  0  0  0  0  0  0  0  0  0  0  0
   -7.3970    1.8110   -0.5060 C   0  0  0  0  0  0  0  0  0  0  0  0
   -6.2640   -0.2990    0.0540 C   0  0  0  0  0  0  0  0  0  0  0  0
   -4.8530   -0.7260    0.2850 C   0  0  0  0  0  0  0  0  0  0  0  0
   -4.5980   -1.8130    0.9640 C   0  0  0  0  0  0  0  0  0  0  0  0
   -3.2030   -2.2180    1.1880 C   0  0  0  0  0  0  0  0  0  0  0  0
   -2.9210   -3.2500    1.8380 O   0  0  0  0  0  0  0  0  0  0  0  0
   -2.1470   -1.4560    0.6830 N   0  0  0  0  0  0  0  0  0  0  0  0
   -0.8100   -1.4640    1.0730 C   0  0  0  0  0  0  0  0  0  0  0  0
    0.3230   -2.1440    0.4930 C   0  0  1  0  0  0  0  0  0  0  0  0
    1.5120   -1.7400    1.4430 C   0  0  0  0  0  0  0  0  0  0  0  0
    2.7080   -1.4520    0.6740 N   0  0  0  0  0  0  0  0  0  0  0  0
    3.1880   -0.1410    0.5570 C   0  0  0  0  0  0  0  0  0  0  0  0
    4.0450    0.2200   -0.2430 O   0  0  0  0  0  0  0  0  0  0  0  0
    2.6170    0.9060    1.4740 C   0  0  0  0  0  0  0  0  0  0  0  0
    3.2160    2.2390    1.2100 C   0  0  0  0  0  0  0  0  0  0  0  0
    2.6080    3.3010    0.5520 C   0  0  0  0  0  0  0  0  0  0  0  0
    3.4750    4.3020    0.5310 N   0  0  0  0  0  0  0  0  0  0  0  0
    4.6180    3.9300    1.1480 C   0  0  0  0  0  0  0  0  0  0  0  0
    5.7680    4.6520    1.3480 C   0  0  0  0  0  0  0  0  0  0  0  0
    5.8720    6.0350    0.8660 C   0  0  0  0  0  0  0  0  0  0  0  0
    6.7990    4.0230    2.0130 C   0  0  0  0  0  0  0  0  0  0  0  0
    8.2670    4.9370    2.2690 Cl  0  0  0  0  0  0  0  0  0  0  0  0
    6.6930    2.7260    2.4640 C   0  0  0  0  0  0  0  0  0  0  0  0
    5.5170    2.0380    2.2410 C   0  0  0  0  0  0  0  0  0  0  0  0
    4.4760    2.6410    1.5810 C   0  0  0  0  0  0  0  0  0  0  0  0
    3.4380   -2.4350   -0.0500 C   0  0  0  0  0  0  0  0  0  0  0  0
    4.7900   -2.1940   -0.1040 C   0  0  0  0  0  0  0  0  0  0  0  0
    5.6480   -3.0490   -0.7740 C   0  0  0  0  0  0  0  0  0  0  0  0
    5.0960   -4.1600   -1.3880 C   0  0  0  0  0  0  0  0  0  0  0  0
    5.9450   -5.1340   -2.1290 C   0  0  0  0  0  0  0  0  0  0  0  0
    3.7350   -4.4170   -1.3400 C   0  0  0  0  0  0  0  0  0  0  0  0
    2.8960   -3.5430   -0.6620 C   0  0  0  0  0  0  0  0  0  0  0  0
    1.4960   -3.9410   -0.6630 C   0  0  0  0  0  0  0  0  0  0  0  0
    1.1660   -4.6570   -1.6510 O   0  0  0  0  0  0  0  0  0  0  0  0
    0.4220   -3.6050    0.3560 C   0  0  2  0  0  0  0  0  0  0  0  0
   -0.7800   -4.3760   -0.0730 C   0  0  0  0  0  0  0  0  0  0  0  0
   -2.4660   -0.5310   -0.4360 C   0  0  0  0  0  0  0  0  0  0  0  0
   -3.7590    0.0470   -0.2220 N   0  0  0  0  0  0  0  0  0  0  0  0
  1  2  1  0
  2  3  2  0
  2  4  1  0
  5  4  1  6
  5  6  1  0
  5 46  1  0
  6  7  1  0
  7  8  1  1
  7  9  1  0
  7 10  1  0
 10 11  1  0
 11 12  2  0
 11 46  1  0
 12 13  1  0
 13 14  2  0
 13 15  1  0
 15 16  1  0
 15 45  1  0
 17 16  1  1
 17 18  1  0
 17 43  1  0
 18 19  1  0
 19 20  1  0
 19 34  1  0
 20 21  2  0
 20 22  1  0
 22 23  1  0
 23 24  2  0
 23 33  1  0
 24 25  1  0
 25 26  1  0
 26 27  2  0
 26 33  1  0
 27 28  1  0
 27 29  1  0
 29 30  1  0
 29 31  2  0
 31 32  1  0
 32 33  2  0
 34 35  2  0
 34 40  1  0
 35 36  1  0
 36 37  2  0
 37 38  1  0
 37 39  1  0
 39 40  2  0
 40 41  1  0
 41 42  2  0
 41 43  1  0
 43 44  1  6
 45 46  1  0
M  END
