
     RDKit          3D

 45 49  0  0  0  0  0  0  0  0999 V2000
   -7.8270   -2.2210   -1.0560 C   0  0  0  0  0  0  0  0  0  0  0  0
   -6.4780   -2.0050   -0.4120 C   0  0  1  0  0  0  0  0  0  0  0  0
   -5.6730   -3.2770   -0.7090 C   0  0  0  0  0  0  0  0  0  0  0  0
   -5.5050   -3.5140   -2.4910 S   0  0  0  0  0  0  0  0  0  0  0  0
   -5.8100   -0.9620   -1.0920 O   0  0  0  0  0  0  0  0  0  0  0  0
   -5.2600    0.1330   -0.4410 C   0  0  0  0  0  0  0  0  0  0  0  0
   -5.3810    0.1620    0.8170 O   0  0  0  0  0  0  0  0  0  0  0  0
   -4.5920    1.1660   -1.2250 C   0  0  2  0  0  0  0  0  0  0  0  0
   -3.5980    0.6130   -2.2200 C   0  0  0  0  0  0  0  0  0  0  0  0
   -3.4720    1.7520   -3.2410 C   0  0  0  0  0  0  0  0  0  0  0  0
   -4.6440    2.6600   -3.0220 C   0  0  2  0  0  0  0  0  0  0  0  0
   -4.3250    3.8810   -2.1870 C   0  0  0  0  0  0  0  0  0  0  0  0
   -4.3320    3.5770   -0.7060 C   0  0  0  0  0  0  0  0  0  0  0  0
   -3.9980    2.2090   -0.4240 N   0  0  0  0  0  0  0  0  0  0  0  0
   -3.1290    1.8830    0.6140 C   0  0  0  0  0  0  0  0  0  0  0  0
   -2.8140    0.7010    0.8540 O   0  0  0  0  0  0  0  0  0  0  0  0
   -2.5310    2.9510    1.5030 C   0  0  0  0  0  0  0  0  0  0  0  0
   -1.7840    2.5340    2.4640 O   0  0  0  0  0  0  0  0  0  0  0  0
   -0.9130    2.0360    3.2970 C   0  0  0  0  0  0  0  0  0  0  0  0
   -1.1010    2.1900    4.6840 C   0  0  0  0  0  0  0  0  0  0  0  0
   -0.1910    1.6650    5.5400 C   0  0  0  0  0  0  0  0  0  0  0  0
   -0.4100    1.8360    6.8890 F   0  0  0  0  0  0  0  0  0  0  0  0
    0.9080    0.9880    5.0860 C   0  0  0  0  0  0  0  0  0  0  0  0
    1.1480    0.8050    3.7150 C   0  0  0  0  0  0  0  0  0  0  0  0
    2.3270    0.0540    3.3300 C   0  0  0  0  0  0  0  0  0  0  0  0
    2.9390   -0.4720    4.3800 O   0  0  0  0  0  0  0  0  0  0  0  0
    2.9080   -0.1930    2.0890 N   0  0  0  0  0  0  0  0  0  0  0  0
    2.4160    0.2760    0.8410 C   0  0  0  0  0  0  0  0  0  0  0  0
    4.0880   -1.0480    2.0640 C   0  0  1  0  0  0  0  0  0  0  0  0
    5.0020   -0.4760    3.1740 C   0  0  0  0  0  0  0  0  0  0  0  0
    3.7830   -2.4560    2.3880 C   0  0  0  0  0  0  0  0  0  0  0  0
    4.9280   -0.8490    0.8330 C   0  0  0  0  0  0  0  0  0  0  0  0
    5.0950    0.3370    0.4370 O   0  0  0  0  0  0  0  0  0  0  0  0
    5.5300   -1.8740    0.1050 N   0  0  0  0  0  0  0  0  0  0  0  0
    6.3440   -1.7640   -1.0480 C   0  0  0  0  0  0  0  0  0  0  0  0
    6.6610   -2.9380   -1.7480 C   0  0  0  0  0  0  0  0  0  0  0  0
    7.4590   -2.9420   -2.8680 C   0  0  0  0  0  0  0  0  0  0  0  0
    7.9910   -1.7590   -3.3530 C   0  0  0  0  0  0  0  0  0  0  0  0
    7.7000   -0.6010   -2.6930 C   0  0  0  0  0  0  0  0  0  0  0  0
    6.8850   -0.6160   -1.5540 C   0  0  0  0  0  0  0  0  0  0  0  0
    8.3450    0.4390   -3.3690 O   0  0  0  0  0  0  0  0  0  0  0  0
    9.4240   -0.1410   -4.1110 C   0  0  0  0  0  0  0  0  0  0  0  0
    8.8150   -1.4040   -4.4310 O   0  0  0  0  0  0  0  0  0  0  0  0
    0.2350    1.3320    2.8720 C   0  0  0  0  0  0  0  0  0  0  0  0
   -5.5920    1.8200   -2.1970 C   0  0  0  0  0  0  0  0  0  0  0  0
  2  1  1  6
  2  3  1  0
  2  5  1  0
  3  4  1  0
  5  6  1  0
  6  7  2  0
  8  6  1  1
  8  9  1  0
  8 14  1  0
  8 45  1  0
  9 10  1  0
 11 10  1  1
 11 12  1  0
 11 45  1  0
 12 13  1  0
 13 14  1  0
 14 15  1  0
 15 16  2  0
 15 17  1  0
 17 18  1  0
 18 19  1  0
 19 20  2  0
 19 44  1  0
 20 21  1  0
 21 22  1  0
 21 23  2  0
 23 24  1  0
 24 25  1  0
 24 44  2  0
 25 26  2  0
 25 27  1  0
 27 28  1  0
 27 29  1  0
 29 30  1  1
 29 31  1  0
 29 32  1  0
 32 33  2  0
 32 34  1  0
 34 35  1  0
 35 36  2  0
 35 40  1  0
 36 37  1  0
 37 38  2  0
 38 39  1  0
 38 43  1  0
 39 40  2  0
 39 41  1  0
 41 42  1  0
 42 43  1  0
M  END
