
     RDKit          3D

 46 52  0  0  0  0  0  0  0  0999 V2000
   10.3070   -1.6500    3.0300 C   0  0  0  0  0  0  0  0  0  0  0  0
    9.7830   -1.7820    1.7380 O   0  0  0  0  0  0  0  0  0  0  0  0
    8.5200   -1.3580    1.4300 C   0  0  0  0  0  0  0  0  0  0  0  0
    7.6960   -0.7850    2.3820 C   0  0  0  0  0  0  0  0  0  0  0  0
    6.4310   -0.3780    2.0250 C   0  0  0  0  0  0  0  0  0  0  0  0
    5.9220   -0.5100    0.7350 C   0  0  0  0  0  0  0  0  0  0  0  0
    4.6350   -0.0410    0.5620 O   0  0  0  0  0  0  0  0  0  0  0  0
    3.9150   -0.0330   -0.6570 C   0  0  1  0  0  0  0  0  0  0  0  0
    2.4480   -0.2320   -0.3610 C   0  0  0  0  0  0  0  0  0  0  0  0
    1.5700    0.5020   -1.2120 N   0  0  0  0  0  0  0  0  0  0  0  0
    0.2770    0.9480   -0.9800 C   0  0  0  0  0  0  0  0  0  0  0  0
   -0.1910    1.7940   -1.8540 O   0  0  0  0  0  0  0  0  0  0  0  0
   -0.6440    0.6570    0.0390 N   0  0  0  0  0  0  0  0  0  0  0  0
   -0.5970   -0.3810    1.0340 C   0  0  0  0  0  0  0  0  0  0  0  0
   -1.9360   -1.1150    1.0220 C   0  0  0  0  0  0  0  0  0  0  0  0
   -2.8780   -0.6840   -0.0370 C   0  0  1  0  0  0  0  0  0  0  0  0
   -4.1790   -1.2570    0.1200 N   0  0  0  0  0  0  0  0  0  0  0  0
   -4.6520   -1.9250   -1.0890 C   0  0  0  0  0  0  0  0  0  0  0  0
   -6.1800   -1.8000   -1.0630 C   0  0  0  0  0  0  0  0  0  0  0  0
   -6.5990   -2.0160    0.3190 N   0  0  1  0  0  0  0  0  0  0  0  0
   -7.9490   -2.5270    0.3160 C   0  0  0  0  0  0  0  0  0  0  0  0
   -5.6730   -2.9140    0.9900 C   0  0  0  0  0  0  0  0  0  0  0  0
   -4.3380   -2.1780    1.2170 C   0  0  0  0  0  0  0  0  0  0  0  0
   -3.0200    0.7790   -0.2630 C   0  0  1  0  0  0  0  0  0  0  0  0
   -4.2520    1.4000    0.2530 C   0  0  0  0  0  0  0  0  0  0  0  0
   -5.1140    2.1290   -0.5510 C   0  0  0  0  0  0  0  0  0  0  0  0
   -6.2310    2.7260    0.0150 C   0  0  0  0  0  0  0  0  0  0  0  0
   -7.1250    3.5130   -0.8880 C   0  0  0  0  0  0  0  0  0  0  0  0
   -6.4960    2.6040    1.3510 C   0  0  0  0  0  0  0  0  0  0  0  0
   -5.6540    1.8850    2.1640 C   0  0  0  0  0  0  0  0  0  0  0  0
   -5.9190    1.7540    3.6220 C   0  0  0  0  0  0  0  0  0  0  0  0
   -4.5440    1.2940    1.5990 C   0  0  0  0  0  0  0  0  0  0  0  0
   -1.8140    1.5640    0.2200 C   0  0  0  0  0  0  0  0  0  0  0  0
    2.1250    0.7720   -2.5730 C   0  0  0  0  0  0  0  0  0  0  0  0
    3.2500    1.6930   -2.2900 C   0  0  0  0  0  0  0  0  0  0  0  0
    3.3960    2.8730   -2.9440 C   0  0  0  0  0  0  0  0  0  0  0  0
    4.4720    3.7000   -2.6130 C   0  0  0  0  0  0  0  0  0  0  0  0
    4.6520    5.2080   -3.4560 Cl  0  0  0  0  0  0  0  0  0  0  0  0
    5.3540    3.2970   -1.6320 C   0  0  0  0  0  0  0  0  0  0  0  0
    5.2100    2.0990   -0.9660 C   0  0  0  0  0  0  0  0  0  0  0  0
    4.1300    1.3030   -1.3220 C   0  0  0  0  0  0  0  0  0  0  0  0
    6.7210   -1.0680   -0.1970 C   0  0  0  0  0  0  0  0  0  0  0  0
    7.9890   -1.4820    0.1400 C   0  0  0  0  0  0  0  0  0  0  0  0
    8.6930   -2.0560   -1.0410 C   0  0  0  0  0  0  0  0  0  0  0  0
    7.5980   -2.0960   -2.0690 C   0  0  0  0  0  0  0  0  0  0  0  0
    6.5250   -1.3420   -1.5370 O   0  0  0  0  0  0  0  0  0  0  0  0
  1  2  1  0
  2  3  1  0
  3  4  2  0
  3 43  1  0
  4  5  1  0
  5  6  2  0
  6  7  1  0
  6 42  1  0
  8  7  1  1
  8  9  1  0
  8 41  1  0
  9 10  1  0
 10 11  1  0
 10 34  1  0
 11 12  2  0
 11 13  1  0
 13 14  1  0
 13 33  1  0
 14 15  1  0
 15 16  1  0
 16 17  1  1
 16 24  1  0
 17 18  1  0
 17 23  1  0
 18 19  1  0
 19 20  1  0
 20 21  1  6
 20 22  1  0
 22 23  1  0
 24 25  1  1
 24 33  1  0
 25 26  2  0
 25 32  1  0
 26 27  1  0
 27 28  1  0
 27 29  2  0
 29 30  1  0
 30 31  1  0
 30 32  2  0
 34 35  1  0
 35 36  2  0
 35 41  1  0
 36 37  1  0
 37 38  1  0
 37 39  2  0
 39 40  1  0
 40 41  2  0
 42 43  2  0
 42 46  1  0
 43 44  1  0
 44 45  1  0
 45 46  1  0
M  CHG  1  20   1
M  END
