
     RDKit          3D

 46 51  0  0  0  0  0  0  0  0999 V2000
    0.9120   -3.4420    1.3820 C   0  0  0  0  0  0  0  0  0  0  0  0
    0.0950   -3.8670    0.2120 C   0  0  1  0  0  0  0  0  0  0  0  0
   -1.2230   -4.3750    0.7080 C   0  0  0  0  0  0  0  0  0  0  0  0
   -2.2920   -3.8510    0.3050 O   0  0  0  0  0  0  0  0  0  0  0  0
   -1.2170   -5.4550    1.6400 N   0  0  0  0  0  0  0  0  0  0  0  0
   -0.0870   -6.1540    2.1930 C   0  0  0  0  0  0  0  0  0  0  0  0
   -0.7030   -7.5000    2.5670 C   0  0  0  0  0  0  0  0  0  0  0  0
   -2.0210   -7.1260    2.9880 O   0  0  0  0  0  0  0  0  0  0  0  0
   -2.3970   -6.0320    2.1890 C   0  0  0  0  0  0  0  0  0  0  0  0
   -3.5750   -5.6490    2.0050 O   0  0  0  0  0  0  0  0  0  0  0  0
   -0.1810   -2.7430   -0.7080 N   0  0  0  0  0  0  0  0  0  0  0  0
    0.3070   -2.9100   -2.0540 C   0  0  0  0  0  0  0  0  0  0  0  0
    1.7360   -2.5490   -2.2080 C   0  0  0  0  0  0  0  0  0  0  0  0
    2.5260   -3.3310   -3.0640 C   0  0  0  0  0  0  0  0  0  0  0  0
    3.8530   -3.0440   -3.2510 C   0  0  0  0  0  0  0  0  0  0  0  0
    4.3910   -1.9710   -2.5830 C   0  0  0  0  0  0  0  0  0  0  0  0
    3.6350   -1.2060   -1.7530 C   0  0  0  0  0  0  0  0  0  0  0  0
    4.1700   -0.0480   -1.0260 C   0  0  0  0  0  0  0  0  0  0  0  0
    3.3860    1.0530   -0.7320 C   0  0  0  0  0  0  0  0  0  0  0  0
    3.9190    2.1240   -0.0570 C   0  0  0  0  0  0  0  0  0  0  0  0
    5.2320    2.1720    0.3610 C   0  0  0  0  0  0  0  0  0  0  0  0
    5.7460    3.3440    1.0700 C   0  0  0  0  0  0  0  0  0  0  0  0
    4.8680    4.0320    1.8620 C   0  0  0  0  0  0  0  0  0  0  0  0
    5.3130    5.1460    2.5480 C   0  0  0  0  0  0  0  0  0  0  0  0
    6.6230    5.5540    2.4310 C   0  0  0  0  0  0  0  0  0  0  0  0
    7.5020    4.8580    1.6330 C   0  0  0  0  0  0  0  0  0  0  0  0
    9.1650    5.3540    1.4660 Cl  0  0  0  0  0  0  0  0  0  0  0  0
    7.0520    3.7570    0.9590 C   0  0  0  0  0  0  0  0  0  0  0  0
    6.0210    1.0790    0.0740 C   0  0  0  0  0  0  0  0  0  0  0  0
    5.4920   -0.0070   -0.6080 C   0  0  0  0  0  0  0  0  0  0  0  0
    2.2900   -1.4920   -1.5570 C   0  0  0  0  0  0  0  0  0  0  0  0
   -0.8460   -1.6360   -0.1770 C   0  0  0  0  0  0  0  0  0  0  0  0
   -1.1190   -1.6370    1.0710 O   0  0  0  0  0  0  0  0  0  0  0  0
   -1.2900   -0.4240   -0.9220 C   0  0  1  0  0  0  0  0  0  0  0  0
   -2.5020   -0.7400   -1.7470 C   0  0  0  0  0  0  0  0  0  0  0  0
   -3.7760   -0.6840   -0.9730 C   0  0  0  0  0  0  0  0  0  0  0  0
   -3.7350    0.1260    0.2640 C   0  0  0  0  0  0  0  0  0  0  0  0
   -2.7460    1.1040    0.4290 N   0  0  2  0  0  0  0  0  0  0  0  0
   -3.0950    2.4590    0.0540 C   0  0  1  0  0  0  0  0  0  0  0  0
   -3.8010    2.6740   -1.2080 C   0  0  0  0  0  0  0  0  0  0  0  0
   -5.2570    3.1300   -1.0520 C   0  0  0  0  0  0  0  0  0  0  0  0
   -5.3310    4.4700   -0.3910 C   0  0  1  0  0  0  0  0  0  0  0  0
   -6.7640    4.6350    0.1350 C   0  0  0  0  0  0  0  0  0  0  0  0
   -4.3380    4.5130    0.7430 C   0  0  0  0  0  0  0  0  0  0  0  0
   -3.9020    3.1360    1.1740 C   0  0  0  0  0  0  0  0  0  0  0  0
   -1.4370    0.7360   -0.0260 C   0  0  0  0  0  0  0  0  0  0  0  0
  2  1  1  1
  2  3  1  0
  2 11  1  0
  3  4  2  0
  3  5  1  0
  5  6  1  0
  5  9  1  0
  6  7  1  0
  7  8  1  0
  8  9  1  0
  9 10  2  0
 11 12  1  0
 11 32  1  0
 12 13  1  0
 13 14  2  0
 13 31  1  0
 14 15  1  0
 15 16  2  0
 16 17  1  0
 17 18  1  0
 17 31  2  0
 18 19  2  0
 18 30  1  0
 19 20  1  0
 20 21  2  0
 21 22  1  0
 21 29  1  0
 22 23  2  0
 22 28  1  0
 23 24  1  0
 24 25  2  0
 25 26  1  0
 26 27  1  0
 26 28  2  0
 29 30  2  0
 32 33  2  0
 34 32  1  1
 34 35  1  0
 34 46  1  0
 35 36  1  0
 36 37  1  0
 38 37  1  6
 38 39  1  0
 38 46  1  0
 39 40  1  6
 39 45  1  0
 40 41  1  0
 41 42  1  0
 42 43  1  1
 42 44  1  0
 44 45  1  0
M  CHG  1  38   1
M  END
