
     RDKit          3D

 45 48  0  0  0  0  0  0  0  0999 V2000
    4.8710   -3.1680    1.5610 C   0  0  0  0  0  0  0  0  0  0  0  0
    4.3290   -1.7810    1.6540 C   0  0  0  0  0  0  0  0  0  0  0  0
    4.4840   -1.0180    0.3320 C   0  0  2  0  0  0  0  0  0  0  0  0
    3.8090   -1.6760   -0.6840 O   0  0  0  0  0  0  0  0  0  0  0  0
    2.6580   -1.3440   -1.3270 C   0  0  0  0  0  0  0  0  0  0  0  0
    2.1660   -2.1590   -2.3700 C   0  0  0  0  0  0  0  0  0  0  0  0
    1.0100   -1.8550   -3.0410 C   0  0  0  0  0  0  0  0  0  0  0  0
    0.2850   -0.7460   -2.7260 C   0  0  0  0  0  0  0  0  0  0  0  0
   -0.8550   -0.4070   -3.3480 F   0  0  0  0  0  0  0  0  0  0  0  0
    0.7400    0.0850   -1.6990 C   0  0  0  0  0  0  0  0  0  0  0  0
   -0.0430    1.2860   -1.3850 C   0  0  0  0  0  0  0  0  0  0  0  0
    0.2700    2.4920   -1.9670 C   0  0  0  0  0  0  0  0  0  0  0  0
   -0.4780    3.6130   -1.6800 C   0  0  0  0  0  0  0  0  0  0  0  0
   -1.5520    3.5540   -0.8100 C   0  0  0  0  0  0  0  0  0  0  0  0
   -1.8930    2.3520   -0.2070 C   0  0  0  0  0  0  0  0  0  0  0  0
   -1.1290    1.2490   -0.5100 C   0  0  0  0  0  0  0  0  0  0  0  0
   -1.4010   -0.0600    0.1060 C   0  0  0  0  0  0  0  0  0  0  0  0
   -2.5710   -0.1240    0.9330 N   0  0  0  0  0  0  0  0  0  0  0  0
   -3.8810   -0.1320    0.3200 C   0  0  0  0  0  0  0  0  0  0  0  0
   -3.9340   -0.1890   -1.0790 C   0  0  0  0  0  0  0  0  0  0  0  0
   -5.1240   -0.2330   -1.7580 C   0  0  0  0  0  0  0  0  0  0  0  0
   -5.1640   -0.2940   -3.2550 C   0  0  0  0  0  0  0  0  0  0  0  0
   -6.2620   -0.2190   -0.9860 C   0  0  0  0  0  0  0  0  0  0  0  0
   -7.5630   -0.2590   -1.7000 C   0  0  0  0  0  0  0  0  0  0  0  0
   -6.2380   -0.1640    0.3860 C   0  0  0  0  0  0  0  0  0  0  0  0
   -5.0340   -0.1180    1.0670 C   0  0  0  0  0  0  0  0  0  0  0  0
   -4.9760   -0.0210    2.4820 N   0  0  0  0  0  0  0  0  0  0  0  0
   -6.3260   -0.5040    3.4340 S   0  0  2  0  0  0  0  0  0  0  0  0
   -6.6910   -2.2200    3.1970 C   0  0  0  0  0  0  0  0  0  0  0  0
   -7.5140    0.3280    3.1120 O   0  0  0  0  0  0  0  0  0  0  0  0
   -5.9720   -0.3570    4.9080 O   0  0  0  0  0  0  0  0  0  0  0  0
   -2.9640    2.3440    0.6520 O   0  0  0  0  0  0  0  0  0  0  0  0
   -3.8920    3.4050    0.7600 C   0  0  0  0  0  0  0  0  0  0  0  0
   -3.1110    4.6980    0.6180 C   0  0  0  0  0  0  0  0  0  0  0  0
   -2.2920    4.6770   -0.5320 O   0  0  0  0  0  0  0  0  0  0  0  0
    1.9030   -0.2370   -1.0360 C   0  0  0  0  0  0  0  0  0  0  0  0
    5.8910   -0.8620   -0.0630 C   0  0  0  0  0  0  0  0  0  0  0  0
    6.3240   -1.4250   -1.1270 O   0  0  0  0  0  0  0  0  0  0  0  0
    6.8110   -0.1020    0.6960 N   0  0  0  0  0  0  0  0  0  0  0  0
    6.4870    0.6280    1.8990 C   0  0  0  0  0  0  0  0  0  0  0  0
    8.2110   -0.0510    0.2340 C   0  0  2  0  0  0  0  0  0  0  0  0
    8.2860    0.4760   -1.1770 C   0  0  0  0  0  0  0  0  0  0  0  0
    8.7330   -1.4380    0.2180 C   0  0  0  0  0  0  0  0  0  0  0  0
    9.8910   -1.6300   -0.2210 O   0  0  0  0  0  0  0  0  0  0  0  0
    8.0100   -2.5150    0.6640 O   0  0  0  0  0  0  0  0  0  0  0  0
  1  2  1  0
  3  2  1  1
  3  4  1  0
  3 37  1  0
  4  5  1  0
  5  6  2  0
  5 36  1  0
  6  7  1  0
  7  8  2  0
  8  9  1  0
  8 10  1  0
 10 11  1  0
 10 36  2  0
 11 12  2  0
 11 16  1  0
 12 13  1  0
 13 14  2  0
 14 15  1  0
 14 35  1  0
 15 16  2  0
 15 32  1  0
 16 17  1  0
 17 18  1  0
 18 19  1  0
 19 20  2  0
 19 26  1  0
 20 21  1  0
 21 22  1  0
 21 23  2  0
 23 24  1  0
 23 25  1  0
 25 26  2  0
 26 27  1  0
 27 28  1  0
 28 29  1  1
 28 30  2  0
 28 31  2  0
 32 33  1  0
 33 34  1  0
 34 35  1  0
 37 38  2  0
 37 39  1  0
 39 40  1  0
 39 41  1  0
 41 42  1  6
 41 43  1  0
 43 44  2  0
 43 45  1  0
M  END
