
     RDKit          3D

 45 49  0  0  0  0  0  0  0  0999 V2000
    8.6740    4.0110    0.1150 C   0  0  0  0  0  0  0  0  0  0  0  0
    8.8480    2.7900   -0.4740 O   0  0  0  0  0  0  0  0  0  0  0  0
    7.8680    2.5030   -1.3820 C   0  0  0  0  0  0  0  0  0  0  0  0
    6.4850    2.4640   -0.7860 C   0  0  1  0  0  0  0  0  0  0  0  0
    5.5420    2.1360   -1.9380 C   0  0  0  0  0  0  0  0  0  0  0  0
    4.3220    1.5950   -1.3160 N   0  0  0  0  0  0  0  0  0  0  0  0
    3.4960    0.7500   -2.1080 C   0  0  0  0  0  0  0  0  0  0  0  0
    3.8810    0.5360   -3.2750 O   0  0  0  0  0  0  0  0  0  0  0  0
    2.2990    0.1590   -1.6550 N   0  0  0  0  0  0  0  0  0  0  0  0
    1.4260   -0.6960   -2.3600 C   0  0  0  0  0  0  0  0  0  0  0  0
    1.8820   -1.3430   -3.5090 C   0  0  0  0  0  0  0  0  0  0  0  0
    1.0700   -2.2670   -4.1830 C   0  0  0  0  0  0  0  0  0  0  0  0
   -0.1830   -2.5300   -3.6980 C   0  0  0  0  0  0  0  0  0  0  0  0
   -0.6600   -1.9060   -2.5670 C   0  0  0  0  0  0  0  0  0  0  0  0
    0.1590   -0.9740   -1.8890 C   0  0  0  0  0  0  0  0  0  0  0  0
   -0.3820   -0.2610   -0.7640 C   0  0  0  0  0  0  0  0  0  0  0  0
    0.1420    0.6950   -0.1610 O   0  0  0  0  0  0  0  0  0  0  0  0
   -1.6960   -0.6580   -0.2170 C   0  0  0  0  0  0  0  0  0  0  0  0
   -2.6830    0.1900    0.2390 C   0  0  0  0  0  0  0  0  0  0  0  0
   -3.8120   -0.3390    0.7530 C   0  0  0  0  0  0  0  0  0  0  0  0
   -4.9370    0.5690    1.2500 C   0  0  0  0  0  0  0  0  0  0  0  0
   -4.6030    1.9460    1.1150 O   0  0  0  0  0  0  0  0  0  0  0  0
   -3.5840    2.5170    1.8300 C   0  0  0  0  0  0  0  0  0  0  0  0
   -2.9330    1.8110    2.6390 O   0  0  0  0  0  0  0  0  0  0  0  0
   -3.2010    3.8830    1.7220 N   0  0  0  0  0  0  0  0  0  0  0  0
   -2.1100    4.4700    2.4890 C   0  0  1  0  0  0  0  0  0  0  0  0
   -1.5790    5.7740    2.0420 C   0  0  0  0  0  0  0  0  0  0  0  0
   -2.4950    5.7770    3.2180 C   0  0  0  0  0  0  0  0  0  0  0  0
   -3.9540   -1.6770    0.8070 C   0  0  0  0  0  0  0  0  0  0  0  0
   -4.9630   -2.6640    1.1760 C   0  0  0  0  0  0  0  0  0  0  0  0
   -4.7620   -3.9540    0.6450 C   0  0  0  0  0  0  0  0  0  0  0  0
   -5.5760   -5.0270    0.8890 C   0  0  0  0  0  0  0  0  0  0  0  0
   -5.3350   -6.3460    0.3200 C   0  0  0  0  0  0  0  0  0  0  0  0
   -4.3240   -6.5040   -0.4380 O   0  0  0  0  0  0  0  0  0  0  0  0
   -6.1340   -7.4310    0.5540 O   0  0  0  0  0  0  0  0  0  0  0  0
   -5.9510   -8.7160    0.0370 C   0  0  0  0  0  0  0  0  0  0  0  0
   -6.6560   -4.8030    1.7120 C   0  0  0  0  0  0  0  0  0  0  0  0
   -6.8880   -3.5660    2.2490 C   0  0  0  0  0  0  0  0  0  0  0  0
   -6.0350   -2.4770    1.9830 C   0  0  0  0  0  0  0  0  0  0  0  0
   -6.3380   -1.3090    2.5900 F   0  0  0  0  0  0  0  0  0  0  0  0
   -2.3650   -2.2210    0.0770 S   0  0  0  0  0  0  0  0  0  0  0  0
    4.1040    1.9850    0.0400 C   0  0  0  0  0  0  0  0  0  0  0  0
    5.2510    1.5200    0.9200 C   0  0  1  0  0  0  0  0  0  0  0  0
    4.9790    0.1730    1.5480 C   0  0  0  0  0  0  0  0  0  0  0  0
    6.4500    1.4990    0.2150 O   0  0  0  0  0  0  0  0  0  0  0  0
  1  2  1  0
  2  3  1  0
  4  3  1  6
  4  5  1  0
  4 45  1  0
  5  6  1  0
  6  7  1  0
  6 42  1  0
  7  8  2  0
  7  9  1  0
  9 10  1  0
 10 11  2  0
 10 15  1  0
 11 12  1  0
 12 13  2  0
 13 14  1  0
 14 15  2  0
 15 16  1  0
 16 17  2  0
 16 18  1  0
 18 19  2  0
 18 41  1  0
 19 20  1  0
 20 21  1  0
 20 29  2  0
 21 22  1  0
 22 23  1  0
 23 24  2  0
 23 25  1  0
 26 25  1  6
 26 27  1  0
 26 28  1  0
 27 28  1  0
 29 30  1  0
 29 41  1  0
 30 31  2  0
 30 39  1  0
 31 32  1  0
 32 33  1  0
 32 37  2  0
 33 34  2  0
 33 35  1  0
 35 36  1  0
 37 38  1  0
 38 39  2  0
 39 40  1  0
 42 43  1  0
 43 44  1  6
 43 45  1  0
M  END
