
     RDKit          3D

 46 50  0  0  0  0  0  0  0  0999 V2000
   11.6760   -4.6410    0.2620 C   0  0  0  0  0  0  0  0  0  0  0  0
   10.9960   -3.3180    0.1860 C   0  0  0  0  0  0  0  0  0  0  0  0
    9.7490   -3.1070    0.7150 C   0  0  0  0  0  0  0  0  0  0  0  0
    9.1520   -1.8370    0.6180 C   0  0  0  0  0  0  0  0  0  0  0  0
    9.7390   -0.7630    0.0150 C   0  0  0  0  0  0  0  0  0  0  0  0
    9.1670    0.5330   -0.1620 C   0  0  0  0  0  0  0  0  0  0  0  0
    8.0420    1.0710   -0.0480 C   0  0  0  0  0  0  0  0  0  0  0  0
    6.7110    0.6830    0.3170 C   0  0  0  0  0  0  0  0  0  0  0  0
    6.4360   -0.5020    0.6140 O   0  0  0  0  0  0  0  0  0  0  0  0
    5.6140    1.6180    0.3680 N   0  0  0  0  0  0  0  0  0  0  0  0
    4.3190    1.1120    0.7600 C   0  0  0  0  0  0  0  0  0  0  0  0
    3.3990    1.2520   -0.4300 C   0  0  0  0  0  0  0  0  0  0  0  0
    3.4830    2.6510   -0.8720 N   0  0  0  0  0  0  0  0  0  0  0  0
    2.2920    3.3970   -1.0540 C   0  0  0  0  0  0  0  0  0  0  0  0
    2.3480    4.5840   -1.4370 O   0  0  0  0  0  0  0  0  0  0  0  0
    0.9830    2.8050   -0.8010 C   0  0  0  0  0  0  0  0  0  0  0  0
    0.3690    2.8840    0.4310 C   0  0  0  0  0  0  0  0  0  0  0  0
   -0.8770    2.2920    0.5800 C   0  0  0  0  0  0  0  0  0  0  0  0
   -1.4890    1.6470   -0.4560 C   0  0  0  0  0  0  0  0  0  0  0  0
   -2.7940    1.0210   -0.2770 C   0  0  0  0  0  0  0  0  0  0  0  0
   -3.5140    1.0810    0.8850 C   0  0  0  0  0  0  0  0  0  0  0  0
   -4.7660    0.4550    1.0180 C   0  0  0  0  0  0  0  0  0  0  0  0
   -5.3320   -0.2500   -0.0120 C   0  0  0  0  0  0  0  0  0  0  0  0
   -6.6570   -0.9140    0.0700 C   0  0  0  0  0  0  0  0  0  0  0  0
   -7.3220   -0.8120    1.2930 N   0  0  0  0  0  0  0  0  0  0  0  0
   -6.7910   -1.4220    2.4360 C   0  0  0  0  0  0  0  0  0  0  0  0
   -7.6830   -2.5330    2.9880 C   0  0  0  0  0  0  0  0  0  0  0  0
   -9.0240   -2.1570    2.9330 O   0  0  0  0  0  0  0  0  0  0  0  0
   -9.5490   -2.1790    1.6510 C   0  0  0  0  0  0  0  0  0  0  0  0
   -9.6680   -0.8390    0.9950 C   0  0  1  0  0  0  0  0  0  0  0  0
  -10.8590   -0.1740    1.2590 O   0  0  0  0  0  0  0  0  0  0  0  0
  -11.4690    0.0820    0.0240 C   0  0  0  0  0  0  0  0  0  0  0  0
  -12.7800    0.8120    0.1630 C   0  0  0  0  0  0  0  0  0  0  0  0
  -13.9240   -0.1250    1.1220 Cl  0  0  0  0  0  0  0  0  0  0  0  0
   -8.4650    0.0020    1.4050 C   0  0  0  0  0  0  0  0  0  0  0  0
   -4.5910   -0.3080   -1.2010 C   0  0  0  0  0  0  0  0  0  0  0  0
   -5.1750   -1.0720   -2.3330 C   0  0  0  0  0  0  0  0  0  0  0  0
   -3.3720    0.3040   -1.3250 C   0  0  0  0  0  0  0  0  0  0  0  0
   -0.8290    1.6130   -1.6230 N   0  0  0  0  0  0  0  0  0  0  0  0
    0.3650    2.1530   -1.8520 C   0  0  0  0  0  0  0  0  0  0  0  0
    1.0460    2.0720   -3.1810 C   0  0  0  0  0  0  0  0  0  0  0  0
    4.7710    3.2520   -1.1190 C   0  0  0  0  0  0  0  0  0  0  0  0
    5.7260    2.9910    0.0580 C   0  0  0  0  0  0  0  0  0  0  0  0
   11.0220   -1.0120   -0.5180 C   0  0  0  0  0  0  0  0  0  0  0  0
   11.7350    0.1140   -1.1960 C   0  0  0  0  0  0  0  0  0  0  0  0
   11.5960   -2.2470   -0.4190 C   0  0  0  0  0  0  0  0  0  0  0  0
  1  2  1  0
  2  3  2  0
  2 46  1  0
  3  4  1  0
  4  5  2  0
  5  6  1  0
  5 44  1  0
  6  7  2  3
  7  8  1  0
  8  9  2  0
  8 10  1  0
 10 11  1  0
 10 43  1  0
 11 12  1  0
 12 13  1  0
 13 14  1  0
 13 42  1  0
 14 15  2  0
 14 16  1  0
 16 17  2  0
 16 40  1  0
 17 18  1  0
 18 19  2  0
 19 20  1  0
 19 39  1  0
 20 21  2  0
 20 38  1  0
 21 22  1  0
 22 23  2  0
 23 24  1  0
 23 36  1  0
 24 25  1  0
 25 26  1  0
 25 35  1  0
 26 27  1  0
 27 28  1  0
 28 29  1  0
 29 30  1  0
 30 31  1  1
 30 35  1  0
 31 32  1  0
 32 33  1  0
 33 34  1  0
 36 37  1  0
 36 38  2  0
 39 40  2  0
 40 41  1  0
 42 43  1  0
 44 45  1  0
 44 46  2  0
M  END
