
     RDKit          3D

 21 23  0  0  0  0  0  0  0  0999 V2000
    3.9820   -3.1300    0.0210 C   0  0  0  0  0  0  0  0  0  0  0  0
    3.4330   -1.9320    0.0930 C   0  0  0  0  0  0  0  0  0  0  0  0
    2.0830   -1.8200   -0.2230 O   0  0  0  0  0  0  0  0  0  0  0  0
    1.4350   -0.5920   -0.1700 C   0  0  0  0  0  0  0  0  0  0  0  0
    0.0770   -0.4840   -0.4880 C   0  0  0  0  0  0  0  0  0  0  0  0
   -0.5850    0.7160   -0.4430 C   0  0  0  0  0  0  0  0  0  0  0  0
   -1.9990    0.8140   -0.7650 C   0  0  0  0  0  0  0  0  0  0  0  0
   -2.9450   -0.0010   -0.4310 C   0  0  0  0  0  0  0  0  0  0  0  0
   -4.3390    0.2670   -0.8550 C   0  0  0  0  0  0  0  0  0  0  0  0
   -5.3290   -0.4930   -0.4260 C   0  0  0  0  0  0  0  0  0  0  0  0
   -5.0130   -1.6140    0.4850 C   0  0  0  0  0  0  0  0  0  0  0  0
   -3.8630   -1.4170    1.2000 O   0  0  0  0  0  0  0  0  0  0  0  0
   -2.7400   -1.2220    0.3850 C   0  0  0  0  0  0  0  0  0  0  0  0
    0.1590    1.8330   -0.0650 C   0  0  0  0  0  0  0  0  0  0  0  0
    1.4990    1.7700    0.2550 C   0  0  0  0  0  0  0  0  0  0  0  0
    2.2290    2.8940    0.6310 O   0  0  0  0  0  0  0  0  0  0  0  0
    1.5420    4.1360    0.6770 C   0  0  0  0  0  0  0  0  0  0  0  0
    2.1330    0.5390    0.1990 C   0  0  0  0  0  0  0  0  0  0  0  0
    3.4770    0.4560    0.5180 O   0  0  0  0  0  0  0  0  0  0  0  0
    4.1800   -0.7490    0.4830 C   0  0  0  0  0  0  0  0  0  0  0  0
    5.4600   -0.8110    0.7900 C   0  0  0  0  0  0  0  0  0  0  0  0
  1  2  2  0
  2  3  1  0
  2 20  1  0
  3  4  1  0
  4  5  2  0
  4 18  1  0
  5  6  1  0
  6  7  1  0
  6 14  2  0
  7  8  2  3
  8  9  1  0
  8 13  1  0
  9 10  2  0
 10 11  1  0
 11 12  1  0
 12 13  1  0
 14 15  1  0
 15 16  1  0
 15 18  2  0
 16 17  1  0
 18 19  1  0
 19 20  1  0
 20 21  2  0
M  END
