
     RDKit          3D

 21 23  0  0  0  0  0  0  0  0999 V2000
   -3.4530    1.7440    1.1360 C   0  0  0  0  0  0  0  0  0  0  0  0
   -2.8100    0.9030    0.0830 C   0  0  0  0  0  0  0  0  0  0  0  0
   -1.7020    0.1300    0.3930 C   0  0  0  0  0  0  0  0  0  0  0  0
   -1.1020   -0.6370   -0.5930 C   0  0  0  0  0  0  0  0  0  0  0  0
    0.0770   -1.4790   -0.2900 C   0  0  0  0  0  0  0  0  0  0  0  0
    1.2630   -1.0410    0.0030 C   0  0  0  0  0  0  0  0  0  0  0  0
    1.6360    0.3900    0.0540 C   0  0  0  0  0  0  0  0  0  0  0  0
    2.8810    0.6630    0.4630 C   0  0  0  0  0  0  0  0  0  0  0  0
    3.4330    2.0560    0.5860 C   0  0  0  0  0  0  0  0  0  0  0  0
    2.6680    3.0350   -0.0230 O   0  0  0  0  0  0  0  0  0  0  0  0
    1.3890    2.7390   -0.4450 C   0  0  0  0  0  0  0  0  0  0  0  0
    0.8820    1.4980   -0.4170 C   0  0  0  0  0  0  0  0  0  0  0  0
    2.3620   -2.0240    0.3310 C   0  0  0  0  0  0  0  0  0  0  0  0
    1.9640   -3.4040    0.6150 C   0  0  0  0  0  0  0  0  0  0  0  0
    0.7520   -3.7740   -0.1110 C   0  0  0  0  0  0  0  0  0  0  0  0
    0.6390   -4.9790   -0.4930 O   0  0  0  0  0  0  0  0  0  0  0  0
   -0.1860   -2.8610   -0.3490 O   0  0  0  0  0  0  0  0  0  0  0  0
   -1.6160   -0.6190   -1.8550 C   0  0  0  0  0  0  0  0  0  0  0  0
   -2.7420    0.1620   -2.1780 C   0  0  0  0  0  0  0  0  0  0  0  0
   -3.3360    0.9290   -1.1860 C   0  0  0  0  0  0  0  0  0  0  0  0
   -4.4560    1.7240   -1.4500 O   0  0  0  0  0  0  0  0  0  0  0  0
  1  2  1  0
  2  3  2  0
  2 20  1  0
  3  4  1  0
  4  5  1  0
  4 18  2  0
  5  6  2  0
  5 17  1  0
  6  7  1  0
  6 13  1  0
  7  8  2  0
  7 12  1  0
  8  9  1  0
  9 10  1  0
 10 11  1  0
 11 12  2  0
 13 14  1  0
 14 15  1  0
 15 16  2  0
 15 17  1  0
 18 19  1  0
 19 20  2  0
 20 21  1  0
M  END
