
     RDKit          3D

 21 23  0  0  0  0  0  0  0  0999 V2000
   -6.6620    0.2440   -1.4150 O   0  0  0  0  0  0  0  0  0  0  0  0
   -5.5910    0.2930   -0.7590 C   0  0  0  0  0  0  0  0  0  0  0  0
   -5.5990    0.0520    0.7170 C   0  0  0  0  0  0  0  0  0  0  0  0
   -4.4760   -0.9560    0.9960 C   0  0  0  0  0  0  0  0  0  0  0  0
   -3.2140   -0.2720    0.5620 C   0  0  0  0  0  0  0  0  0  0  0  0
   -2.2510   -0.2030    1.3200 O   0  0  0  0  0  0  0  0  0  0  0  0
   -3.1420    0.3130   -0.7710 C   0  0  0  0  0  0  0  0  0  0  0  0
   -2.0660    0.6060   -1.4310 C   0  0  0  0  0  0  0  0  0  0  0  0
   -0.6880    0.4170   -1.0040 C   0  0  0  0  0  0  0  0  0  0  0  0
    0.2120    1.4560   -1.1070 C   0  0  0  0  0  0  0  0  0  0  0  0
    1.5570    1.3130   -0.7380 C   0  0  0  0  0  0  0  0  0  0  0  0
    2.0370    0.1120   -0.2520 C   0  0  0  0  0  0  0  0  0  0  0  0
    3.4550   -0.0650    0.1410 C   0  0  0  0  0  0  0  0  0  0  0  0
    4.3410    0.8970    0.0450 C   0  0  0  0  0  0  0  0  0  0  0  0
    5.7600    0.7820    0.4180 C   0  0  0  0  0  0  0  0  0  0  0  0
    6.0770   -0.4940    0.9100 O   0  0  0  0  0  0  0  0  0  0  0  0
    5.1660   -1.5110    1.0180 C   0  0  0  0  0  0  0  0  0  0  0  0
    3.9010   -1.3560    0.6640 C   0  0  0  0  0  0  0  0  0  0  0  0
    1.1400   -0.9230   -0.1510 C   0  0  0  0  0  0  0  0  0  0  0  0
   -0.2020   -0.7660   -0.5240 C   0  0  0  0  0  0  0  0  0  0  0  0
   -4.3800    0.5660   -1.3630 O   0  0  0  0  0  0  0  0  0  0  0  0
  1  2  2  0
  2  3  1  0
  2 21  1  0
  3  4  1  0
  4  5  1  0
  5  6  2  0
  5  7  1  0
  7  8  2  3
  7 21  1  0
  8  9  1  0
  9 10  2  0
  9 20  1  0
 10 11  1  0
 11 12  2  0
 12 13  1  0
 12 19  1  0
 13 14  2  0
 13 18  1  0
 14 15  1  0
 15 16  1  0
 16 17  1  0
 17 18  2  0
 19 20  2  0
M  END
