
     RDKit          3D

 21 23  0  0  0  0  0  0  0  0999 V2000
   -4.4510    1.4770    0.3030 C   0  0  0  0  0  0  0  0  0  0  0  0
   -3.4200    0.4190    0.1500 C   0  0  0  0  0  0  0  0  0  0  0  0
   -3.7100   -0.9320    0.0760 C   0  0  0  0  0  0  0  0  0  0  0  0
   -2.7380   -1.9030   -0.0630 C   0  0  0  0  0  0  0  0  0  0  0  0
   -1.4100   -1.5130   -0.1300 C   0  0  0  0  0  0  0  0  0  0  0  0
   -0.4100   -2.4520   -0.2680 C   0  0  0  0  0  0  0  0  0  0  0  0
   -0.6560   -3.6790   -0.3370 O   0  0  0  0  0  0  0  0  0  0  0  0
    0.8990   -2.0110   -0.3280 C   0  0  0  0  0  0  0  0  0  0  0  0
    1.9530   -2.9250   -0.4660 C   0  0  0  0  0  0  0  0  0  0  0  0
    3.2620   -2.4870   -0.5210 C   0  0  0  0  0  0  0  0  0  0  0  0
    3.5070   -1.1380   -0.4400 C   0  0  0  0  0  0  0  0  0  0  0  0
    2.4950   -0.2220   -0.3060 C   0  0  0  0  0  0  0  0  0  0  0  0
    2.6590    1.2360   -0.1840 C   0  0  0  0  0  0  0  0  0  0  0  0
    3.8730    1.8260   -0.7210 C   0  0  0  0  0  0  0  0  0  0  0  0
    4.7290    1.1530   -1.3240 O   0  0  0  0  0  0  0  0  0  0  0  0
    4.1380    3.1850   -0.5800 O   0  0  0  0  0  0  0  0  0  0  0  0
    1.1560   -0.6640   -0.2500 C   0  0  0  0  0  0  0  0  0  0  0  0
    0.1640    0.1770   -0.1210 O   0  0  0  0  0  0  0  0  0  0  0  0
   -1.1070   -0.1710   -0.0570 C   0  0  0  0  0  0  0  0  0  0  0  0
   -2.1010    0.7890    0.0820 C   0  0  0  0  0  0  0  0  0  0  0  0
   -1.7080    2.2130    0.1470 C   0  0  0  0  0  0  0  0  0  0  0  0
  1  2  1  0
  2  3  2  0
  2 20  1  0
  3  4  1  0
  4  5  2  0
  5  6  1  0
  5 19  1  0
  6  7  2  0
  6  8  1  0
  8  9  2  0
  8 17  1  0
  9 10  1  0
 10 11  2  0
 11 12  1  0
 12 13  1  0
 12 17  2  0
 13 14  1  0
 14 15  2  0
 14 16  1  0
 17 18  1  0
 18 19  1  0
 19 20  2  0
 20 21  1  0
M  END
