
     RDKit          3D

 21 22  0  0  0  0  0  0  0  0999 V2000
    6.4950    0.6630    0.3070 C   0  0  0  0  0  0  0  0  0  0  0  0
    5.5180   -0.5110    0.2630 C   0  0  0  0  0  0  0  0  0  0  0  0
    4.3110   -0.0780    1.0100 C   0  0  0  0  0  0  0  0  0  0  0  0
    3.1380   -0.0430    0.3750 C   0  0  0  0  0  0  0  0  0  0  0  0
    2.8540   -0.3900   -1.0280 C   0  0  0  0  0  0  0  0  0  0  0  0
    1.3330   -0.6170   -0.9720 C   0  0  0  0  0  0  0  0  0  0  0  0
    0.8460    0.0380    0.2540 C   0  0  0  0  0  0  0  0  0  0  0  0
   -0.5080    0.3380    0.6340 C   0  0  0  0  0  0  0  0  0  0  0  0
   -0.6560    0.9840    1.7630 O   0  0  0  0  0  0  0  0  0  0  0  0
   -1.7390    0.0170   -0.0690 C   0  0  0  0  0  0  0  0  0  0  0  0
   -2.9130    0.4270    0.4620 C   0  0  0  0  0  0  0  0  0  0  0  0
   -4.1940    0.1600   -0.1540 C   0  0  0  0  0  0  0  0  0  0  0  0
   -5.3140    0.5790    0.3950 C   0  0  0  0  0  0  0  0  0  0  0  0
   -6.6190    0.3200   -0.2100 C   0  0  0  0  0  0  0  0  0  0  0  0
   -5.2390    1.2860    1.5840 O   0  0  0  0  0  0  0  0  0  0  0  0
   -4.2640   -0.5840   -1.4040 C   0  0  0  0  0  0  0  0  0  0  0  0
   -5.3300   -0.8610   -2.0080 O   0  0  0  0  0  0  0  0  0  0  0  0
   -2.9860   -1.0100   -1.9430 C   0  0  0  0  0  0  0  0  0  0  0  0
   -1.8360   -0.7170   -1.3030 C   0  0  0  0  0  0  0  0  0  0  0  0
    1.9110    0.3640    1.0200 C   0  0  0  0  0  0  0  0  0  0  0  0
    1.8410    1.0050    2.2640 O   0  0  0  0  0  0  0  0  0  0  0  0
  1  2  1  0
  2  3  1  0
  3  4  2  3
  4  5  1  0
  4 20  1  0
  5  6  1  0
  6  7  1  0
  7  8  1  0
  7 20  2  0
  8  9  2  0
  8 10  1  0
 10 11  2  0
 10 19  1  0
 11 12  1  0
 12 13  2  3
 12 16  1  0
 13 14  1  0
 13 15  1  0
 16 17  2  0
 16 18  1  0
 18 19  2  0
 20 21  1  0
M  END
