
     RDKit          3D

 21 23  0  0  0  0  0  0  0  0999 V2000
   -4.6200    1.6150    0.0410 C   0  0  0  0  0  0  0  0  0  0  0  0
   -4.0420    0.2310   -0.2390 C   0  0  1  0  0  0  0  0  0  0  0  0
   -4.6470   -0.2090   -1.5560 C   0  0  0  0  0  0  0  0  0  0  0  0
   -2.5730    0.2540   -0.2780 C   0  0  0  0  0  0  0  0  0  0  0  0
   -1.7730   -0.4520    0.4930 C   0  0  0  0  0  0  0  0  0  0  0  0
   -2.1290   -1.3950    1.5360 C   0  0  0  0  0  0  0  0  0  0  0  0
   -3.2440   -1.7640    1.9520 O   0  0  0  0  0  0  0  0  0  0  0  0
   -0.9490   -1.9190    2.1040 O   0  0  0  0  0  0  0  0  0  0  0  0
    0.1370   -1.3340    1.4510 C   0  0  0  0  0  0  0  0  0  0  0  0
    1.4910   -1.5120    1.6360 C   0  0  0  0  0  0  0  0  0  0  0  0
    2.3760   -0.8020    0.8450 C   0  0  0  0  0  0  0  0  0  0  0  0
    3.7550   -0.9660    1.0150 C   0  0  0  0  0  0  0  0  0  0  0  0
    4.6280   -0.2560    0.2250 C   0  0  0  0  0  0  0  0  0  0  0  0
    6.0130   -0.4330    0.4100 O   0  0  0  0  0  0  0  0  0  0  0  0
    4.2250    0.6320   -0.7500 C   0  0  0  0  0  0  0  0  0  0  0  0
    5.2040    1.3510   -1.5510 C   0  0  0  0  0  0  0  0  0  0  0  0
    4.8470    2.1600   -2.4400 O   0  0  0  0  0  0  0  0  0  0  0  0
    2.8680    0.7900   -0.9140 C   0  0  0  0  0  0  0  0  0  0  0  0
    1.9750    0.0860   -0.1300 C   0  0  0  0  0  0  0  0  0  0  0  0
    0.5950    0.2450   -0.2940 C   0  0  0  0  0  0  0  0  0  0  0  0
   -0.2950   -0.4550    0.4850 C   0  0  0  0  0  0  0  0  0  0  0  0
  2  1  1  6
  2  3  1  0
  2  4  1  0
  4  5  2  3
  5  6  1  0
  5 21  1  0
  6  7  2  0
  6  8  1  0
  8  9  1  0
  9 10  2  0
  9 21  1  0
 10 11  1  0
 11 12  2  0
 11 19  1  0
 12 13  1  0
 13 14  1  0
 13 15  2  0
 15 16  1  0
 15 18  1  0
 16 17  2  0
 18 19  2  0
 19 20  1  0
 20 21  2  0
M  END
