
     RDKit          3D

 34 37  0  0  0  0  0  0  0  0999 V2000
  -10.3220    1.8420   -0.1250 C   0  0  0  0  0  0  0  0  0  0  0  0
   -9.6210    0.6520    0.4260 C   0  0  0  0  0  0  0  0  0  0  0  0
  -10.2620   -0.2720    0.9710 O   0  0  0  0  0  0  0  0  0  0  0  0
   -8.1790    0.5520    0.3370 C   0  0  0  0  0  0  0  0  0  0  0  0
   -7.4510    1.5540   -0.2560 C   0  0  0  0  0  0  0  0  0  0  0  0
   -6.0830    1.4240   -0.3220 C   0  0  0  0  0  0  0  0  0  0  0  0
   -5.4020    0.3440    0.1750 C   0  0  0  0  0  0  0  0  0  0  0  0
   -3.9860    0.2490    0.0970 N   0  0  0  0  0  0  0  0  0  0  0  0
   -3.3230   -1.0120    0.4410 C   0  0  0  0  0  0  0  0  0  0  0  0
   -2.0250   -1.0710   -0.3730 C   0  0  0  0  0  0  0  0  0  0  0  0
   -1.1910    0.0310    0.1100 N   0  0  0  0  0  0  0  0  0  0  0  0
    0.2220   -0.1140    0.1990 C   0  0  0  0  0  0  0  0  0  0  0  0
    0.9030    0.8560    0.6190 O   0  0  0  0  0  0  0  0  0  0  0  0
    0.8320   -1.4030   -0.2070 C   0  0  0  0  0  0  0  0  0  0  0  0
    2.2760   -1.3490   -0.0420 N   0  0  2  0  0  0  0  0  0  0  0  0
    2.8270   -2.6280   -0.4940 C   0  0  0  0  0  0  0  0  0  0  0  0
    4.0490   -2.8760    0.3240 C   0  0  0  0  0  0  0  0  0  0  0  0
    4.0550   -1.7700    1.3490 C   0  0  1  0  0  0  0  0  0  0  0  0
    4.8560   -0.5890    0.8860 C   0  0  0  0  0  0  0  0  0  0  0  0
    4.2730    0.5070    0.8000 O   0  0  0  0  0  0  0  0  0  0  0  0
    6.2290   -0.7510    0.5660 N   0  0  0  0  0  0  0  0  0  0  0  0
    7.0740    0.2860    0.1280 C   0  0  0  0  0  0  0  0  0  0  0  0
    8.3320   -0.0800   -0.3710 C   0  0  0  0  0  0  0  0  0  0  0  0
    9.2620    0.8160   -0.8200 C   0  0  0  0  0  0  0  0  0  0  0  0
    8.9330    2.1610   -0.7760 C   0  0  0  0  0  0  0  0  0  0  0  0
    9.8670    3.0920   -1.2290 O   0  0  0  0  0  0  0  0  0  0  0  0
    7.7030    2.5270   -0.2880 C   0  0  0  0  0  0  0  0  0  0  0  0
    7.3090    4.2390   -0.2420 Cl  0  0  0  0  0  0  0  0  0  0  0  0
    6.7570    1.6050    0.1700 C   0  0  0  0  0  0  0  0  0  0  0  0
    2.6050   -1.3540    1.3710 C   0  0  0  0  0  0  0  0  0  0  0  0
   -1.8380    1.2570    0.4900 C   0  0  0  0  0  0  0  0  0  0  0  0
   -3.1400    1.3560   -0.3040 C   0  0  0  0  0  0  0  0  0  0  0  0
   -6.1370   -0.6660    0.7740 C   0  0  0  0  0  0  0  0  0  0  0  0
   -7.5310   -0.5340    0.8410 C   0  0  0  0  0  0  0  0  0  0  0  0
  1  2  1  0
  2  3  2  0
  2  4  1  0
  4  5  2  0
  4 34  1  0
  5  6  1  0
  6  7  2  0
  7  8  1  0
  7 33  1  0
  8  9  1  0
  8 32  1  0
  9 10  1  0
 10 11  1  0
 11 12  1  0
 11 31  1  0
 12 13  2  0
 12 14  1  0
 15 14  1  1
 15 16  1  0
 15 30  1  0
 16 17  1  0
 17 18  1  0
 18 19  1  6
 18 30  1  0
 19 20  2  0
 19 21  1  0
 21 22  1  0
 22 23  2  0
 22 29  1  0
 23 24  1  0
 24 25  2  0
 25 26  1  0
 25 27  1  0
 27 28  1  0
 27 29  2  0
 31 32  1  0
 33 34  2  0
M  CHG  1  15   1
M  END
