
     RDKit          3D

 34 37  0  0  0  0  0  0  0  0999 V2000
    6.8070    1.3280   -0.7540 C   0  0  0  0  0  0  0  0  0  0  0  0
    5.8720    2.2180   -1.0300 C   0  0  0  0  0  0  0  0  0  0  0  0
    6.2370    3.5110   -1.1510 F   0  0  0  0  0  0  0  0  0  0  0  0
    4.4860    1.8550   -1.2050 C   0  0  0  0  0  0  0  0  0  0  0  0
    3.6050    2.7990   -1.4790 C   0  0  0  0  0  0  0  0  0  0  0  0
    4.1070    0.4830   -1.0760 N   0  0  0  0  0  0  0  0  0  0  0  0
    4.5220   -0.5080   -1.8900 N   0  0  0  0  0  0  0  0  0  0  0  0
    3.9660   -1.6740   -1.5520 C   0  0  0  0  0  0  0  0  0  0  0  0
    4.1710   -3.0100   -2.2110 C   0  0  0  0  0  0  0  0  0  0  0  0
    3.1610   -1.4020   -0.4690 C   0  0  0  0  0  0  0  0  0  0  0  0
    2.3410   -2.2350    0.2670 C   0  0  0  0  0  0  0  0  0  0  0  0
    2.2940   -3.4590   -0.0500 O   0  0  0  0  0  0  0  0  0  0  0  0
    1.6290   -1.7250    1.2830 N   0  0  0  0  0  0  0  0  0  0  0  0
    0.7770   -2.6230    2.0360 C   0  0  0  0  0  0  0  0  0  0  0  0
   -0.6170   -2.6850    1.4250 C   0  0  0  0  0  0  0  0  0  0  0  0
   -1.2040   -1.3050    1.4480 C   0  0  0  0  0  0  0  0  0  0  0  0
   -2.5840   -1.3190    0.8530 C   0  0  0  0  0  0  0  0  0  0  0  0
   -3.0330   -2.3940    0.4470 O   0  0  0  0  0  0  0  0  0  0  0  0
   -3.3380   -0.1380    0.7640 N   0  0  0  0  0  0  0  0  0  0  0  0
   -4.6460   -0.0050    0.2310 C   0  0  0  0  0  0  0  0  0  0  0  0
   -5.4280   -1.0310   -0.2250 C   0  0  0  0  0  0  0  0  0  0  0  0
   -6.6820   -0.8080   -0.7300 C   0  0  0  0  0  0  0  0  0  0  0  0
   -7.1890    0.4660   -0.7930 C   0  0  0  0  0  0  0  0  0  0  0  0
   -8.3510    0.9530   -1.2270 N   0  0  0  0  0  0  0  0  0  0  0  0
   -8.3860    2.2890   -1.0820 C   0  0  0  0  0  0  0  0  0  0  0  0
   -7.1880    2.6730   -0.5270 C   0  0  0  0  0  0  0  0  0  0  0  0
   -6.4360    1.5230   -0.3460 C   0  0  0  0  0  0  0  0  0  0  0  0
   -5.1810    1.2900    0.1590 C   0  0  0  0  0  0  0  0  0  0  0  0
    1.7200   -0.4190    1.5750 C   0  0  0  0  0  0  0  0  0  0  0  0
    2.5320    0.4720    0.8700 C   0  0  0  0  0  0  0  0  0  0  0  0
    2.6340    1.8080    1.3800 C   0  0  0  0  0  0  0  0  0  0  0  0
    3.9290    2.4160    1.7650 C   0  0  0  0  0  0  0  0  0  0  0  0
    1.5980    2.4980    1.5240 O   0  0  0  0  0  0  0  0  0  0  0  0
    3.2600   -0.0320   -0.1730 C   0  0  0  0  0  0  0  0  0  0  0  0
  1  2  2  0
  2  3  1  0
  2  4  1  0
  4  5  2  0
  4  6  1  0
  6  7  1  0
  6 34  1  0
  7  8  2  0
  8  9  1  0
  8 10  1  0
 10 11  1  0
 10 34  2  0
 11 12  2  0
 11 13  1  0
 13 14  1  0
 13 29  1  0
 14 15  1  0
 15 16  1  0
 16 17  1  0
 17 18  2  0
 17 19  1  0
 19 20  1  0
 20 21  2  0
 20 28  1  0
 21 22  1  0
 22 23  2  0
 23 24  1  0
 23 27  1  0
 24 25  1  0
 25 26  2  0
 26 27  1  0
 27 28  2  0
 29 30  2  0
 30 31  1  0
 30 34  1  0
 31 32  1  0
 31 33  2  0
M  END
