
     RDKit          3D

 34 37  0  0  0  0  0  0  0  0999 V2000
    6.9220   -3.9440   -0.1180 C   0  0  0  0  0  0  0  0  0  0  0  0
    6.7400   -2.4710   -0.0580 C   0  0  0  0  0  0  0  0  0  0  0  0
    7.8090   -1.6290    0.1500 C   0  0  0  0  0  0  0  0  0  0  0  0
    7.6060   -0.2490    0.2050 C   0  0  0  0  0  0  0  0  0  0  0  0
    6.3590    0.3200    0.0570 C   0  0  0  0  0  0  0  0  0  0  0  0
    6.0720    1.6500    0.0980 O   0  0  0  0  0  0  0  0  0  0  0  0
    6.8360    2.7730    0.2610 C   0  0  0  0  0  0  0  0  0  0  0  0
    7.8400    3.0300   -0.8150 C   0  0  0  0  0  0  0  0  0  0  0  0
    8.5350    4.2060   -0.4830 F   0  0  0  0  0  0  0  0  0  0  0  0
    5.2650   -0.5400   -0.1540 C   0  0  0  0  0  0  0  0  0  0  0  0
    3.9390    0.0430   -0.3130 C   0  0  0  0  0  0  0  0  0  0  0  0
    2.9230   -0.5510    0.3240 C   0  0  0  0  0  0  0  0  0  0  0  0
    3.1440   -1.7100    1.1280 N   0  0  0  0  0  0  0  0  0  0  0  0
    2.1920   -2.3050    1.7530 C   0  0  0  0  0  0  0  0  0  0  0  0
    0.8750   -1.7990    1.6440 N   0  0  0  0  0  0  0  0  0  0  0  0
    0.5700   -0.7580    0.9420 C   0  0  0  0  0  0  0  0  0  0  0  0
   -0.8230   -0.3410    0.9140 C   0  0  0  0  0  0  0  0  0  0  0  0
   -1.6490   -1.0250    1.5870 O   0  0  0  0  0  0  0  0  0  0  0  0
   -1.2140    0.7870    0.1570 N   0  0  0  0  0  0  0  0  0  0  0  0
   -2.6030    1.2100    0.1100 C   0  0  0  0  0  0  0  0  0  0  0  0
   -3.4250    0.1110   -0.4870 C   0  0  0  0  0  0  0  0  0  0  0  0
   -4.8060    0.4480   -0.5770 N   0  0  0  0  0  0  0  0  0  0  0  0
   -5.2260    1.4270   -1.4530 C   0  0  0  0  0  0  0  0  0  0  0  0
   -6.1370    2.5080   -1.0130 C   0  0  0  0  0  0  0  0  0  0  0  0
   -7.4530    2.0030   -0.9230 O   0  0  0  0  0  0  0  0  0  0  0  0
   -7.7920    0.7460   -0.4370 C   0  0  0  0  0  0  0  0  0  0  0  0
   -9.1250    0.4260   -0.6660 C   0  0  0  0  0  0  0  0  0  0  0  0
   -9.5940   -0.7910   -0.2350 C   0  0  0  0  0  0  0  0  0  0  0  0
   -8.7920   -1.7160    0.4200 C   0  0  0  0  0  0  0  0  0  0  0  0
   -7.4650   -1.4140    0.6570 C   0  0  0  0  0  0  0  0  0  0  0  0
   -7.0160   -0.1870    0.2160 C   0  0  0  0  0  0  0  0  0  0  0  0
   -5.5590    0.0370    0.5310 C   0  0  0  0  0  0  0  0  0  0  0  0
    1.5930   -0.0570    0.2260 N   0  0  0  0  0  0  0  0  0  0  0  0
    5.4980   -1.8780   -0.2030 C   0  0  0  0  0  0  0  0  0  0  0  0
  1  2  1  0
  2  3  2  0
  2 34  1  0
  3  4  1  0
  4  5  2  0
  5  6  1  0
  5 10  1  0
  6  7  1  0
  7  8  1  0
  8  9  1  0
 10 11  1  0
 10 34  2  0
 11 12  2  3
 12 13  1  0
 12 33  1  0
 13 14  2  0
 14 15  1  0
 15 16  2  0
 16 17  1  0
 16 33  1  0
 17 18  2  0
 17 19  1  0
 19 20  1  0
 20 21  1  0
 21 22  1  0
 22 23  1  0
 22 32  1  0
 23 24  1  0
 24 25  1  0
 25 26  1  0
 26 27  2  0
 26 31  1  0
 27 28  1  0
 28 29  2  0
 29 30  1  0
 30 31  2  0
 31 32  1  0
M  END
