
     RDKit          3D

 35 38  0  0  0  0  0  0  0  0999 V2000
    4.4240   -1.5520    2.2090 C   0  0  0  0  0  0  0  0  0  0  0  0
    4.6810   -1.0540    0.8330 N   0  0  0  0  0  0  0  0  0  0  0  0
    5.5400    0.0060    0.6090 C   0  0  0  0  0  0  0  0  0  0  0  0
    5.3240    1.1100   -0.0860 C   0  0  0  0  0  0  0  0  0  0  0  0
    4.0360    1.2530   -0.6990 C   0  0  0  0  0  0  0  0  0  0  0  0
    2.9050    0.3700   -0.6390 N   0  0  0  0  0  0  0  0  0  0  0  0
    2.0440    0.3230    0.5030 C   0  0  0  0  0  0  0  0  0  0  0  0
    1.1990   -0.9330    0.4590 C   0  0  0  0  0  0  0  0  0  0  0  0
    0.4530   -1.1280   -0.8180 C   0  0  1  0  0  0  0  0  0  0  0  0
   -0.9890   -1.0350   -0.6890 N   0  0  2  0  0  0  0  0  0  0  0  0
   -1.6150   -1.9970   -1.5610 C   0  0  0  0  0  0  0  0  0  0  0  0
   -2.2970   -3.1040   -0.8470 C   0  0  0  0  0  0  0  0  0  0  0  0
   -1.5640   -4.1640   -0.3430 C   0  0  0  0  0  0  0  0  0  0  0  0
   -2.1740   -5.1840    0.3090 N   0  0  0  0  0  0  0  0  0  0  0  0
   -3.5050   -5.2240    0.5010 C   0  0  0  0  0  0  0  0  0  0  0  0
   -4.1230   -6.3060    1.1880 N   0  0  0  0  0  0  0  0  0  0  0  0
   -4.2260   -4.1920    0.0110 N   0  0  0  0  0  0  0  0  0  0  0  0
   -3.6600   -3.1550   -0.6450 C   0  0  0  0  0  0  0  0  0  0  0  0
   -1.4140    0.2900   -1.0250 C   0  0  0  0  0  0  0  0  0  0  0  0
   -2.8100    0.6050   -0.5020 C   0  0  2  0  0  0  0  0  0  0  0  0
   -3.0760    2.0490   -0.9620 C   0  0  0  0  0  0  0  0  0  0  0  0
   -4.4360    2.5070   -0.5500 C   0  0  0  0  0  0  0  0  0  0  0  0
   -4.7180    2.3130    0.9070 C   0  0  2  0  0  0  0  0  0  0  0  0
   -6.2440    2.2900    1.0590 C   0  0  0  0  0  0  0  0  0  0  0  0
   -4.2470    3.5020    1.7380 C   0  0  0  0  0  0  0  0  0  0  0  0
   -4.2150    1.0170    1.4540 C   0  0  0  0  0  0  0  0  0  0  0  0
   -2.8060    0.6730    1.0090 C   0  0  0  0  0  0  0  0  0  0  0  0
    1.0190   -0.2630   -1.9170 C   0  0  0  0  0  0  0  0  0  0  0  0
    2.5510   -0.4350   -1.8030 C   0  0  0  0  0  0  0  0  0  0  0  0
    3.7110    2.3020   -1.4440 N   0  0  0  0  0  0  0  0  0  0  0  0
    4.6220    3.3230   -1.6590 C   0  0  0  0  0  0  0  0  0  0  0  0
    5.7530    3.2060   -1.1140 N   0  0  0  0  0  0  0  0  0  0  0  0
    6.5300    2.3250   -0.2690 S   0  0  0  0  0  0  0  0  0  0  0  0
    7.7580    1.2360   -0.4770 C   0  0  0  0  0  0  0  0  0  0  0  0
    6.1520    2.4370    1.6210 O   0  0  0  0  0  0  0  0  0  0  0  0
  1  2  1  0
  2  3  1  0
  3  4  2  3
  4  5  1  0
  4 33  1  0
  5  6  1  0
  5 30  2  0
  6  7  1  0
  6 29  1  0
  7  8  1  0
  9  8  1  1
  9 10  1  0
  9 28  1  0
 10 11  1  6
 10 19  1  0
 11 12  1  0
 12 13  2  0
 12 18  1  0
 13 14  1  0
 14 15  2  0
 15 16  1  0
 15 17  1  0
 17 18  2  0
 20 19  1  6
 20 21  1  0
 20 27  1  0
 21 22  1  0
 22 23  1  0
 23 24  1  6
 23 25  1  0
 23 26  1  0
 26 27  1  0
 28 29  1  0
 30 31  1  0
 31 32  2  0
 32 33  1  0
 33 34  1  0
 33 35  2  0
M  CHG  1  10   1
M  END
