
     RDKit          3D

 34 37  0  0  0  0  0  0  0  0999 V2000
   -7.0740    1.7490    1.8540 C   0  0  0  0  0  0  0  0  0  0  0  0
   -5.9960    1.9980    1.1410 C   0  0  0  0  0  0  0  0  0  0  0  0
   -4.6760    1.6100    1.5980 C   0  0  0  0  0  0  0  0  0  0  0  0
   -3.6270    1.8820    0.8470 C   0  0  0  0  0  0  0  0  0  0  0  0
   -2.2410    1.5080    1.2610 C   0  0  0  0  0  0  0  0  0  0  0  0
   -1.5600    0.6720    0.4280 O   0  0  0  0  0  0  0  0  0  0  0  0
   -1.7910   -0.6100   -0.0010 C   0  0  0  0  0  0  0  0  0  0  0  0
   -2.8860   -1.3390    0.4090 C   0  0  0  0  0  0  0  0  0  0  0  0
   -3.0810   -2.6340   -0.0490 C   0  0  0  0  0  0  0  0  0  0  0  0
   -4.2890   -3.4010    0.4190 C   0  0  0  0  0  0  0  0  0  0  0  0
   -2.2150   -3.2500   -0.9160 C   0  0  0  0  0  0  0  0  0  0  0  0
   -2.4310   -4.5180   -1.3480 F   0  0  0  0  0  0  0  0  0  0  0  0
   -1.1180   -2.5080   -1.3210 C   0  0  0  0  0  0  0  0  0  0  0  0
   -0.8810   -1.2220   -0.8950 C   0  0  0  0  0  0  0  0  0  0  0  0
    0.2350   -0.4750   -1.3260 N   0  0  0  0  0  0  0  0  0  0  0  0
    1.2780   -0.9660   -2.1660 C   0  0  0  0  0  0  0  0  0  0  0  0
    2.2260   -1.9450   -1.5660 C   0  0  0  0  0  0  0  0  0  0  0  0
    2.9700   -1.4170   -0.4250 N   0  0  0  0  0  0  0  0  0  0  0  0
    2.5090   -1.5790    0.8100 C   0  0  0  0  0  0  0  0  0  0  0  0
    1.4330   -2.1960    1.0730 O   0  0  0  0  0  0  0  0  0  0  0  0
    3.2310   -1.0580    1.8380 N   0  0  0  0  0  0  0  0  0  0  0  0
    4.3780   -0.3980    1.6050 C   0  0  0  0  0  0  0  0  0  0  0  0
    4.8930   -0.2080    0.3190 C   0  0  0  0  0  0  0  0  0  0  0  0
    6.1330    0.5140    0.1700 C   0  0  0  0  0  0  0  0  0  0  0  0
    6.7830    0.7950   -0.9980 C   0  0  0  0  0  0  0  0  0  0  0  0
    7.9950    1.5110   -1.0250 C   0  0  0  0  0  0  0  0  0  0  0  0
    8.5550    1.9500    0.1470 C   0  0  0  0  0  0  0  0  0  0  0  0
    7.8820    1.6560    1.3170 C   0  0  0  0  0  0  0  0  0  0  0  0
    6.7410    0.9770    1.3030 N   0  0  0  0  0  0  0  0  0  0  0  0
    4.1400   -0.7460   -0.6900 C   0  0  0  0  0  0  0  0  0  0  0  0
    4.5220   -0.6280   -1.8820 O   0  0  0  0  0  0  0  0  0  0  0  0
   -3.7460    2.5800   -0.4460 C   0  0  0  0  0  0  0  0  0  0  0  0
   -5.0860    2.5050   -1.0950 C   0  0  0  0  0  0  0  0  0  0  0  0
   -6.1470    2.6610   -0.1030 N   0  0  0  0  0  0  0  0  0  0  0  0
  1  2  2  0
  2  3  1  0
  2 34  1  0
  3  4  2  0
  4  5  1  0
  4 32  1  0
  5  6  1  0
  6  7  1  0
  7  8  2  0
  7 14  1  0
  8  9  1  0
  9 10  1  0
  9 11  2  0
 11 12  1  0
 11 13  1  0
 13 14  2  0
 14 15  1  0
 15 16  1  0
 16 17  1  0
 17 18  1  0
 18 19  1  0
 18 30  1  0
 19 20  2  0
 19 21  1  0
 21 22  1  0
 22 23  2  0
 23 24  1  0
 23 30  1  0
 24 25  2  0
 24 29  1  0
 25 26  1  0
 26 27  2  0
 27 28  1  0
 28 29  2  0
 30 31  2  0
 32 33  1  0
 33 34  1  0
M  END
