
     RDKit          3D

 34 37  0  0  0  0  0  0  0  0999 V2000
   -3.4960    0.6730   -1.2040 C   0  0  0  0  0  0  0  0  0  0  0  0
   -3.5350    0.3590    0.2060 O   0  0  0  0  0  0  0  0  0  0  0  0
   -3.4890   -1.0250    0.4440 C   0  0  0  0  0  0  0  0  0  0  0  0
   -4.7100   -1.7150    0.3950 C   0  0  0  0  0  0  0  0  0  0  0  0
   -5.9920   -1.0500    0.1950 C   0  0  0  0  0  0  0  0  0  0  0  0
   -4.6480   -3.0970    0.6130 C   0  0  0  0  0  0  0  0  0  0  0  0
   -3.4760   -3.7350    0.8580 C   0  0  0  0  0  0  0  0  0  0  0  0
   -3.4810   -5.2330    1.1050 C   0  0  0  0  0  0  0  0  0  0  0  0
   -2.3330   -3.0150    0.8970 C   0  0  0  0  0  0  0  0  0  0  0  0
   -2.2870   -1.6020    0.6910 C   0  0  0  0  0  0  0  0  0  0  0  0
   -1.0650   -0.9710    0.9970 C   0  0  0  0  0  0  0  0  0  0  0  0
   -0.4240    0.0500    0.2710 N   0  0  0  0  0  0  0  0  0  0  0  0
    0.8890    0.3950    0.7730 C   0  0  0  0  0  0  0  0  0  0  0  0
    1.5380   -0.6550    1.3810 N   0  0  0  0  0  0  0  0  0  0  0  0
    2.8370   -0.5920    1.7000 C   0  0  0  0  0  0  0  0  0  0  0  0
    3.5830   -1.8140    2.2160 C   0  0  0  0  0  0  0  0  0  0  0  0
    4.3290   -2.3690    0.9950 C   0  0  0  0  0  0  0  0  0  0  0  0
    3.4230   -2.6710    0.0200 O   0  0  0  0  0  0  0  0  0  0  0  0
    4.0030   -3.0510   -1.1900 C   0  0  0  0  0  0  0  0  0  0  0  0
    4.8470   -4.2630   -0.9990 C   0  0  0  0  0  0  0  0  0  0  0  0
    4.0840   -5.3100   -0.5520 F   0  0  0  0  0  0  0  0  0  0  0  0
    3.5250    0.5230    1.4230 N   0  0  0  0  0  0  0  0  0  0  0  0
    2.9180    1.5880    0.8220 C   0  0  0  0  0  0  0  0  0  0  0  0
    3.3310    2.8000    0.4570 N   0  0  0  0  0  0  0  0  0  0  0  0
    2.3350    3.5100   -0.0760 C   0  0  0  0  0  0  0  0  0  0  0  0
    2.2740    4.8190   -0.5720 C   0  0  0  0  0  0  0  0  0  0  0  0
    1.0640    5.2770   -1.0300 C   0  0  0  0  0  0  0  0  0  0  0  0
    0.9890    6.6490   -1.5640 C   0  0  0  0  0  0  0  0  0  0  0  0
   -0.0060    4.4830   -0.9880 N   0  0  0  0  0  0  0  0  0  0  0  0
   -1.2690    5.0530   -1.4970 C   0  0  0  0  0  0  0  0  0  0  0  0
    0.0170    3.2180   -0.5190 C   0  0  0  0  0  0  0  0  0  0  0  0
   -1.0460    2.6300   -0.5420 O   0  0  0  0  0  0  0  0  0  0  0  0
    1.1920    2.7040   -0.0590 C   0  0  0  0  0  0  0  0  0  0  0  0
    1.5670    1.5160    0.4920 C   0  0  0  0  0  0  0  0  0  0  0  0
  1  2  1  0
  2  3  1  0
  3  4  2  0
  3 10  1  0
  4  5  1  0
  4  6  1  0
  6  7  2  0
  7  8  1  0
  7  9  1  0
  9 10  2  0
 10 11  1  0
 11 12  1  0
 12 13  1  0
 13 14  2  0
 13 34  1  0
 14 15  1  0
 15 16  1  0
 15 22  2  0
 16 17  1  0
 17 18  1  0
 18 19  1  0
 19 20  1  0
 20 21  1  0
 22 23  1  0
 23 24  1  0
 23 34  2  0
 24 25  1  0
 25 26  1  0
 25 33  2  0
 26 27  2  0
 27 28  1  0
 27 29  1  0
 29 30  1  0
 29 31  1  0
 31 32  2  0
 31 33  1  0
 33 34  1  0
M  END
