
     RDKit          3D

 34 37  0  0  0  0  0  0  0  0999 V2000
    7.6310    2.4620   -0.0860 C   0  0  0  0  0  0  0  0  0  0  0  0
    6.2380    1.9070    0.1750 C   0  0  0  0  0  0  0  0  0  0  0  0
    5.5630    1.4580   -0.8500 C   0  0  0  0  0  0  0  0  0  0  0  0
    4.2040    0.8930   -0.7490 C   0  0  0  0  0  0  0  0  0  0  0  0
    3.5240    0.4180   -1.9230 C   0  0  0  0  0  0  0  0  0  0  0  0
    2.4230   -0.0700   -2.0320 N   0  0  0  0  0  0  0  0  0  0  0  0
    1.3820   -0.3860   -1.2010 C   0  0  0  0  0  0  0  0  0  0  0  0
    0.2560    0.3990   -0.8710 C   0  0  0  0  0  0  0  0  0  0  0  0
   -0.5510   -0.3100   -0.0150 C   0  0  0  0  0  0  0  0  0  0  0  0
   -1.8060    0.1840    0.5390 C   0  0  0  0  0  0  0  0  0  0  0  0
   -2.2270    1.3300    0.2470 O   0  0  0  0  0  0  0  0  0  0  0  0
   -2.5930   -0.5610    1.4000 O   0  0  0  0  0  0  0  0  0  0  0  0
   -3.7930   -0.1410    1.9550 C   0  0  0  0  0  0  0  0  0  0  0  0
   -4.8340    0.1860    0.9490 C   0  0  0  0  0  0  0  0  0  0  0  0
   -4.5220    0.0500   -0.2480 O   0  0  0  0  0  0  0  0  0  0  0  0
   -6.1270    0.6320    1.2830 N   0  0  0  0  0  0  0  0  0  0  0  0
   -7.1820    0.9670    0.4230 C   0  0  0  0  0  0  0  0  0  0  0  0
   -8.3810    1.3860    0.9590 C   0  0  0  0  0  0  0  0  0  0  0  0
   -9.4680    1.7350    0.2110 C   0  0  0  0  0  0  0  0  0  0  0  0
   -9.3870    1.6730   -1.1560 C   0  0  0  0  0  0  0  0  0  0  0  0
  -10.4840    2.0260   -1.8820 F   0  0  0  0  0  0  0  0  0  0  0  0
   -8.2200    1.2630   -1.7310 C   0  0  0  0  0  0  0  0  0  0  0  0
   -7.1190    0.9110   -0.9350 C   0  0  0  0  0  0  0  0  0  0  0  0
    0.0540   -1.4750    0.1700 N   0  0  0  0  0  0  0  0  0  0  0  0
    1.1810   -1.5530   -0.5050 N   0  0  0  0  0  0  0  0  0  0  0  0
    2.1150   -2.6240   -0.5750 C   0  0  0  0  0  0  0  0  0  0  0  0
    2.0170   -3.5820   -1.5840 C   0  0  0  0  0  0  0  0  0  0  0  0
    2.9170   -4.6170   -1.6550 C   0  0  0  0  0  0  0  0  0  0  0  0
    3.9430   -4.7430   -0.7340 C   0  0  0  0  0  0  0  0  0  0  0  0
    4.0520   -3.8040    0.2690 C   0  0  0  0  0  0  0  0  0  0  0  0
    3.1450   -2.7690    0.3330 C   0  0  0  0  0  0  0  0  0  0  0  0
    3.7050    0.8690    0.4640 C   0  0  0  0  0  0  0  0  0  0  0  0
    4.3970    1.3430    1.6010 N   0  0  0  0  0  0  0  0  0  0  0  0
    5.7000    1.8890    1.5320 C   0  0  0  0  0  0  0  0  0  0  0  0
  1  2  1  0
  2  3  2  0
  2 34  1  0
  3  4  1  0
  4  5  1  0
  4 32  2  0
  5  6  2  3
  6  7  1  0
  7  8  2  0
  7 25  1  0
  8  9  1  0
  9 10  1  0
  9 24  2  0
 10 11  2  0
 10 12  1  0
 12 13  1  0
 13 14  1  0
 14 15  2  0
 14 16  1  0
 16 17  1  0
 17 18  2  0
 17 23  1  0
 18 19  1  0
 19 20  2  0
 20 21  1  0
 20 22  1  0
 22 23  2  0
 24 25  1  0
 25 26  1  0
 26 27  2  0
 26 31  1  0
 27 28  1  0
 28 29  2  0
 29 30  1  0
 30 31  2  0
 32 33  1  0
 33 34  1  0
M  END
