
     RDKit          3D

 34 37  0  0  0  0  0  0  0  0999 V2000
   -5.7860   -3.2590    2.9260 C   0  0  0  0  0  0  0  0  0  0  0  0
   -6.2050   -2.5850    1.6470 C   0  0  0  0  0  0  0  0  0  0  0  0
   -5.5860   -1.4760    1.3040 C   0  0  0  0  0  0  0  0  0  0  0  0
   -5.9960   -0.8400    0.0740 N   0  0  0  0  0  0  0  0  0  0  0  0
   -6.9380   -1.2560   -0.7710 C   0  0  0  0  0  0  0  0  0  0  0  0
   -7.0230   -0.3410   -1.8250 C   0  0  0  0  0  0  0  0  0  0  0  0
   -6.1100    0.5910   -1.5490 N   0  0  0  0  0  0  0  0  0  0  0  0
   -5.4700    0.2950   -0.3820 C   0  0  0  0  0  0  0  0  0  0  0  0
   -4.3850    1.1260    0.2150 C   0  0  0  0  0  0  0  0  0  0  0  0
   -3.1860    0.9680   -0.6170 N   0  0  0  0  0  0  0  0  0  0  0  0
   -2.9840    1.8820   -1.7380 C   0  0  0  0  0  0  0  0  0  0  0  0
   -2.1460    3.0480   -1.3140 C   0  0  0  0  0  0  0  0  0  0  0  0
   -2.7410    3.8600   -0.2020 C   0  0  0  0  0  0  0  0  0  0  0  0
   -2.2340   -0.0300   -0.3730 C   0  0  0  0  0  0  0  0  0  0  0  0
   -2.4230   -0.7930    0.6390 O   0  0  0  0  0  0  0  0  0  0  0  0
   -1.0180   -0.3150   -1.1500 C   0  0  0  0  0  0  0  0  0  0  0  0
    0.2100    0.0250   -0.4220 C   0  0  0  0  0  0  0  0  0  0  0  0
    1.0540    0.9450   -0.3810 N   0  0  0  0  0  0  0  0  0  0  0  0
    2.0850    1.0070    0.4040 C   0  0  0  0  0  0  0  0  0  0  0  0
    2.3010   -0.0080    1.2790 C   0  0  0  0  0  0  0  0  0  0  0  0
    3.2820   -0.3030    2.2830 C   0  0  0  0  0  0  0  0  0  0  0  0
    4.6110   -0.0010    1.8700 N   0  0  0  0  0  0  0  0  0  0  0  0
    5.2860   -0.5860    0.7840 C   0  0  0  0  0  0  0  0  0  0  0  0
    4.7100   -1.4480    0.0930 O   0  0  0  0  0  0  0  0  0  0  0  0
    6.6710   -0.2250    0.4110 C   0  0  0  0  0  0  0  0  0  0  0  0
    7.4500    0.7210    1.0760 C   0  0  0  0  0  0  0  0  0  0  0  0
    8.6480    0.8020    0.4880 N   0  0  0  0  0  0  0  0  0  0  0  0
    8.5980   -0.0910   -0.5320 C   0  0  0  0  0  0  0  0  0  0  0  0
    9.6040   -0.3720   -1.4340 C   0  0  0  0  0  0  0  0  0  0  0  0
    9.3310   -1.3100   -2.3780 N   0  0  0  0  0  0  0  0  0  0  0  0
    8.1420   -1.9420   -2.4420 C   0  0  0  0  0  0  0  0  0  0  0  0
    7.1620   -1.6370   -1.5280 C   0  0  0  0  0  0  0  0  0  0  0  0
    7.4190   -0.7050   -0.5800 N   0  0  0  0  0  0  0  0  0  0  0  0
    0.9280   -1.0790    0.9170 S   0  0  0  0  0  0  0  0  0  0  0  0
  1  2  1  0
  2  3  2  3
  3  4  1  0
  4  5  1  0
  4  8  1  0
  5  6  2  0
  6  7  1  0
  7  8  2  0
  8  9  1  0
  9 10  1  0
 10 11  1  0
 10 14  1  0
 11 12  1  0
 12 13  1  0
 14 15  2  0
 14 16  1  0
 16 17  1  0
 17 18  2  0
 17 34  1  0
 18 19  1  0
 19 20  2  0
 20 21  1  0
 20 34  1  0
 21 22  1  0
 22 23  1  0
 23 24  2  0
 23 25  1  0
 25 26  2  0
 25 33  1  0
 26 27  1  0
 27 28  2  0
 28 29  1  0
 28 33  1  0
 29 30  2  0
 30 31  1  0
 31 32  2  0
 32 33  1  0
M  END
