
     RDKit          3D

 34 37  0  0  0  0  0  0  0  0999 V2000
    1.5030    0.9870   -2.9300 C   0  0  0  0  0  0  0  0  0  0  0  0
    2.8720    0.8940   -2.3170 C   0  0  0  0  0  0  0  0  0  0  0  0
    3.9580    0.9500   -3.0670 C   0  0  0  0  0  0  0  0  0  0  0  0
    5.2930    0.8640   -2.5080 C   0  0  0  0  0  0  0  0  0  0  0  0
    5.4900    0.7200   -1.1810 C   0  0  0  0  0  0  0  0  0  0  0  0
    4.3510    0.6490   -0.2900 C   0  0  0  0  0  0  0  0  0  0  0  0
    4.4550    0.5090    1.0040 C   0  0  0  0  0  0  0  0  0  0  0  0
    5.7320    0.4060    1.7080 C   0  0  0  0  0  0  0  0  0  0  0  0
    5.8960    1.7500    2.8900 S   0  0  2  0  0  0  0  0  0  0  0  0
    7.3400    1.9310    3.2790 O   0  0  0  0  0  0  0  0  0  0  0  0
    5.0690    1.4000    4.0800 O   0  0  0  0  0  0  0  0  0  0  0  0
    3.0530    0.7430   -0.9220 N   0  0  0  0  0  0  0  0  0  0  0  0
    1.9490    0.6760   -0.0680 N   0  0  0  0  0  0  0  0  0  0  0  0
    1.2660   -0.3670    0.1440 C   0  0  0  0  0  0  0  0  0  0  0  0
    0.1070   -0.3660    1.0650 C   0  0  0  0  0  0  0  0  0  0  0  0
   -0.8830   -1.3330    0.7350 N   0  0  0  0  0  0  0  0  0  0  0  0
   -0.5080   -2.6930    0.9080 C   0  0  0  0  0  0  0  0  0  0  0  0
   -1.6130   -3.6040    0.5250 C   0  0  0  0  0  0  0  0  0  0  0  0
   -1.6680   -4.1700   -0.7330 C   0  0  0  0  0  0  0  0  0  0  0  0
   -2.6940   -5.0280   -1.1180 C   0  0  0  0  0  0  0  0  0  0  0  0
   -3.6840   -5.3140   -0.2010 C   0  0  0  0  0  0  0  0  0  0  0  0
   -3.5910   -4.7400    1.0120 N   0  0  0  0  0  0  0  0  0  0  0  0
   -2.6150   -3.9260    1.3750 N   0  0  0  0  0  0  0  0  0  0  0  0
   -1.6990   -1.0290   -0.3890 C   0  0  0  0  0  0  0  0  0  0  0  0
   -2.4600    0.2340   -0.1890 C   0  0  0  0  0  0  0  0  0  0  0  0
   -2.0350    1.5020   -0.4910 C   0  0  0  0  0  0  0  0  0  0  0  0
   -3.0470    2.3950   -0.1500 C   0  0  0  0  0  0  0  0  0  0  0  0
   -3.1680    3.7370   -0.2290 N   0  0  0  0  0  0  0  0  0  0  0  0
   -4.2800    4.3780    0.1790 C   0  0  0  0  0  0  0  0  0  0  0  0
   -5.2980    3.5740    0.6870 C   0  0  0  0  0  0  0  0  0  0  0  0
   -5.1870    2.2040    0.7720 C   0  0  0  0  0  0  0  0  0  0  0  0
   -6.2880    1.3780    1.3160 C   0  0  0  0  0  0  0  0  0  0  0  0
   -4.0510    1.6400    0.3470 N   0  0  0  0  0  0  0  0  0  0  0  0
   -3.7120    0.3640    0.3270 N   0  0  0  0  0  0  0  0  0  0  0  0
  1  2  1  0
  2  3  2  0
  2 12  1  0
  3  4  1  0
  4  5  2  0
  5  6  1  0
  6  7  2  3
  6 12  1  0
  7  8  1  0
  9  8  1  6
  9 10  2  0
  9 11  2  0
 12 13  1  0
 13 14  2  3
 14 15  1  0
 15 16  1  0
 16 17  1  0
 16 24  1  0
 17 18  1  0
 18 19  2  0
 18 23  1  0
 19 20  1  0
 20 21  2  0
 21 22  1  0
 22 23  2  0
 24 25  1  0
 25 26  1  0
 25 34  2  0
 26 27  2  0
 27 28  1  0
 27 33  1  0
 28 29  2  0
 29 30  1  0
 30 31  2  0
 31 32  1  0
 31 33  1  0
 33 34  1  0
M  END
