
     RDKit          3D

 34 37  0  0  0  0  0  0  0  0999 V2000
   -3.2270   -1.8140    2.9630 C   0  0  0  0  0  0  0  0  0  0  0  0
   -2.9230   -2.6620    1.8000 C   0  0  0  0  0  0  0  0  0  0  0  0
   -2.1920   -2.1750    0.7820 C   0  0  0  0  0  0  0  0  0  0  0  0
   -1.9360   -3.1050   -0.3450 C   0  0  0  0  0  0  0  0  0  0  0  0
   -1.7350   -0.7730    0.8600 C   0  0  0  0  0  0  0  0  0  0  0  0
   -2.1030    0.0700   -0.2880 C   0  0  0  0  0  0  0  0  0  0  0  0
   -1.5470    0.1630   -1.5230 C   0  0  0  0  0  0  0  0  0  0  0  0
   -0.3840   -0.4790   -2.1180 C   0  0  0  0  0  0  0  0  0  0  0  0
   -0.1600   -0.2720   -3.3830 O   0  0  0  0  0  0  0  0  0  0  0  0
    0.5320   -1.3060   -1.4600 N   0  0  0  0  0  0  0  0  0  0  0  0
    1.6370   -1.8450   -2.2690 C   0  0  0  0  0  0  0  0  0  0  0  0
    2.5350   -2.7080   -1.4340 C   0  0  0  0  0  0  0  0  0  0  0  0
    3.2770   -1.8140   -0.0550 S   0  0  0  0  0  0  0  0  0  0  0  0
    4.4260   -0.5360   -0.5980 C   0  0  0  0  0  0  0  0  0  0  0  0
    5.6410   -1.0840   -1.2650 C   0  0  0  0  0  0  0  0  0  0  0  0
    6.4690   -1.9950   -0.4100 C   0  0  0  0  0  0  0  0  0  0  0  0
    6.9880   -1.3460    0.8150 C   0  0  0  0  0  0  0  0  0  0  0  0
    7.7480   -2.0190    1.7070 N   0  0  0  0  0  0  0  0  0  0  0  0
    8.0610   -1.2160    2.6690 O   0  0  0  0  0  0  0  0  0  0  0  0
    7.5360   -0.0300    2.4490 C   0  0  0  0  0  0  0  0  0  0  0  0
    7.7140    1.1160    3.3760 C   0  0  0  0  0  0  0  0  0  0  0  0
    6.8700   -0.1180    1.2940 N   0  0  0  0  0  0  0  0  0  0  0  0
   -2.3020    1.0820   -2.2150 N   0  0  0  0  0  0  0  0  0  0  0  0
   -3.2750    1.5480   -1.4780 N   0  0  0  0  0  0  0  0  0  0  0  0
   -4.3270    2.4080   -1.4850 C   0  0  0  0  0  0  0  0  0  0  0  0
   -4.6600    3.1240   -2.4960 N   0  0  0  0  0  0  0  0  0  0  0  0
   -5.7430    4.0410   -2.5770 C   0  0  0  0  0  0  0  0  0  0  0  0
   -5.5330    5.3480   -1.8960 C   0  0  0  0  0  0  0  0  0  0  0  0
   -4.9260    2.3680   -0.2880 N   0  0  0  0  0  0  0  0  0  0  0  0
   -5.9280    2.8510    0.4710 C   0  0  0  0  0  0  0  0  0  0  0  0
   -5.8770    2.2610    1.7160 C   0  0  0  0  0  0  0  0  0  0  0  0
   -4.8180    1.4190    1.6660 N   0  0  0  0  0  0  0  0  0  0  0  0
   -4.2320    1.4700    0.4650 C   0  0  0  0  0  0  0  0  0  0  0  0
   -3.2020    0.9670   -0.2950 C   0  0  0  0  0  0  0  0  0  0  0  0
  1  2  1  0
  2  3  2  3
  3  4  1  0
  3  5  1  0
  5  6  1  0
  6  7  1  0
  6 34  2  0
  7  8  1  0
  7 23  2  0
  8  9  2  0
  8 10  1  0
 10 11  1  0
 11 12  1  0
 12 13  1  0
 13 14  1  0
 14 15  1  0
 15 16  1  0
 16 17  1  0
 17 18  2  0
 17 22  1  0
 18 19  1  0
 19 20  1  0
 20 21  1  0
 20 22  2  0
 23 24  1  0
 24 25  1  0
 24 34  1  0
 25 26  2  3
 25 29  1  0
 26 27  1  0
 27 28  1  0
 29 30  1  0
 29 33  1  0
 30 31  2  0
 31 32  1  0
 32 33  2  0
 33 34  1  0
M  END
