
     RDKit          3D

 34 38  0  0  0  0  0  0  0  0999 V2000
   -6.7700   -1.8380   -0.0870 C   0  0  0  0  0  0  0  0  0  0  0  0
   -5.4870   -1.3870    0.5490 C   0  0  0  0  0  0  0  0  0  0  0  0
   -4.4870   -0.9270   -0.4970 C   0  0  2  0  0  0  0  0  0  0  0  0
   -3.2440   -0.4940    0.1550 N   0  0  0  0  0  0  0  0  0  0  0  0
   -2.0640   -1.2420   -0.0600 C   0  0  0  0  0  0  0  0  0  0  0  0
   -2.1230   -2.2710   -0.8140 O   0  0  0  0  0  0  0  0  0  0  0  0
   -0.7760   -0.9000    0.5380 C   0  0  0  0  0  0  0  0  0  0  0  0
    0.3060   -1.7680    0.4220 C   0  0  0  0  0  0  0  0  0  0  0  0
    1.5180   -1.4390    0.9810 C   0  0  0  0  0  0  0  0  0  0  0  0
    1.7100   -0.2580    1.6660 C   0  0  0  0  0  0  0  0  0  0  0  0
    0.6350    0.5930    1.7740 C   0  0  0  0  0  0  0  0  0  0  0  0
    1.0750    1.6960    2.4950 C   0  0  0  0  0  0  0  0  0  0  0  0
    2.3950    1.4340    2.7750 C   0  0  0  0  0  0  0  0  0  0  0  0
    2.7980    0.2620    2.2840 N   0  0  0  0  0  0  0  0  0  0  0  0
    4.3410   -0.4860    2.4000 S   0  0  1  0  0  0  0  0  0  0  0  0
    5.2600    0.3090    3.3050 O   0  0  0  0  0  0  0  0  0  0  0  0
    4.1900   -1.8200    3.0740 O   0  0  0  0  0  0  0  0  0  0  0  0
    5.0850   -0.7770    0.8470 C   0  0  0  0  0  0  0  0  0  0  0  0
    5.3310   -2.0840    0.4010 C   0  0  0  0  0  0  0  0  0  0  0  0
    5.8900   -2.3430   -0.8230 C   0  0  0  0  0  0  0  0  0  0  0  0
    6.2240   -1.3130   -1.6490 C   0  0  0  0  0  0  0  0  0  0  0  0
    6.0100    0.0100   -1.2740 C   0  0  0  0  0  0  0  0  0  0  0  0
    6.3640    1.0330   -2.1270 C   0  0  0  0  0  0  0  0  0  0  0  0
    6.1550    2.3340   -1.7450 C   0  0  0  0  0  0  0  0  0  0  0  0
    5.5910    2.5520   -0.5030 C   0  0  0  0  0  0  0  0  0  0  0  0
    5.2320    1.5460    0.3580 C   0  0  0  0  0  0  0  0  0  0  0  0
    5.4400    0.2360   -0.0230 C   0  0  0  0  0  0  0  0  0  0  0  0
   -0.6120    0.2850    1.2160 C   0  0  0  0  0  0  0  0  0  0  0  0
   -5.0470    0.2410   -1.1920 C   0  0  0  0  0  0  0  0  0  0  0  0
   -5.4990    0.1180   -2.4800 C   0  0  0  0  0  0  0  0  0  0  0  0
   -6.0420    1.2100   -3.1670 C   0  0  0  0  0  0  0  0  0  0  0  0
   -6.1040    2.4050   -2.5010 C   0  0  0  0  0  0  0  0  0  0  0  0
   -5.6560    2.5690   -1.1950 C   0  0  0  0  0  0  0  0  0  0  0  0
   -5.1200    1.4480   -0.5460 C   0  0  0  0  0  0  0  0  0  0  0  0
  1  2  1  0
  3  2  1  1
  3  4  1  0
  3 29  1  0
  4  5  1  0
  5  6  2  0
  5  7  1  0
  7  8  2  0
  7 28  1  0
  8  9  1  0
  9 10  2  0
 10 11  1  0
 10 14  1  0
 11 12  1  0
 11 28  2  0
 12 13  2  0
 13 14  1  0
 15 14  1  6
 15 16  2  0
 15 17  2  0
 15 18  1  0
 18 19  2  0
 18 27  1  0
 19 20  1  0
 20 21  2  0
 21 22  1  0
 22 23  2  0
 22 27  1  0
 23 24  1  0
 24 25  2  0
 25 26  1  0
 26 27  2  0
 29 30  2  0
 29 34  1  0
 30 31  1  0
 31 32  2  0
 32 33  1  0
 33 34  2  0
M  END
