
     RDKit          3D

 34 37  0  0  0  0  0  0  0  0999 V2000
   -5.9060   -0.8590   -1.9810 C   0  0  0  0  0  0  0  0  0  0  0  0
   -5.0510   -0.2930   -1.0270 O   0  0  0  0  0  0  0  0  0  0  0  0
   -5.4930    0.6740   -0.1360 C   0  0  0  0  0  0  0  0  0  0  0  0
   -6.8300    1.0770   -0.2150 C   0  0  0  0  0  0  0  0  0  0  0  0
   -7.3320    2.0310    0.6380 C   0  0  0  0  0  0  0  0  0  0  0  0
   -6.5040    2.5900    1.5740 C   0  0  0  0  0  0  0  0  0  0  0  0
   -5.1990    2.2020    1.6570 C   0  0  0  0  0  0  0  0  0  0  0  0
   -4.6820    1.2270    0.7870 C   0  0  0  0  0  0  0  0  0  0  0  0
   -3.2630    0.8770    0.9550 C   0  0  0  0  0  0  0  0  0  0  0  0
   -2.6160    1.4910    1.8820 O   0  0  0  0  0  0  0  0  0  0  0  0
   -2.5860   -0.0580    0.1910 N   0  0  0  0  0  0  0  0  0  0  0  0
   -1.2050   -0.3770    0.3980 C   0  0  0  0  0  0  0  0  0  0  0  0
   -0.5850   -0.2480    1.6060 C   0  0  0  0  0  0  0  0  0  0  0  0
    0.7630   -0.5630    1.6800 C   0  0  0  0  0  0  0  0  0  0  0  0
    1.5640   -1.0050    0.6360 C   0  0  0  0  0  0  0  0  0  0  0  0
    0.9390   -1.1380   -0.6240 C   0  0  0  0  0  0  0  0  0  0  0  0
   -0.4160   -0.8090   -0.6300 C   0  0  0  0  0  0  0  0  0  0  0  0
    1.5550   -1.5100   -1.8630 N   0  0  0  0  0  0  0  0  0  0  0  0
    2.3810   -0.7410   -2.8200 C   0  0  0  0  0  0  0  0  0  0  0  0
    2.0270   -0.9710   -4.0770 O   0  0  0  0  0  0  0  0  0  0  0  0
    3.4460    0.1470   -2.3360 C   0  0  0  0  0  0  0  0  0  0  0  0
    4.7420   -0.2710   -2.2480 C   0  0  0  0  0  0  0  0  0  0  0  0
    5.2260   -0.3590   -0.8630 C   0  0  0  0  0  0  0  0  0  0  0  0
    4.8280    0.8850   -0.0510 C   0  0  0  0  0  0  0  0  0  0  0  0
    4.7000    0.7350    1.2190 C   0  0  0  0  0  0  0  0  0  0  0  0
    4.9220   -0.6560    1.7340 C   0  0  0  0  0  0  0  0  0  0  0  0
    3.9520   -1.6170    1.5210 C   0  0  0  0  0  0  0  0  0  0  0  0
    4.3720   -2.9730    2.0960 C   0  0  2  0  0  0  0  0  0  0  0  0
    5.6090   -2.9180    2.6750 F   0  0  0  0  0  0  0  0  0  0  0  0
    4.4410   -3.9070    1.0810 F   0  0  0  0  0  0  0  0  0  0  0  0
    2.8570   -1.2790    0.9050 O   0  0  0  0  0  0  0  0  0  0  0  0
    4.4480    1.9600   -1.0340 C   0  0  0  0  0  0  0  0  0  0  0  0
    3.2720    1.4490   -1.6610 C   0  0  0  0  0  0  0  0  0  0  0  0
    2.2620    2.3930   -1.4390 O   0  0  0  0  0  0  0  0  0  0  0  0
  1  2  1  0
  2  3  1  0
  3  4  2  0
  3  8  1  0
  4  5  1  0
  5  6  2  0
  6  7  1  0
  7  8  2  0
  8  9  1  0
  9 10  2  0
  9 11  1  0
 11 12  1  0
 12 13  2  0
 12 17  1  0
 13 14  1  0
 14 15  2  0
 15 16  1  0
 15 31  1  0
 16 17  2  0
 16 18  1  0
 18 19  1  0
 19 20  2  0
 19 21  1  0
 21 22  2  0
 21 33  1  0
 22 23  1  0
 23 24  1  0
 24 25  2  0
 24 32  1  0
 25 26  1  0
 26 27  2  0
 27 28  1  0
 27 31  1  0
 28 29  1  6
 28 30  1  0
 32 33  2  0
 33 34  1  0
M  END
