
     RDKit          3D

 34 37  0  0  0  0  0  0  0  0999 V2000
   -4.0340    5.5330    3.2870 C   0  0  0  0  0  0  0  0  0  0  0  0
   -2.9680    4.6620    2.7000 C   0  0  0  0  0  0  0  0  0  0  0  0
   -3.4890    3.2390    2.6020 C   0  0  0  0  0  0  0  0  0  0  0  0
   -2.4740    2.3430    2.0540 N   0  0  0  0  0  0  0  0  0  0  0  0
   -2.9040    1.0280    1.7150 C   0  0  0  0  0  0  0  0  0  0  0  0
   -4.2150    0.6870    1.8410 N   0  0  0  0  0  0  0  0  0  0  0  0
   -4.7130   -0.5130    1.4970 C   0  0  0  0  0  0  0  0  0  0  0  0
   -6.0780   -0.8830    1.6170 N   0  0  0  0  0  0  0  0  0  0  0  0
   -6.5010   -2.2380    1.3940 C   0  0  0  0  0  0  0  0  0  0  0  0
   -7.0330    0.1500    1.9480 C   0  0  0  0  0  0  0  0  0  0  0  0
   -3.8490   -1.4140    1.0000 N   0  0  0  0  0  0  0  0  0  0  0  0
   -2.5810   -1.1290    0.8620 C   0  0  0  0  0  0  0  0  0  0  0  0
   -2.0120    0.1250    1.2160 C   0  0  0  0  0  0  0  0  0  0  0  0
   -0.5950    0.3170    1.0160 C   0  0  0  0  0  0  0  0  0  0  0  0
    0.2330    1.1830    1.6050 N   0  0  0  0  0  0  0  0  0  0  0  0
    1.4430    0.9860    1.0860 O   0  0  0  0  0  0  0  0  0  0  0  0
    1.4660    0.0650    0.2060 C   0  0  0  0  0  0  0  0  0  0  0  0
    2.4730   -0.5650   -0.6530 C   0  0  0  0  0  0  0  0  0  0  0  0
    2.0310   -1.2270   -1.6490 C   0  0  0  0  0  0  0  0  0  0  0  0
    2.6830   -1.9810   -2.6850 C   0  0  0  0  0  0  0  0  0  0  0  0
    2.0060   -2.6320   -3.6820 C   0  0  0  0  0  0  0  0  0  0  0  0
    0.5400   -2.5990   -3.7540 C   0  0  0  0  0  0  0  0  0  0  0  0
   -0.6200   -2.5820   -3.7930 N   0  0  0  0  0  0  0  0  0  0  0  0
    2.9830   -3.2660   -4.5530 C   0  0  0  0  0  0  0  0  0  0  0  0
    4.2660   -2.4780   -4.2620 C   0  0  0  0  0  0  0  0  0  0  0  0
    4.0420   -2.1970   -2.8800 O   0  0  0  0  0  0  0  0  0  0  0  0
    3.8850   -0.4050   -0.4010 C   0  0  0  0  0  0  0  0  0  0  0  0
    4.9370   -0.6660   -0.8720 N   0  0  0  0  0  0  0  0  0  0  0  0
    6.1390   -0.4250   -0.4300 C   0  0  0  0  0  0  0  0  0  0  0  0
    7.4090   -0.7820   -1.1660 C   0  0  0  0  0  0  0  0  0  0  0  0
    7.1650   -1.3810   -2.5060 C   0  0  0  0  0  0  0  0  0  0  0  0
    6.1920    0.2380    0.7790 C   0  0  0  0  0  0  0  0  0  0  0  0
    4.4610    0.4650    1.1840 S   0  0  0  0  0  0  0  0  0  0  0  0
    0.1550   -0.3690    0.1590 N   0  0  0  0  0  0  0  0  0  0  0  0
  1  2  1  0
  2  3  1  0
  3  4  1  0
  4  5  1  0
  5  6  2  0
  5 13  1  0
  6  7  1  0
  7  8  1  0
  7 11  2  0
  8  9  1  0
  8 10  1  0
 11 12  1  0
 12 13  2  0
 13 14  1  0
 14 15  2  0
 14 34  1  0
 15 16  1  0
 16 17  1  0
 17 18  1  0
 17 34  2  0
 18 19  2  3
 18 27  1  0
 19 20  1  0
 20 21  2  0
 20 26  1  0
 21 22  1  0
 21 24  1  0
 22 23  3  0
 24 25  1  0
 25 26  1  0
 27 28  2  0
 27 33  1  0
 28 29  1  0
 29 30  1  0
 29 32  2  0
 30 31  1  0
 32 33  1  0
M  END
