
     RDKit          3D

 34 36  0  0  0  0  0  0  0  0999 V2000
    0.8690   -3.9800   -0.4350 O   0  0  0  0  0  0  0  0  0  0  0  0
    1.0860   -2.7710   -0.8370 C   0  0  0  0  0  0  0  0  0  0  0  0
    0.0750   -1.8260   -0.2960 C   0  0  0  0  0  0  0  0  0  0  0  0
   -1.2830   -2.5190   -0.5060 C   0  0  0  0  0  0  0  0  0  0  0  0
   -1.6330   -3.2860    0.7140 C   0  0  0  0  0  0  0  0  0  0  0  0
   -2.5940   -2.9810    1.5700 C   0  0  0  0  0  0  0  0  0  0  0  0
   -3.4990   -1.8070    1.4580 C   0  0  0  0  0  0  0  0  0  0  0  0
   -4.5630   -1.9870    0.4110 C   0  0  0  0  0  0  0  0  0  0  0  0
   -5.1300   -0.7350   -0.0420 N   0  0  0  0  0  0  0  0  0  0  0  0
   -4.6270    0.6070    0.0210 C   0  0  0  0  0  0  0  0  0  0  0  0
   -3.3830    1.1240   -0.2260 C   0  0  0  0  0  0  0  0  0  0  0  0
   -3.2170    2.4880   -0.0500 C   0  0  0  0  0  0  0  0  0  0  0  0
   -4.2890    3.3020    0.3630 C   0  0  0  0  0  0  0  0  0  0  0  0
   -5.5420    2.8070    0.6140 C   0  0  0  0  0  0  0  0  0  0  0  0
   -5.6860    1.4580    0.4360 C   0  0  0  0  0  0  0  0  0  0  0  0
   -6.9600    0.9820    0.6730 F   0  0  0  0  0  0  0  0  0  0  0  0
   -2.0780    3.2640   -0.2230 O   0  0  0  0  0  0  0  0  0  0  0  0
   -0.7830    3.2690    0.2380 C   0  0  0  0  0  0  0  0  0  0  0  0
    0.1050    3.7200   -0.8920 C   0  0  0  0  0  0  0  0  0  0  0  0
   -0.4340    4.3920   -1.8280 O   0  0  0  0  0  0  0  0  0  0  0  0
    1.4870    3.4410   -0.9700 N   0  0  0  0  0  0  0  0  0  0  0  0
    2.2500    2.2370   -0.8590 C   0  0  0  0  0  0  0  0  0  0  0  0
    3.3790    2.4830   -0.0340 C   0  0  0  0  0  0  0  0  0  0  0  0
    4.3210    1.5400    0.2650 C   0  0  0  0  0  0  0  0  0  0  0  0
    4.1080    0.3090   -0.2940 C   0  0  0  0  0  0  0  0  0  0  0  0
    5.0880   -0.6750    0.0130 O   0  0  0  0  0  0  0  0  0  0  0  0
    6.1800   -0.4010    0.8230 C   0  0  0  0  0  0  0  0  0  0  0  0
    6.9980   -1.6870    0.9200 C   0  0  0  0  0  0  0  0  0  0  0  0
    7.4270   -2.0980   -0.3210 F   0  0  0  0  0  0  0  0  0  0  0  0
    3.0020   -0.0040   -1.1270 C   0  0  0  0  0  0  0  0  0  0  0  0
    2.0800    0.9840   -1.3980 C   0  0  0  0  0  0  0  0  0  0  0  0
    3.0980   -1.3970   -1.5670 C   0  0  0  0  0  0  0  0  0  0  0  0
    4.3090   -1.8150   -1.9530 O   0  0  0  0  0  0  0  0  0  0  0  0
    2.1670   -2.4600   -1.6850 N   0  0  0  0  0  0  0  0  0  0  0  0
  1  2  2  0
  2  3  1  0
  2 34  1  0
  3  4  1  0
  4  5  1  0
  5  6  2  0
  6  7  1  0
  7  8  1  0
  8  9  1  0
  9 10  1  0
 10 11  1  0
 10 15  2  0
 11 12  2  0
 12 13  1  0
 12 17  1  0
 13 14  2  0
 14 15  1  0
 15 16  1  0
 17 18  1  0
 18 19  1  0
 19 20  2  0
 19 21  1  0
 21 22  1  0
 22 23  1  0
 22 31  2  0
 23 24  2  0
 24 25  1  0
 25 26  1  0
 25 30  2  0
 26 27  1  0
 27 28  1  0
 28 29  1  0
 30 31  1  0
 30 32  1  0
 32 33  2  0
 32 34  1  0
M  END
