
     RDKit          3D

 34 37  0  0  0  0  0  0  0  0999 V2000
  -10.3910   -0.2260    0.2650 C   0  0  0  0  0  0  0  0  0  0  0  0
   -9.0210    0.3100    0.4810 C   0  0  0  0  0  0  0  0  0  0  0  0
   -8.6500    1.3210    1.3470 C   0  0  0  0  0  0  0  0  0  0  0  0
   -7.2760    1.4930    1.2230 C   0  0  0  0  0  0  0  0  0  0  0  0
   -6.8370    0.6080    0.3070 N   0  0  0  0  0  0  0  0  0  0  0  0
   -5.4930    0.4070   -0.1570 C   0  0  0  0  0  0  0  0  0  0  0  0
   -5.1030   -0.8020   -0.5950 N   0  0  0  0  0  0  0  0  0  0  0  0
   -3.8650   -1.0350   -1.0330 C   0  0  0  0  0  0  0  0  0  0  0  0
   -3.0070    0.0050   -1.0210 N   0  0  0  0  0  0  0  0  0  0  0  0
   -3.3440    1.2130   -0.6000 C   0  0  0  0  0  0  0  0  0  0  0  0
   -2.3130    2.3040   -0.6250 C   0  0  0  0  0  0  0  0  0  0  0  0
   -1.0330    1.7710   -1.0370 N   0  0  0  0  0  0  0  0  0  0  0  0
   -0.3570    0.7440   -0.3010 C   0  0  0  0  0  0  0  0  0  0  0  0
    0.6260    0.0800   -0.2990 N   0  0  0  0  0  0  0  0  0  0  0  0
    1.0590   -0.8350    0.5070 C   0  0  0  0  0  0  0  0  0  0  0  0
    2.3440   -1.6060    0.3760 C   0  0  0  0  0  0  0  0  0  0  0  0
    2.6230   -2.4540    1.2320 O   0  0  0  0  0  0  0  0  0  0  0  0
    3.1990   -1.3530   -0.7050 N   0  0  0  0  0  0  0  0  0  0  0  0
    2.8550   -0.3540   -1.6920 C   0  0  0  0  0  0  0  0  0  0  0  0
    4.4240   -2.1040   -0.8260 C   0  0  0  0  0  0  0  0  0  0  0  0
    5.5970   -1.4890   -0.1440 C   0  0  0  0  0  0  0  0  0  0  0  0
    5.9270   -0.1090   -0.6740 C   0  0  0  0  0  0  0  0  0  0  0  0
    7.1080    0.4680    0.0310 C   0  0  0  0  0  0  0  0  0  0  0  0
    8.4460    0.1180   -0.1790 C   0  0  0  0  0  0  0  0  0  0  0  0
    8.8990   -0.9030   -1.1590 C   0  0  0  0  0  0  0  0  0  0  0  0
    9.1590    0.8730    0.6580 N   0  0  0  0  0  0  0  0  0  0  0  0
    8.3980    1.6520    1.3600 O   0  0  0  0  0  0  0  0  0  0  0  0
    7.1620    1.4390    1.0140 C   0  0  0  0  0  0  0  0  0  0  0  0
    5.9380    2.1190    1.5680 C   0  0  0  0  0  0  0  0  0  0  0  0
    0.1830   -1.0730    1.5830 C   0  0  0  0  0  0  0  0  0  0  0  0
   -1.2010    0.1030    1.2690 S   0  0  0  0  0  0  0  0  0  0  0  0
   -4.5910    1.4200   -0.1650 N   0  0  0  0  0  0  0  0  0  0  0  0
   -7.8790   -0.1230   -0.1590 C   0  0  0  0  0  0  0  0  0  0  0  0
   -7.8040   -1.2010   -1.1810 C   0  0  0  0  0  0  0  0  0  0  0  0
  1  2  1  0
  2  3  1  0
  2 33  2  0
  3  4  2  0
  4  5  1  0
  5  6  1  0
  5 33  1  0
  6  7  2  0
  6 32  1  0
  7  8  1  0
  8  9  2  0
  9 10  1  0
 10 11  1  0
 10 32  2  0
 11 12  1  0
 12 13  1  0
 13 14  2  0
 13 31  1  0
 14 15  1  0
 15 16  1  0
 15 30  2  0
 16 17  2  0
 16 18  1  0
 18 19  1  0
 18 20  1  0
 20 21  1  0
 21 22  1  0
 22 23  1  0
 23 24  1  0
 23 28  2  0
 24 25  1  0
 24 26  2  0
 26 27  1  0
 27 28  1  0
 28 29  1  0
 30 31  1  0
 33 34  1  0
M  END
