
     RDKit          3D

 34 37  0  0  0  0  0  0  0  0999 V2000
   -0.4270   -3.2370   -1.0750 O   0  0  0  0  0  0  0  0  0  0  0  0
   -1.1030   -2.1390   -0.9410 C   0  0  0  0  0  0  0  0  0  0  0  0
   -0.8150   -1.0730   -1.8880 C   0  0  0  0  0  0  0  0  0  0  0  0
   -0.4590    0.2600   -1.3420 C   0  0  0  0  0  0  0  0  0  0  0  0
   -0.1480    0.2800    0.1210 C   0  0  0  0  0  0  0  0  0  0  0  0
    1.2050   -0.0350    0.3560 C   0  0  0  0  0  0  0  0  0  0  0  0
    1.7610   -0.0800    1.6080 C   0  0  0  0  0  0  0  0  0  0  0  0
    3.1570   -0.3680    1.8540 C   0  0  0  0  0  0  0  0  0  0  0  0
    3.4750   -0.4850    3.0980 O   0  0  0  0  0  0  0  0  0  0  0  0
    4.2100   -0.5380    0.9220 N   0  0  0  0  0  0  0  0  0  0  0  0
    4.2780   -0.4550   -0.5040 C   0  0  0  0  0  0  0  0  0  0  0  0
    5.7760   -0.4990   -0.8690 C   0  0  0  0  0  0  0  0  0  0  0  0
    6.4430   -0.1070    0.4630 C   0  0  0  0  0  0  0  0  0  0  0  0
    5.5660   -0.9100    1.3880 C   0  0  0  0  0  0  0  0  0  0  0  0
    0.9070    0.2060    2.6710 C   0  0  0  0  0  0  0  0  0  0  0  0
   -0.3960    0.5070    2.4250 C   0  0  0  0  0  0  0  0  0  0  0  0
   -1.0020    0.5630    1.1480 C   0  0  0  0  0  0  0  0  0  0  0  0
   -2.3760    0.8860    1.1470 N   0  0  0  0  0  0  0  0  0  0  0  0
   -3.2510    1.5610    0.2920 C   0  0  0  0  0  0  0  0  0  0  0  0
   -3.8340    2.6390    0.7490 O   0  0  0  0  0  0  0  0  0  0  0  0
   -3.6780    1.2930   -1.0890 C   0  0  0  0  0  0  0  0  0  0  0  0
   -3.7880    2.3950   -2.0560 C   0  0  0  0  0  0  0  0  0  0  0  0
   -3.5500    3.6960   -1.7790 C   0  0  0  0  0  0  0  0  0  0  0  0
   -3.7650    4.4830   -2.9810 C   0  0  0  0  0  0  0  0  0  0  0  0
   -4.4790    3.6480   -3.7420 C   0  0  0  0  0  0  0  0  0  0  0  0
   -4.1140    2.3900   -3.4680 C   0  0  0  0  0  0  0  0  0  0  0  0
   -3.9610    0.0950   -1.5500 C   0  0  0  0  0  0  0  0  0  0  0  0
   -4.3540   -0.0080   -2.8770 F   0  0  0  0  0  0  0  0  0  0  0  0
   -3.9240   -1.0900   -0.9030 O   0  0  0  0  0  0  0  0  0  0  0  0
   -3.2950   -1.6730    0.1160 C   0  0  0  0  0  0  0  0  0  0  0  0
   -2.0570   -2.1550    0.1550 C   0  0  0  0  0  0  0  0  0  0  0  0
   -1.5690   -2.8210    1.4180 C   0  0  1  0  0  0  0  0  0  0  0  0
   -2.5980   -2.8110    2.3490 O   0  0  0  0  0  0  0  0  0  0  0  0
   -1.2830   -4.1530    1.1730 F   0  0  0  0  0  0  0  0  0  0  0  0
  1  2  2  0
  2  3  1  0
  2 31  1  0
  3  4  1  0
  4  5  1  0
  5  6  2  0
  5 17  1  0
  6  7  1  0
  7  8  1  0
  7 15  2  0
  8  9  2  0
  8 10  1  0
 10 11  1  0
 10 14  1  0
 11 12  1  0
 12 13  1  0
 13 14  1  0
 15 16  1  0
 16 17  2  0
 17 18  1  0
 18 19  1  0
 19 20  2  0
 19 21  1  0
 21 22  1  0
 21 27  2  0
 22 23  2  0
 22 26  1  0
 23 24  1  0
 24 25  2  0
 25 26  2  0
 27 28  1  0
 27 29  1  0
 29 30  1  0
 30 31  2  0
 31 32  1  0
 32 33  1  1
 32 34  1  0
M  END
