
     RDKit          3D

 17 17  0  0  0  0  0  0  0  0999 V2000
    1.6000    1.9120   -1.3270 O   0  0  0  0  0  0  0  0  0  0  0  0
    0.5310    1.9530   -0.6500 C   0  0  0  0  0  0  0  0  0  0  0  0
    0.7360    2.2080    0.8030 C   0  0  0  0  0  0  0  0  0  0  0  0
    1.9890    1.8160    1.2610 O   0  0  0  0  0  0  0  0  0  0  0  0
    2.9360    1.0860    0.6080 C   0  0  0  0  0  0  0  0  0  0  0  0
    4.1350    1.4310    0.4250 O   0  0  0  0  0  0  0  0  0  0  0  0
    2.5590   -0.1930    0.0740 N   0  0  0  0  0  0  0  0  0  0  0  0
    1.5310   -1.0060    0.6890 C   0  0  0  0  0  0  0  0  0  0  0  0
    1.0790   -2.0360   -0.3220 C   0  0  1  0  0  0  0  0  0  0  0  0
    0.5840   -3.1550    0.3640 O   0  0  0  0  0  0  0  0  0  0  0  0
   -0.0790   -1.3980   -1.1060 C   0  0  0  0  0  0  0  0  0  0  0  0
   -1.0110   -0.9740   -0.1870 O   0  0  0  0  0  0  0  0  0  0  0  0
   -2.0180   -0.0580   -0.2360 C   0  0  0  0  0  0  0  0  0  0  0  0
   -3.3650   -0.5000    0.3020 C   0  0  0  0  0  0  0  0  0  0  0  0
   -3.2670   -0.8610    1.6440 O   0  0  0  0  0  0  0  0  0  0  0  0
   -1.8800    1.1780   -0.7210 C   0  0  0  0  0  0  0  0  0  0  0  0
   -0.7280    1.7680   -1.2540 N   0  0  0  0  0  0  0  0  0  0  0  0
  1  2  2  0
  2  3  1  0
  2 17  1  0
  3  4  1  0
  4  5  1  0
  5  6  2  0
  5  7  1  0
  7  8  1  0
  8  9  1  0
  9 10  1  1
  9 11  1  0
 11 12  1  0
 12 13  1  0
 13 14  1  0
 13 16  2  0
 14 15  1  0
 16 17  1  0
M  END
