
     RDKit          3D

 16 16  0  0  0  0  0  0  0  0999 V2000
    4.8020    0.9560    0.3490 C   0  0  0  0  0  0  0  0  0  0  0  0
    3.5070    0.6150    0.8250 O   0  0  0  0  0  0  0  0  0  0  0  0
    2.5460    0.2080   -0.0840 C   0  0  0  0  0  0  0  0  0  0  0  0
    2.8560    0.1530   -1.2940 O   0  0  0  0  0  0  0  0  0  0  0  0
    1.1530   -0.1700    0.3000 C   0  0  2  0  0  0  0  0  0  0  0  0
    1.3400   -1.2920    1.3150 C   0  0  0  0  0  0  0  0  0  0  0  0
    0.4560   -0.5290   -0.8460 N   0  0  0  0  0  0  0  0  0  0  0  0
   -0.8960   -0.7490   -0.9480 C   0  0  1  0  0  0  0  0  0  0  0  0
   -1.5200   -1.8100   -0.1820 C   0  0  0  0  0  0  0  0  0  0  0  0
   -1.0170   -2.8270    0.3090 O   0  0  0  0  0  0  0  0  0  0  0  0
   -2.8950   -1.4790   -0.0760 N   0  0  0  0  0  0  0  0  0  0  0  0
   -3.1910   -0.3900   -1.0300 C   0  0  0  0  0  0  0  0  0  0  0  0
   -1.8570    0.3950   -0.8660 C   0  0  2  0  0  0  0  0  0  0  0  0
   -1.7280    1.2850   -1.9300 O   0  0  0  0  0  0  0  0  0  0  0  0
   -2.0020    1.0620    0.4540 C   0  0  0  0  0  0  0  0  0  0  0  0
   -3.1960    1.8410    0.3910 O   0  0  0  0  0  0  0  0  0  0  0  0
  1  2  1  0
  2  3  1  0
  3  4  2  0
  3  5  1  0
  5  6  1  1
  5  7  1  0
  8  7  1  1
  8  9  1  0
  8 13  1  0
  9 10  2  0
  9 11  1  0
 11 12  1  0
 12 13  1  0
 13 14  1  6
 13 15  1  0
 15 16  1  0
M  END
