
     RDKit          3D

 17 17  0  0  0  0  0  0  0  0999 V2000
    3.4660   -2.2570   -0.4980 N   0  0  0  0  0  0  0  0  0  0  0  0
    3.0140   -0.9300   -0.6530 C   0  0  0  0  0  0  0  0  0  0  0  0
    3.8410   -0.0100   -0.5080 O   0  0  0  0  0  0  0  0  0  0  0  0
    1.6070   -0.6480   -0.9760 C   0  0  1  0  0  0  0  0  0  0  0  0
    0.6600   -1.3740   -0.0140 C   0  0  0  0  0  0  0  0  0  0  0  0
   -0.5720   -1.4820   -0.6180 O   0  0  0  0  0  0  0  0  0  0  0  0
   -1.5620   -1.8580    0.2910 C   0  0  0  0  0  0  0  0  0  0  0  0
   -2.2890   -0.6090    0.8140 C   0  0  2  0  0  0  0  0  0  0  0  0
   -3.5720   -1.0660    1.1890 O   0  0  0  0  0  0  0  0  0  0  0  0
   -2.3680    0.3370   -0.3300 C   0  0  0  0  0  0  0  0  0  0  0  0
   -2.6450    1.6720    0.0410 O   0  0  0  0  0  0  0  0  0  0  0  0
   -1.8560    2.7590   -0.3160 C   0  0  0  0  0  0  0  0  0  0  0  0
   -2.4940    3.8280   -0.6380 O   0  0  0  0  0  0  0  0  0  0  0  0
   -0.4330    2.7350   -0.3390 N   0  0  0  0  0  0  0  0  0  0  0  0
    0.4100    2.1180    0.6270 C   0  0  0  0  0  0  0  0  0  0  0  0
    1.5850    1.3760    0.0470 C   0  0  0  0  0  0  0  0  0  0  0  0
    1.3120    0.6860   -1.0960 O   0  0  0  0  0  0  0  0  0  0  0  0
  1  2  1  0
  2  3  2  0
  4  2  1  1
  4  5  1  0
  4 17  1  0
  5  6  1  0
  6  7  1  0
  7  8  1  0
  8  9  1  6
  8 10  1  0
 10 11  1  0
 11 12  1  0
 12 13  2  0
 12 14  1  0
 14 15  1  0
 15 16  1  0
 16 17  1  0
M  END
