
     RDKit          3D

 28 27  0  0  0  0  0  0  0  0999 V2000
   -3.5240   -5.6850   -0.2710 C   0  0  0  0  0  0  0  0  0  0  0  0
   -2.4690   -5.1280   -0.2200 C   0  0  0  0  0  0  0  0  0  0  0  0
   -2.0320   -3.7390    0.1350 C   0  0  0  0  0  0  0  0  0  0  0  0
   -0.7130   -3.6690    0.0230 C   0  0  0  0  0  0  0  0  0  0  0  0
    0.5160   -2.9930    0.0920 C   0  0  0  0  0  0  0  0  0  0  0  0
   -2.8960   -2.6400    0.5580 C   0  0  0  0  0  0  0  0  0  0  0  0
   -4.1600   -2.7250    0.6710 C   0  0  0  0  0  0  0  0  0  0  0  0
   -5.2310   -3.6380    0.5290 C   0  0  0  0  0  0  0  0  0  0  0  0
   -4.7210   -1.4120    1.0710 O   0  0  0  0  0  0  0  0  0  0  0  0
   -2.1930   -1.4020    1.1180 C   0  0  2  0  0  0  0  0  0  0  0  0
   -2.3870   -0.9830    2.4840 C   0  0  0  0  0  0  0  0  0  0  0  0
   -3.4880   -0.4890    3.2560 C   0  0  0  0  0  0  0  0  0  0  0  0
   -4.0840    0.8560    2.9580 C   0  0  0  0  0  0  0  0  0  0  0  0
   -2.9940    1.9060    3.1560 C   0  0  0  0  0  0  0  0  0  0  0  0
   -2.0270   -0.3070    0.1330 C   0  0  0  0  0  0  0  0  0  0  0  0
   -1.2870   -0.4790   -1.1330 C   0  0  0  0  0  0  0  0  0  0  0  0
   -1.3010    0.8150   -1.9070 N   0  0  0  0  0  0  0  0  0  0  0  0
   -0.1410    1.5830   -1.4860 C   0  0  0  0  0  0  0  0  0  0  0  0
    1.0680    1.1590   -2.2910 C   0  0  0  0  0  0  0  0  0  0  0  0
    2.1960    1.8580   -1.8990 O   0  0  0  0  0  0  0  0  0  0  0  0
    2.3470    3.2240   -2.0060 C   0  0  0  0  0  0  0  0  0  0  0  0
    1.4170    3.8880   -2.5010 O   0  0  0  0  0  0  0  0  0  0  0  0
    3.5690    3.7770   -1.5350 N   0  0  0  0  0  0  0  0  0  0  0  0
    3.7770    5.1960   -1.6030 C   0  0  0  0  0  0  0  0  0  0  0  0
    4.5880    2.9070   -1.0140 C   0  0  0  0  0  0  0  0  0  0  0  0
    5.6080    2.4700   -2.0410 C   0  0  0  0  0  0  0  0  0  0  0  0
    6.5560    1.5180   -1.3720 C   0  0  0  0  0  0  0  0  0  0  0  0
    7.2790    2.0490   -0.1850 C   0  0  0  0  0  0  0  0  0  0  0  0
  1  2  2  0
  2  3  1  0
  3  4  2  3
  3  6  1  0
  4  5  1  0
  6  7  2  3
  6 10  1  0
  7  8  1  0
  7  9  1  0
 10 11  1  1
 10 15  1  0
 11 12  1  0
 12 13  1  0
 13 14  1  0
 15 16  1  0
 16 17  1  0
 17 18  1  0
 18 19  1  0
 19 20  1  0
 20 21  1  0
 21 22  2  0
 21 23  1  0
 23 24  1  0
 23 25  1  0
 25 26  1  0
 26 27  1  0
 27 28  1  0
M  CHG  2   9  -1  17   1
M  END
