
     RDKit          3D

 17 17  0  0  0  0  0  0  0  0999 V2000
   -3.2690    0.5910    1.4770 C   0  0  0  0  0  0  0  0  0  0  0  0
   -2.6560   -0.4930    0.6270 C   0  0  1  0  0  0  0  0  0  0  0  0
   -3.6670   -1.1970   -0.0210 O   0  0  0  0  0  0  0  0  0  0  0  0
   -1.7140    0.0660   -0.4170 C   0  0  2  0  0  0  0  0  0  0  0  0
   -2.5570    0.8690   -1.4190 C   0  0  0  0  0  0  0  0  0  0  0  0
   -1.1920   -1.0230   -1.1300 O   0  0  0  0  0  0  0  0  0  0  0  0
    0.1130   -1.4390   -1.0890 C   0  0  0  0  0  0  0  0  0  0  0  0
    0.3850   -2.5970   -1.4580 O   0  0  0  0  0  0  0  0  0  0  0  0
    1.1350   -0.4790   -0.6020 C   0  0  2  0  0  0  0  0  0  0  0  0
    2.2460   -1.2710    0.0220 C   0  0  0  0  0  0  0  0  0  0  0  0
    3.3660   -0.4770    0.4650 N   0  0  0  0  0  0  0  0  0  0  0  0
    4.0780    0.2950   -0.4850 C   0  0  0  0  0  0  0  0  0  0  0  0
    5.1850    1.0700    0.0030 N   0  0  0  0  0  0  0  0  0  0  0  0
    3.8230    0.3570   -1.7100 O   0  0  0  0  0  0  0  0  0  0  0  0
    0.5960    0.4690    0.2840 O   0  0  0  0  0  0  0  0  0  0  0  0
   -0.7090    0.9680    0.1350 C   0  0  0  0  0  0  0  0  0  0  0  0
   -1.0160    2.1450    0.4600 O   0  0  0  0  0  0  0  0  0  0  0  0
  2  1  1  6
  2  3  1  0
  2  4  1  0
  4  5  1  6
  4  6  1  0
  4 16  1  0
  6  7  1  0
  7  8  2  0
  7  9  1  0
  9 10  1  1
  9 15  1  0
 10 11  1  0
 11 12  1  0
 12 13  1  0
 12 14  2  0
 15 16  1  0
 16 17  2  0
M  END
