
     RDKit          3D

 17 18  0  0  0  0  0  0  0  0999 V2000
    4.7840    0.1320    0.1540 C   0  0  0  0  0  0  0  0  0  0  0  0
    3.3880    0.3970    0.1530 O   0  0  0  0  0  0  0  0  0  0  0  0
    2.5550   -0.7330    0.1780 C   0  0  0  0  0  0  0  0  0  0  0  0
    3.0280   -1.8920    0.2000 O   0  0  0  0  0  0  0  0  0  0  0  0
    1.1100   -0.5490    0.1790 C   0  0  0  0  0  0  0  0  0  0  0  0
    0.3320   -1.6190    0.2030 C   0  0  0  0  0  0  0  0  0  0  0  0
   -1.1100   -1.4620    0.2080 C   0  0  0  0  0  0  0  0  0  0  0  0
   -1.9240   -2.5890    0.2260 O   0  0  0  0  0  0  0  0  0  0  0  0
   -1.6430   -0.2660    0.1960 C   0  0  0  0  0  0  0  0  0  0  0  0
   -3.0900   -0.0970    0.1940 C   0  0  0  0  0  0  0  0  0  0  0  0
   -3.8240   -1.0330    0.6550 O   0  0  0  0  0  0  0  0  0  0  0  0
   -3.6270    1.1120   -0.3250 N   0  0  0  0  0  0  0  0  0  0  0  0
   -2.7350    2.1200   -0.8230 C   0  0  0  0  0  0  0  0  0  0  0  0
   -3.2090    3.1770   -1.2810 O   0  0  0  0  0  0  0  0  0  0  0  0
   -1.3130    1.8840   -0.7810 N   0  0  0  0  0  0  0  0  0  0  0  0
   -0.8280    0.9730    0.2200 C   0  0  2  0  0  0  0  0  0  0  0  0
    0.5340    0.6970    0.1520 O   0  0  0  0  0  0  0  0  0  0  0  0
  1  2  1  0
  2  3  1  0
  3  4  2  0
  3  5  1  0
  5  6  2  0
  5 17  1  0
  6  7  1  0
  7  8  1  0
  7  9  2  0
  9 10  1  0
  9 16  1  0
 10 11  2  0
 10 12  1  0
 12 13  1  0
 13 14  2  0
 13 15  1  0
 16 15  1  6
 16 17  1  0
M  END
