
     RDKit          3D

 17 17  0  0  0  0  0  0  0  0999 V2000
   -4.4630   -0.3950    1.6120 C   0  0  0  0  0  0  0  0  0  0  0  0
   -3.6250   -0.3980    0.4490 O   0  0  0  0  0  0  0  0  0  0  0  0
   -2.2970   -0.0160    0.5400 C   0  0  0  0  0  0  0  0  0  0  0  0
   -1.8300    0.3360    1.6520 O   0  0  0  0  0  0  0  0  0  0  0  0
   -1.3930   -0.0030   -0.6340 C   0  0  1  0  0  0  0  0  0  0  0  0
   -1.9360    0.9810   -1.6680 C   0  0  0  0  0  0  0  0  0  0  0  0
   -0.6300    1.4090   -2.3330 C   0  0  2  0  0  0  0  0  0  0  0  0
   -0.2830    0.4160   -3.2240 O   0  0  0  0  0  0  0  0  0  0  0  0
    0.2720    1.5130   -1.1450 C   0  0  0  0  0  0  0  0  0  0  0  0
   -0.0700    0.4230   -0.3190 N   0  0  0  0  0  0  0  0  0  0  0  0
    0.8840   -0.6110   -0.1600 C   0  0  1  0  0  0  0  0  0  0  0  0
    1.2760   -1.2600   -1.2990 O   0  0  0  0  0  0  0  0  0  0  0  0
    2.0610   -0.1690    0.5880 N   0  0  0  0  0  0  0  0  0  0  0  0
    3.1150   -1.0960    0.8330 C   0  0  0  0  0  0  0  0  0  0  0  0
    2.8620   -2.3560    1.3490 O   0  0  0  0  0  0  0  0  0  0  0  0
    4.3550   -0.7610    0.5680 C   0  0  0  0  0  0  0  0  0  0  0  0
    4.7080    0.4820    0.0480 O   0  0  0  0  0  0  0  0  0  0  0  0
  1  2  1  0
  2  3  1  0
  3  4  2  0
  5  3  1  1
  5  6  1  0
  5 10  1  0
  6  7  1  0
  7  8  1  6
  7  9  1  0
  9 10  1  0
 10 11  1  0
 11 12  1  6
 11 13  1  0
 13 14  1  0
 14 15  1  0
 14 16  2  3
 16 17  1  0
M  END
