
     RDKit          3D

 16 17  0  0  0  0  0  0  0  0999 V2000
   -3.0860    1.8440   -0.2540 C   0  0  0  0  0  0  0  0  0  0  0  0
   -3.2710    0.5650   -0.0490 C   0  0  0  0  0  0  0  0  0  0  0  0
   -4.5700   -0.0270    0.0020 O   0  0  0  0  0  0  0  0  0  0  0  0
   -4.4190   -1.2530    0.6510 C   0  0  0  0  0  0  0  0  0  0  0  0
   -3.0960   -1.6780    0.3280 O   0  0  0  0  0  0  0  0  0  0  0  0
   -2.3170   -0.4730    0.1570 C   0  0  0  0  0  0  0  0  0  0  0  0
   -1.0050   -0.5020    0.2100 C   0  0  0  0  0  0  0  0  0  0  0  0
   -0.0410    0.5400    0.0730 C   0  0  0  0  0  0  0  0  0  0  0  0
    1.2790    0.2310    0.1720 C   0  0  0  0  0  0  0  0  0  0  0  0
    1.8200   -1.0600    0.4030 N   0  0  0  0  0  0  0  0  0  0  0  0
    3.1050   -0.8190    0.9180 N   0  0  0  0  0  0  0  0  0  0  0  0
    3.5160    0.3750    0.2490 C   0  0  1  0  0  0  0  0  0  0  0  0
    4.1270    0.0900   -1.0870 C   0  0  0  0  0  0  0  0  0  0  0  0
    4.2230   -1.0980   -1.4840 O   0  0  0  0  0  0  0  0  0  0  0  0
    4.5970    1.0900   -1.9110 O   0  0  0  0  0  0  0  0  0  0  0  0
    2.3290    1.1210    0.0640 O   0  0  0  0  0  0  0  0  0  0  0  0
  1  2  2  0
  2  3  1  0
  2  6  1  0
  3  4  1  0
  4  5  1  0
  5  6  1  0
  6  7  2  3
  7  8  1  0
  8  9  2  3
  9 10  1  0
  9 16  1  0
 10 11  1  0
 11 12  1  0
 12 13  1  6
 12 16  1  0
 13 14  2  0
 13 15  1  0
M  END
