
     RDKit          3D

 27 29  0  0  0  0  0  0  0  0999 V2000
   -5.2470   -3.2980    0.6410 N   0  0  0  0  0  0  0  0  0  0  0  0
   -4.5480   -2.3020   -0.0890 C   0  0  0  0  0  0  0  0  0  0  0  0
   -5.1450   -1.5920   -1.0630 N   0  0  0  0  0  0  0  0  0  0  0  0
   -4.4740   -0.6420   -1.7570 C   0  0  0  0  0  0  0  0  0  0  0  0
   -3.1780   -0.3660   -1.5030 N   0  0  0  0  0  0  0  0  0  0  0  0
   -2.5380   -1.0340   -0.5550 C   0  0  0  0  0  0  0  0  0  0  0  0
   -3.2190   -2.0160    0.1690 C   0  0  0  0  0  0  0  0  0  0  0  0
   -2.3410   -2.5040    1.0330 N   0  0  0  0  0  0  0  0  0  0  0  0
   -1.1640   -1.8630    0.8640 C   0  0  0  0  0  0  0  0  0  0  0  0
   -1.2660   -0.9450   -0.1180 N   0  0  0  0  0  0  0  0  0  0  0  0
   -0.2160   -0.0850   -0.5630 C   0  0  2  0  0  0  0  0  0  0  0  0
    1.0550   -0.6350   -0.3920 O   0  0  0  0  0  0  0  0  0  0  0  0
    1.9070    0.4190   -0.7050 C   0  0  2  0  0  0  0  0  0  0  0  0
    3.2740    0.1800   -0.1120 C   0  0  0  0  0  0  0  0  0  0  0  0
    3.7170   -1.0220   -0.6890 O   0  0  0  0  0  0  0  0  0  0  0  0
    5.1030   -1.5530   -0.2880 P   0  0  0  0  0  0  0  0  0  0  0  0
    4.6380   -1.5340    1.2870 O   0  0  0  0  0  0  0  0  0  0  0  0
    5.7100   -0.1470   -0.9450 O   0  0  0  0  0  0  0  0  0  0  0  0
    6.5380   -1.9940    0.0390 O   0  0  0  0  0  0  0  0  0  0  0  0
    1.2740    1.6780   -0.1830 C   0  0  1  0  0  0  0  0  0  0  0  0
    1.2150    2.5960   -1.2330 O   0  0  0  0  0  0  0  0  0  0  0  0
   -0.1020    1.1940    0.2290 C   0  0  1  0  0  0  0  0  0  0  0  0
   -1.0060    2.1360   -0.1810 O   0  0  0  0  0  0  0  0  0  0  0  0
   -2.0350    2.7740    0.8560 P   0  0  0  0  0  0  0  0  0  0  0  0
   -1.2570    2.5230    2.1370 O   0  0  0  0  0  0  0  0  0  0  0  0
   -1.9700    4.4520    1.1990 O   0  0  0  0  0  0  0  0  0  0  0  0
   -3.3540    1.9370    1.4120 O   0  0  0  0  0  0  0  0  0  0  0  0
  1  2  1  0
  2  3  2  0
  2  7  1  0
  3  4  1  0
  4  5  2  0
  5  6  1  0
  6  7  2  0
  6 10  1  0
  7  8  1  0
  8  9  2  0
  9 10  1  0
 11 10  1  1
 11 12  1  0
 11 22  1  0
 12 13  1  0
 13 14  1  1
 13 20  1  0
 14 15  1  0
 15 16  1  0
 16 17  1  0
 16 18  1  0
 16 19  1  0
 20 21  1  6
 20 22  1  0
 22 23  1  6
 23 24  1  0
 24 25  1  0
 24 26  1  0
 24 27  1  0
M  END
