
     RDKit          3D

 24 23  0  0  0  0  0  0  0  0999 V2000
   -3.7130    3.2390   -0.1350 C   0  0  0  0  0  0  0  0  0  0  0  0
   -4.3680    2.3050    0.5240 C   0  0  0  0  0  0  0  0  0  0  0  0
   -3.6940    1.0660    0.8460 C   0  0  0  0  0  0  0  0  0  0  0  0
   -4.3330    0.1240    1.5030 C   0  0  0  0  0  0  0  0  0  0  0  0
   -5.7490    0.2690    1.9450 C   0  0  0  0  0  0  0  0  0  0  0  0
   -2.2920    0.8480    0.4420 C   0  0  0  0  0  0  0  0  0  0  0  0
   -1.6660   -0.8130    0.9730 P   0  0  0  0  0  0  0  0  0  0  0  0
   -2.5390   -2.1150    0.2850 O   0  0  0  0  0  0  0  0  0  0  0  0
   -2.9100   -1.8700   -1.0360 C   0  0  0  0  0  0  0  0  0  0  0  0
   -3.6720   -3.0000   -1.6440 C   0  0  0  0  0  0  0  0  0  0  0  0
   -0.0010   -0.9400    0.5110 O   0  0  0  0  0  0  0  0  0  0  0  0
    0.3050    0.0410   -0.4030 C   0  0  0  0  0  0  0  0  0  0  0  0
    1.7550   -0.0280   -0.8390 C   0  0  2  0  0  0  0  0  0  0  0  0
    2.0480   -1.3770   -1.4870 C   0  0  0  0  0  0  0  0  0  0  0  0
    0.9670   -1.6330   -2.9790 P   0  0  0  0  0  0  0  0  0  0  0  0
    0.6380   -0.4050   -3.8640 O   0  0  0  0  0  0  0  0  0  0  0  0
    2.6770    0.2230    0.2990 C   0  0  0  0  0  0  0  0  0  0  0  0
    2.2080    0.4490    1.4200 O   0  0  0  0  0  0  0  0  0  0  0  0
    4.1250    0.1980    0.0650 C   0  0  0  0  0  0  0  0  0  0  0  0
    4.8690    0.4600    1.2420 O   0  0  0  0  0  0  0  0  0  0  0  0
    6.2560    0.4830    1.2470 C   0  0  0  0  0  0  0  0  0  0  0  0
    6.8290    0.2600    0.1500 O   0  0  0  0  0  0  0  0  0  0  0  0
    7.0330    0.7290    2.3460 O   0  0  0  0  0  0  0  0  0  0  0  0
    8.4550    0.7470    2.3180 C   0  0  0  0  0  0  0  0  0  0  0  0
  1  2  2  0
  2  3  1  0
  3  4  2  3
  3  6  1  0
  4  5  1  0
  6  7  1  0
  7  8  1  0
  7 11  1  0
  8  9  1  0
  9 10  1  0
 11 12  1  0
 13 12  1  1
 13 14  1  0
 13 17  1  0
 14 15  1  0
 15 16  2  0
 17 18  2  0
 17 19  1  0
 19 20  1  0
 20 21  1  0
 21 22  2  0
 21 23  1  0
 23 24  1  0
M  END
