
     RDKit          3D

 24 23  0  0  0  0  0  0  0  0999 V2000
   -0.1670   -1.7300   -4.4450 C   0  0  0  0  0  0  0  0  0  0  0  0
   -0.6850   -1.3060   -3.2870 C   0  0  0  0  0  0  0  0  0  0  0  0
   -1.8970   -1.8900   -2.7400 C   0  0  0  0  0  0  0  0  0  0  0  0
   -2.5030   -1.5900   -1.6390 C   0  0  0  0  0  0  0  0  0  0  0  0
   -4.0550   -2.5760   -1.2870 P   0  0  0  0  0  0  0  0  0  0  0  0
   -5.4240   -1.8810   -1.2540 O   0  0  0  0  0  0  0  0  0  0  0  0
   -2.0960   -0.6510   -0.6710 C   0  0  0  0  0  0  0  0  0  0  0  0
   -2.8750   -0.4490    0.4150 C   0  0  0  0  0  0  0  0  0  0  0  0
   -2.5180    0.4970    1.4420 C   0  0  0  0  0  0  0  0  0  0  0  0
   -3.1970    0.7640    2.5240 C   0  0  0  0  0  0  0  0  0  0  0  0
   -4.4800    0.1510    2.9250 C   0  0  0  0  0  0  0  0  0  0  0  0
   -5.5870    1.1640    3.0690 C   0  0  0  0  0  0  0  0  0  0  0  0
   -0.9360    0.0810   -0.7590 O   0  0  0  0  0  0  0  0  0  0  0  0
    0.2470   -0.3230   -0.1230 C   0  0  0  0  0  0  0  0  0  0  0  0
    0.2010   -1.3810    0.5290 O   0  0  0  0  0  0  0  0  0  0  0  0
    1.4320    0.5250   -0.2770 C   0  0  0  0  0  0  0  0  0  0  0  0
    2.5520    0.0030    0.4140 O   0  0  0  0  0  0  0  0  0  0  0  0
    3.7660    0.6780    0.3780 C   0  0  0  0  0  0  0  0  0  0  0  0
    3.8100    1.7470   -0.2820 O   0  0  0  0  0  0  0  0  0  0  0  0
    4.8990    0.2530    1.0110 O   0  0  0  0  0  0  0  0  0  0  0  0
    6.1510    0.8890    1.0110 C   0  0  0  0  0  0  0  0  0  0  0  0
    6.6820    0.9930   -0.3780 C   0  0  0  0  0  0  0  0  0  0  0  0
    6.8650   -0.7140   -1.0970 P   0  0  0  0  0  0  0  0  0  0  0  0
    7.4390   -1.8850   -0.2820 O   0  0  0  0  0  0  0  0  0  0  0  0
  1  2  2  0
  2  3  1  0
  3  4  2  3
  4  5  1  0
  4  7  1  0
  5  6  2  0
  7  8  2  3
  7 13  1  0
  8  9  1  0
  9 10  2  3
 10 11  1  0
 11 12  1  0
 13 14  1  0
 14 15  2  0
 14 16  1  0
 16 17  1  0
 17 18  1  0
 18 19  2  0
 18 20  1  0
 20 21  1  0
 21 22  1  0
 22 23  1  0
 23 24  2  0
M  END
