
     RDKit          3D

 20 21  0  0  0  0  0  0  0  0999 V2000
    6.0090    1.9480    1.2420 O   0  0  0  0  0  0  0  0  0  0  0  0
    6.4520    0.6220    0.6090 P   0  0  0  0  0  0  0  0  0  0  0  0
    5.5190   -0.8320    0.8360 O   0  0  0  0  0  0  0  0  0  0  0  0
    4.2290   -0.8920    0.2770 C   0  0  0  0  0  0  0  0  0  0  0  0
    3.7800    0.0860   -0.3650 O   0  0  0  0  0  0  0  0  0  0  0  0
    3.4270   -2.0060    0.4120 O   0  0  0  0  0  0  0  0  0  0  0  0
    2.1420   -2.0120   -0.1650 C   0  0  0  0  0  0  0  0  0  0  0  0
    1.3200   -0.9490    0.4180 C   0  0  0  0  0  0  0  0  0  0  0  0
    1.8160   -0.2240    1.3190 O   0  0  0  0  0  0  0  0  0  0  0  0
   -0.0410   -0.7050   -0.0060 N   0  0  0  0  0  0  0  0  0  0  0  0
   -0.7470    0.3370    0.6130 C   0  0  2  0  0  0  0  0  0  0  0  0
   -1.9720   -0.2540    1.4800 C   0  0  0  0  0  0  0  0  0  0  0  0
   -2.8850    0.1740    0.4890 N   0  0  0  0  0  0  0  0  0  0  0  0
   -2.6550    1.6480    0.5920 C   0  0  0  0  0  0  0  0  0  0  0  0
   -1.3560    1.3860   -0.2930 C   0  0  2  0  0  0  0  0  0  0  0  0
   -1.8550    0.9640   -1.6080 C   0  0  0  0  0  0  0  0  0  0  0  0
   -1.1500    1.2130   -2.6600 O   0  0  0  0  0  0  0  0  0  0  0  0
   -3.0750    0.2820   -1.8820 N   0  0  0  0  0  0  0  0  0  0  0  0
   -3.6730   -0.1920   -0.5810 C   0  0  0  0  0  0  0  0  0  0  0  0
   -4.7140   -0.8220   -0.5030 O   0  0  0  0  0  0  0  0  0  0  0  0
  1  2  2  0
  2  3  1  0
  3  4  1  0
  4  5  2  0
  4  6  1  0
  6  7  1  0
  7  8  1  0
  8  9  2  0
  8 10  1  0
 11 10  1  6
 11 12  1  0
 11 15  1  0
 12 13  1  0
 13 14  1  0
 13 19  1  0
 14 15  1  0
 15 16  1  6
 16 17  2  0
 16 18  1  0
 18 19  1  0
 19 20  2  0
M  END
