
     RDKit          3D

 24 23  0  0  0  0  0  0  0  0999 V2000
    7.5950   -0.9670   -0.3990 C   0  0  0  0  0  0  0  0  0  0  0  0
    6.9080    0.0880    0.4610 C   0  0  0  0  0  0  0  0  0  0  0  0
    5.6000    0.1960   -0.0130 O   0  0  0  0  0  0  0  0  0  0  0  0
    4.7610    1.3740    0.9140 P   0  0  0  0  0  0  0  0  0  0  0  0
    5.6380    3.0120    0.9480 C   0  0  0  0  0  0  0  0  0  0  0  0
    3.1300    1.5550    0.2900 O   0  0  0  0  0  0  0  0  0  0  0  0
    2.0540    1.0090    0.9460 C   0  0  0  0  0  0  0  0  0  0  0  0
    2.1150    0.8000    2.4100 C   0  0  0  0  0  0  0  0  0  0  0  0
    0.9720    0.6780    0.2470 C   0  0  0  0  0  0  0  0  0  0  0  0
   -0.1590    0.1020    0.9540 C   0  0  0  0  0  0  0  0  0  0  0  0
   -1.2530   -0.2390    0.3120 C   0  0  0  0  0  0  0  0  0  0  0  0
   -2.3660   -0.8110    1.0360 C   0  0  0  0  0  0  0  0  0  0  0  0
   -2.3000   -0.9840    2.2620 O   0  0  0  0  0  0  0  0  0  0  0  0
   -3.8700   -1.2770    0.1320 P   0  0  0  0  0  0  0  0  0  0  0  0
   -4.6570    0.3010   -0.4760 C   0  0  0  0  0  0  0  0  0  0  0  0
   -4.9960   -2.2340    1.2140 C   0  0  0  0  0  0  0  0  0  0  0  0
   -6.3300   -1.5630    1.4200 C   0  0  0  0  0  0  0  0  0  0  0  0
   -6.9760   -1.3940    0.1920 O   0  0  0  0  0  0  0  0  0  0  0  0
   -8.2060   -0.7800    0.3380 C   0  0  0  0  0  0  0  0  0  0  0  0
    0.9110    0.8910   -1.2290 C   0  0  0  0  0  0  0  0  0  0  0  0
    0.7100   -0.3500   -1.8800 O   0  0  0  0  0  0  0  0  0  0  0  0
    0.6120   -0.4720   -3.2420 C   0  0  0  0  0  0  0  0  0  0  0  0
    0.7100    0.5970   -3.9310 O   0  0  0  0  0  0  0  0  0  0  0  0
    0.4180   -1.6390   -3.9360 O   0  0  0  0  0  0  0  0  0  0  0  0
  1  2  1  0
  2  3  1  0
  3  4  1  0
  4  5  1  0
  4  6  1  0
  6  7  1  0
  7  8  1  0
  7  9  2  3
  9 10  1  0
  9 20  1  0
 10 11  2  3
 11 12  1  0
 12 13  2  0
 12 14  1  0
 14 15  1  0
 14 16  1  0
 16 17  1  0
 17 18  1  0
 18 19  1  0
 20 21  1  0
 21 22  1  0
 22 23  2  0
 22 24  1  0
M  END
