
     RDKit          3D

 23 23  0  0  0  0  0  0  0  0999 V2000
    2.7440   -0.3450   -2.6570 C   0  0  0  0  0  0  0  0  0  0  0  0
    3.0840    0.5310   -1.6340 O   0  0  0  0  0  0  0  0  0  0  0  0
    3.1940   -0.0570   -0.4090 C   0  0  1  0  0  0  0  0  0  0  0  0
    4.5780    0.0110    0.1890 C   0  0  0  0  0  0  0  0  0  0  0  0
    5.6190   -0.6640   -0.6650 C   0  0  0  0  0  0  0  0  0  0  0  0
    7.2530   -0.4920    0.2060 P   0  0  0  0  0  0  0  0  0  0  0  0
    7.3720    0.0540    1.6530 O   0  0  0  0  0  0  0  0  0  0  0  0
    2.3010    0.4140    0.5380 O   0  0  0  0  0  0  0  0  0  0  0  0
    1.2400   -0.8190    1.1180 P   0  0  0  0  0  0  0  0  0  0  0  0
    1.4670   -1.1880    2.7740 O   0  0  0  0  0  0  0  0  0  0  0  0
    0.8760   -0.3700    3.6750 C   0  0  0  0  0  0  0  0  0  0  0  0
    0.1140    0.8050    3.1810 C   0  0  0  0  0  0  0  0  0  0  0  0
   -0.8250    0.5570    2.0990 C   0  0  0  0  0  0  0  0  0  0  0  0
   -0.5050   -0.1750    1.0390 C   0  0  0  0  0  0  0  0  0  0  0  0
   -1.3860   -0.4750   -0.0940 C   0  0  0  0  0  0  0  0  0  0  0  0
   -2.7190    0.1960    0.1490 C   0  0  0  0  0  0  0  0  0  0  0  0
   -3.6600   -0.0910   -1.0010 C   0  0  2  0  0  0  0  0  0  0  0  0
   -3.8260   -1.6150   -1.0670 C   0  0  0  0  0  0  0  0  0  0  0  0
   -2.9850    0.3340   -2.2700 C   0  0  0  0  0  0  0  0  0  0  0  0
   -4.9320    0.4430   -0.8290 O   0  0  0  0  0  0  0  0  0  0  0  0
   -5.1660    1.7850   -0.6790 C   0  0  0  0  0  0  0  0  0  0  0  0
   -4.2000    2.5730   -0.6970 O   0  0  0  0  0  0  0  0  0  0  0  0
   -6.4390    2.3280   -0.5060 O   0  0  0  0  0  0  0  0  0  0  0  0
  1  2  1  0
  2  3  1  0
  3  4  1  1
  3  8  1  0
  4  5  1  0
  5  6  1  0
  6  7  2  0
  8  9  1  0
  9 10  1  0
  9 14  1  0
 10 11  1  0
 11 12  1  0
 12 13  1  0
 13 14  2  0
 14 15  1  0
 15 16  1  0
 16 17  1  0
 17 18  1  6
 17 19  1  0
 17 20  1  0
 20 21  1  0
 21 22  2  0
 21 23  1  0
M  END
