
     RDKit          3D

 24 24  0  0  0  0  0  0  0  0999 V2000
   -5.3770   -3.6380    0.8380 C   0  0  0  0  0  0  0  0  0  0  0  0
   -4.1390   -3.0870    0.1370 C   0  0  0  0  0  0  0  0  0  0  0  0
   -3.5760   -2.2070    1.1200 O   0  0  0  0  0  0  0  0  0  0  0  0
   -3.2970   -0.6900    0.2700 P   0  0  0  0  0  0  0  0  0  0  0  0
   -4.8920   -0.2380   -0.3660 C   0  0  0  0  0  0  0  0  0  0  0  0
   -5.2330    0.9840   -0.9340 O   0  0  0  0  0  0  0  0  0  0  0  0
   -5.2370    2.1600   -0.1870 C   0  0  0  0  0  0  0  0  0  0  0  0
   -4.9260    2.2000    0.9960 O   0  0  0  0  0  0  0  0  0  0  0  0
   -5.6360    3.3170   -0.9210 O   0  0  0  0  0  0  0  0  0  0  0  0
   -2.0980   -0.7990   -0.8610 O   0  0  0  0  0  0  0  0  0  0  0  0
   -1.8200    0.4770   -1.4410 C   0  0  0  0  0  0  0  0  0  0  0  0
   -0.5800    0.9340   -0.6000 C   0  0  2  0  0  0  0  0  0  0  0  0
   -1.1600    1.5780    0.6040 C   0  0  0  0  0  0  0  0  0  0  0  0
    0.1640    1.9360   -1.4570 C   0  0  0  0  0  0  0  0  0  0  0  0
    0.1240   -0.2160   -0.4320 O   0  0  0  0  0  0  0  0  0  0  0  0
    1.5730   -0.1490    0.4300 P   0  0  0  0  0  0  0  0  0  0  0  0
    1.9290    1.3690    1.3160 C   0  0  0  0  0  0  0  0  0  0  0  0
    2.9450   -1.0290   -0.3870 C   0  0  0  0  0  0  0  0  0  0  0  0
    4.2550   -0.3320   -0.3100 C   0  0  1  0  0  0  0  0  0  0  0  0
    4.2340    1.0400   -0.9320 C   0  0  0  0  0  0  0  0  0  0  0  0
    4.7020   -0.3320    1.1180 C   0  0  0  0  0  0  0  0  0  0  0  0
    5.9940   -1.1610    1.0270 C   0  0  0  0  0  0  0  0  0  0  0  0
    6.3800   -0.8400   -0.4060 C   0  0  0  0  0  0  0  0  0  0  0  0
    5.1730   -1.0720   -1.0540 O   0  0  0  0  0  0  0  0  0  0  0  0
  1  2  1  0
  2  3  1  0
  3  4  1  0
  4  5  1  0
  4 10  1  0
  5  6  1  0
  6  7  1  0
  7  8  2  0
  7  9  1  0
 10 11  1  0
 11 12  1  0
 12 13  1  1
 12 14  1  0
 12 15  1  0
 15 16  1  0
 16 17  1  0
 16 18  1  0
 18 19  1  0
 19 20  1  6
 19 21  1  0
 19 24  1  0
 21 22  1  0
 22 23  1  0
 23 24  1  0
M  END
