
     RDKit          3D

 20 20  0  0  0  0  0  0  0  0999 V2000
    1.8390   -3.1170    0.4040 C   0  0  0  0  0  0  0  0  0  0  0  0
    1.7770   -1.7960    0.4130 C   0  0  0  0  0  0  0  0  0  0  0  0
    1.9420   -1.0900   -0.8940 C   0  0  2  0  0  0  0  0  0  0  0  0
    3.4020   -1.0840   -1.1920 C   0  0  0  0  0  0  0  0  0  0  0  0
    3.8590   -1.8570   -2.0040 O   0  0  0  0  0  0  0  0  0  0  0  0
    1.3840    0.6680   -0.7990 P   0  0  0  0  0  0  0  0  0  0  0  0
    2.5020    1.6070    0.3290 C   0  0  0  0  0  0  0  0  0  0  0  0
   -0.3880    0.7990   -0.3130 C   0  0  2  0  0  0  0  0  0  0  0  0
   -1.0210    2.0690   -0.7630 C   0  0  0  0  0  0  0  0  0  0  0  0
   -0.1980    3.5780   -0.0710 P   0  0  0  0  0  0  0  0  0  0  0  0
   -1.2650    4.9250   -0.3740 O   0  0  0  0  0  0  0  0  0  0  0  0
   -0.6220    0.5570    1.1450 C   0  0  0  0  0  0  0  0  0  0  0  0
   -1.1560   -0.7480    1.1920 O   0  0  0  0  0  0  0  0  0  0  0  0
   -1.9310   -0.7570    0.0380 C   0  0  2  0  0  0  0  0  0  0  0  0
   -3.0820    0.0100    0.1950 O   0  0  0  0  0  0  0  0  0  0  0  0
   -4.0530    0.0120   -1.2000 S   0  0  0  0  0  0  0  0  0  0  0  0
   -2.2950   -2.1400   -0.3690 C   0  0  0  0  0  0  0  0  0  0  0  0
   -2.9960   -2.3180   -1.3950 O   0  0  0  0  0  0  0  0  0  0  0  0
   -1.8710   -3.2110    0.3680 O   0  0  0  0  0  0  0  0  0  0  0  0
   -1.0580   -0.2600   -0.9190 O   0  0  0  0  0  0  0  0  0  0  0  0
  1  2  2  0
  2  3  1  0
  3  4  1  0
  3  6  1  1
  4  5  2  0
  6  7  1  0
  6  8  1  0
  8  9  1  6
  8 12  1  0
  8 20  1  0
  9 10  1  0
 10 11  1  0
 12 13  1  0
 13 14  1  0
 14 15  1  1
 14 17  1  0
 14 20  1  0
 15 16  1  0
 17 18  2  0
 17 19  1  0
M  END
