
     RDKit          3D

 20 19  0  0  0  0  0  0  0  0999 V2000
   -0.8700   -1.1010   -0.8220 C   0  0  0  0  0  0  0  0  0  0  0  0
   -1.2280   -0.5920    0.8880 P   0  0  0  0  0  0  0  0  0  0  0  0
   -2.7830    0.0040    1.1940 O   0  0  0  0  0  0  0  0  0  0  0  0
   -3.7180   -0.1540    0.2090 C   0  0  2  0  0  0  0  0  0  0  0  0
   -3.4180    0.4460   -0.9920 O   0  0  0  0  0  0  0  0  0  0  0  0
   -4.9860    0.5000    0.7050 C   0  0  0  0  0  0  0  0  0  0  0  0
   -5.4190    0.1000    1.7690 O   0  0  0  0  0  0  0  0  0  0  0  0
   -4.0970   -1.6270    0.0080 C   0  0  0  0  0  0  0  0  0  0  0  0
   -5.0430   -1.7530   -0.9950 O   0  0  0  0  0  0  0  0  0  0  0  0
    0.2830    0.6470    1.8050 P   0  0  0  0  0  0  0  0  0  0  0  0
    0.0990    2.4310    1.5250 C   0  0  0  0  0  0  0  0  0  0  0  0
    1.9580    0.0150    1.6840 C   0  0  0  0  0  0  0  0  0  0  0  0
    2.2820   -0.9500    2.4580 O   0  0  0  0  0  0  0  0  0  0  0  0
    2.9410    0.4660    0.8340 O   0  0  0  0  0  0  0  0  0  0  0  0
    4.2120   -0.0980    0.8210 C   0  0  0  0  0  0  0  0  0  0  0  0
    4.4460   -1.0410    1.6140 O   0  0  0  0  0  0  0  0  0  0  0  0
    5.2890    0.3610   -0.0760 C   0  0  1  0  0  0  0  0  0  0  0  0
    6.4290   -0.4000    0.1550 O   0  0  0  0  0  0  0  0  0  0  0  0
    4.8450    0.0230   -1.4790 C   0  0  0  0  0  0  0  0  0  0  0  0
    4.9490   -1.3250   -1.8960 S   0  0  0  0  0  0  0  0  0  0  0  0
  1  2  1  0
  2  3  1  0
  2 10  1  0
  3  4  1  0
  4  5  1  6
  4  6  1  0
  4  8  1  0
  6  7  2  0
  8  9  1  0
 10 11  1  0
 10 12  1  0
 12 13  2  0
 12 14  1  0
 14 15  1  0
 15 16  2  0
 15 17  1  0
 17 18  1  1
 17 19  1  0
 19 20  2  0
M  END
