
     RDKit          3D

 19 19  0  0  0  0  0  0  0  0999 V2000
   -0.7780    0.7530   -1.4360 O   0  0  0  0  0  0  0  0  0  0  0  0
    0.0990    0.2220   -0.7240 C   0  0  0  0  0  0  0  0  0  0  0  0
   -0.2650   -0.6150    0.2520 O   0  0  0  0  0  0  0  0  0  0  0  0
   -1.4650   -1.0830    0.7310 C   0  0  0  0  0  0  0  0  0  0  0  0
   -2.3750   -0.2710    1.2750 O   0  0  0  0  0  0  0  0  0  0  0  0
   -2.9750    0.7470    0.6580 C   0  0  0  0  0  0  0  0  0  0  0  0
   -3.8360    0.4480   -0.5350 C   0  0  2  0  0  0  0  0  0  0  0  0
   -4.2770    1.7010   -1.0170 O   0  0  0  0  0  0  0  0  0  0  0  0
   -5.0750   -0.3660   -0.1230 C   0  0  0  0  0  0  0  0  0  0  0  0
   -4.6160   -1.5850    0.3480 O   0  0  0  0  0  0  0  0  0  0  0  0
    1.5100    0.5620   -1.0170 C   0  0  2  0  0  0  0  0  0  0  0  0
    2.3970   -0.0930   -0.1560 O   0  0  0  0  0  0  0  0  0  0  0  0
    3.5800    0.6270   -0.4330 C   0  0  2  0  0  0  0  0  0  0  0  0
    4.6660    0.2820    0.5580 C   0  0  0  0  0  0  0  0  0  0  0  0
    4.9580   -1.2020    0.4690 C   0  0  0  0  0  0  0  0  0  0  0  0
    5.3840   -1.5510   -0.8110 O   0  0  0  0  0  0  0  0  0  0  0  0
    3.1670    1.9740   -0.3180 O   0  0  0  0  0  0  0  0  0  0  0  0
    1.8170    1.9900   -0.7020 C   0  0  0  0  0  0  0  0  0  0  0  0
    1.0690    2.9800   -0.7600 O   0  0  0  0  0  0  0  0  0  0  0  0
  1  2  2  0
  2  3  1  0
 11  2  1  1
  3  4  1  0
  4  5  1  0
  5  6  1  0
  6  7  1  0
  7  8  1  1
  7  9  1  0
  9 10  1  0
 11 12  1  0
 11 18  1  0
 12 13  1  0
 13 14  1  1
 13 17  1  0
 14 15  1  0
 15 16  1  0
 17 18  1  0
 18 19  2  0
M  END
