
     RDKit          3D

  8  7  0  0  0  0  0  0  0  0999 V2000
   -2.2000   -1.1570    0.0550 O   0  0  0  0  0  0  0  0  0  0  0  0
   -1.9160    0.0500    0.0840 C   0  0  0  0  0  0  0  0  0  0  0  0
   -2.8750    0.9520   -0.3660 O   0  0  0  0  0  0  0  0  0  0  0  0
   -0.6720    0.4570    0.5560 O   0  0  0  0  0  0  0  0  0  0  0  0
    0.2330   -0.4080    0.9810 O   0  0  0  0  0  0  0  0  0  0  0  0
    1.1480   -0.7550   -0.0210 C   0  0  0  0  0  0  0  0  0  0  0  0
    1.8420    0.3820   -0.4870 O   0  0  0  0  0  0  0  0  0  0  0  0
    2.5040    0.9340    0.5330 O   0  0  0  0  0  0  0  0  0  0  0  0
  1  2  2  0
  2  3  1  0
  2  4  1  0
  4  5  1  0
  5  6  1  0
  6  7  1  0
  7  8  1  0
M  END
