
     RDKit          3D

 28 30  0  0  0  0  0  0  0  0999 V2000
   -6.4490   -1.4100   -1.1450 N   0  0  0  0  0  0  0  0  0  0  0  0
   -5.6210   -0.6260   -0.2640 C   0  0  0  0  0  0  0  0  0  0  0  0
   -4.2930   -0.5590   -0.4580 N   0  0  0  0  0  0  0  0  0  0  0  0
   -3.5180    0.1810    0.3740 C   0  0  0  0  0  0  0  0  0  0  0  0
   -4.1480    0.8460    1.4070 C   0  0  0  0  0  0  0  0  0  0  0  0
   -3.1440    1.4940    2.0660 N   0  0  0  0  0  0  0  0  0  0  0  0
   -1.9810    1.2210    1.4490 C   0  0  0  0  0  0  0  0  0  0  0  0
   -2.1950    0.4210    0.4160 N   0  0  0  0  0  0  0  0  0  0  0  0
   -1.2490   -0.1280   -0.5270 C   0  0  2  0  0  0  0  0  0  0  0  0
   -0.0460   -0.4500    0.0860 O   0  0  0  0  0  0  0  0  0  0  0  0
    0.9140   -0.5390   -0.8890 C   0  0  2  0  0  0  0  0  0  0  0  0
    2.1660    0.1740   -0.4330 C   0  0  0  0  0  0  0  0  0  0  0  0
    2.6740   -0.3880    0.7390 O   0  0  0  0  0  0  0  0  0  0  0  0
    4.0630    0.3880    1.2630 P   0  0  2  0  0  0  0  0  0  0  0  0
    3.7510    1.5370    2.2200 O   0  0  0  0  0  0  0  0  0  0  0  0
    4.8740    1.0930   -0.0590 O   0  0  0  0  0  0  0  0  0  0  0  0
    5.0670   -0.6810    2.0630 O   0  0  0  0  0  0  0  0  0  0  0  0
    6.4730   -1.0220    1.1880 P   0  0  2  0  0  0  0  0  0  0  0  0
    6.1830   -1.8490   -0.0370 O   0  0  0  0  0  0  0  0  0  0  0  0
    7.5680   -1.8470    2.1760 O   0  0  0  0  0  0  0  0  0  0  0  0
    7.2320    0.4120    0.6800 O   0  0  0  0  0  0  0  0  0  0  0  0
    0.4060    0.1770   -2.1150 C   0  0  1  0  0  0  0  0  0  0  0  0
   -0.0750   -0.7900   -2.9920 O   0  0  0  0  0  0  0  0  0  0  0  0
   -0.7940    0.9080   -1.5480 C   0  0  1  0  0  0  0  0  0  0  0  0
   -1.7650    1.1590   -2.4980 O   0  0  0  0  0  0  0  0  0  0  0  0
   -5.5110    0.7720    1.5990 C   0  0  0  0  0  0  0  0  0  0  0  0
   -6.0330    1.3940    2.5510 O   0  0  0  0  0  0  0  0  0  0  0  0
   -6.2300    0.0250    0.7450 N   0  0  0  0  0  0  0  0  0  0  0  0
  1  2  1  0
  2  3  2  0
  2 28  1  0
  3  4  1  0
  4  5  2  0
  4  8  1  0
  5  6  1  0
  5 26  1  0
  6  7  2  0
  7  8  1  0
  9  8  1  1
  9 10  1  0
  9 24  1  0
 10 11  1  0
 11 12  1  1
 11 22  1  0
 12 13  1  0
 13 14  1  0
 14 15  2  0
 14 16  1  6
 14 17  1  0
 17 18  1  0
 18 19  2  0
 18 20  1  1
 18 21  1  0
 22 23  1  6
 22 24  1  0
 24 25  1  6
 26 27  2  0
 26 28  1  0
M  END
