
     RDKit          3D

 20 19  0  0  0  0  0  0  0  0999 V2000
   -2.6360    3.4560    1.0320 C   0  0  0  0  0  0  0  0  0  0  0  0
   -1.2070    2.8800    1.0930 C   0  0  0  0  0  0  0  0  0  0  0  0
   -1.3080    1.4690    1.1890 O   0  0  0  0  0  0  0  0  0  0  0  0
   -0.8780    0.6840   -0.2490 P   0  0  0  0  0  0  0  0  0  0  0  0
   -2.4300   -0.1100   -0.9320 C   0  0  0  0  0  0  0  0  0  0  0  0
   -2.8810   -1.1260    0.1540 C   0  0  0  0  0  0  0  0  0  0  0  0
   -4.0310   -1.6790    0.1330 O   0  0  0  0  0  0  0  0  0  0  0  0
   -4.6500   -2.4590   -0.7350 C   0  0  0  0  0  0  0  0  0  0  0  0
    0.5710    0.6130   -0.9010 O   0  0  0  0  0  0  0  0  0  0  0  0
    1.3680   -0.4380   -0.7480 C   0  0  2  0  0  0  0  0  0  0  0  0
    1.5790   -0.6520    0.7730 C   0  0  0  0  0  0  0  0  0  0  0  0
    2.9990   -0.2080   -1.5030 S   0  0  0  0  0  0  0  0  0  0  0  0
    4.2880    0.2890   -0.7100 O   0  0  0  0  0  0  0  0  0  0  0  0
    4.6830    1.1100    0.2610 C   0  0  0  0  0  0  0  0  0  0  0  0
    6.1090    1.1610    0.7200 C   0  0  0  0  0  0  0  0  0  0  0  0
    3.8090    1.8370    0.7800 O   0  0  0  0  0  0  0  0  0  0  0  0
    0.8930   -1.7110   -1.2510 C   0  0  0  0  0  0  0  0  0  0  0  0
   -0.1170   -1.9320   -1.9220 O   0  0  0  0  0  0  0  0  0  0  0  0
    1.6880   -2.8510   -0.9210 O   0  0  0  0  0  0  0  0  0  0  0  0
    1.3330   -4.1110   -1.3080 O   0  0  0  0  0  0  0  0  0  0  0  0
  1  2  1  0
  2  3  1  0
  3  4  1  0
  4  5  1  0
  4  9  1  0
  5  6  1  0
  6  7  1  0
  7  8  1  0
  9 10  1  0
 10 11  1  1
 10 12  1  0
 10 17  1  0
 12 13  1  0
 13 14  1  0
 14 15  1  0
 14 16  2  0
 17 18  2  0
 17 19  1  0
 19 20  1  0
M  END
