
     RDKit          3D

 19 19  0  0  0  0  0  0  0  0999 V2000
    1.9300    3.8560    0.2830 C   0  0  0  0  0  0  0  0  0  0  0  0
    1.6620    2.5820    0.1160 C   0  0  0  0  0  0  0  0  0  0  0  0
    2.6110    1.5700    0.1230 O   0  0  0  0  0  0  0  0  0  0  0  0
    2.3510    0.3830   -0.4430 O   0  0  0  0  0  0  0  0  0  0  0  0
    1.3120   -0.2970    0.1430 C   0  0  2  0  0  0  0  0  0  0  0  0
    1.2390   -0.0170    1.6240 C   0  0  0  0  0  0  0  0  0  0  0  0
    1.3400   -1.6200   -0.1770 O   0  0  0  0  0  0  0  0  0  0  0  0
    2.4390   -2.3300    0.1790 C   0  0  0  0  0  0  0  0  0  0  0  0
    3.6960   -1.7810   -0.4590 C   0  0  0  0  0  0  0  0  0  0  0  0
    0.0100    0.2730   -0.4430 C   0  0  1  0  0  0  0  0  0  0  0  0
   -0.0010    0.0230   -1.7970 O   0  0  0  0  0  0  0  0  0  0  0  0
    1.0680    0.6300   -2.3150 O   0  0  0  0  0  0  0  0  0  0  0  0
   -1.0860   -0.3670    0.1760 O   0  0  0  0  0  0  0  0  0  0  0  0
   -2.3650    0.0230   -0.2310 C   0  0  0  0  0  0  0  0  0  0  0  0
   -2.4840    0.9240   -1.1260 O   0  0  0  0  0  0  0  0  0  0  0  0
   -3.5470   -0.6080    0.3770 C   0  0  0  0  0  0  0  0  0  0  0  0
   -4.6870   -0.0590   -0.1860 O   0  0  0  0  0  0  0  0  0  0  0  0
   -5.7900   -0.6720    0.4060 C   0  0  0  0  0  0  0  0  0  0  0  0
   -0.0320    2.0830   -0.1420 S   0  0  0  0  0  0  0  0  0  0  0  0
  1  2  2  0
  2  3  1  0
  2 19  1  0
  3  4  1  0
  4  5  1  0
  5  6  1  1
  5  7  1  0
  5 10  1  0
  7  8  1  0
  8  9  1  0
 10 11  1  6
 10 13  1  0
 10 19  1  0
 11 12  1  0
 13 14  1  0
 14 15  2  0
 14 16  1  0
 16 17  1  0
 17 18  1  0
M  END
