
     RDKit          3D

 37 41  0  0  0  0  0  0  0  0999 V2000
   -3.4060    5.7870    1.4500 C   0  0  0  0  0  0  0  0  0  0  0  0
   -4.1730    4.5570    1.4570 N   0  0  0  0  0  0  0  0  0  0  0  0
   -5.5830    4.4900    1.7580 C   0  0  0  0  0  0  0  0  0  0  0  0
   -3.5050    3.3250    1.1480 C   0  0  0  0  0  0  0  0  0  0  0  0
   -2.1990    3.1630    0.8400 N   0  0  0  0  0  0  0  0  0  0  0  0
   -1.9310    1.8410    0.6070 C   0  0  0  0  0  0  0  0  0  0  0  0
   -0.6220    1.3340    0.2570 C   0  0  0  0  0  0  0  0  0  0  0  0
    0.4570    2.2490    0.1570 C   0  0  0  0  0  0  0  0  0  0  0  0
    1.6420    1.7710   -0.1600 N   0  0  0  0  0  0  0  0  0  0  0  0
    1.8720    0.4630   -0.3920 C   0  0  0  0  0  0  0  0  0  0  0  0
    3.2210    0.0540   -0.7340 C   0  0  0  0  0  0  0  0  0  0  0  0
    3.4870   -1.2910   -0.9790 C   0  0  0  0  0  0  0  0  0  0  0  0
    4.7680   -1.6550   -1.3000 C   0  0  0  0  0  0  0  0  0  0  0  0
    5.7930   -0.7370   -1.3870 C   0  0  0  0  0  0  0  0  0  0  0  0
    7.0850   -1.1120   -1.7130 C   0  0  0  0  0  0  0  0  0  0  0  0
    8.0570   -0.1390   -1.7810 C   0  0  0  0  0  0  0  0  0  0  0  0
    7.7590    1.1840   -1.5320 C   0  0  0  0  0  0  0  0  0  0  0  0
    6.4900    1.5520   -1.2130 C   0  0  0  0  0  0  0  0  0  0  0  0
    5.4920    0.5830   -1.1390 C   0  0  0  0  0  0  0  0  0  0  0  0
    4.2230    0.9690   -0.8170 C   0  0  0  0  0  0  0  0  0  0  0  0
    0.8790   -0.4270   -0.3070 N   0  0  0  0  0  0  0  0  0  0  0  0
   -0.3890    0.0040    0.0210 C   0  0  0  0  0  0  0  0  0  0  0  0
   -1.4390   -0.9530    0.0800 N   0  0  0  0  0  0  0  0  0  0  0  0
   -1.0700   -2.3670   -0.1620 C   0  0  1  0  0  0  0  0  0  0  0  0
   -0.2040   -2.8450    1.0050 C   0  0  0  0  0  0  0  0  0  0  0  0
   -1.0300   -3.0110    2.2430 C   0  0  0  0  0  0  0  0  0  0  0  0
   -2.0570   -3.9210    2.0400 O   0  0  0  0  0  0  0  0  0  0  0  0
   -2.4630   -4.2540    0.7450 C   0  0  0  0  0  0  0  0  0  0  0  0
   -3.0010   -5.4220    0.4940 C   0  0  0  0  0  0  0  0  0  0  0  0
   -3.1680   -6.3150    1.5030 F   0  0  0  0  0  0  0  0  0  0  0  0
   -3.3990   -5.8220   -0.7260 F   0  0  0  0  0  0  0  0  0  0  0  0
   -2.2490   -3.2270   -0.2980 C   0  0  0  0  0  0  0  0  0  0  0  0
   -3.0890   -3.1400   -1.2770 C   0  0  0  0  0  0  0  0  0  0  0  0
   -3.0140   -2.1890   -2.4090 C   0  0  0  0  0  0  0  0  0  0  0  0
   -1.9430   -1.3480   -2.3980 F   0  0  0  0  0  0  0  0  0  0  0  0
   -3.0810    1.2390    0.7810 N   0  0  0  0  0  0  0  0  0  0  0  0
   -4.0360    2.0910    1.1030 N   0  0  0  0  0  0  0  0  0  0  0  0
  1  2  1  0
  2  3  1  0
  2  4  1  0
  4  5  2  0
  4 37  1  0
  5  6  1  0
  6  7  1  0
  6 36  2  0
  7  8  2  0
  7 22  1  0
  8  9  1  0
  9 10  2  0
 10 11  1  0
 10 21  1  0
 11 12  2  0
 11 20  1  0
 12 13  1  0
 13 14  2  0
 14 15  1  0
 14 19  1  0
 15 16  2  0
 16 17  1  0
 17 18  2  0
 18 19  1  0
 19 20  2  0
 21 22  2  0
 22 23  1  0
 24 23  1  1
 24 25  1  0
 24 32  1  0
 25 26  1  0
 26 27  1  0
 27 28  1  0
 28 29  2  3
 28 32  1  0
 29 30  1  0
 29 31  1  0
 32 33  2  3
 33 34  1  0
 34 35  1  0
 36 37  1  0
M  END
