
     RDKit          3D

 36 39  0  0  0  0  0  0  0  0999 V2000
   -4.8640   -4.4650   -1.1690 C   0  0  0  0  0  0  0  0  0  0  0  0
   -3.6500   -3.8430   -1.8410 C   0  0  0  0  0  0  0  0  0  0  0  0
   -3.2670   -2.5750   -1.1970 C   0  0  0  0  0  0  0  0  0  0  0  0
   -4.1790   -1.8900   -0.3480 C   0  0  0  0  0  0  0  0  0  0  0  0
   -3.7530   -0.7020    0.2710 C   0  0  0  0  0  0  0  0  0  0  0  0
   -4.8420   -0.1070    1.1090 C   0  0  0  0  0  0  0  0  0  0  0  0
   -2.5700   -0.1450    0.1300 C   0  0  0  0  0  0  0  0  0  0  0  0
   -2.1350    1.0500    0.7560 N   0  0  1  0  0  0  0  0  0  0  0  0
   -0.6670    1.1240    0.5920 C   0  0  0  0  0  0  0  0  0  0  0  0
    0.1370    0.0390    1.2300 C   0  0  0  0  0  0  0  0  0  0  0  0
    1.5010    0.2740    0.9870 N   0  0  0  0  0  0  0  0  0  0  0  0
    2.2280   -0.1730   -0.1220 C   0  0  0  0  0  0  0  0  0  0  0  0
    3.1520   -1.2710    0.2580 C   0  0  0  0  0  0  0  0  0  0  0  0
    2.7430   -2.5290    0.5980 C   0  0  0  0  0  0  0  0  0  0  0  0
    3.6270   -3.5960    0.8130 C   0  0  0  0  0  0  0  0  0  0  0  0
    4.9730   -3.3820    0.6860 C   0  0  0  0  0  0  0  0  0  0  0  0
    6.1310   -4.6940    0.9760 Cl  0  0  0  0  0  0  0  0  0  0  0  0
    5.3810   -2.1120    0.3490 C   0  0  0  0  0  0  0  0  0  0  0  0
    4.5310   -1.0770    0.1300 C   0  0  0  0  0  0  0  0  0  0  0  0
    4.9580    0.3010   -0.2060 C   0  0  0  0  0  0  0  0  0  0  0  0
    6.2830    0.4650   -0.2800 C   0  0  0  0  0  0  0  0  0  0  0  0
    7.0580    1.6750   -0.5890 C   0  0  0  0  0  0  0  0  0  0  0  0
    6.5480    2.7780   -0.8310 O   0  0  0  0  0  0  0  0  0  0  0  0
    8.4000    1.2920   -0.5370 N   0  0  0  0  0  0  0  0  0  0  0  0
    8.5410   -0.0750   -0.1430 C   0  0  0  0  0  0  0  0  0  0  0  0
    7.1830   -0.5910   -0.0610 N   0  0  0  0  0  0  0  0  0  0  0  0
    6.7890   -1.8640    0.2420 O   0  0  0  0  0  0  0  0  0  0  0  0
   -2.6140    2.2230    0.0610 C   0  0  0  0  0  0  0  0  0  0  0  0
   -3.4010    3.2170    0.7090 C   0  0  0  0  0  0  0  0  0  0  0  0
   -3.5840    3.2670    1.9470 O   0  0  0  0  0  0  0  0  0  0  0  0
   -4.0380    4.2290   -0.0390 N   0  0  0  0  0  0  0  0  0  0  0  0
   -4.8680    5.2170    0.4980 C   0  0  0  0  0  0  0  0  0  0  0  0
   -3.8050    4.2230   -1.5100 C   0  0  0  0  0  0  0  0  0  0  0  0
   -1.6480   -0.8290   -0.7350 C   0  0  0  0  0  0  0  0  0  0  0  0
   -2.0360   -1.9950   -1.3450 C   0  0  0  0  0  0  0  0  0  0  0  0
   -0.8490   -2.8360   -2.3490 Cl  0  0  0  0  0  0  0  0  0  0  0  0
  1  2  1  0
  2  3  1  0
  3  4  2  0
  3 35  1  0
  4  5  1  0
  5  6  1  0
  5  7  2  0
  7  8  1  0
  7 34  1  0
  8  9  1  6
  8 28  1  0
  9 10  1  0
 10 11  1  0
 11 12  1  0
 12 13  1  0
 13 14  2  0
 13 19  1  0
 14 15  1  0
 15 16  2  0
 16 17  1  0
 16 18  1  0
 18 19  2  0
 18 27  1  0
 19 20  1  0
 20 21  2  0
 21 22  1  0
 21 26  1  0
 22 23  2  0
 22 24  1  0
 24 25  1  0
 25 26  1  0
 26 27  1  0
 28 29  1  0
 29 30  2  0
 29 31  1  0
 31 32  1  0
 31 33  1  0
 34 35  2  0
 35 36  1  0
M  CHG  2   8   1  11   1
M  END
