
     RDKit          3D

 37 41  0  0  0  0  0  0  0  0999 V2000
   -9.8060    0.5290   -0.0790 C   0  0  0  0  0  0  0  0  0  0  0  0
   -8.3790    0.4450   -0.3200 N   0  0  0  0  0  0  0  0  0  0  0  0
   -7.3990    0.4120    0.6010 C   0  0  0  0  0  0  0  0  0  0  0  0
   -6.2130    0.3300   -0.0930 C   0  0  0  0  0  0  0  0  0  0  0  0
   -4.8590    0.2580    0.0380 C   0  0  0  0  0  0  0  0  0  0  0  0
   -4.0660    0.2410    1.2220 N   0  0  0  0  0  0  0  0  0  0  0  0
   -2.6180    0.1600    1.1700 C   0  0  0  0  0  0  0  0  0  0  0  0
   -2.1230    0.1070    0.0310 O   0  0  0  0  0  0  0  0  0  0  0  0
   -1.8400    0.1440    2.3230 N   0  0  0  0  0  0  0  0  0  0  0  0
   -0.4280    0.0710    2.3490 C   0  0  0  0  0  0  0  0  0  0  0  0
    0.2220   -0.1930    3.5670 C   0  0  0  0  0  0  0  0  0  0  0  0
    1.5900   -0.2640    3.6710 C   0  0  0  0  0  0  0  0  0  0  0  0
    2.4220   -0.0810    2.5940 C   0  0  0  0  0  0  0  0  0  0  0  0
    3.8750   -0.1500    2.6720 C   0  0  0  0  0  0  0  0  0  0  0  0
    4.5120   -0.3960    3.7920 C   0  0  0  0  0  0  0  0  0  0  0  0
    6.0070   -0.4630    3.8510 C   0  0  1  0  0  0  0  0  0  0  0  0
    6.4260   -1.1700    4.9610 F   0  0  0  0  0  0  0  0  0  0  0  0
    6.5050   -1.1580    2.7440 F   0  0  0  0  0  0  0  0  0  0  0  0
    6.5520    0.8040    3.9360 F   0  0  0  0  0  0  0  0  0  0  0  0
    1.7960    0.1820    1.3800 C   0  0  0  0  0  0  0  0  0  0  0  0
    2.6260    0.3750    0.2520 N   0  0  0  0  0  0  0  0  0  0  0  0
    2.9970   -0.5400   -0.5320 N   0  0  0  0  0  0  0  0  0  0  0  0
    3.8340   -0.1810   -1.6240 C   0  0  0  0  0  0  0  0  0  0  0  0
    3.2890    0.5160   -2.6820 C   0  0  0  0  0  0  0  0  0  0  0  0
    4.0550    0.8890   -3.7660 C   0  0  0  0  0  0  0  0  0  0  0  0
    5.3840    0.5630   -3.7990 C   0  0  0  0  0  0  0  0  0  0  0  0
    5.9480   -0.1430   -2.7340 C   0  0  0  0  0  0  0  0  0  0  0  0
    5.1860   -0.5160   -1.6510 C   0  0  0  0  0  0  0  0  0  0  0  0
    5.9280   -1.1700   -0.7710 C   0  0  0  0  0  0  0  0  0  0  0  0
    7.3030   -1.2440   -1.3060 C   0  0  0  0  0  0  0  0  0  0  0  0
    7.2020   -0.5350   -2.6030 C   0  0  0  0  0  0  0  0  0  0  0  0
    0.4070    0.2530    1.2790 C   0  0  0  0  0  0  0  0  0  0  0  0
   -4.3320    0.2010   -1.1850 N   0  0  0  0  0  0  0  0  0  0  0  0
   -5.3000    0.2340   -2.0620 N   0  0  0  0  0  0  0  0  0  0  0  0
   -5.1030    0.1900   -3.5210 C   0  0  0  0  0  0  0  0  0  0  0  0
   -6.4810    0.3140   -1.4400 C   0  0  0  0  0  0  0  0  0  0  0  0
   -7.8530    0.3870   -1.5590 C   0  0  0  0  0  0  0  0  0  0  0  0
  1  2  1  0
  2  3  1  0
  2 37  1  0
  3  4  2  0
  4  5  1  0
  4 36  1  0
  5  6  1  0
  5 33  2  0
  6  7  1  0
  7  8  2  0
  7  9  1  0
  9 10  1  0
 10 11  2  0
 10 32  1  0
 11 12  1  0
 12 13  2  0
 13 14  1  0
 13 20  1  0
 14 15  2  3
 15 16  1  0
 16 17  1  1
 16 18  1  0
 16 19  1  0
 20 21  1  0
 20 32  2  0
 21 22  2  3
 22 23  1  0
 23 24  2  0
 23 28  1  0
 24 25  1  0
 25 26  2  0
 26 27  1  0
 27 28  1  0
 27 31  2  0
 28 29  2  0
 29 30  1  0
 30 31  1  0
 33 34  1  0
 34 35  1  0
 34 36  1  0
 36 37  2  0
M  END
