
     RDKit          3D

 37 41  0  0  0  0  0  0  0  0999 V2000
    1.5630   -2.0430    0.0430 C   0  0  0  0  0  0  0  0  0  0  0  0
    1.8620   -0.5860    0.1310 C   0  0  0  0  0  0  0  0  0  0  0  0
    0.9370    0.4630    0.0480 C   0  0  0  0  0  0  0  0  0  0  0  0
    1.6120    1.6590    0.1760 C   0  0  0  0  0  0  0  0  0  0  0  0
    1.1040    3.0220    0.1570 C   0  0  0  0  0  0  0  0  0  0  0  0
    1.8850    4.1380    0.2960 N   0  0  0  0  0  0  0  0  0  0  0  0
    1.1370    5.1990    0.2360 N   0  0  0  0  0  0  0  0  0  0  0  0
   -0.1090    4.7900    0.0610 C   0  0  0  0  0  0  0  0  0  0  0  0
   -0.1640    3.4290    0.0080 N   0  0  0  0  0  0  0  0  0  0  0  0
   -1.3220    2.6390   -0.1690 C   0  0  0  0  0  0  0  0  0  0  0  0
   -1.8100    2.2520   -1.3990 C   0  0  0  0  0  0  0  0  0  0  0  0
   -2.9420    1.4900   -1.5150 C   0  0  0  0  0  0  0  0  0  0  0  0
   -3.6870    1.0480   -0.3980 C   0  0  0  0  0  0  0  0  0  0  0  0
   -4.8330    0.2490   -0.6260 N   0  0  0  0  0  0  0  0  0  0  0  0
   -5.8080   -0.0110    0.3240 C   0  0  0  0  0  0  0  0  0  0  0  0
   -5.7320    0.4780    1.5040 O   0  0  0  0  0  0  0  0  0  0  0  0
   -6.9610   -0.8210    0.1050 N   0  0  0  0  0  0  0  0  0  0  0  0
   -7.9190   -1.0170    1.1520 C   0  0  0  0  0  0  0  0  0  0  0  0
   -7.1450   -1.4460   -1.1790 C   0  0  0  0  0  0  0  0  0  0  0  0
   -6.4960   -2.8210   -1.1460 C   0  0  2  0  0  0  0  0  0  0  0  0
   -6.6480   -3.4450   -2.3520 F   0  0  0  0  0  0  0  0  0  0  0  0
   -7.1390   -3.5170   -0.1220 F   0  0  0  0  0  0  0  0  0  0  0  0
   -5.1850   -2.7050   -0.8070 F   0  0  0  0  0  0  0  0  0  0  0  0
   -3.1950    1.4360    0.8150 C   0  0  0  0  0  0  0  0  0  0  0  0
   -2.0430    2.2110    0.9200 C   0  0  0  0  0  0  0  0  0  0  0  0
    2.9280    1.3110    0.3340 C   0  0  0  0  0  0  0  0  0  0  0  0
    4.0380    2.2790    0.5110 C   0  0  0  0  0  0  0  0  0  0  0  0
    3.0760   -0.0420    0.3070 N   0  0  0  0  0  0  0  0  0  0  0  0
    4.2880   -0.7780    0.4380 C   0  0  0  0  0  0  0  0  0  0  0  0
    4.4500   -1.6970    1.4550 C   0  0  0  0  0  0  0  0  0  0  0  0
    5.6080   -2.4290    1.6150 C   0  0  0  0  0  0  0  0  0  0  0  0
    6.6750   -2.2690    0.7480 C   0  0  0  0  0  0  0  0  0  0  0  0
    7.9340   -2.8570    0.6700 C   0  0  0  0  0  0  0  0  0  0  0  0
    8.5340   -2.2680   -0.4250 C   0  0  0  0  0  0  0  0  0  0  0  0
    7.6780   -1.3810   -0.9650 N   0  0  0  0  0  0  0  0  0  0  0  0
    6.5220   -1.3530   -0.2700 C   0  0  0  0  0  0  0  0  0  0  0  0
    5.3450   -0.6110   -0.4310 C   0  0  0  0  0  0  0  0  0  0  0  0
  1  2  1  0
  2  3  2  0
  2 28  1  0
  3  4  1  0
  4  5  1  0
  4 26  2  0
  5  6  2  0
  5  9  1  0
  6  7  1  0
  7  8  2  0
  8  9  1  0
  9 10  1  0
 10 11  2  0
 10 25  1  0
 11 12  1  0
 12 13  2  0
 13 14  1  0
 13 24  1  0
 14 15  1  0
 15 16  2  0
 15 17  1  0
 17 18  1  0
 17 19  1  0
 19 20  1  0
 20 21  1  6
 20 22  1  0
 20 23  1  0
 24 25  2  0
 26 27  1  0
 26 28  1  0
 28 29  1  0
 29 30  2  0
 29 37  1  0
 30 31  1  0
 31 32  2  0
 32 33  1  0
 32 36  1  0
 33 34  2  0
 34 35  1  0
 35 36  1  0
 36 37  2  0
M  END
