
     RDKit          3D

 37 41  0  0  0  0  0  0  0  0999 V2000
   -4.9890    0.8340   -0.1570 C   0  0  0  0  0  0  0  0  0  0  0  0
   -3.9690    0.2450    0.4120 C   0  0  0  0  0  0  0  0  0  0  0  0
   -2.9860   -0.5210   -0.4020 C   0  0  1  0  0  0  0  0  0  0  0  0
   -1.6500    0.1020   -0.3590 C   0  0  0  0  0  0  0  0  0  0  0  0
   -1.5810    1.4350   -0.5480 C   0  0  0  0  0  0  0  0  0  0  0  0
   -0.5260    2.3500   -0.5630 N   0  0  0  0  0  0  0  0  0  0  0  0
   -1.0630    3.6710   -0.8310 C   0  0  0  0  0  0  0  0  0  0  0  0
   -0.4830    4.9110   -0.9540 C   0  0  0  0  0  0  0  0  0  0  0  0
   -1.2200    6.0480   -1.2170 C   0  0  0  0  0  0  0  0  0  0  0  0
   -2.5810    5.9270   -1.3600 C   0  0  0  0  0  0  0  0  0  0  0  0
   -3.1680    4.6900   -1.2380 C   0  0  0  0  0  0  0  0  0  0  0  0
   -2.4170    3.5460   -0.9720 C   0  0  0  0  0  0  0  0  0  0  0  0
   -2.7270    2.2190   -0.8040 O   0  0  0  0  0  0  0  0  0  0  0  0
   -0.4880   -0.6940   -0.1190 C   0  0  0  0  0  0  0  0  0  0  0  0
    0.8170   -0.1410   -0.3350 N   0  0  0  0  0  0  0  0  0  0  0  0
    1.8790   -0.3580    0.5530 C   0  0  0  0  0  0  0  0  0  0  0  0
    1.7220   -1.0390    1.7260 C   0  0  0  0  0  0  0  0  0  0  0  0
    2.8070   -1.2470    2.5880 C   0  0  0  0  0  0  0  0  0  0  0  0
    4.0470   -0.7680    2.2640 C   0  0  0  0  0  0  0  0  0  0  0  0
    4.2440   -0.0680    1.0730 C   0  0  0  0  0  0  0  0  0  0  0  0
    5.5900    0.4120    0.7880 C   0  0  0  0  0  0  0  0  0  0  0  0
    6.6410    0.1790    1.6380 N   0  0  0  0  0  0  0  0  0  0  0  0
    7.7410    0.7140    1.1580 C   0  0  0  0  0  0  0  0  0  0  0  0
    7.4020    1.2900    0.0040 N   0  0  0  0  0  0  0  0  0  0  0  0
    6.0860    1.1060   -0.2240 N   0  0  0  0  0  0  0  0  0  0  0  0
    5.4020    1.6130   -1.3960 C   0  0  0  0  0  0  0  0  0  0  0  0
    3.1760    0.1150    0.2650 C   0  0  0  0  0  0  0  0  0  0  0  0
   -0.5460   -1.9690    0.2010 N   0  0  0  0  0  0  0  0  0  0  0  0
   -1.8310   -2.5700    0.2760 C   0  0  0  0  0  0  0  0  0  0  0  0
   -1.9190   -3.9650    0.6590 N   0  0  0  0  0  0  0  0  0  0  0  0
   -1.6920   -4.9490   -0.3570 C   0  0  0  0  0  0  0  0  0  0  0  0
   -1.8320   -6.3620    0.1650 C   0  0  0  0  0  0  0  0  0  0  0  0
   -2.9450   -1.9360    0.0170 C   0  0  0  0  0  0  0  0  0  0  0  0
   -4.2420   -2.6870    0.1580 C   0  0  2  0  0  0  0  0  0  0  0  0
   -4.0580   -3.9800    0.5550 F   0  0  0  0  0  0  0  0  0  0  0  0
   -4.9130   -2.6860   -1.0340 F   0  0  0  0  0  0  0  0  0  0  0  0
   -5.0570   -2.0780    1.0940 F   0  0  0  0  0  0  0  0  0  0  0  0
  1  2  2  0
  3  2  1  1
  3  4  1  0
  3 33  1  0
  4  5  2  3
  4 14  1  0
  5  6  1  0
  5 13  1  0
  6  7  1  0
  7  8  2  0
  7 12  1  0
  8  9  1  0
  9 10  2  0
 10 11  1  0
 11 12  2  0
 12 13  1  0
 14 15  1  0
 14 28  2  0
 15 16  1  0
 16 17  2  0
 16 27  1  0
 17 18  1  0
 18 19  2  0
 19 20  1  0
 20 21  1  0
 20 27  2  0
 21 22  2  0
 21 25  1  0
 22 23  1  0
 23 24  2  0
 24 25  1  0
 25 26  1  0
 28 29  1  0
 29 30  1  0
 29 33  2  0
 30 31  1  0
 31 32  1  0
 33 34  1  0
 34 35  1  1
 34 36  1  0
 34 37  1  0
M  END
