
     RDKit          3D

 36 39  0  0  0  0  0  0  0  0999 V2000
    8.5620   -5.0730    0.6250 C   0  0  0  0  0  0  0  0  0  0  0  0
    7.5320   -4.1100    0.1330 C   0  0  0  0  0  0  0  0  0  0  0  0
    6.4670   -3.8990    1.1020 N   0  0  0  0  0  0  0  0  0  0  0  0
    5.4100   -3.0090    0.7820 C   0  0  0  0  0  0  0  0  0  0  0  0
    4.3950   -2.8140    1.7140 C   0  0  0  0  0  0  0  0  0  0  0  0
    3.3620   -1.9340    1.3830 C   0  0  0  0  0  0  0  0  0  0  0  0
    3.3500   -1.2860    0.1780 C   0  0  0  0  0  0  0  0  0  0  0  0
    2.3240   -0.4230   -0.1320 O   0  0  0  0  0  0  0  0  0  0  0  0
    2.2850    0.9160    0.1280 C   0  0  0  0  0  0  0  0  0  0  0  0
    3.2780    1.4230    0.7070 O   0  0  0  0  0  0  0  0  0  0  0  0
    1.1580    1.7660   -0.2340 C   0  0  0  0  0  0  0  0  0  0  0  0
    1.0820    3.1460   -0.0040 C   0  0  0  0  0  0  0  0  0  0  0  0
   -0.1160    3.6270   -0.4840 C   0  0  0  0  0  0  0  0  0  0  0  0
   -0.5840    5.0240   -0.4390 C   0  0  0  0  0  0  0  0  0  0  0  0
    0.2090    6.0000    0.1280 C   0  0  0  0  0  0  0  0  0  0  0  0
   -0.1590    7.3110    0.2040 C   0  0  0  0  0  0  0  0  0  0  0  0
   -1.3860    7.6780   -0.3110 C   0  0  0  0  0  0  0  0  0  0  0  0
   -2.2100    6.7140   -0.8890 C   0  0  0  0  0  0  0  0  0  0  0  0
   -1.7920    5.3990   -0.9430 C   0  0  0  0  0  0  0  0  0  0  0  0
   -2.8160    4.1610   -1.6700 Cl  0  0  0  0  0  0  0  0  0  0  0  0
   -0.7500    2.5630   -0.9920 N   0  0  0  0  0  0  0  0  0  0  0  0
    0.0060    1.4610   -0.8430 N   0  0  0  0  0  0  0  0  0  0  0  0
   -0.4260    0.1450   -1.2750 C   0  0  0  0  0  0  0  0  0  0  0  0
   -1.2550   -0.5530   -0.2210 C   0  0  1  0  0  0  0  0  0  0  0  0
   -0.5190   -0.6950    0.9200 O   0  0  0  0  0  0  0  0  0  0  0  0
   -2.5740    0.1580   -0.0190 C   0  0  0  0  0  0  0  0  0  0  0  0
   -3.4410   -0.5040    0.8930 N   0  0  1  0  0  0  0  0  0  0  0  0
   -4.7230    0.1540    0.8950 C   0  0  0  0  0  0  0  0  0  0  0  0
   -5.5740   -0.1540   -0.2860 C   0  0  0  0  0  0  0  0  0  0  0  0
   -5.6090   -1.5320   -0.6660 N   0  0  2  0  0  0  0  0  0  0  0  0
   -6.5410   -2.3340    0.0680 C   0  0  0  0  0  0  0  0  0  0  0  0
   -4.3020   -2.1570   -0.6590 C   0  0  0  0  0  0  0  0  0  0  0  0
   -3.6370   -1.8970    0.6570 C   0  0  0  0  0  0  0  0  0  0  0  0
    4.3550   -1.4820   -0.7400 C   0  0  0  0  0  0  0  0  0  0  0  0
    4.3170   -0.6450   -2.2660 Cl  0  0  0  0  0  0  0  0  0  0  0  0
    5.4030   -2.3570   -0.4370 C   0  0  0  0  0  0  0  0  0  0  0  0
  1  2  1  0
  2  3  1  0
  3  4  1  0
  4  5  2  0
  4 36  1  0
  5  6  1  0
  6  7  2  0
  7  8  1  0
  7 34  1  0
  8  9  1  0
  9 10  2  0
  9 11  1  0
 11 12  2  0
 11 22  1  0
 12 13  1  0
 13 14  1  0
 13 21  2  0
 14 15  2  0
 14 19  1  0
 15 16  1  0
 16 17  2  0
 17 18  1  0
 18 19  2  0
 19 20  1  0
 21 22  1  0
 22 23  1  0
 23 24  1  0
 24 25  1  1
 24 26  1  0
 27 26  1  6
 27 28  1  0
 27 33  1  0
 28 29  1  0
 29 30  1  0
 30 31  1  1
 30 32  1  0
 32 33  1  0
 34 35  1  0
 34 36  2  0
M  CHG  2  27   1  30   1
M  END
