
     RDKit          3D

 41 44  0  0  0  0  0  0  0  0999 V2000
   -5.3480   -6.2860    1.5880 C   0  0  0  0  0  0  0  0  0  0  0  0
   -4.0170   -6.9860    1.4120 C   0  0  1  0  0  0  0  0  0  0  0  0
   -4.3250   -8.4530    1.1900 C   0  0  0  0  0  0  0  0  0  0  0  0
   -3.2780   -6.5020    0.1930 C   0  0  0  0  0  0  0  0  0  0  0  0
   -2.9780   -5.0940    0.2090 N   0  0  0  0  0  0  0  0  0  0  0  0
   -2.1810   -4.5360    1.2220 C   0  0  0  0  0  0  0  0  0  0  0  0
   -1.7460   -5.3240    2.1060 O   0  0  0  0  0  0  0  0  0  0  0  0
   -1.8550   -3.1140    1.2760 C   0  0  0  0  0  0  0  0  0  0  0  0
   -1.0910   -2.6630    2.3390 C   0  0  0  0  0  0  0  0  0  0  0  0
   -0.7580   -1.3330    2.4330 C   0  0  0  0  0  0  0  0  0  0  0  0
   -1.1900   -0.4370    1.4590 C   0  0  0  0  0  0  0  0  0  0  0  0
   -0.7850    0.9190    1.6280 N   0  0  0  0  0  0  0  0  0  0  0  0
   -0.0320    1.3330    2.7270 C   0  0  0  0  0  0  0  0  0  0  0  0
    1.2440    1.4650    2.8020 C   0  0  0  0  0  0  0  0  0  0  0  0
    2.2550    1.2350    1.8070 C   0  0  0  0  0  0  0  0  0  0  0  0
    3.5970    1.3660    2.1120 C   0  0  0  0  0  0  0  0  0  0  0  0
    4.5640    1.1640    1.1630 C   0  0  0  0  0  0  0  0  0  0  0  0
    4.2790    0.8220   -0.1390 C   0  0  0  0  0  0  0  0  0  0  0  0
    5.3360    0.6100   -1.1270 C   0  0  0  0  0  0  0  0  0  0  0  0
    4.9840    0.3190   -2.2990 O   0  0  0  0  0  0  0  0  0  0  0  0
    6.6760    0.7170   -0.8270 O   0  0  0  0  0  0  0  0  0  0  0  0
    7.7020    0.5160   -1.7840 C   0  0  1  0  0  0  0  0  0  0  0  0
    8.5050    1.7930   -1.8720 C   0  0  0  0  0  0  0  0  0  0  0  0
    8.6130   -0.6410   -1.4050 C   0  0  0  0  0  0  0  0  0  0  0  0
    2.9490    0.6900   -0.4520 C   0  0  0  0  0  0  0  0  0  0  0  0
    1.9570    0.8960    0.5150 C   0  0  0  0  0  0  0  0  0  0  0  0
   -1.9390   -0.8530    0.4130 C   0  0  0  0  0  0  0  0  0  0  0  0
   -2.4270    0.0390   -0.6090 C   0  0  0  0  0  0  0  0  0  0  0  0
   -3.1240   -0.4950   -1.5560 O   0  0  0  0  0  0  0  0  0  0  0  0
   -2.2690    1.3840   -0.7380 O   0  0  0  0  0  0  0  0  0  0  0  0
   -2.8200    2.1350   -1.8160 C   0  0  0  0  0  0  0  0  0  0  0  0
   -2.5220    3.5610   -1.7230 C   0  0  0  0  0  0  0  0  0  0  0  0
   -1.4010    4.0690   -2.3460 C   0  0  0  0  0  0  0  0  0  0  0  0
   -1.0940    5.4300   -2.2820 C   0  0  0  0  0  0  0  0  0  0  0  0
   -1.9060    6.2940   -1.5930 C   0  0  0  0  0  0  0  0  0  0  0  0
   -3.0350    5.8170   -0.9590 C   0  0  0  0  0  0  0  0  0  0  0  0
   -3.3250    4.4630   -1.0320 C   0  0  0  0  0  0  0  0  0  0  0  0
   -3.6790    6.9630   -0.3280 C   0  0  0  0  0  0  0  0  0  0  0  0
   -3.0050    8.0720   -0.5510 C   0  0  0  0  0  0  0  0  0  0  0  0
   -1.8260    7.7460   -1.3690 C   0  0  0  0  0  0  0  0  0  0  0  0
   -2.2770   -2.2290    0.3230 C   0  0  0  0  0  0  0  0  0  0  0  0
  2  1  1  6
  2  3  1  0
  2  4  1  0
  4  5  1  0
  5  6  1  0
  6  7  2  0
  6  8  1  0
  8  9  2  0
  8 41  1  0
  9 10  1  0
 10 11  2  0
 11 12  1  0
 11 27  1  0
 12 13  1  0
 13 14  2  3
 14 15  1  0
 15 16  2  0
 15 26  1  0
 16 17  1  0
 17 18  2  0
 18 19  1  0
 18 25  1  0
 19 20  2  0
 19 21  1  0
 21 22  1  0
 22 23  1  1
 22 24  1  0
 25 26  2  0
 27 28  1  0
 27 41  2  0
 28 29  2  0
 28 30  1  0
 30 31  1  0
 31 32  1  0
 32 33  2  0
 32 37  1  0
 33 34  1  0
 34 35  2  0
 35 36  1  0
 35 40  1  0
 36 37  2  0
 36 38  1  0
 38 39  2  0
 39 40  1  0
M  END
