
     RDKit          3D

 41 45  0  0  0  0  0  0  0  0999 V2000
  -10.0280   -2.2140    1.6390 C   0  0  0  0  0  0  0  0  0  0  0  0
   -9.8430   -1.3810    0.6330 C   0  0  0  0  0  0  0  0  0  0  0  0
  -10.8380   -0.8060   -0.3030 C   0  0  0  0  0  0  0  0  0  0  0  0
   -9.9920   -0.5420   -1.5400 C   0  0  0  0  0  0  0  0  0  0  0  0
   -8.6100   -0.3440   -1.0440 C   0  0  0  0  0  0  0  0  0  0  0  0
   -8.5320   -0.8430    0.2370 C   0  0  0  0  0  0  0  0  0  0  0  0
   -7.3160   -0.7570    0.8810 C   0  0  0  0  0  0  0  0  0  0  0  0
   -6.1840   -0.1900    0.2830 C   0  0  0  0  0  0  0  0  0  0  0  0
   -6.3030    0.2930   -0.9880 C   0  0  0  0  0  0  0  0  0  0  0  0
   -5.2030    0.8630   -1.6150 C   0  0  0  0  0  0  0  0  0  0  0  0
   -3.9790    0.9340   -0.9460 N   0  0  0  0  0  0  0  0  0  0  0  0
   -2.7620    1.5050   -1.4060 C   0  0  0  0  0  0  0  0  0  0  0  0
   -2.6990    2.0210   -2.5160 O   0  0  0  0  0  0  0  0  0  0  0  0
   -1.5370    1.5010   -0.5750 C   0  0  0  0  0  0  0  0  0  0  0  0
   -1.3690    0.6260    0.4690 C   0  0  0  0  0  0  0  0  0  0  0  0
   -0.2050    0.6500    1.2480 C   0  0  0  0  0  0  0  0  0  0  0  0
    0.8070    1.5460    0.9970 C   0  0  0  0  0  0  0  0  0  0  0  0
    1.9550    1.5370    1.8000 O   0  0  0  0  0  0  0  0  0  0  0  0
    2.9920    0.7030    1.3860 C   0  0  0  0  0  0  0  0  0  0  0  0
    2.9520   -0.0360    0.2330 C   0  0  0  0  0  0  0  0  0  0  0  0
    4.0320   -0.8380   -0.0930 C   0  0  0  0  0  0  0  0  0  0  0  0
    5.1480   -0.9270    0.6930 C   0  0  0  0  0  0  0  0  0  0  0  0
    6.2000   -1.7030    0.3830 O   0  0  0  0  0  0  0  0  0  0  0  0
    6.4960   -2.5290   -0.6670 C   0  0  0  0  0  0  0  0  0  0  0  0
    6.6140   -1.9370   -2.0040 C   0  0  0  0  0  0  0  0  0  0  0  0
    6.8050   -2.7530   -2.9270 O   0  0  0  0  0  0  0  0  0  0  0  0
    6.5420   -0.5360   -2.4060 C   0  0  0  0  0  0  0  0  0  0  0  0
    7.8790    0.0040   -2.8890 C   0  0  0  0  0  0  0  0  0  0  0  0
    8.4110   -0.7000   -4.0180 N   0  0  0  0  0  0  0  0  0  0  0  0
    5.1570   -0.1510    1.8730 C   0  0  0  0  0  0  0  0  0  0  0  0
    6.2830   -0.2670    2.6240 O   0  0  0  0  0  0  0  0  0  0  0  0
    6.5110    0.3900    3.8250 C   0  0  1  0  0  0  0  0  0  0  0  0
    6.8770   -0.6070    4.9430 C   0  0  0  0  0  0  0  0  0  0  0  0
    7.7630    1.2880    3.7010 C   0  0  0  0  0  0  0  0  0  0  0  0
    4.1100    0.6450    2.2170 C   0  0  0  0  0  0  0  0  0  0  0  0
    0.6330    2.4260   -0.0560 C   0  0  0  0  0  0  0  0  0  0  0  0
   -0.5210    2.4010   -0.8270 C   0  0  0  0  0  0  0  0  0  0  0  0
   -5.3610    1.3390   -2.8950 C   0  0  0  0  0  0  0  0  0  0  0  0
   -6.5680    1.2820   -3.6050 C   0  0  0  0  0  0  0  0  0  0  0  0
   -7.6410    0.7170   -2.9720 C   0  0  0  0  0  0  0  0  0  0  0  0
   -7.5170    0.2270   -1.6810 C   0  0  0  0  0  0  0  0  0  0  0  0
  1  2  2  0
  2  3  1  0
  2  6  1  0
  3  4  1  0
  4  5  1  0
  5  6  2  0
  5 41  1  0
  6  7  1  0
  7  8  2  0
  8  9  1  0
  9 10  2  0
  9 41  1  0
 10 11  1  0
 10 38  1  0
 11 12  1  0
 12 13  2  0
 12 14  1  0
 14 15  2  0
 14 37  1  0
 15 16  1  0
 16 17  2  0
 17 18  1  0
 17 36  1  0
 18 19  1  0
 19 20  2  0
 19 35  1  0
 20 21  1  0
 21 22  2  0
 22 23  1  0
 22 30  1  0
 23 24  1  0
 24 25  1  0
 25 26  2  0
 25 27  1  0
 27 28  1  0
 28 29  1  0
 30 31  1  0
 30 35  2  0
 31 32  1  0
 32 33  1  1
 32 34  1  0
 36 37  2  0
 38 39  2  0
 39 40  1  0
 40 41  2  0
M  END
