
     RDKit          3D

 41 45  0  0  0  0  0  0  0  0999 V2000
   -7.4000   -5.2840   -2.6590 C   0  0  0  0  0  0  0  0  0  0  0  0
   -7.6710   -4.3790   -1.7430 C   0  0  0  0  0  0  0  0  0  0  0  0
   -8.9690   -4.3010   -1.2970 O   0  0  0  0  0  0  0  0  0  0  0  0
   -6.6670   -3.4730   -1.1940 C   0  0  0  0  0  0  0  0  0  0  0  0
   -5.3840   -3.4040   -1.6930 C   0  0  0  0  0  0  0  0  0  0  0  0
   -4.4290   -2.5310   -1.1420 C   0  0  0  0  0  0  0  0  0  0  0  0
   -4.7130   -1.7040   -0.0870 C   0  0  0  0  0  0  0  0  0  0  0  0
   -3.7880   -0.7920    0.4860 N   0  0  0  0  0  0  0  0  0  0  0  0
   -2.6320   -0.2720   -0.1160 C   0  0  0  0  0  0  0  0  0  0  0  0
   -2.3610   -0.6220   -1.2990 O   0  0  0  0  0  0  0  0  0  0  0  0
   -1.7070    0.6730    0.5690 C   0  0  0  0  0  0  0  0  0  0  0  0
   -0.6880    1.1300   -0.4450 C   0  0  0  0  0  0  0  0  0  0  0  0
    0.2790    2.0390    0.1110 N   0  0  0  0  0  0  0  0  0  0  0  0
   -0.0090    3.4300    0.0890 C   0  0  0  0  0  0  0  0  0  0  0  0
   -1.0990    3.8300   -0.3810 O   0  0  0  0  0  0  0  0  0  0  0  0
    0.9490    4.4460    0.6090 C   0  0  0  0  0  0  0  0  0  0  0  0
    0.4040    5.8450    0.4500 C   0  0  1  0  0  0  0  0  0  0  0  0
    0.1240    6.2190   -0.9740 C   0  0  0  0  0  0  0  0  0  0  0  0
   -1.2410    6.8410   -0.9530 C   0  0  0  0  0  0  0  0  0  0  0  0
   -1.5800    6.8920    0.5160 C   0  0  0  0  0  0  0  0  0  0  0  0
   -0.7880    5.9650    1.1420 O   0  0  0  0  0  0  0  0  0  0  0  0
    1.5090    1.5290    0.6410 C   0  0  0  0  0  0  0  0  0  0  0  0
    2.4700    1.0110   -0.1980 C   0  0  0  0  0  0  0  0  0  0  0  0
    3.6670    0.5110    0.2980 C   0  0  0  0  0  0  0  0  0  0  0  0
    3.9170    0.5220    1.6450 C   0  0  0  0  0  0  0  0  0  0  0  0
    5.0930    0.0330    2.1590 O   0  0  0  0  0  0  0  0  0  0  0  0
    6.1580   -0.5350    1.4780 C   0  0  0  0  0  0  0  0  0  0  0  0
    5.8060   -1.7970    0.7990 C   0  0  0  0  0  0  0  0  0  0  0  0
    4.6040   -2.4350    0.8750 C   0  0  0  0  0  0  0  0  0  0  0  0
    4.3470   -3.6380    0.2380 C   0  0  0  0  0  0  0  0  0  0  0  0
    5.3150   -4.2510   -0.5140 C   0  0  0  0  0  0  0  0  0  0  0  0
    6.5450   -3.6270   -0.6090 C   0  0  0  0  0  0  0  0  0  0  0  0
    6.7890   -2.4330    0.0280 C   0  0  0  0  0  0  0  0  0  0  0  0
    8.0290   -2.0480   -0.2170 C   0  0  0  0  0  0  0  0  0  0  0  0
    8.6940   -3.0530   -1.0910 C   0  0  0  0  0  0  0  0  0  0  0  0
    7.6060   -4.0440   -1.2770 C   0  0  0  0  0  0  0  0  0  0  0  0
    2.9320    1.0500    2.4760 C   0  0  0  0  0  0  0  0  0  0  0  0
    1.7400    1.5490    1.9840 C   0  0  0  0  0  0  0  0  0  0  0  0
   -6.0170   -1.7840    0.4080 C   0  0  0  0  0  0  0  0  0  0  0  0
   -6.9550   -2.6360   -0.1270 C   0  0  0  0  0  0  0  0  0  0  0  0
   -8.3440   -2.6800    0.4340 C   0  0  0  0  0  0  0  0  0  0  0  0
  1  2  2  0
  2  3  1  0
  2  4  1  0
  4  5  2  0
  4 40  1  0
  5  6  1  0
  6  7  2  0
  7  8  1  0
  7 39  1  0
  8  9  1  0
  9 10  2  0
  9 11  1  0
 11 12  1  0
 12 13  1  0
 13 14  1  0
 13 22  1  0
 14 15  2  0
 14 16  1  0
 17 16  1  6
 17 18  1  0
 17 21  1  0
 18 19  1  0
 19 20  1  0
 20 21  1  0
 22 23  2  0
 22 38  1  0
 23 24  1  0
 24 25  2  0
 25 26  1  0
 25 37  1  0
 26 27  1  0
 27 28  1  0
 28 29  2  0
 28 33  1  0
 29 30  1  0
 30 31  2  0
 31 32  1  0
 32 33  1  0
 32 36  2  0
 33 34  2  0
 34 35  1  0
 35 36  1  0
 37 38  2  0
 39 40  2  0
 40 41  1  0
M  END
