
     RDKit          3D

 41 45  0  0  0  0  0  0  0  0999 V2000
   -5.5170    2.2300   -3.0330 C   0  0  0  0  0  0  0  0  0  0  0  0
   -5.8700    1.3570   -2.1140 C   0  0  0  0  0  0  0  0  0  0  0  0
   -7.0240    1.6850   -1.2350 C   0  0  0  0  0  0  0  0  0  0  0  0
   -7.3390    0.7730   -0.3260 C   0  0  0  0  0  0  0  0  0  0  0  0
   -6.6190   -0.3870   -0.2380 O   0  0  0  0  0  0  0  0  0  0  0  0
   -5.4060   -0.5440    0.3950 C   0  0  0  0  0  0  0  0  0  0  0  0
   -4.8610    0.4260    0.9540 O   0  0  0  0  0  0  0  0  0  0  0  0
   -4.7210   -1.8830    0.4120 C   0  0  0  0  0  0  0  0  0  0  0  0
   -3.2840   -1.6880    0.7630 C   0  0  0  0  0  0  0  0  0  0  0  0
   -2.8590   -1.6200    2.0400 C   0  0  0  0  0  0  0  0  0  0  0  0
   -1.4810   -1.4490    2.2590 C   0  0  0  0  0  0  0  0  0  0  0  0
   -0.5930   -1.3540    1.1800 C   0  0  0  0  0  0  0  0  0  0  0  0
   -1.0730   -1.4290   -0.1020 C   0  0  0  0  0  0  0  0  0  0  0  0
   -0.2050   -1.3530   -1.3020 C   0  0  0  0  0  0  0  0  0  0  0  0
    1.2030   -1.3860   -1.0690 N   0  0  0  0  0  0  0  0  0  0  0  0
    1.9260   -2.5540   -0.7530 C   0  0  0  0  0  0  0  0  0  0  0  0
    1.3180   -3.6430   -0.6480 O   0  0  0  0  0  0  0  0  0  0  0  0
    3.3690   -2.5220   -0.5510 C   0  0  0  0  0  0  0  0  0  0  0  0
    4.2270   -1.4920   -0.6270 N   0  0  0  0  0  0  0  0  0  0  0  0
    5.4820   -1.8920   -0.3860 C   0  0  0  0  0  0  0  0  0  0  0  0
    6.7120   -1.1030   -0.3720 C   0  0  0  0  0  0  0  0  0  0  0  0
    7.9560   -1.6410   -0.1470 C   0  0  0  0  0  0  0  0  0  0  0  0
    9.1100   -0.8730   -0.1330 C   0  0  0  0  0  0  0  0  0  0  0  0
    9.0240    0.4870   -0.3490 C   0  0  0  0  0  0  0  0  0  0  0  0
    7.7960    1.0500   -0.5740 C   0  0  0  0  0  0  0  0  0  0  0  0
    7.6590    2.5230   -0.7830 C   0  0  0  0  0  0  0  0  0  0  0  0
    7.2810    3.1180    0.4500 O   0  0  0  0  0  0  0  0  0  0  0  0
    8.2820    2.8710    1.3770 C   0  0  0  0  0  0  0  0  0  0  0  0
    7.9520    3.4770    2.7200 C   0  0  0  0  0  0  0  0  0  0  0  0
    6.6500    0.2720   -0.5880 C   0  0  0  0  0  0  0  0  0  0  0  0
    5.4170   -3.1890   -0.1550 O   0  0  0  0  0  0  0  0  0  0  0  0
    4.1860   -3.6210   -0.2380 C   0  0  0  0  0  0  0  0  0  0  0  0
    3.6620   -5.0130   -0.0490 C   0  0  0  0  0  0  0  0  0  0  0  0
   -2.4090   -1.5950   -0.3230 C   0  0  0  0  0  0  0  0  0  0  0  0
   -8.4710    1.0240    0.5810 C   0  0  0  0  0  0  0  0  0  0  0  0
   -9.0430    0.3580    1.5690 C   0  0  0  0  0  0  0  0  0  0  0  0
  -10.1680    1.1280    2.1190 C   0  0  0  0  0  0  0  0  0  0  0  0
  -10.2630    2.2530    1.4550 C   0  0  0  0  0  0  0  0  0  0  0  0
   -9.1940    2.2640    0.4340 C   0  0  0  0  0  0  0  0  0  0  0  0
   -8.8640    3.1530   -0.4760 C   0  0  0  0  0  0  0  0  0  0  0  0
   -7.7430    2.9450   -1.3940 C   0  0  0  0  0  0  0  0  0  0  0  0
  1  2  2  0
  2  3  1  0
  3  4  2  0
  3 41  1  0
  4  5  1  0
  4 35  1  0
  5  6  1  0
  6  7  2  0
  6  8  1  0
  8  9  1  0
  9 10  2  0
  9 34  1  0
 10 11  1  0
 11 12  2  0
 12 13  1  0
 13 14  1  0
 13 34  2  0
 14 15  1  0
 15 16  1  0
 16 17  2  0
 16 18  1  0
 18 19  1  0
 18 32  2  0
 19 20  2  0
 20 21  1  0
 20 31  1  0
 21 22  2  0
 21 30  1  0
 22 23  1  0
 23 24  2  0
 24 25  1  0
 25 26  1  0
 25 30  2  0
 26 27  1  0
 27 28  1  0
 28 29  1  0
 31 32  1  0
 32 33  1  0
 35 36  2  0
 35 39  1  0
 36 37  1  0
 37 38  2  0
 38 39  1  0
 39 40  2  0
 40 41  1  0
M  END
