
     RDKit          3D

 41 45  0  0  0  0  0  0  0  0999 V2000
   -1.1840   -1.6730    0.8460 O   0  0  0  0  0  0  0  0  0  0  0  0
   -1.5490   -0.4430    0.5130 C   0  0  0  0  0  0  0  0  0  0  0  0
   -0.3730    0.3220    0.0280 C   0  0  0  0  0  0  0  0  0  0  0  0
   -0.4810    1.5680   -0.3260 C   0  0  0  0  0  0  0  0  0  0  0  0
    0.4930    2.4230   -0.7900 O   0  0  0  0  0  0  0  0  0  0  0  0
    0.9100    3.4530    0.0940 C   0  0  0  0  0  0  0  0  0  0  0  0
    1.9330    4.3280   -0.5140 C   0  0  0  0  0  0  0  0  0  0  0  0
    2.1830    4.4350   -1.8590 C   0  0  0  0  0  0  0  0  0  0  0  0
    3.1640    5.2800   -2.3630 C   0  0  0  0  0  0  0  0  0  0  0  0
    3.9290    6.0500   -1.5100 C   0  0  0  0  0  0  0  0  0  0  0  0
    3.6790    5.9430   -0.1620 C   0  0  0  0  0  0  0  0  0  0  0  0
    2.7020    5.1020    0.3410 C   0  0  0  0  0  0  0  0  0  0  0  0
    0.8500   -0.4210   -0.0910 C   0  0  0  0  0  0  0  0  0  0  0  0
    0.8160   -1.6350    0.4060 O   0  0  0  0  0  0  0  0  0  0  0  0
    2.0860   -0.0700   -0.6530 N   0  0  0  0  0  0  0  0  0  0  0  0
    2.5320    0.8670   -1.6370 C   0  0  0  0  0  0  0  0  0  0  0  0
    3.6420    0.0900   -2.3810 C   0  0  0  0  0  0  0  0  0  0  0  0
    4.2310   -0.7090   -1.3010 C   0  0  0  0  0  0  0  0  0  0  0  0
    5.4670   -1.3370   -1.1420 C   0  0  0  0  0  0  0  0  0  0  0  0
    5.7950   -2.0560   -0.0140 C   0  0  0  0  0  0  0  0  0  0  0  0
    7.0870   -2.7000    0.1260 C   0  0  0  0  0  0  0  0  0  0  0  0
    7.4920   -3.3980    1.1470 C   0  0  0  0  0  0  0  0  0  0  0  0
    8.8740   -3.8780    0.8850 C   0  0  0  0  0  0  0  0  0  0  0  0
    9.1850   -3.3400   -0.4500 C   0  0  0  0  0  0  0  0  0  0  0  0
    8.1460   -2.6670   -0.8680 C   0  0  0  0  0  0  0  0  0  0  0  0
    4.8560   -2.1420    0.9730 C   0  0  0  0  0  0  0  0  0  0  0  0
    3.6330   -1.5250    0.8280 C   0  0  0  0  0  0  0  0  0  0  0  0
    3.3040   -0.8040   -0.3030 C   0  0  0  0  0  0  0  0  0  0  0  0
   -2.8740   -0.1050    0.6650 N   0  0  0  0  0  0  0  0  0  0  0  0
   -3.6040    1.0570    0.3670 C   0  0  0  0  0  0  0  0  0  0  0  0
   -3.6510    2.1090    1.4580 C   0  0  0  0  0  0  0  0  0  0  0  0
   -4.4790    3.2640    0.9340 C   0  0  0  0  0  0  0  0  0  0  0  0
   -5.7610    2.8660    0.6210 O   0  0  0  0  0  0  0  0  0  0  0  0
   -3.7170   -1.2020    1.2790 C   0  0  0  0  0  0  0  0  0  0  0  0
   -4.2060   -1.9890    0.1140 C   0  0  0  0  0  0  0  0  0  0  0  0
   -5.0770   -3.1470    0.4610 C   0  0  0  0  0  0  0  0  0  0  0  0
   -6.3300   -2.7800    1.1990 C   0  0  1  0  0  0  0  0  0  0  0  0
   -7.2200   -1.8460    0.4250 C   0  0  0  0  0  0  0  0  0  0  0  0
   -8.4170   -2.7080    0.0810 C   0  0  0  0  0  0  0  0  0  0  0  0
   -7.8430   -4.0980    0.2150 C   0  0  0  0  0  0  0  0  0  0  0  0
   -7.0650   -3.9610    1.3740 O   0  0  0  0  0  0  0  0  0  0  0  0
  1  2  2  0
  2  3  1  0
  2 29  1  0
  3  4  2  3
  3 13  1  0
  4  5  1  0
  5  6  1  0
  6  7  1  0
  7  8  2  0
  7 12  1  0
  8  9  1  0
  9 10  2  0
 10 11  1  0
 11 12  2  0
 13 14  2  0
 13 15  1  0
 15 16  1  0
 15 28  1  0
 16 17  1  0
 17 18  1  0
 18 19  2  0
 18 28  1  0
 19 20  1  0
 20 21  1  0
 20 26  2  0
 21 22  2  0
 21 25  1  0
 22 23  1  0
 23 24  1  0
 24 25  2  0
 26 27  1  0
 27 28  2  0
 29 30  1  0
 29 34  1  0
 30 31  1  0
 31 32  1  0
 32 33  1  0
 34 35  1  0
 35 36  1  0
 37 36  1  6
 37 38  1  0
 37 41  1  0
 38 39  1  0
 39 40  1  0
 40 41  1  0
M  END
