
     RDKit          3D

 40 41  0  0  0  0  0  0  0  0999 V2000
    0.9530    6.9580    1.7660 C   0  0  0  0  0  0  0  0  0  0  0  0
    0.8630    6.3330    3.1490 C   0  0  0  0  0  0  0  0  0  0  0  0
    1.4560    4.9220    3.0270 C   0  0  0  0  0  0  0  0  0  0  0  0
    0.6220    4.1610    2.0530 C   0  0  0  0  0  0  0  0  0  0  0  0
    1.2050    2.8100    1.7780 C   0  0  0  0  0  0  0  0  0  0  0  0
    2.1550    2.3780    2.3940 O   0  0  0  0  0  0  0  0  0  0  0  0
    0.6120    2.0220    0.7250 N   0  0  0  0  0  0  0  0  0  0  0  0
    1.0740    0.7700    0.2710 C   0  0  0  0  0  0  0  0  0  0  0  0
    2.2700    0.2200    0.5930 C   0  0  0  0  0  0  0  0  0  0  0  0
    2.8380   -0.8860   -0.0440 C   0  0  0  0  0  0  0  0  0  0  0  0
    4.1770   -1.2970    0.4160 C   0  0  0  0  0  0  0  0  0  0  0  0
    4.7300   -0.6280    1.2950 O   0  0  0  0  0  0  0  0  0  0  0  0
    4.8920   -2.4500   -0.1210 C   0  0  0  0  0  0  0  0  0  0  0  0
    4.4970   -3.2590   -0.9710 O   0  0  0  0  0  0  0  0  0  0  0  0
    6.2340   -2.7020    0.3690 N   0  0  0  0  0  0  0  0  0  0  0  0
    7.0250   -3.8070   -0.0990 C   0  0  1  0  0  0  0  0  0  0  0  0
    8.4470   -3.3110   -0.2240 C   0  0  0  0  0  0  0  0  0  0  0  0
    8.9450   -3.4980    1.2100 C   0  0  0  0  0  0  0  0  0  0  0  0
    8.3940   -4.7320    1.5520 O   0  0  0  0  0  0  0  0  0  0  0  0
    7.1230   -4.7860    1.0540 C   0  0  0  0  0  0  0  0  0  0  0  0
    2.1330   -1.4420   -1.0590 C   0  0  0  0  0  0  0  0  0  0  0  0
    0.8800   -0.8980   -1.4230 C   0  0  0  0  0  0  0  0  0  0  0  0
    0.3530    0.1680   -0.7880 C   0  0  0  0  0  0  0  0  0  0  0  0
   -1.0420    0.6960   -0.9490 C   0  0  1  0  0  0  0  0  0  0  0  0
   -1.3450    1.3120   -2.2820 C   0  0  0  0  0  0  0  0  0  0  0  0
   -2.6480    2.0540   -2.2660 C   0  0  0  0  0  0  0  0  0  0  0  0
   -2.9340    2.6890   -3.5930 C   0  0  0  0  0  0  0  0  0  0  0  0
   -3.0260    1.7350   -4.7400 C   0  0  0  0  0  0  0  0  0  0  0  0
   -1.7740   -0.7170   -1.0810 C   0  0  0  0  0  0  0  0  0  0  0  0
   -3.1620   -0.8060   -1.2950 C   0  0  0  0  0  0  0  0  0  0  0  0
   -3.6920   -0.5260   -2.4380 O   0  0  0  0  0  0  0  0  0  0  0  0
   -4.1470   -1.2370   -0.2910 N   0  0  0  0  0  0  0  0  0  0  0  0
   -3.6490   -1.6360    0.9600 C   0  0  0  0  0  0  0  0  0  0  0  0
   -3.4270   -0.5370    1.9710 C   0  0  0  0  0  0  0  0  0  0  0  0
   -2.9790   -1.1970    3.2060 N   0  0  0  0  0  0  0  0  0  0  0  0
   -5.5080   -1.1900   -0.7390 C   0  0  0  0  0  0  0  0  0  0  0  0
   -5.9270   -2.4310   -1.4360 C   0  0  2  0  0  0  0  0  0  0  0  0
   -7.2670   -2.2890   -1.9160 O   0  0  0  0  0  0  0  0  0  0  0  0
   -6.0280   -3.6600   -0.5300 C   0  0  0  0  0  0  0  0  0  0  0  0
   -6.9530   -3.3440    0.4600 O   0  0  0  0  0  0  0  0  0  0  0  0
  1  2  1  0
  2  3  1  0
  3  4  1  0
  4  5  1  0
  5  6  2  0
  5  7  1  0
  7  8  1  0
  8  9  2  0
  8 23  1  0
  9 10  1  0
 10 11  1  0
 10 21  2  0
 11 12  2  0
 11 13  1  0
 13 14  2  0
 13 15  1  0
 16 15  1  1
 16 17  1  0
 16 20  1  0
 17 18  1  0
 18 19  1  0
 19 20  1  0
 21 22  1  0
 22 23  2  0
 23 24  1  0
 24 25  1  6
 24 29  1  0
 25 26  1  0
 26 27  1  0
 27 28  1  0
 29 30  1  0
 30 31  2  0
 30 32  1  0
 32 33  1  0
 32 36  1  0
 33 34  1  0
 34 35  1  0
 36 37  1  0
 37 38  1  1
 37 39  1  0
 39 40  1  0
M  CHG  1  35   1
M  END
