
     RDKit          3D

 40 41  0  0  0  0  0  0  0  0999 V2000
   -0.6060    2.1450    2.3800 C   0  0  0  0  0  0  0  0  0  0  0  0
   -1.9370    2.7480    2.6340 C   0  0  0  0  0  0  0  0  0  0  0  0
   -2.8310    1.8440    3.4250 C   0  0  0  0  0  0  0  0  0  0  0  0
   -3.1250    0.5070    2.7660 C   0  0  2  0  0  0  0  0  0  0  0  0
   -4.1130   -0.2150    3.7530 C   0  0  0  0  0  0  0  0  0  0  0  0
   -2.0140   -0.3020    2.6260 O   0  0  0  0  0  0  0  0  0  0  0  0
   -1.4970   -0.8280    1.4800 C   0  0  0  0  0  0  0  0  0  0  0  0
   -2.0690   -0.7080    0.2350 C   0  0  0  0  0  0  0  0  0  0  0  0
   -1.5340   -1.2470   -0.8930 C   0  0  0  0  0  0  0  0  0  0  0  0
   -2.1730   -1.1860   -2.2020 C   0  0  0  0  0  0  0  0  0  0  0  0
   -3.3650   -0.4580   -2.3780 N   0  0  0  0  0  0  0  0  0  0  0  0
   -4.6010   -1.0950   -2.0290 C   0  0  1  0  0  0  0  0  0  0  0  0
   -5.7980   -0.2070   -2.2860 C   0  0  0  0  0  0  0  0  0  0  0  0
   -6.1000    0.1990   -3.6530 C   0  0  2  0  0  0  0  0  0  0  0  0
   -6.3470   -0.8490   -4.5550 O   0  0  0  0  0  0  0  0  0  0  0  0
   -5.3660    1.3190   -4.3010 C   0  0  0  0  0  0  0  0  0  0  0  0
   -6.1820    1.9060   -5.3300 O   0  0  0  0  0  0  0  0  0  0  0  0
   -4.8090   -2.3930   -2.7620 C   0  0  0  0  0  0  0  0  0  0  0  0
   -4.0920   -2.6820   -3.7160 O   0  0  0  0  0  0  0  0  0  0  0  0
   -5.8400   -3.3190   -2.3750 N   0  0  0  0  0  0  0  0  0  0  0  0
   -5.9960   -4.5520   -3.1160 C   0  0  0  0  0  0  0  0  0  0  0  0
   -0.3320   -1.9560   -0.7720 C   0  0  0  0  0  0  0  0  0  0  0  0
    0.2730   -2.0920    0.4700 C   0  0  0  0  0  0  0  0  0  0  0  0
   -0.2870   -1.5430    1.5970 C   0  0  0  0  0  0  0  0  0  0  0  0
    0.2400   -1.6290    2.8320 O   0  0  0  0  0  0  0  0  0  0  0  0
    1.3850   -2.1580    3.3660 C   0  0  0  0  0  0  0  0  0  0  0  0
    2.6000   -1.4840    2.8990 C   0  0  0  0  0  0  0  0  0  0  0  0
    2.8440   -0.2060    3.4690 C   0  0  0  0  0  0  0  0  0  0  0  0
    3.9690    0.4740    3.0810 C   0  0  0  0  0  0  0  0  0  0  0  0
    4.8780   -0.0570    2.1410 C   0  0  0  0  0  0  0  0  0  0  0  0
    6.0160    0.7220    1.8190 N   0  0  0  0  0  0  0  0  0  0  0  0
    6.8270    0.6170    0.6810 C   0  0  0  0  0  0  0  0  0  0  0  0
    6.5250   -0.2610   -0.1780 O   0  0  0  0  0  0  0  0  0  0  0  0
    7.9630    1.4020    0.3880 N   0  0  0  0  0  0  0  0  0  0  0  0
    8.7090    1.2020   -0.8300 C   0  0  0  0  0  0  0  0  0  0  0  0
    9.8710    2.1810   -0.8720 C   0  0  0  0  0  0  0  0  0  0  0  0
    9.3300    3.4550   -0.8190 O   0  0  0  0  0  0  0  0  0  0  0  0
   10.3280    4.4460   -0.8060 C   0  0  0  0  0  0  0  0  0  0  0  0
    4.6160   -1.2830    1.6120 C   0  0  0  0  0  0  0  0  0  0  0  0
    3.4690   -1.9950    1.9980 C   0  0  0  0  0  0  0  0  0  0  0  0
  1  2  1  0
  2  3  1  0
  3  4  1  0
  4  5  1  1
  4  6  1  0
  6  7  1  0
  7  8  2  0
  7 24  1  0
  8  9  1  0
  9 10  1  0
  9 22  2  0
 10 11  1  0
 11 12  1  0
 12 13  1  6
 12 18  1  0
 13 14  1  0
 14 15  1  6
 14 16  1  0
 16 17  1  0
 18 19  2  0
 18 20  1  0
 20 21  1  0
 22 23  1  0
 23 24  2  0
 24 25  1  0
 25 26  1  0
 26 27  1  0
 27 28  2  0
 27 40  1  0
 28 29  1  0
 29 30  2  0
 30 31  1  0
 30 39  1  0
 31 32  1  0
 32 33  2  0
 32 34  1  0
 34 35  1  0
 35 36  1  0
 36 37  1  0
 37 38  1  0
 39 40  2  0
M  CHG  1  11   1
M  END
