
     RDKit          3D

 40 41  0  0  0  0  0  0  0  0999 V2000
    6.2290   -1.5180    1.9930 C   0  0  0  0  0  0  0  0  0  0  0  0
    6.4600   -1.4600    0.4910 C   0  0  0  0  0  0  0  0  0  0  0  0
    5.1530   -1.5160   -0.2640 C   0  0  0  0  0  0  0  0  0  0  0  0
    4.2390   -0.5360   -0.0070 O   0  0  0  0  0  0  0  0  0  0  0  0
    4.2870    0.8020   -0.2000 C   0  0  0  0  0  0  0  0  0  0  0  0
    5.3910    1.4110   -0.7730 C   0  0  0  0  0  0  0  0  0  0  0  0
    5.4170    2.8000   -0.9630 C   0  0  0  0  0  0  0  0  0  0  0  0
    6.6060    3.4610   -1.5750 C   0  0  0  0  0  0  0  0  0  0  0  0
    6.5430    3.2010   -2.9580 O   0  0  0  0  0  0  0  0  0  0  0  0
    4.3210    3.5330   -0.5660 C   0  0  0  0  0  0  0  0  0  0  0  0
    3.2130    2.9450    0.0030 C   0  0  0  0  0  0  0  0  0  0  0  0
    3.1900    1.5910    0.1870 C   0  0  0  0  0  0  0  0  0  0  0  0
    2.0140    0.8620    0.7480 C   0  0  1  0  0  0  0  0  0  0  0  0
    1.1340    1.8920    1.4270 C   0  0  0  0  0  0  0  0  0  0  0  0
    1.3030    0.2680   -0.3820 N   0  0  0  0  0  0  0  0  0  0  0  0
    0.5180   -0.9010    0.0430 C   0  0  0  0  0  0  0  0  0  0  0  0
   -0.5860   -1.1620   -0.9380 C   0  0  1  0  0  0  0  0  0  0  0  0
   -1.1740   -2.5050   -1.0030 C   0  0  0  0  0  0  0  0  0  0  0  0
   -2.1310   -2.9640   -0.0600 N   0  0  0  0  0  0  0  0  0  0  0  0
   -1.5220   -3.2320    1.2490 C   0  0  0  0  0  0  0  0  0  0  0  0
   -0.6200   -4.4370    1.2200 C   0  0  0  0  0  0  0  0  0  0  0  0
   -0.1030   -4.5890    2.5060 O   0  0  0  0  0  0  0  0  0  0  0  0
   -3.2540   -2.0900    0.0860 C   0  0  0  0  0  0  0  0  0  0  0  0
   -4.4860   -2.6360    0.6260 C   0  0  0  0  0  0  0  0  0  0  0  0
   -5.4630   -1.7990    0.8570 O   0  0  0  0  0  0  0  0  0  0  0  0
   -4.8240   -3.9680    0.9500 N   0  0  0  0  0  0  0  0  0  0  0  0
   -4.0030   -5.1380    0.7640 C   0  0  0  0  0  0  0  0  0  0  0  0
   -6.1530   -4.2480    1.5530 C   0  0  0  0  0  0  0  0  0  0  0  0
   -1.4700   -0.0860   -1.0200 O   0  0  0  0  0  0  0  0  0  0  0  0
   -1.4720    0.5110   -2.2700 C   0  0  0  0  0  0  0  0  0  0  0  0
   -2.3050    1.7680   -2.2560 C   0  0  0  0  0  0  0  0  0  0  0  0
   -2.5100    2.4060   -3.3030 O   0  0  0  0  0  0  0  0  0  0  0  0
   -2.8470    2.2210   -1.0450 N   0  0  0  0  0  0  0  0  0  0  0  0
   -3.6360    3.3690   -0.8310 C   0  0  0  0  0  0  0  0  0  0  0  0
   -3.7830    3.7900    0.5000 C   0  0  0  0  0  0  0  0  0  0  0  0
   -4.5300    4.8970    0.8280 C   0  0  0  0  0  0  0  0  0  0  0  0
   -5.1410    5.6020   -0.1650 C   0  0  0  0  0  0  0  0  0  0  0  0
   -5.9210    6.7430    0.0850 O   0  0  0  0  0  0  0  0  0  0  0  0
   -5.0040    5.1990   -1.4700 C   0  0  0  0  0  0  0  0  0  0  0  0
   -4.2480    4.0740   -1.8220 C   0  0  0  0  0  0  0  0  0  0  0  0
  1  2  1  0
  2  3  1  0
  3  4  1  0
  4  5  1  0
  5  6  2  0
  5 12  1  0
  6  7  1  0
  7  8  1  0
  7 10  2  0
  8  9  1  0
 10 11  1  0
 11 12  2  0
 12 13  1  0
 13 14  1  6
 13 15  1  0
 15 16  1  0
 17 16  1  1
 17 18  1  0
 17 29  1  0
 18 19  1  0
 19 20  1  0
 19 23  1  0
 20 21  1  0
 21 22  1  0
 23 24  1  0
 24 25  2  0
 24 26  1  0
 26 27  1  0
 26 28  1  0
 29 30  1  0
 30 31  1  0
 31 32  2  0
 31 33  1  0
 33 34  1  0
 34 35  2  0
 34 40  1  0
 35 36  1  0
 36 37  2  0
 37 38  1  0
 37 39  1  0
 39 40  2  0
M  CHG  1  15   1
M  END
