
     RDKit          3D

 40 41  0  0  0  0  0  0  0  0999 V2000
    7.3840   -1.6500    0.8080 C   0  0  0  0  0  0  0  0  0  0  0  0
    8.3510   -1.2020   -0.2530 C   0  0  0  0  0  0  0  0  0  0  0  0
    8.9790    0.1140   -0.0050 C   0  0  2  0  0  0  0  0  0  0  0  0
    9.7090   -0.0240    1.2220 O   0  0  0  0  0  0  0  0  0  0  0  0
    8.1620    1.3240    0.1270 C   0  0  0  0  0  0  0  0  0  0  0  0
    7.3120    1.7820   -0.9850 C   0  0  0  0  0  0  0  0  0  0  0  0
    6.2160    0.8690   -1.3730 C   0  0  0  0  0  0  0  0  0  0  0  0
    5.3920    0.6710   -0.2130 O   0  0  0  0  0  0  0  0  0  0  0  0
    4.2740   -0.1550   -0.2910 C   0  0  0  0  0  0  0  0  0  0  0  0
    3.4910   -0.3340    0.8380 C   0  0  0  0  0  0  0  0  0  0  0  0
    2.3720   -1.1480    0.7970 C   0  0  0  0  0  0  0  0  0  0  0  0
    1.9960   -1.8040   -0.3570 C   0  0  0  0  0  0  0  0  0  0  0  0
    0.8900   -2.6120   -0.4100 O   0  0  0  0  0  0  0  0  0  0  0  0
   -0.0090   -2.8930    0.6040 C   0  0  0  0  0  0  0  0  0  0  0  0
   -0.7150   -1.6620    1.0250 C   0  0  0  0  0  0  0  0  0  0  0  0
   -1.4370   -1.7960    2.0700 O   0  0  0  0  0  0  0  0  0  0  0  0
   -0.6430   -0.4110    0.3700 N   0  0  0  0  0  0  0  0  0  0  0  0
   -1.3090    0.7970    0.7300 C   0  0  2  0  0  0  0  0  0  0  0  0
   -0.5620    1.7520    1.5730 C   0  0  0  0  0  0  0  0  0  0  0  0
   -2.7160    0.6130    1.2730 C   0  0  1  0  0  0  0  0  0  0  0  0
   -3.1880    1.9510    1.6020 N   0  0  0  0  0  0  0  0  0  0  0  0
   -4.4750    1.9820    2.2100 C   0  0  0  0  0  0  0  0  0  0  0  0
   -4.5330    1.7140    3.6530 C   0  0  0  0  0  0  0  0  0  0  0  0
   -5.6610    1.7470    4.2030 O   0  0  0  0  0  0  0  0  0  0  0  0
   -3.4050    1.4260    4.4460 N   0  0  0  0  0  0  0  0  0  0  0  0
   -3.5970    1.1780    5.8760 C   0  0  0  0  0  0  0  0  0  0  0  0
   -3.5900    0.0150    0.2030 C   0  0  0  0  0  0  0  0  0  0  0  0
   -3.5550   -1.2250    0.0280 O   0  0  0  0  0  0  0  0  0  0  0  0
   -4.4510    0.7710   -0.6210 N   0  0  0  0  0  0  0  0  0  0  0  0
   -5.3090    0.2770   -1.6370 C   0  0  0  0  0  0  0  0  0  0  0  0
   -5.8370    1.2030   -2.5550 C   0  0  0  0  0  0  0  0  0  0  0  0
   -6.6910    0.8090   -3.5600 C   0  0  0  0  0  0  0  0  0  0  0  0
   -7.0740   -0.5040   -3.7220 C   0  0  0  0  0  0  0  0  0  0  0  0
   -8.0010   -0.9040   -4.8220 C   0  0  0  0  0  0  0  0  0  0  0  0
   -6.5680   -1.4170   -2.8330 C   0  0  0  0  0  0  0  0  0  0  0  0
   -6.9220   -2.8530   -2.9180 C   0  0  0  0  0  0  0  0  0  0  0  0
   -5.6950   -1.0220   -1.8050 C   0  0  0  0  0  0  0  0  0  0  0  0
    2.8020   -1.6060   -1.4800 C   0  0  0  0  0  0  0  0  0  0  0  0
    2.4110   -2.2710   -2.6250 O   0  0  0  0  0  0  0  0  0  0  0  0
    3.9180   -0.8000   -1.4540 C   0  0  0  0  0  0  0  0  0  0  0  0
  1  2  1  0
  2  3  1  0
  3  4  1  1
  3  5  1  0
  5  6  1  0
  6  7  1  0
  7  8  1  0
  8  9  1  0
  9 10  2  0
  9 40  1  0
 10 11  1  0
 11 12  2  0
 12 13  1  0
 12 38  1  0
 13 14  1  0
 14 15  1  0
 15 16  2  0
 15 17  1  0
 17 18  1  0
 18 19  1  1
 18 20  1  0
 20 21  1  6
 20 27  1  0
 21 22  1  0
 22 23  1  0
 23 24  2  0
 23 25  1  0
 25 26  1  0
 27 28  2  0
 27 29  1  0
 29 30  1  0
 30 31  2  0
 30 37  1  0
 31 32  1  0
 32 33  2  0
 33 34  1  0
 33 35  1  0
 35 36  1  0
 35 37  2  0
 38 39  1  0
 38 40  2  0
M  CHG  1  21   1
M  END
