
     RDKit          3D

 39 40  0  0  0  0  0  0  0  0999 V2000
   -8.8970    2.0950    0.8820 C   0  0  0  0  0  0  0  0  0  0  0  0
   -9.6700    0.7840    0.6670 C   0  0  0  0  0  0  0  0  0  0  0  0
   -8.8950   -0.3180    1.3050 C   0  0  0  0  0  0  0  0  0  0  0  0
   -7.5280   -0.5200    0.7590 C   0  0  0  0  0  0  0  0  0  0  0  0
   -6.4480    0.0130    1.4520 C   0  0  0  0  0  0  0  0  0  0  0  0
   -5.1570   -0.0940    1.0150 C   0  0  0  0  0  0  0  0  0  0  0  0
   -4.0920    0.4610    1.7470 O   0  0  0  0  0  0  0  0  0  0  0  0
   -4.3120    1.1490    2.9570 C   0  0  0  0  0  0  0  0  0  0  0  0
   -4.8310   -0.7600   -0.1800 C   0  0  0  0  0  0  0  0  0  0  0  0
   -3.4740   -0.8230   -0.5740 N   0  0  0  0  0  0  0  0  0  0  0  0
   -2.9370   -1.4370   -1.7140 C   0  0  0  0  0  0  0  0  0  0  0  0
   -3.7720   -2.0220   -2.5030 O   0  0  0  0  0  0  0  0  0  0  0  0
   -1.5110   -1.4820   -2.1060 C   0  0  0  0  0  0  0  0  0  0  0  0
   -0.5890   -0.8390   -1.2340 N   0  0  0  0  0  0  0  0  0  0  0  0
    0.8030   -0.7840   -1.4830 C   0  0  0  0  0  0  0  0  0  0  0  0
    1.3160   -1.2980   -2.4810 O   0  0  0  0  0  0  0  0  0  0  0  0
    1.6770   -0.0680   -0.4840 C   0  0  2  0  0  0  0  0  0  0  0  0
    3.0530   -0.2060   -0.9560 C   0  0  0  0  0  0  0  0  0  0  0  0
    4.2090    0.4020   -0.3080 C   0  0  0  0  0  0  0  0  0  0  0  0
    4.5690    0.0940    1.0910 C   0  0  0  0  0  0  0  0  0  0  0  0
    5.8130    0.8700    1.3620 N   0  0  0  0  0  0  0  0  0  0  0  0
    6.9000    0.0890    0.7660 C   0  0  0  0  0  0  0  0  0  0  0  0
    7.5390    0.8500   -0.3340 C   0  0  0  0  0  0  0  0  0  0  0  0
    7.0770    2.0230   -0.5860 O   0  0  0  0  0  0  0  0  0  0  0  0
    8.6090    0.4010   -1.1330 N   0  0  0  0  0  0  0  0  0  0  0  0
    9.0950    1.2750   -2.2180 C   0  0  0  0  0  0  0  0  0  0  0  0
    9.2620   -0.8480   -0.9270 C   0  0  0  0  0  0  0  0  0  0  0  0
   10.4750   -0.7850   -0.0620 C   0  0  0  0  0  0  0  0  0  0  0  0
   10.2130   -0.3130    1.2090 O   0  0  0  0  0  0  0  0  0  0  0  0
    1.4740   -0.7770    0.8490 C   0  0  0  0  0  0  0  0  0  0  0  0
    0.9540    0.1890    1.8410 C   0  0  0  0  0  0  0  0  0  0  0  0
    0.7630    1.4850    1.1290 C   0  0  0  0  0  0  0  0  0  0  0  0
    1.1450    1.2970   -0.3170 C   0  0  2  0  0  0  0  0  0  0  0  0
    0.0270    1.5930   -1.0960 O   0  0  0  0  0  0  0  0  0  0  0  0
   -5.9000   -1.2790   -0.8490 C   0  0  0  0  0  0  0  0  0  0  0  0
   -7.2380   -1.1760   -0.4080 C   0  0  0  0  0  0  0  0  0  0  0  0
   -8.2690   -1.8070   -1.2040 C   0  0  0  0  0  0  0  0  0  0  0  0
   -7.9150   -2.3920   -2.5170 C   0  0  0  0  0  0  0  0  0  0  0  0
   -9.4480   -1.8850   -0.8430 O   0  0  0  0  0  0  0  0  0  0  0  0
  1  2  1  0
  2  3  1  0
  3  4  1  0
  4  5  2  0
  4 36  1  0
  5  6  1  0
  6  7  1  0
  6  9  2  0
  7  8  1  0
  9 10  1  0
  9 35  1  0
 10 11  1  0
 11 12  2  0
 11 13  1  0
 13 14  1  0
 14 15  1  0
 15 16  2  0
 15 17  1  0
 17 18  1  6
 17 30  1  0
 17 33  1  0
 18 19  1  0
 19 20  1  0
 20 21  1  0
 21 22  1  0
 22 23  1  0
 23 24  2  0
 23 25  1  0
 25 26  1  0
 25 27  1  0
 27 28  1  0
 28 29  1  0
 30 31  1  0
 31 32  1  0
 32 33  1  0
 33 34  1  6
 35 36  2  0
 36 37  1  0
 37 38  1  0
 37 39  2  0
M  CHG  1  21   1
M  END
