
     RDKit          3D

 40 42  0  0  0  0  0  0  0  0999 V2000
   -2.7150   -4.8950   -0.8660 C   0  0  0  0  0  0  0  0  0  0  0  0
   -2.0190   -3.5520   -0.6810 C   0  0  0  0  0  0  0  0  0  0  0  0
   -2.9860   -2.5300    0.0060 C   0  0  2  0  0  0  0  0  0  0  0  0
   -4.0870   -2.5140   -1.0110 C   0  0  0  0  0  0  0  0  0  0  0  0
   -2.3130   -1.2280    0.1030 N   0  0  1  0  0  0  0  0  0  0  0  0
   -1.2810   -1.2030   -0.9360 C   0  0  0  0  0  0  0  0  0  0  0  0
   -0.2360   -0.1900   -0.9720 C   0  0  0  0  0  0  0  0  0  0  0  0
    0.7370   -0.0550    0.0090 N   0  0  0  0  0  0  0  0  0  0  0  0
    1.6180    1.0430   -0.2900 C   0  0  0  0  0  0  0  0  0  0  0  0
    2.6660    0.5210   -1.2490 C   0  0  0  0  0  0  0  0  0  0  0  0
    3.1860   -0.7360   -0.8800 N   0  0  0  0  0  0  0  0  0  0  0  0
    4.5110   -1.0570   -1.2460 C   0  0  0  0  0  0  0  0  0  0  0  0
    5.5420   -0.1240   -0.7380 C   0  0  0  0  0  0  0  0  0  0  0  0
    5.4130    0.9020    0.1590 C   0  0  0  0  0  0  0  0  0  0  0  0
    6.6570    1.4740    0.3030 C   0  0  0  0  0  0  0  0  0  0  0  0
    7.5010    0.7640   -0.5220 C   0  0  0  0  0  0  0  0  0  0  0  0
    6.8000   -0.1480   -1.0990 O   0  0  0  0  0  0  0  0  0  0  0  0
    8.9250    1.2120   -0.5320 C   0  0  0  0  0  0  0  0  0  0  0  0
    9.3270    1.3100    0.9410 C   0  0  0  0  0  0  0  0  0  0  0  0
    8.5230    2.3150    1.7000 C   0  0  0  0  0  0  0  0  0  0  0  0
    7.1830    2.6210    1.1160 C   0  0  0  0  0  0  0  0  0  0  0  0
    2.8300   -1.2770    0.3740 C   0  0  0  0  0  0  0  0  0  0  0  0
    1.3330   -1.0960    0.6850 C   0  0  0  0  0  0  0  0  0  0  0  0
   -3.0770   -0.0410   -0.0110 C   0  0  2  0  0  0  0  0  0  0  0  0
   -2.4270    0.9170    1.1380 C   0  0  0  0  0  0  0  0  0  0  0  0
   -3.0490    2.1080    1.1990 O   0  0  0  0  0  0  0  0  0  0  0  0
   -4.4340    0.2670    0.3150 C   0  0  1  0  0  0  0  0  0  0  0  0
   -4.7850    0.4540    1.6390 O   0  0  0  0  0  0  0  0  0  0  0  0
   -5.1330    1.1890   -0.6140 C   0  0  0  0  0  0  0  0  0  0  0  0
   -4.6430    2.5210   -0.8660 C   0  0  0  0  0  0  0  0  0  0  0  0
   -3.6640    2.7200   -1.6710 O   0  0  0  0  0  0  0  0  0  0  0  0
   -5.1740    3.6590   -0.2770 O   0  0  0  0  0  0  0  0  0  0  0  0
   -4.6500    4.9210   -0.5650 C   0  0  0  0  0  0  0  0  0  0  0  0
   -4.7190    5.2840   -1.9950 C   0  0  0  0  0  0  0  0  0  0  0  0
   -4.2110    6.5530   -2.3600 N   0  0  0  0  0  0  0  0  0  0  0  0
   -5.1940    4.5570   -2.9050 O   0  0  0  0  0  0  0  0  0  0  0  0
   -3.2300   -3.1670    1.3170 C   0  0  2  0  0  0  0  0  0  0  0  0
   -4.1490   -2.5350    2.3070 C   0  0  0  0  0  0  0  0  0  0  0  0
   -1.9760   -3.5650    2.0710 C   0  0  0  0  0  0  0  0  0  0  0  0
   -3.8460   -4.4540    1.1910 O   0  0  0  0  0  0  0  0  0  0  0  0
  1  2  1  0
  2  3  1  0
  3  4  1  6
  3  5  1  0
  3 37  1  0
  5  6  1  6
  5 24  1  0
  6  7  1  0
  7  8  1  0
  8  9  1  0
  8 23  1  0
  9 10  1  0
 10 11  1  0
 11 12  1  0
 11 22  1  0
 12 13  1  0
 13 14  2  0
 13 17  1  0
 14 15  1  0
 15 16  2  0
 15 21  1  0
 16 17  1  0
 16 18  1  0
 18 19  1  0
 19 20  1  0
 20 21  1  0
 22 23  1  0
 24 25  1  1
 24 27  1  0
 25 26  1  0
 27 28  1  1
 27 29  1  0
 29 30  1  0
 30 31  2  0
 30 32  1  0
 32 33  1  0
 33 34  1  0
 34 35  1  0
 34 36  2  0
 37 38  1  1
 37 39  1  0
 37 40  1  0
M  CHG  1   5   1
M  END
