
     RDKit          3D

 40 41  0  0  0  0  0  0  0  0999 V2000
   -5.1290   -0.2320   -0.2830 C   0  0  0  0  0  0  0  0  0  0  0  0
   -4.2430   -1.2360   -0.9070 C   0  0  0  0  0  0  0  0  0  0  0  0
   -2.8950   -0.8390   -1.3590 C   0  0  0  0  0  0  0  0  0  0  0  0
   -1.9150   -0.3200   -0.3830 C   0  0  1  0  0  0  0  0  0  0  0  0
   -0.6330   -0.0580   -1.2060 C   0  0  0  0  0  0  0  0  0  0  0  0
    0.4990    0.4520   -0.3920 C   0  0  0  0  0  0  0  0  0  0  0  0
    1.6530    0.6470   -1.3200 C   0  0  0  0  0  0  0  0  0  0  0  0
    1.5940    0.2510   -2.5290 O   0  0  0  0  0  0  0  0  0  0  0  0
    2.8630    1.2750   -0.9180 N   0  0  0  0  0  0  0  0  0  0  0  0
    3.9700    1.4550   -1.8450 C   0  0  0  0  0  0  0  0  0  0  0  0
    4.8920    0.3000   -1.8740 C   0  0  0  0  0  0  0  0  0  0  0  0
    5.9610    0.3080   -2.5450 O   0  0  0  0  0  0  0  0  0  0  0  0
    4.6320   -0.8560   -1.1650 O   0  0  0  0  0  0  0  0  0  0  0  0
    5.5150   -1.9530   -1.1980 C   0  0  0  0  0  0  0  0  0  0  0  0
    3.0490    1.7840    0.4120 C   0  0  0  0  0  0  0  0  0  0  0  0
    3.6370    0.8050    1.3490 C   0  0  0  0  0  0  0  0  0  0  0  0
    3.0220   -0.0650    2.2260 C   0  0  0  0  0  0  0  0  0  0  0  0
    3.9920   -0.7870    2.8990 C   0  0  0  0  0  0  0  0  0  0  0  0
    5.1820   -0.3150    2.3910 C   0  0  0  0  0  0  0  0  0  0  0  0
    6.5180   -0.8260    2.8430 C   0  0  0  0  0  0  0  0  0  0  0  0
    4.9420    0.5930    1.5080 O   0  0  0  0  0  0  0  0  0  0  0  0
   -2.2320    0.9520    0.1990 N   0  0  0  0  0  0  0  0  0  0  0  0
   -2.3540    2.0490   -0.7350 C   0  0  0  0  0  0  0  0  0  0  0  0
   -3.0400    3.1640    0.0180 C   0  0  1  0  0  0  0  0  0  0  0  0
   -2.3190    3.5530    1.1510 O   0  0  0  0  0  0  0  0  0  0  0  0
   -3.3050    4.3250   -0.8690 C   0  0  0  0  0  0  0  0  0  0  0  0
   -3.0720    4.2910   -2.2200 C   0  0  0  0  0  0  0  0  0  0  0  0
   -3.3210    5.3710   -3.0630 C   0  0  0  0  0  0  0  0  0  0  0  0
   -3.8220    6.5330   -2.5350 C   0  0  0  0  0  0  0  0  0  0  0  0
   -4.0620    6.5840   -1.1730 C   0  0  0  0  0  0  0  0  0  0  0  0
   -3.8140    5.5160   -0.3510 C   0  0  0  0  0  0  0  0  0  0  0  0
   -1.5490   -1.2530    0.6880 C   0  0  0  0  0  0  0  0  0  0  0  0
   -1.5230   -0.8780    1.9130 O   0  0  0  0  0  0  0  0  0  0  0  0
   -1.2040   -2.6160    0.4610 N   0  0  0  0  0  0  0  0  0  0  0  0
   -0.8570   -3.4770    1.5440 C   0  0  0  0  0  0  0  0  0  0  0  0
   -0.5270   -4.8830    1.1000 C   0  0  1  0  0  0  0  0  0  0  0  0
    0.6500   -4.8730    0.1390 C   0  0  0  0  0  0  0  0  0  0  0  0
   -0.1600   -5.6680    2.2960 C   0  0  0  0  0  0  0  0  0  0  0  0
   -1.1020   -5.8140    3.3380 N   0  0  0  0  0  0  0  0  0  0  0  0
    0.9600   -6.2080    2.4150 O   0  0  0  0  0  0  0  0  0  0  0  0
  1  2  1  0
  2  3  1  0
  4  3  1  6
  4  5  1  0
  4 22  1  0
  4 32  1  0
  5  6  1  0
  6  7  1  0
  7  8  2  0
  7  9  1  0
  9 10  1  0
  9 15  1  0
 10 11  1  0
 11 12  2  0
 11 13  1  0
 13 14  1  0
 15 16  1  0
 16 17  2  0
 16 21  1  0
 17 18  1  0
 18 19  2  0
 19 20  1  0
 19 21  1  0
 22 23  1  0
 23 24  1  0
 24 25  1  1
 24 26  1  0
 26 27  2  0
 26 31  1  0
 27 28  1  0
 28 29  2  0
 29 30  1  0
 30 31  2  0
 32 33  2  0
 32 34  1  0
 34 35  1  0
 35 36  1  0
 36 37  1  6
 36 38  1  0
 38 39  1  0
 38 40  2  0
M  CHG  1  22   1
M  END
