
     RDKit          3D

 40 41  0  0  0  0  0  0  0  0999 V2000
   -8.2490    2.0640    2.5800 C   0  0  0  0  0  0  0  0  0  0  0  0
   -8.3090    2.4230    1.2810 O   0  0  0  0  0  0  0  0  0  0  0  0
   -7.3900    1.9970    0.3700 C   0  0  0  0  0  0  0  0  0  0  0  0
   -7.3590    0.5230    0.2240 C   0  0  2  0  0  0  0  0  0  0  0  0
   -6.9500   -0.0450    1.4470 O   0  0  0  0  0  0  0  0  0  0  0  0
   -6.4390    0.1090   -0.9280 C   0  0  0  0  0  0  0  0  0  0  0  0
   -5.0700    0.4330   -0.7770 N   0  0  0  0  0  0  0  0  0  0  0  0
   -4.2210   -0.1360    0.1960 C   0  0  0  0  0  0  0  0  0  0  0  0
   -4.5740   -1.0190    1.0120 O   0  0  0  0  0  0  0  0  0  0  0  0
   -2.8700    0.2980    0.2880 N   0  0  0  0  0  0  0  0  0  0  0  0
   -1.9510   -0.2560    1.2580 C   0  0  2  0  0  0  0  0  0  0  0  0
   -1.4710    0.8340    2.2270 C   0  0  0  0  0  0  0  0  0  0  0  0
   -0.8290    1.8370    1.5030 O   0  0  0  0  0  0  0  0  0  0  0  0
   -0.6800   -0.6550    0.4790 C   0  0  0  0  0  0  0  0  0  0  0  0
   -0.9880   -1.6360   -0.5880 C   0  0  0  0  0  0  0  0  0  0  0  0
    0.0580   -2.0430   -1.2930 O   0  0  0  0  0  0  0  0  0  0  0  0
    1.0820   -2.7660   -0.9060 C   0  0  2  0  0  0  0  0  0  0  0  0
    1.9860   -2.9560   -2.1720 C   0  0  0  0  0  0  0  0  0  0  0  0
    0.7430   -4.2080   -0.5220 C   0  0  0  0  0  0  0  0  0  0  0  0
    1.9150   -2.1820    0.1620 C   0  0  0  0  0  0  0  0  0  0  0  0
    2.2140   -2.7400    1.4030 C   0  0  0  0  0  0  0  0  0  0  0  0
    3.0200   -1.8280    2.0360 C   0  0  0  0  0  0  0  0  0  0  0  0
    3.1930   -0.7530    1.1840 C   0  0  0  0  0  0  0  0  0  0  0  0
    4.0120    0.4770    1.4820 C   0  0  0  0  0  0  0  0  0  0  0  0
    5.4280    0.1510    0.9920 C   0  0  0  0  0  0  0  0  0  0  0  0
    6.3740    1.2910    1.2410 C   0  0  0  0  0  0  0  0  0  0  0  0
    7.7460    0.9550    0.7710 C   0  0  0  0  0  0  0  0  0  0  0  0
    7.8830    0.6640   -0.6200 N   0  0  0  0  0  0  0  0  0  0  0  0
    9.0610    1.2970   -1.2040 C   0  0  0  0  0  0  0  0  0  0  0  0
   10.2750    0.6280   -0.6990 C   0  0  0  0  0  0  0  0  0  0  0  0
   10.3100   -0.3970    0.1500 O   0  0  0  0  0  0  0  0  0  0  0  0
   11.5480   -0.7160    0.3650 N   0  0  0  0  0  0  0  0  0  0  0  0
   12.3780    0.0800   -0.3290 C   0  0  0  0  0  0  0  0  0  0  0  0
   11.5640    0.9470   -1.0150 C   0  0  0  0  0  0  0  0  0  0  0  0
   12.0150    2.0300   -1.9250 C   0  0  0  0  0  0  0  0  0  0  0  0
    2.5160   -1.0230    0.0960 O   0  0  0  0  0  0  0  0  0  0  0  0
   -8.6930   -0.0540   -0.1400 C   0  0  0  0  0  0  0  0  0  0  0  0
   -9.2850    0.2910   -1.4250 C   0  0  1  0  0  0  0  0  0  0  0  0
  -10.6540   -0.4400   -1.5950 C   0  0  0  0  0  0  0  0  0  0  0  0
   -9.5430    1.7230   -1.7080 C   0  0  0  0  0  0  0  0  0  0  0  0
  1  2  1  0
  2  3  1  0
  3  4  1  0
  4  5  1  1
  4  6  1  0
  4 37  1  0
  6  7  1  0
  7  8  1  0
  8  9  2  0
  8 10  1  0
 10 11  1  0
 11 12  1  1
 11 14  1  0
 12 13  1  0
 14 15  1  0
 15 16  1  0
 16 17  1  0
 17 18  1  6
 17 19  1  0
 17 20  1  0
 20 21  2  0
 20 36  1  0
 21 22  1  0
 22 23  2  0
 23 24  1  0
 23 36  1  0
 24 25  1  0
 25 26  1  0
 26 27  1  0
 27 28  1  0
 28 29  1  0
 29 30  1  0
 30 31  1  0
 30 34  2  0
 31 32  1  0
 32 33  2  0
 33 34  1  0
 34 35  1  0
 37 38  1  0
 38 39  1  1
 38 40  1  0
M  CHG  1  28   1
M  END
