
     RDKit          3D

 40 44  0  0  0  0  0  0  0  0999 V2000
   -8.5660    2.8820   -1.9760 O   0  0  0  0  0  0  0  0  0  0  0  0
   -7.5140    2.5470   -2.5500 C   0  0  0  0  0  0  0  0  0  0  0  0
   -7.2660    2.9890   -3.8310 O   0  0  0  0  0  0  0  0  0  0  0  0
   -6.5650    1.6870   -1.8410 C   0  0  0  0  0  0  0  0  0  0  0  0
   -5.3610    1.2220   -2.3160 C   0  0  0  0  0  0  0  0  0  0  0  0
   -4.7370    0.4260   -1.3460 C   0  0  0  0  0  0  0  0  0  0  0  0
   -3.4420   -0.2170   -1.5440 C   0  0  0  0  0  0  0  0  0  0  0  0
   -2.7580   -0.0590   -2.7470 C   0  0  0  0  0  0  0  0  0  0  0  0
   -1.5330   -0.6390   -2.9950 C   0  0  0  0  0  0  0  0  0  0  0  0
   -0.9130   -1.4180   -2.0470 C   0  0  0  0  0  0  0  0  0  0  0  0
    0.3890   -2.0360   -2.3090 C   0  0  0  0  0  0  0  0  0  0  0  0
    0.5170   -3.2720   -3.3760 S   0  0  0  0  0  0  0  0  0  0  0  0
    1.5250   -1.5620   -1.6410 N   0  0  0  0  0  0  0  0  0  0  0  0
    1.4420   -0.4780   -0.6990 C   0  0  0  0  0  0  0  0  0  0  0  0
    2.8010   -0.1800   -0.1440 C   0  0  0  0  0  0  0  0  0  0  0  0
    3.6250    0.7500   -0.7450 C   0  0  0  0  0  0  0  0  0  0  0  0
    4.8750    1.0080   -0.2150 C   0  0  0  0  0  0  0  0  0  0  0  0
    5.3520    0.3710    0.9080 C   0  0  0  0  0  0  0  0  0  0  0  0
    6.6920    0.6710    1.4470 C   0  0  0  0  0  0  0  0  0  0  0  0
    7.2880    0.1080    2.5560 C   0  0  0  0  0  0  0  0  0  0  0  0
    8.5430    0.6690    2.7120 C   0  0  0  0  0  0  0  0  0  0  0  0
    8.6560    1.5750    1.6600 C   0  0  0  0  0  0  0  0  0  0  0  0
    9.8230    2.4190    1.4030 C   0  0  0  0  0  0  0  0  0  0  0  0
   10.8290    2.3690    2.1510 O   0  0  0  0  0  0  0  0  0  0  0  0
    9.8260    3.2870    0.3220 O   0  0  0  0  0  0  0  0  0  0  0  0
    7.5470    1.5260    0.9640 O   0  0  0  0  0  0  0  0  0  0  0  0
    4.5400   -0.5580    1.5170 C   0  0  0  0  0  0  0  0  0  0  0  0
    3.2790   -0.8180    0.9810 C   0  0  0  0  0  0  0  0  0  0  0  0
   -1.5690   -1.5860   -0.8550 C   0  0  0  0  0  0  0  0  0  0  0  0
   -2.8240   -0.9910   -0.6040 C   0  0  0  0  0  0  0  0  0  0  0  0
   -5.5810    0.4340   -0.3120 N   0  0  0  0  0  0  0  0  0  0  0  0
   -5.4350   -0.2190    0.9360 C   0  0  0  0  0  0  0  0  0  0  0  0
   -5.9040   -1.4910    1.1580 C   0  0  0  0  0  0  0  0  0  0  0  0
   -5.7880   -2.1130    2.3950 C   0  0  0  0  0  0  0  0  0  0  0  0
   -5.1800   -1.4140    3.4140 C   0  0  0  0  0  0  0  0  0  0  0  0
   -5.0360   -2.2130    4.9830 Cl  0  0  0  0  0  0  0  0  0  0  0  0
   -4.6970   -0.1360    3.2240 C   0  0  0  0  0  0  0  0  0  0  0  0
   -3.9410    0.6820    4.5640 Cl  0  0  0  0  0  0  0  0  0  0  0  0
   -4.8310    0.4570    1.9710 C   0  0  0  0  0  0  0  0  0  0  0  0
   -6.6710    1.1850   -0.6050 N   0  0  0  0  0  0  0  0  0  0  0  0
  1  2  2  0
  2  3  1  0
  2  4  1  0
  4  5  1  0
  4 40  2  0
  5  6  2  0
  6  7  1  0
  6 31  1  0
  7  8  2  0
  7 30  1  0
  8  9  1  0
  9 10  2  0
 10 11  1  0
 10 29  1  0
 11 12  2  0
 11 13  1  0
 13 14  1  0
 14 15  1  0
 15 16  2  0
 15 28  1  0
 16 17  1  0
 17 18  2  0
 18 19  1  0
 18 27  1  0
 19 20  2  0
 19 26  1  0
 20 21  1  0
 21 22  2  0
 22 23  1  0
 22 26  1  0
 23 24  2  0
 23 25  1  0
 27 28  2  0
 29 30  2  0
 31 32  1  0
 31 40  1  0
 32 33  2  0
 32 39  1  0
 33 34  1  0
 34 35  2  0
 35 36  1  0
 35 37  1  0
 37 38  1  0
 37 39  2  0
M  END
