
     RDKit          3D

 40 42  0  0  0  0  0  0  0  0999 V2000
   -8.2400   -2.5330    3.8910 C   0  0  0  0  0  0  0  0  0  0  0  0
   -7.2950   -2.2010    4.7290 C   0  0  0  0  0  0  0  0  0  0  0  0
   -7.6850   -2.3820    6.4390 Cl  0  0  0  0  0  0  0  0  0  0  0  0
   -5.9680   -1.7010    4.3740 C   0  0  0  0  0  0  0  0  0  0  0  0
   -5.1210   -1.4100    5.3280 C   0  0  0  0  0  0  0  0  0  0  0  0
   -5.5280   -1.6000    7.0070 Cl  0  0  0  0  0  0  0  0  0  0  0  0
   -5.6860   -1.5510    2.9900 N   0  0  0  0  0  0  0  0  0  0  0  0
   -4.5100   -1.0680    2.4000 C   0  0  0  0  0  0  0  0  0  0  0  0
   -3.5540   -0.7050    3.0990 O   0  0  0  0  0  0  0  0  0  0  0  0
   -4.4010   -0.9850    0.9220 C   0  0  0  0  0  0  0  0  0  0  0  0
   -5.2810   -1.3420    0.0220 O   0  0  0  0  0  0  0  0  0  0  0  0
   -4.8700   -1.1350   -1.1910 C   0  0  0  0  0  0  0  0  0  0  0  0
   -3.5910   -0.5860   -1.1260 C   0  0  0  0  0  0  0  0  0  0  0  0
   -3.3190   -0.5020    0.2180 C   0  0  0  0  0  0  0  0  0  0  0  0
   -2.0560    0.0150    0.7890 C   0  0  0  0  0  0  0  0  0  0  0  0
   -1.1590   -0.8500    0.9160 O   0  0  0  0  0  0  0  0  0  0  0  0
   -1.9520    1.4220    1.1510 C   0  0  0  0  0  0  0  0  0  0  0  0
   -1.3170    2.3520    0.1730 C   0  0  0  0  0  0  0  0  0  0  0  0
    0.0940    1.9690   -0.0670 C   0  0  0  0  0  0  0  0  0  0  0  0
    0.5530    0.9970    0.5240 O   0  0  0  0  0  0  0  0  0  0  0  0
    0.9330    2.6940   -0.9620 N   0  0  0  0  0  0  0  0  0  0  0  0
    2.2830    2.4710   -1.2960 C   0  0  0  0  0  0  0  0  0  0  0  0
    3.3390    2.5550   -0.2690 C   0  0  1  0  0  0  0  0  0  0  0  0
    3.3930    3.9070    0.4210 C   0  0  0  0  0  0  0  0  0  0  0  0
    3.3740    1.3910    0.6630 C   0  0  0  0  0  0  0  0  0  0  0  0
    4.9800    2.4890   -1.1700 S   0  0  0  0  0  0  0  0  0  0  0  0
    5.0170    0.8700   -1.9130 C   0  0  0  0  0  0  0  0  0  0  0  0
    5.7160   -0.1530   -1.4490 C   0  0  0  0  0  0  0  0  0  0  0  0
    6.4930   -0.0560   -0.3250 O   0  0  0  0  0  0  0  0  0  0  0  0
    7.8760   -0.3590   -0.3660 C   0  0  2  0  0  0  0  0  0  0  0  0
    8.1410   -1.7780   -0.7940 C   0  0  0  0  0  0  0  0  0  0  0  0
    8.3710   -0.2400    1.0740 C   0  0  0  0  0  0  0  0  0  0  0  0
    7.6250   -1.2170    1.9630 C   0  0  0  0  0  0  0  0  0  0  0  0
   -2.7090   -0.2010   -2.2130 C   0  0  0  0  0  0  0  0  0  0  0  0
   -1.4870   -0.1090   -1.9440 O   0  0  0  0  0  0  0  0  0  0  0  0
   -3.1170    0.0670   -3.5120 O   0  0  0  0  0  0  0  0  0  0  0  0
   -4.4070   -0.1020   -4.1070 C   0  0  1  0  0  0  0  0  0  0  0  0
   -4.1750   -0.0630   -5.6140 C   0  0  0  0  0  0  0  0  0  0  0  0
   -5.0470   -1.4160   -3.7480 C   0  0  0  0  0  0  0  0  0  0  0  0
   -5.5690   -1.4050   -2.3990 N   0  0  0  0  0  0  0  0  0  0  0  0
  1  2  2  0
  2  3  1  0
  2  4  1  0
  4  5  2  0
  4  7  1  0
  5  6  1  0
  7  8  1  0
  8  9  2  0
  8 10  1  0
 10 11  1  0
 10 14  2  0
 11 12  1  0
 12 13  2  0
 12 40  1  0
 13 14  1  0
 13 34  1  0
 14 15  1  0
 15 16  2  0
 15 17  1  0
 17 18  1  0
 18 19  1  0
 19 20  2  0
 19 21  1  0
 21 22  1  0
 22 23  1  0
 23 24  1  1
 23 25  1  0
 23 26  1  0
 26 27  1  0
 27 28  2  3
 28 29  1  0
 29 30  1  0
 30 31  1  1
 30 32  1  0
 32 33  1  0
 34 35  2  0
 34 36  1  0
 36 37  1  0
 37 38  1  6
 37 39  1  0
 39 40  1  0
  6  3  1  0
M  END
