
     RDKit          3D

 40 41  0  0  0  0  0  0  0  0999 V2000
   10.5670   -1.8590    2.2840 C   0  0  0  0  0  0  0  0  0  0  0  0
   10.2970   -0.4120    1.8820 C   0  0  0  0  0  0  0  0  0  0  0  0
   10.2670   -0.2700    0.1060 S   0  0  0  0  0  0  0  0  0  0  0  0
    8.9330   -1.1040   -0.7270 C   0  0  2  0  0  0  0  0  0  0  0  0
    9.3410   -1.1900   -2.2200 C   0  0  0  0  0  0  0  0  0  0  0  0
    7.6600   -0.2660   -0.7770 C   0  0  0  0  0  0  0  0  0  0  0  0
    7.1360    0.1080    0.5760 C   0  0  0  0  0  0  0  0  0  0  0  0
    5.9080    0.8700    0.4300 N   0  0  0  0  0  0  0  0  0  0  0  0
    4.7430    0.3510   -0.1830 C   0  0  0  0  0  0  0  0  0  0  0  0
    4.7240   -0.8110   -0.6280 O   0  0  0  0  0  0  0  0  0  0  0  0
    3.5130    1.2120   -0.2980 C   0  0  0  0  0  0  0  0  0  0  0  0
    2.4460    0.3640   -0.9700 C   0  0  0  0  0  0  0  0  0  0  0  0
    1.1820    1.1120   -1.1380 C   0  0  0  0  0  0  0  0  0  0  0  0
    1.0570    1.8590   -2.0720 O   0  0  0  0  0  0  0  0  0  0  0  0
    0.0770    0.9310   -0.1460 C   0  0  2  0  0  0  0  0  0  0  0  0
   -0.3750   -0.4710   -0.1560 C   0  0  0  0  0  0  0  0  0  0  0  0
   -1.6340   -0.7670   -0.9400 C   0  0  0  0  0  0  0  0  0  0  0  0
   -2.5780    0.3000   -0.5460 N   0  0  0  0  0  0  0  0  0  0  0  0
   -3.6690   -0.0500    0.2150 C   0  0  0  0  0  0  0  0  0  0  0  0
   -3.8170   -1.3200    0.5360 O   0  0  0  0  0  0  0  0  0  0  0  0
   -4.7620    0.7700    0.7700 C   0  0  1  0  0  0  0  0  0  0  0  0
   -4.7660    0.5520    2.2700 C   0  0  0  0  0  0  0  0  0  0  0  0
   -4.5500    2.1160    0.4530 O   0  0  0  0  0  0  0  0  0  0  0  0
   -5.4700    3.0630    0.8810 C   0  0  0  0  0  0  0  0  0  0  0  0
   -6.4530    2.6670    1.5340 O   0  0  0  0  0  0  0  0  0  0  0  0
   -5.3240    4.5050    0.5920 C   0  0  0  0  0  0  0  0  0  0  0  0
   -6.6900    5.3830    1.2920 Cl  0  0  0  0  0  0  0  0  0  0  0  0
   -6.0460    0.2830    0.1740 C   0  0  0  0  0  0  0  0  0  0  0  0
   -6.6390    1.0770   -0.5700 O   0  0  0  0  0  0  0  0  0  0  0  0
   -6.5850   -0.9930    0.4210 N   0  0  0  0  0  0  0  0  0  0  0  0
   -7.7860   -1.5170   -0.1050 C   0  0  0  0  0  0  0  0  0  0  0  0
   -8.6480   -0.8790   -0.9580 C   0  0  0  0  0  0  0  0  0  0  0  0
   -9.8240   -1.4960   -1.4230 C   0  0  0  0  0  0  0  0  0  0  0  0
  -10.1660   -2.7710   -1.0440 C   0  0  0  0  0  0  0  0  0  0  0  0
  -11.3300   -3.3950   -1.4980 O   0  0  0  0  0  0  0  0  0  0  0  0
   -9.3080   -3.4220   -0.1880 C   0  0  0  0  0  0  0  0  0  0  0  0
   -8.1540   -2.8090    0.2640 C   0  0  0  0  0  0  0  0  0  0  0  0
   -7.0860   -3.6890    1.3610 Cl  0  0  0  0  0  0  0  0  0  0  0  0
   -2.2060    1.5720   -1.0210 C   0  0  0  0  0  0  0  0  0  0  0  0
   -0.9210    2.0080   -0.3310 C   0  0  0  0  0  0  0  0  0  0  0  0
  1  2  1  0
  2  3  1  0
  3  4  1  0
  4  5  1  6
  4  6  1  0
  6  7  1  0
  7  8  1  0
  8  9  1  0
  9 10  2  0
  9 11  1  0
 11 12  1  0
 12 13  1  0
 13 14  2  0
 15 13  1  6
 15 16  1  0
 15 40  1  0
 16 17  1  0
 17 18  1  0
 18 19  1  0
 18 39  1  0
 19 20  2  0
 19 21  1  0
 21 22  1  1
 21 23  1  0
 21 28  1  0
 23 24  1  0
 24 25  2  0
 24 26  1  0
 26 27  1  0
 28 29  2  0
 28 30  1  0
 30 31  1  0
 31 32  2  0
 31 37  1  0
 32 33  1  0
 33 34  2  0
 34 35  1  0
 34 36  1  0
 36 37  2  0
 37 38  1  0
 39 40  1  0
M  END
