
     RDKit          3D

 40 41  0  0  0  0  0  0  0  0999 V2000
   -6.2070   -2.9270   -3.7810 C   0  0  0  0  0  0  0  0  0  0  0  0
   -5.2290   -1.9610   -4.3310 C   0  0  0  0  0  0  0  0  0  0  0  0
   -4.6200   -1.0940   -3.5360 C   0  0  0  0  0  0  0  0  0  0  0  0
   -4.9150   -1.0940   -2.1220 C   0  0  0  0  0  0  0  0  0  0  0  0
   -4.3840   -0.2900   -1.2300 C   0  0  0  0  0  0  0  0  0  0  0  0
   -3.4340    0.6760   -1.6710 N   0  0  0  0  0  0  0  0  0  0  0  0
   -2.0620    0.5870   -1.3220 C   0  0  0  0  0  0  0  0  0  0  0  0
   -1.7260   -0.4150   -0.6100 O   0  0  0  0  0  0  0  0  0  0  0  0
   -1.0560    1.5100   -1.6990 N   0  0  0  0  0  0  0  0  0  0  0  0
    0.3210    1.3310   -1.3430 C   0  0  1  0  0  0  0  0  0  0  0  0
    1.2740    1.5170   -2.4740 C   0  0  0  0  0  0  0  0  0  0  0  0
    2.6210    0.9480   -2.1300 C   0  0  0  0  0  0  0  0  0  0  0  0
    2.8250    0.9830   -0.6700 N   0  0  0  0  0  0  0  0  0  0  0  0
    3.6500    0.0310   -0.0540 C   0  0  0  0  0  0  0  0  0  0  0  0
    4.3740   -0.6490   -0.8740 O   0  0  0  0  0  0  0  0  0  0  0  0
    3.7670   -0.2690    1.3510 C   0  0  0  0  0  0  0  0  0  0  0  0
    4.5530   -1.5530    1.6520 C   0  0  0  0  0  0  0  0  0  0  0  0
    5.9750   -1.5220    1.2360 C   0  0  0  0  0  0  0  0  0  0  0  0
    6.6930   -2.8260    1.5510 C   0  0  1  0  0  0  0  0  0  0  0  0
    6.6710   -3.1260    3.0280 C   0  0  0  0  0  0  0  0  0  0  0  0
    6.1110   -3.8970    0.8670 O   0  0  0  0  0  0  0  0  0  0  0  0
    6.9950   -4.5440    0.0320 C   0  0  0  0  0  0  0  0  0  0  0  0
    2.1370    1.9530    0.1060 C   0  0  0  0  0  0  0  0  0  0  0  0
    2.7150    2.6510    1.1140 C   0  0  0  0  0  0  0  0  0  0  0  0
    1.9710    3.5640    1.8180 C   0  0  0  0  0  0  0  0  0  0  0  0
    0.6130    3.7980    1.5170 C   0  0  0  0  0  0  0  0  0  0  0  0
   -0.0180    4.7190    2.2790 O   0  0  0  0  0  0  0  0  0  0  0  0
   -1.2790    5.2420    2.3210 C   0  0  0  0  0  0  0  0  0  0  0  0
   -1.7030    5.9960    1.0840 C   0  0  0  0  0  0  0  0  0  0  0  0
   -0.5800    7.3740    0.7970 Cl  0  0  0  0  0  0  0  0  0  0  0  0
    0.0450    3.0660    0.4750 C   0  0  0  0  0  0  0  0  0  0  0  0
    0.7870    2.1690   -0.2110 C   0  0  0  0  0  0  0  0  0  0  0  0
   -4.7440   -0.3550    0.1970 C   0  0  0  0  0  0  0  0  0  0  0  0
   -4.2210    0.4560    0.9940 O   0  0  0  0  0  0  0  0  0  0  0  0
   -5.6410   -1.2720    0.7100 O   0  0  0  0  0  0  0  0  0  0  0  0
   -5.9850   -1.3020    2.0820 C   0  0  0  0  0  0  0  0  0  0  0  0
   -6.9530   -2.4000    2.4100 C   0  0  0  0  0  0  0  0  0  0  0  0
   -8.1500   -2.3380    1.7510 O   0  0  0  0  0  0  0  0  0  0  0  0
   -3.4490    0.0340   -4.2450 S   0  0  0  0  0  0  0  0  0  0  0  0
   -3.3240   -0.2410   -6.3180 Cl  0  0  0  0  0  0  0  0  0  0  0  0
  1  2  1  0
  2  3  2  3
  3  4  1  0
  3 39  1  0
  4  5  2  3
  5  6  1  0
  5 33  1  0
  6  7  1  0
  7  8  2  0
  7  9  1  0
 10  9  1  6
 10 11  1  0
 10 32  1  0
 11 12  1  0
 12 13  1  0
 13 14  1  0
 13 23  1  0
 14 15  2  0
 14 16  1  0
 16 17  1  0
 17 18  1  0
 18 19  1  0
 19 20  1  1
 19 21  1  0
 21 22  1  0
 23 24  2  0
 23 32  1  0
 24 25  1  0
 25 26  2  0
 26 27  1  0
 26 31  1  0
 27 28  1  0
 28 29  1  0
 29 30  1  0
 31 32  2  0
 33 34  2  0
 33 35  1  0
 35 36  1  0
 36 37  1  0
 37 38  1  0
 39 40  1  0
M  END
