
     RDKit          3D

 40 41  0  0  0  0  0  0  0  0999 V2000
   10.4480   -1.9230    0.3450 C   0  0  0  0  0  0  0  0  0  0  0  0
    9.6390   -0.7020    0.0060 C   0  0  0  0  0  0  0  0  0  0  0  0
    8.2930   -0.7320    0.7370 C   0  0  0  0  0  0  0  0  0  0  0  0
    7.4660    0.4290    0.4190 C   0  0  0  0  0  0  0  0  0  0  0  0
    8.1160    1.5380    0.2640 O   0  0  0  0  0  0  0  0  0  0  0  0
    6.0380    0.5260    0.2560 C   0  0  0  0  0  0  0  0  0  0  0  0
    5.4000    1.7270    0.6800 C   0  0  0  0  0  0  0  0  0  0  0  0
    4.0370    1.8630    0.5610 C   0  0  0  0  0  0  0  0  0  0  0  0
    3.3700    3.1350    0.9970 C   0  0  0  0  0  0  0  0  0  0  0  0
    3.2580    0.8560    0.0330 C   0  0  0  0  0  0  0  0  0  0  0  0
    1.8460    1.0050   -0.0200 N   0  0  0  0  0  0  0  0  0  0  0  0
    1.0970    0.3090   -0.9800 C   0  0  0  0  0  0  0  0  0  0  0  0
    1.7790   -0.4100   -1.8220 O   0  0  0  0  0  0  0  0  0  0  0  0
   -0.3290    0.2540   -1.1960 C   0  0  0  0  0  0  0  0  0  0  0  0
   -1.3440    0.4690   -0.3210 C   0  0  0  0  0  0  0  0  0  0  0  0
   -2.5400    0.2780   -1.0350 C   0  0  0  0  0  0  0  0  0  0  0  0
   -3.8820    0.2660   -0.4540 C   0  0  2  0  0  0  0  0  0  0  0  0
   -4.0820    1.1630    0.7470 C   0  0  0  0  0  0  0  0  0  0  0  0
   -3.8880    2.5750    0.3280 C   0  0  0  0  0  0  0  0  0  0  0  0
   -3.5590    2.8510   -0.8700 O   0  0  0  0  0  0  0  0  0  0  0  0
   -4.0690    3.6490    1.2380 N   0  0  0  0  0  0  0  0  0  0  0  0
   -3.9010    5.0080    0.7560 C   0  0  0  0  0  0  0  0  0  0  0  0
   -4.9270    5.2870   -0.3550 C   0  0  0  0  0  0  0  0  0  0  0  0
   -4.2710   -1.0760   -0.0870 O   0  0  0  0  0  0  0  0  0  0  0  0
   -5.3550   -1.6980   -0.5950 C   0  0  0  0  0  0  0  0  0  0  0  0
   -6.0790   -1.0830   -1.4430 O   0  0  0  0  0  0  0  0  0  0  0  0
   -5.7870   -3.0820   -0.2370 C   0  0  2  0  0  0  0  0  0  0  0  0
   -7.2510   -3.2820   -0.4430 C   0  0  0  0  0  0  0  0  0  0  0  0
   -7.8270   -4.9020   -0.0470 Cl  0  0  0  0  0  0  0  0  0  0  0  0
   -5.2830   -3.4550    1.0460 N   0  0  0  0  0  0  0  0  0  0  0  0
   -4.9620   -4.8160    1.2350 C   0  0  0  0  0  0  0  0  0  0  0  0
   -6.1790   -2.7120    2.3500 S   0  0  0  0  0  0  0  0  0  0  0  0
   -7.5920   -3.2840    2.4410 O   0  0  0  0  0  0  0  0  0  0  0  0
   -2.1520   -0.0340   -2.3130 C   0  0  0  0  0  0  0  0  0  0  0  0
   -3.1010   -0.3140   -3.4430 C   0  0  0  0  0  0  0  0  0  0  0  0
   -3.5680   -2.0050   -3.4130 Cl  0  0  0  0  0  0  0  0  0  0  0  0
   -0.8660   -0.0470   -2.3960 O   0  0  0  0  0  0  0  0  0  0  0  0
    3.8960   -0.2800   -0.3600 C   0  0  0  0  0  0  0  0  0  0  0  0
    5.2900   -0.4750   -0.2620 C   0  0  0  0  0  0  0  0  0  0  0  0
    5.8430   -1.7420   -0.7600 C   0  0  0  0  0  0  0  0  0  0  0  0
  1  2  1  0
  2  3  1  0
  3  4  1  0
  4  5  2  0
  4  6  1  0
  6  7  2  0
  6 39  1  0
  7  8  1  0
  8  9  1  0
  8 10  2  0
 10 11  1  0
 10 38  1  0
 11 12  1  0
 12 13  2  0
 12 14  1  0
 14 15  2  0
 14 37  1  0
 15 16  1  0
 16 17  1  0
 16 34  2  0
 17 18  1  1
 17 24  1  0
 18 19  1  0
 19 20  2  0
 19 21  1  0
 21 22  1  0
 22 23  1  0
 24 25  1  0
 25 26  2  0
 25 27  1  0
 27 28  1  1
 27 30  1  0
 28 29  1  0
 30 31  1  0
 30 32  1  0
 32 33  2  0
 34 35  1  0
 34 37  1  0
 35 36  1  0
 38 39  2  0
 39 40  1  0
M  END
