
     RDKit          3D

 40 41  0  0  0  0  0  0  0  0999 V2000
   -0.2630    0.7960    4.1000 C   0  0  0  0  0  0  0  0  0  0  0  0
    0.2510    0.9910    2.6730 C   0  0  0  0  0  0  0  0  0  0  0  0
   -0.6450    1.4100    1.7930 C   0  0  0  0  0  0  0  0  0  0  0  0
   -2.3670    1.7190    2.3420 S   0  0  0  0  0  0  0  0  0  0  0  0
   -2.9430    2.3000    0.8440 C   0  0  0  0  0  0  0  0  0  0  0  0
   -4.3320    2.7520    0.5910 C   0  0  0  0  0  0  0  0  0  0  0  0
   -4.6230    3.1410   -0.5320 O   0  0  0  0  0  0  0  0  0  0  0  0
   -5.2540    2.7260    1.6070 O   0  0  0  0  0  0  0  0  0  0  0  0
   -6.5900    3.1400    1.4420 C   0  0  0  0  0  0  0  0  0  0  0  0
   -7.2280    2.2730    0.3960 C   0  0  0  0  0  0  0  0  0  0  0  0
   -6.5560    1.3520   -0.1110 O   0  0  0  0  0  0  0  0  0  0  0  0
   -8.5580    2.4830   -0.0150 N   0  0  0  0  0  0  0  0  0  0  0  0
   -9.1840    1.6540   -1.0050 C   0  0  0  0  0  0  0  0  0  0  0  0
   -9.2590    0.2400   -0.4980 C   0  0  0  0  0  0  0  0  0  0  0  0
   -9.8580   -0.6170   -1.4270 O   0  0  0  0  0  0  0  0  0  0  0  0
   -9.9090   -1.8990   -0.8790 C   0  0  2  0  0  0  0  0  0  0  0  0
   -9.0710   -2.9020   -1.6340 C   0  0  0  0  0  0  0  0  0  0  0  0
  -11.3440   -2.3710   -0.9090 C   0  0  0  0  0  0  0  0  0  0  0  0
   -1.9130    2.2480    0.0350 C   0  0  0  0  0  0  0  0  0  0  0  0
   -0.6680    1.7810    0.4860 C   0  0  0  0  0  0  0  0  0  0  0  0
    0.3030    1.6130   -0.3850 C   0  0  0  0  0  0  0  0  0  0  0  0
    1.5560    1.1100   -0.5400 C   0  0  0  0  0  0  0  0  0  0  0  0
    2.0720    1.3750   -1.7920 O   0  0  0  0  0  0  0  0  0  0  0  0
    2.5120    0.3860    0.1780 N   0  0  0  0  0  0  0  0  0  0  0  0
    3.8210    0.0540   -0.3960 C   0  0  0  0  0  0  0  0  0  0  0  0
    4.7510   -0.6220    0.2660 N   0  0  0  0  0  0  0  0  0  0  0  0
    5.8620   -0.7770   -0.5200 C   0  0  0  0  0  0  0  0  0  0  0  0
    7.1250   -1.4120   -0.1670 C   0  0  2  0  0  0  0  0  0  0  0  0
    6.9650   -2.4310    0.9940 C   0  0  0  0  0  0  0  0  0  0  0  0
    6.4850   -1.8540    2.2600 C   0  0  0  0  0  0  0  0  0  0  0  0
    6.3820   -2.9170    3.3650 C   0  0  1  0  0  0  0  0  0  0  0  0
    5.2380   -4.1970    2.8620 Cl  0  0  0  0  0  0  0  0  0  0  0  0
    7.9340   -3.6650    3.7010 Cl  0  0  0  0  0  0  0  0  0  0  0  0
    8.0980   -0.4900    0.3080 O   0  0  0  0  0  0  0  0  0  0  0  0
    9.3490   -0.6710   -0.1530 C   0  0  0  0  0  0  0  0  0  0  0  0
    9.6560   -0.5050   -1.5930 C   0  0  0  0  0  0  0  0  0  0  0  0
    9.3560    0.9160   -2.0100 C   0  0  0  0  0  0  0  0  0  0  0  0
    5.5190   -0.1510   -1.6820 C   0  0  0  0  0  0  0  0  0  0  0  0
    6.2770    0.0300   -2.9360 C   0  0  0  0  0  0  0  0  0  0  0  0
    4.2820    0.3380   -1.5690 O   0  0  0  0  0  0  0  0  0  0  0  0
  1  2  1  0
  2  3  2  3
  3  4  1  0
  3 20  1  0
  4  5  1  0
  5  6  1  0
  5 19  2  0
  6  7  2  0
  6  8  1  0
  8  9  1  0
  9 10  1  0
 10 11  2  0
 10 12  1  0
 12 13  1  0
 13 14  1  0
 14 15  1  0
 15 16  1  0
 16 17  1  6
 16 18  1  0
 19 20  1  0
 20 21  2  3
 21 22  1  0
 22 23  2  0
 22 24  1  0
 24 25  1  0
 25 26  2  0
 25 40  1  0
 26 27  1  0
 27 28  1  0
 27 38  2  0
 28 29  1  1
 28 34  1  0
 29 30  1  0
 30 31  1  0
 31 32  1  6
 31 33  1  0
 34 35  1  0
 35 36  1  0
 36 37  1  0
 38 39  1  0
 38 40  1  0
M  END
