
     RDKit          3D

 40 41  0  0  0  0  0  0  0  0999 V2000
   10.6100    0.1140    0.2520 C   0  0  0  0  0  0  0  0  0  0  0  0
    9.4970   -0.4820    0.6030 C   0  0  0  0  0  0  0  0  0  0  0  0
    9.5230   -1.7000    1.2780 O   0  0  0  0  0  0  0  0  0  0  0  0
    8.1850    0.1180    0.2930 C   0  0  0  0  0  0  0  0  0  0  0  0
    7.3270   -0.8200   -0.5760 C   0  0  0  0  0  0  0  0  0  0  0  0
    6.0540   -0.1160   -0.8340 C   0  0  0  0  0  0  0  0  0  0  0  0
    5.9480    0.6860   -1.9680 C   0  0  0  0  0  0  0  0  0  0  0  0
    4.8380    1.4370   -2.2190 C   0  0  0  0  0  0  0  0  0  0  0  0
    3.7310    1.4350   -1.3320 C   0  0  0  0  0  0  0  0  0  0  0  0
    2.6720    2.3710   -1.6990 C   0  0  0  0  0  0  0  0  0  0  0  0
    1.5140    1.7430   -2.8780 S   0  0  0  0  0  0  0  0  0  0  0  0
   -0.1770    1.6390   -2.3760 C   0  0  0  0  0  0  0  0  0  0  0  0
   -0.6900    0.7500   -1.5140 O   0  0  0  0  0  0  0  0  0  0  0  0
   -0.4920    0.3700   -0.2310 C   0  0  0  0  0  0  0  0  0  0  0  0
    0.4270    0.9140    0.3980 O   0  0  0  0  0  0  0  0  0  0  0  0
   -1.3520   -0.6690    0.4280 C   0  0  1  0  0  0  0  0  0  0  0  0
   -1.3810   -0.5180    1.9320 C   0  0  0  0  0  0  0  0  0  0  0  0
   -2.6660   -0.6600   -0.1670 N   0  0  0  0  0  0  0  0  0  0  0  0
   -3.3530    0.5560   -0.3990 C   0  0  0  0  0  0  0  0  0  0  0  0
   -4.4250    1.0350    0.4880 C   0  0  1  0  0  0  0  0  0  0  0  0
   -4.0010    1.3720    1.8870 C   0  0  0  0  0  0  0  0  0  0  0  0
   -4.8620    2.3950   -0.1170 C   0  0  0  0  0  0  0  0  0  0  0  0
   -5.9790    2.8540    0.6720 N   0  0  0  0  0  0  0  0  0  0  0  0
   -5.9830    4.0500    1.4370 C   0  0  0  0  0  0  0  0  0  0  0  0
   -7.0050    4.3600    2.0830 O   0  0  0  0  0  0  0  0  0  0  0  0
   -4.5230    5.0170    1.4180 Cl  0  0  0  0  0  0  0  0  0  0  0  0
   -7.1540    1.9770    0.6140 C   0  0  0  0  0  0  0  0  0  0  0  0
   -6.7010    0.6300    0.1120 C   0  0  0  0  0  0  0  0  0  0  0  0
   -5.5110    0.1820    0.5870 O   0  0  0  0  0  0  0  0  0  0  0  0
   -3.2220   -1.8710   -0.6410 C   0  0  0  0  0  0  0  0  0  0  0  0
   -4.3740   -1.8420   -1.2030 O   0  0  0  0  0  0  0  0  0  0  0  0
   -2.5200   -3.1430   -0.5050 C   0  0  0  0  0  0  0  0  0  0  0  0
   -3.4700   -4.2540   -0.9290 C   0  0  0  0  0  0  0  0  0  0  0  0
   -4.6510   -4.2040    0.0060 C   0  0  0  0  0  0  0  0  0  0  0  0
   -5.6470   -5.1950   -0.2140 N   0  0  0  0  0  0  0  0  0  0  0  0
   -4.7250   -3.3410    0.9040 O   0  0  0  0  0  0  0  0  0  0  0  0
    3.8450    0.6450   -0.2350 C   0  0  0  0  0  0  0  0  0  0  0  0
    4.9990   -0.1300    0.0180 C   0  0  0  0  0  0  0  0  0  0  0  0
    5.0140   -1.0110    1.2170 C   0  0  0  0  0  0  0  0  0  0  0  0
    4.6680   -2.7110    0.7100 Cl  0  0  0  0  0  0  0  0  0  0  0  0
  1  2  2  0
  2  3  1  0
  2  4  1  0
  4  5  1  0
  5  6  1  0
  6  7  2  0
  6 38  1  0
  7  8  1  0
  8  9  2  0
  9 10  1  0
  9 37  1  0
 10 11  1  0
 11 12  1  0
 12 13  1  0
 13 14  1  0
 14 15  2  0
 14 16  1  0
 16 17  1  1
 16 18  1  0
 18 19  1  0
 18 30  1  0
 19 20  1  0
 20 21  1  1
 20 22  1  0
 20 29  1  0
 22 23  1  0
 23 24  1  0
 23 27  1  0
 24 25  2  0
 24 26  1  0
 27 28  1  0
 28 29  1  0
 30 31  2  0
 30 32  1  0
 32 33  1  0
 33 34  1  0
 34 35  1  0
 34 36  2  0
 37 38  2  0
 38 39  1  0
 39 40  1  0
M  END
