
     RDKit          3D

 40 41  0  0  0  0  0  0  0  0999 V2000
   11.8120    0.9820    0.9960 C   0  0  0  0  0  0  0  0  0  0  0  0
   11.1950    0.2290    1.8680 C   0  0  0  0  0  0  0  0  0  0  0  0
    9.8680   -0.3130    1.6420 C   0  0  0  0  0  0  0  0  0  0  0  0
    9.2810   -1.0790    2.5580 C   0  0  0  0  0  0  0  0  0  0  0  0
    7.6920   -1.7180    2.2700 Cl  0  0  0  0  0  0  0  0  0  0  0  0
   10.1390   -1.4210    4.0480 Cl  0  0  0  0  0  0  0  0  0  0  0  0
    9.1640   -0.0380    0.4060 C   0  0  0  0  0  0  0  0  0  0  0  0
    8.4620   -0.9350   -0.3300 N   0  0  0  0  0  0  0  0  0  0  0  0
    7.9520   -0.3120   -1.3990 C   0  0  0  0  0  0  0  0  0  0  0  0
    7.1230   -0.9100   -2.4820 C   0  0  0  0  0  0  0  0  0  0  0  0
    5.6930   -0.9540   -2.0960 C   0  0  0  0  0  0  0  0  0  0  0  0
    4.9370   -1.7890   -2.6120 O   0  0  0  0  0  0  0  0  0  0  0  0
    5.1900   -0.0420   -1.1340 N   0  0  0  0  0  0  0  0  0  0  0  0
    3.8260    0.0290   -0.6800 C   0  0  0  0  0  0  0  0  0  0  0  0
    2.8350    0.4050   -1.7640 C   0  0  2  0  0  0  0  0  0  0  0  0
    1.5670    0.8930   -1.1570 C   0  0  0  0  0  0  0  0  0  0  0  0
    0.5260   -0.0490   -1.1260 N   0  0  0  0  0  0  0  0  0  0  0  0
   -0.7810    0.4530   -1.3350 C   0  0  0  0  0  0  0  0  0  0  0  0
   -1.8080   -0.6610   -1.2740 C   0  0  0  0  0  0  0  0  0  0  0  0
   -1.8000   -1.6540    0.1650 S   0  0  0  0  0  0  0  0  0  0  0  0
   -2.3820   -1.0440    1.7220 C   0  0  0  0  0  0  0  0  0  0  0  0
   -1.6540    0.1360    2.2680 C   0  0  0  0  0  0  0  0  0  0  0  0
   -1.8470    1.2660    1.5980 O   0  0  0  0  0  0  0  0  0  0  0  0
   -2.8580    2.1150    1.7390 C   0  0  0  0  0  0  0  0  0  0  0  0
   -4.2740    1.7660    1.7510 C   0  0  2  0  0  0  0  0  0  0  0  0
   -4.7060    0.9520    2.8040 O   0  0  0  0  0  0  0  0  0  0  0  0
   -4.9270    1.3000    0.4940 C   0  0  0  0  0  0  0  0  0  0  0  0
   -6.3830    0.9850    0.8280 C   0  0  0  0  0  0  0  0  0  0  0  0
   -7.2810    1.8360    0.6400 O   0  0  0  0  0  0  0  0  0  0  0  0
   -6.7340   -0.2240    1.3410 O   0  0  0  0  0  0  0  0  0  0  0  0
   -7.9730   -0.7140    1.7210 C   0  0  0  0  0  0  0  0  0  0  0  0
   -9.0160   -0.8150    0.7100 C   0  0  0  0  0  0  0  0  0  0  0  0
   -8.8200   -1.6730   -0.4870 C   0  0  0  0  0  0  0  0  0  0  0  0
  -10.1510   -0.1620    0.8340 C   0  0  0  0  0  0  0  0  0  0  0  0
  -11.2470   -0.2400   -0.1790 C   0  0  0  0  0  0  0  0  0  0  0  0
    0.8130   -1.2640   -1.7740 C   0  0  0  0  0  0  0  0  0  0  0  0
    1.4830   -0.8840   -3.1150 C   0  0  0  0  0  0  0  0  0  0  0  0
    2.7660   -0.4390   -2.8270 O   0  0  0  0  0  0  0  0  0  0  0  0
    8.3570    0.9990   -1.3050 C   0  0  0  0  0  0  0  0  0  0  0  0
    9.0710    1.0930   -0.2140 O   0  0  0  0  0  0  0  0  0  0  0  0
  1  2  2  0
  2  3  1  0
  3  4  2  3
  3  7  1  0
  4  5  1  0
  4  6  1  0
  7  8  2  0
  7 40  1  0
  8  9  1  0
  9 10  1  0
  9 39  2  0
 10 11  1  0
 11 12  2  0
 11 13  1  0
 13 14  1  0
 15 14  1  1
 15 16  1  0
 15 38  1  0
 16 17  1  0
 17 18  1  0
 17 36  1  0
 18 19  1  0
 19 20  1  0
 20 21  1  0
 21 22  1  0
 22 23  1  0
 23 24  1  0
 24 25  1  0
 25 26  1  1
 25 27  1  0
 27 28  1  0
 28 29  2  0
 28 30  1  0
 30 31  1  0
 31 32  1  0
 32 33  1  0
 32 34  2  3
 34 35  1  0
 36 37  1  0
 37 38  1  0
 39 40  1  0
M  END
