
     RDKit          3D

 40 41  0  0  0  0  0  0  0  0999 V2000
    5.7030    3.7670    0.3590 C   0  0  0  0  0  0  0  0  0  0  0  0
    5.7240    2.6860    1.2560 O   0  0  0  0  0  0  0  0  0  0  0  0
    5.7960    1.4890    0.5520 C   0  0  0  0  0  0  0  0  0  0  0  0
    5.8100    0.3520    1.5750 C   0  0  0  0  0  0  0  0  0  0  0  0
    5.8790   -0.9390    0.9810 N   0  0  0  0  0  0  0  0  0  0  0  0
    4.8180   -1.7300    0.5880 C   0  0  0  0  0  0  0  0  0  0  0  0
    5.1820   -2.9350    0.2180 O   0  0  0  0  0  0  0  0  0  0  0  0
    3.3820   -1.4180    0.5290 C   0  0  0  0  0  0  0  0  0  0  0  0
    2.7040   -0.3410    0.8000 C   0  0  0  0  0  0  0  0  0  0  0  0
    1.2480   -0.4990    0.5900 C   0  0  1  0  0  0  0  0  0  0  0  0
    0.8700    0.4830   -0.4690 C   0  0  0  0  0  0  0  0  0  0  0  0
   -0.5450    0.4960   -0.8210 N   0  0  0  0  0  0  0  0  0  0  0  0
   -1.5140    0.8110    0.1280 C   0  0  0  0  0  0  0  0  0  0  0  0
   -1.0280    1.0950    1.3050 O   0  0  0  0  0  0  0  0  0  0  0  0
   -2.9180    0.8550   -0.0300 C   0  0  0  0  0  0  0  0  0  0  0  0
   -3.8090    0.6300   -0.9160 C   0  0  0  0  0  0  0  0  0  0  0  0
   -3.5230    0.1650   -2.2880 C   0  0  2  0  0  0  0  0  0  0  0  0
   -3.5930    1.1180   -3.3990 C   0  0  0  0  0  0  0  0  0  0  0  0
   -4.3890   -1.0790   -2.6100 C   0  0  0  0  0  0  0  0  0  0  0  0
   -5.3010    0.6680   -0.5940 C   0  0  2  0  0  0  0  0  0  0  0  0
   -5.9520    1.7830   -1.3370 C   0  0  0  0  0  0  0  0  0  0  0  0
   -7.7030    1.8040   -1.1170 Cl  0  0  0  0  0  0  0  0  0  0  0  0
   -5.5610    0.7330    0.8860 C   0  0  1  0  0  0  0  0  0  0  0  0
   -7.0140    0.9120    1.2430 C   0  0  0  0  0  0  0  0  0  0  0  0
   -7.2650    0.9000    2.7520 C   0  0  0  0  0  0  0  0  0  0  0  0
   -6.5380    1.8690    3.4170 O   0  0  0  0  0  0  0  0  0  0  0  0
   -5.0900   -0.8290    1.6500 S   0  0  2  0  0  0  0  0  0  0  0  0
   -6.2540   -2.0940    1.1560 C   0  0  0  0  0  0  0  0  0  0  0  0
   -5.1340   -0.6810    3.1210 O   0  0  0  0  0  0  0  0  0  0  0  0
   -3.7150   -1.2350    1.2760 O   0  0  0  0  0  0  0  0  0  0  0  0
    1.1220   -1.8780    0.1080 C   0  0  0  0  0  0  0  0  0  0  0  0
    0.0310   -2.4230   -0.2130 O   0  0  0  0  0  0  0  0  0  0  0  0
    2.4240   -2.4180    0.0880 N   0  0  0  0  0  0  0  0  0  0  0  0
    7.2390   -1.4530    0.8280 C   0  0  0  0  0  0  0  0  0  0  0  0
    7.8290   -1.5740   -0.4100 C   0  0  0  0  0  0  0  0  0  0  0  0
    9.1100   -2.0560   -0.5580 C   0  0  0  0  0  0  0  0  0  0  0  0
    9.8390   -2.4350    0.5560 C   0  0  0  0  0  0  0  0  0  0  0  0
   11.4800   -3.0590    0.4270 Cl  0  0  0  0  0  0  0  0  0  0  0  0
    9.2510   -2.3140    1.7860 C   0  0  0  0  0  0  0  0  0  0  0  0
    7.9690   -1.8310    1.9330 C   0  0  0  0  0  0  0  0  0  0  0  0
  1  2  1  0
  2  3  1  0
  3  4  1  0
  4  5  1  0
  5  6  1  0
  5 34  1  0
  6  7  2  0
  6  8  1  0
  8  9  2  0
  8 33  1  0
  9 10  1  0
 10 11  1  6
 10 31  1  0
 11 12  1  0
 12 13  1  0
 13 14  2  0
 13 15  1  0
 15 16  2  3
 16 17  1  0
 16 20  1  0
 17 18  1  6
 17 19  1  0
 20 21  1  6
 20 23  1  0
 21 22  1  0
 23 24  1  6
 23 27  1  0
 24 25  1  0
 25 26  1  0
 27 28  1  1
 27 29  2  0
 27 30  2  0
 31 32  2  0
 31 33  1  0
 34 35  2  0
 34 40  1  0
 35 36  1  0
 36 37  2  0
 37 38  1  0
 37 39  1  0
 39 40  2  0
M  END
