
     RDKit          3D

 21 21  0  0  0  0  0  0  0  0999 V2000
   -0.0200    4.1930    0.6230 N   0  0  0  0  0  0  0  0  0  0  0  0
    0.0740    2.9600   -0.1420 C   0  0  0  0  0  0  0  0  0  0  0  0
   -0.1550    1.7890    0.7680 C   0  0  2  0  0  0  0  0  0  0  0  0
    0.8720    1.8900    1.7470 O   0  0  0  0  0  0  0  0  0  0  0  0
   -0.0020    0.4390    0.0390 C   0  0  1  0  0  0  0  0  0  0  0  0
    1.2230    0.5070   -0.5500 O   0  0  0  0  0  0  0  0  0  0  0  0
    1.7060   -0.5180   -1.2640 C   0  0  0  0  0  0  0  0  0  0  0  0
    2.9850   -0.1340   -1.7330 O   0  0  0  0  0  0  0  0  0  0  0  0
    3.8650    0.1580   -0.7230 C   0  0  0  0  0  0  0  0  0  0  0  0
    4.0740   -1.0290    0.1730 C   0  0  0  0  0  0  0  0  0  0  0  0
    4.9800   -0.6390    1.1640 O   0  0  0  0  0  0  0  0  0  0  0  0
   -0.1270   -0.6100    1.0980 C   0  0  0  0  0  0  0  0  0  0  0  0
   -0.5580   -1.8230    0.7090 O   0  0  0  0  0  0  0  0  0  0  0  0
   -1.3430   -1.9270   -0.3940 C   0  0  1  0  0  0  0  0  0  0  0  0
   -2.2800   -3.1210   -0.3560 C   0  0  0  0  0  0  0  0  0  0  0  0
   -1.5700   -4.3180   -0.2710 O   0  0  0  0  0  0  0  0  0  0  0  0
   -2.0760   -0.7220   -0.8360 C   0  0  1  0  0  0  0  0  0  0  0  0
   -2.5870   -1.0220   -2.1270 O   0  0  0  0  0  0  0  0  0  0  0  0
   -3.2390   -0.2870   -0.0020 C   0  0  0  0  0  0  0  0  0  0  0  0
   -4.2360   -1.2040    0.1390 O   0  0  0  0  0  0  0  0  0  0  0  0
   -1.0640    0.3950   -1.0170 C   0  0  0  0  0  0  0  0  0  0  0  0
  1  2  1  0
  2  3  1  0
  3  4  1  1
  3  5  1  0
  5  6  1  6
  5 12  1  0
  5 21  1  0
  6  7  1  0
  7  8  1  0
  8  9  1  0
  9 10  1  0
 10 11  1  0
 12 13  1  0
 13 14  1  0
 14 15  1  1
 14 17  1  0
 15 16  1  0
 17 18  1  6
 17 19  1  0
 17 21  1  0
 19 20  1  0
M  CHG  1   1   1
M  END
