
     RDKit          3D

 21 21  0  0  0  0  0  0  0  0999 V2000
   -3.3050    2.0020   -1.1280 O   0  0  0  0  0  0  0  0  0  0  0  0
   -2.6230    1.8930    0.0790 C   0  0  0  0  0  0  0  0  0  0  0  0
   -2.3850    0.4470    0.4860 C   0  0  1  0  0  0  0  0  0  0  0  0
   -1.8420    0.3810    1.8620 C   0  0  0  0  0  0  0  0  0  0  0  0
   -1.8380   -0.9000    2.4050 O   0  0  0  0  0  0  0  0  0  0  0  0
   -3.8070   -0.0550    0.6120 N   0  0  0  0  0  0  0  0  0  0  0  0
   -3.7260   -1.4690    0.5300 C   0  0  0  0  0  0  0  0  0  0  0  0
   -2.4610   -1.8330   -0.1520 C   0  0  0  0  0  0  0  0  0  0  0  0
   -1.8730   -0.4540   -0.5300 C   0  0  1  0  0  0  0  0  0  0  0  0
   -2.5720   -0.1430   -1.7430 O   0  0  0  0  0  0  0  0  0  0  0  0
   -0.4530   -0.6050   -0.8570 C   0  0  0  0  0  0  0  0  0  0  0  0
    0.3480    0.5280   -1.3530 C   0  0  1  0  0  0  0  0  0  0  0  0
    0.4750    1.5960   -0.4980 O   0  0  0  0  0  0  0  0  0  0  0  0
    1.7250    0.0680   -1.8660 C   0  0  2  0  0  0  0  0  0  0  0  0
    1.4570   -1.0140   -2.7200 O   0  0  0  0  0  0  0  0  0  0  0  0
    2.6640   -0.3080   -0.7700 C   0  0  0  0  0  0  0  0  0  0  0  0
    2.9490    0.7540    0.0450 O   0  0  0  0  0  0  0  0  0  0  0  0
    3.8010    0.4770    1.0870 C   0  0  0  0  0  0  0  0  0  0  0  0
    5.1450   -0.0140    0.5990 C   0  0  1  0  0  0  0  0  0  0  0  0
    5.7190    0.9620   -0.2030 O   0  0  0  0  0  0  0  0  0  0  0  0
    5.9940   -0.2120    1.6970 O   0  0  0  0  0  0  0  0  0  0  0  0
  1  2  1  0
  3  2  1  6
  3  4  1  0
  3  6  1  0
  3  9  1  0
  4  5  1  0
  6  7  1  0
  7  8  1  0
  8  9  1  0
  9 10  1  6
  9 11  1  0
 11 12  1  0
 12 13  1  1
 12 14  1  0
 14 15  1  6
 14 16  1  0
 16 17  1  0
 17 18  1  0
 18 19  1  0
 19 20  1  6
 19 21  1  0
M  CHG  1   6   1
M  END
