
     RDKit          3D

 22 22  0  0  0  0  0  0  0  0999 V2000
    1.8090   -1.5320    1.1830 N   0  0  0  0  0  0  0  0  0  0  0  0
    0.8140   -0.4800    1.1180 C   0  0  1  0  0  0  0  0  0  0  0  0
    1.5270    0.7300    0.5440 C   0  0  1  0  0  0  0  0  0  0  0  0
    1.8360    0.4520   -0.7730 O   0  0  0  0  0  0  0  0  0  0  0  0
    3.1060    0.6740   -1.1860 C   0  0  0  0  0  0  0  0  0  0  0  0
    4.2120   -0.0620   -0.4990 C   0  0  0  0  0  0  0  0  0  0  0  0
    5.4060    0.3650   -1.1400 O   0  0  0  0  0  0  0  0  0  0  0  0
    0.5510    1.9250    0.5670 C   0  0  0  0  0  0  0  0  0  0  0  0
   -0.6220    1.6450   -0.0200 O   0  0  0  0  0  0  0  0  0  0  0  0
   -1.2860    0.4740    0.3200 C   0  0  1  0  0  0  0  0  0  0  0  0
   -1.8820    0.5910    1.6680 C   0  0  0  0  0  0  0  0  0  0  0  0
   -2.7570    1.6360    1.8380 O   0  0  0  0  0  0  0  0  0  0  0  0
   -2.3290    0.3010   -0.7410 C   0  0  0  0  0  0  0  0  0  0  0  0
   -3.3180    1.4230   -0.8910 C   0  0  2  0  0  0  0  0  0  0  0  0
   -2.7700    2.6530   -1.1650 O   0  0  0  0  0  0  0  0  0  0  0  0
   -4.3650    1.4050    0.0070 O   0  0  0  0  0  0  0  0  0  0  0  0
   -3.9850    1.0880   -2.1430 O   0  0  0  0  0  0  0  0  0  0  0  0
   -0.3350   -0.7290    0.2100 C   0  0  2  0  0  0  0  0  0  0  0  0
   -1.0530   -2.0040    0.3070 C   0  0  0  0  0  0  0  0  0  0  0  0
   -0.2740   -3.2400    0.0840 C   0  0  0  0  0  0  0  0  0  0  0  0
   -0.1580   -4.0610    1.0150 O   0  0  0  0  0  0  0  0  0  0  0  0
    0.3390   -3.5370   -1.1170 O   0  0  0  0  0  0  0  0  0  0  0  0
  2  1  1  6
  2  3  1  0
  2 18  1  0
  3  4  1  6
  3  8  1  0
  4  5  1  0
  5  6  1  0
  6  7  1  0
  8  9  1  0
  9 10  1  0
 10 11  1  1
 10 13  1  0
 10 18  1  0
 11 12  1  0
 13 14  1  0
 14 15  1  6
 14 16  1  0
 14 17  1  0
 18 19  1  1
 19 20  1  0
 20 21  2  0
 20 22  1  0
M  CHG  1   1   1
M  END
