
     RDKit          3D

 21 21  0  0  0  0  0  0  0  0999 V2000
    0.5670   -0.5260    2.6180 C   0  0  0  0  0  0  0  0  0  0  0  0
   -0.0640    0.0300    1.5590 O   0  0  0  0  0  0  0  0  0  0  0  0
    0.0430   -0.5350    0.3280 C   0  0  1  0  0  0  0  0  0  0  0  0
    1.4460   -0.6130   -0.1580 C   0  0  2  0  0  0  0  0  0  0  0  0
    1.4700   -1.0970   -1.5840 C   0  0  0  0  0  0  0  0  0  0  0  0
    2.2630   -1.4450    0.6090 O   0  0  0  0  0  0  0  0  0  0  0  0
    2.0240    0.8080   -0.1480 C   0  0  0  0  0  0  0  0  0  0  0  0
    3.4650    0.8190   -0.6150 C   0  0  2  0  0  0  0  0  0  0  0  0
    3.8620    2.1770   -0.5500 O   0  0  0  0  0  0  0  0  0  0  0  0
    3.5210    0.4840   -1.9570 O   0  0  0  0  0  0  0  0  0  0  0  0
    4.3120    0.1070    0.1940 O   0  0  0  0  0  0  0  0  0  0  0  0
    5.5210    0.1960   -0.3190 O   0  0  0  0  0  0  0  0  0  0  0  0
   -0.5980   -1.9320    0.4090 C   0  0  0  0  0  0  0  0  0  0  0  0
   -1.9470   -1.7190    1.0680 C   0  0  0  0  0  0  0  0  0  0  0  0
   -2.2380   -0.3830    1.2450 O   0  0  0  0  0  0  0  0  0  0  0  0
   -2.2050    0.3510    0.0840 C   0  0  1  0  0  0  0  0  0  0  0  0
   -3.3440   -0.0850   -0.8160 C   0  0  0  0  0  0  0  0  0  0  0  0
   -4.5710    0.1440   -0.1170 N   0  0  0  0  0  0  0  0  0  0  0  0
   -2.3810    1.8300    0.3810 C   0  0  0  0  0  0  0  0  0  0  0  0
   -2.3430    2.5510   -0.8200 O   0  0  0  0  0  0  0  0  0  0  0  0
   -0.8520    0.2160   -0.6300 C   0  0  0  0  0  0  0  0  0  0  0  0
  1  2  1  0
  3  2  1  1
  3  4  1  0
  3 13  1  0
  3 21  1  0
  4  5  1  6
  4  6  1  0
  4  7  1  0
  7  8  1  0
  8  9  1  6
  8 10  1  0
  8 11  1  0
 11 12  1  0
 13 14  1  0
 14 15  1  0
 15 16  1  0
 16 17  1  6
 16 19  1  0
 16 21  1  0
 17 18  1  0
 19 20  1  0
M  CHG  1  18   1
M  END
