
     RDKit          3D

 25 26  0  0  0  0  0  0  0  0999 V2000
    6.7680   -1.1440   -0.1030 N   0  0  0  0  0  0  0  0  0  0  0  0
    5.9030    0.3450   -0.2350 S   0  0  2  0  0  0  0  0  0  0  0  0
    6.0390    0.8730   -1.6440 O   0  0  0  0  0  0  0  0  0  0  0  0
    6.4830    1.3640    0.7140 O   0  0  0  0  0  0  0  0  0  0  0  0
    4.2910    0.0690    0.0510 O   0  0  0  0  0  0  0  0  0  0  0  0
    3.4890    1.1230   -0.3880 C   0  0  2  0  0  0  0  0  0  0  0  0
    2.7040    1.5970    0.8130 C   0  0  0  0  0  0  0  0  0  0  0  0
    1.3030    1.0330    0.6720 C   0  0  0  0  0  0  0  0  0  0  0  0
    1.3530   -0.3980    0.4700 N   0  0  0  0  0  0  0  0  0  0  0  0
   -0.1850   -1.0430    0.7590 S   0  0  2  0  0  0  0  0  0  0  0  0
   -0.4890   -0.8860    2.2260 O   0  0  0  0  0  0  0  0  0  0  0  0
   -0.0620   -2.5540    0.5600 O   0  0  0  0  0  0  0  0  0  0  0  0
   -1.4810   -0.5110   -0.2620 C   0  0  1  0  0  0  0  0  0  0  0  0
   -2.5720   -1.3930   -0.0340 O   0  0  0  0  0  0  0  0  0  0  0  0
   -3.3630   -0.9650    1.0210 C   0  0  2  0  0  0  0  0  0  0  0  0
   -4.2060   -2.1010    1.5320 C   0  0  0  0  0  0  0  0  0  0  0  0
   -4.9940   -1.6380    2.5980 O   0  0  0  0  0  0  0  0  0  0  0  0
   -4.2000    0.1860    0.5040 C   0  0  2  0  0  0  0  0  0  0  0  0
   -5.4210   -0.2180    0.0250 O   0  0  0  0  0  0  0  0  0  0  0  0
   -3.4000    0.9130   -0.5690 C   0  0  2  0  0  0  0  0  0  0  0  0
   -3.4950    0.3040   -1.8050 O   0  0  0  0  0  0  0  0  0  0  0  0
   -1.8970    0.9010   -0.2060 C   0  0  1  0  0  0  0  0  0  0  0  0
   -1.7970    1.5420    1.0010 O   0  0  0  0  0  0  0  0  0  0  0  0
    1.7250   -0.5660   -0.9400 C   0  0  0  0  0  0  0  0  0  0  0  0
    2.5390    0.6160   -1.4170 C   0  0  0  0  0  0  0  0  0  0  0  0
  2  1  1  6
  2  3  2  0
  2  4  2  0
  2  5  1  0
  6  5  1  1
  6  7  1  0
  6 25  1  0
  7  8  1  0
  8  9  1  0
 10  9  1  6
  9 24  1  0
 10 11  2  0
 10 12  2  0
 10 13  1  0
 13 14  1  1
 13 22  1  0
 14 15  1  0
 15 16  1  6
 15 18  1  0
 16 17  1  0
 18 19  1  6
 18 20  1  0
 20 21  1  6
 20 22  1  0
 22 23  1  1
 24 25  1  0
M  END
