
     RDKit          3D

 21 21  0  0  0  0  0  0  0  0999 V2000
    6.6940    0.4010   -1.4370 C   0  0  0  0  0  0  0  0  0  0  0  0
    6.0150    1.0130   -0.3860 O   0  0  0  0  0  0  0  0  0  0  0  0
    4.6340    0.8640   -0.5060 C   0  0  2  0  0  0  0  0  0  0  0  0
    4.0980    2.1470   -0.5820 O   0  0  0  0  0  0  0  0  0  0  0  0
    4.1390    0.1340    0.6920 C   0  0  0  0  0  0  0  0  0  0  0  0
    2.6550   -0.0990    0.6960 C   0  0  0  0  0  0  0  0  0  0  0  0
    2.1990   -0.8350   -0.3640 O   0  0  0  0  0  0  0  0  0  0  0  0
    0.8160   -0.9710   -0.2300 C   0  0  2  0  0  0  0  0  0  0  0  0
    0.4580   -2.3390   -0.1990 O   0  0  0  0  0  0  0  0  0  0  0  0
    0.1690   -0.3700   -1.4440 C   0  0  2  0  0  0  0  0  0  0  0  0
    0.5340    0.9790   -1.5030 O   0  0  0  0  0  0  0  0  0  0  0  0
   -1.3320   -0.4400   -1.4160 C   0  0  1  0  0  0  0  0  0  0  0  0
   -1.8820   -1.8220   -1.4450 C   0  0  0  0  0  0  0  0  0  0  0  0
   -2.3400   -2.2540   -0.1930 O   0  0  0  0  0  0  0  0  0  0  0  0
   -3.4090   -1.4520    0.2550 C   0  0  0  0  0  0  0  0  0  0  0  0
   -3.2310   -0.0750   -0.2940 C   0  0  1  0  0  0  0  0  0  0  0  0
   -4.0150    0.9660    0.4770 C   0  0  1  0  0  0  0  0  0  0  0  0
   -5.4280    0.6390    0.4890 N   0  0  0  0  0  0  0  0  0  0  0  0
   -3.5560    1.0550    1.9170 C   0  0  0  0  0  0  0  0  0  0  0  0
   -2.2010    1.3680    2.0120 O   0  0  0  0  0  0  0  0  0  0  0  0
   -1.8710    0.2220   -0.3160 O   0  0  0  0  0  0  0  0  0  0  0  0
  1  2  1  0
  2  3  1  0
  3  4  1  1
  3  5  1  0
  5  6  1  0
  6  7  1  0
  7  8  1  0
  8  9  1  6
  8 10  1  0
 10 11  1  1
 10 12  1  0
 12 13  1  1
 12 21  1  0
 13 14  1  0
 14 15  1  0
 16 15  1  1
 16 17  1  0
 16 21  1  0
 17 18  1  1
 17 19  1  0
 19 20  1  0
M  CHG  1  18   1
M  END
