
     RDKit          3D

 23 23  0  0  0  0  0  0  0  0999 V2000
   -2.4380    1.6440   -1.7100 C   0  0  0  0  0  0  0  0  0  0  0  0
   -3.1700    1.0360   -0.5500 C   0  0  1  0  0  0  0  0  0  0  0  0
   -3.3020   -0.3390   -0.6560 O   0  0  0  0  0  0  0  0  0  0  0  0
   -4.1780   -0.8370    0.2700 C   0  0  0  0  0  0  0  0  0  0  0  0
   -4.2680   -0.0260    1.5060 C   0  0  0  0  0  0  0  0  0  0  0  0
   -5.1470   -0.3760    2.3480 O   0  0  0  0  0  0  0  0  0  0  0  0
   -3.4490    1.0680    1.7630 O   0  0  0  0  0  0  0  0  0  0  0  0
   -2.4570    1.3050    0.7760 C   0  0  1  0  0  0  0  0  0  0  0  0
   -1.4000    0.2760    0.9730 C   0  0  0  0  0  0  0  0  0  0  0  0
   -1.4560   -0.6040    1.8730 O   0  0  0  0  0  0  0  0  0  0  0  0
   -0.2620    0.2300    0.1500 O   0  0  0  0  0  0  0  0  0  0  0  0
    0.7370   -0.7350    0.3280 C   0  0  2  0  0  0  0  0  0  0  0  0
    2.0810   -0.1680    0.6790 C   0  0  0  0  0  0  0  0  0  0  0  0
    2.8140    0.9040   -0.4220 S   0  0  0  0  0  0  0  0  0  0  0  0
    4.6260    1.6560    0.0720 S   0  0  2  0  0  0  0  0  0  0  0  0
    4.3250    3.3410    0.2000 N   0  0  0  0  0  0  0  0  0  0  0  0
    5.4640    1.2750   -1.1020 O   0  0  0  0  0  0  0  0  0  0  0  0
    5.3740    1.2690    1.2690 O   0  0  0  0  0  0  0  0  0  0  0  0
    0.8240   -1.6830   -0.8660 C   0  0  1  0  0  0  0  0  0  0  0  0
    1.1150   -0.9260   -1.9800 O   0  0  0  0  0  0  0  0  0  0  0  0
    1.8880   -2.6870   -0.6630 C   0  0  0  0  0  0  0  0  0  0  0  0
    1.8710   -3.6230    0.4120 N   0  0  0  0  0  0  0  0  0  0  0  0
    2.8490   -2.7180   -1.4720 O   0  0  0  0  0  0  0  0  0  0  0  0
  2  1  1  6
  2  3  1  0
  2  8  1  0
  3  4  1  0
  4  5  1  0
  5  6  2  0
  5  7  1  0
  7  8  1  0
  8  9  1  1
  9 10  2  0
  9 11  1  0
 11 12  1  0
 12 13  1  6
 12 19  1  0
 13 14  1  0
 14 15  1  0
 15 16  1  1
 15 17  2  0
 15 18  2  0
 19 20  1  6
 19 21  1  0
 21 22  1  0
 21 23  2  0
M  END
