
     RDKit          3D

 23 23  0  0  0  0  0  0  0  0999 V2000
   -3.2130    1.3320    0.0100 C   0  0  0  0  0  0  0  0  0  0  0  0
   -3.5760   -0.0960   -0.3440 C   0  0  1  0  0  0  0  0  0  0  0  0
   -2.5210   -1.3440    0.2960 S   0  0  0  0  0  0  0  0  0  0  0  0
   -0.9170   -1.6250   -0.3330 C   0  0  0  0  0  0  0  0  0  0  0  0
    0.0140   -0.4580   -0.1990 C   0  0  2  0  0  0  0  0  0  0  0  0
    0.0510   -0.0980    1.1840 O   0  0  0  0  0  0  0  0  0  0  0  0
   -0.2430    0.6540   -1.1180 C   0  0  0  0  0  0  0  0  0  0  0  0
    0.9710    0.4440   -2.4330 S   0  0  2  0  0  0  0  0  0  0  0  0
    2.0280    1.4840   -2.3790 O   0  0  0  0  0  0  0  0  0  0  0  0
    0.3480    0.2640   -3.7610 O   0  0  0  0  0  0  0  0  0  0  0  0
    1.6160   -1.1490   -1.8810 C   0  0  0  0  0  0  0  0  0  0  0  0
    1.4720   -0.9410   -0.4140 C   0  0  1  0  0  0  0  0  0  0  0  0
    2.3470    0.0740    0.1630 C   0  0  0  0  0  0  0  0  0  0  0  0
    1.8440    1.1100    0.6740 O   0  0  0  0  0  0  0  0  0  0  0  0
    3.7660   -0.0260    0.1900 N   0  0  0  0  0  0  0  0  0  0  0  0
    4.5170    0.9890    0.7610 N   0  0  0  0  0  0  0  0  0  0  0  0
    5.2150    0.7400    1.9690 C   0  0  0  0  0  0  0  0  0  0  0  0
    5.1380   -0.4160    2.5040 O   0  0  0  0  0  0  0  0  0  0  0  0
    5.9850    1.6720    2.6170 O   0  0  0  0  0  0  0  0  0  0  0  0
   -4.9520   -0.3310    0.1930 C   0  0  0  0  0  0  0  0  0  0  0  0
   -5.8740   -0.6420   -0.5720 O   0  0  0  0  0  0  0  0  0  0  0  0
   -5.1940   -0.2010    1.5460 O   0  0  0  0  0  0  0  0  0  0  0  0
   -6.4200   -0.4030    2.0810 O   0  0  0  0  0  0  0  0  0  0  0  0
  2  1  1  1
  2  3  1  0
  2 20  1  0
  3  4  1  0
  4  5  1  0
  5  6  1  1
  5  7  1  0
  5 12  1  0
  8  7  1  1
  8  9  2  0
  8 10  2  0
  8 11  1  0
 11 12  1  0
 12 13  1  6
 13 14  2  0
 13 15  1  0
 15 16  1  0
 16 17  1  0
 17 18  2  0
 17 19  1  0
 20 21  2  0
 20 22  1  0
 22 23  1  0
M  END
