
     RDKit          3D

 23 23  0  0  0  0  0  0  0  0999 V2000
   -4.3220   -1.8310   -0.7860 N   0  0  0  0  0  0  0  0  0  0  0  0
   -2.9380   -2.1170   -0.8190 C   0  0  0  0  0  0  0  0  0  0  0  0
   -2.4050   -2.6640   -1.8060 O   0  0  0  0  0  0  0  0  0  0  0  0
   -2.1140   -1.7520    0.3580 C   0  0  1  0  0  0  0  0  0  0  0  0
   -0.9440   -0.9510   -0.1350 C   0  0  0  0  0  0  0  0  0  0  0  0
    0.1500   -1.7530   -0.4570 O   0  0  0  0  0  0  0  0  0  0  0  0
    1.3400   -1.2860    0.0740 C   0  0  0  0  0  0  0  0  0  0  0  0
    1.8410   -0.0320   -0.6090 C   0  0  2  0  0  0  0  0  0  0  0  0
    3.3070   -0.0910   -0.9300 C   0  0  0  0  0  0  0  0  0  0  0  0
    4.3060   -0.2970    0.5190 S   0  0  2  0  0  0  0  0  0  0  0  0
    5.9680   -0.3530    0.0520 N   0  0  0  0  0  0  0  0  0  0  0  0
    3.9840   -1.5860    1.2120 O   0  0  0  0  0  0  0  0  0  0  0  0
    4.0760    0.8400    1.4790 O   0  0  0  0  0  0  0  0  0  0  0  0
    1.6010    1.0980    0.1750 O   0  0  0  0  0  0  0  0  0  0  0  0
    0.7870    2.0280   -0.4240 C   0  0  0  0  0  0  0  0  0  0  0  0
   -0.2200    2.6220    0.5640 C   0  0  0  0  0  0  0  0  0  0  0  0
   -1.8030    2.6040   -0.1740 S   0  0  0  0  0  0  0  0  0  0  0  0
   -1.9010    2.2250   -1.6040 O   0  0  0  0  0  0  0  0  0  0  0  0
   -3.1040    2.3160    0.7990 O   0  0  0  0  0  0  0  0  0  0  0  0
   -3.5930    1.0380    0.5540 C   0  0  0  0  0  0  0  0  0  0  0  0
   -3.1290    0.1330    1.6360 C   0  0  0  0  0  0  0  0  0  0  0  0
   -3.0130    0.6850    2.7600 O   0  0  0  0  0  0  0  0  0  0  0  0
   -2.8820   -1.1640    1.3280 O   0  0  0  0  0  0  0  0  0  0  0  0
  1  2  1  0
  2  3  2  0
  4  2  1  6
  4  5  1  0
  4 23  1  0
  5  6  1  0
  6  7  1  0
  7  8  1  0
  8  9  1  1
  8 14  1  0
  9 10  1  0
 10 11  1  6
 10 12  2  0
 10 13  2  0
 14 15  1  0
 15 16  1  0
 17 16  1  1
 17 18  2  0
 17 19  1  0
 19 20  1  0
 20 21  1  0
 21 22  2  0
 21 23  1  0
M  END
