
     RDKit          3D

 24 25  0  0  0  0  0  0  0  0999 V2000
    6.1240   -0.3710   -1.5150 N   0  0  0  0  0  0  0  0  0  0  0  0
    5.9260   -0.3760    0.2050 S   0  0  1  0  0  0  0  0  0  0  0  0
    5.9650   -1.8010    0.6710 O   0  0  0  0  0  0  0  0  0  0  0  0
    7.0990    0.3340    0.8120 O   0  0  0  0  0  0  0  0  0  0  0  0
    4.4760    0.3740    0.6070 O   0  0  0  0  0  0  0  0  0  0  0  0
    3.4460   -0.3990    0.1160 C   0  0  2  0  0  0  0  0  0  0  0  0
    2.5590    0.3470   -0.8590 C   0  0  0  0  0  0  0  0  0  0  0  0
    1.3210   -0.5600   -0.8700 C   0  0  0  0  0  0  0  0  0  0  0  0
    1.1740   -0.9240    0.5180 N   0  0  0  0  0  0  0  0  0  0  0  0
   -0.0790   -0.0140    1.2150 S   0  0  1  0  0  0  0  0  0  0  0  0
   -0.1130   -0.3440    2.6980 O   0  0  0  0  0  0  0  0  0  0  0  0
    0.2710    1.4630    1.1260 O   0  0  0  0  0  0  0  0  0  0  0  0
   -1.6720   -0.2800    0.4820 C   0  0  2  0  0  0  0  0  0  0  0  0
   -1.7420    0.1810   -0.7900 O   0  0  0  0  0  0  0  0  0  0  0  0
   -2.9750    0.2860   -1.3520 C   0  0  1  0  0  0  0  0  0  0  0  0
   -3.6280   -1.0350   -1.6870 C   0  0  0  0  0  0  0  0  0  0  0  0
   -3.8190   -1.8530   -0.6090 O   0  0  0  0  0  0  0  0  0  0  0  0
   -3.9530    1.1060   -0.5320 C   0  0  1  0  0  0  0  0  0  0  0  0
   -5.0440    0.3570   -0.1510 O   0  0  0  0  0  0  0  0  0  0  0  0
   -3.1620    1.6390    0.6560 C   0  0  2  0  0  0  0  0  0  0  0  0
   -2.0310    2.2560    0.1250 O   0  0  0  0  0  0  0  0  0  0  0  0
   -2.6790    0.4100    1.4150 C   0  0  2  0  0  0  0  0  0  0  0  0
   -2.1050    0.8450    2.5840 O   0  0  0  0  0  0  0  0  0  0  0  0
    2.4330   -0.7850    1.1730 C   0  0  0  0  0  0  0  0  0  0  0  0
  2  1  1  6
  2  3  2  0
  2  4  2  0
  2  5  1  0
  6  5  1  1
  6  7  1  0
  6 24  1  0
  7  8  1  0
  8  9  1  0
 10  9  1  6
  9 24  1  0
 10 11  2  0
 10 12  2  0
 10 13  1  0
 13 14  1  6
 13 22  1  0
 14 15  1  0
 15 16  1  1
 15 18  1  0
 16 17  1  0
 18 19  1  1
 18 20  1  0
 20 21  1  6
 20 22  1  0
 22 23  1  1
M  END
