
     RDKit          3D

 24 24  0  0  0  0  0  0  0  0999 V2000
   -3.8100   -1.9960    0.6900 N   0  0  0  0  0  0  0  0  0  0  0  0
   -3.3530   -1.7370   -0.6160 C   0  0  0  0  0  0  0  0  0  0  0  0
   -4.0750   -2.0180   -1.5940 O   0  0  0  0  0  0  0  0  0  0  0  0
   -2.0160   -1.1320   -0.8040 C   0  0  1  0  0  0  0  0  0  0  0  0
   -1.7170   -0.9410   -2.1540 O   0  0  0  0  0  0  0  0  0  0  0  0
   -2.0020    0.1790   -0.0480 C   0  0  0  0  0  0  0  0  0  0  0  0
   -1.0780    1.1200   -0.6570 N   0  0  0  0  0  0  0  0  0  0  0  0
   -1.3720    2.6690    0.0630 S   0  0  1  0  0  0  0  0  0  0  0  0
   -1.6830    3.6640   -1.0320 O   0  0  0  0  0  0  0  0  0  0  0  0
   -2.4980    2.6110    1.0500 O   0  0  0  0  0  0  0  0  0  0  0  0
    0.0980    3.1380    0.9520 C   0  0  1  0  0  0  0  0  0  0  0  0
   -0.2360    3.6810    2.1790 O   0  0  0  0  0  0  0  0  0  0  0  0
    1.0330    1.9310    1.1020 C   0  0  0  0  0  0  0  0  0  0  0  0
    1.6020    1.7040   -0.1490 O   0  0  0  0  0  0  0  0  0  0  0  0
    2.7040    0.9880   -0.4640 C   0  0  0  0  0  0  0  0  0  0  0  0
    3.5250    1.3980   -1.3120 O   0  0  0  0  0  0  0  0  0  0  0  0
    2.9670   -0.3090    0.1940 C   0  0  2  0  0  0  0  0  0  0  0  0
    3.3340   -1.3240   -0.8620 C   0  0  0  0  0  0  0  0  0  0  0  0
    3.6700   -2.9450   -0.1200 S   0  0  0  0  0  0  0  0  0  0  0  0
    1.8860   -0.6820    0.9800 O   0  0  0  0  0  0  0  0  0  0  0  0
    0.9840   -1.6790    0.7790 C   0  0  0  0  0  0  0  0  0  0  0  0
    0.7080   -2.6300    1.5510 O   0  0  0  0  0  0  0  0  0  0  0  0
    0.2140   -1.6800   -0.4920 C   0  0  0  0  0  0  0  0  0  0  0  0
   -1.0950   -1.9760   -0.1890 O   0  0  0  0  0  0  0  0  0  0  0  0
  1  2  1  0
  2  3  2  0
  2  4  1  0
  4  5  1  6
  4  6  1  0
  4 24  1  0
  6  7  1  0
  8  7  1  6
  8  9  2  0
  8 10  2  0
  8 11  1  0
 11 12  1  1
 11 13  1  0
 13 14  1  0
 14 15  1  0
 15 16  2  0
 15 17  1  0
 17 18  1  6
 17 20  1  0
 18 19  1  0
 20 21  1  0
 21 22  2  0
 21 23  1  0
 23 24  1  0
M  END
