
     RDKit          3D

 23 23  0  0  0  0  0  0  0  0999 V2000
    1.3460   -0.3400    0.6230 O   0  0  0  0  0  0  0  0  0  0  0  0
    1.4230   -0.2920   -0.6390 C   0  0  0  0  0  0  0  0  0  0  0  0
    0.3830    0.3680   -1.3940 N   0  0  0  0  0  0  0  0  0  0  0  0
   -0.6570    0.9150   -0.6510 N   0  0  0  0  0  0  0  0  0  0  0  0
   -1.5010    0.0690    0.1240 C   0  0  0  0  0  0  0  0  0  0  0  0
   -1.2300   -1.1550    0.0760 O   0  0  0  0  0  0  0  0  0  0  0  0
   -2.6280    0.6120    0.9340 C   0  0  1  0  0  0  0  0  0  0  0  0
   -2.6100    2.0350    0.8500 O   0  0  0  0  0  0  0  0  0  0  0  0
   -3.9470    0.1550    0.4270 C   0  0  1  0  0  0  0  0  0  0  0  0
   -4.3050   -1.2710    0.6730 C   0  0  0  0  0  0  0  0  0  0  0  0
   -3.5760   -2.1880   -0.0700 O   0  0  0  0  0  0  0  0  0  0  0  0
   -5.0170    0.9840    1.1780 C   0  0  0  0  0  0  0  0  0  0  0  0
   -5.4620    1.8830    0.2360 O   0  0  0  0  0  0  0  0  0  0  0  0
   -5.3660    1.0950   -0.9350 C   0  0  0  0  0  0  0  0  0  0  0  0
   -4.1060    0.5460   -0.8860 O   0  0  0  0  0  0  0  0  0  0  0  0
    2.4990   -0.8710   -1.2590 O   0  0  0  0  0  0  0  0  0  0  0  0
    3.5170   -1.5100   -0.5340 C   0  0  0  0  0  0  0  0  0  0  0  0
    4.1910   -0.5310    0.3690 C   0  0  1  0  0  0  0  0  0  0  0  0
    5.2230   -1.1680    1.0950 O   0  0  0  0  0  0  0  0  0  0  0  0
    4.9180    0.7660   -0.6990 S   0  0  0  0  0  0  0  0  0  0  0  0
    6.2420    0.0070   -1.6930 C   0  0  0  0  0  0  0  0  0  0  0  0
    7.5520   -0.4740   -0.5170 S   0  0  0  0  0  0  0  0  0  0  0  0
    8.1890    0.9810    0.1350 O   0  0  0  0  0  0  0  0  0  0  0  0
  1  2  2  0
  2  3  1  0
  2 16  1  0
  3  4  1  0
  4  5  1  0
  5  6  2  0
  5  7  1  0
  7  8  1  6
  7  9  1  0
  9 10  1  6
  9 12  1  0
  9 15  1  0
 10 11  1  0
 12 13  1  0
 13 14  1  0
 14 15  1  0
 16 17  1  0
 17 18  1  0
 18 19  1  6
 18 20  1  0
 20 21  1  0
 21 22  1  0
 22 23  1  0
M  END
