
     RDKit          3D

 23 23  0  0  0  0  0  0  0  0999 V2000
    6.5690    1.3000   -0.5510 C   0  0  0  0  0  0  0  0  0  0  0  0
    6.3730    0.1470    0.3770 C   0  0  0  0  0  0  0  0  0  0  0  0
    5.1420    0.2060    1.0050 O   0  0  0  0  0  0  0  0  0  0  0  0
    3.9550    0.1520    0.3160 C   0  0  0  0  0  0  0  0  0  0  0  0
    3.8980    0.0400   -0.9240 O   0  0  0  0  0  0  0  0  0  0  0  0
    2.7440    0.2300    1.0840 N   0  0  0  0  0  0  0  0  0  0  0  0
    1.5310    0.1710    0.3700 N   0  0  0  0  0  0  0  0  0  0  0  0
    0.4360   -0.5270    0.9370 C   0  0  0  0  0  0  0  0  0  0  0  0
    0.5890   -1.0660    2.0590 O   0  0  0  0  0  0  0  0  0  0  0  0
   -0.8400   -0.6160    0.2390 C   0  0  1  0  0  0  0  0  0  0  0  0
   -1.9770   -0.0070    1.0460 C   0  0  2  0  0  0  0  0  0  0  0  0
   -1.9750   -0.6540    2.2850 O   0  0  0  0  0  0  0  0  0  0  0  0
   -3.2790   -0.2060    0.4110 C   0  0  0  0  0  0  0  0  0  0  0  0
   -4.1950   -0.8720    0.9950 O   0  0  0  0  0  0  0  0  0  0  0  0
   -3.5620    0.3150   -0.8390 O   0  0  0  0  0  0  0  0  0  0  0  0
   -4.7910    0.1500   -1.4810 C   0  0  0  0  0  0  0  0  0  0  0  0
   -5.9160    0.7510   -0.6860 C   0  0  0  0  0  0  0  0  0  0  0  0
   -5.6530    2.1100   -0.5370 O   0  0  0  0  0  0  0  0  0  0  0  0
   -0.7500   -0.0310   -1.0070 O   0  0  0  0  0  0  0  0  0  0  0  0
   -0.3100   -0.9120   -1.9370 C   0  0  0  0  0  0  0  0  0  0  0  0
   -1.1890   -2.0050   -1.9610 O   0  0  0  0  0  0  0  0  0  0  0  0
   -1.2670   -2.3070   -0.2570 S   0  0  0  0  0  0  0  0  0  0  0  0
   -0.2220   -3.2990    0.1660 O   0  0  0  0  0  0  0  0  0  0  0  0
  1  2  1  0
  2  3  1  0
  3  4  1  0
  4  5  2  0
  4  6  1  0
  6  7  1  0
  7  8  1  0
  8  9  2  0
 10  8  1  1
 10 11  1  0
 10 19  1  0
 10 22  1  0
 11 12  1  1
 11 13  1  0
 13 14  2  0
 13 15  1  0
 15 16  1  0
 16 17  1  0
 17 18  1  0
 19 20  1  0
 20 21  1  0
 22 21  1  6
 22 23  2  0
M  END
