
     RDKit          3D

 23 23  0  0  0  0  0  0  0  0999 V2000
    5.7850   -0.8150   -0.6450 N   0  0  0  0  0  0  0  0  0  0  0  0
    5.2910   -0.3660    0.8920 S   0  0  2  0  0  0  0  0  0  0  0  0
    6.2470    0.6630    1.3170 O   0  0  0  0  0  0  0  0  0  0  0  0
    5.3810   -1.3370    1.9950 O   0  0  0  0  0  0  0  0  0  0  0  0
    3.4870    0.4580    1.1940 S   0  0  0  0  0  0  0  0  0  0  0  0
    3.2480    1.8390    0.9470 O   0  0  0  0  0  0  0  0  0  0  0  0
    2.2260   -0.5330    0.6530 C   0  0  0  0  0  0  0  0  0  0  0  0
    0.9070    0.1530    0.9170 C   0  0  1  0  0  0  0  0  0  0  0  0
    0.8670    1.4210    0.1560 C   0  0  0  0  0  0  0  0  0  0  0  0
   -0.3450    1.6530   -0.4860 O   0  0  0  0  0  0  0  0  0  0  0  0
   -0.9730    2.7560    0.0290 C   0  0  0  0  0  0  0  0  0  0  0  0
   -2.2970    2.9190   -0.6700 C   0  0  0  0  0  0  0  0  0  0  0  0
   -3.3800    2.2920    0.0390 N   0  0  0  0  0  0  0  0  0  0  0  0
   -3.2750    1.0600    0.7410 C   0  0  0  0  0  0  0  0  0  0  0  0
   -3.8100    0.9590    1.9070 O   0  0  0  0  0  0  0  0  0  0  0  0
   -2.6330   -0.0600    0.2650 O   0  0  0  0  0  0  0  0  0  0  0  0
   -2.7310   -0.6290   -1.0120 C   0  0  0  0  0  0  0  0  0  0  0  0
   -2.4910   -2.0900   -0.9100 C   0  0  2  0  0  0  0  0  0  0  0  0
   -3.5970   -2.7000   -0.2780 O   0  0  0  0  0  0  0  0  0  0  0  0
   -1.2710   -2.5160   -0.1850 C   0  0  2  0  0  0  0  0  0  0  0  0
   -1.5440   -2.7230    1.1900 O   0  0  0  0  0  0  0  0  0  0  0  0
   -0.0920   -1.6040   -0.2510 C   0  0  0  0  0  0  0  0  0  0  0  0
   -0.1300   -0.6920    0.7660 O   0  0  0  0  0  0  0  0  0  0  0  0
  2  1  1  6
  2  3  2  0
  2  4  2  0
  2  5  1  0
  5  6  2  0
  5  7  1  6
  8  7  1  6
  8  9  1  0
  8 23  1  0
  9 10  1  0
 10 11  1  0
 11 12  1  0
 12 13  1  0
 13 14  1  0
 14 15  2  0
 14 16  1  0
 16 17  1  0
 17 18  1  0
 18 19  1  1
 18 20  1  0
 20 21  1  1
 20 22  1  0
 22 23  1  0
M  END
