
     RDKit          3D

 24 24  0  0  0  0  0  0  0  0999 V2000
   -3.9610    1.2400   -2.7070 O   0  0  0  0  0  0  0  0  0  0  0  0
   -3.7450    1.4790   -1.2000 S   0  0  0  0  0  0  0  0  0  0  0  0
   -4.0540   -0.0670   -0.3480 C   0  0  2  0  0  0  0  0  0  0  0  0
   -5.1380   -1.0960   -1.3000 S   0  0  2  0  0  0  0  0  0  0  0  0
   -4.3610   -2.2780   -1.8100 O   0  0  0  0  0  0  0  0  0  0  0  0
   -5.6160   -0.3210   -2.4740 O   0  0  0  0  0  0  0  0  0  0  0  0
   -4.6470    0.2450    1.0140 C   0  0  0  0  0  0  0  0  0  0  0  0
   -3.8160    1.0870    1.7060 O   0  0  0  0  0  0  0  0  0  0  0  0
   -2.5800    0.4930    2.0080 C   0  0  0  0  0  0  0  0  0  0  0  0
   -1.8840    0.2460    0.6990 C   0  0  1  0  0  0  0  0  0  0  0  0
   -0.5210   -0.1790    0.8480 N   0  0  0  0  0  0  0  0  0  0  0  0
    0.6010    0.4970    0.3520 C   0  0  0  0  0  0  0  0  0  0  0  0
    0.4190    1.5730   -0.2820 O   0  0  0  0  0  0  0  0  0  0  0  0
    1.9550   -0.0490    0.5750 C   0  0  0  0  0  0  0  0  0  0  0  0
    2.9800    0.8090   -0.0230 N   0  0  0  0  0  0  0  0  0  0  0  0
    4.3390    0.4270    0.1000 C   0  0  0  0  0  0  0  0  0  0  0  0
    4.6100   -0.6360    0.7190 O   0  0  0  0  0  0  0  0  0  0  0  0
    5.3870    1.1590   -0.4230 O   0  0  0  0  0  0  0  0  0  0  0  0
    6.7350    0.7820   -0.3030 C   0  0  0  0  0  0  0  0  0  0  0  0
    6.9740   -0.5500   -0.9310 C   0  0  0  0  0  0  0  0  0  0  0  0
    6.0240   -1.1500   -1.4610 O   0  0  0  0  0  0  0  0  0  0  0  0
    8.2270   -1.1330   -0.9390 O   0  0  0  0  0  0  0  0  0  0  0  0
   -2.7210   -0.7390   -0.0990 C   0  0  2  0  0  0  0  0  0  0  0  0
   -2.0820   -1.0490   -1.2960 O   0  0  0  0  0  0  0  0  0  0  0  0
  1  2  2  0
  3  2  1  6
  4  3  1  1
  3  7  1  0
  3 23  1  0
  4  5  2  0
  4  6  2  0
  7  8  1  0
  8  9  1  0
  9 10  1  0
 10 11  1  1
 10 23  1  0
 11 12  1  0
 12 13  2  0
 12 14  1  0
 14 15  1  0
 15 16  1  0
 16 17  2  0
 16 18  1  0
 18 19  1  0
 19 20  1  0
 20 21  2  0
 20 22  1  0
 23 24  1  6
M  END
