
     RDKit          3D

 23 23  0  0  0  0  0  0  0  0999 V2000
   -4.2150   -1.6220   -0.4500 N   0  0  0  0  0  0  0  0  0  0  0  0
   -2.9390   -2.1830   -0.7050 C   0  0  0  0  0  0  0  0  0  0  0  0
   -2.8490   -3.0360   -1.6210 O   0  0  0  0  0  0  0  0  0  0  0  0
   -1.7300   -1.7990    0.0630 C   0  0  1  0  0  0  0  0  0  0  0  0
   -0.5730   -1.4560   -0.8760 C   0  0  0  0  0  0  0  0  0  0  0  0
    0.6600   -1.6370   -0.2710 O   0  0  0  0  0  0  0  0  0  0  0  0
    1.0880   -0.4740    0.3940 C   0  0  0  0  0  0  0  0  0  0  0  0
    1.7840    0.4890   -0.5090 C   0  0  2  0  0  0  0  0  0  0  0  0
    3.2790    0.5090   -0.3560 C   0  0  0  0  0  0  0  0  0  0  0  0
    4.0430   -1.0440   -0.6870 S   0  0  2  0  0  0  0  0  0  0  0  0
    3.4930   -2.2860    0.3520 N   0  0  0  0  0  0  0  0  0  0  0  0
    5.5350   -0.8520   -0.5050 O   0  0  0  0  0  0  0  0  0  0  0  0
    3.8500   -1.4440   -2.1420 O   0  0  0  0  0  0  0  0  0  0  0  0
    1.3240    1.7820   -0.4520 O   0  0  0  0  0  0  0  0  0  0  0  0
    1.3290    2.3470    0.8090 C   0  0  0  0  0  0  0  0  0  0  0  0
    0.0290    3.1070    0.9810 C   0  0  0  0  0  0  0  0  0  0  0  0
   -1.1710    2.3980   -0.0820 S   0  0  0  0  0  0  0  0  0  0  0  0
   -1.0030    2.6960   -1.5360 O   0  0  0  0  0  0  0  0  0  0  0  0
   -2.7290    2.3360    0.4700 O   0  0  0  0  0  0  0  0  0  0  0  0
   -3.2560    1.0800    0.1270 C   0  0  0  0  0  0  0  0  0  0  0  0
   -2.9540    0.0700    1.1740 C   0  0  0  0  0  0  0  0  0  0  0  0
   -3.7080    0.1160    2.2050 O   0  0  0  0  0  0  0  0  0  0  0  0
   -1.9450   -0.8430    1.0460 O   0  0  0  0  0  0  0  0  0  0  0  0
  1  2  1  0
  2  3  2  0
  4  2  1  6
  4  5  1  0
  4 23  1  0
  5  6  1  0
  6  7  1  0
  7  8  1  0
  8  9  1  1
  8 14  1  0
  9 10  1  0
 10 11  1  1
 10 12  2  0
 10 13  2  0
 14 15  1  0
 15 16  1  0
 17 16  1  1
 17 18  2  0
 17 19  1  0
 19 20  1  0
 20 21  1  0
 21 22  2  0
 21 23  1  0
M  END
