
     RDKit          3D

 23 23  0  0  0  0  0  0  0  0999 V2000
    5.8380   -1.0860   -1.0530 N   0  0  0  0  0  0  0  0  0  0  0  0
    4.9880   -1.7670    0.2600 S   0  0  2  0  0  0  0  0  0  0  0  0
    5.8270   -2.1910    1.4130 O   0  0  0  0  0  0  0  0  0  0  0  0
    4.5390   -3.0270   -0.3850 O   0  0  0  0  0  0  0  0  0  0  0  0
    3.5830   -0.6600    1.1910 S   0  0  0  0  0  0  0  0  0  0  0  0
    3.8360    0.7600    1.1210 O   0  0  0  0  0  0  0  0  0  0  0  0
    1.9910   -0.8990    0.5550 C   0  0  0  0  0  0  0  0  0  0  0  0
    0.9120   -0.0870    1.2320 C   0  0  1  0  0  0  0  0  0  0  0  0
    1.1400    1.4000    1.1310 C   0  0  0  0  0  0  0  0  0  0  0  0
   -0.0810    2.0300    1.1860 O   0  0  0  0  0  0  0  0  0  0  0  0
   -0.3250    2.9120    0.1610 C   0  0  0  0  0  0  0  0  0  0  0  0
   -1.2570    2.4110   -0.8920 C   0  0  0  0  0  0  0  0  0  0  0  0
   -2.6430    2.8280   -0.6680 N   0  0  0  0  0  0  0  0  0  0  0  0
   -3.7530    1.9810   -0.9340 C   0  0  0  0  0  0  0  0  0  0  0  0
   -4.7850    2.5280   -1.4100 O   0  0  0  0  0  0  0  0  0  0  0  0
   -3.6530    0.6450   -0.6660 O   0  0  0  0  0  0  0  0  0  0  0  0
   -3.2480    0.0740    0.5640 C   0  0  0  0  0  0  0  0  0  0  0  0
   -2.9630   -1.3890    0.3130 C   0  0  2  0  0  0  0  0  0  0  0  0
   -2.7120   -2.0680    1.5070 O   0  0  0  0  0  0  0  0  0  0  0  0
   -1.8360   -1.5870   -0.6450 C   0  0  2  0  0  0  0  0  0  0  0  0
   -1.9460   -2.9050   -1.1430 O   0  0  0  0  0  0  0  0  0  0  0  0
   -0.4690   -1.5210    0.0210 C   0  0  0  0  0  0  0  0  0  0  0  0
   -0.3370   -0.4430    0.8450 O   0  0  0  0  0  0  0  0  0  0  0  0
  2  1  1  6
  2  3  2  0
  2  4  2  0
  2  5  1  0
  5  6  2  0
  5  7  1  6
  8  7  1  6
  8  9  1  0
  8 23  1  0
  9 10  1  0
 10 11  1  0
 11 12  1  0
 12 13  1  0
 13 14  1  0
 14 15  2  0
 14 16  1  0
 16 17  1  0
 17 18  1  0
 18 19  1  1
 18 20  1  0
 20 21  1  1
 20 22  1  0
 22 23  1  0
M  END
