
     RDKit          3D

 23 23  0  0  0  0  0  0  0  0999 V2000
   -3.9510   -0.8530    0.4580 C   0  0  0  0  0  0  0  0  0  0  0  0
   -3.6130    0.4640   -0.1520 C   0  0  1  0  0  0  0  0  0  0  0  0
   -2.1150    0.5760   -1.0450 S   0  0  0  0  0  0  0  0  0  0  0  0
   -0.5480    0.5980   -0.2900 C   0  0  0  0  0  0  0  0  0  0  0  0
    0.0490   -0.6530    0.2320 C   0  0  2  0  0  0  0  0  0  0  0  0
    0.1990   -1.5790   -0.8110 O   0  0  0  0  0  0  0  0  0  0  0  0
   -0.7540   -1.3030    1.2890 C   0  0  0  0  0  0  0  0  0  0  0  0
    0.4970   -2.4000    2.0040 S   0  0  2  0  0  0  0  0  0  0  0  0
    0.5290   -3.6490    1.1780 O   0  0  0  0  0  0  0  0  0  0  0  0
    0.2600   -2.6230    3.4380 O   0  0  0  0  0  0  0  0  0  0  0  0
    1.9100   -1.3970    1.6570 C   0  0  0  0  0  0  0  0  0  0  0  0
    1.4130   -0.2890    0.8210 C   0  0  1  0  0  0  0  0  0  0  0  0
    2.3780   -0.0720   -0.2890 C   0  0  0  0  0  0  0  0  0  0  0  0
    2.0930   -0.4950   -1.4270 O   0  0  0  0  0  0  0  0  0  0  0  0
    3.6130    0.5980   -0.0850 N   0  0  0  0  0  0  0  0  0  0  0  0
    4.5620    0.8260   -1.0760 N   0  0  0  0  0  0  0  0  0  0  0  0
    5.6670    1.6790   -0.8230 C   0  0  0  0  0  0  0  0  0  0  0  0
    5.7060    2.2020    0.3420 O   0  0  0  0  0  0  0  0  0  0  0  0
    6.6720    1.9790   -1.7060 O   0  0  0  0  0  0  0  0  0  0  0  0
   -4.8150    0.8550   -1.0120 C   0  0  0  0  0  0  0  0  0  0  0  0
   -5.8800    0.1830   -0.9260 O   0  0  0  0  0  0  0  0  0  0  0  0
   -4.7660    1.9130   -1.8710 O   0  0  0  0  0  0  0  0  0  0  0  0
   -5.8120    2.2980   -2.6530 O   0  0  0  0  0  0  0  0  0  0  0  0
  2  1  1  6
  2  3  1  0
  2 20  1  0
  3  4  1  0
  4  5  1  0
  5  6  1  6
  5  7  1  0
  5 12  1  0
  8  7  1  6
  8  9  2  0
  8 10  2  0
  8 11  1  0
 11 12  1  0
 12 13  1  6
 13 14  2  0
 13 15  1  0
 15 16  1  0
 16 17  1  0
 17 18  2  0
 17 19  1  0
 20 21  2  0
 20 22  1  0
 22 23  1  0
M  END
