
     RDKit          3D

 24 24  0  0  0  0  0  0  0  0999 V2000
   -3.7550    0.9590    2.2640 O   0  0  0  0  0  0  0  0  0  0  0  0
   -3.7810   -0.4320    1.6370 S   0  0  0  0  0  0  0  0  0  0  0  0
   -3.9700   -0.3150   -0.1480 C   0  0  2  0  0  0  0  0  0  0  0  0
   -5.5070    0.4460   -0.5980 S   0  0  2  0  0  0  0  0  0  0  0  0
   -6.5540   -0.6350   -0.7970 O   0  0  0  0  0  0  0  0  0  0  0  0
   -5.2950    1.1110   -1.9410 O   0  0  0  0  0  0  0  0  0  0  0  0
   -3.8620   -1.7200   -0.7170 C   0  0  0  0  0  0  0  0  0  0  0  0
   -3.3370   -1.6970   -2.0130 O   0  0  0  0  0  0  0  0  0  0  0  0
   -1.9890   -1.3990   -2.0320 C   0  0  0  0  0  0  0  0  0  0  0  0
   -1.6470   -0.5160   -0.8310 C   0  0  1  0  0  0  0  0  0  0  0  0
   -0.3720    0.1200   -0.9890 N   0  0  0  0  0  0  0  0  0  0  0  0
    0.6540   -0.1740   -0.0470 C   0  0  0  0  0  0  0  0  0  0  0  0
    0.3960   -0.9940    0.9000 O   0  0  0  0  0  0  0  0  0  0  0  0
    1.9960    0.4530   -0.1570 C   0  0  0  0  0  0  0  0  0  0  0  0
    2.8340   -0.0230    0.9230 N   0  0  0  0  0  0  0  0  0  0  0  0
    4.1760    0.4290    1.0450 C   0  0  0  0  0  0  0  0  0  0  0  0
    4.5870    1.2480    0.1810 O   0  0  0  0  0  0  0  0  0  0  0  0
    5.0140   -0.0090    2.0760 O   0  0  0  0  0  0  0  0  0  0  0  0
    6.3250    0.4590    2.1610 C   0  0  0  0  0  0  0  0  0  0  0  0
    7.1170    0.1210    0.9410 C   0  0  0  0  0  0  0  0  0  0  0  0
    8.3180    0.4770    0.8690 O   0  0  0  0  0  0  0  0  0  0  0  0
    6.5660   -0.5700   -0.1070 O   0  0  0  0  0  0  0  0  0  0  0  0
   -2.7800    0.4670   -0.6710 C   0  0  2  0  0  0  0  0  0  0  0  0
   -2.4500    1.5360    0.1570 O   0  0  0  0  0  0  0  0  0  0  0  0
  1  2  2  0
  3  2  1  1
  4  3  1  6
  3  7  1  0
  3 23  1  0
  4  5  2  0
  4  6  2  0
  7  8  1  0
  8  9  1  0
  9 10  1  0
 10 11  1  6
 10 23  1  0
 11 12  1  0
 12 13  2  0
 12 14  1  0
 14 15  1  0
 15 16  1  0
 16 17  2  0
 16 18  1  0
 18 19  1  0
 19 20  1  0
 20 21  2  0
 20 22  1  0
 23 24  1  1
M  END
