
     RDKit          3D

 23 23  0  0  0  0  0  0  0  0999 V2000
    1.1310   -1.2840    0.6330 O   0  0  0  0  0  0  0  0  0  0  0  0
    1.5540   -1.3840   -0.5260 C   0  0  0  0  0  0  0  0  0  0  0  0
    0.6530   -1.1400   -1.5940 N   0  0  0  0  0  0  0  0  0  0  0  0
   -0.6770   -0.7960   -1.3340 N   0  0  0  0  0  0  0  0  0  0  0  0
   -1.5540   -1.5460   -0.5070 C   0  0  0  0  0  0  0  0  0  0  0  0
   -1.0730   -2.5880    0.0150 O   0  0  0  0  0  0  0  0  0  0  0  0
   -2.9590   -1.1560   -0.2530 C   0  0  1  0  0  0  0  0  0  0  0  0
   -3.5460   -2.0860    0.5920 O   0  0  0  0  0  0  0  0  0  0  0  0
   -3.1090    0.1960    0.3580 C   0  0  1  0  0  0  0  0  0  0  0  0
   -4.6170    0.4290    0.5320 C   0  0  0  0  0  0  0  0  0  0  0  0
   -5.1670    0.4500   -0.7330 O   0  0  0  0  0  0  0  0  0  0  0  0
   -2.4860    0.3610    1.7020 C   0  0  0  0  0  0  0  0  0  0  0  0
   -2.2530    1.7470    1.7650 O   0  0  0  0  0  0  0  0  0  0  0  0
   -2.4530    2.2550    0.5040 C   0  0  0  0  0  0  0  0  0  0  0  0
   -2.5610    1.2140   -0.3920 O   0  0  0  0  0  0  0  0  0  0  0  0
    2.8820   -1.7270   -0.7260 O   0  0  0  0  0  0  0  0  0  0  0  0
    3.7530   -1.9630    0.3520 C   0  0  0  0  0  0  0  0  0  0  0  0
    3.9550   -0.8000    1.2630 C   0  0  1  0  0  0  0  0  0  0  0  0
    4.8180   -1.1910    2.2960 O   0  0  0  0  0  0  0  0  0  0  0  0
    4.7380    0.5680    0.3620 S   0  0  0  0  0  0  0  0  0  0  0  0
    3.6430    1.2250   -0.9160 C   0  0  0  0  0  0  0  0  0  0  0  0
    4.5110    2.6110   -1.7320 S   0  0  0  0  0  0  0  0  0  0  0  0
    4.7150    3.8860   -0.6200 O   0  0  0  0  0  0  0  0  0  0  0  0
  1  2  2  0
  2  3  1  0
  2 16  1  0
  3  4  1  0
  4  5  1  0
  5  6  2  0
  5  7  1  0
  7  8  1  1
  7  9  1  0
  9 10  1  1
  9 12  1  0
  9 15  1  0
 10 11  1  0
 12 13  1  0
 13 14  1  0
 14 15  1  0
 16 17  1  0
 17 18  1  0
 18 19  1  1
 18 20  1  0
 20 21  1  0
 21 22  1  0
 22 23  1  0
M  END
