
     RDKit          3D

 23 23  0  0  0  0  0  0  0  0999 V2000
    3.8340   -1.8700   -1.1310 C   0  0  0  0  0  0  0  0  0  0  0  0
    3.4300   -0.6960   -0.3030 C   0  0  1  0  0  0  0  0  0  0  0  0
    3.0540    0.4130   -1.0130 O   0  0  0  0  0  0  0  0  0  0  0  0
    2.9300    1.5120   -0.1860 C   0  0  0  0  0  0  0  0  0  0  0  0
    2.9230    1.1860    1.2610 C   0  0  0  0  0  0  0  0  0  0  0  0
    3.3700    2.0370    2.0900 O   0  0  0  0  0  0  0  0  0  0  0  0
    2.4240   -0.0560    1.7090 O   0  0  0  0  0  0  0  0  0  0  0  0
    2.3240   -1.0250    0.6810 C   0  0  1  0  0  0  0  0  0  0  0  0
    0.9720   -0.9090    0.0840 C   0  0  0  0  0  0  0  0  0  0  0  0
    0.5860   -1.6340   -0.8720 O   0  0  0  0  0  0  0  0  0  0  0  0
    0.0700    0.0090    0.5610 O   0  0  0  0  0  0  0  0  0  0  0  0
   -1.2390    0.2020    0.0690 C   0  0  2  0  0  0  0  0  0  0  0  0
   -1.3910    1.6300   -0.3950 C   0  0  0  0  0  0  0  0  0  0  0  0
   -2.9110    2.0620   -1.0100 S   0  0  0  0  0  0  0  0  0  0  0  0
   -3.3660    1.0920   -2.7700 S   0  0  1  0  0  0  0  0  0  0  0  0
   -3.8480   -0.5460   -2.5710 N   0  0  0  0  0  0  0  0  0  0  0  0
   -4.5780    1.9190   -3.0570 O   0  0  0  0  0  0  0  0  0  0  0  0
   -2.4810    1.3130   -3.9460 O   0  0  0  0  0  0  0  0  0  0  0  0
   -2.2110   -0.0640    1.2020 C   0  0  1  0  0  0  0  0  0  0  0  0
   -2.0630   -1.3940    1.6530 O   0  0  0  0  0  0  0  0  0  0  0  0
   -2.0300    0.8160    2.3670 C   0  0  0  0  0  0  0  0  0  0  0  0
   -1.6570    0.2490    3.6250 N   0  0  0  0  0  0  0  0  0  0  0  0
   -2.1780    2.0660    2.3540 O   0  0  0  0  0  0  0  0  0  0  0  0
  2  1  1  6
  2  3  1  0
  2  8  1  0
  3  4  1  0
  4  5  1  0
  5  6  2  0
  5  7  1  0
  7  8  1  0
  8  9  1  6
  9 10  2  0
  9 11  1  0
 11 12  1  0
 12 13  1  1
 12 19  1  0
 13 14  1  0
 14 15  1  0
 15 16  1  1
 15 17  2  0
 15 18  2  0
 19 20  1  1
 19 21  1  0
 21 22  1  0
 21 23  2  0
M  END
