
     RDKit          3D

 23 22  0  0  0  0  0  0  0  0999 V2000
    6.7230   -1.7380   -1.0420 C   0  0  0  0  0  0  0  0  0  0  0  0
    6.5640   -0.5140   -0.6230 C   0  0  0  0  0  0  0  0  0  0  0  0
    5.3540    0.1510   -0.2230 C   0  0  0  0  0  0  0  0  0  0  0  0
    5.4130    1.4120    0.1750 C   0  0  0  0  0  0  0  0  0  0  0  0
    6.7030    2.1480    0.2140 C   0  0  0  0  0  0  0  0  0  0  0  0
    4.0900   -0.5380   -0.2510 C   0  0  0  0  0  0  0  0  0  0  0  0
    3.8590   -1.7070   -0.5930 O   0  0  0  0  0  0  0  0  0  0  0  0
    2.9590    0.1970    0.1590 O   0  0  0  0  0  0  0  0  0  0  0  0
    1.6770   -0.4470    0.1490 C   0  0  0  0  0  0  0  0  0  0  0  0
    0.7060    0.5750    0.6280 C   0  0  0  0  0  0  0  0  0  0  0  0
   -0.7030    0.2220    0.7870 C   0  0  0  0  0  0  0  0  0  0  0  0
   -1.5520   -0.2530   -0.2920 C   0  0  1  0  0  0  0  0  0  0  0  0
   -1.6850    0.6580   -1.4840 C   0  0  0  0  0  0  0  0  0  0  0  0
   -1.3330   -1.6670   -0.7410 C   0  0  0  0  0  0  0  0  0  0  0  0
   -1.5580   -2.6520    0.4090 C   0  0  0  0  0  0  0  0  0  0  0  0
   -2.9730   -0.2860    0.2760 C   0  0  0  0  0  0  0  0  0  0  0  0
   -3.1400    0.0650    1.4460 O   0  0  0  0  0  0  0  0  0  0  0  0
   -4.0000   -0.6940   -0.5120 O   0  0  0  0  0  0  0  0  0  0  0  0
   -5.3520   -0.7580   -0.0730 C   0  0  0  0  0  0  0  0  0  0  0  0
   -5.7920    0.6030    0.3430 C   0  0  0  0  0  0  0  0  0  0  0  0
   -4.9840    1.5760    0.2650 O   0  0  0  0  0  0  0  0  0  0  0  0
   -7.0570    0.8660    0.8170 O   0  0  0  0  0  0  0  0  0  0  0  0
   -7.4700    2.1690    1.2120 C   0  0  0  0  0  0  0  0  0  0  0  0
  1  2  2  0
  2  3  1  0
  3  4  2  3
  3  6  1  0
  4  5  1  0
  6  7  2  0
  6  8  1  0
  8  9  1  0
  9 10  1  0
 10 11  1  0
 11 12  1  0
 12 13  1  6
 12 14  1  0
 12 16  1  0
 14 15  1  0
 16 17  2  0
 16 18  1  0
 18 19  1  0
 19 20  1  0
 20 21  2  0
 20 22  1  0
 22 23  1  0
M  END
