
     RDKit          3D

 23 23  0  0  0  0  0  0  0  0999 V2000
   -2.2120    3.0650    0.6110 C   0  0  0  0  0  0  0  0  0  0  0  0
   -2.3600    1.5770    0.7200 C   0  0  0  0  0  0  0  0  0  0  0  0
   -3.3620    0.9930    0.1630 C   0  0  0  0  0  0  0  0  0  0  0  0
   -4.3870    1.7340   -0.5880 C   0  0  0  0  0  0  0  0  0  0  0  0
   -3.4970   -0.4940    0.2650 C   0  0  0  0  0  0  0  0  0  0  0  0
   -4.5350   -1.0530   -0.3060 C   0  0  0  0  0  0  0  0  0  0  0  0
   -4.8400   -2.4430   -0.3210 C   0  0  0  0  0  0  0  0  0  0  0  0
   -4.1460   -3.3180    0.2160 O   0  0  0  0  0  0  0  0  0  0  0  0
   -6.0170   -2.8360   -0.9990 O   0  0  0  0  0  0  0  0  0  0  0  0
   -2.4540   -1.1920    1.0030 C   0  0  0  0  0  0  0  0  0  0  0  0
   -1.1540   -0.9920    0.3960 O   0  0  0  0  0  0  0  0  0  0  0  0
   -0.0280   -1.5820    0.9580 C   0  0  0  0  0  0  0  0  0  0  0  0
   -0.2180   -2.2710    1.9890 O   0  0  0  0  0  0  0  0  0  0  0  0
    1.3080   -1.4060    0.3760 C   0  0  0  0  0  0  0  0  0  0  0  0
    2.3590   -2.0400    1.0210 C   0  0  0  0  0  0  0  0  0  0  0  0
    3.6390   -1.9130    0.5230 C   0  0  0  0  0  0  0  0  0  0  0  0
    3.8850   -1.1630   -0.6070 C   0  0  0  0  0  0  0  0  0  0  0  0
    5.1860   -1.0320   -1.1160 O   0  0  0  0  0  0  0  0  0  0  0  0
    6.0110   -0.0550   -0.7410 O   0  0  0  0  0  0  0  0  0  0  0  0
    5.3300    1.1140   -0.4530 C   0  0  0  0  0  0  0  0  0  0  0  0
    6.3190    2.1740   -0.0360 C   0  0  0  0  0  0  0  0  0  0  0  0
    2.8120   -0.5500   -1.2150 C   0  0  0  0  0  0  0  0  0  0  0  0
    1.5140   -0.6490   -0.7530 C   0  0  0  0  0  0  0  0  0  0  0  0
  1  2  1  0
  2  3  2  3
  3  4  1  0
  3  5  1  0
  5  6  2  3
  5 10  1  0
  6  7  1  0
  7  8  2  0
  7  9  1  0
 10 11  1  0
 11 12  1  0
 12 13  2  0
 12 14  1  0
 14 15  2  0
 14 23  1  0
 15 16  1  0
 16 17  2  0
 17 18  1  0
 17 22  1  0
 18 19  1  0
 19 20  1  0
 20 21  1  0
 22 23  2  0
M  END
