
     RDKit          3D

 23 23  0  0  0  0  0  0  0  0999 V2000
   -4.2810   -2.2020    2.3060 C   0  0  0  0  0  0  0  0  0  0  0  0
   -3.3540   -2.0950    1.0820 C   0  0  0  0  0  0  0  0  0  0  0  0
   -2.1240   -1.6740    1.4140 O   0  0  0  0  0  0  0  0  0  0  0  0
   -1.1280   -1.5310    0.5410 C   0  0  0  0  0  0  0  0  0  0  0  0
   -1.1800   -0.5210   -0.5540 C   0  0  2  0  0  0  0  0  0  0  0  0
   -2.3340   -0.8530   -1.5330 C   0  0  0  0  0  0  0  0  0  0  0  0
   -0.0430   -0.6070   -1.3030 O   0  0  0  0  0  0  0  0  0  0  0  0
    1.2730   -0.5060   -1.1920 C   0  0  0  0  0  0  0  0  0  0  0  0
    2.0470   -0.1460   -0.1910 C   0  0  0  0  0  0  0  0  0  0  0  0
    3.4790   -0.0820   -0.2160 C   0  0  0  0  0  0  0  0  0  0  0  0
    4.1730    0.2980    0.8600 C   0  0  0  0  0  0  0  0  0  0  0  0
    3.7340    0.6920    2.1540 C   0  0  0  0  0  0  0  0  0  0  0  0
    4.5860    1.0250    3.0590 O   0  0  0  0  0  0  0  0  0  0  0  0
    2.4330    0.7520    2.5410 O   0  0  0  0  0  0  0  0  0  0  0  0
    4.2740   -0.4160   -1.3770 C   0  0  0  0  0  0  0  0  0  0  0  0
    3.8160   -0.7840   -2.4500 O   0  0  0  0  0  0  0  0  0  0  0  0
    5.6940   -0.3240   -1.3090 O   0  0  0  0  0  0  0  0  0  0  0  0
    6.4330   -0.6560   -2.4560 C   0  0  0  0  0  0  0  0  0  0  0  0
   -1.3410    0.8670   -0.0390 C   0  0  2  0  0  0  0  0  0  0  0  0
   -2.5890    1.1450    0.7660 C   0  0  0  0  0  0  0  0  0  0  0  0
   -2.5430    2.7010    0.7400 C   0  0  0  0  0  0  0  0  0  0  0  0
   -2.3620    2.8810   -0.7530 C   0  0  0  0  0  0  0  0  0  0  0  0
   -1.2550    1.9420   -1.0760 C   0  0  0  0  0  0  0  0  0  0  0  0
  1  2  1  0
  2  3  1  0
  3  4  1  0
  4  5  1  0
  5  6  1  6
  5  7  1  0
  5 19  1  0
  7  8  1  0
  8  9  2  3
  9 10  1  0
 10 11  2  3
 10 15  1  0
 11 12  1  0
 12 13  2  0
 12 14  1  0
 15 16  2  0
 15 17  1  0
 17 18  1  0
 19 20  1  6
 19 23  1  0
 20 21  1  0
 21 22  1  0
 22 23  1  0
M  END
