
     RDKit          3D

 24 24  0  0  0  0  0  0  0  0999 V2000
    4.7260    0.9280    2.8790 C   0  0  0  0  0  0  0  0  0  0  0  0
    4.1330    0.4040    1.5460 C   0  0  0  0  0  0  0  0  0  0  0  0
    4.6660    1.2210    0.4080 C   0  0  0  0  0  0  0  0  0  0  0  0
    4.1290    0.8470   -0.9080 C   0  0  0  0  0  0  0  0  0  0  0  0
    4.3480   -0.4610   -1.5170 C   0  0  0  0  0  0  0  0  0  0  0  0
    3.8700   -1.7070   -0.8820 C   0  0  0  0  0  0  0  0  0  0  0  0
    2.4780   -1.7020   -0.6360 O   0  0  0  0  0  0  0  0  0  0  0  0
    1.5180   -1.5870   -1.6020 C   0  0  0  0  0  0  0  0  0  0  0  0
    1.8910   -1.4790   -2.8060 O   0  0  0  0  0  0  0  0  0  0  0  0
    0.1630   -1.5790   -1.3800 O   0  0  0  0  0  0  0  0  0  0  0  0
   -0.7410   -1.4570   -2.4350 C   0  0  1  0  0  0  0  0  0  0  0  0
   -1.6350   -2.6710   -2.5880 C   0  0  0  0  0  0  0  0  0  0  0  0
   -1.5780   -0.2000   -2.3500 C   0  0  0  0  0  0  0  0  0  0  0  0
   -2.3440   -0.1530   -1.1630 O   0  0  0  0  0  0  0  0  0  0  0  0
   -3.1890    0.8730   -0.8340 C   0  0  0  0  0  0  0  0  0  0  0  0
   -3.2760    1.8250   -1.6500 O   0  0  0  0  0  0  0  0  0  0  0  0
   -3.9790    0.9240    0.3900 C   0  0  0  0  0  0  0  0  0  0  0  0
   -3.9410   -0.0780    1.3380 C   0  0  0  0  0  0  0  0  0  0  0  0
   -4.7130    0.0420    2.4630 C   0  0  0  0  0  0  0  0  0  0  0  0
   -5.5350    1.1300    2.6930 C   0  0  0  0  0  0  0  0  0  0  0  0
   -6.3000    1.2080    3.8460 O   0  0  0  0  0  0  0  0  0  0  0  0
   -7.2290    2.1590    3.9660 O   0  0  0  0  0  0  0  0  0  0  0  0
   -5.5860    2.1380    1.7590 C   0  0  0  0  0  0  0  0  0  0  0  0
   -4.8000    2.0070    0.6240 C   0  0  0  0  0  0  0  0  0  0  0  0
  1  2  1  0
  2  3  1  0
  3  4  1  0
  4  5  1  0
  5  6  1  0
  6  7  1  0
  7  8  1  0
  8  9  2  0
  8 10  1  0
 10 11  1  0
 11 12  1  1
 11 13  1  0
 13 14  1  0
 14 15  1  0
 15 16  2  0
 15 17  1  0
 17 18  2  0
 17 24  1  0
 18 19  1  0
 19 20  2  0
 20 21  1  0
 20 23  1  0
 21 22  1  0
 23 24  2  0
M  END
