
     RDKit          3D

 23 22  0  0  0  0  0  0  0  0999 V2000
    4.4150    0.6280    2.7030 C   0  0  0  0  0  0  0  0  0  0  0  0
    5.2270    0.4330    1.6260 C   0  0  0  0  0  0  0  0  0  0  0  0
    6.4310    1.2030    1.6020 C   0  0  0  0  0  0  0  0  0  0  0  0
    7.3720    1.2220    0.7180 C   0  0  0  0  0  0  0  0  0  0  0  0
    7.4680    0.5110   -0.4310 O   0  0  0  0  0  0  0  0  0  0  0  0
    4.8190   -0.5050    0.6290 C   0  0  0  0  0  0  0  0  0  0  0  0
    5.4580   -0.7700   -0.3840 O   0  0  0  0  0  0  0  0  0  0  0  0
    3.6050   -1.1820    0.7990 O   0  0  0  0  0  0  0  0  0  0  0  0
    3.1750   -2.1010   -0.1570 C   0  0  0  0  0  0  0  0  0  0  0  0
    2.9510   -1.4890   -1.5180 C   0  0  0  0  0  0  0  0  0  0  0  0
    1.8930   -0.3930   -1.4210 C   0  0  0  0  0  0  0  0  0  0  0  0
    0.7300   -0.9630   -0.9650 O   0  0  0  0  0  0  0  0  0  0  0  0
   -0.3120   -0.0700   -0.8330 C   0  0  0  0  0  0  0  0  0  0  0  0
   -1.5910   -0.6870   -0.3320 C   0  0  2  0  0  0  0  0  0  0  0  0
   -2.0420   -1.7390   -1.2820 C   0  0  0  0  0  0  0  0  0  0  0  0
   -0.9890   -2.8140   -1.3900 C   0  0  0  0  0  0  0  0  0  0  0  0
   -2.5920    0.4300   -0.1610 C   0  0  0  0  0  0  0  0  0  0  0  0
   -3.9270   -0.0670    0.3410 C   0  0  0  0  0  0  0  0  0  0  0  0
   -4.8220    1.1730    0.4610 C   0  0  2  0  0  0  0  0  0  0  0  0
   -4.9610    1.7950   -0.7810 O   0  0  0  0  0  0  0  0  0  0  0  0
   -6.3390    1.8450   -1.0630 C   0  0  0  0  0  0  0  0  0  0  0  0
   -4.2150    2.0880    1.3180 O   0  0  0  0  0  0  0  0  0  0  0  0
   -5.0390    2.3330    2.4290 C   0  0  0  0  0  0  0  0  0  0  0  0
  1  2  2  0
  2  3  1  0
  2  6  1  0
  3  4  2  3
  4  5  1  0
  6  7  2  0
  6  8  1  0
  8  9  1  0
  9 10  1  0
 10 11  1  0
 11 12  1  0
 12 13  1  0
 14 13  1  6
 14 15  1  0
 14 17  1  0
 15 16  1  0
 17 18  1  0
 19 18  1  6
 19 20  1  0
 19 22  1  0
 20 21  1  0
 22 23  1  0
M  END
