
     RDKit          3D

 24 25  0  0  0  0  0  0  0  0999 V2000
   -7.5820    0.7610   -0.0970 C   0  0  0  0  0  0  0  0  0  0  0  0
   -6.3980    0.1730   -0.6170 O   0  0  0  0  0  0  0  0  0  0  0  0
   -5.1620    0.7090   -0.3040 C   0  0  0  0  0  0  0  0  0  0  0  0
   -5.1140    1.7170    0.4420 O   0  0  0  0  0  0  0  0  0  0  0  0
   -3.9500    0.1140   -0.8310 C   0  0  0  0  0  0  0  0  0  0  0  0
   -3.7980   -0.9790   -1.6550 C   0  0  0  0  0  0  0  0  0  0  0  0
   -2.4930   -1.1870   -1.9000 N   0  0  0  0  0  0  0  0  0  0  0  0
   -1.9270   -2.2490   -2.7300 C   0  0  0  0  0  0  0  0  0  0  0  0
   -1.8450   -0.2460   -1.2450 N   0  0  0  0  0  0  0  0  0  0  0  0
   -2.6710    0.5730   -0.5780 C   0  0  0  0  0  0  0  0  0  0  0  0
   -2.2670    1.7330    0.2570 C   0  0  0  0  0  0  0  0  0  0  0  0
   -0.8230    1.8210    0.2220 N   0  0  0  0  0  0  0  0  0  0  0  0
   -0.0150    0.7190    0.6970 C   0  0  0  0  0  0  0  0  0  0  0  0
   -0.5930   -0.2800    1.1260 O   0  0  0  0  0  0  0  0  0  0  0  0
    1.4190    0.8460    0.6450 C   0  0  0  0  0  0  0  0  0  0  0  0
    2.2660   -0.0580    1.0370 C   0  0  0  0  0  0  0  0  0  0  0  0
    1.8860   -1.3540    1.5960 C   0  0  0  0  0  0  0  0  0  0  0  0
    3.7320    0.1990    0.9280 C   0  0  0  0  0  0  0  0  0  0  0  0
    4.6020   -0.7190    1.3240 C   0  0  0  0  0  0  0  0  0  0  0  0
    6.0520   -0.5710    1.2620 C   0  0  1  0  0  0  0  0  0  0  0  0
    6.6170   -1.6920    0.5250 N   0  0  0  0  0  0  0  0  0  0  0  0
    6.4540    0.6580    0.7340 O   0  0  0  0  0  0  0  0  0  0  0  0
    5.6000    1.6250    0.3170 C   0  0  0  0  0  0  0  0  0  0  0  0
    4.2720    1.4330    0.3980 C   0  0  0  0  0  0  0  0  0  0  0  0
  1  2  1  0
  2  3  1  0
  3  4  2  0
  3  5  1  0
  5  6  2  0
  5 10  1  0
  6  7  1  0
  7  8  1  0
  7  9  1  0
  9 10  2  0
 10 11  1  0
 11 12  1  0
 12 13  1  0
 13 14  2  0
 13 15  1  0
 15 16  2  3
 16 17  1  0
 16 18  1  0
 18 19  2  0
 18 24  1  0
 19 20  1  0
 20 21  1  6
 20 22  1  0
 22 23  1  0
 23 24  2  0
M  END
