
     RDKit          3D

 24 25  0  0  0  0  0  0  0  0999 V2000
    4.1000    1.0790    2.3650 C   0  0  0  0  0  0  0  0  0  0  0  0
    4.5740   -0.0410    1.5270 C   0  0  0  0  0  0  0  0  0  0  0  0
    5.5630   -0.7300    1.8560 O   0  0  0  0  0  0  0  0  0  0  0  0
    3.8770   -0.3520    0.2950 C   0  0  0  0  0  0  0  0  0  0  0  0
    4.2300    0.2250   -0.9070 C   0  0  0  0  0  0  0  0  0  0  0  0
    5.3630    1.1960   -0.9330 C   0  0  0  0  0  0  0  0  0  0  0  0
    3.5870   -0.0630   -2.0440 N   0  0  0  0  0  0  0  0  0  0  0  0
    2.5720   -0.9410   -1.9760 C   0  0  0  0  0  0  0  0  0  0  0  0
    1.9760   -1.1980   -3.0720 O   0  0  0  0  0  0  0  0  0  0  0  0
    2.1830   -1.5380   -0.8160 N   0  0  0  0  0  0  0  0  0  0  0  0
    1.1190   -2.4980   -0.8820 C   0  0  0  0  0  0  0  0  0  0  0  0
   -0.2180   -1.9620   -0.9120 N   0  0  0  0  0  0  0  0  0  0  0  0
   -0.8530   -1.1540    0.0510 C   0  0  0  0  0  0  0  0  0  0  0  0
   -0.1960   -0.8430    1.0800 O   0  0  0  0  0  0  0  0  0  0  0  0
   -2.2400   -0.6610   -0.0910 C   0  0  0  0  0  0  0  0  0  0  0  0
   -3.0240   -0.9120   -1.1080 C   0  0  0  0  0  0  0  0  0  0  0  0
   -4.3850   -0.4020   -1.2010 C   0  0  0  0  0  0  0  0  0  0  0  0
   -4.8710    0.3410   -0.2440 C   0  0  0  0  0  0  0  0  0  0  0  0
   -6.2930    0.8700   -0.3500 C   0  0  0  0  0  0  0  0  0  0  0  0
   -4.1010    0.6970    0.9470 C   0  0  2  0  0  0  0  0  0  0  0  0
   -3.9330    2.2150    0.9900 C   0  0  0  0  0  0  0  0  0  0  0  0
   -2.7790    0.1480    0.9430 N   0  0  0  0  0  0  0  0  0  0  0  0
    2.8130   -1.2650    0.3270 C   0  0  0  0  0  0  0  0  0  0  0  0
    2.5420   -1.7620    1.4460 O   0  0  0  0  0  0  0  0  0  0  0  0
  1  2  1  0
  2  3  2  0
  2  4  1  0
  4  5  2  0
  4 23  1  0
  5  6  1  0
  5  7  1  0
  7  8  1  0
  8  9  2  0
  8 10  1  0
 10 11  1  0
 10 23  1  0
 11 12  1  0
 12 13  1  0
 13 14  2  0
 13 15  1  0
 15 16  2  0
 15 22  1  0
 16 17  1  0
 17 18  2  0
 18 19  1  0
 18 20  1  0
 20 21  1  6
 20 22  1  0
 23 24  2  0
M  END
