
     RDKit          3D

 24 25  0  0  0  0  0  0  0  0999 V2000
    7.5380   -0.6690    1.5930 C   0  0  0  0  0  0  0  0  0  0  0  0
    7.4130   -0.2700    0.1330 C   0  0  0  0  0  0  0  0  0  0  0  0
    6.1570    0.3840   -0.0480 O   0  0  0  0  0  0  0  0  0  0  0  0
    4.9620   -0.2690    0.2300 C   0  0  0  0  0  0  0  0  0  0  0  0
    4.9420   -1.4430    0.6440 O   0  0  0  0  0  0  0  0  0  0  0  0
    3.6930    0.3940    0.0460 N   0  0  0  0  0  0  0  0  0  0  0  0
    2.4720   -0.2360    0.3160 C   0  0  0  0  0  0  0  0  0  0  0  0
    2.5090   -1.4360    0.7370 O   0  0  0  0  0  0  0  0  0  0  0  0
    1.1850    0.4380    0.1300 C   0  0  0  0  0  0  0  0  0  0  0  0
    1.0960    1.6700   -0.3000 C   0  0  0  0  0  0  0  0  0  0  0  0
   -0.1630    2.2760   -0.4630 N   0  0  0  0  0  0  0  0  0  0  0  0
   -1.3920    1.5820   -0.1730 C   0  0  0  0  0  0  0  0  0  0  0  0
   -2.4770    2.3040   -0.3290 C   0  0  0  0  0  0  0  0  0  0  0  0
   -3.7410    1.6660   -0.0420 C   0  0  0  0  0  0  0  0  0  0  0  0
   -5.0430    2.4270   -0.1960 C   0  0  0  0  0  0  0  0  0  0  0  0
   -3.7380    0.4450    0.3450 C   0  0  0  0  0  0  0  0  0  0  0  0
   -5.0410   -0.1370    0.6220 N   0  0  0  0  0  0  0  0  0  0  0  0
   -2.5420   -0.4760    0.5070 C   0  0  1  0  0  0  0  0  0  0  0  0
   -2.9180   -1.6350   -0.3560 C   0  0  2  0  0  0  0  0  0  0  0  0
   -1.9920   -2.7940   -0.4580 C   0  0  0  0  0  0  0  0  0  0  0  0
   -3.4560   -1.2000   -1.7110 C   0  0  0  0  0  0  0  0  0  0  0  0
   -1.3650    0.2330    0.2930 N   0  0  0  0  0  0  0  0  0  0  0  0
   -0.0640   -0.2980    0.4330 C   0  0  0  0  0  0  0  0  0  0  0  0
    0.0880   -1.4430    0.8370 O   0  0  0  0  0  0  0  0  0  0  0  0
  1  2  1  0
  2  3  1  0
  3  4  1  0
  4  5  2  0
  4  6  1  0
  6  7  1  0
  7  8  2  0
  7  9  1  0
  9 10  2  0
  9 23  1  0
 10 11  1  0
 11 12  1  0
 12 13  2  0
 12 22  1  0
 13 14  1  0
 14 15  1  0
 14 16  2  0
 16 17  1  0
 16 18  1  0
 18 19  1  0
 18 22  1  6
 19 20  1  6
 19 21  1  0
 22 23  1  0
 23 24  2  0
M  END
