
     RDKit          3D

 24 25  0  0  0  0  0  0  0  0999 V2000
    0.1310   -4.0970   -0.7110 C   0  0  0  0  0  0  0  0  0  0  0  0
    0.6400   -2.6880   -0.8380 C   0  0  0  0  0  0  0  0  0  0  0  0
   -0.1760   -1.6340   -0.7000 C   0  0  0  0  0  0  0  0  0  0  0  0
   -1.5550   -1.9240   -0.4320 C   0  0  0  0  0  0  0  0  0  0  0  0
   -2.5960   -1.2180   -0.2740 C   0  0  0  0  0  0  0  0  0  0  0  0
   -2.9710    0.1660   -0.2780 C   0  0  0  0  0  0  0  0  0  0  0  0
   -2.1960    1.1120   -0.4930 O   0  0  0  0  0  0  0  0  0  0  0  0
   -4.3130    0.5550   -0.0240 O   0  0  0  0  0  0  0  0  0  0  0  0
   -4.6320    1.9210   -0.0380 C   0  0  1  0  0  0  0  0  0  0  0  0
   -5.6320    2.2200   -1.1420 C   0  0  0  0  0  0  0  0  0  0  0  0
   -5.2450    2.2860    1.3080 C   0  0  0  0  0  0  0  0  0  0  0  0
    0.3460   -0.2790   -0.7540 C   0  0  0  0  0  0  0  0  0  0  0  0
    1.8640   -0.1260   -0.6390 C   0  0  1  0  0  0  0  0  0  0  0  0
    2.2180   -0.1420    0.7600 N   0  0  0  0  0  0  0  0  0  0  0  0
    3.5430    0.1350    1.1840 C   0  0  0  0  0  0  0  0  0  0  0  0
    4.5850    0.4770    0.3690 C   0  0  0  0  0  0  0  0  0  0  0  0
    5.8470    0.7140    0.9000 C   0  0  0  0  0  0  0  0  0  0  0  0
    6.8560    1.0570    0.0170 O   0  0  0  0  0  0  0  0  0  0  0  0
    6.0340    0.6050    2.2090 N   0  0  0  0  0  0  0  0  0  0  0  0
    5.0170    0.2700    3.0120 C   0  0  0  0  0  0  0  0  0  0  0  0
    3.7960    0.0390    2.5120 N   0  0  0  0  0  0  0  0  0  0  0  0
    2.5180   -1.1940   -1.3490 N   0  0  0  0  0  0  0  0  0  0  0  0
    2.0380   -2.5100   -1.1710 C   0  0  0  0  0  0  0  0  0  0  0  0
    2.8150   -3.5150   -1.3010 O   0  0  0  0  0  0  0  0  0  0  0  0
  1  2  1  0
  2  3  2  0
  2 23  1  0
  3  4  1  0
  3 12  1  0
  4  5  2  3
  5  6  1  0
  6  7  2  0
  6  8  1  0
  8  9  1  0
  9 10  1  6
  9 11  1  0
 12 13  1  0
 13 14  1  1
 13 22  1  0
 14 15  1  0
 15 16  2  0
 15 21  1  0
 16 17  1  0
 17 18  1  0
 17 19  2  0
 19 20  1  0
 20 21  2  0
 22 23  1  0
 23 24  2  0
M  END
