
     RDKit          3D

 24 25  0  0  0  0  0  0  0  0999 V2000
   -3.9940    1.8690   -0.8390 C   0  0  0  0  0  0  0  0  0  0  0  0
   -5.0650    0.8060   -0.7390 C   0  0  0  0  0  0  0  0  0  0  0  0
   -4.5720   -0.5570   -1.0480 C   0  0  0  0  0  0  0  0  0  0  0  0
   -3.5270   -1.0520   -0.2150 N   0  0  0  0  0  0  0  0  0  0  0  0
   -3.7530   -1.7320    0.9130 C   0  0  0  0  0  0  0  0  0  0  0  0
   -4.9480   -1.9340    1.2400 O   0  0  0  0  0  0  0  0  0  0  0  0
   -2.8040   -2.2130    1.7190 N   0  0  0  0  0  0  0  0  0  0  0  0
   -1.4930   -2.0110    1.3920 C   0  0  0  0  0  0  0  0  0  0  0  0
   -0.3870   -2.5030    2.2170 C   0  0  0  0  0  0  0  0  0  0  0  0
   -1.1950   -1.3160    0.2390 C   0  0  0  0  0  0  0  0  0  0  0  0
    0.1580   -1.0900   -0.1260 N   0  0  0  0  0  0  0  0  0  0  0  0
    0.8520    0.0890    0.3250 C   0  0  0  0  0  0  0  0  0  0  0  0
    0.1760    0.8660    1.0420 O   0  0  0  0  0  0  0  0  0  0  0  0
    2.2410    0.3220   -0.0490 C   0  0  0  0  0  0  0  0  0  0  0  0
    3.0350   -0.4500   -0.8010 N   0  0  0  0  0  0  0  0  0  0  0  0
    4.2490    0.0810   -0.9320 C   0  0  0  0  0  0  0  0  0  0  0  0
    5.4160   -0.4810   -1.6960 C   0  0  0  0  0  0  0  0  0  0  0  0
    4.2840    1.2700   -0.2360 C   0  0  0  0  0  0  0  0  0  0  0  0
    5.4150    2.1800   -0.1090 C   0  0  0  0  0  0  0  0  0  0  0  0
    5.3070    3.2220    0.5510 O   0  0  0  0  0  0  0  0  0  0  0  0
    3.0050    1.4040    0.3140 C   0  0  0  0  0  0  0  0  0  0  0  0
    2.6340    2.5820    1.1510 C   0  0  0  0  0  0  0  0  0  0  0  0
   -2.2400   -0.8440   -0.5510 C   0  0  0  0  0  0  0  0  0  0  0  0
   -1.9390   -0.2150   -1.5930 O   0  0  0  0  0  0  0  0  0  0  0  0
  1  2  1  0
  2  3  1  0
  3  4  1  0
  4  5  1  0
  4 23  1  0
  5  6  2  0
  5  7  1  0
  7  8  1  0
  8  9  1  0
  8 10  2  0
 10 11  1  0
 10 23  1  0
 11 12  1  0
 12 13  2  0
 12 14  1  0
 14 15  1  0
 14 21  2  0
 15 16  1  0
 16 17  1  0
 16 18  2  0
 18 19  1  0
 18 21  1  0
 19 20  2  0
 21 22  1  0
 23 24  2  0
M  END
