
     RDKit          3D

 24 25  0  0  0  0  0  0  0  0999 V2000
    5.3930    1.7260    3.1440 C   0  0  0  0  0  0  0  0  0  0  0  0
    5.1450    1.4150    1.7170 C   0  0  0  0  0  0  0  0  0  0  0  0
    4.2160    0.5700    1.3870 C   0  0  0  0  0  0  0  0  0  0  0  0
    3.4130   -0.0720    2.4180 C   0  0  0  0  0  0  0  0  0  0  0  0
    2.4870   -0.8970    2.1200 N   0  0  0  0  0  0  0  0  0  0  0  0
    2.1570   -1.2600    0.7990 C   0  0  0  0  0  0  0  0  0  0  0  0
    3.0410   -1.9570    0.0100 C   0  0  0  0  0  0  0  0  0  0  0  0
    2.6830   -2.2870   -1.2770 C   0  0  0  0  0  0  0  0  0  0  0  0
    1.4560   -1.9330   -1.7880 C   0  0  0  0  0  0  0  0  0  0  0  0
    1.1790   -2.3000   -3.0700 O   0  0  0  0  0  0  0  0  0  0  0  0
    0.5370   -1.2250   -1.0130 C   0  0  0  0  0  0  0  0  0  0  0  0
   -0.7030   -0.8500   -1.5650 N   0  0  0  0  0  0  0  0  0  0  0  0
   -1.7400   -0.2400   -0.8510 C   0  0  0  0  0  0  0  0  0  0  0  0
   -1.6960    0.0370    0.3610 O   0  0  0  0  0  0  0  0  0  0  0  0
   -2.9820    0.1300   -1.4840 N   0  0  0  0  0  0  0  0  0  0  0  0
   -4.0460    0.7360   -0.8140 C   0  0  1  0  0  0  0  0  0  0  0  0
   -3.7060    2.0520   -0.2510 C   0  0  0  0  0  0  0  0  0  0  0  0
   -3.4540    3.0900    0.1860 N   0  0  0  0  0  0  0  0  0  0  0  0
   -5.2280    0.9790   -1.7450 C   0  0  0  0  0  0  0  0  0  0  0  0
   -6.3930    0.8190   -0.9340 O   0  0  0  0  0  0  0  0  0  0  0  0
   -5.9750    0.6980    0.4100 C   0  0  0  0  0  0  0  0  0  0  0  0
   -6.5690    1.1200    1.4080 O   0  0  0  0  0  0  0  0  0  0  0  0
   -4.6950   -0.0330    0.3130 C   0  0  0  0  0  0  0  0  0  0  0  0
    0.9230   -0.9070    0.2700 C   0  0  0  0  0  0  0  0  0  0  0  0
  1  2  1  0
  2  3  2  3
  3  4  1  0
  4  5  2  3
  5  6  1  0
  6  7  2  0
  6 24  1  0
  7  8  1  0
  8  9  2  0
  9 10  1  0
  9 11  1  0
 11 12  1  0
 11 24  2  0
 12 13  1  0
 13 14  2  0
 13 15  1  0
 15 16  1  0
 16 17  1  1
 16 19  1  0
 16 23  1  0
 17 18  3  0
 19 20  1  0
 20 21  1  0
 21 22  2  0
 21 23  1  0
M  END
