
     RDKit          3D

 24 25  0  0  0  0  0  0  0  0999 V2000
   -5.1050    1.4190   -0.2430 C   0  0  0  0  0  0  0  0  0  0  0  0
   -4.5050    0.2780   -0.4400 C   0  0  0  0  0  0  0  0  0  0  0  0
   -3.2850   -0.1730    0.1670 C   0  0  0  0  0  0  0  0  0  0  0  0
   -2.8650   -1.3780   -0.1570 C   0  0  0  0  0  0  0  0  0  0  0  0
   -3.6300   -2.2460   -1.1200 C   0  0  0  0  0  0  0  0  0  0  0  0
   -2.5450    0.6330    1.1330 C   0  0  2  0  0  0  0  0  0  0  0  0
   -2.0190    1.9340    0.5360 C   0  0  0  0  0  0  0  0  0  0  0  0
   -1.7300    1.6390   -0.9140 C   0  0  0  0  0  0  0  0  0  0  0  0
   -0.2850    1.3450   -1.0160 C   0  0  0  0  0  0  0  0  0  0  0  0
    0.2740    0.4640   -0.0250 N   0  0  0  0  0  0  0  0  0  0  0  0
    1.6340    0.2010   -0.3800 C   0  0  0  0  0  0  0  0  0  0  0  0
    2.1910    0.6820   -1.4040 O   0  0  0  0  0  0  0  0  0  0  0  0
    2.4320   -0.6350    0.4260 N   0  0  0  0  0  0  0  0  0  0  0  0
    3.7980   -0.8740    0.0300 C   0  0  0  0  0  0  0  0  0  0  0  0
    4.7600   -0.0160    0.5010 C   0  0  0  0  0  0  0  0  0  0  0  0
    4.4750    1.0650    1.3360 O   0  0  0  0  0  0  0  0  0  0  0  0
    6.0880   -0.2290    0.1320 C   0  0  0  0  0  0  0  0  0  0  0  0
    7.0880    0.6210    0.5900 O   0  0  0  0  0  0  0  0  0  0  0  0
    6.3410   -1.2780   -0.6750 N   0  0  0  0  0  0  0  0  0  0  0  0
    5.4000   -2.0960   -1.1200 N   0  0  0  0  0  0  0  0  0  0  0  0
    4.0980   -1.9240   -0.7840 C   0  0  0  0  0  0  0  0  0  0  0  0
    3.1800   -2.6740   -1.1840 O   0  0  0  0  0  0  0  0  0  0  0  0
   -0.1110   -0.1940    1.1560 C   0  0  0  0  0  0  0  0  0  0  0  0
   -1.4050   -0.1190    1.7650 C   0  0  0  0  0  0  0  0  0  0  0  0
  1  2  2  0
  2  3  1  0
  3  4  2  3
  6  3  1  6
  4  5  1  0
  6  7  1  0
  6 24  1  0
  7  8  1  0
  8  9  1  0
  9 10  1  0
 10 11  1  0
 10 23  1  0
 11 12  2  0
 11 13  1  0
 13 14  1  0
 14 15  2  0
 14 21  1  0
 15 16  1  0
 15 17  1  0
 17 18  1  0
 17 19  2  0
 19 20  1  0
 20 21  1  0
 21 22  2  0
 23 24  1  0
M  END
