
     RDKit          3D

 21 23  0  0  0  0  0  0  0  0999 V2000
    5.1500    0.9560    0.8120 O   0  0  0  0  0  0  0  0  0  0  0  0
    5.3670    0.0700   -0.0520 C   0  0  0  0  0  0  0  0  0  0  0  0
    6.6790   -0.3780   -0.2920 O   0  0  0  0  0  0  0  0  0  0  0  0
    4.2820   -0.4350   -0.7410 O   0  0  0  0  0  0  0  0  0  0  0  0
    3.0100    0.0220   -0.4840 O   0  0  0  0  0  0  0  0  0  0  0  0
    1.8790   -0.6870   -0.8140 C   0  0  0  0  0  0  0  0  0  0  0  0
    2.0700   -1.7970   -1.3740 O   0  0  0  0  0  0  0  0  0  0  0  0
    0.5320   -0.2010   -0.5410 C   0  0  0  0  0  0  0  0  0  0  0  0
    0.2580    0.9190    0.0250 N   0  0  0  0  0  0  0  0  0  0  0  0
   -1.0720    1.3950    0.2690 C   0  0  0  0  0  0  0  0  0  0  0  0
   -1.6010    2.4850    0.7700 C   0  0  0  0  0  0  0  0  0  0  0  0
   -3.0170    2.4170    0.6900 O   0  0  0  0  0  0  0  0  0  0  0  0
   -3.3150    1.1770    0.0380 C   0  0  0  0  0  0  0  0  0  0  0  0
   -4.3740    0.9030   -0.5780 O   0  0  0  0  0  0  0  0  0  0  0  0
   -2.1210    0.4090    0.2900 C   0  0  2  0  0  0  0  0  0  0  0  0
   -2.4880   -0.2830    1.5470 O   0  0  0  0  0  0  0  0  0  0  0  0
   -3.5830   -1.0800    0.9980 C   0  0  0  0  0  0  0  0  0  0  0  0
   -4.6580   -1.3570    1.5360 O   0  0  0  0  0  0  0  0  0  0  0  0
   -3.0870   -1.4670   -0.3350 N   0  0  0  0  0  0  0  0  0  0  0  0
   -1.7930   -0.8560   -0.3530 C   0  0  0  0  0  0  0  0  0  0  0  0
   -0.5800   -1.1490   -0.7430 C   0  0  0  0  0  0  0  0  0  0  0  0
  1  2  2  0
  2  3  1  0
  2  4  1  0
  4  5  1  0
  5  6  1  0
  6  7  2  0
  6  8  1  0
  8  9  2  0
  8 21  1  0
  9 10  1  0
 10 11  2  0
 10 15  1  0
 11 12  1  0
 12 13  1  0
 13 14  2  0
 13 15  1  0
 15 16  1  1
 15 20  1  0
 16 17  1  0
 17 18  2  0
 17 19  1  0
 19 20  1  0
 20 21  2  0
M  END
