
     RDKit          3D

 21 21  0  0  0  0  0  0  0  0999 V2000
   -1.3530   -4.0430    0.1760 O   0  0  0  0  0  0  0  0  0  0  0  0
   -0.7340   -2.9160    0.2670 C   0  0  0  0  0  0  0  0  0  0  0  0
    0.6620   -2.8750   -0.0030 N   0  0  0  0  0  0  0  0  0  0  0  0
    1.6710   -2.2540    0.7900 C   0  0  0  0  0  0  0  0  0  0  0  0
    2.7050   -1.5090   -0.0310 C   0  0  0  0  0  0  0  0  0  0  0  0
    3.0670   -0.3060    0.5710 O   0  0  0  0  0  0  0  0  0  0  0  0
    3.2300    0.9150   -0.0050 C   0  0  0  0  0  0  0  0  0  0  0  0
    3.9780    1.7500    0.6130 O   0  0  0  0  0  0  0  0  0  0  0  0
    2.6180    1.3580   -1.2860 C   0  0  0  0  0  0  0  0  0  0  0  0
    2.0890    2.6400   -1.0900 O   0  0  0  0  0  0  0  0  0  0  0  0
    0.8740    3.0480   -0.6840 C   0  0  0  0  0  0  0  0  0  0  0  0
    0.1830    3.8530   -1.3520 O   0  0  0  0  0  0  0  0  0  0  0  0
    0.2700    2.5740    0.5790 C   0  0  0  0  0  0  0  0  0  0  0  0
   -0.8690    1.7950    0.4040 O   0  0  0  0  0  0  0  0  0  0  0  0
   -0.6240    0.4550    0.6570 C   0  0  0  0  0  0  0  0  0  0  0  0
   -1.5380   -0.5020   -0.0110 C   0  0  2  0  0  0  0  0  0  0  0  0
   -2.9900   -0.0260   -0.0200 C   0  0  0  0  0  0  0  0  0  0  0  0
   -3.0910    1.2200   -0.6370 O   0  0  0  0  0  0  0  0  0  0  0  0
   -4.3380    1.5760   -0.6190 O   0  0  0  0  0  0  0  0  0  0  0  0
   -5.1340    0.6690   -0.0860 O   0  0  0  0  0  0  0  0  0  0  0  0
   -1.5160   -1.7830    0.6370 N   0  0  0  0  0  0  0  0  0  0  0  0
  1  2  2  0
  2  3  1  0
  2 21  1  0
  3  4  1  0
  4  5  1  0
  5  6  1  0
  6  7  1  0
  7  8  2  0
  7  9  1  0
  9 10  1  0
 10 11  1  0
 11 12  2  0
 11 13  1  0
 13 14  1  0
 14 15  1  0
 15 16  1  0
 16 17  1  1
 16 21  1  0
 17 18  1  0
 18 19  1  0
 19 20  1  0
M  END
