
     RDKit          3D

 21 22  0  0  0  0  0  0  0  0999 V2000
   -4.8120    2.4090   -0.9180 N   0  0  0  0  0  0  0  0  0  0  0  0
   -4.3390    1.2480   -0.2450 C   0  0  0  0  0  0  0  0  0  0  0  0
   -4.9150    0.7370    0.8160 O   0  0  0  0  0  0  0  0  0  0  0  0
   -3.2130    0.5140   -0.6130 O   0  0  0  0  0  0  0  0  0  0  0  0
   -2.7320   -0.5720    0.0910 C   0  0  2  0  0  0  0  0  0  0  0  0
   -1.4360   -0.1390    0.7420 C   0  0  0  0  0  0  0  0  0  0  0  0
   -0.4520   -1.2570    0.5440 C   0  0  2  0  0  0  0  0  0  0  0  0
    0.8290   -0.7520   -0.0730 C   0  0  1  0  0  0  0  0  0  0  0  0
    1.7730   -0.4960    0.8570 O   0  0  0  0  0  0  0  0  0  0  0  0
    2.4850    0.6130    0.8610 C   0  0  0  0  0  0  0  0  0  0  0  0
    2.9470    1.0500   -0.5080 C   0  0  0  0  0  0  0  0  0  0  0  0
    3.7300    2.2600   -0.1650 O   0  0  0  0  0  0  0  0  0  0  0  0
    4.9650    1.9630   -0.7200 O   0  0  0  0  0  0  0  0  0  0  0  0
    5.7820    2.7490    0.1010 O   0  0  0  0  0  0  0  0  0  0  0  0
    1.5260   -1.8330   -0.9600 C   0  0  0  0  0  0  0  0  0  0  0  0
    1.0560   -3.0950   -0.6420 O   0  0  0  0  0  0  0  0  0  0  0  0
   -0.3450   -3.3150   -0.7440 C   0  0  0  0  0  0  0  0  0  0  0  0
   -0.8070   -4.3670   -1.1480 O   0  0  0  0  0  0  0  0  0  0  0  0
   -1.1100   -2.1750   -0.3760 N   0  0  0  0  0  0  0  0  0  0  0  0
   -2.4220   -1.7150   -0.7190 C   0  0  0  0  0  0  0  0  0  0  0  0
   -3.1110   -2.3110   -1.6020 O   0  0  0  0  0  0  0  0  0  0  0  0
  1  2  1  0
  2  3  2  0
  2  4  1  0
  5  4  1  6
  5  6  1  0
  5 20  1  0
  7  6  1  6
  7  8  1  0
  7 19  1  0
  8  9  1  1
  8 15  1  0
  9 10  1  0
 10 11  1  0
 11 12  1  0
 12 13  1  0
 13 14  1  0
 15 16  1  0
 16 17  1  0
 17 18  2  0
 17 19  1  0
 19 20  1  0
 20 21  2  0
M  END
