
     RDKit          3D

 20 20  0  0  0  0  0  0  0  0999 V2000
   -5.3370   -1.1580    1.4980 O   0  0  0  0  0  0  0  0  0  0  0  0
   -4.6350   -2.0270    0.9400 C   0  0  0  0  0  0  0  0  0  0  0  0
   -4.9690   -3.3790    1.0180 O   0  0  0  0  0  0  0  0  0  0  0  0
   -3.5250   -1.5700    0.2510 O   0  0  0  0  0  0  0  0  0  0  0  0
   -3.1870   -0.1810    0.1730 C   0  0  2  0  0  0  0  0  0  0  0  0
   -3.2890    0.3570   -1.2030 C   0  0  0  0  0  0  0  0  0  0  0  0
   -2.3820    1.5690   -1.3120 C   0  0  1  0  0  0  0  0  0  0  0  0
   -2.5970    2.4320   -0.2540 O   0  0  0  0  0  0  0  0  0  0  0  0
   -1.0040    0.9700   -1.1290 C   0  0  0  0  0  0  0  0  0  0  0  0
   -0.1140    1.0230   -1.9940 O   0  0  0  0  0  0  0  0  0  0  0  0
   -0.7470    0.3220    0.0970 N   0  0  0  0  0  0  0  0  0  0  0  0
    0.5310   -0.0140    0.6030 C   0  0  0  0  0  0  0  0  0  0  0  0
    0.6350   -0.6180    1.7370 O   0  0  0  0  0  0  0  0  0  0  0  0
    1.7740    0.2500   -0.0230 N   0  0  0  0  0  0  0  0  0  0  0  0
    3.0310   -0.1680    0.6370 C   0  0  0  0  0  0  0  0  0  0  0  0
    4.2210    0.2020   -0.1840 C   0  0  0  0  0  0  0  0  0  0  0  0
    5.7200   -0.3810    0.7620 P   0  0  0  0  0  0  0  0  0  0  0  0
    6.7430    0.9730    1.0370 O   0  0  0  0  0  0  0  0  0  0  0  0
    6.5150   -1.6750   -0.0350 O   0  0  0  0  0  0  0  0  0  0  0  0
   -1.9070   -0.0220    0.8950 C   0  0  0  0  0  0  0  0  0  0  0  0
  1  2  2  0
  2  3  1  0
  2  4  1  0
  5  4  1  6
  5  6  1  0
  5 20  1  0
  6  7  1  0
  7  8  1  1
  7  9  1  0
  9 10  2  0
  9 11  1  0
 11 12  1  0
 11 20  1  0
 12 13  2  0
 12 14  1  0
 14 15  1  0
 15 16  1  0
 16 17  1  0
 17 18  1  0
 17 19  1  0
M  END
