
     RDKit          3D

 16 16  0  0  0  0  0  0  0  0999 V2000
   -0.9880   -2.4710   -0.1000 O   0  0  0  0  0  0  0  0  0  0  0  0
   -1.2490   -1.1430   -0.3590 C   0  0  1  0  0  0  0  0  0  0  0  0
   -2.5900   -0.6960    0.1860 C   0  0  2  0  0  0  0  0  0  0  0  0
   -3.6240   -1.5020   -0.2840 O   0  0  0  0  0  0  0  0  0  0  0  0
   -2.7870    0.7490   -0.2640 C   0  0  1  0  0  0  0  0  0  0  0  0
   -3.8990    1.2630    0.4120 O   0  0  0  0  0  0  0  0  0  0  0  0
   -1.5900    1.5340    0.1950 C   0  0  2  0  0  0  0  0  0  0  0  0
   -1.7370    2.8970   -0.0270 O   0  0  0  0  0  0  0  0  0  0  0  0
   -0.3990    1.0330   -0.3480 O   0  0  0  0  0  0  0  0  0  0  0  0
   -0.2020   -0.2190    0.2430 C   0  0  2  0  0  0  0  0  0  0  0  0
    1.2040   -0.7360   -0.0330 C   0  0  0  0  0  0  0  0  0  0  0  0
    2.0870    0.1580    0.4880 O   0  0  0  0  0  0  0  0  0  0  0  0
    3.6800   -0.1720    0.3200 P   0  0  0  0  0  0  0  0  0  0  0  0
    4.0150    1.2280   -0.1770 O   0  0  0  0  0  0  0  0  0  0  0  0
    4.7340    0.0190    1.6080 O   0  0  0  0  0  0  0  0  0  0  0  0
    4.2770   -0.8980   -1.0340 O   0  0  0  0  0  0  0  0  0  0  0  0
  2  1  1  1
  2  3  1  0
  2 10  1  0
  3  4  1  6
  3  5  1  0
  5  6  1  1
  5  7  1  0
  7  8  1  6
  7  9  1  0
  9 10  1  0
 10 11  1  6
 11 12  1  0
 12 13  1  0
 13 14  1  0
 13 15  1  0
 13 16  1  0
M  END
