
     RDKit          3D

 14 13  0  0  0  0  0  0  0  0999 V2000
    3.9890   -0.3900   -0.2400 O   0  0  0  0  0  0  0  0  0  0  0  0
    3.9010    0.2940    0.8240 C   0  0  0  0  0  0  0  0  0  0  0  0
    4.8030   -0.0150    1.8440 O   0  0  0  0  0  0  0  0  0  0  0  0
    2.8810    1.3590    0.9430 C   0  0  0  0  0  0  0  0  0  0  0  0
    1.8900    1.4890   -0.5500 P   0  0  0  0  0  0  0  0  0  0  0  0
    2.5230    2.2610   -1.8820 O   0  0  0  0  0  0  0  0  0  0  0  0
    0.5490    0.5110   -0.7190 O   0  0  0  0  0  0  0  0  0  0  0  0
    0.3850   -0.3630    0.3440 C   0  0  0  0  0  0  0  0  0  0  0  0
   -0.8470   -1.1990    0.0990 C   0  0  0  0  0  0  0  0  0  0  0  0
   -1.9600   -0.3270   -0.0030 O   0  0  0  0  0  0  0  0  0  0  0  0
   -3.2490   -0.7900   -0.2300 C   0  0  0  0  0  0  0  0  0  0  0  0
   -3.3710   -2.0510   -0.3410 O   0  0  0  0  0  0  0  0  0  0  0  0
   -4.4200    0.1150   -0.3380 C   0  0  0  0  0  0  0  0  0  0  0  0
   -5.5520   -0.6660   -0.5640 O   0  0  0  0  0  0  0  0  0  0  0  0
  1  2  2  0
  2  3  1  0
  2  4  1  0
  4  5  1  0
  5  6  1  0
  5  7  1  0
  7  8  1  0
  8  9  1  0
  9 10  1  0
 10 11  1  0
 11 12  2  0
 11 13  1  0
 13 14  1  0
M  END
