
     RDKit          3D

 21 22  0  0  0  0  0  0  0  0999 V2000
    0.2000    0.7310   -1.5370 O   0  0  0  0  0  0  0  0  0  0  0  0
   -0.5230    0.1540   -0.6510 C   0  0  0  0  0  0  0  0  0  0  0  0
    0.0660   -0.9900   -0.0490 N   0  0  0  0  0  0  0  0  0  0  0  0
    1.3840   -1.4720   -0.4180 C   0  0  0  0  0  0  0  0  0  0  0  0
    2.4800   -0.4770   -0.1840 C   0  0  0  0  0  0  0  0  0  0  0  0
    3.7080   -1.0200   -0.5640 O   0  0  0  0  0  0  0  0  0  0  0  0
    4.9990    0.1110   -0.3050 P   0  0  0  0  0  0  0  0  0  0  0  0
    6.5210   -0.5280   -0.7700 O   0  0  0  0  0  0  0  0  0  0  0  0
    5.0070    0.7860    1.4100 C   0  0  0  0  0  0  0  0  0  0  0  0
    4.7430    2.1610    1.3260 O   0  0  0  0  0  0  0  0  0  0  0  0
   -1.8320    0.6670   -0.3200 C   0  0  1  0  0  0  0  0  0  0  0  0
   -2.5430    1.4350   -1.4240 C   0  0  0  0  0  0  0  0  0  0  0  0
   -3.9190    1.1840   -1.2080 O   0  0  0  0  0  0  0  0  0  0  0  0
   -4.3200    1.4310    0.0070 O   0  0  0  0  0  0  0  0  0  0  0  0
   -3.8890    0.4960    0.9540 C   0  0  1  0  0  0  0  0  0  0  0  0
   -3.3720    1.0830    2.0980 O   0  0  0  0  0  0  0  0  0  0  0  0
   -4.8780   -0.5630    1.2940 C   0  0  0  0  0  0  0  0  0  0  0  0
   -4.0950   -1.7840    1.2980 O   0  0  0  0  0  0  0  0  0  0  0  0
   -3.1030   -1.5630    0.3040 C   0  0  0  0  0  0  0  0  0  0  0  0
   -2.6300   -2.5330   -0.3710 O   0  0  0  0  0  0  0  0  0  0  0  0
   -2.8000   -0.2080    0.2380 N   0  0  0  0  0  0  0  0  0  0  0  0
  1  2  2  0
  2  3  1  0
 11  2  1  6
  3  4  1  0
  4  5  1  0
  5  6  1  0
  6  7  1  0
  7  8  1  0
  7  9  1  0
  9 10  1  0
 11 12  1  0
 11 21  1  0
 12 13  1  0
 13 14  1  0
 14 15  1  0
 15 16  1  1
 15 17  1  0
 15 21  1  0
 17 18  1  0
 18 19  1  0
 19 20  2  0
 19 21  1  0
M  END
