
     RDKit          3D

 24 25  0  0  0  0  0  0  0  0999 V2000
    2.6390    1.1880   -2.5300 C   0  0  0  0  0  0  0  0  0  0  0  0
    2.4110   -0.3050   -2.4650 C   0  0  0  0  0  0  0  0  0  0  0  0
    2.2100   -0.6900   -1.1160 N   0  0  0  0  0  0  0  0  0  0  0  0
    1.0060   -0.2290   -0.5150 C   0  0  1  0  0  0  0  0  0  0  0  0
   -0.1470   -0.6430   -1.1600 O   0  0  0  0  0  0  0  0  0  0  0  0
   -1.1240   -0.4380   -0.1940 C   0  0  2  0  0  0  0  0  0  0  0  0
   -1.7410    1.2640   -0.2930 P   0  0  0  0  0  0  0  0  0  0  0  0
   -0.8710    2.4960    0.6040 N   0  0  0  0  0  0  0  0  0  0  0  0
   -0.3840    3.5150   -0.2850 C   0  0  0  0  0  0  0  0  0  0  0  0
   -1.2550    3.9280   -1.4070 C   0  0  0  0  0  0  0  0  0  0  0  0
   -2.2500    3.0880   -1.8130 O   0  0  0  0  0  0  0  0  0  0  0  0
   -1.8460    1.8190   -1.9410 O   0  0  0  0  0  0  0  0  0  0  0  0
   -0.4390   -0.7640    1.0270 N   0  0  0  0  0  0  0  0  0  0  0  0
   -1.0510   -1.1060    2.2520 C   0  0  0  0  0  0  0  0  0  0  0  0
   -1.0330   -2.3440    2.7230 C   0  0  0  0  0  0  0  0  0  0  0  0
   -0.4200   -3.4150    2.0760 O   0  0  0  0  0  0  0  0  0  0  0  0
   -1.1580   -4.0630    1.0590 C   0  0  0  0  0  0  0  0  0  0  0  0
   -1.9100    0.1550    3.2770 P   0  0  0  0  0  0  0  0  0  0  0  0
   -0.7960    1.3120    3.9100 O   0  0  0  0  0  0  0  0  0  0  0  0
   -3.2460    0.8700    2.4860 O   0  0  0  0  0  0  0  0  0  0  0  0
    0.8720   -0.6830    0.7970 O   0  0  0  0  0  0  0  0  0  0  0  0
    2.8030   -2.2480   -0.6290 P   0  0  0  0  0  0  0  0  0  0  0  0
    3.2170   -2.2860    1.0550 O   0  0  0  0  0  0  0  0  0  0  0  0
    1.8370   -3.5900   -1.0700 O   0  0  0  0  0  0  0  0  0  0  0  0
  1  2  1  0
  2  3  1  0
  4  3  1  6
  3 22  1  0
  4  5  1  0
  4 21  1  0
  5  6  1  0
  6  7  1  1
  6 13  1  0
  7  8  1  0
  7 12  1  0
  8  9  1  0
  9 10  1  0
 10 11  1  0
 11 12  1  0
 13 14  1  0
 13 21  1  0
 14 15  2  3
 14 18  1  0
 15 16  1  0
 16 17  1  0
 18 19  1  0
 18 20  1  0
 22 23  1  0
 22 24  1  0
M  END
