
     RDKit          3D

 22 23  0  0  0  0  0  0  0  0999 V2000
   -4.0880   -0.3880    2.1270 C   0  0  0  0  0  0  0  0  0  0  0  0
   -2.7650   -0.6930    1.6570 N   0  0  0  0  0  0  0  0  0  0  0  0
   -1.7510   -0.4800    2.6960 C   0  0  0  0  0  0  0  0  0  0  0  0
   -0.7730    0.3560    2.0990 O   0  0  0  0  0  0  0  0  0  0  0  0
   -0.9700    0.1140    0.7840 N   0  0  0  0  0  0  0  0  0  0  0  0
   -0.1200   -0.0960   -0.3240 C   0  0  0  0  0  0  0  0  0  0  0  0
    1.1710   -0.3270   -0.2550 C   0  0  0  0  0  0  0  0  0  0  0  0
    1.9010   -0.5220   -1.5550 C   0  0  0  0  0  0  0  0  0  0  0  0
    2.5260   -1.8150   -1.6460 N   0  0  0  0  0  0  0  0  0  0  0  0
    1.9080   -0.3910    0.9900 C   0  0  1  0  0  0  0  0  0  0  0  0
    2.7690   -1.5000    1.0620 O   0  0  0  0  0  0  0  0  0  0  0  0
    2.6100    0.7700    1.3220 O   0  0  0  0  0  0  0  0  0  0  0  0
    3.6070    1.3720    0.5870 C   0  0  0  0  0  0  0  0  0  0  0  0
    3.3000    2.4770   -0.2190 O   0  0  0  0  0  0  0  0  0  0  0  0
    5.1780    0.8360    0.6170 P   0  0  0  0  0  0  0  0  0  0  0  0
   -0.7460   -0.0480   -1.5950 O   0  0  0  0  0  0  0  0  0  0  0  0
   -2.0580    0.4250   -1.6060 C   0  0  1  0  0  0  0  0  0  0  0  0
   -2.6150    0.1210   -2.8630 O   0  0  0  0  0  0  0  0  0  0  0  0
   -2.9500    1.1330   -3.7390 C   0  0  0  0  0  0  0  0  0  0  0  0
   -2.7370    2.3200   -3.3640 O   0  0  0  0  0  0  0  0  0  0  0  0
   -2.8280   -0.0180   -0.5540 O   0  0  0  0  0  0  0  0  0  0  0  0
   -2.3320    0.0960    0.6300 N   0  0  0  0  0  0  0  0  0  0  0  0
  1  2  1  0
  2  3  1  0
  2 22  1  0
  3  4  1  0
  4  5  1  0
  5  6  1  0
  5 22  1  0
  6  7  2  3
  6 16  1  0
  7  8  1  0
  7 10  1  0
  8  9  1  0
 10 11  1  6
 10 12  1  0
 12 13  1  0
 13 14  1  0
 13 15  2  0
 16 17  1  0
 17 18  1  6
 17 21  1  0
 18 19  1  0
 19 20  2  0
 21 22  1  0
M  END
