
     RDKit          3D

 24 26  0  0  0  0  0  0  0  0999 V2000
   -2.3160   -2.0780    0.3640 N   0  0  0  0  0  0  0  0  0  0  0  0
   -1.9200   -0.6860    0.4220 C   0  0  0  0  0  0  0  0  0  0  0  0
   -2.8760    0.1790    0.7420 C   0  0  0  0  0  0  0  0  0  0  0  0
   -4.3130   -0.0160    1.0590 C   0  0  0  0  0  0  0  0  0  0  0  0
   -4.8700    1.3580    0.9510 C   0  0  0  0  0  0  0  0  0  0  0  0
   -6.1050    1.5990    1.1460 O   0  0  0  0  0  0  0  0  0  0  0  0
   -3.8560    2.2260    0.6260 O   0  0  0  0  0  0  0  0  0  0  0  0
   -2.5840    1.6400    0.8470 C   0  0  2  0  0  0  0  0  0  0  0  0
   -1.3690    2.0340   -0.4760 P   0  0  0  0  0  0  0  0  0  0  0  0
   -2.2110    2.1710   -1.9750 O   0  0  0  0  0  0  0  0  0  0  0  0
   -0.2440    0.7300   -0.6030 O   0  0  0  0  0  0  0  0  0  0  0  0
   -0.5820   -0.3580    0.1260 N   0  0  0  0  0  0  0  0  0  0  0  0
    0.4670   -1.2020    0.5980 C   0  0  0  0  0  0  0  0  0  0  0  0
    0.1870   -2.2050    1.2660 O   0  0  0  0  0  0  0  0  0  0  0  0
    1.8980   -0.9100    0.3080 C   0  0  2  0  0  0  0  0  0  0  0  0
    2.1800   -0.8530   -1.1800 C   0  0  0  0  0  0  0  0  0  0  0  0
    1.8980   -2.0220   -1.8370 O   0  0  0  0  0  0  0  0  0  0  0  0
    2.6730   -1.9150    0.9200 O   0  0  0  0  0  0  0  0  0  0  0  0
    4.2740   -1.1790    0.9470 P   0  0  0  0  0  0  0  0  0  0  0  0
    5.1870   -1.7230   -0.3910 O   0  0  0  0  0  0  0  0  0  0  0  0
    3.7060    0.5230    0.7900 N   0  0  0  0  0  0  0  0  0  0  0  0
    4.6430    2.0300    0.5800 P   0  0  0  0  0  0  0  0  0  0  0  0
    2.2930    0.3900    0.8790 C   0  0  0  0  0  0  0  0  0  0  0  0
    1.4870    1.2400    1.3660 O   0  0  0  0  0  0  0  0  0  0  0  0
  1  2  1  0
  2  3  2  0
  2 12  1  0
  3  4  1  0
  3  8  1  0
  4  5  1  0
  5  6  2  0
  5  7  1  0
  8  7  1  6
  8  9  1  0
  9 10  1  0
  9 11  1  0
 11 12  1  0
 12 13  1  0
 13 14  2  0
 13 15  1  0
 15 16  1  6
 15 18  1  0
 15 23  1  0
 16 17  1  0
 18 19  1  0
 19 20  1  0
 19 21  1  0
 21 22  1  0
 21 23  1  0
 23 24  2  0
M  END
