
     RDKit          3D

 10 10  0  0  0  0  0  0  0  0999 V2000
   -1.8870    0.8010   -0.2780 C   0  0  0  0  0  0  0  0  0  0  0  0
   -0.9410   -0.0430    0.0640 C   0  0  0  0  0  0  0  0  0  0  0  0
   -1.3200   -1.2780    0.5680 O   0  0  0  0  0  0  0  0  0  0  0  0
   -2.1570   -1.3340    1.7290 C   0  0  0  0  0  0  0  0  0  0  0  0
    0.4760    0.3380   -0.0940 C   0  0  1  0  0  0  0  0  0  0  0  0
    0.8150    1.6260   -0.6190 N   0  0  0  0  0  0  0  0  0  0  0  0
    1.3310   -0.3010    0.7990 O   0  0  0  0  0  0  0  0  0  0  0  0
    1.4660   -0.7580   -0.4920 C   0  0  2  0  0  0  0  0  0  0  0  0
    2.7000   -0.3580   -1.1390 N   0  0  0  0  0  0  0  0  0  0  0  0
    0.8670   -1.9160   -0.9180 O   0  0  0  0  0  0  0  0  0  0  0  0
  1  2  2  0
  2  3  1  0
  2  5  1  0
  3  4  1  0
  5  6  1  6
  5  7  1  0
  5  8  1  0
  7  8  1  0
  8  9  1  6
  8 10  1  0
M  END
