
     RDKit          3D

 16 16  0  0  0  0  0  0  0  0999 V2000
   -2.8540    2.4130   -0.7620 O   0  0  0  0  0  0  0  0  0  0  0  0
   -2.9890    1.2430   -0.0040 C   0  0  0  0  0  0  0  0  0  0  0  0
   -2.0340    0.2320   -0.5820 C   0  0  1  0  0  0  0  0  0  0  0  0
   -2.4140    0.0390   -1.9220 O   0  0  0  0  0  0  0  0  0  0  0  0
   -0.7390    0.6930   -0.4960 O   0  0  0  0  0  0  0  0  0  0  0  0
   -0.2880    0.2090    0.7550 C   0  0  2  0  0  0  0  0  0  0  0  0
    1.2010    0.4110    0.8310 C   0  0  0  0  0  0  0  0  0  0  0  0
    1.7830   -0.2950   -0.2050 O   0  0  0  0  0  0  0  0  0  0  0  0
    3.4270   -0.0710   -0.1150 P   0  0  0  0  0  0  0  0  0  0  0  0
    4.0750    1.1590    0.7020 O   0  0  0  0  0  0  0  0  0  0  0  0
    3.4440    0.5510   -1.5110 O   0  0  0  0  0  0  0  0  0  0  0  0
    4.4310   -1.2910   -0.6970 O   0  0  0  0  0  0  0  0  0  0  0  0
   -0.6840   -1.2310    0.6580 C   0  0  1  0  0  0  0  0  0  0  0  0
   -0.7450   -1.8420    1.8970 O   0  0  0  0  0  0  0  0  0  0  0  0
   -2.1040   -1.1070    0.0890 C   0  0  2  0  0  0  0  0  0  0  0  0
   -2.3840   -2.1520   -0.7590 O   0  0  0  0  0  0  0  0  0  0  0  0
  1  2  1  0
  2  3  1  0
  3  4  1  6
  3  5  1  0
  3 15  1  0
  5  6  1  0
  6  7  1  6
  6 13  1  0
  7  8  1  0
  8  9  1  0
  9 10  1  0
  9 11  1  0
  9 12  1  0
 13 14  1  1
 13 15  1  0
 15 16  1  6
M  END
