
     RDKit          3D

 24 25  0  0  0  0  0  0  0  0999 V2000
    3.9420    1.0100   -0.6150 N   0  0  0  0  0  0  0  0  0  0  0  0
    2.8620    0.3280    0.0910 C   0  0  2  0  0  0  0  0  0  0  0  0
    3.3620   -0.3180    1.3020 N   0  0  0  0  0  0  0  0  0  0  0  0
    4.3130   -1.2330    0.9890 O   0  0  0  0  0  0  0  0  0  0  0  0
    5.6730   -0.9650    0.9410 C   0  0  0  0  0  0  0  0  0  0  0  0
    6.0790    0.1900    1.1990 O   0  0  0  0  0  0  0  0  0  0  0  0
    6.6120   -1.9390    0.6140 O   0  0  0  0  0  0  0  0  0  0  0  0
    2.3010   -0.6870   -0.7430 N   0  0  0  0  0  0  0  0  0  0  0  0
    0.9040   -0.9380   -0.5030 C   0  0  0  0  0  0  0  0  0  0  0  0
    0.0610    0.2620   -0.8990 C   0  0  1  0  0  0  0  0  0  0  0  0
   -1.3160    0.1180   -0.3470 C   0  0  0  0  0  0  0  0  0  0  0  0
   -2.3530    0.1120   -1.1460 C   0  0  0  0  0  0  0  0  0  0  0  0
   -3.7290   -0.0200   -0.7340 C   0  0  0  0  0  0  0  0  0  0  0  0
   -4.1290   -0.1850    0.8560 P   0  0  0  0  0  0  0  0  0  0  0  0
   -5.7590   -0.3490    1.4280 O   0  0  0  0  0  0  0  0  0  0  0  0
   -6.7420    0.2960    0.1260 P   0  0  0  0  0  0  0  0  0  0  0  0
   -6.0610   -0.3970   -1.4540 C   0  0  0  0  0  0  0  0  0  0  0  0
   -4.7440   -0.0100   -1.7020 O   0  0  0  0  0  0  0  0  0  0  0  0
   -1.5470   -0.0520    1.4500 P   0  0  0  0  0  0  0  0  0  0  0  0
   -1.1520   -1.6540    1.9880 O   0  0  0  0  0  0  0  0  0  0  0  0
   -0.5960    1.1070    2.3280 O   0  0  0  0  0  0  0  0  0  0  0  0
    0.7250    1.4750   -0.3480 C   0  0  0  0  0  0  0  0  0  0  0  0
    0.2230    2.6070   -0.5790 O   0  0  0  0  0  0  0  0  0  0  0  0
    1.8740    1.2920    0.4010 O   0  0  0  0  0  0  0  0  0  0  0  0
  2  1  1  6
  2  3  1  0
  2  8  1  0
  2 24  1  0
  3  4  1  0
  4  5  1  0
  5  6  2  0
  5  7  1  0
  8  9  1  0
  9 10  1  0
 10 11  1  1
 10 22  1  0
 11 12  2  3
 11 19  1  0
 12 13  1  0
 13 14  2  0
 13 18  1  0
 14 15  1  0
 15 16  1  0
 16 17  1  0
 17 18  1  0
 19 20  1  0
 19 21  1  0
 22 23  2  0
 22 24  1  0
M  END
