
     RDKit          3D

 22 25  0  0  0  0  0  0  0  0999 V2000
   -0.2840    3.7950   -1.4860 O   0  0  0  0  0  0  0  0  0  0  0  0
   -1.0380    2.9620   -0.9070 C   0  0  0  0  0  0  0  0  0  0  0  0
   -2.2480    3.2680   -0.3720 O   0  0  0  0  0  0  0  0  0  0  0  0
   -3.0840    2.3660    0.2640 C   0  0  0  0  0  0  0  0  0  0  0  0
   -2.5400    0.9770    0.3220 C   0  0  0  0  0  0  0  0  0  0  0  0
   -1.3670    0.6750   -0.1960 C   0  0  0  0  0  0  0  0  0  0  0  0
   -0.8720   -0.6920   -0.1190 C   0  0  0  0  0  0  0  0  0  0  0  0
    0.2730   -0.9910   -0.6230 N   0  0  0  0  0  0  0  0  0  0  0  0
    1.0870   -0.0190   -1.2650 C   0  0  0  0  0  0  0  0  0  0  0  0
    2.3270   -0.3830   -1.8020 O   0  0  0  0  0  0  0  0  0  0  0  0
    3.4920    0.2560   -1.3540 C   0  0  0  0  0  0  0  0  0  0  0  0
    3.7420    0.0120    0.4710 P   0  0  0  0  0  0  0  0  0  0  0  0
    5.3420    0.3820    0.9580 O   0  0  0  0  0  0  0  0  0  0  0  0
    3.2450   -1.5760    0.9660 O   0  0  0  0  0  0  0  0  0  0  0  0
    0.6970    1.2410   -1.3700 C   0  0  0  0  0  0  0  0  0  0  0  0
   -0.5530    1.6350   -0.8340 N   0  0  0  0  0  0  0  0  0  0  0  0
   -1.6490   -1.6990    0.5130 N   0  0  0  0  0  0  0  0  0  0  0  0
   -1.5220   -3.0810    0.7790 C   0  0  0  0  0  0  0  0  0  0  0  0
   -2.5930   -3.5110    1.4200 C   0  0  0  0  0  0  0  0  0  0  0  0
   -3.4550   -2.4460    1.5990 O   0  0  0  0  0  0  0  0  0  0  0  0
   -2.9010   -1.2880    1.0440 C   0  0  0  0  0  0  0  0  0  0  0  0
   -3.3010   -0.0650    0.9540 N   0  0  0  0  0  0  0  0  0  0  0  0
  1  2  2  0
  2  3  1  0
  2 16  1  0
  3  4  1  0
  4  5  1  0
  5  6  2  0
  5 22  1  0
  6  7  1  0
  6 16  1  0
  7  8  2  0
  7 17  1  0
  8  9  1  0
  9 10  1  0
  9 15  2  0
 10 11  1  0
 11 12  1  0
 12 13  1  0
 12 14  1  0
 15 16  1  0
 17 18  1  0
 17 21  1  0
 18 19  2  0
 19 20  1  0
 20 21  1  0
 21 22  2  0
M  END
