
     RDKit          3D

 22 24  0  0  0  0  0  0  0  0999 V2000
   -3.1000    0.8910   -1.9610 O   0  0  0  0  0  0  0  0  0  0  0  0
   -3.0960    0.7220   -0.7130 C   0  0  0  0  0  0  0  0  0  0  0  0
   -4.1060    1.3160    0.0880 N   0  0  0  0  0  0  0  0  0  0  0  0
   -4.1890    1.1270    1.4960 C   0  0  0  0  0  0  0  0  0  0  0  0
   -3.3730    0.0510    2.0720 C   0  0  0  0  0  0  0  0  0  0  0  0
   -2.2530   -0.4970    1.3070 C   0  0  0  0  0  0  0  0  0  0  0  0
   -2.1120   -0.0470   -0.0520 N   0  0  0  0  0  0  0  0  0  0  0  0
   -0.9120   -0.4080   -0.7420 C   0  0  0  0  0  0  0  0  0  0  0  0
    0.3380   -0.0560   -0.2180 C   0  0  0  0  0  0  0  0  0  0  0  0
    1.5300   -0.3560   -0.8030 C   0  0  0  0  0  0  0  0  0  0  0  0
    2.7950   -0.0080   -0.2880 N   0  0  0  0  0  0  0  0  0  0  0  0
    3.0660    0.6900    0.8860 C   0  0  0  0  0  0  0  0  0  0  0  0
    2.1600    1.0980    1.6370 O   0  0  0  0  0  0  0  0  0  0  0  0
    4.7900    1.0480    1.3920 P   0  0  0  0  0  0  0  0  0  0  0  0
    5.0700    0.1790    2.8770 O   0  0  0  0  0  0  0  0  0  0  0  0
    4.9080    2.7500    1.7260 O   0  0  0  0  0  0  0  0  0  0  0  0
    1.4910   -1.0650   -2.0110 C   0  0  0  0  0  0  0  0  0  0  0  0
    0.2670   -1.4050   -2.5150 C   0  0  0  0  0  0  0  0  0  0  0  0
   -0.9090   -1.0830   -1.8950 N   0  0  0  0  0  0  0  0  0  0  0  0
    0.5020   -2.0980   -3.7120 O   0  0  0  0  0  0  0  0  0  0  0  0
    1.8740   -2.3980   -3.7620 C   0  0  0  0  0  0  0  0  0  0  0  0
    2.5010   -1.5240   -2.8560 O   0  0  0  0  0  0  0  0  0  0  0  0
  1  2  2  0
  2  3  1  0
  2  7  1  0
  3  4  1  0
  4  5  1  0
  5  6  1  0
  6  7  1  0
  7  8  1  0
  8  9  2  0
  8 19  1  0
  9 10  1  0
 10 11  1  0
 10 17  2  0
 11 12  1  0
 12 13  2  0
 12 14  1  0
 14 15  1  0
 14 16  1  0
 17 18  1  0
 17 22  1  0
 18 19  2  0
 18 20  1  0
 20 21  1  0
 21 22  1  0
M  END
