
     RDKit          3D

 22 24  0  0  0  0  0  0  0  0999 V2000
   -2.6330    2.3150   -0.9330 O   0  0  0  0  0  0  0  0  0  0  0  0
   -2.1110    1.3980   -0.1830 C   0  0  0  0  0  0  0  0  0  0  0  0
   -1.0000    1.9210    0.6450 C   0  0  0  0  0  0  0  0  0  0  0  0
    0.1250    2.5020   -0.1910 C   0  0  0  0  0  0  0  0  0  0  0  0
    1.1050    1.6130   -0.5340 O   0  0  0  0  0  0  0  0  0  0  0  0
    2.3430    1.6790    0.6790 P   0  0  0  0  0  0  0  0  0  0  0  0
    3.1200    3.2250    0.5560 O   0  0  0  0  0  0  0  0  0  0  0  0
    3.4770    0.4160    0.3270 O   0  0  0  0  0  0  0  0  0  0  0  0
    2.9280   -0.8310    0.6140 C   0  0  2  0  0  0  0  0  0  0  0  0
    4.0120   -1.8580    0.2630 C   0  0  0  0  0  0  0  0  0  0  0  0
    5.1430   -1.6250    1.0240 O   0  0  0  0  0  0  0  0  0  0  0  0
    1.6910   -1.1130   -0.1520 C   0  0  0  0  0  0  0  0  0  0  0  0
    0.4640   -0.8620    0.3140 N   0  0  0  0  0  0  0  0  0  0  0  0
   -0.4340   -1.2130   -0.5800 C   0  0  0  0  0  0  0  0  0  0  0  0
    0.3190   -1.6940   -1.6180 N   0  0  0  0  0  0  0  0  0  0  0  0
    1.5790   -1.6270   -1.3490 O   0  0  0  0  0  0  0  0  0  0  0  0
   -1.9030   -1.1060   -0.4570 C   0  0  0  0  0  0  0  0  0  0  0  0
   -2.4650   -2.2840   -0.6140 N   0  0  0  0  0  0  0  0  0  0  0  0
   -3.8670   -2.4340   -0.5360 C   0  0  0  0  0  0  0  0  0  0  0  0
   -4.6140   -1.4050   -0.3050 C   0  0  0  0  0  0  0  0  0  0  0  0
   -4.0760   -0.0530   -0.1090 C   0  0  0  0  0  0  0  0  0  0  0  0
   -2.6430    0.0730   -0.2450 N   0  0  0  0  0  0  0  0  0  0  0  0
  1  2  2  0
  2  3  1  0
  2 22  1  0
  3  4  1  0
  4  5  1  0
  5  6  1  0
  6  7  1  0
  6  8  1  0
  8  9  1  0
  9 10  1  6
  9 12  1  0
 10 11  1  0
 12 13  2  0
 12 16  1  0
 13 14  1  0
 14 15  2  0
 14 17  1  0
 15 16  1  0
 17 18  2  0
 17 22  1  0
 18 19  1  0
 19 20  2  0
 20 21  1  0
 21 22  1  0
M  END
