
     RDKit          3D

 22 22  0  0  0  0  0  0  0  0999 V2000
   -3.6730   -1.8340   -0.7020 C   0  0  0  0  0  0  0  0  0  0  0  0
   -3.5070   -0.5690    0.1470 C   0  0  1  0  0  0  0  0  0  0  0  0
   -4.5540   -0.6830    1.2200 C   0  0  0  0  0  0  0  0  0  0  0  0
   -5.4760    0.1660    1.3290 O   0  0  0  0  0  0  0  0  0  0  0  0
   -4.5290   -1.7410    2.1310 O   0  0  0  0  0  0  0  0  0  0  0  0
   -2.1630   -0.6090    0.8190 C   0  0  0  0  0  0  0  0  0  0  0  0
   -1.1320    0.0170    0.0140 N   0  0  0  0  0  0  0  0  0  0  0  0
    0.1730   -0.5460   -0.1830 C   0  0  0  0  0  0  0  0  0  0  0  0
    1.0080   -0.5440    1.0770 C   0  0  0  0  0  0  0  0  0  0  0  0
    2.3750   -1.1430    0.8370 C   0  0  0  0  0  0  0  0  0  0  0  0
    3.3060   -0.1900   -0.4570 P   0  0  0  0  0  0  0  0  0  0  0  0
    4.6200   -1.1440   -1.0340 O   0  0  0  0  0  0  0  0  0  0  0  0
    3.9170    1.2880    0.1700 O   0  0  0  0  0  0  0  0  0  0  0  0
    5.4340    1.0070    0.9540 P   0  0  0  0  0  0  0  0  0  0  0  0
    6.1930   -0.3790    0.2430 O   0  0  0  0  0  0  0  0  0  0  0  0
    6.4040    2.4350    0.7610 O   0  0  0  0  0  0  0  0  0  0  0  0
   -1.4550    1.2600   -0.6030 C   0  0  0  0  0  0  0  0  0  0  0  0
   -0.5060    2.1310   -0.8800 C   0  0  0  0  0  0  0  0  0  0  0  0
   -0.8570    3.3510   -1.4900 N   0  0  0  0  0  0  0  0  0  0  0  0
   -2.8570    1.5180   -0.9120 C   0  0  0  0  0  0  0  0  0  0  0  0
   -3.1490    2.6200   -1.4600 O   0  0  0  0  0  0  0  0  0  0  0  0
   -3.7800    0.5630   -0.5960 O   0  0  0  0  0  0  0  0  0  0  0  0
  2  1  1  6
  2  3  1  0
  2  6  1  0
  2 22  1  0
  3  4  2  0
  3  5  1  0
  6  7  1  0
  7  8  1  0
  7 17  1  0
  8  9  1  0
  9 10  1  0
 10 11  1  0
 11 12  1  0
 11 13  1  0
 13 14  1  0
 14 15  1  0
 14 16  1  0
 17 18  2  3
 17 20  1  0
 18 19  1  0
 20 21  2  0
 20 22  1  0
M  END
