
     RDKit          3D

 22 24  0  0  0  0  0  0  0  0999 V2000
    1.3980    3.0880   -2.3940 O   0  0  0  0  0  0  0  0  0  0  0  0
    1.1910    2.9740   -1.1620 C   0  0  0  0  0  0  0  0  0  0  0  0
    0.7600    4.0840   -0.5010 O   0  0  0  0  0  0  0  0  0  0  0  0
    1.4140    1.6580   -0.4550 C   0  0  0  0  0  0  0  0  0  0  0  0
    1.8360    0.6750   -1.2380 C   0  0  0  0  0  0  0  0  0  0  0  0
    2.0960    0.7360   -2.6450 N   0  0  0  0  0  0  0  0  0  0  0  0
    2.6570   -0.3060   -3.0490 N   0  0  0  0  0  0  0  0  0  0  0  0
    2.8520   -1.1800   -2.0330 O   0  0  0  0  0  0  0  0  0  0  0  0
    2.1010   -0.7400   -0.9350 C   0  0  2  0  0  0  0  0  0  0  0  0
    0.8200   -1.5030   -0.7800 C   0  0  0  0  0  0  0  0  0  0  0  0
    0.0940   -1.8560    0.2930 C   0  0  0  0  0  0  0  0  0  0  0  0
   -1.2020   -2.2640    0.0770 C   0  0  0  0  0  0  0  0  0  0  0  0
   -1.7180   -2.3330   -1.1960 C   0  0  0  0  0  0  0  0  0  0  0  0
   -0.9670   -1.9830   -2.3360 C   0  0  0  0  0  0  0  0  0  0  0  0
    0.2580   -1.5870   -2.0370 N   0  0  0  0  0  0  0  0  0  0  0  0
   -2.1510   -2.6200    1.0850 O   0  0  0  0  0  0  0  0  0  0  0  0
   -2.5600   -1.4260    2.3710 P   0  0  0  0  0  0  0  0  0  0  0  0
   -3.9930   -0.6430    1.9340 O   0  0  0  0  0  0  0  0  0  0  0  0
   -1.2150   -0.4470    2.7160 O   0  0  0  0  0  0  0  0  0  0  0  0
   -0.8910    0.5780    1.8560 C   0  0  0  0  0  0  0  0  0  0  0  0
    0.5650    0.9390    1.9290 C   0  0  0  0  0  0  0  0  0  0  0  0
    1.1550    1.7140    0.9130 N   0  0  0  0  0  0  0  0  0  0  0  0
  1  2  2  0
  2  3  1  0
  2  4  1  0
  4  5  2  0
  4 22  1  0
  5  6  1  0
  5  9  1  0
  6  7  2  0
  7  8  1  0
  9  8  1  6
  9 10  1  0
 10 11  1  0
 10 15  2  0
 11 12  2  0
 12 13  1  0
 12 16  1  0
 13 14  2  0
 14 15  1  0
 16 17  1  0
 17 18  1  0
 17 19  1  0
 19 20  1  0
 20 21  1  0
 21 22  1  0
M  END
