
     RDKit          3D

 21 23  0  0  0  0  0  0  0  0999 V2000
    1.2270    1.0190   -2.0340 O   0  0  0  0  0  0  0  0  0  0  0  0
    1.9340    0.4080   -1.2020 C   0  0  0  0  0  0  0  0  0  0  0  0
    3.3730    0.5480   -1.1830 N   0  0  0  0  0  0  0  0  0  0  0  0
    4.0770   -0.6010   -0.6500 C   0  0  1  0  0  0  0  0  0  0  0  0
    5.8770   -0.1250   -0.5040 P   0  0  0  0  0  0  0  0  0  0  0  0
    6.1170    1.5480   -0.8800 O   0  0  0  0  0  0  0  0  0  0  0  0
    6.3900   -0.3860    1.1300 O   0  0  0  0  0  0  0  0  0  0  0  0
    3.5170   -0.9750    0.6890 C   0  0  0  0  0  0  0  0  0  0  0  0
    2.0980   -1.0840    0.6310 N   0  0  0  0  0  0  0  0  0  0  0  0
    1.3380   -0.4820   -0.2000 C   0  0  0  0  0  0  0  0  0  0  0  0
   -0.0810   -0.6250   -0.2130 N   0  0  0  0  0  0  0  0  0  0  0  0
   -0.8800    0.3020    0.1190 C   0  0  0  0  0  0  0  0  0  0  0  0
   -2.3210    0.1150    0.0920 C   0  0  0  0  0  0  0  0  0  0  0  0
   -2.8200   -1.1030   -0.3050 C   0  0  0  0  0  0  0  0  0  0  0  0
   -4.1860   -1.3130   -0.3420 C   0  0  0  0  0  0  0  0  0  0  0  0
   -5.0510   -0.2970    0.0220 C   0  0  0  0  0  0  0  0  0  0  0  0
   -4.5280    0.9140    0.4170 C   0  0  0  0  0  0  0  0  0  0  0  0
   -3.1940    1.0700    0.4360 N   0  0  0  0  0  0  0  0  0  0  0  0
   -5.6070    1.7620    0.7290 O   0  0  0  0  0  0  0  0  0  0  0  0
   -6.7740    1.1390    0.2860 C   0  0  0  0  0  0  0  0  0  0  0  0
   -6.4290   -0.2140    0.0850 O   0  0  0  0  0  0  0  0  0  0  0  0
  1  2  2  0
  2  3  1  0
  2 10  1  0
  3  4  1  0
  4  5  1  1
  4  8  1  0
  5  6  1  0
  5  7  1  0
  8  9  1  0
  9 10  2  0
 10 11  1  0
 11 12  2  3
 12 13  1  0
 13 14  2  0
 13 18  1  0
 14 15  1  0
 15 16  2  0
 16 17  1  0
 16 21  1  0
 17 18  2  0
 17 19  1  0
 19 20  1  0
 20 21  1  0
M  END
