
     RDKit          3D

 21 23  0  0  0  0  0  0  0  0999 V2000
   -2.6890    2.8600    1.4680 C   0  0  0  0  0  0  0  0  0  0  0  0
   -1.9690    1.8420    0.6120 C   0  0  2  0  0  0  0  0  0  0  0  0
   -0.5000    1.9720    0.7940 C   0  0  0  0  0  0  0  0  0  0  0  0
    0.2580    0.7940    0.4900 N   0  0  0  0  0  0  0  0  0  0  0  0
    1.7010    0.8040    0.6110 C   0  0  0  0  0  0  0  0  0  0  0  0
    2.3000    1.8550    0.9870 O   0  0  0  0  0  0  0  0  0  0  0  0
    2.5190   -0.3920    0.3060 C   0  0  0  0  0  0  0  0  0  0  0  0
    3.9960   -0.0510    0.4920 C   0  0  0  0  0  0  0  0  0  0  0  0
    5.0960   -1.4820    0.1420 P   0  0  0  0  0  0  0  0  0  0  0  0
    4.2200   -2.9740    0.1140 O   0  0  0  0  0  0  0  0  0  0  0  0
    5.9540   -1.2870   -1.3410 O   0  0  0  0  0  0  0  0  0  0  0  0
   -0.3940   -0.4160    0.0650 C   0  0  0  0  0  0  0  0  0  0  0  0
   -1.8190   -0.1250   -0.2310 C   0  0  2  0  0  0  0  0  0  0  0  0
   -2.6050   -1.2980   -0.6080 C   0  0  0  0  0  0  0  0  0  0  0  0
   -3.6360   -1.8510    0.0380 N   0  0  0  0  0  0  0  0  0  0  0  0
   -4.0760   -2.9170   -0.6440 C   0  0  0  0  0  0  0  0  0  0  0  0
   -3.3060   -3.0300   -1.7360 N   0  0  0  0  0  0  0  0  0  0  0  0
   -2.4250   -2.0470   -1.7010 N   0  0  0  0  0  0  0  0  0  0  0  0
   -1.8540    0.9330   -1.3390 C   0  0  0  0  0  0  0  0  0  0  0  0
   -2.3870    2.0180   -0.6910 O   0  0  0  0  0  0  0  0  0  0  0  0
   -2.3700    0.5310    0.8930 O   0  0  0  0  0  0  0  0  0  0  0  0
  2  1  1  1
  2  3  1  0
  2 20  1  0
  2 21  1  0
  3  4  1  0
  4  5  1  0
  4 12  1  0
  5  6  2  0
  5  7  1  0
  7  8  1  0
  8  9  1  0
  9 10  1  0
  9 11  1  0
 12 13  1  0
 13 14  1  6
 13 19  1  0
 13 21  1  0
 14 15  2  0
 14 18  1  0
 15 16  1  0
 16 17  2  0
 17 18  1  0
 19 20  1  0
M  END
