
     RDKit          3D

 19 19  0  0  0  0  0  0  0  0999 V2000
   -4.7110   -1.1100    0.5720 C   0  0  0  0  0  0  0  0  0  0  0  0
   -3.5250   -1.8630    1.1180 C   0  0  0  0  0  0  0  0  0  0  0  0
   -2.4410   -1.9250    0.0820 C   0  0  0  0  0  0  0  0  0  0  0  0
   -2.0110   -0.5370   -0.2900 C   0  0  0  0  0  0  0  0  0  0  0  0
   -2.1160   -0.1190   -1.5020 N   0  0  0  0  0  0  0  0  0  0  0  0
   -1.7060    1.1960   -1.8400 C   0  0  0  0  0  0  0  0  0  0  0  0
   -2.1160    2.4840   -2.0180 C   0  0  0  0  0  0  0  0  0  0  0  0
   -0.8030    2.2250   -2.2150 C   0  0  0  0  0  0  0  0  0  0  0  0
   -1.4890    0.3390    0.6540 O   0  0  0  0  0  0  0  0  0  0  0  0
   -0.4840    1.1550    0.3110 O   0  0  0  0  0  0  0  0  0  0  0  0
    0.6990    0.4670    0.5830 C   0  0  0  0  0  0  0  0  0  0  0  0
    1.7650    1.2780    0.2410 O   0  0  0  0  0  0  0  0  0  0  0  0
    2.9920    0.7060    0.4650 C   0  0  1  0  0  0  0  0  0  0  0  0
    4.0470    1.7520    0.0960 C   0  0  0  0  0  0  0  0  0  0  0  0
    3.1970    0.3410    1.9340 C   0  0  0  0  0  0  0  0  0  0  0  0
    3.1790   -0.4720   -0.2550 O   0  0  0  0  0  0  0  0  0  0  0  0
    3.0910   -0.2700   -1.5880 N   0  0  0  0  0  0  0  0  0  0  0  0
    4.7420   -0.2160   -2.1860 Cl  0  0  0  0  0  0  0  0  0  0  0  0
    2.3440   -1.6890   -2.2770 Cl  0  0  0  0  0  0  0  0  0  0  0  0
  1  2  1  0
  2  3  1  0
  3  4  1  0
  4  5  2  3
  4  9  1  0
  5  6  1  0
  6  7  2  0
  6  8  1  0
  7  8  2  0
  9 10  1  0
 10 11  1  0
 11 12  1  0
 12 13  1  0
 13 14  1  6
 13 15  1  0
 13 16  1  0
 16 17  1  0
 17 18  1  0
 17 19  1  0
M  CHG  1   5   1
M  END
