
     RDKit          3D

 26 28  0  0  0  0  0  0  0  0999 V2000
    4.8010    2.7880    1.6940 N   0  0  0  0  0  0  0  0  0  0  0  0
    4.7640    1.8170    0.6430 C   0  0  0  0  0  0  0  0  0  0  0  0
    5.8330    1.7500   -0.2150 C   0  0  0  0  0  0  0  0  0  0  0  0
    5.7510    0.7960   -1.2120 C   0  0  0  0  0  0  0  0  0  0  0  0
    4.6770   -0.0370   -1.3510 C   0  0  0  0  0  0  0  0  0  0  0  0
    3.6210    0.0640   -0.4640 C   0  0  0  0  0  0  0  0  0  0  0  0
    2.4780   -0.8550   -0.6470 C   0  0  0  0  0  0  0  0  0  0  0  0
    2.4960   -1.7030   -1.6020 O   0  0  0  0  0  0  0  0  0  0  0  0
    1.3370   -0.8500    0.1930 N   0  0  0  0  0  0  0  0  0  0  0  0
    0.2550   -1.8000   -0.0690 C   0  0  1  0  0  0  0  0  0  0  0  0
    0.0210   -2.6460    1.1540 C   0  0  0  0  0  0  0  0  0  0  0  0
    0.7330   -2.4460    2.1730 O   0  0  0  0  0  0  0  0  0  0  0  0
   -0.9750   -3.6510    1.1720 N   0  0  0  0  0  0  0  0  0  0  0  0
   -1.1350   -4.3740    2.2980 O   0  0  0  0  0  0  0  0  0  0  0  0
   -0.9840   -1.0540   -0.3150 C   0  0  0  0  0  0  0  0  0  0  0  0
   -1.3280   -0.0010    0.5060 C   0  0  0  0  0  0  0  0  0  0  0  0
   -2.4850    0.7290    0.3110 C   0  0  0  0  0  0  0  0  0  0  0  0
   -3.3510    0.4310   -0.7210 C   0  0  0  0  0  0  0  0  0  0  0  0
   -4.5520    1.1680   -0.9460 N   0  0  0  0  0  0  0  0  0  0  0  0
   -5.2270    1.2660   -2.1030 C   0  0  0  0  0  0  0  0  0  0  0  0
   -6.3380    2.0540   -1.9600 C   0  0  0  0  0  0  0  0  0  0  0  0
   -6.3140    2.4480   -0.6190 C   0  0  0  0  0  0  0  0  0  0  0  0
   -5.2200    1.8810   -0.0750 N   0  0  0  0  0  0  0  0  0  0  0  0
   -2.9940   -0.6250   -1.5340 C   0  0  0  0  0  0  0  0  0  0  0  0
   -1.8420   -1.3590   -1.3480 C   0  0  0  0  0  0  0  0  0  0  0  0
    3.6540    0.9830    0.5310 C   0  0  0  0  0  0  0  0  0  0  0  0
  1  2  1  0
  2  3  2  0
  2 26  1  0
  3  4  1  0
  4  5  2  0
  5  6  1  0
  6  7  1  0
  6 26  2  0
  7  8  2  0
  7  9  1  0
 10  9  1  1
 10 11  1  0
 10 15  1  0
 11 12  2  0
 11 13  1  0
 13 14  1  0
 15 16  2  0
 15 25  1  0
 16 17  1  0
 17 18  2  0
 18 19  1  0
 18 24  1  0
 19 20  1  0
 19 23  1  0
 20 21  2  0
 21 22  1  0
 22 23  2  0
 24 25  2  0
M  END
