
     RDKit          3D

 21 21  0  0  0  0  0  0  0  0999 V2000
   -3.5670    3.4210    1.1530 C   0  0  0  0  0  0  0  0  0  0  0  0
   -2.3880    2.8800    1.6730 O   0  0  0  0  0  0  0  0  0  0  0  0
   -1.8120    1.7660    1.0360 C   0  0  0  0  0  0  0  0  0  0  0  0
   -2.4550    0.7030    0.6530 C   0  0  0  0  0  0  0  0  0  0  0  0
   -1.4670   -0.2190    0.0260 C   0  0  0  0  0  0  0  0  0  0  0  0
   -1.7910   -1.4400   -0.4890 O   0  0  0  0  0  0  0  0  0  0  0  0
   -0.9670   -2.3590   -1.0760 C   0  0  0  0  0  0  0  0  0  0  0  0
   -1.9700   -3.5260   -1.4290 C   0  0  0  0  0  0  0  0  0  0  0  0
   -2.4920   -3.9080   -0.2190 O   0  0  0  0  0  0  0  0  0  0  0  0
   -3.3530   -4.8710   -0.2850 O   0  0  0  0  0  0  0  0  0  0  0  0
   -0.2880    0.2920    0.0430 N   0  0  0  0  0  0  0  0  0  0  0  0
    0.9380   -0.1970   -0.4240 C   0  0  0  0  0  0  0  0  0  0  0  0
    1.2180   -1.2250   -0.9800 O   0  0  0  0  0  0  0  0  0  0  0  0
    2.1350    0.6560   -0.2280 C   0  0  0  0  0  0  0  0  0  0  0  0
    2.0240    1.7470    0.3270 O   0  0  0  0  0  0  0  0  0  0  0  0
    3.4950    0.2100   -0.6970 C   0  0  1  0  0  0  0  0  0  0  0  0
    3.3880    0.0870   -2.4760 Cl  0  0  0  0  0  0  0  0  0  0  0  0
    4.4680    1.2020   -0.3740 N   0  0  0  0  0  0  0  0  0  0  0  0
    4.6100    1.4220    1.0480 C   0  0  0  0  0  0  0  0  0  0  0  0
    5.9800    0.8790   -1.1350 Cl  0  0  0  0  0  0  0  0  0  0  0  0
   -0.3890    1.6240    0.7000 C   0  0  0  0  0  0  0  0  0  0  0  0
  1  2  1  0
  2  3  1  0
  3  4  2  0
  3 21  1  0
  4  5  1  0
  5  6  1  0
  5 11  2  0
  6  7  1  0
  7  8  1  0
  8  9  1  0
  9 10  1  0
 11 12  1  0
 11 21  1  0
 12 13  2  0
 12 14  1  0
 14 15  2  0
 14 16  1  0
 16 17  1  6
 16 18  1  0
 18 19  1  0
 18 20  1  0
M  CHG  1  11   1
M  END
