
     RDKit          3D

 21 21  0  0  0  0  0  0  0  0999 V2000
    3.1220    1.3310    1.9580 C   0  0  0  0  0  0  0  0  0  0  0  0
    1.7100    0.8650    1.7810 C   0  0  0  0  0  0  0  0  0  0  0  0
    1.5640    0.0660    0.5410 C   0  0  0  0  0  0  0  0  0  0  0  0
    2.6320   -0.1270   -0.2100 C   0  0  0  0  0  0  0  0  0  0  0  0
    2.5320   -0.9270   -1.4700 C   0  0  1  0  0  0  0  0  0  0  0  0
    2.8890   -0.1040   -2.5150 O   0  0  0  0  0  0  0  0  0  0  0  0
    3.4370   -1.9850   -1.3930 O   0  0  0  0  0  0  0  0  0  0  0  0
    0.3630   -0.4680    0.1660 O   0  0  0  0  0  0  0  0  0  0  0  0
   -0.7170    0.1980   -0.2970 N   0  0  2  0  0  0  0  0  0  0  0  0
   -1.9390   -0.4430    0.0950 C   0  0  1  0  0  0  0  0  0  0  0  0
   -2.2380   -0.1730    1.8290 Cl  0  0  0  0  0  0  0  0  0  0  0  0
   -3.3260    0.0160   -0.9000 Cl  0  0  0  0  0  0  0  0  0  0  0  0
   -1.7670   -1.9550   -0.0550 C   0  0  1  0  0  0  0  0  0  0  0  0
   -3.0630   -2.5850    0.4740 C   0  0  0  0  0  0  0  0  0  0  0  0
   -1.6500   -2.3670   -1.4950 C   0  0  0  0  0  0  0  0  0  0  0  0
   -0.7460   -2.4450    0.7280 O   0  0  0  0  0  0  0  0  0  0  0  0
   -0.6570    0.3420   -1.6560 O   0  0  0  0  0  0  0  0  0  0  0  0
   -0.6370    1.6540   -1.5860 O   0  0  0  0  0  0  0  0  0  0  0  0
   -0.6320    1.5480   -0.2590 N   0  0  0  0  0  0  0  0  0  0  0  0
   -1.5410    2.3210    0.4880 C   0  0  0  0  0  0  0  0  0  0  0  0
   -1.2660    3.8030    0.2020 C   0  0  0  0  0  0  0  0  0  0  0  0
  1  2  1  0
  2  3  1  0
  3  4  2  3
  3  8  1  0
  4  5  1  0
  5  6  1  6
  5  7  1  0
  9  8  1  1
  9 10  1  0
  9 17  1  0
  9 19  1  0
 10 11  1  1
 10 12  1  0
 10 13  1  0
 13 14  1  1
 13 15  1  0
 13 16  1  0
 17 18  1  0
 18 19  1  0
 19 20  1  0
 20 21  1  0
M  CHG  1   9   1
M  END
