
     RDKit          3D

 20 21  0  0  0  0  0  0  0  0999 V2000
    4.7290   -1.0140    0.6790 C   0  0  0  0  0  0  0  0  0  0  0  0
    3.3520   -1.3640    1.2080 C   0  0  0  0  0  0  0  0  0  0  0  0
    2.4760   -0.2590    1.1590 O   0  0  0  0  0  0  0  0  0  0  0  0
    2.1430    0.3900   -0.0220 C   0  0  0  0  0  0  0  0  0  0  0  0
    2.4850    1.5740   -0.4900 C   0  0  0  0  0  0  0  0  0  0  0  0
    3.3320    2.7100   -0.0180 C   0  0  0  0  0  0  0  0  0  0  0  0
    1.7280    1.3310   -1.6150 O   0  0  0  0  0  0  0  0  0  0  0  0
    1.3220    0.0570   -1.1800 C   0  0  1  0  0  0  0  0  0  0  0  0
    1.7860   -0.9330   -2.0170 O   0  0  0  0  0  0  0  0  0  0  0  0
   -0.0670    0.0030   -0.9300 O   0  0  0  0  0  0  0  0  0  0  0  0
   -0.4140    1.2290   -0.4950 N   0  0  0  0  0  0  0  0  0  0  0  0
   -0.3740    2.3980   -1.7810 Cl  0  0  0  0  0  0  0  0  0  0  0  0
   -1.5390    1.2700    0.2410 O   0  0  0  0  0  0  0  0  0  0  0  0
   -2.2530    0.2260    0.7420 C   0  0  0  0  0  0  0  0  0  0  0  0
   -2.1160   -0.3990    1.9010 C   0  0  0  0  0  0  0  0  0  0  0  0
   -3.1050   -1.4210    1.9480 N   0  0  0  0  0  0  0  0  0  0  0  0
   -3.2970   -1.7260    0.6520 O   0  0  0  0  0  0  0  0  0  0  0  0
   -3.3840   -0.4650    0.0670 C   0  0  1  0  0  0  0  0  0  0  0  0
   -4.7090    0.1450    0.3710 C   0  0  0  0  0  0  0  0  0  0  0  0
   -3.1570   -0.4830   -1.4120 C   0  0  0  0  0  0  0  0  0  0  0  0
  1  2  1  0
  2  3  1  0
  3  4  1  0
  4  5  2  0
  4  8  1  0
  5  6  1  0
  5  7  1  0
  7  8  1  0
  8  9  1  6
  8 10  1  0
 10 11  1  0
 11 12  1  0
 11 13  1  0
 13 14  1  0
 14 15  2  0
 14 18  1  0
 15 16  1  0
 16 17  1  0
 17 18  1  0
 18 19  1  6
 18 20  1  0
M  CHG  1  16   1
M  END
