
     RDKit          3D

 21 22  0  0  0  0  0  0  0  0999 V2000
   -1.5530    3.0250    0.1180 C   0  0  0  0  0  0  0  0  0  0  0  0
   -0.4130    2.1170   -0.3310 C   0  0  0  0  0  0  0  0  0  0  0  0
   -0.8260    0.6960   -0.4420 C   0  0  0  0  0  0  0  0  0  0  0  0
   -1.9020   -0.2220   -0.2790 C   0  0  0  0  0  0  0  0  0  0  0  0
   -3.3110   -0.3470    0.1120 C   0  0  0  0  0  0  0  0  0  0  0  0
   -0.6130   -0.7380   -0.7470 C   0  0  1  0  0  0  0  0  0  0  0  0
   -0.4800   -1.1030   -2.2290 C   0  0  0  0  0  0  0  0  0  0  0  0
    0.2700   -1.5400    0.1400 C   0  0  2  0  0  0  0  0  0  0  0  0
    1.6230   -1.0790    0.1590 N   0  0  0  0  0  0  0  0  0  0  0  0
    2.5170   -1.8490   -0.2950 O   0  0  0  0  0  0  0  0  0  0  0  0
    2.0250    0.1350    0.6260 O   0  0  0  0  0  0  0  0  0  0  0  0
    2.9650    0.9250   -0.0790 C   0  0  0  0  0  0  0  0  0  0  0  0
    3.2770    2.1890    0.5990 C   0  0  0  0  0  0  0  0  0  0  0  0
    2.8050    2.5470    1.6620 O   0  0  0  0  0  0  0  0  0  0  0  0
    4.4180    3.2770   -0.1760 Cl  0  0  0  0  0  0  0  0  0  0  0  0
    0.1910   -2.9260   -0.0260 O   0  0  0  0  0  0  0  0  0  0  0  0
    0.2160   -3.0460    1.3580 C   0  0  2  0  0  0  0  0  0  0  0  0
    1.8420   -3.2610    2.0690 Cl  0  0  0  0  0  0  0  0  0  0  0  0
   -0.7190   -4.0320    1.8260 N   0  0  0  0  0  0  0  0  0  0  0  0
   -0.9130   -4.1520    3.0030 O   0  0  0  0  0  0  0  0  0  0  0  0
   -0.2460   -1.7370    1.4390 O   0  0  0  0  0  0  0  0  0  0  0  0
  1  2  1  0
  2  3  1  0
  3  4  2  0
  3  6  1  0
  4  5  1  0
  4  6  1  0
  6  7  1  6
  6  8  1  0
  8  9  1  1
  8 16  1  0
  8 21  1  0
  9 10  2  0
  9 11  1  0
 11 12  1  0
 12 13  1  0
 13 14  2  0
 13 15  1  0
 16 17  1  0
 17 18  1  1
 17 19  1  0
 17 21  1  0
 19 20  2  0
M  CHG  1   9   1
M  END
