
     RDKit          3D

 22 23  0  0  0  0  0  0  0  0999 V2000
   -6.5150    0.4410    0.4940 C   0  0  0  0  0  0  0  0  0  0  0  0
   -5.9920   -0.5690    1.3330 O   0  0  0  0  0  0  0  0  0  0  0  0
   -4.7090   -0.7770    0.8800 O   0  0  0  0  0  0  0  0  0  0  0  0
   -3.8930    0.3910    1.0330 C   0  0  0  0  0  0  0  0  0  0  0  0
   -4.4230    1.3240    1.5540 O   0  0  0  0  0  0  0  0  0  0  0  0
   -2.5090    0.3280    0.5690 C   0  0  0  0  0  0  0  0  0  0  0  0
   -1.7170    1.4910    0.8370 C   0  0  0  0  0  0  0  0  0  0  0  0
   -0.3840    1.5070    0.5190 C   0  0  0  0  0  0  0  0  0  0  0  0
    0.1490    0.4050   -0.0450 C   0  0  0  0  0  0  0  0  0  0  0  0
    1.6030    0.2700   -0.3800 C   0  0  0  0  0  0  0  0  0  0  0  0
    2.1940   -0.5720    0.8440 C   0  0  0  0  0  0  0  0  0  0  0  0
    3.3630   -0.9980    0.3970 O   0  0  0  0  0  0  0  0  0  0  0  0
    4.4900   -0.5360    0.1970 C   0  0  0  0  0  0  0  0  0  0  0  0
    4.8130    0.9000   -0.2570 C   0  0  0  0  0  0  0  0  0  0  0  0
    6.1760    0.7700   -0.3890 O   0  0  0  0  0  0  0  0  0  0  0  0
    6.9440    1.5180    0.3770 O   0  0  0  0  0  0  0  0  0  0  0  0
   -0.6010   -0.7350   -0.3020 C   0  0  0  0  0  0  0  0  0  0  0  0
   -0.3400   -1.8860   -0.8830 N   0  0  0  0  0  0  0  0  0  0  0  0
   -1.3380   -2.6760   -0.9660 N   0  0  0  0  0  0  0  0  0  0  0  0
   -2.3980   -1.9430   -0.3840 C   0  0  0  0  0  0  0  0  0  0  0  0
   -3.5320   -2.4250   -0.3110 O   0  0  0  0  0  0  0  0  0  0  0  0
   -1.9390   -0.7420    0.0200 N   0  0  0  0  0  0  0  0  0  0  0  0
  1  2  1  0
  2  3  1  0
  3  4  1  0
  4  5  2  0
  4  6  1  0
  6  7  2  0
  6 22  1  0
  7  8  1  0
  8  9  2  0
  9 10  1  0
  9 17  1  0
 10 11  1  0
 11 12  1  0
 12 13  1  0
 13 14  1  0
 14 15  1  0
 15 16  1  0
 17 18  2  0
 17 22  1  0
 18 19  1  0
 19 20  1  0
 20 21  2  0
 20 22  1  0
M  END
