
     RDKit          3D

 21 21  0  0  0  0  0  0  0  0999 V2000
    3.4680   -0.0760    3.0500 O   0  0  0  0  0  0  0  0  0  0  0  0
    4.4700   -0.4020    2.4370 C   0  0  0  0  0  0  0  0  0  0  0  0
    4.6690   -0.5150    1.0290 C   0  0  0  0  0  0  0  0  0  0  0  0
    3.8140   -0.2930    0.0630 C   0  0  0  0  0  0  0  0  0  0  0  0
    4.2570   -0.4790   -1.3420 C   0  0  0  0  0  0  0  0  0  0  0  0
    5.4360   -0.8440   -1.5620 O   0  0  0  0  0  0  0  0  0  0  0  0
    3.3540   -0.2450   -2.3960 N   0  0  0  0  0  0  0  0  0  0  0  0
    2.0220    0.1660   -2.1820 C   0  0  0  0  0  0  0  0  0  0  0  0
    1.2420    0.3650   -3.1570 O   0  0  0  0  0  0  0  0  0  0  0  0
    1.5650    0.3530   -0.8650 N   0  0  0  0  0  0  0  0  0  0  0  0
    0.1830    0.7790   -0.6600 C   0  0  0  0  0  0  0  0  0  0  0  0
   -0.6730   -0.4390   -0.5440 C   0  0  0  0  0  0  0  0  0  0  0  0
   -2.1060   -0.1180   -0.3320 C   0  0  0  0  0  0  0  0  0  0  0  0
   -2.4350    1.0940   -0.2760 O   0  0  0  0  0  0  0  0  0  0  0  0
   -3.1130   -1.0840   -0.1920 N   0  0  0  0  0  0  0  0  0  0  0  0
   -4.4870   -0.6840    0.0110 C   0  0  0  0  0  0  0  0  0  0  0  0
   -4.7150    0.3230    1.5460 P   0  0  0  0  0  0  0  0  0  0  0  0
   -6.4190    0.2260    1.9610 O   0  0  0  0  0  0  0  0  0  0  0  0
   -4.3540    1.9910    1.3060 O   0  0  0  0  0  0  0  0  0  0  0  0
    2.4410    0.1300    0.2390 C   0  0  0  0  0  0  0  0  0  0  0  0
    1.9310    0.3260    1.3680 O   0  0  0  0  0  0  0  0  0  0  0  0
  1  2  2  0
  2  3  1  0
  3  4  2  3
  4  5  1  0
  4 20  1  0
  5  6  2  0
  5  7  1  0
  7  8  1  0
  8  9  2  0
  8 10  1  0
 10 11  1  0
 10 20  1  0
 11 12  1  0
 12 13  1  0
 13 14  2  0
 13 15  1  0
 15 16  1  0
 16 17  1  0
 17 18  1  0
 17 19  1  0
 20 21  2  0
M  END
