
     RDKit          3D

 22 23  0  0  0  0  0  0  0  0999 V2000
   -0.1530    0.2380   -1.2150 O   0  0  0  0  0  0  0  0  0  0  0  0
   -0.2910    0.0490    0.0060 C   0  0  0  0  0  0  0  0  0  0  0  0
   -1.6790   -0.1910    0.5460 C   0  0  0  0  0  0  0  0  0  0  0  0
   -2.6690   -0.1470   -0.5940 C   0  0  0  0  0  0  0  0  0  0  0  0
   -4.0110   -0.3650   -0.1750 N   0  0  0  0  0  0  0  0  0  0  0  0
   -4.8240    0.7710    0.2080 C   0  0  0  0  0  0  0  0  0  0  0  0
   -6.2440    0.2930    0.4150 C   0  0  0  0  0  0  0  0  0  0  0  0
   -6.2620   -0.8210    1.2780 O   0  0  0  0  0  0  0  0  0  0  0  0
   -5.7110   -1.8510    0.6290 O   0  0  0  0  0  0  0  0  0  0  0  0
   -4.5650   -1.6720   -0.1270 C   0  0  0  0  0  0  0  0  0  0  0  0
   -4.0260   -2.6430   -0.7580 O   0  0  0  0  0  0  0  0  0  0  0  0
    0.8350    0.0640    0.8430 N   0  0  0  0  0  0  0  0  0  0  0  0
    2.1800    0.2770    0.4670 C   0  0  0  0  0  0  0  0  0  0  0  0
    2.6590    0.5110   -0.7890 C   0  0  0  0  0  0  0  0  0  0  0  0
    3.9840    0.7140   -1.1130 C   0  0  0  0  0  0  0  0  0  0  0  0
    4.9100    0.6790   -0.0940 C   0  0  0  0  0  0  0  0  0  0  0  0
    6.2590    0.8730   -0.3380 O   0  0  0  0  0  0  0  0  0  0  0  0
    7.1080   -0.1840   -0.6310 C   0  0  0  0  0  0  0  0  0  0  0  0
    6.6150   -1.3400   -0.6700 O   0  0  0  0  0  0  0  0  0  0  0  0
    8.4550   -0.0500   -0.8820 O   0  0  0  0  0  0  0  0  0  0  0  0
    4.4450    0.4420    1.1920 C   0  0  0  0  0  0  0  0  0  0  0  0
    3.1440    0.2520    1.4440 N   0  0  0  0  0  0  0  0  0  0  0  0
  1  2  2  0
  2  3  1  0
  2 12  1  0
  3  4  1  0
  4  5  1  0
  5  6  1  0
  5 10  1  0
  6  7  1  0
  7  8  1  0
  8  9  1  0
  9 10  1  0
 10 11  2  0
 12 13  1  0
 13 14  2  0
 13 22  1  0
 14 15  1  0
 15 16  2  0
 16 17  1  0
 16 21  1  0
 17 18  1  0
 18 19  2  0
 18 20  1  0
 21 22  2  0
M  END
