
     RDKit          3D

 22 23  0  0  0  0  0  0  0  0999 V2000
    6.5890    1.3600   -0.8830 N   0  0  0  0  0  0  0  0  0  0  0  0
    6.9010    0.2830    0.0090 C   0  0  0  0  0  0  0  0  0  0  0  0
    5.6780   -0.4220    0.4700 C   0  0  0  0  0  0  0  0  0  0  0  0
    5.7450   -1.4020    1.2580 O   0  0  0  0  0  0  0  0  0  0  0  0
    4.3980   -0.0650    0.0790 O   0  0  0  0  0  0  0  0  0  0  0  0
    3.3130   -0.6910    0.4890 O   0  0  0  0  0  0  0  0  0  0  0  0
    2.2430   -0.6300   -0.3580 C   0  0  1  0  0  0  0  0  0  0  0  0
    1.8430   -2.0420   -0.7360 C   0  0  0  0  0  0  0  0  0  0  0  0
    0.6670   -2.3340   -0.0650 O   0  0  0  0  0  0  0  0  0  0  0  0
    0.0280   -1.1630    0.1480 N   0  0  0  0  0  0  0  0  0  0  0  0
   -1.3980   -0.9310    0.1560 C   0  0  0  0  0  0  0  0  0  0  0  0
   -1.8850    0.2210    0.3700 N   0  0  0  0  0  0  0  0  0  0  0  0
   -3.2910    0.3950    0.3660 C   0  0  0  0  0  0  0  0  0  0  0  0
   -3.8310    1.5500   -0.1870 C   0  0  0  0  0  0  0  0  0  0  0  0
   -5.1980    1.6700   -0.1650 C   0  0  0  0  0  0  0  0  0  0  0  0
   -5.9810    0.6860    0.3810 C   0  0  0  0  0  0  0  0  0  0  0  0
   -7.3690    0.8070    0.4040 O   0  0  0  0  0  0  0  0  0  0  0  0
   -7.9580    1.7070    1.2000 O   0  0  0  0  0  0  0  0  0  0  0  0
   -5.4330   -0.4590    0.9290 C   0  0  0  0  0  0  0  0  0  0  0  0
   -4.0630   -0.5910    0.9130 C   0  0  0  0  0  0  0  0  0  0  0  0
    1.0350   -0.1730    0.3690 C   0  0  0  0  0  0  0  0  0  0  0  0
    0.8310    0.8510    1.0630 O   0  0  0  0  0  0  0  0  0  0  0  0
  1  2  1  0
  2  3  1  0
  3  4  2  0
  3  5  1  0
  5  6  1  0
  7  6  1  1
  7  8  1  0
  7 21  1  0
  8  9  1  0
  9 10  1  0
 10 11  1  0
 10 21  1  0
 11 12  2  3
 12 13  1  0
 13 14  2  0
 13 20  1  0
 14 15  1  0
 15 16  2  0
 16 17  1  0
 16 19  1  0
 17 18  1  0
 19 20  2  0
 21 22  2  0
M  END
