
     RDKit          3D

 22 22  0  0  0  0  0  0  0  0999 V2000
    4.2140   -2.3730    0.4600 C   0  0  0  0  0  0  0  0  0  0  0  0
    4.1370   -0.9840    0.2510 C   0  0  0  0  0  0  0  0  0  0  0  0
    2.7940   -0.6110    0.1630 N   0  0  0  0  0  0  0  0  0  0  0  0
    2.1440    0.6080   -0.0340 C   0  0  0  0  0  0  0  0  0  0  0  0
    2.8340    1.6370   -0.1710 O   0  0  0  0  0  0  0  0  0  0  0  0
    0.7400    0.7990   -0.0950 N   0  0  0  0  0  0  0  0  0  0  0  0
    0.3240    2.2130   -0.3170 C   0  0  0  0  0  0  0  0  0  0  0  0
   -0.2430   -0.1940    0.0290 C   0  0  0  0  0  0  0  0  0  0  0  0
   -0.0790   -1.4160    0.2120 O   0  0  0  0  0  0  0  0  0  0  0  0
   -1.6770    0.2690   -0.0720 C   0  0  0  0  0  0  0  0  0  0  0  0
   -2.6170   -0.9130   -0.0260 C   0  0  0  0  0  0  0  0  0  0  0  0
   -3.9840   -0.4820   -0.1200 N   0  0  0  0  0  0  0  0  0  0  0  0
   -4.8050   -0.1510    1.0160 C   0  0  0  0  0  0  0  0  0  0  0  0
   -6.1790    0.2300    0.5470 C   0  0  0  0  0  0  0  0  0  0  0  0
   -6.1290    1.0990   -0.5280 O   0  0  0  0  0  0  0  0  0  0  0  0
   -5.7460    0.3760   -1.6020 O   0  0  0  0  0  0  0  0  0  0  0  0
   -4.5720   -0.3740   -1.4160 C   0  0  0  0  0  0  0  0  0  0  0  0
   -4.0390   -0.9510   -2.4020 O   0  0  0  0  0  0  0  0  0  0  0  0
    5.4210   -0.3970    0.1940 C   0  0  0  0  0  0  0  0  0  0  0  0
    6.4660   -1.4700    0.3780 O   0  0  0  0  0  0  0  0  0  0  0  0
    5.9560    0.7490    0.0360 C   0  0  0  0  0  0  0  0  0  0  0  0
    5.3990    1.9550   -0.1570 O   0  0  0  0  0  0  0  0  0  0  0  0
  1  2  2  0
  2  3  1  0
  2 19  1  0
  3  4  1  0
  4  5  2  0
  4  6  1  0
  6  7  1  0
  6  8  1  0
  8  9  2  0
  8 10  1  0
 10 11  1  0
 11 12  1  0
 12 13  1  0
 12 17  1  0
 13 14  1  0
 14 15  1  0
 15 16  1  0
 16 17  1  0
 17 18  2  0
 19 20  1  0
 19 21  2  3
 21 22  1  0
M  END
