
     RDKit          3D

 16 16  0  0  0  0  0  0  0  0999 V2000
   -4.2570    0.5550   -1.1580 O   0  0  0  0  0  0  0  0  0  0  0  0
   -3.4630    0.5990   -0.0270 C   0  0  0  0  0  0  0  0  0  0  0  0
   -2.2530   -0.2940   -0.1200 C   0  0  1  0  0  0  0  0  0  0  0  0
   -1.4550    0.0840   -1.2010 O   0  0  0  0  0  0  0  0  0  0  0  0
   -0.1940   -0.4900   -1.1360 C   0  0  2  0  0  0  0  0  0  0  0  0
   -0.3220   -1.8400   -0.8250 O   0  0  0  0  0  0  0  0  0  0  0  0
    0.6150    0.2660   -0.1020 C   0  0  2  0  0  0  0  0  0  0  0  0
    1.6120   -0.4870    0.4330 O   0  0  0  0  0  0  0  0  0  0  0  0
    3.1460   -0.0250    0.2320 P   0  0  0  0  0  0  0  0  0  0  0  0
    3.5550    1.6130    0.2420 O   0  0  0  0  0  0  0  0  0  0  0  0
    4.3320   -1.0990   -0.1680 O   0  0  0  0  0  0  0  0  0  0  0  0
    3.4400   -0.0880    1.7280 O   0  0  0  0  0  0  0  0  0  0  0  0
   -0.2920    0.7440    0.9990 C   0  0  1  0  0  0  0  0  0  0  0  0
   -0.7660    2.0150    0.6740 O   0  0  0  0  0  0  0  0  0  0  0  0
   -1.4950   -0.1470    1.1940 C   0  0  2  0  0  0  0  0  0  0  0  0
   -1.1340   -1.3990    1.7110 O   0  0  0  0  0  0  0  0  0  0  0  0
  1  2  1  0
  3  2  1  1
  3  4  1  0
  3 15  1  0
  4  5  1  0
  5  6  1  1
  5  7  1  0
  7  8  1  1
  7 13  1  0
  8  9  1  0
  9 10  1  0
  9 11  1  0
  9 12  1  0
 13 14  1  6
 13 15  1  0
 15 16  1  6
M  END
