
     RDKit          3D

 22 23  0  0  0  0  0  0  0  0999 V2000
    5.9250    1.1400   -0.5810 O   0  0  0  0  0  0  0  0  0  0  0  0
    6.2270   -0.0370   -0.2640 C   0  0  0  0  0  0  0  0  0  0  0  0
    7.4300   -0.6120   -0.7180 O   0  0  0  0  0  0  0  0  0  0  0  0
    8.1980    0.1590   -1.4840 O   0  0  0  0  0  0  0  0  0  0  0  0
    5.3540   -0.7490    0.5370 O   0  0  0  0  0  0  0  0  0  0  0  0
    4.1420   -0.2420    1.0240 C   0  0  0  0  0  0  0  0  0  0  0  0
    3.1590    0.1600   -0.0240 C   0  0  0  0  0  0  0  0  0  0  0  0
    2.7800   -0.8660   -0.8590 O   0  0  0  0  0  0  0  0  0  0  0  0
    2.1830   -1.9380   -0.2490 C   0  0  0  0  0  0  0  0  0  0  0  0
    0.9110   -1.5630    0.4860 C   0  0  0  0  0  0  0  0  0  0  0  0
   -0.0730   -0.9990   -0.4000 N   0  0  0  0  0  0  0  0  0  0  0  0
   -1.3310   -0.5850    0.0980 C   0  0  0  0  0  0  0  0  0  0  0  0
   -1.6080   -0.7300    1.4540 C   0  0  0  0  0  0  0  0  0  0  0  0
   -2.8270   -0.3360    1.9630 C   0  0  0  0  0  0  0  0  0  0  0  0
   -3.7460    0.1930    1.1310 N   0  0  0  0  0  0  0  0  0  0  0  0
   -3.4750    0.3330   -0.1890 C   0  0  0  0  0  0  0  0  0  0  0  0
   -4.5440    0.9250   -1.0380 C   0  0  1  0  0  0  0  0  0  0  0  0
   -5.7600    0.3210   -0.6940 O   0  0  0  0  0  0  0  0  0  0  0  0
   -6.2750    1.0770    0.3570 C   0  0  0  0  0  0  0  0  0  0  0  0
   -5.5160    2.3830    0.3450 C   0  0  0  0  0  0  0  0  0  0  0  0
   -4.7260    2.2820   -0.7890 O   0  0  0  0  0  0  0  0  0  0  0  0
   -2.2870   -0.0520   -0.6850 N   0  0  0  0  0  0  0  0  0  0  0  0
  1  2  2  0
  2  3  1  0
  2  5  1  0
  3  4  1  0
  5  6  1  0
  6  7  1  0
  7  8  1  0
  8  9  1  0
  9 10  1  0
 10 11  1  0
 11 12  1  0
 12 13  2  0
 12 22  1  0
 13 14  1  0
 14 15  2  0
 15 16  1  0
 17 16  1  1
 16 22  2  0
 17 18  1  0
 17 21  1  0
 18 19  1  0
 19 20  1  0
 20 21  1  0
M  END
