
     RDKit          3D

 35 38  0  0  0  0  0  0  0  0999 V2000
   10.7150    0.3540    0.2970 C   0  0  0  0  0  0  0  0  0  0  0  0
   10.0510   -0.9510    0.6940 C   0  0  0  0  0  0  0  0  0  0  0  0
    8.7100   -0.7260    1.2070 N   0  0  0  0  0  0  0  0  0  0  0  0
    7.7170   -0.1100    0.4050 C   0  0  0  0  0  0  0  0  0  0  0  0
    8.0140    0.2360   -0.7610 O   0  0  0  0  0  0  0  0  0  0  0  0
    6.3480    0.1390    0.8910 C   0  0  0  0  0  0  0  0  0  0  0  0
    5.5450    0.8680   -0.1860 C   0  0  0  0  0  0  0  0  0  0  0  0
    4.2460    1.1210    0.2690 N   0  0  0  0  0  0  0  0  0  0  0  0
    3.3420    0.0150    0.4660 C   0  0  1  0  0  0  0  0  0  0  0  0
    2.1800    0.6160    1.1770 C   0  0  0  0  0  0  0  0  0  0  0  0
    0.9400    0.6240    0.7820 C   0  0  0  0  0  0  0  0  0  0  0  0
   -0.3490    1.1510    1.3140 C   0  0  0  0  0  0  0  0  0  0  0  0
   -1.1460    1.3520    0.0350 C   0  0  2  0  0  0  0  0  0  0  0  0
   -2.5590    1.4690    0.4410 C   0  0  0  0  0  0  0  0  0  0  0  0
   -2.9460    2.6240    0.7900 O   0  0  0  0  0  0  0  0  0  0  0  0
   -3.5030    0.4350    0.4800 N   0  0  0  0  0  0  0  0  0  0  0  0
   -4.8440    0.6410    0.9190 C   0  0  0  0  0  0  0  0  0  0  0  0
   -5.1990    1.5480    1.9050 C   0  0  0  0  0  0  0  0  0  0  0  0
   -6.5040    1.7680    2.2990 C   0  0  0  0  0  0  0  0  0  0  0  0
   -7.5000    1.0660    1.6970 C   0  0  0  0  0  0  0  0  0  0  0  0
   -7.1980    0.1560    0.7140 C   0  0  0  0  0  0  0  0  0  0  0  0
   -8.2790   -0.5910    0.0320 C   0  0  1  0  0  0  0  0  0  0  0  0
   -9.5490    0.2700    0.1690 C   0  0  0  0  0  0  0  0  0  0  0  0
   -8.0250   -0.7400   -1.4380 C   0  0  0  0  0  0  0  0  0  0  0  0
   -8.4830   -1.9310    0.6750 C   0  0  0  0  0  0  0  0  0  0  0  0
   -5.8710   -0.0550    0.3280 C   0  0  0  0  0  0  0  0  0  0  0  0
   -0.8100    0.0860   -0.7050 C   0  0  0  0  0  0  0  0  0  0  0  0
    0.6330   -0.0310   -0.4450 N   0  0  0  0  0  0  0  0  0  0  0  0
    1.6330   -0.6710   -1.2160 C   0  0  0  0  0  0  0  0  0  0  0  0
    2.8970   -0.6370   -0.7580 C   0  0  0  0  0  0  0  0  0  0  0  0
    3.8320   -1.4030   -1.6110 C   0  0  0  0  0  0  0  0  0  0  0  0
    4.7750   -2.0370   -1.0750 O   0  0  0  0  0  0  0  0  0  0  0  0
    3.6450   -1.4170   -3.0800 C   0  0  0  0  0  0  0  0  0  0  0  0
    2.3750   -0.9840   -3.4550 O   0  0  0  0  0  0  0  0  0  0  0  0
    1.3980   -1.3610   -2.4990 C   0  0  0  0  0  0  0  0  0  0  0  0
  1  2  1  0
  2  3  1  0
  3  4  1  0
  4  5  2  0
  4  6  1  0
  6  7  1  0
  7  8  1  0
  9  8  1  6
  9 10  1  0
  9 30  1  0
 10 11  2  0
 11 12  1  0
 11 28  1  0
 12 13  1  0
 13 14  1  1
 13 27  1  0
 14 15  2  0
 14 16  1  0
 16 17  1  0
 17 18  2  0
 17 26  1  0
 18 19  1  0
 19 20  2  0
 20 21  1  0
 21 22  1  0
 21 26  2  0
 22 23  1  6
 22 24  1  0
 22 25  1  0
 27 28  1  0
 28 29  1  0
 29 30  2  0
 29 35  1  0
 30 31  1  0
 31 32  2  0
 31 33  1  0
 33 34  1  0
 34 35  1  0
M  END
