
     RDKit          3D

 35 38  0  0  0  0  0  0  0  0999 V2000
   -8.3690    0.5380    1.4270 C   0  0  0  0  0  0  0  0  0  0  0  0
   -8.1290   -0.0900    0.0940 C   0  0  0  0  0  0  0  0  0  0  0  0
   -6.9060   -0.9210    0.0160 C   0  0  0  0  0  0  0  0  0  0  0  0
   -5.6240   -0.3410   -0.1070 C   0  0  0  0  0  0  0  0  0  0  0  0
   -5.5360    1.0790   -0.1550 C   0  0  0  0  0  0  0  0  0  0  0  0
   -4.7140    1.9750   -0.5460 C   0  0  0  0  0  0  0  0  0  0  0  0
   -5.0850    3.4450   -0.3700 C   0  0  0  0  0  0  0  0  0  0  0  0
   -4.1370    4.0630    0.4390 O   0  0  0  0  0  0  0  0  0  0  0  0
   -4.5630   -1.2150   -0.1570 C   0  0  0  0  0  0  0  0  0  0  0  0
   -3.2670   -0.7410   -0.2250 C   0  0  0  0  0  0  0  0  0  0  0  0
   -2.1490   -1.5780   -0.2450 C   0  0  0  0  0  0  0  0  0  0  0  0
   -0.8370   -1.0360   -0.3110 N   0  0  0  0  0  0  0  0  0  0  0  0
    0.2830   -1.9180   -0.5060 C   0  0  0  0  0  0  0  0  0  0  0  0
    1.3390   -1.1240   -1.2900 C   0  0  0  0  0  0  0  0  0  0  0  0
    1.7670   -0.0670   -0.4120 N   0  0  0  0  0  0  0  0  0  0  0  0
    3.1410    0.1890   -0.2300 C   0  0  0  0  0  0  0  0  0  0  0  0
    3.4890    1.1170    0.5430 O   0  0  0  0  0  0  0  0  0  0  0  0
    4.2110   -0.5870   -0.9090 C   0  0  0  0  0  0  0  0  0  0  0  0
    5.4980   -0.1010   -0.5350 N   0  0  0  0  0  0  0  0  0  0  0  0
    5.9620   -0.0930    0.8050 C   0  0  0  0  0  0  0  0  0  0  0  0
    5.2150   -0.5310    1.7170 O   0  0  0  0  0  0  0  0  0  0  0  0
    7.3210    0.4360    1.0840 C   0  0  2  0  0  0  0  0  0  0  0  0
    7.3590    1.8710    0.6330 C   0  0  0  0  0  0  0  0  0  0  0  0
    7.8700    2.0740   -0.7240 C   0  0  0  0  0  0  0  0  0  0  0  0
    8.8420    1.3100   -1.1700 C   0  0  0  0  0  0  0  0  0  0  0  0
    9.4050    0.2690   -0.3170 C   0  0  0  0  0  0  0  0  0  0  0  0
    8.4140   -0.4100    0.5740 C   0  0  0  0  0  0  0  0  0  0  0  0
    0.7760    0.7200    0.2700 C   0  0  0  0  0  0  0  0  0  0  0  0
   -0.6310    0.3830   -0.1760 C   0  0  0  0  0  0  0  0  0  0  0  0
   -2.3660   -2.9400   -0.1900 C   0  0  0  0  0  0  0  0  0  0  0  0
   -3.6280   -3.4690   -0.1180 C   0  0  0  0  0  0  0  0  0  0  0  0
   -4.7050   -2.6020   -0.1000 C   0  0  0  0  0  0  0  0  0  0  0  0
   -5.9480   -3.1020    0.0130 N   0  0  0  0  0  0  0  0  0  0  0  0
   -6.9900   -2.2860    0.0680 C   0  0  0  0  0  0  0  0  0  0  0  0
   -8.1600   -2.7900    0.1780 O   0  0  0  0  0  0  0  0  0  0  0  0
  1  2  1  0
  2  3  1  0
  3  4  2  0
  3 34  1  0
  4  5  1  0
  4  9  1  0
  5  6  2  3
  6  7  1  0
  7  8  1  0
  9 10  2  0
  9 32  1  0
 10 11  1  0
 11 12  1  0
 11 30  2  0
 12 13  1  0
 12 29  1  0
 13 14  1  0
 14 15  1  0
 15 16  1  0
 15 28  1  0
 16 17  2  0
 16 18  1  0
 18 19  1  0
 19 20  1  0
 20 21  2  0
 22 20  1  6
 22 23  1  0
 22 27  1  0
 23 24  1  0
 24 25  2  0
 25 26  1  0
 26 27  1  0
 28 29  1  0
 30 31  1  0
 31 32  2  0
 32 33  1  0
 33 34  1  0
 34 35  2  0
M  END
