
     RDKit          3D

 35 38  0  0  0  0  0  0  0  0999 V2000
    6.8940    0.6690    3.6190 C   0  0  0  0  0  0  0  0  0  0  0  0
    6.1160    1.7030    2.8350 C   0  0  0  0  0  0  0  0  0  0  0  0
    5.9290    1.2890    1.4300 C   0  0  0  0  0  0  0  0  0  0  0  0
    6.8540    1.6350    0.4750 C   0  0  0  0  0  0  0  0  0  0  0  0
    6.6990    1.2590   -0.8470 C   0  0  0  0  0  0  0  0  0  0  0  0
    5.6050    0.5250   -1.2380 C   0  0  0  0  0  0  0  0  0  0  0  0
    4.6420    0.1590   -0.2750 C   0  0  0  0  0  0  0  0  0  0  0  0
    3.5540   -0.5910   -0.7640 N   0  0  0  0  0  0  0  0  0  0  0  0
    2.4980   -1.0420    0.0720 C   0  0  0  0  0  0  0  0  0  0  0  0
    2.4170   -0.8350    1.2970 O   0  0  0  0  0  0  0  0  0  0  0  0
    1.4140   -1.8030   -0.4920 N   0  0  0  0  0  0  0  0  0  0  0  0
    0.3290   -2.2770    0.3200 C   0  0  2  0  0  0  0  0  0  0  0  0
    0.2450   -3.7890    0.2190 C   0  0  0  0  0  0  0  0  0  0  0  0
   -0.9310   -1.6140   -0.1910 C   0  0  0  0  0  0  0  0  0  0  0  0
   -2.1370   -2.0500    0.6060 C   0  0  2  0  0  0  0  0  0  0  0  0
   -2.3140   -3.4170    0.5210 O   0  0  0  0  0  0  0  0  0  0  0  0
   -3.3600   -1.2830    0.1610 C   0  0  0  0  0  0  0  0  0  0  0  0
   -4.0320   -1.6400   -0.9880 C   0  0  0  0  0  0  0  0  0  0  0  0
   -5.1440   -0.9080   -1.3530 C   0  0  0  0  0  0  0  0  0  0  0  0
   -5.8980   -1.2710   -2.6000 C   0  0  0  0  0  0  0  0  0  0  0  0
   -5.6040    0.1690   -0.6070 C   0  0  0  0  0  0  0  0  0  0  0  0
   -4.9140    0.4950    0.5260 C   0  0  0  0  0  0  0  0  0  0  0  0
   -3.8140   -0.2490    0.8660 N   0  0  0  0  0  0  0  0  0  0  0  0
   -5.3160    1.6160    1.3860 C   0  0  2  0  0  0  0  0  0  0  0  0
   -5.6100    1.0150    2.7760 C   0  0  0  0  0  0  0  0  0  0  0  0
   -6.5040    2.3430    0.9320 C   0  0  0  0  0  0  0  0  0  0  0  0
   -6.9010    3.3450    1.6610 O   0  0  0  0  0  0  0  0  0  0  0  0
   -7.2280    2.0190   -0.2350 N   0  0  0  0  0  0  0  0  0  0  0  0
   -8.3940    2.8040   -0.5990 C   0  0  0  0  0  0  0  0  0  0  0  0
   -6.7940    0.9270   -1.0270 C   0  0  0  0  0  0  0  0  0  0  0  0
   -7.4100    0.6180   -2.0600 O   0  0  0  0  0  0  0  0  0  0  0  0
    4.8270    0.5460    1.0150 C   0  0  0  0  0  0  0  0  0  0  0  0
    5.6810    0.2550   -2.7060 C   0  0  0  0  0  0  0  0  0  0  0  0
    6.5590    1.3760   -3.1880 C   0  0  0  0  0  0  0  0  0  0  0  0
    7.5470    1.5060   -2.0450 C   0  0  0  0  0  0  0  0  0  0  0  0
  1  2  1  0
  2  3  1  0
  3  4  2  0
  3 32  1  0
  4  5  1  0
  5  6  2  0
  5 35  1  0
  6  7  1  0
  6 33  1  0
  7  8  1  0
  7 32  2  0
  8  9  1  0
  9 10  2  0
  9 11  1  0
 11 12  1  0
 12 13  1  6
 12 14  1  0
 14 15  1  0
 15 16  1  6
 15 17  1  0
 17 18  2  0
 17 23  1  0
 18 19  1  0
 19 20  1  0
 19 21  2  0
 21 22  1  0
 21 30  1  0
 22 23  2  0
 22 24  1  0
 24 25  1  1
 24 26  1  0
 26 27  2  0
 26 28  1  0
 28 29  1  0
 28 30  1  0
 30 31  2  0
 33 34  1  0
 34 35  1  0
M  END
