
     RDKit          3D

 35 38  0  0  0  0  0  0  0  0999 V2000
    8.2970    0.9890    2.6460 C   0  0  0  0  0  0  0  0  0  0  0  0
    8.9670    0.3220    1.4730 C   0  0  2  0  0  0  0  0  0  0  0  0
    9.5940    1.3190    0.5260 C   0  0  0  0  0  0  0  0  0  0  0  0
    8.7210    1.6030   -0.6230 C   0  0  0  0  0  0  0  0  0  0  0  0
    9.1610    2.1210   -1.6610 O   0  0  0  0  0  0  0  0  0  0  0  0
    7.2860    1.2610   -0.5270 C   0  0  0  0  0  0  0  0  0  0  0  0
    6.9120    0.1990    0.1310 C   0  0  0  0  0  0  0  0  0  0  0  0
    5.5840   -0.2140    0.2830 N   0  0  0  0  0  0  0  0  0  0  0  0
    4.4130    0.3820   -0.2080 C   0  0  0  0  0  0  0  0  0  0  0  0
    4.4800    1.4210   -0.8780 O   0  0  0  0  0  0  0  0  0  0  0  0
    3.1020   -0.1710    0.0370 N   0  0  0  0  0  0  0  0  0  0  0  0
    2.9430   -1.3520    0.7970 C   0  0  0  0  0  0  0  0  0  0  0  0
    2.0180   -2.2290    0.4330 C   0  0  0  0  0  0  0  0  0  0  0  0
    1.2160   -1.8780   -0.7680 C   0  0  0  0  0  0  0  0  0  0  0  0
    0.7450   -0.4530   -0.5740 C   0  0  2  0  0  0  0  0  0  0  0  0
   -0.1760   -0.0540   -1.6050 N   0  0  0  0  0  0  0  0  0  0  0  0
   -1.5130    0.2820   -1.2290 C   0  0  0  0  0  0  0  0  0  0  0  0
   -1.8660    0.2270   -0.0160 O   0  0  0  0  0  0  0  0  0  0  0  0
   -2.4300    0.6760   -2.2290 N   0  0  0  0  0  0  0  0  0  0  0  0
   -3.7960    1.0200   -1.9920 C   0  0  0  0  0  0  0  0  0  0  0  0
   -4.5310   -0.2140   -1.4240 C   0  0  2  0  0  0  0  0  0  0  0  0
   -4.3090   -1.2870   -2.5220 C   0  0  0  0  0  0  0  0  0  0  0  0
   -5.7800    0.0490   -1.1980 O   0  0  0  0  0  0  0  0  0  0  0  0
   -6.9510    0.2450   -0.6960 C   0  0  0  0  0  0  0  0  0  0  0  0
   -7.9890    0.6510   -1.5560 C   0  0  0  0  0  0  0  0  0  0  0  0
   -9.2350    0.8700   -1.0870 C   0  0  0  0  0  0  0  0  0  0  0  0
   -9.5430    0.7060    0.2510 C   0  0  0  0  0  0  0  0  0  0  0  0
   -8.5340    0.3090    1.0990 C   0  0  0  0  0  0  0  0  0  0  0  0
   -8.8700    0.1520    2.4310 C   0  0  0  0  0  0  0  0  0  0  0  0
   -7.9020   -0.2440    3.3260 C   0  0  0  0  0  0  0  0  0  0  0  0
   -6.6170   -0.4820    2.9130 C   0  0  0  0  0  0  0  0  0  0  0  0
   -6.3240   -0.3130    1.5650 C   0  0  0  0  0  0  0  0  0  0  0  0
   -7.2720    0.0810    0.6520 C   0  0  0  0  0  0  0  0  0  0  0  0
    1.9200    0.4810   -0.4980 C   0  0  0  0  0  0  0  0  0  0  0  0
    8.0150   -0.6080    0.7500 C   0  0  0  0  0  0  0  0  0  0  0  0
  2  1  1  1
  2  3  1  0
  2 35  1  0
  3  4  1  0
  4  5  2  0
  4  6  1  0
  6  7  2  0
  7  8  1  0
  7 35  1  0
  8  9  1  0
  9 10  2  0
  9 11  1  0
 11 12  1  0
 11 34  1  0
 12 13  2  0
 13 14  1  0
 14 15  1  0
 15 16  1  6
 15 34  1  0
 16 17  1  0
 17 18  2  0
 17 19  1  0
 19 20  1  0
 20 21  1  0
 21 22  1  6
 21 23  1  0
 23 24  1  0
 24 25  2  0
 24 33  1  0
 25 26  1  0
 26 27  2  0
 27 28  1  0
 28 29  2  0
 28 33  1  0
 29 30  1  0
 30 31  2  0
 31 32  1  0
 32 33  2  0
M  END
