
     RDKit          3D

 35 38  0  0  0  0  0  0  0  0999 V2000
   -7.2610   -3.0110    0.5830 C   0  0  0  0  0  0  0  0  0  0  0  0
   -6.4940   -2.7750    1.8810 C   0  0  2  0  0  0  0  0  0  0  0  0
   -7.3590   -3.2290    2.8990 O   0  0  0  0  0  0  0  0  0  0  0  0
   -6.2920   -1.3090    2.1060 C   0  0  0  0  0  0  0  0  0  0  0  0
   -5.4230   -0.6760    1.1430 N   0  0  0  0  0  0  0  0  0  0  0  0
   -4.0760   -1.0650    0.9680 C   0  0  0  0  0  0  0  0  0  0  0  0
   -3.6490   -2.0130    1.7090 O   0  0  0  0  0  0  0  0  0  0  0  0
   -3.2010   -0.4270   -0.0030 C   0  0  0  0  0  0  0  0  0  0  0  0
   -1.9320   -0.8570   -0.1060 C   0  0  0  0  0  0  0  0  0  0  0  0
   -1.0170   -0.2560   -1.0600 C   0  0  0  0  0  0  0  0  0  0  0  0
    0.2310   -0.5460   -1.2880 C   0  0  0  0  0  0  0  0  0  0  0  0
    0.9840   -1.5570   -0.6180 C   0  0  0  0  0  0  0  0  0  0  0  0
    0.4360   -2.2580    0.2980 O   0  0  0  0  0  0  0  0  0  0  0  0
    2.3290   -1.8110   -0.9350 N   0  0  0  0  0  0  0  0  0  0  0  0
    3.0600   -1.1200   -1.9440 C   0  0  0  0  0  0  0  0  0  0  0  0
    4.1630   -0.2910   -1.2360 C   0  0  0  0  0  0  0  0  0  0  0  0
    4.7320   -1.0650   -0.2380 N   0  0  0  0  0  0  0  0  0  0  0  0
    5.2200   -0.5490    0.9670 C   0  0  0  0  0  0  0  0  0  0  0  0
    6.4650    0.2650    0.8670 C   0  0  1  0  0  0  0  0  0  0  0  0
    7.6100   -0.5240    0.2590 C   0  0  0  0  0  0  0  0  0  0  0  0
    8.4830    0.4730   -0.4480 C   0  0  0  0  0  0  0  0  0  0  0  0
    7.8390    1.8110   -0.2340 C   0  0  0  0  0  0  0  0  0  0  0  0
    6.3770    1.5430    0.1460 C   0  0  0  0  0  0  0  0  0  0  0  0
    4.5090   -2.4630   -0.2070 C   0  0  0  0  0  0  0  0  0  0  0  0
    3.0480   -2.8470   -0.1940 C   0  0  0  0  0  0  0  0  0  0  0  0
   -3.5910    0.6130   -0.8440 N   0  0  0  0  0  0  0  0  0  0  0  0
   -3.8980    1.8060   -0.4770 C   0  0  0  0  0  0  0  0  0  0  0  0
   -3.9290    2.4010    0.8470 C   0  0  0  0  0  0  0  0  0  0  0  0
   -3.6070    1.7330    2.0150 O   0  0  0  0  0  0  0  0  0  0  0  0
   -4.3030    3.6650    0.7930 C   0  0  0  0  0  0  0  0  0  0  0  0
   -4.5640    4.0410   -0.6050 C   0  0  0  0  0  0  0  0  0  0  0  0
   -4.9420    5.0490   -1.3810 C   0  0  0  0  0  0  0  0  0  0  0  0
   -4.9610    4.5950   -2.7900 C   0  0  0  0  0  0  0  0  0  0  0  0
   -4.5330    3.1800   -2.6760 C   0  0  0  0  0  0  0  0  0  0  0  0
   -4.3050    2.8590   -1.4070 C   0  0  0  0  0  0  0  0  0  0  0  0
  2  1  1  6
  2  3  1  0
  2  4  1  0
  4  5  1  0
  5  6  1  0
  6  7  2  0
  6  8  1  0
  8  9  2  3
  8 26  1  0
  9 10  1  0
 10 11  2  3
 11 12  1  0
 12 13  2  0
 12 14  1  0
 14 15  1  0
 14 25  1  0
 15 16  1  0
 16 17  1  0
 17 18  1  0
 17 24  1  0
 19 18  1  6
 19 20  1  0
 19 23  1  0
 20 21  1  0
 21 22  1  0
 22 23  1  0
 24 25  1  0
 26 27  2  3
 27 28  1  0
 27 35  1  0
 28 29  1  0
 28 30  2  0
 30 31  1  0
 31 32  2  0
 31 35  1  0
 32 33  1  0
 33 34  1  0
 34 35  2  0
M  END
