
     RDKit          3D

 35 38  0  0  0  0  0  0  0  0999 V2000
   -7.5120    1.9700   -2.7750 C   0  0  0  0  0  0  0  0  0  0  0  0
   -7.7730    1.7360   -1.3810 N   0  0  0  0  0  0  0  0  0  0  0  0
   -7.6390    0.4490   -0.7920 C   0  0  0  0  0  0  0  0  0  0  0  0
   -7.2790   -0.4730   -1.5660 O   0  0  0  0  0  0  0  0  0  0  0  0
   -7.8900    0.1550    0.6150 C   0  0  1  0  0  0  0  0  0  0  0  0
   -7.6160   -1.3170    0.8680 C   0  0  0  0  0  0  0  0  0  0  0  0
   -6.8850   -1.3680    2.1950 C   0  0  0  0  0  0  0  0  0  0  0  0
   -6.0690   -0.0820    2.1070 C   0  0  1  0  0  0  0  0  0  0  0  0
   -4.9810   -0.3560    1.1900 N   0  0  0  0  0  0  0  0  0  0  0  0
   -3.6060   -0.2800    1.5540 C   0  0  0  0  0  0  0  0  0  0  0  0
   -3.3580    0.0460    2.7420 O   0  0  0  0  0  0  0  0  0  0  0  0
   -2.5520   -0.5490    0.6530 N   0  0  0  0  0  0  0  0  0  0  0  0
   -2.8560   -0.9200   -0.7070 C   0  0  0  0  0  0  0  0  0  0  0  0
   -1.1960   -0.4560    1.0830 C   0  0  1  0  0  0  0  0  0  0  0  0
   -0.4410   -1.7660    0.9190 C   0  0  0  0  0  0  0  0  0  0  0  0
    0.9100   -1.5790    1.6120 C   0  0  0  0  0  0  0  0  0  0  0  0
    1.5990   -0.4270    1.0660 N   0  0  0  0  0  0  0  0  0  0  0  0
    2.9270   -0.5310    0.5470 C   0  0  0  0  0  0  0  0  0  0  0  0
    3.4770   -1.6580    0.5820 O   0  0  0  0  0  0  0  0  0  0  0  0
    3.6630    0.5950   -0.0130 C   0  0  0  0  0  0  0  0  0  0  0  0
    4.9640    0.1660   -0.5270 C   0  0  0  0  0  0  0  0  0  0  0  0
    6.0450    0.7160    0.0690 C   0  0  0  0  0  0  0  0  0  0  0  0
    7.4670    0.5310   -0.1700 C   0  0  0  0  0  0  0  0  0  0  0  0
    8.4540    1.1140    0.4890 C   0  0  0  0  0  0  0  0  0  0  0  0
    9.7640    0.6810   -0.0360 C   0  0  2  0  0  0  0  0  0  0  0  0
   10.3870    1.8920   -0.7010 C   0  0  0  0  0  0  0  0  0  0  0  0
    9.4550   -0.2310   -1.0420 O   0  0  0  0  0  0  0  0  0  0  0  0
    8.0850   -0.3360   -1.1590 C   0  0  0  0  0  0  0  0  0  0  0  0
    7.4390   -1.1100   -2.0410 C   0  0  0  0  0  0  0  0  0  0  0  0
    6.0200   -1.3060   -2.2680 C   0  0  0  0  0  0  0  0  0  0  0  0
    4.9610   -0.7720   -1.6360 C   0  0  0  0  0  0  0  0  0  0  0  0
    3.6290   -1.1800   -2.1720 C   0  0  0  0  0  0  0  0  0  0  0  0
    0.8780    0.8240    1.0730 C   0  0  0  0  0  0  0  0  0  0  0  0
   -0.4090    0.5850    0.2810 C   0  0  0  0  0  0  0  0  0  0  0  0
   -7.0630    0.8950    1.5870 C   0  0  0  0  0  0  0  0  0  0  0  0
  1  2  1  0
  2  3  1  0
  3  4  2  0
  5  3  1  6
  5  6  1  0
  5 35  1  0
  6  7  1  0
  7  8  1  0
  8  9  1  6
  8 35  1  0
  9 10  1  0
 10 11  2  0
 10 12  1  0
 12 13  1  0
 14 12  1  6
 14 15  1  0
 14 34  1  0
 15 16  1  0
 16 17  1  0
 17 18  1  0
 17 33  1  0
 18 19  2  0
 18 20  1  0
 20 21  1  0
 21 22  2  0
 21 31  1  0
 22 23  1  0
 23 24  2  0
 23 28  1  0
 24 25  1  0
 25 26  1  6
 25 27  1  0
 27 28  1  0
 28 29  2  0
 29 30  1  0
 30 31  2  0
 31 32  1  0
 33 34  1  0
M  END
