
     RDKit          3D

 35 38  0  0  0  0  0  0  0  0999 V2000
    1.6790    2.0600   -0.7960 C   0  0  0  0  0  0  0  0  0  0  0  0
    0.5770    1.0710   -0.7770 C   0  0  0  0  0  0  0  0  0  0  0  0
   -0.6040    1.2080   -0.1390 N   0  0  0  0  0  0  0  0  0  0  0  0
   -1.3820    0.1310   -0.3520 C   0  0  0  0  0  0  0  0  0  0  0  0
   -0.6950   -0.7490   -1.1560 C   0  0  0  0  0  0  0  0  0  0  0  0
    0.5420   -0.1360   -1.4130 C   0  0  0  0  0  0  0  0  0  0  0  0
    1.5640   -0.7950   -2.2250 C   0  0  0  0  0  0  0  0  0  0  0  0
    2.6320   -1.5270   -1.4800 C   0  0  0  0  0  0  0  0  0  0  0  0
    3.4350   -0.6710   -0.5390 C   0  0  0  0  0  0  0  0  0  0  0  0
    4.4850   -1.4960    0.1370 C   0  0  0  0  0  0  0  0  0  0  0  0
    4.5940   -2.7310   -0.1040 O   0  0  0  0  0  0  0  0  0  0  0  0
    5.3560   -0.8520    1.0570 N   0  0  0  0  0  0  0  0  0  0  0  0
    6.4310   -1.4210    1.8280 C   0  0  0  0  0  0  0  0  0  0  0  0
    7.3510   -0.3280    2.2150 C   0  0  0  0  0  0  0  0  0  0  0  0
    6.7010    0.9320    1.7470 C   0  0  2  0  0  0  0  0  0  0  0  0
    7.4200    1.4350    0.5100 C   0  0  0  0  0  0  0  0  0  0  0  0
    6.6240    2.0030    2.8140 C   0  0  0  0  0  0  0  0  0  0  0  0
    5.2800    0.5650    1.3730 C   0  0  0  0  0  0  0  0  0  0  0  0
   -1.3120   -2.0080   -1.5480 C   0  0  0  0  0  0  0  0  0  0  0  0
   -0.5960   -2.9860   -1.8180 O   0  0  0  0  0  0  0  0  0  0  0  0
   -2.8030   -2.1170   -1.6230 C   0  0  0  0  0  0  0  0  0  0  0  0
   -3.4510   -0.8540   -1.1220 C   0  0  1  0  0  0  0  0  0  0  0  0
   -3.4510    0.2350   -2.1900 C   0  0  0  0  0  0  0  0  0  0  0  0
   -4.8950   -1.1730   -0.8230 C   0  0  0  0  0  0  0  0  0  0  0  0
   -5.3440   -2.3210   -1.0220 O   0  0  0  0  0  0  0  0  0  0  0  0
   -5.7460   -0.1620   -0.3150 N   0  0  0  0  0  0  0  0  0  0  0  0
   -7.1080   -0.3190    0.0000 C   0  0  0  0  0  0  0  0  0  0  0  0
   -7.9020   -1.3980   -0.2520 C   0  0  0  0  0  0  0  0  0  0  0  0
   -9.2500   -1.4650    0.1090 C   0  0  0  0  0  0  0  0  0  0  0  0
   -9.7710   -0.4010    0.7360 N   0  0  0  0  0  0  0  0  0  0  0  0
   -9.0720    0.7010    1.0250 C   0  0  0  0  0  0  0  0  0  0  0  0
   -9.7310    1.8010    1.7070 C   0  0  0  0  0  0  0  0  0  0  0  0
   -9.1510    2.8710    2.0180 O   0  0  0  0  0  0  0  0  0  0  0  0
   -7.7440    0.7440    0.6590 C   0  0  0  0  0  0  0  0  0  0  0  0
   -2.7480   -0.2740    0.0840 C   0  0  0  0  0  0  0  0  0  0  0  0
  1  2  1  0
  2  3  1  0
  2  6  2  0
  3  4  1  0
  4  5  2  0
  4 35  1  0
  5  6  1  0
  5 19  1  0
  6  7  1  0
  7  8  1  0
  8  9  1  0
  9 10  1  0
 10 11  2  0
 10 12  1  0
 12 13  1  0
 12 18  1  0
 13 14  1  0
 14 15  1  0
 15 16  1  6
 15 17  1  0
 15 18  1  0
 19 20  2  0
 19 21  1  0
 21 22  1  0
 22 23  1  6
 22 24  1  0
 22 35  1  0
 24 25  2  0
 24 26  1  0
 26 27  1  0
 27 28  2  0
 27 34  1  0
 28 29  1  0
 29 30  2  0
 30 31  1  0
 31 32  1  0
 31 34  2  0
 32 33  2  0
M  END
