
     RDKit          3D

 11 10  0  0  0  0  0  0  0  0999 V2000
   -1.1610    0.1020   -1.6910 O   0  0  0  0  0  0  0  0  0  0  0  0
   -1.8680    0.4090   -0.6980 C   0  0  0  0  0  0  0  0  0  0  0  0
   -3.3400    0.5800   -0.8180 C   0  0  0  0  0  0  0  0  0  0  0  0
   -3.8790    0.9160    0.4170 O   0  0  0  0  0  0  0  0  0  0  0  0
   -1.1910    0.5770    0.5060 O   0  0  0  0  0  0  0  0  0  0  0  0
    0.1090    0.4280    0.6150 O   0  0  0  0  0  0  0  0  0  0  0  0
    0.5560   -0.8740    0.4790 C   0  0  0  0  0  0  0  0  0  0  0  0
    2.0630   -0.8510    0.6330 C   0  0  0  0  0  0  0  0  0  0  0  0
    2.6290   -0.0300   -0.3600 O   0  0  0  0  0  0  0  0  0  0  0  0
    3.9350    0.0150   -0.2570 O   0  0  0  0  0  0  0  0  0  0  0  0
    4.2740    0.8900    0.6770 O   0  0  0  0  0  0  0  0  0  0  0  0
  1  2  2  0
  2  3  1  0
  2  5  1  0
  3  4  1  0
  5  6  1  0
  6  7  1  0
  7  8  1  0
  8  9  1  0
  9 10  1  0
 10 11  1  0
M  END
