
     RDKit          3D

 11 10  0  0  0  0  0  0  0  0999 V2000
   -1.4630    0.1100    1.3410 C   0  0  0  0  0  0  0  0  0  0  0  0
   -1.5270    1.0020    0.3080 O   0  0  0  0  0  0  0  0  0  0  0  0
   -1.4870    0.4960   -0.9580 C   0  0  0  0  0  0  0  0  0  0  0  0
   -0.1970   -0.2470   -1.1890 C   0  0  1  0  0  0  0  0  0  0  0  0
   -0.1370   -0.7660   -2.4930 O   0  0  0  0  0  0  0  0  0  0  0  0
    0.0120   -2.0590   -2.4520 O   0  0  0  0  0  0  0  0  0  0  0  0
    0.9130    0.5920   -1.0740 O   0  0  0  0  0  0  0  0  0  0  0  0
    1.7380    0.0690   -0.1610 O   0  0  0  0  0  0  0  0  0  0  0  0
    2.2240    0.7800    0.9060 C   0  0  0  0  0  0  0  0  0  0  0  0
    1.8690    1.9860    1.0200 O   0  0  0  0  0  0  0  0  0  0  0  0
    3.0810    0.2680    1.8710 O   0  0  0  0  0  0  0  0  0  0  0  0
  1  2  1  0
  2  3  1  0
  4  3  1  6
  4  5  1  0
  4  7  1  0
  5  6  1  0
  7  8  1  0
  8  9  1  0
  9 10  2  0
  9 11  1  0
M  END
