
     RDKit          3D

 13 14  0  0  0  0  0  0  0  0999 V2000
    3.7540   -0.6280   -0.0240 C   0  0  0  0  0  0  0  0  0  0  0  0
    2.5360    0.1800   -0.4290 C   0  0  0  0  0  0  0  0  0  0  0  0
    1.6780    0.1520    0.6930 O   0  0  0  0  0  0  0  0  0  0  0  0
    0.5680    0.8370    0.4460 N   0  0  0  0  0  0  0  0  0  0  0  0
    0.5270    2.2170    0.5020 N   0  0  0  0  0  0  0  0  0  0  0  0
   -0.3100    2.6700   -0.4440 O   0  0  0  0  0  0  0  0  0  0  0  0
   -1.6370    2.3310   -0.2310 C   0  0  0  0  0  0  0  0  0  0  0  0
   -1.8210    0.9310    0.0070 N   0  0  0  0  0  0  0  0  0  0  0  0
   -2.9270    0.0140    0.1900 C   0  0  0  0  0  0  0  0  0  0  0  0
   -2.3640   -1.2420   -0.4280 C   0  0  0  0  0  0  0  0  0  0  0  0
   -0.9200   -1.1350   -0.1320 C   0  0  0  0  0  0  0  0  0  0  0  0
    0.0660   -2.2780   -0.1090 C   0  0  0  0  0  0  0  0  0  0  0  0
   -0.6280    0.1240    0.1100 C   0  0  0  0  0  0  0  0  0  0  0  0
  1  2  1  0
  2  3  1  0
  3  4  1  0
  4  5  1  0
  4 13  1  0
  5  6  1  0
  6  7  1  0
  7  8  1  0
  8  9  1  0
  8 13  1  0
  9 10  1  0
 10 11  1  0
 11 12  1  0
 11 13  2  0
M  END
