
     RDKit          3D

 11 10  0  0  0  0  0  0  0  0999 V2000
    2.9010   -1.4790   -0.5380 O   0  0  0  0  0  0  0  0  0  0  0  0
    2.7640   -0.2320   -0.6350 C   0  0  0  0  0  0  0  0  0  0  0  0
    3.8650    0.5740   -0.9250 O   0  0  0  0  0  0  0  0  0  0  0  0
    1.4900    0.2880   -0.4430 O   0  0  0  0  0  0  0  0  0  0  0  0
    0.4160   -0.5860   -0.1510 C   0  0  0  0  0  0  0  0  0  0  0  0
   -0.8630    0.1850    0.0180 C   0  0  2  0  0  0  0  0  0  0  0  0
   -0.6680    1.1350    1.1940 C   0  0  0  0  0  0  0  0  0  0  0  0
   -1.8120    1.8810    1.4400 O   0  0  0  0  0  0  0  0  0  0  0  0
   -1.9020   -0.6800    0.3020 O   0  0  0  0  0  0  0  0  0  0  0  0
   -2.8650   -0.5200   -0.5690 O   0  0  0  0  0  0  0  0  0  0  0  0
   -3.1740   -1.6930   -1.1170 O   0  0  0  0  0  0  0  0  0  0  0  0
  1  2  2  0
  2  3  1  0
  2  4  1  0
  4  5  1  0
  6  5  1  1
  6  7  1  0
  6  9  1  0
  7  8  1  0
  9 10  1  0
 10 11  1  0
M  END
