
     RDKit          3D

 13 13  0  0  0  0  0  0  0  0999 V2000
    4.8620    0.5320    0.2680 C   0  0  0  0  0  0  0  0  0  0  0  0
    4.0270    0.6980   -0.6780 N   0  0  0  0  0  0  0  0  0  0  0  0
    2.6390    0.5930   -0.5780 C   0  0  0  0  0  0  0  0  0  0  0  0
    1.8620    0.9810   -1.5070 N   0  0  0  0  0  0  0  0  0  0  0  0
    0.5160    0.9340   -1.5300 O   0  0  0  0  0  0  0  0  0  0  0  0
   -0.3050    0.4430   -0.5230 C   0  0  0  0  0  0  0  0  0  0  0  0
   -1.7680    0.4650   -0.7090 C   0  0  0  0  0  0  0  0  0  0  0  0
   -2.2400    0.9520   -1.8290 C   0  0  0  0  0  0  0  0  0  0  0  0
   -2.6380   -0.0220    0.2840 N   0  0  0  0  0  0  0  0  0  0  0  0
   -3.7110   -0.9140   -0.0580 C   0  0  0  0  0  0  0  0  0  0  0  0
    0.1100   -0.0580    0.6220 C   0  0  0  0  0  0  0  0  0  0  0  0
    1.8990   -0.1200    0.9270 P   0  0  0  0  0  0  0  0  0  0  0  0
    2.3360   -1.8180    0.9780 O   0  0  0  0  0  0  0  0  0  0  0  0
  1  2  2  0
  2  3  1  0
  3  4  2  0
  3 12  1  0
  4  5  1  0
  5  6  1  0
  6  7  1  0
  6 11  2  0
  7  8  2  0
  7  9  1  0
  9 10  1  0
 11 12  1  0
 12 13  1  0
M  END
