
     RDKit          3D

 13 13  0  0  0  0  0  0  0  0999 V2000
   -1.4160    0.9000   -0.9610 C   0  0  0  0  0  0  0  0  0  0  0  0
   -0.9660    0.2570    0.0700 C   0  0  0  0  0  0  0  0  0  0  0  0
   -1.8470   -0.1010    1.1360 N   0  0  0  0  0  0  0  0  0  0  0  0
   -2.9570   -0.7190    0.9210 C   0  0  0  0  0  0  0  0  0  0  0  0
   -3.4510   -1.1260   -0.4020 C   0  0  0  0  0  0  0  0  0  0  0  0
    0.4700   -0.0810    0.1470 C   0  0  0  0  0  0  0  0  0  0  0  0
    0.7150   -1.3570    0.5630 N   0  0  0  0  0  0  0  0  0  0  0  0
    1.8470   -1.9080    0.7330 O   0  0  0  0  0  0  0  0  0  0  0  0
    3.1860   -0.9740    0.4160 P   0  0  0  0  0  0  0  0  0  0  0  0
    4.8270   -1.3980    0.7500 O   0  0  0  0  0  0  0  0  0  0  0  0
    2.7820    0.5910   -0.0910 N   0  0  0  0  0  0  0  0  0  0  0  0
    1.4460    0.8330   -0.1580 C   0  0  0  0  0  0  0  0  0  0  0  0
    1.0920    2.2300   -0.5610 C   0  0  0  0  0  0  0  0  0  0  0  0
  1  2  2  0
  2  3  1  0
  2  6  1  0
  3  4  2  3
  4  5  1  0
  6  7  1  0
  6 12  2  0
  7  8  1  0
  8  9  1  0
  9 10  1  0
  9 11  1  0
 11 12  1  0
 12 13  1  0
M  END
