
     RDKit          3D

 11 11  0  0  0  0  0  0  0  0999 V2000
    4.3160    0.3530    0.3180 O   0  0  0  0  0  0  0  0  0  0  0  0
    3.1370   -0.0960   -0.0040 O   0  0  0  0  0  0  0  0  0  0  0  0
    2.6010   -0.7950    0.9450 O   0  0  0  0  0  0  0  0  0  0  0  0
    1.3090   -0.8810    0.9100 O   0  0  0  0  0  0  0  0  0  0  0  0
    0.7080   -0.1460   -0.0880 C   0  0  2  0  0  0  0  0  0  0  0  0
   -0.2260    0.9180    0.5050 C   0  0  0  0  0  0  0  0  0  0  0  0
   -1.0930    1.2740   -0.5160 O   0  0  0  0  0  0  0  0  0  0  0  0
   -2.2620    0.5750   -0.5090 C   0  0  0  0  0  0  0  0  0  0  0  0
   -2.1990   -0.8420   -0.1370 C   0  0  0  0  0  0  0  0  0  0  0  0
   -1.0330   -1.5030   -0.2970 O   0  0  0  0  0  0  0  0  0  0  0  0
   -0.0900   -0.9150   -0.9360 O   0  0  0  0  0  0  0  0  0  0  0  0
  1  2  1  0
  2  3  1  0
  3  4  1  0
  5  4  1  1
  5  6  1  0
  5 11  1  0
  6  7  1  0
  7  8  1  0
  8  9  1  0
  9 10  1  0
 10 11  1  0
M  END
