
     RDKit          3D

 13 13  0  0  0  0  0  0  0  0999 V2000
    4.6220    0.5000   -0.2830 C   0  0  0  0  0  0  0  0  0  0  0  0
    3.9420   -0.5680   -0.5020 N   0  0  0  0  0  0  0  0  0  0  0  0
    2.5650   -0.5880   -0.3370 C   0  0  0  0  0  0  0  0  0  0  0  0
    1.8120   -1.1180   -1.2200 N   0  0  0  0  0  0  0  0  0  0  0  0
    0.4750   -1.1800   -1.1380 O   0  0  0  0  0  0  0  0  0  0  0  0
   -0.3160   -0.7120   -0.1460 C   0  0  0  0  0  0  0  0  0  0  0  0
   -1.7810   -0.8960   -0.2740 C   0  0  0  0  0  0  0  0  0  0  0  0
   -2.2490   -1.4990   -1.3350 C   0  0  0  0  0  0  0  0  0  0  0  0
   -2.7050   -0.4470    0.7040 N   0  0  0  0  0  0  0  0  0  0  0  0
   -3.1800    0.9330    0.6450 C   0  0  0  0  0  0  0  0  0  0  0  0
    0.0620   -0.0960    0.9550 C   0  0  0  0  0  0  0  0  0  0  0  0
    1.8570    0.1650    1.1780 P   0  0  0  0  0  0  0  0  0  0  0  0
    2.1160    1.8840    1.1770 O   0  0  0  0  0  0  0  0  0  0  0  0
  1  2  2  0
  2  3  1  0
  3  4  2  0
  3 12  1  0
  4  5  1  0
  5  6  1  0
  6  7  1  0
  6 11  2  0
  7  8  2  0
  7  9  1  0
  9 10  1  0
 11 12  1  0
 12 13  1  0
M  END
