
     RDKit          3D

 11 10  0  0  0  0  0  0  0  0999 V2000
   -3.4190   -0.2880    0.8880 O   0  0  0  0  0  0  0  0  0  0  0  0
   -2.4360    0.3070    0.3830 C   0  0  0  0  0  0  0  0  0  0  0  0
   -2.4150    1.6750    0.4280 O   0  0  0  0  0  0  0  0  0  0  0  0
   -1.3670   -0.5230   -0.2290 C   0  0  2  0  0  0  0  0  0  0  0  0
   -1.6710   -1.8740   -0.1200 O   0  0  0  0  0  0  0  0  0  0  0  0
   -1.8390   -2.3980   -1.3000 O   0  0  0  0  0  0  0  0  0  0  0  0
   -0.1600   -0.1970    0.3480 O   0  0  0  0  0  0  0  0  0  0  0  0
    0.6630    0.3620   -0.6180 C   0  0  0  0  0  0  0  0  0  0  0  0
    2.0140    0.7490   -0.0610 C   0  0  0  0  0  0  0  0  0  0  0  0
    2.6610   -0.3760    0.4500 O   0  0  0  0  0  0  0  0  0  0  0  0
    3.8220   -0.0430    0.9290 O   0  0  0  0  0  0  0  0  0  0  0  0
  1  2  2  0
  2  3  1  0
  2  4  1  0
  4  5  1  1
  4  7  1  0
  5  6  1  0
  7  8  1  0
  8  9  1  0
  9 10  1  0
 10 11  1  0
M  END
