
     RDKit          3D

 11 11  0  0  0  0  0  0  0  0999 V2000
    4.0370    1.2340    0.3970 O   0  0  0  0  0  0  0  0  0  0  0  0
    3.4430    0.4900   -0.5250 O   0  0  0  0  0  0  0  0  0  0  0  0
    2.7500   -0.4640    0.0570 O   0  0  0  0  0  0  0  0  0  0  0  0
    1.5320    0.0030    0.2970 O   0  0  0  0  0  0  0  0  0  0  0  0
    0.6170   -0.8780   -0.2820 C   0  0  2  0  0  0  0  0  0  0  0  0
   -0.2370   -0.0710   -1.2380 C   0  0  0  0  0  0  0  0  0  0  0  0
   -0.6950    1.0390   -0.5730 O   0  0  0  0  0  0  0  0  0  0  0  0
   -1.6870    0.8120    0.3370 C   0  0  0  0  0  0  0  0  0  0  0  0
   -2.3010   -0.5380    0.3050 C   0  0  0  0  0  0  0  0  0  0  0  0
   -1.4170   -1.5850    0.2680 O   0  0  0  0  0  0  0  0  0  0  0  0
   -0.2330   -1.3050    0.7460 O   0  0  0  0  0  0  0  0  0  0  0  0
  1  2  1  0
  2  3  1  0
  3  4  1  0
  5  4  1  1
  5  6  1  0
  5 11  1  0
  6  7  1  0
  7  8  1  0
  8  9  1  0
  9 10  1  0
 10 11  1  0
M  END
