
     RDKit          3D

 11 10  0  0  0  0  0  0  0  0999 V2000
    3.3130   -0.6040    0.0460 O   0  0  0  0  0  0  0  0  0  0  0  0
    2.7660    0.2570    0.7850 C   0  0  0  0  0  0  0  0  0  0  0  0
    3.6000    1.0290    1.5960 O   0  0  0  0  0  0  0  0  0  0  0  0
    1.3870    0.4190    0.7790 O   0  0  0  0  0  0  0  0  0  0  0  0
    0.6480   -0.4210   -0.0840 C   0  0  0  0  0  0  0  0  0  0  0  0
   -0.8320   -0.1640   -0.0120 C   0  0  2  0  0  0  0  0  0  0  0  0
   -1.4790   -1.0940   -1.0260 C   0  0  0  0  0  0  0  0  0  0  0  0
   -1.1760   -2.4240   -0.7170 O   0  0  0  0  0  0  0  0  0  0  0  0
   -1.1630    1.1440   -0.3620 O   0  0  0  0  0  0  0  0  0  0  0  0
   -1.8790    1.6980    0.6040 O   0  0  0  0  0  0  0  0  0  0  0  0
   -2.7810    2.5290    0.1360 O   0  0  0  0  0  0  0  0  0  0  0  0
  1  2  2  0
  2  3  1  0
  2  4  1  0
  4  5  1  0
  6  5  1  6
  6  7  1  0
  6  9  1  0
  7  8  1  0
  9 10  1  0
 10 11  1  0
M  END
