
     RDKit          3D

 13 14  0  0  0  0  0  0  0  0999 V2000
    3.8470    1.1350   -0.2950 C   0  0  0  0  0  0  0  0  0  0  0  0
    2.7520    0.1350   -0.0970 C   0  0  0  0  0  0  0  0  0  0  0  0
    1.5710    0.5050   -0.7420 O   0  0  0  0  0  0  0  0  0  0  0  0
    0.6310   -0.4380   -0.5230 N   0  0  0  0  0  0  0  0  0  0  0  0
    0.9650   -1.7880   -0.6290 N   0  0  0  0  0  0  0  0  0  0  0  0
   -0.1000   -2.4590   -1.1540 O   0  0  0  0  0  0  0  0  0  0  0  0
   -1.0720   -2.5310   -0.1440 C   0  0  0  0  0  0  0  0  0  0  0  0
   -1.6070   -1.1890   -0.0030 N   0  0  0  0  0  0  0  0  0  0  0  0
   -2.9310   -0.7420    0.2980 C   0  0  0  0  0  0  0  0  0  0  0  0
   -2.7640    0.7680    0.3510 C   0  0  0  0  0  0  0  0  0  0  0  0
   -1.3500    1.0170    0.0140 C   0  0  0  0  0  0  0  0  0  0  0  0
   -0.7480    2.3650   -0.0840 C   0  0  0  0  0  0  0  0  0  0  0  0
   -0.7060   -0.1010   -0.1840 C   0  0  0  0  0  0  0  0  0  0  0  0
  1  2  1  0
  2  3  1  0
  3  4  1  0
  4  5  1  0
  4 13  1  0
  5  6  1  0
  6  7  1  0
  7  8  1  0
  8  9  1  0
  8 13  1  0
  9 10  1  0
 10 11  1  0
 11 12  1  0
 11 13  2  0
M  END
