
     RDKit          3D

 13 14  0  0  0  0  0  0  0  0999 V2000
   -2.0730    1.0660    0.4920 C   0  0  0  0  0  0  0  0  0  0  0  0
   -1.1250    0.0320   -0.1640 C   0  0  2  0  0  0  0  0  0  0  0  0
   -1.9360   -1.2450   -0.1590 C   0  0  0  0  0  0  0  0  0  0  0  0
   -2.0050   -1.4500    1.3480 C   0  0  0  0  0  0  0  0  0  0  0  0
   -0.8970   -0.9250    1.9010 C   0  0  0  0  0  0  0  0  0  0  0  0
   -0.0730   -0.3660    0.7970 C   0  0  0  0  0  0  0  0  0  0  0  0
    1.1770   -0.2860    0.6720 N   0  0  0  0  0  0  0  0  0  0  0  0
    1.9370    0.1800   -0.3720 N   0  0  0  0  0  0  0  0  0  0  0  0
    3.3970    0.2130   -0.3710 C   0  0  0  0  0  0  0  0  0  0  0  0
    3.9060    1.0320    0.7080 N   0  0  0  0  0  0  0  0  0  0  0  0
    0.9240    0.7510   -1.7620 P   0  0  0  0  0  0  0  0  0  0  0  0
   -0.7170    0.5710   -1.4210 C   0  0  0  0  0  0  0  0  0  0  0  0
   -1.6820    0.9410   -2.3480 O   0  0  0  0  0  0  0  0  0  0  0  0
  2  1  1  1
  2  3  1  0
  2  6  1  0
  2 12  1  0
  3  4  1  0
  4  5  2  0
  5  6  1  0
  6  7  2  0
  7  8  1  0
  8  9  1  0
  8 11  1  0
  9 10  1  0
 11 12  2  0
 12 13  1  0
M  END
