
     RDKit          3D

 13 13  0  0  0  0  0  0  0  0999 V2000
   -1.3770    0.4740   -1.9150 C   0  0  0  0  0  0  0  0  0  0  0  0
   -0.7900   -0.1340   -0.9130 C   0  0  0  0  0  0  0  0  0  0  0  0
   -1.4690   -1.2120   -0.2590 N   0  0  0  0  0  0  0  0  0  0  0  0
   -2.5700   -1.0820    0.3520 C   0  0  0  0  0  0  0  0  0  0  0  0
   -3.2300    0.2400    0.4190 C   0  0  0  0  0  0  0  0  0  0  0  0
    0.5240    0.3200   -0.4760 C   0  0  0  0  0  0  0  0  0  0  0  0
    0.9210    1.5390   -0.8270 N   0  0  0  0  0  0  0  0  0  0  0  0
    2.0590    2.1090   -0.5440 O   0  0  0  0  0  0  0  0  0  0  0  0
    3.1310    1.2180    0.3530 P   0  0  0  0  0  0  0  0  0  0  0  0
    4.6880    1.7020    0.8770 O   0  0  0  0  0  0  0  0  0  0  0  0
    2.5120   -0.3130    0.7360 N   0  0  0  0  0  0  0  0  0  0  0  0
    1.2690   -0.5800    0.2700 C   0  0  0  0  0  0  0  0  0  0  0  0
    0.7600   -1.9350    0.6140 C   0  0  0  0  0  0  0  0  0  0  0  0
  1  2  2  0
  2  3  1  0
  2  6  1  0
  3  4  2  3
  4  5  1  0
  6  7  1  0
  6 12  2  0
  7  8  1  0
  8  9  1  0
  9 10  1  0
  9 11  1  0
 11 12  1  0
 12 13  1  0
M  END
