
     RDKit          3D

 13 14  0  0  0  0  0  0  0  0999 V2000
   -0.9450    2.0710    0.4820 C   0  0  0  0  0  0  0  0  0  0  0  0
   -0.9450    0.7380   -0.1750 C   0  0  0  0  0  0  0  0  0  0  0  0
   -1.7690    0.5610   -1.1950 C   0  0  0  0  0  0  0  0  0  0  0  0
   -1.7000   -1.1300   -1.9520 P   0  0  0  0  0  0  0  0  0  0  0  0
   -2.7440   -2.1370   -1.0130 O   0  0  0  0  0  0  0  0  0  0  0  0
   -0.0460   -1.6130   -1.8350 O   0  0  0  0  0  0  0  0  0  0  0  0
    0.6320   -1.1260   -0.7810 C   0  0  1  0  0  0  0  0  0  0  0  0
    1.7000   -0.2300   -1.1060 O   0  0  0  0  0  0  0  0  0  0  0  0
    2.0910    0.3170    0.1080 C   0  0  0  0  0  0  0  0  0  0  0  0
    3.3970    0.8500    0.3940 N   0  0  0  0  0  0  0  0  0  0  0  0
    1.0870    0.2790    0.9680 C   0  0  0  0  0  0  0  0  0  0  0  0
   -0.0850   -0.3540    0.2600 C   0  0  1  0  0  0  0  0  0  0  0  0
   -0.7230   -1.2390    1.2110 N   0  0  0  0  0  0  0  0  0  0  0  0
  1  2  1  0
  2  3  2  0
  2 12  1  0
  3  4  1  0
  4  5  1  0
  4  6  1  0
  7  6  1  6
  7  8  1  0
  7 12  1  0
  8  9  1  0
  9 10  1  0
  9 11  2  0
 11 12  1  0
 12 13  1  1
M  END
