
     RDKit          3D

 13 14  0  0  0  0  0  0  0  0999 V2000
   -0.5030   -2.5540   -0.3760 C   0  0  0  0  0  0  0  0  0  0  0  0
    0.2720   -1.2850   -0.5600 C   0  0  0  0  0  0  0  0  0  0  0  0
    1.1900   -1.3050   -1.5200 C   0  0  0  0  0  0  0  0  0  0  0  0
    2.1450    0.2710   -1.7400 P   0  0  0  0  0  0  0  0  0  0  0  0
    3.5060    0.1620   -0.6540 O   0  0  0  0  0  0  0  0  0  0  0  0
    1.0780    1.4890   -1.0450 O   0  0  0  0  0  0  0  0  0  0  0  0
    0.8280    1.0260    0.2460 C   0  0  1  0  0  0  0  0  0  0  0  0
   -0.0360    2.0160    0.8350 O   0  0  0  0  0  0  0  0  0  0  0  0
   -1.3320    1.7080    0.3750 C   0  0  0  0  0  0  0  0  0  0  0  0
   -2.3480    2.6970    0.3010 N   0  0  0  0  0  0  0  0  0  0  0  0
   -1.4010    0.4260    0.0560 C   0  0  0  0  0  0  0  0  0  0  0  0
   -0.0530   -0.1670    0.3230 C   0  0  1  0  0  0  0  0  0  0  0  0
   -0.0080   -0.6650    1.6890 N   0  0  0  0  0  0  0  0  0  0  0  0
  1  2  1  0
  2  3  2  0
  2 12  1  0
  3  4  1  0
  4  5  1  0
  4  6  1  0
  7  6  1  6
  7  8  1  0
  7 12  1  0
  8  9  1  0
  9 10  1  0
  9 11  2  0
 11 12  1  0
 12 13  1  1
M  END
