
     RDKit          3D

 11 10  0  0  0  0  0  0  0  0999 V2000
    1.7940   -1.6820    0.7400 O   0  0  0  0  0  0  0  0  0  0  0  0
    2.3970   -0.7640    0.1350 C   0  0  0  0  0  0  0  0  0  0  0  0
    3.7210   -0.4160    0.4560 O   0  0  0  0  0  0  0  0  0  0  0  0
    1.7470   -0.0940   -0.8570 O   0  0  0  0  0  0  0  0  0  0  0  0
    0.4600   -0.2620   -1.3340 C   0  0  0  0  0  0  0  0  0  0  0  0
   -0.6440   -0.0260   -0.3450 C   0  0  2  0  0  0  0  0  0  0  0  0
   -0.5560    1.4540    0.0320 C   0  0  0  0  0  0  0  0  0  0  0  0
   -1.6530    1.7770    0.8210 O   0  0  0  0  0  0  0  0  0  0  0  0
   -0.6440   -0.8340    0.7570 O   0  0  0  0  0  0  0  0  0  0  0  0
   -1.7860   -1.4810    0.8130 O   0  0  0  0  0  0  0  0  0  0  0  0
   -2.7950   -0.6670    0.5750 O   0  0  0  0  0  0  0  0  0  0  0  0
  1  2  2  0
  2  3  1  0
  2  4  1  0
  4  5  1  0
  6  5  1  6
  6  7  1  0
  6  9  1  0
  7  8  1  0
  9 10  1  0
 10 11  1  0
M  END
