
     RDKit          3D

 13 14  0  0  0  0  0  0  0  0999 V2000
   -2.0250   -0.4340   -1.2670 C   0  0  0  0  0  0  0  0  0  0  0  0
   -1.1350   -0.3090   -0.0050 C   0  0  2  0  0  0  0  0  0  0  0  0
   -1.9500    0.5140    0.9550 C   0  0  0  0  0  0  0  0  0  0  0  0
   -2.0730    1.7850    0.1540 C   0  0  0  0  0  0  0  0  0  0  0  0
   -0.9960    1.8850   -0.6110 C   0  0  0  0  0  0  0  0  0  0  0  0
   -0.1270    0.7120   -0.3600 C   0  0  0  0  0  0  0  0  0  0  0  0
    1.1180    0.6490   -0.3970 N   0  0  0  0  0  0  0  0  0  0  0  0
    1.9260   -0.4350   -0.0970 N   0  0  0  0  0  0  0  0  0  0  0  0
    3.3690   -0.4500   -0.1620 C   0  0  0  0  0  0  0  0  0  0  0  0
    3.9440    0.5270    0.7180 N   0  0  0  0  0  0  0  0  0  0  0  0
    0.9560   -1.8910    0.4030 P   0  0  0  0  0  0  0  0  0  0  0  0
   -0.6740   -1.5910    0.3830 C   0  0  0  0  0  0  0  0  0  0  0  0
   -1.5400   -2.6010    0.7440 O   0  0  0  0  0  0  0  0  0  0  0  0
  2  1  1  6
  2  3  1  0
  2  6  1  0
  2 12  1  0
  3  4  1  0
  4  5  2  0
  5  6  1  0
  6  7  2  0
  7  8  1  0
  8  9  1  0
  8 11  1  0
  9 10  1  0
 11 12  2  0
 12 13  1  0
M  END
