
     RDKit          3D

 13 14  0  0  0  0  0  0  0  0999 V2000
    3.8240    1.0630   -0.0230 C   0  0  0  0  0  0  0  0  0  0  0  0
    2.7080    0.0260   -0.0830 C   0  0  0  0  0  0  0  0  0  0  0  0
    1.5910    0.4680    0.6310 O   0  0  0  0  0  0  0  0  0  0  0  0
    0.6490   -0.4910    0.5360 N   0  0  0  0  0  0  0  0  0  0  0  0
    0.8730   -1.8500    0.7670 N   0  0  0  0  0  0  0  0  0  0  0  0
   -0.1570   -2.4270    1.3780 O   0  0  0  0  0  0  0  0  0  0  0  0
   -1.3430   -2.4260    0.6490 C   0  0  0  0  0  0  0  0  0  0  0  0
   -1.6160   -1.1780    0.0180 N   0  0  0  0  0  0  0  0  0  0  0  0
   -2.6680   -0.6660   -0.8070 C   0  0  0  0  0  0  0  0  0  0  0  0
   -2.6930    0.7860   -0.3970 C   0  0  0  0  0  0  0  0  0  0  0  0
   -1.2810    1.0490   -0.0670 C   0  0  0  0  0  0  0  0  0  0  0  0
   -0.6570    2.3930   -0.0180 C   0  0  0  0  0  0  0  0  0  0  0  0
   -0.6780   -0.0960    0.1740 C   0  0  0  0  0  0  0  0  0  0  0  0
  1  2  1  0
  2  3  1  0
  3  4  1  0
  4  5  1  0
  4 13  1  0
  5  6  1  0
  6  7  1  0
  7  8  1  0
  8  9  1  0
  8 13  1  0
  9 10  1  0
 10 11  1  0
 11 12  1  0
 11 13  2  0
M  END
