
     RDKit          3D

 11 10  0  0  0  0  0  0  0  0999 V2000
   -2.4450    0.4870   -0.8180 C   0  0  0  0  0  0  0  0  0  0  0  0
   -2.1240   -0.8520   -0.7200 O   0  0  0  0  0  0  0  0  0  0  0  0
   -0.7840   -1.1100   -0.6200 C   0  0  0  0  0  0  0  0  0  0  0  0
   -0.1020   -0.4980    0.5700 C   0  0  1  0  0  0  0  0  0  0  0  0
   -0.6320   -0.9290    1.7780 O   0  0  0  0  0  0  0  0  0  0  0  0
   -1.0890    0.0510    2.5150 O   0  0  0  0  0  0  0  0  0  0  0  0
    1.2420   -0.8380    0.5330 O   0  0  0  0  0  0  0  0  0  0  0  0
    1.9710    0.2760    0.4750 O   0  0  0  0  0  0  0  0  0  0  0  0
    2.9910    0.4520   -0.4250 C   0  0  0  0  0  0  0  0  0  0  0  0
    3.2780   -0.4660   -1.2490 O   0  0  0  0  0  0  0  0  0  0  0  0
    3.7660    1.6120   -0.5010 O   0  0  0  0  0  0  0  0  0  0  0  0
  1  2  1  0
  2  3  1  0
  4  3  1  6
  4  5  1  0
  4  7  1  0
  5  6  1  0
  7  8  1  0
  8  9  1  0
  9 10  2  0
  9 11  1  0
M  END
