
     RDKit          3D

 11 10  0  0  0  0  0  0  0  0999 V2000
    2.8020   -1.3920    0.2810 O   0  0  0  0  0  0  0  0  0  0  0  0
    2.3920   -0.2240    0.4940 C   0  0  0  0  0  0  0  0  0  0  0  0
    3.2320    0.7200    1.0440 O   0  0  0  0  0  0  0  0  0  0  0  0
    0.9760    0.0910    0.1290 C   0  0  2  0  0  0  0  0  0  0  0  0
    0.6910    1.4390    0.4340 O   0  0  0  0  0  0  0  0  0  0  0  0
    0.3440    2.1250   -0.6220 O   0  0  0  0  0  0  0  0  0  0  0  0
    0.0920   -0.6950    0.8530 O   0  0  0  0  0  0  0  0  0  0  0  0
   -0.7170   -1.4000   -0.0000 C   0  0  0  0  0  0  0  0  0  0  0  0
   -1.5880   -0.5790   -0.9020 C   0  0  0  0  0  0  0  0  0  0  0  0
   -2.4450    0.2300   -0.1530 O   0  0  0  0  0  0  0  0  0  0  0  0
   -3.1960    0.9370   -0.9860 O   0  0  0  0  0  0  0  0  0  0  0  0
  1  2  2  0
  2  3  1  0
  2  4  1  0
  4  5  1  1
  4  7  1  0
  5  6  1  0
  7  8  1  0
  8  9  1  0
  9 10  1  0
 10 11  1  0
M  END
