
     RDKit          3D

 13 13  0  0  0  0  0  0  0  0999 V2000
   -1.2560   -0.8270    1.9200 C   0  0  0  0  0  0  0  0  0  0  0  0
   -0.7650   -0.6560    0.7160 C   0  0  0  0  0  0  0  0  0  0  0  0
   -1.6900   -0.8800   -0.3610 N   0  0  0  0  0  0  0  0  0  0  0  0
   -2.7530   -0.1510   -0.4380 C   0  0  0  0  0  0  0  0  0  0  0  0
   -3.0900    0.9200    0.5230 C   0  0  0  0  0  0  0  0  0  0  0  0
    0.6280   -0.2370    0.4570 C   0  0  0  0  0  0  0  0  0  0  0  0
    1.3190    0.2710    1.4870 N   0  0  0  0  0  0  0  0  0  0  0  0
    2.5440    0.6830    1.4820 O   0  0  0  0  0  0  0  0  0  0  0  0
    3.3320    0.5630    0.0280 P   0  0  0  0  0  0  0  0  0  0  0  0
    5.0390    0.7510   -0.2070 O   0  0  0  0  0  0  0  0  0  0  0  0
    2.3780   -0.0870   -1.2050 N   0  0  0  0  0  0  0  0  0  0  0  0
    1.1110   -0.4140   -0.8190 C   0  0  0  0  0  0  0  0  0  0  0  0
    0.2710   -0.9980   -1.9110 C   0  0  0  0  0  0  0  0  0  0  0  0
  1  2  2  0
  2  3  1  0
  2  6  1  0
  3  4  2  3
  4  5  1  0
  6  7  1  0
  6 12  2  0
  7  8  1  0
  8  9  1  0
  9 10  1  0
  9 11  1  0
 11 12  1  0
 12 13  1  0
M  END
