
     RDKit          3D

 28 30  0  0  0  0  0  0  0  0999 V2000
   -6.5720    2.1670   -0.2490 N   0  0  0  0  0  0  0  0  0  0  0  0
   -5.7580    1.0930   -0.6830 C   0  0  0  0  0  0  0  0  0  0  0  0
   -4.4890    0.9220   -0.2830 N   0  0  0  0  0  0  0  0  0  0  0  0
   -3.7090   -0.1060   -0.6980 C   0  0  0  0  0  0  0  0  0  0  0  0
   -4.2510   -1.0190   -1.5760 C   0  0  0  0  0  0  0  0  0  0  0  0
   -3.2770   -1.9180   -1.8190 N   0  0  0  0  0  0  0  0  0  0  0  0
   -2.1680   -1.5880   -1.1260 C   0  0  0  0  0  0  0  0  0  0  0  0
   -2.4340   -0.4700   -0.4350 N   0  0  0  0  0  0  0  0  0  0  0  0
   -1.5260    0.2380    0.4460 C   0  0  2  0  0  0  0  0  0  0  0  0
   -0.2080   -0.0950    0.1600 O   0  0  0  0  0  0  0  0  0  0  0  0
    0.4910    0.0600    1.3780 C   0  0  2  0  0  0  0  0  0  0  0  0
    1.8140   -0.6020    1.2150 C   0  0  0  0  0  0  0  0  0  0  0  0
    2.4240    0.0540    0.1680 O   0  0  0  0  0  0  0  0  0  0  0  0
    3.8270   -0.3340   -0.3200 P   0  0  0  0  0  0  0  0  0  0  0  0
    3.9010    0.7230   -1.5290 O   0  0  0  0  0  0  0  0  0  0  0  0
    3.3360   -1.8900   -0.6660 O   0  0  0  0  0  0  0  0  0  0  0  0
    5.2710   -0.8240   -0.5450 O   0  0  0  0  0  0  0  0  0  0  0  0
    6.4860    0.1830   -1.0040 P   0  0  0  0  0  0  0  0  0  0  0  0
    6.4990    0.8990   -2.4830 O   0  0  0  0  0  0  0  0  0  0  0  0
    5.8630    1.3840   -0.3150 O   0  0  0  0  0  0  0  0  0  0  0  0
    7.8770    0.3260   -0.0800 O   0  0  0  0  0  0  0  0  0  0  0  0
   -0.4330   -0.6710    2.3240 C   0  0  1  0  0  0  0  0  0  0  0  0
   -0.2130   -0.3450    3.6540 O   0  0  0  0  0  0  0  0  0  0  0  0
   -1.7900   -0.1850    1.8610 C   0  0  1  0  0  0  0  0  0  0  0  0
   -2.1520    0.9550    2.5900 O   0  0  0  0  0  0  0  0  0  0  0  0
   -5.5540   -0.8460   -1.9880 C   0  0  0  0  0  0  0  0  0  0  0  0
   -6.0600   -1.6730   -2.7890 O   0  0  0  0  0  0  0  0  0  0  0  0
   -6.2910    0.1940   -1.5460 N   0  0  0  0  0  0  0  0  0  0  0  0
  1  2  1  0
  2  3  1  0
  2 28  2  0
  3  4  1  0
  4  5  2  0
  4  8  1  0
  5  6  1  0
  5 26  1  0
  6  7  2  0
  7  8  1  0
  9  8  1  6
  9 10  1  0
  9 24  1  0
 10 11  1  0
 11 12  1  6
 11 22  1  0
 12 13  1  0
 13 14  1  0
 14 15  1  0
 14 16  1  0
 14 17  1  0
 17 18  1  0
 18 19  1  0
 18 20  1  0
 18 21  1  0
 22 23  1  1
 22 24  1  0
 24 25  1  1
 26 27  2  0
 26 28  1  0
M  CHG  1  28   1
M  END
