
     RDKit          3D

 11 10  0  0  0  0  0  0  0  0999 V2000
   -0.0070   -0.9970   -1.1930 C   0  0  0  0  0  0  0  0  0  0  0  0
    0.3830   -0.3440    0.0820 C   0  0  1  0  0  0  0  0  0  0  0  0
    1.6650    0.2470    0.0390 O   0  0  0  0  0  0  0  0  0  0  0  0
    2.7300   -0.1440    0.7920 C   0  0  0  0  0  0  0  0  0  0  0  0
    3.9860    0.5040    0.6880 N   0  0  0  0  0  0  0  0  0  0  0  0
    2.6130   -1.0860    1.5910 O   0  0  0  0  0  0  0  0  0  0  0  0
   -0.6540    0.6040    0.6460 C   0  0  1  0  0  0  0  0  0  0  0  0
   -0.9810    1.7380   -0.2820 C   0  0  0  0  0  0  0  0  0  0  0  0
   -1.8600   -0.1190    1.1330 C   0  0  0  0  0  0  0  0  0  0  0  0
   -2.6600   -0.9220    0.2730 N   0  0  0  0  0  0  0  0  0  0  0  0
   -2.2020   -0.0430    2.3000 O   0  0  0  0  0  0  0  0  0  0  0  0
  2  1  1  6
  2  3  1  0
  2  7  1  0
  3  4  1  0
  4  5  1  0
  4  6  2  0
  7  8  1  6
  7  9  1  0
  9 10  1  0
  9 11  2  0
M  CHG  1  10   1
M  END
