
     RDKit          3D

 11 10  0  0  0  0  0  0  0  0999 V2000
    4.0610   -0.1510   -0.0510 C   0  0  0  0  0  0  0  0  0  0  0  0
    2.7160   -0.0200    0.4350 O   0  0  0  0  0  0  0  0  0  0  0  0
    1.7610    0.5910   -0.3690 C   0  0  0  0  0  0  0  0  0  0  0  0
    2.1540    1.0020   -1.5010 O   0  0  0  0  0  0  0  0  0  0  0  0
    0.3650    0.7840   -0.0060 C   0  0  0  0  0  0  0  0  0  0  0  0
   -0.4410   -0.4820    0.0120 C   0  0  1  0  0  0  0  0  0  0  0  0
   -0.4160   -1.1500   -1.3620 C   0  0  0  0  0  0  0  0  0  0  0  0
   -0.1250   -1.3520    1.0150 O   0  0  0  0  0  0  0  0  0  0  0  0
   -1.8800   -0.0590    0.2080 C   0  0  0  0  0  0  0  0  0  0  0  0
   -2.2010    0.7170    1.1580 N   0  0  0  0  0  0  0  0  0  0  0  0
   -3.4940    1.0930    1.3390 N   0  0  0  0  0  0  0  0  0  0  0  0
  1  2  1  0
  2  3  1  0
  3  4  2  0
  3  5  1  0
  5  6  1  0
  6  7  1  6
  6  8  1  0
  6  9  1  0
  9 10  2  3
 10 11  1  0
M  CHG  1  11   1
M  END
