
     RDKit          3D

 11 10  0  0  0  0  0  0  0  0999 V2000
    2.8090   -1.7590    0.3850 C   0  0  0  0  0  0  0  0  0  0  0  0
    1.5800   -1.0550    0.5180 O   0  0  0  0  0  0  0  0  0  0  0  0
    1.4200    0.2270    0.0620 C   0  0  0  0  0  0  0  0  0  0  0  0
    2.3990    0.7970   -0.4920 O   0  0  0  0  0  0  0  0  0  0  0  0
    0.1610    0.9700    0.1890 C   0  0  0  0  0  0  0  0  0  0  0  0
    0.0220    2.1940   -0.2490 C   0  0  0  0  0  0  0  0  0  0  0  0
    1.0700    2.9090   -0.8830 N   0  0  0  0  0  0  0  0  0  0  0  0
   -0.9750    0.2900    0.8360 C   0  0  1  0  0  0  0  0  0  0  0  0
   -2.0700    1.1460    0.9070 O   0  0  0  0  0  0  0  0  0  0  0  0
   -1.4110   -0.9640    0.1230 C   0  0  0  0  0  0  0  0  0  0  0  0
   -2.4850   -1.5840    0.8600 N   0  0  0  0  0  0  0  0  0  0  0  0
  1  2  1  0
  2  3  1  0
  3  4  2  0
  3  5  1  0
  5  6  2  3
  5  8  1  0
  6  7  1  0
  8  9  1  6
  8 10  1  0
 10 11  1  0
M  CHG  1  11   1
M  END
