
     RDKit          3D

 20 22  0  0  0  0  0  0  0  0999 V2000
    5.8990    1.1650    0.4520 C   0  0  0  0  0  0  0  0  0  0  0  0
    4.7270    0.7840   -0.2990 N   0  0  0  0  0  0  0  0  0  0  0  0
    3.5190    0.4940    0.3770 C   0  0  0  0  0  0  0  0  0  0  0  0
    3.4130    0.5590    1.7220 N   0  0  0  0  0  0  0  0  0  0  0  0
    2.2490    0.2750    2.3240 C   0  0  0  0  0  0  0  0  0  0  0  0
    1.1850   -0.0730    1.6000 N   0  0  0  0  0  0  0  0  0  0  0  0
    1.2380   -0.1550    0.2370 C   0  0  0  0  0  0  0  0  0  0  0  0
    2.4190    0.1330   -0.3670 C   0  0  0  0  0  0  0  0  0  0  0  0
    2.2230   -0.0160   -1.6980 N   0  0  0  0  0  0  0  0  0  0  0  0
    0.9430   -0.3870   -1.8810 C   0  0  0  0  0  0  0  0  0  0  0  0
    0.3140   -0.4790   -0.6950 N   0  0  0  0  0  0  0  0  0  0  0  0
   -1.0270   -0.8310   -0.3590 C   0  0  2  0  0  0  0  0  0  0  0  0
   -1.9550   -0.4500   -1.3420 O   0  0  0  0  0  0  0  0  0  0  0  0
   -3.1440   -0.7440   -0.7050 C   0  0  2  0  0  0  0  0  0  0  0  0
   -4.3550   -0.2570   -1.4550 C   0  0  0  0  0  0  0  0  0  0  0  0
   -4.3160    1.1320   -1.6170 O   0  0  0  0  0  0  0  0  0  0  0  0
   -3.0220    0.0480    0.5780 C   0  0  1  0  0  0  0  0  0  0  0  0
   -3.7610   -0.5950    1.5530 O   0  0  0  0  0  0  0  0  0  0  0  0
   -1.5190   -0.0480    0.8380 C   0  0  1  0  0  0  0  0  0  0  0  0
   -1.3660   -0.7680    2.0210 O   0  0  0  0  0  0  0  0  0  0  0  0
  1  2  1  0
  2  3  1  0
  3  4  2  0
  3  8  1  0
  4  5  1  0
  5  6  2  0
  6  7  1  0
  7  8  2  0
  7 11  1  0
  8  9  1  0
  9 10  2  0
 10 11  1  0
 12 11  1  6
 12 13  1  0
 12 19  1  0
 13 14  1  0
 14 15  1  6
 14 17  1  0
 15 16  1  0
 17 18  1  1
 17 19  1  0
 19 20  1  1
M  END
