
     RDKit          3D

 11 10  0  0  0  0  0  0  0  0999 V2000
    4.0470   -0.4590   -0.4170 C   0  0  0  0  0  0  0  0  0  0  0  0
    2.8460    0.1870   -0.0580 O   0  0  0  0  0  0  0  0  0  0  0  0
    1.6820   -0.4870    0.2620 C   0  0  0  0  0  0  0  0  0  0  0  0
    1.7260   -1.7370    0.2230 O   0  0  0  0  0  0  0  0  0  0  0  0
    0.4690    0.2560    0.6270 C   0  0  1  0  0  0  0  0  0  0  0  0
    0.8010    1.6820    0.6420 N   0  0  0  0  0  0  0  0  0  0  0  0
   -0.7090    0.0200   -0.3010 C   0  0  2  0  0  0  0  0  0  0  0  0
   -1.8660    0.8760    0.2290 C   0  0  0  0  0  0  0  0  0  0  0  0
   -3.0560    0.7720   -0.5450 N   0  0  0  0  0  0  0  0  0  0  0  0
   -1.1670   -1.4060   -0.2790 C   0  0  0  0  0  0  0  0  0  0  0  0
   -2.2510   -1.5640   -1.1530 O   0  0  0  0  0  0  0  0  0  0  0  0
  1  2  1  0
  2  3  1  0
  3  4  2  0
  3  5  1  0
  5  6  1  6
  5  7  1  0
  7  8  1  1
  7 10  1  0
  8  9  1  0
 10 11  1  0
M  CHG  1   9   1
M  END
