
     RDKit          3D

 11 10  0  0  0  0  0  0  0  0999 V2000
   -1.2250   -1.9950   -0.6310 C   0  0  0  0  0  0  0  0  0  0  0  0
   -1.1330   -0.5410   -1.0270 C   0  0  0  0  0  0  0  0  0  0  0  0
   -0.4650    0.2020    0.1210 C   0  0  2  0  0  0  0  0  0  0  0  0
   -1.2510    0.0630    1.3310 N   0  0  0  0  0  0  0  0  0  0  0  0
   -0.2930    1.6230   -0.2170 C   0  0  0  0  0  0  0  0  0  0  0  0
   -0.8700    2.6140    0.6130 N   0  0  0  0  0  0  0  0  0  0  0  0
    0.3330    1.9650   -1.1940 O   0  0  0  0  0  0  0  0  0  0  0  0
    0.8780   -0.3690    0.3850 C   0  0  0  0  0  0  0  0  0  0  0  0
    1.1790   -0.8600    1.4880 O   0  0  0  0  0  0  0  0  0  0  0  0
    1.8260   -0.3610   -0.6120 O   0  0  0  0  0  0  0  0  0  0  0  0
    3.1120   -0.9100   -0.3540 C   0  0  0  0  0  0  0  0  0  0  0  0
  1  2  1  0
  2  3  1  0
  3  4  1  1
  3  5  1  0
  3  8  1  0
  5  6  1  0
  5  7  2  0
  8  9  2  0
  8 10  1  0
 10 11  1  0
M  CHG  1   6   1
M  END
