
     RDKit          3D

 11 10  0  0  0  0  0  0  0  0999 V2000
   -0.8340   -1.7750   -1.5790 C   0  0  0  0  0  0  0  0  0  0  0  0
   -1.1570   -0.5150   -1.2350 O   0  0  0  0  0  0  0  0  0  0  0  0
   -0.5830    0.1230   -0.1980 C   0  0  1  0  0  0  0  0  0  0  0  0
   -1.2330    1.5390   -0.1820 C   0  0  0  0  0  0  0  0  0  0  0  0
   -1.0720   -0.4990    1.0610 C   0  0  0  0  0  0  0  0  0  0  0  0
   -0.3740   -0.9870    2.0000 N   0  0  0  0  0  0  0  0  0  0  0  0
   -2.4690   -0.5430    1.2150 O   0  0  0  0  0  0  0  0  0  0  0  0
    0.8730    0.3570   -0.2300 C   0  0  1  0  0  0  0  0  0  0  0  0
    1.3170    1.2790    0.9170 C   0  0  0  0  0  0  0  0  0  0  0  0
    1.7540   -0.7500   -0.2700 N   0  0  0  0  0  0  0  0  0  0  0  0
    1.1060    1.1500   -1.3940 O   0  0  0  0  0  0  0  0  0  0  0  0
  1  2  1  0
  2  3  1  0
  3  4  1  1
  3  5  1  0
  3  8  1  0
  5  6  2  0
  5  7  1  0
  8  9  1  1
  8 10  1  0
  8 11  1  0
M  CHG  1  10   1
M  END
