
     RDKit          3D

 26 27  0  0  0  0  0  0  0  0999 V2000
   -1.0940    1.2870   -0.9690 C   0  0  0  0  0  0  0  0  0  0  0  0
   -0.5730    0.2300   -0.5030 C   0  0  0  0  0  0  0  0  0  0  0  0
    0.7930    0.2930    0.0490 C   0  0  0  0  0  0  0  0  0  0  0  0
    1.0330    1.1690    0.9380 C   0  0  0  0  0  0  0  0  0  0  0  0
   -0.1460    2.3280    1.5500 S   0  0  0  0  0  0  0  0  0  0  0  0
   -0.3370    2.2460    3.3510 C   0  0  0  0  0  0  0  0  0  0  0  0
    1.8740   -0.6110   -0.4170 C   0  0  0  0  0  0  0  0  0  0  0  0
    3.2230   -0.1270   -0.4240 C   0  0  0  0  0  0  0  0  0  0  0  0
    4.1240   -1.0160   -0.7040 O   0  0  0  0  0  0  0  0  0  0  0  0
    3.7300    1.1510   -0.1900 N   0  0  0  0  0  0  0  0  0  0  0  0
    5.1490    1.4180   -0.2240 C   0  0  0  0  0  0  0  0  0  0  0  0
    5.6330    2.9450    0.0630 S   0  0  0  0  0  0  0  0  0  0  0  0
    6.0760    0.4350   -0.4870 O   0  0  0  0  0  0  0  0  0  0  0  0
    7.4010    0.5120   -0.0010 C   0  0  0  0  0  0  0  0  0  0  0  0
    1.6960   -1.8770   -0.8510 C   0  0  0  0  0  0  0  0  0  0  0  0
    0.4660   -2.6540   -0.9820 C   0  0  0  0  0  0  0  0  0  0  0  0
   -0.8060   -2.2500   -0.8950 C   0  0  0  0  0  0  0  0  0  0  0  0
   -1.6770   -3.3410   -1.0870 N   0  0  0  0  0  0  0  0  0  0  0  0
   -2.9200   -3.0990   -0.9400 C   0  0  0  0  0  0  0  0  0  0  0  0
   -3.4910   -1.7860   -0.5880 C   0  0  0  0  0  0  0  0  0  0  0  0
   -4.9620   -1.7760   -0.3630 C   0  0  0  0  0  0  0  0  0  0  0  0
   -5.9110   -2.0820   -1.8210 Cl  0  0  0  0  0  0  0  0  0  0  0  0
   -2.7430   -0.6980   -0.3850 C   0  0  0  0  0  0  0  0  0  0  0  0
   -3.2340    0.6170   -0.0400 C   0  0  0  0  0  0  0  0  0  0  0  0
   -4.5690    1.0320   -0.2160 N   0  0  0  0  0  0  0  0  0  0  0  0
   -1.3400   -0.9720   -0.5620 N   0  0  0  0  0  0  0  0  0  0  0  0
  1  2  2  0
  2  3  1  0
  2 26  1  0
  3  4  2  3
  3  7  1  0
  4  5  1  0
  5  6  1  0
  7  8  1  0
  7 15  2  0
  8  9  2  0
  8 10  1  0
 10 11  1  0
 11 12  2  0
 11 13  1  0
 13 14  1  0
 15 16  1  0
 16 17  2  0
 17 18  1  0
 17 26  1  0
 18 19  2  0
 19 20  1  0
 20 21  1  0
 20 23  2  0
 21 22  1  0
 23 24  1  0
 23 26  1  0
 24 25  1  0
M  CHG  1  25   1
M  END
