
     RDKit          3D

 13 13  0  0  0  0  0  0  0  0999 V2000
    3.8930   -0.0020    0.6510 C   0  0  0  0  0  0  0  0  0  0  0  0
    3.1410   -0.5940    1.6800 O   0  0  0  0  0  0  0  0  0  0  0  0
    1.7690   -0.7260    1.5910 C   0  0  0  0  0  0  0  0  0  0  0  0
    1.0960   -1.4700    2.5940 N   0  0  0  0  0  0  0  0  0  0  0  0
    1.1450   -0.1550    0.5770 C   0  0  0  0  0  0  0  0  0  0  0  0
   -0.2990   -0.2430    0.4040 C   0  0  0  0  0  0  0  0  0  0  0  0
   -0.8410    0.3630   -0.6450 C   0  0  0  0  0  0  0  0  0  0  0  0
   -0.1400    1.0950   -1.6240 O   0  0  0  0  0  0  0  0  0  0  0  0
   -1.0910    1.9370   -2.2450 C   0  0  0  0  0  0  0  0  0  0  0  0
   -2.3020    1.1760   -2.2090 O   0  0  0  0  0  0  0  0  0  0  0  0
   -2.2390    0.4120   -1.0200 C   0  0  0  0  0  0  0  0  0  0  0  0
   -3.2680   -0.1320   -0.4000 C   0  0  0  0  0  0  0  0  0  0  0  0
   -3.1530   -0.8820    0.7800 N   0  0  0  0  0  0  0  0  0  0  0  0
  1  2  1  0
  2  3  1  0
  3  4  1  0
  3  5  2  3
  5  6  1  0
  6  7  2  3
  7  8  1  0
  7 11  1  0
  8  9  1  0
  9 10  1  0
 10 11  1  0
 11 12  2  3
 12 13  1  0
M  END
