
     RDKit          3D

 14 14  0  0  0  0  0  0  0  0999 V2000
    3.4890   -0.0430    0.7780 C   0  0  0  0  0  0  0  0  0  0  0  0
    2.2320    0.2350    0.1890 O   0  0  0  0  0  0  0  0  0  0  0  0
    1.5200   -0.7100   -0.5280 C   0  0  0  0  0  0  0  0  0  0  0  0
    2.0520   -1.8440   -0.6330 O   0  0  0  0  0  0  0  0  0  0  0  0
    0.2040   -0.4670   -1.1610 C   0  0  1  0  0  0  0  0  0  0  0  0
   -0.2320   -1.6160   -1.8290 N   0  0  0  0  0  0  0  0  0  0  0  0
   -0.7750    0.0840   -0.1420 C   0  0  2  0  0  0  0  0  0  0  0  0
   -1.0930   -0.7490    0.8780 O   0  0  0  0  0  0  0  0  0  0  0  0
   -1.6790   -1.9420    0.6130 C   0  0  0  0  0  0  0  0  0  0  0  0
   -2.0120    0.6350   -0.8620 C   0  0  0  0  0  0  0  0  0  0  0  0
   -2.5340    1.4560    0.1330 O   0  0  0  0  0  0  0  0  0  0  0  0
   -1.4470    2.2920    0.3790 C   0  0  0  0  0  0  0  0  0  0  0  0
   -0.2270    1.3950    0.4160 C   0  0  1  0  0  0  0  0  0  0  0  0
    0.2300    1.2610    1.7710 N   0  0  0  0  0  0  0  0  0  0  0  0
  1  2  1  0
  2  3  1  0
  3  4  2  0
  3  5  1  0
  5  6  1  1
  5  7  1  0
  7  8  1  1
  7 10  1  0
  7 13  1  0
  8  9  1  0
 10 11  1  0
 11 12  1  0
 12 13  1  0
 13 14  1  1
M  END
