
     RDKit          3D

 14 15  0  0  0  0  0  0  0  0999 V2000
    2.5050    1.9890   -1.2200 N   0  0  0  0  0  0  0  0  0  0  0  0
    1.3940    1.2900   -0.7480 N   0  0  0  0  0  0  0  0  0  0  0  0
    1.3480    0.0320   -0.6490 C   0  0  0  0  0  0  0  0  0  0  0  0
    2.5010   -0.6680   -1.0480 O   0  0  0  0  0  0  0  0  0  0  0  0
    0.2410   -0.7880   -0.1700 C   0  0  1  0  0  0  0  0  0  0  0  0
   -0.1240   -1.6480   -1.2320 O   0  0  0  0  0  0  0  0  0  0  0  0
    0.7860   -1.7150    0.9190 C   0  0  0  0  0  0  0  0  0  0  0  0
    0.2230   -1.0210    2.1610 C   0  0  0  0  0  0  0  0  0  0  0  0
   -1.0940   -0.7520    1.7250 O   0  0  0  0  0  0  0  0  0  0  0  0
   -0.8900   -0.1510    0.4650 C   0  0  2  0  0  0  0  0  0  0  0  0
   -2.1480   -0.3810   -0.3870 C   0  0  0  0  0  0  0  0  0  0  0  0
   -2.4750    1.0360   -0.8130 C   0  0  0  0  0  0  0  0  0  0  0  0
   -1.2780    1.7690   -0.6340 O   0  0  0  0  0  0  0  0  0  0  0  0
   -0.9210    1.3100    0.6340 C   0  0  0  0  0  0  0  0  0  0  0  0
  1  2  1  0
  2  3  2  3
  3  4  1  0
  3  5  1  0
  5  6  1  6
  5  7  1  0
  5 10  1  0
  7  8  1  0
  8  9  1  0
  9 10  1  0
 10 11  1  6
 10 14  1  0
 11 12  1  0
 12 13  1  0
 13 14  1  0
M  END
