
     RDKit          3D

 13 13  0  0  0  0  0  0  0  0999 V2000
    4.7530   -0.2880    0.9320 N   0  0  0  0  0  0  0  0  0  0  0  0
    3.5420    0.2520    0.3930 C   0  0  0  0  0  0  0  0  0  0  0  0
    2.3650    0.0950    0.9630 C   0  0  0  0  0  0  0  0  0  0  0  0
    2.3690   -0.6390    2.1400 O   0  0  0  0  0  0  0  0  0  0  0  0
    1.1700    0.6700    0.3640 C   0  0  0  0  0  0  0  0  0  0  0  0
    0.1520   -0.2900    0.0110 N   0  0  0  0  0  0  0  0  0  0  0  0
   -0.4770   -0.9250    1.1240 C   0  0  0  0  0  0  0  0  0  0  0  0
   -1.9900   -0.8920    1.0290 C   0  0  0  0  0  0  0  0  0  0  0  0
   -2.3530   -1.3680   -0.2150 O   0  0  0  0  0  0  0  0  0  0  0  0
   -2.0130   -0.3970   -1.1510 C   0  0  1  0  0  0  0  0  0  0  0  0
   -3.2210    0.4550   -1.4430 C   0  0  0  0  0  0  0  0  0  0  0  0
   -2.9230    1.4350   -2.3720 O   0  0  0  0  0  0  0  0  0  0  0  0
   -0.8840    0.4740   -0.6980 C   0  0  0  0  0  0  0  0  0  0  0  0
  1  2  1  0
  2  3  2  3
  3  4  1  0
  3  5  1  0
  5  6  1  0
  6  7  1  0
  6 13  1  0
  7  8  1  0
  8  9  1  0
  9 10  1  0
 10 11  1  1
 10 13  1  0
 11 12  1  0
M  END
