
     RDKit          3D

 10 10  0  0  0  0  0  0  0  0999 V2000
   -2.5210    0.0320   -0.8330 N   0  0  0  0  0  0  0  0  0  0  0  0
   -1.9590    0.3050    0.4770 C   0  0  0  0  0  0  0  0  0  0  0  0
   -0.7350   -0.5160    0.7650 C   0  0  2  0  0  0  0  0  0  0  0  0
   -0.2840   -0.1770    2.0320 O   0  0  0  0  0  0  0  0  0  0  0  0
    0.3740   -0.3310   -0.2150 C   0  0  1  0  0  0  0  0  0  0  0  0
    0.0200   -0.6460   -1.5160 O   0  0  0  0  0  0  0  0  0  0  0  0
    1.0340    1.0030   -0.1820 C   0  0  0  0  0  0  0  0  0  0  0  0
    2.5120    0.6370   -0.1820 C   0  0  0  0  0  0  0  0  0  0  0  0
    2.5730   -0.7150   -0.4820 O   0  0  0  0  0  0  0  0  0  0  0  0
    1.5090   -1.2480    0.2300 C   0  0  0  0  0  0  0  0  0  0  0  0
  1  2  1  0
  2  3  1  0
  3  4  1  1
  3  5  1  0
  5  6  1  6
  5  7  1  0
  5 10  1  0
  7  8  1  0
  8  9  1  0
  9 10  1  0
M  CHG  1   1   1
M  END
