
     RDKit          3D

 10 10  0  0  0  0  0  0  0  0999 V2000
   -2.8250   -0.5660   -0.1140 N   0  0  0  0  0  0  0  0  0  0  0  0
   -1.7430   -0.0540    0.7070 C   0  0  1  0  0  0  0  0  0  0  0  0
   -0.8530   -1.2160    1.0510 C   0  0  0  0  0  0  0  0  0  0  0  0
    0.4140   -0.5980    1.0850 O   0  0  0  0  0  0  0  0  0  0  0  0
    0.4320    0.0090   -0.1690 C   0  0  2  0  0  0  0  0  0  0  0  0
    1.6760    0.8190   -0.4000 C   0  0  0  0  0  0  0  0  0  0  0  0
    2.8580   -0.1430   -0.2870 C   0  0  0  0  0  0  0  0  0  0  0  0
    4.0620    0.5080   -0.4860 O   0  0  0  0  0  0  0  0  0  0  0  0
   -0.8200    0.8420   -0.1300 C   0  0  1  0  0  0  0  0  0  0  0  0
   -1.3970    1.0150   -1.3810 O   0  0  0  0  0  0  0  0  0  0  0  0
  2  1  1  6
  2  3  1  0
  2  9  1  0
  3  4  1  0
  4  5  1  0
  5  6  1  1
  5  9  1  0
  6  7  1  0
  7  8  1  0
  9 10  1  6
M  CHG  1   1   1
M  END
