
     RDKit          3D

 10 10  0  0  0  0  0  0  0  0999 V2000
   -1.6910    1.4040   -0.1830 N   0  0  0  0  0  0  0  0  0  0  0  0
   -0.9890    0.2310    0.2410 C   0  0  1  0  0  0  0  0  0  0  0  0
   -1.9700   -0.9430    0.2360 C   0  0  0  0  0  0  0  0  0  0  0  0
   -3.0410   -0.7110    1.0990 O   0  0  0  0  0  0  0  0  0  0  0  0
    0.1570   -0.1550   -0.6450 C   0  0  1  0  0  0  0  0  0  0  0  0
    1.1500    0.9330   -0.8750 C   0  0  0  0  0  0  0  0  0  0  0  0
    2.3790    0.3160   -1.1880 O   0  0  0  0  0  0  0  0  0  0  0  0
    2.8470   -0.2340    0.0210 C   0  0  0  0  0  0  0  0  0  0  0  0
    1.7660   -0.9670    0.7640 C   0  0  0  0  0  0  0  0  0  0  0  0
    0.7330   -1.3120   -0.0950 O   0  0  0  0  0  0  0  0  0  0  0  0
  2  1  1  6
  2  3  1  0
  2  5  1  0
  3  4  1  0
  5  6  1  1
  5 10  1  0
  6  7  1  0
  7  8  1  0
  8  9  1  0
  9 10  1  0
M  CHG  1   1   1
M  END
