
     RDKit          3D

 10 10  0  0  0  0  0  0  0  0999 V2000
   -2.0740    1.3400   -1.1670 O   0  0  0  0  0  0  0  0  0  0  0  0
   -1.2880    1.4230   -0.0330 C   0  0  0  0  0  0  0  0  0  0  0  0
   -0.4460    0.1630    0.0290 C   0  0  2  0  0  0  0  0  0  0  0  0
   -1.3610   -1.0290    0.1480 C   0  0  0  0  0  0  0  0  0  0  0  0
   -2.1920   -0.9320    1.2540 O   0  0  0  0  0  0  0  0  0  0  0  0
    0.5290    0.2860    1.1550 C   0  0  0  0  0  0  0  0  0  0  0  0
    1.8250   -0.3460    0.6690 C   0  0  2  0  0  0  0  0  0  0  0  0
    2.8270    0.5950    0.4890 O   0  0  0  0  0  0  0  0  0  0  0  0
    1.4500   -0.8920   -0.6850 C   0  0  0  0  0  0  0  0  0  0  0  0
    0.4010    0.0250   -1.1330 N   0  0  0  0  0  0  0  0  0  0  0  0
  1  2  1  0
  3  2  1  6
  3  4  1  0
  3  6  1  0
  3 10  1  0
  4  5  1  0
  6  7  1  0
  7  8  1  6
  7  9  1  0
  9 10  1  0
M  CHG  1  10   1
M  END
