
     RDKit          3D

 10 10  0  0  0  0  0  0  0  0999 V2000
   -2.8240   -0.4440    0.0190 N   0  0  0  0  0  0  0  0  0  0  0  0
   -1.4440   -0.0790    0.3080 C   0  0  1  0  0  0  0  0  0  0  0  0
   -0.5730   -1.3060    0.3860 C   0  0  0  0  0  0  0  0  0  0  0  0
    0.7250   -0.9420    0.6560 O   0  0  0  0  0  0  0  0  0  0  0  0
    1.2660   -0.2620   -0.4300 C   0  0  2  0  0  0  0  0  0  0  0  0
    2.7270    0.0560   -0.2170 C   0  0  0  0  0  0  0  0  0  0  0  0
    3.4970   -1.0930   -0.0350 O   0  0  0  0  0  0  0  0  0  0  0  0
    0.5170    1.0110   -0.6470 C   0  0  2  0  0  0  0  0  0  0  0  0
    0.6950    1.9190    0.3920 O   0  0  0  0  0  0  0  0  0  0  0  0
   -0.9630    0.7610   -0.8520 C   0  0  0  0  0  0  0  0  0  0  0  0
  2  1  1  6
  2  3  1  0
  2 10  1  0
  3  4  1  0
  4  5  1  0
  5  6  1  1
  5  8  1  0
  6  7  1  0
  8  9  1  1
  8 10  1  0
M  CHG  1   1   1
M  END
