
     RDKit          3D

 22 22  0  0  0  0  0  0  0  0999 V2000
   -0.5960   -2.7780    1.4930 C   0  0  0  0  0  0  0  0  0  0  0  0
   -1.5790   -2.4820    0.6370 C   0  0  0  0  0  0  0  0  0  0  0  0
   -2.4030   -3.6520    0.1650 C   0  0  0  0  0  0  0  0  0  0  0  0
   -1.7890   -1.1240    0.1970 C   0  0  0  0  0  0  0  0  0  0  0  0
   -2.8190   -0.8270   -0.6080 C   0  0  0  0  0  0  0  0  0  0  0  0
   -3.8690   -1.6070   -1.1970 C   0  0  0  0  0  0  0  0  0  0  0  0
   -0.9890    0.0050    0.6870 C   0  0  2  0  0  0  0  0  0  0  0  0
   -1.7610    1.2090    0.9740 C   0  0  0  0  0  0  0  0  0  0  0  0
   -3.1370    1.2510    1.5330 C   0  0  0  0  0  0  0  0  0  0  0  0
   -0.9520    2.2420    0.6230 C   0  0  0  0  0  0  0  0  0  0  0  0
   -1.4170    3.5960    0.7880 C   0  0  0  0  0  0  0  0  0  0  0  0
   -0.7000    4.8240    0.4980 C   0  0  0  0  0  0  0  0  0  0  0  0
   -2.6130    3.7710    1.2520 O   0  0  0  0  0  0  0  0  0  0  0  0
    0.2970    1.7530    0.0890 C   0  0  0  0  0  0  0  0  0  0  0  0
    1.4260    2.5950   -0.4190 C   0  0  0  0  0  0  0  0  0  0  0  0
    0.2860    0.3800    0.1100 C   0  0  0  0  0  0  0  0  0  0  0  0
    1.3650   -0.4190   -0.3990 C   0  0  0  0  0  0  0  0  0  0  0  0
    1.2670   -1.7120   -0.3780 O   0  0  0  0  0  0  0  0  0  0  0  0
    2.6510    0.0630   -0.9740 C   0  0  0  0  0  0  0  0  0  0  0  0
    3.6040   -1.1480   -1.1140 C   0  0  2  0  0  0  0  0  0  0  0  0
    3.8600   -1.7670    0.2330 C   0  0  0  0  0  0  0  0  0  0  0  0
    4.9130   -0.6890   -1.6880 C   0  0  0  0  0  0  0  0  0  0  0  0
  1  2  2  0
  2  3  1  0
  2  4  1  0
  4  5  2  3
  7  4  1  6
  5  6  1  0
  7  8  1  0
  7 16  1  0
  8  9  1  0
  8 10  2  0
 10 11  1  0
 10 14  1  0
 11 12  1  0
 11 13  2  0
 14 15  1  0
 14 16  2  0
 16 17  1  0
 17 18  2  0
 17 19  1  0
 19 20  1  0
 20 21  1  1
 20 22  1  0
M  END
