
     RDKit          3D

 10 10  0  0  0  0  0  0  0  0999 V2000
   -3.1160   -0.6200    0.4090 O   0  0  0  0  0  0  0  0  0  0  0  0
   -2.3180    0.3960   -0.0550 C   0  0  0  0  0  0  0  0  0  0  0  0
   -0.8670    0.0750    0.2510 C   0  0  1  0  0  0  0  0  0  0  0  0
   -0.4650   -1.2250   -0.4270 C   0  0  0  0  0  0  0  0  0  0  0  0
    0.9110   -1.5130   -0.1070 N   0  0  0  0  0  0  0  0  0  0  0  0
    1.4940   -0.5340    0.7800 C   0  0  0  0  0  0  0  0  0  0  0  0
    1.4430    0.8620    0.2140 C   0  0  1  0  0  0  0  0  0  0  0  0
    2.4110    1.0510   -0.7470 O   0  0  0  0  0  0  0  0  0  0  0  0
    0.0580    1.1470   -0.2930 C   0  0  2  0  0  0  0  0  0  0  0  0
   -0.3500    2.4230    0.0320 O   0  0  0  0  0  0  0  0  0  0  0  0
  1  2  1  0
  3  2  1  6
  3  4  1  0
  3  9  1  0
  4  5  1  0
  5  6  1  0
  6  7  1  0
  7  8  1  6
  7  9  1  0
  9 10  1  1
M  CHG  1   5   1
M  END
