
     RDKit          3D

 18 19  0  0  0  0  0  0  0  0999 V2000
   -5.0800   -1.9580   -0.1860 C   0  0  0  0  0  0  0  0  0  0  0  0
   -4.9110   -0.4650   -0.1490 C   0  0  0  0  0  0  0  0  0  0  0  0
   -5.8940    0.4010   -0.1500 C   0  0  0  0  0  0  0  0  0  0  0  0
   -5.3130    1.7410   -0.1080 C   0  0  0  0  0  0  0  0  0  0  0  0
   -3.8530    1.5250   -0.0830 C   0  0  0  0  0  0  0  0  0  0  0  0
   -3.6200    0.2340   -0.1060 C   0  0  0  0  0  0  0  0  0  0  0  0
   -2.3450   -0.4510   -0.0950 N   0  0  0  0  0  0  0  0  0  0  0  0
   -1.0970    0.1950   -0.0540 C   0  0  0  0  0  0  0  0  0  0  0  0
   -1.0270    1.4370   -0.0250 O   0  0  0  0  0  0  0  0  0  0  0  0
    0.1210   -0.6190   -0.0470 C   0  0  0  0  0  0  0  0  0  0  0  0
    0.0630   -1.8750   -0.0760 O   0  0  0  0  0  0  0  0  0  0  0  0
    1.3700    0.0100   -0.0070 N   0  0  0  0  0  0  0  0  0  0  0  0
    2.6430   -0.6870    0.0050 C   0  0  1  0  0  0  0  0  0  0  0  0
    3.4240   -0.2640   -1.1880 C   0  0  0  0  0  0  0  0  0  0  0  0
    4.8800   -0.0380   -0.9680 C   0  0  0  0  0  0  0  0  0  0  0  0
    5.2400    0.5950    0.3240 C   0  0  0  0  0  0  0  0  0  0  0  0
    4.0520    0.8870    1.2170 C   0  0  0  0  0  0  0  0  0  0  0  0
    3.2970   -0.4190    1.3220 C   0  0  0  0  0  0  0  0  0  0  0  0
  1  2  1  0
  2  3  2  0
  2  6  1  0
  3  4  1  0
  4  5  1  0
  5  6  2  0
  6  7  1  0
  7  8  1  0
  8  9  2  0
  8 10  1  0
 10 11  2  0
 10 12  1  0
 13 12  1  1
 13 14  1  0
 13 18  1  0
 14 15  1  0
 15 16  1  0
 16 17  1  0
 17 18  1  0
M  END
