
     RDKit          3D

 18 19  0  0  0  0  0  0  0  0999 V2000
   -3.9560    2.1590    0.1680 C   0  0  0  0  0  0  0  0  0  0  0  0
   -2.9780    1.7260    0.8920 C   0  0  0  0  0  0  0  0  0  0  0  0
   -2.0390    0.7010    0.4970 C   0  0  0  0  0  0  0  0  0  0  0  0
   -0.7080    0.8150    0.9230 C   0  0  0  0  0  0  0  0  0  0  0  0
    0.2660   -0.1150    0.6270 C   0  0  0  0  0  0  0  0  0  0  0  0
    1.6050    0.0830    1.1530 C   0  0  0  0  0  0  0  0  0  0  0  0
    2.7000    0.2500    0.4580 C   0  0  0  0  0  0  0  0  0  0  0  0
    2.9320    0.2970   -0.9680 C   0  0  0  0  0  0  0  0  0  0  0  0
    2.0940    0.2090   -1.8850 O   0  0  0  0  0  0  0  0  0  0  0  0
    4.3500    0.4730   -1.1860 N   0  0  0  0  0  0  0  0  0  0  0  0
    4.9950    0.5360    0.0430 N   0  0  0  0  0  0  0  0  0  0  0  0
    4.0310    0.4050    1.0610 C   0  0  0  0  0  0  0  0  0  0  0  0
    4.2890    0.4220    2.3050 O   0  0  0  0  0  0  0  0  0  0  0  0
   -0.1370   -1.1940   -0.1240 C   0  0  0  0  0  0  0  0  0  0  0  0
    0.8430   -2.2680   -0.4380 C   0  0  0  0  0  0  0  0  0  0  0  0
   -1.4350   -1.3170   -0.5460 C   0  0  0  0  0  0  0  0  0  0  0  0
   -2.4260   -0.3710   -0.2460 C   0  0  0  0  0  0  0  0  0  0  0  0
   -3.8210   -0.6270   -0.7280 C   0  0  0  0  0  0  0  0  0  0  0  0
  1  2  2  0
  2  3  1  0
  3  4  2  0
  3 17  1  0
  4  5  1  0
  5  6  1  0
  5 14  2  0
  6  7  2  3
  7  8  1  0
  7 12  1  0
  8  9  2  0
  8 10  1  0
 10 11  1  0
 11 12  1  0
 12 13  2  0
 14 15  1  0
 14 16  1  0
 16 17  2  0
 17 18  1  0
M  END
