
     RDKit          3D

 23 23  0  0  0  0  0  0  0  0999 V2000
   -6.4490   -2.1250   -0.8520 C   0  0  0  0  0  0  0  0  0  0  0  0
   -5.9700   -0.7520   -0.4020 C   0  0  2  0  0  0  0  0  0  0  0  0
   -6.5950   -0.3990    0.9140 C   0  0  0  0  0  0  0  0  0  0  0  0
   -6.4300    0.2360   -1.4410 C   0  0  0  0  0  0  0  0  0  0  0  0
   -4.5510   -0.8250   -0.3170 O   0  0  0  0  0  0  0  0  0  0  0  0
   -3.8040    0.2790    0.0730 C   0  0  0  0  0  0  0  0  0  0  0  0
   -4.4490    1.3250    0.3410 O   0  0  0  0  0  0  0  0  0  0  0  0
   -2.3770    0.2370    0.1670 N   0  0  0  0  0  0  0  0  0  0  0  0
   -1.7210    1.4600    0.5870 C   0  0  0  0  0  0  0  0  0  0  0  0
   -0.2300    1.3170    0.6550 C   0  0  0  0  0  0  0  0  0  0  0  0
    0.2190    0.2510    1.6270 C   0  0  0  0  0  0  0  0  0  0  0  0
    1.7240    0.2140    1.5960 C   0  0  0  0  0  0  0  0  0  0  0  0
    2.1900   -0.0970    0.2830 O   0  0  0  0  0  0  0  0  0  0  0  0
    3.5540   -0.1760    0.0590 C   0  0  0  0  0  0  0  0  0  0  0  0
    4.0400   -0.4740   -1.1960 C   0  0  0  0  0  0  0  0  0  0  0  0
    5.4030   -0.5590   -1.4480 C   0  0  0  0  0  0  0  0  0  0  0  0
    6.3220   -0.3470   -0.4460 C   0  0  0  0  0  0  0  0  0  0  0  0
    8.0410   -0.4510   -0.7490 S   0  0  1  0  0  0  0  0  0  0  0  0
    8.6160    1.1000   -1.2080 N   0  0  0  0  0  0  0  0  0  0  0  0
    8.6990   -0.7860    0.5800 O   0  0  0  0  0  0  0  0  0  0  0  0
    8.3570   -1.5150   -1.7340 O   0  0  0  0  0  0  0  0  0  0  0  0
    5.8360   -0.0480    0.8120 C   0  0  0  0  0  0  0  0  0  0  0  0
    4.4850    0.0350    1.0590 C   0  0  0  0  0  0  0  0  0  0  0  0
  2  1  1  6
  2  3  1  0
  2  4  1  0
  2  5  1  0
  5  6  1  0
  6  7  2  0
  6  8  1  0
  8  9  1  0
  9 10  1  0
 10 11  1  0
 11 12  1  0
 12 13  1  0
 13 14  1  0
 14 15  2  0
 14 23  1  0
 15 16  1  0
 16 17  2  0
 17 18  1  0
 17 22  1  0
 18 19  1  6
 18 20  2  0
 18 21  2  0
 22 23  2  0
M  END
