
     RDKit          3D

 18 18  0  0  0  0  0  0  0  0999 V2000
    6.0040    1.2120    0.3320 C   0  0  0  0  0  0  0  0  0  0  0  0
    5.5260   -0.0400   -0.4320 C   0  0  0  0  0  0  0  0  0  0  0  0
    4.1400    0.2180   -0.7940 C   0  0  0  0  0  0  0  0  0  0  0  0
    3.1170   -0.5380   -0.4200 C   0  0  0  0  0  0  0  0  0  0  0  0
    1.7500   -0.2080   -0.8280 C   0  0  0  0  0  0  0  0  0  0  0  0
    0.6910   -0.8970   -0.5060 C   0  0  0  0  0  0  0  0  0  0  0  0
   -0.6000   -0.4440   -0.9870 N   0  0  0  0  0  0  0  0  0  0  0  0
   -1.6530   -0.0920   -0.1040 C   0  0  0  0  0  0  0  0  0  0  0  0
   -1.4210   -0.1910    1.1270 O   0  0  0  0  0  0  0  0  0  0  0  0
   -2.9440    0.3620   -0.6680 C   0  0  0  0  0  0  0  0  0  0  0  0
   -3.9590    0.6970    0.3860 C   0  0  1  0  0  0  0  0  0  0  0  0
   -5.2300    1.1470   -0.3020 C   0  0  0  0  0  0  0  0  0  0  0  0
   -4.2520   -0.4190    1.3260 C   0  0  0  0  0  0  0  0  0  0  0  0
   -3.4620    1.9000    1.1910 C   0  0  0  0  0  0  0  0  0  0  0  0
    0.7630   -2.1020    0.3150 C   0  0  0  0  0  0  0  0  0  0  0  0
    2.1230   -2.4490    0.7340 C   0  0  0  0  0  0  0  0  0  0  0  0
    2.3180   -3.4730    1.4510 O   0  0  0  0  0  0  0  0  0  0  0  0
    3.2890   -1.6910    0.3810 N   0  0  0  0  0  0  0  0  0  0  0  0
  1  2  1  0
  2  3  1  0
  3  4  2  3
  4  5  1  0
  4 18  1  0
  5  6  2  0
  6  7  1  0
  6 15  1  0
  7  8  1  0
  8  9  2  0
  8 10  1  0
 10 11  1  0
 11 12  1  6
 11 13  1  0
 11 14  1  0
 15 16  1  0
 16 17  2  0
 16 18  1  0
M  END
