
     RDKit          3D

 18 19  0  0  0  0  0  0  0  0999 V2000
   -3.5910    1.8060    0.1850 C   0  0  0  0  0  0  0  0  0  0  0  0
   -3.7870    0.3250    0.1510 C   0  0  0  0  0  0  0  0  0  0  0  0
   -2.9280   -0.6060   -0.1180 C   0  0  0  0  0  0  0  0  0  0  0  0
   -1.5590   -0.5890   -0.4610 N   0  0  0  0  0  0  0  0  0  0  0  0
   -0.6580    0.4620   -0.6290 C   0  0  0  0  0  0  0  0  0  0  0  0
   -1.0250    1.6290   -0.4710 O   0  0  0  0  0  0  0  0  0  0  0  0
    0.7520    0.1700   -1.0010 C   0  0  0  0  0  0  0  0  0  0  0  0
    1.1890   -0.9880   -1.1750 O   0  0  0  0  0  0  0  0  0  0  0  0
    1.6410    1.2620   -1.1630 N   0  0  0  0  0  0  0  0  0  0  0  0
    3.0210    1.0360   -1.5140 C   0  0  0  0  0  0  0  0  0  0  0  0
    3.7660    0.2540   -0.4760 C   0  0  0  0  0  0  0  0  0  0  0  0
    3.2630   -0.1650    0.6660 C   0  0  0  0  0  0  0  0  0  0  0  0
    4.3330   -0.8930    1.3840 C   0  0  0  0  0  0  0  0  0  0  0  0
    5.4860   -0.8160    0.4840 C   0  0  0  0  0  0  0  0  0  0  0  0
    5.1600   -0.1530   -0.5910 C   0  0  0  0  0  0  0  0  0  0  0  0
   -3.6720   -1.9000   -0.0030 C   0  0  0  0  0  0  0  0  0  0  0  0
   -4.9180   -1.6900    0.3220 C   0  0  0  0  0  0  0  0  0  0  0  0
   -5.1550   -0.2640    0.4620 C   0  0  0  0  0  0  0  0  0  0  0  0
  1  2  1  0
  2  3  2  0
  2 18  1  0
  3  4  1  0
  3 16  1  0
  4  5  1  0
  5  6  2  0
  5  7  1  0
  7  8  2  0
  7  9  1  0
  9 10  1  0
 10 11  1  0
 11 12  2  0
 11 15  1  0
 12 13  1  0
 13 14  1  0
 14 15  2  0
 16 17  2  0
 17 18  1  0
M  END
