
     RDKit          3D

 18 19  0  0  0  0  0  0  0  0999 V2000
   -4.2270   -0.3870   -1.7300 C   0  0  0  0  0  0  0  0  0  0  0  0
   -3.1860   -1.3980   -1.3760 C   0  0  0  0  0  0  0  0  0  0  0  0
   -2.3350   -1.0130   -0.2500 C   0  0  0  0  0  0  0  0  0  0  0  0
   -1.0410   -0.5730   -0.5200 C   0  0  0  0  0  0  0  0  0  0  0  0
   -0.1940   -0.1980    0.5060 C   0  0  0  0  0  0  0  0  0  0  0  0
    1.1240    0.2590    0.3620 N   0  0  0  0  0  0  0  0  0  0  0  0
    1.8110    0.4160   -0.8680 C   0  0  0  0  0  0  0  0  0  0  0  0
    1.2790    0.1490   -1.9730 O   0  0  0  0  0  0  0  0  0  0  0  0
    3.1990    0.9100   -0.8510 C   0  0  0  0  0  0  0  0  0  0  0  0
    3.9740    1.1100   -1.9020 C   0  0  0  0  0  0  0  0  0  0  0  0
    5.3140    1.6160   -1.4690 C   0  0  0  0  0  0  0  0  0  0  0  0
    5.1630    1.6640   -0.0350 N   0  0  0  0  0  0  0  0  0  0  0  0
    3.9770    1.2690    0.3270 C   0  0  0  0  0  0  0  0  0  0  0  0
   -0.6850   -0.2770    1.8200 C   0  0  0  0  0  0  0  0  0  0  0  0
    0.2000    0.1180    2.9390 C   0  0  0  0  0  0  0  0  0  0  0  0
   -1.9560   -0.7080    2.1060 C   0  0  0  0  0  0  0  0  0  0  0  0
   -2.7880   -1.0800    1.0480 C   0  0  0  0  0  0  0  0  0  0  0  0
   -4.0740   -1.5210    1.2630 O   0  0  0  0  0  0  0  0  0  0  0  0
  1  2  1  0
  2  3  1  0
  3  4  2  0
  3 17  1  0
  4  5  1  0
  5  6  1  0
  5 14  2  0
  6  7  1  0
  7  8  2  0
  7  9  1  0
  9 10  2  0
  9 13  1  0
 10 11  1  0
 11 12  1  0
 12 13  2  0
 14 15  1  0
 14 16  1  0
 16 17  2  0
 17 18  1  0
M  END
