
     RDKit          3D

 18 19  0  0  0  0  0  0  0  0999 V2000
    5.2190    1.1240   -0.5010 C   0  0  0  0  0  0  0  0  0  0  0  0
    3.8440    0.6030   -0.3840 N   0  0  0  0  0  0  0  0  0  0  0  0
    3.6490   -0.7800   -0.4640 C   0  0  0  0  0  0  0  0  0  0  0  0
    4.7690   -1.4660   -0.6410 O   0  0  0  0  0  0  0  0  0  0  0  0
    2.4750   -1.5780   -0.3900 C   0  0  0  0  0  0  0  0  0  0  0  0
    2.7140   -3.0330   -0.5240 C   0  0  0  0  0  0  0  0  0  0  0  0
    1.7840   -3.8290   -0.4780 O   0  0  0  0  0  0  0  0  0  0  0  0
    1.2440   -1.1530   -0.2200 C   0  0  0  0  0  0  0  0  0  0  0  0
    0.8290    0.2470   -0.0700 C   0  0  0  0  0  0  0  0  0  0  0  0
   -0.6490    0.2140    0.1010 C   0  0  0  0  0  0  0  0  0  0  0  0
   -1.5270    1.2890    0.2850 C   0  0  0  0  0  0  0  0  0  0  0  0
   -2.8770    1.0390    0.4220 C   0  0  0  0  0  0  0  0  0  0  0  0
   -3.8700    2.1330    0.6210 C   0  0  0  0  0  0  0  0  0  0  0  0
   -3.3230   -0.2680    0.3740 C   0  0  0  0  0  0  0  0  0  0  0  0
   -4.7940   -0.5480    0.5240 C   0  0  0  0  0  0  0  0  0  0  0  0
   -2.4340   -1.3100    0.1920 C   0  0  0  0  0  0  0  0  0  0  0  0
   -1.0640   -1.0660    0.0520 C   0  0  0  0  0  0  0  0  0  0  0  0
    0.0460   -1.9330   -0.1410 N   0  0  0  0  0  0  0  0  0  0  0  0
  1  2  1  0
  2  3  1  0
  3  4  2  0
  3  5  1  0
  5  6  1  0
  5  8  2  3
  6  7  2  0
  8  9  1  0
  8 18  1  0
  9 10  1  0
 10 11  2  0
 10 17  1  0
 11 12  1  0
 12 13  1  0
 12 14  2  0
 14 15  1  0
 14 16  1  0
 16 17  2  0
 17 18  1  0
M  END
