
     RDKit          3D

 18 19  0  0  0  0  0  0  0  0999 V2000
    4.1570   -1.5720   -0.1160 N   0  0  0  0  0  0  0  0  0  0  0  0
    2.9410   -1.8320   -0.8290 C   0  0  0  0  0  0  0  0  0  0  0  0
    1.9260   -0.9680   -0.7300 C   0  0  0  0  0  0  0  0  0  0  0  0
    2.0420    0.2060    0.0770 C   0  0  0  0  0  0  0  0  0  0  0  0
    1.1770    1.1460    0.2930 C   0  0  0  0  0  0  0  0  0  0  0  0
    1.5070    2.2970    1.1810 C   0  0  0  0  0  0  0  0  0  0  0  0
    2.6230    2.3470    1.7140 O   0  0  0  0  0  0  0  0  0  0  0  0
    0.5740    3.3730    1.4520 C   0  0  0  0  0  0  0  0  0  0  0  0
   -0.6210    3.3410    0.8950 C   0  0  0  0  0  0  0  0  0  0  0  0
   -0.9670    2.2350    0.0300 C   0  0  0  0  0  0  0  0  0  0  0  0
   -0.1650    1.2120   -0.2670 C   0  0  0  0  0  0  0  0  0  0  0  0
   -0.6290    0.2070   -1.1190 O   0  0  0  0  0  0  0  0  0  0  0  0
   -1.6830   -0.6060   -0.6610 C   0  0  0  0  0  0  0  0  0  0  0  0
   -2.1870   -1.6160   -1.4640 C   0  0  0  0  0  0  0  0  0  0  0  0
   -3.2180   -2.4030   -1.0030 C   0  0  0  0  0  0  0  0  0  0  0  0
   -3.7870   -2.2330    0.2420 C   0  0  0  0  0  0  0  0  0  0  0  0
   -3.2820   -1.2490    1.0020 N   0  0  0  0  0  0  0  0  0  0  0  0
   -2.2630   -0.4510    0.5790 C   0  0  0  0  0  0  0  0  0  0  0  0
  1  2  1  0
  2  3  2  3
  3  4  1  0
  4  5  2  3
  5  6  1  0
  5 11  1  0
  6  7  2  0
  6  8  1  0
  8  9  2  0
  9 10  1  0
 10 11  2  0
 11 12  1  0
 12 13  1  0
 13 14  2  0
 13 18  1  0
 14 15  1  0
 15 16  2  0
 16 17  1  0
 17 18  2  0
M  END
