
     RDKit          3D

 18 19  0  0  0  0  0  0  0  0999 V2000
   -0.9630   -1.5030    0.3420 O   0  0  0  0  0  0  0  0  0  0  0  0
   -0.6290   -0.3320    0.0020 C   0  0  0  0  0  0  0  0  0  0  0  0
    0.8040    0.0180   -0.0930 C   0  0  0  0  0  0  0  0  0  0  0  0
    1.7000   -0.9060    0.1810 C   0  0  0  0  0  0  0  0  0  0  0  0
    3.1040   -0.6230    0.1050 C   0  0  0  0  0  0  0  0  0  0  0  0
    3.9880   -1.5610    0.3830 C   0  0  0  0  0  0  0  0  0  0  0  0
    5.3880   -1.3380    0.3250 N   0  0  0  0  0  0  0  0  0  0  0  0
    5.9430   -0.0710   -0.0420 C   0  0  0  0  0  0  0  0  0  0  0  0
    4.9190    0.9350   -0.3400 C   0  0  0  0  0  0  0  0  0  0  0  0
    3.6190    0.6670   -0.2680 C   0  0  0  0  0  0  0  0  0  0  0  0
   -1.5930    0.6470   -0.2880 N   0  0  0  0  0  0  0  0  0  0  0  0
   -2.9860    0.4810   -0.2410 C   0  0  0  0  0  0  0  0  0  0  0  0
   -3.7740    1.4690   -0.8230 C   0  0  0  0  0  0  0  0  0  0  0  0
   -5.1390    1.3480   -0.7820 C   0  0  0  0  0  0  0  0  0  0  0  0
   -5.7420    0.2690   -0.1760 C   0  0  0  0  0  0  0  0  0  0  0  0
   -7.1460    0.1750   -0.1510 O   0  0  0  0  0  0  0  0  0  0  0  0
   -4.9690   -0.7010    0.3960 C   0  0  0  0  0  0  0  0  0  0  0  0
   -3.5780   -0.5880    0.3600 C   0  0  0  0  0  0  0  0  0  0  0  0
  1  2  2  0
  2  3  1  0
  2 11  1  0
  3  4  2  3
  4  5  1  0
  5  6  2  0
  5 10  1  0
  6  7  1  0
  7  8  1  0
  8  9  1  0
  9 10  2  0
 11 12  1  0
 12 13  2  0
 12 18  1  0
 13 14  1  0
 14 15  2  0
 15 16  1  0
 15 17  1  0
 17 18  2  0
M  END
