
     RDKit          3D

 15 16  0  0  0  0  0  0  0  0999 V2000
   -2.5930    1.8910    0.8540 C   0  0  0  0  0  0  0  0  0  0  0  0
   -2.9020    0.6540    0.0870 C   0  0  2  0  0  0  0  0  0  0  0  0
   -4.4630   -0.0750    0.6850 S   0  0  0  0  0  0  0  0  0  0  0  0
   -4.3740   -1.7870    0.5730 O   0  0  0  0  0  0  0  0  0  0  0  0
   -3.5980   -2.2680   -0.8680 S   0  0  0  0  0  0  0  0  0  0  0  0
   -2.0530   -1.3350   -1.0280 C   0  0  0  0  0  0  0  0  0  0  0  0
   -1.8560   -0.4100    0.1670 C   0  0  1  0  0  0  0  0  0  0  0  0
   -0.5120    0.0640    0.1370 N   0  0  0  0  0  0  0  0  0  0  0  0
    0.3320   -0.9540    0.7340 C   0  0  0  0  0  0  0  0  0  0  0  0
    1.7990   -0.6950    0.4590 C   0  0  2  0  0  0  0  0  0  0  0  0
    2.1550    0.5980    1.1640 C   0  0  0  0  0  0  0  0  0  0  0  0
    3.9820    0.7380    1.0200 S   0  0  0  0  0  0  0  0  0  0  0  0
    4.2910    0.1440   -0.6930 C   0  0  0  0  0  0  0  0  0  0  0  0
    2.9100    0.2320   -1.3570 C   0  0  0  0  0  0  0  0  0  0  0  0
    2.0300   -0.6900   -0.8800 O   0  0  0  0  0  0  0  0  0  0  0  0
  2  1  1  1
  2  3  1  0
  2  7  1  0
  3  4  1  0
  4  5  1  0
  5  6  1  0
  6  7  1  0
  7  8  1  6
  8  9  1  0
 10  9  1  6
 10 11  1  0
 10 15  1  0
 11 12  1  0
 12 13  1  0
 13 14  1  0
 14 15  1  0
M  CHG  1   8   1
M  END
