
     RDKit          3D

 27 28  0  0  0  0  0  0  0  0999 V2000
    7.0410    0.4900   -1.0710 C   0  0  0  0  0  0  0  0  0  0  0  0
    6.9820    0.1250    0.3820 C   0  0  0  0  0  0  0  0  0  0  0  0
    5.6610    0.0370    0.8480 O   0  0  0  0  0  0  0  0  0  0  0  0
    4.7140   -0.8300    0.3490 C   0  0  0  0  0  0  0  0  0  0  0  0
    5.0570   -1.5940   -0.5870 O   0  0  0  0  0  0  0  0  0  0  0  0
    3.3510   -0.8220    0.9330 C   0  0  0  0  0  0  0  0  0  0  0  0
    2.4500   -1.8370    0.2700 C   0  0  0  0  0  0  0  0  0  0  0  0
    1.0910   -1.8650    0.8090 C   0  0  0  0  0  0  0  0  0  0  0  0
    0.9660   -2.5590    1.8840 O   0  0  0  0  0  0  0  0  0  0  0  0
   -0.0990   -1.2220    0.2870 C   0  0  0  0  0  0  0  0  0  0  0  0
   -0.2290   -0.4300   -0.8270 C   0  0  0  0  0  0  0  0  0  0  0  0
    0.8150    0.0040   -1.8030 C   0  0  0  0  0  0  0  0  0  0  0  0
   -1.5380   -0.0580   -0.9350 N   0  0  0  0  0  0  0  0  0  0  0  0
   -2.2240   -0.5970    0.0840 C   0  0  0  0  0  0  0  0  0  0  0  0
   -3.6670   -0.4230    0.3170 C   0  0  0  0  0  0  0  0  0  0  0  0
   -4.3340   -1.3330    0.8710 O   0  0  0  0  0  0  0  0  0  0  0  0
   -4.3990    0.7760   -0.0650 C   0  0  0  0  0  0  0  0  0  0  0  0
   -3.7400    1.9670   -0.2140 C   0  0  0  0  0  0  0  0  0  0  0  0
   -4.4090    3.1370   -0.5750 C   0  0  0  0  0  0  0  0  0  0  0  0
   -3.7200    4.3240   -0.7190 O   0  0  0  0  0  0  0  0  0  0  0  0
   -5.7670    3.1250   -0.7920 C   0  0  0  0  0  0  0  0  0  0  0  0
   -6.4290    1.9290   -0.6410 C   0  0  0  0  0  0  0  0  0  0  0  0
   -8.3200    1.9080   -0.9430 Br  0  0  0  0  0  0  0  0  0  0  0  0
   -5.7590    0.7700   -0.2830 C   0  0  0  0  0  0  0  0  0  0  0  0
   -6.6610   -0.7500   -0.1010 S   0  0  0  0  0  0  0  0  0  0  0  0
   -1.3760   -1.3330    0.8780 C   0  0  0  0  0  0  0  0  0  0  0  0
   -1.6850   -2.0990    2.1130 C   0  0  0  0  0  0  0  0  0  0  0  0
  1  2  1  0
  2  3  1  0
  3  4  1  0
  4  5  2  0
  4  6  1  0
  6  7  1  0
  7  8  1  0
  8  9  2  0
  8 10  1  0
 10 11  2  0
 10 26  1  0
 11 12  1  0
 11 13  1  0
 13 14  1  0
 14 15  1  0
 14 26  2  0
 15 16  2  0
 15 17  1  0
 17 18  2  0
 17 24  1  0
 18 19  1  0
 19 20  1  0
 19 21  2  0
 21 22  1  0
 22 23  1  0
 22 24  2  0
 24 25  1  0
 26 27  1  0
M  END
