
     RDKit          3D

 27 28  0  0  0  0  0  0  0  0999 V2000
   -5.6860   -2.6480   -0.5410 C   0  0  0  0  0  0  0  0  0  0  0  0
   -4.7220   -1.5550   -1.0440 C   0  0  0  0  0  0  0  0  0  0  0  0
   -3.4120   -1.4720    0.0940 S   0  0  1  0  0  0  0  0  0  0  0  0
   -3.9280   -1.3070    1.5280 O   0  0  0  0  0  0  0  0  0  0  0  0
   -2.7730   -2.8640    0.1180 O   0  0  0  0  0  0  0  0  0  0  0  0
   -2.1670   -0.3290   -0.2140 C   0  0  0  0  0  0  0  0  0  0  0  0
   -0.9010   -0.7480   -0.5860 C   0  0  0  0  0  0  0  0  0  0  0  0
    0.1390    0.1540   -0.8830 C   0  0  0  0  0  0  0  0  0  0  0  0
    1.4220   -0.4120   -1.2610 C   0  0  0  0  0  0  0  0  0  0  0  0
    1.5320   -1.6840   -1.2980 O   0  0  0  0  0  0  0  0  0  0  0  0
    2.5990    0.2890   -1.6010 N   0  0  0  0  0  0  0  0  0  0  0  0
    3.8300   -0.4000   -1.9590 C   0  0  0  0  0  0  0  0  0  0  0  0
    4.3840   -1.2880   -0.9100 C   0  0  0  0  0  0  0  0  0  0  0  0
    4.7460   -0.6320    0.3640 C   0  0  0  0  0  0  0  0  0  0  0  0
    4.6460    0.6300    0.6670 C   0  0  0  0  0  0  0  0  0  0  0  0
    5.1250    0.8490    2.0600 C   0  0  0  0  0  0  0  0  0  0  0  0
    5.5050   -0.5290    2.4600 C   0  0  0  0  0  0  0  0  0  0  0  0
    5.2970   -1.3930    1.5080 C   0  0  0  0  0  0  0  0  0  0  0  0
    5.5390   -2.7740    1.5360 O   0  0  0  0  0  0  0  0  0  0  0  0
   -0.1120    1.4860   -0.8020 C   0  0  0  0  0  0  0  0  0  0  0  0
    0.8620    2.4310   -1.0800 O   0  0  0  0  0  0  0  0  0  0  0  0
   -1.3680    1.9320   -0.4330 C   0  0  0  0  0  0  0  0  0  0  0  0
   -2.3670    1.0160   -0.1470 C   0  0  0  0  0  0  0  0  0  0  0  0
   -3.6480    1.5510    0.2590 C   0  0  0  0  0  0  0  0  0  0  0  0
   -3.8000    2.5410    1.1200 C   0  0  0  0  0  0  0  0  0  0  0  0
   -5.1800    3.0020    1.4530 C   0  0  0  0  0  0  0  0  0  0  0  0
   -2.3710    3.4320    2.0070 Br  0  0  0  0  0  0  0  0  0  0  0  0
  1  2  1  0
  3  2  1  6
  3  4  2  0
  3  5  2  0
  3  6  1  0
  6  7  2  0
  6 23  1  0
  7  8  1  0
  8  9  1  0
  8 20  2  0
  9 10  2  0
  9 11  1  0
 11 12  1  0
 12 13  1  0
 13 14  1  0
 14 15  2  0
 14 18  1  0
 15 16  1  0
 16 17  1  0
 17 18  2  0
 18 19  1  0
 20 21  1  0
 20 22  1  0
 22 23  2  0
 23 24  1  0
 24 25  2  3
 25 26  1  0
 25 27  1  0
M  END
