
     RDKit          3D

 27 29  0  0  0  0  0  0  0  0999 V2000
   -1.6380   -3.9840    0.7130 C   0  0  0  0  0  0  0  0  0  0  0  0
   -2.0390   -3.3970   -0.5170 O   0  0  0  0  0  0  0  0  0  0  0  0
   -2.8650   -2.3250   -0.5930 C   0  0  0  0  0  0  0  0  0  0  0  0
   -4.2430   -2.4630   -0.6700 C   0  0  0  0  0  0  0  0  0  0  0  0
   -5.0150   -4.2080   -0.6670 Br  0  0  0  0  0  0  0  0  0  0  0  0
   -4.9750   -1.2950   -0.7430 C   0  0  0  0  0  0  0  0  0  0  0  0
   -6.2440   -1.4620   -0.8300 O   0  0  0  0  0  0  0  0  0  0  0  0
   -4.4650   -0.0540   -0.7360 N   0  0  0  0  0  0  0  0  0  0  0  0
   -3.1300    0.0880   -0.6560 C   0  0  0  0  0  0  0  0  0  0  0  0
   -2.6240    1.3670   -0.5950 C   0  0  0  0  0  0  0  0  0  0  0  0
   -1.2670    1.5510   -0.4620 C   0  0  0  0  0  0  0  0  0  0  0  0
   -0.7040    2.8150   -0.4240 O   0  0  0  0  0  0  0  0  0  0  0  0
   -1.2970    4.0320   -0.5510 C   0  0  0  0  0  0  0  0  0  0  0  0
   -2.2760    4.5740    0.3940 C   0  0  0  0  0  0  0  0  0  0  0  0
   -1.5030    4.7770    2.0490 S   0  0  0  0  0  0  0  0  0  0  0  0
   -0.4390    0.4130   -0.3820 C   0  0  0  0  0  0  0  0  0  0  0  0
    0.9360    0.5750   -0.2290 O   0  0  0  0  0  0  0  0  0  0  0  0
    1.7120   -0.5840   -0.3300 C   0  0  0  0  0  0  0  0  0  0  0  0
    3.1070   -0.4980    0.0950 C   0  0  0  0  0  0  0  0  0  0  0  0
    3.5340   -0.7630    1.3820 C   0  0  0  0  0  0  0  0  0  0  0  0
    4.9120   -0.9300    1.3320 C   0  0  0  0  0  0  0  0  0  0  0  0
    5.7590   -1.2420    2.5420 C   0  0  0  0  0  0  0  0  0  0  0  0
    5.2610   -0.7700    0.0850 O   0  0  0  0  0  0  0  0  0  0  0  0
    4.2570   -0.5060   -0.7010 C   0  0  0  0  0  0  0  0  0  0  0  0
    4.2640   -0.2190   -2.1850 C   0  0  0  0  0  0  0  0  0  0  0  0
   -0.9800   -0.8460   -0.4530 C   0  0  0  0  0  0  0  0  0  0  0  0
   -2.3580   -1.0270   -0.5890 C   0  0  0  0  0  0  0  0  0  0  0  0
  1  2  1  0
  2  3  1  0
  3  4  2  0
  3 27  1  0
  4  5  1  0
  4  6  1  0
  6  7  2  0
  6  8  1  0
  8  9  1  0
  9 10  2  0
  9 27  1  0
 10 11  1  0
 11 12  1  0
 11 16  2  0
 12 13  1  0
 13 14  1  0
 14 15  1  0
 16 17  1  0
 16 26  1  0
 17 18  1  0
 18 19  1  0
 19 20  1  0
 19 24  2  0
 20 21  2  0
 21 22  1  0
 21 23  1  0
 23 24  1  0
 24 25  1  0
 26 27  2  0
M  END
