
     RDKit          3D

 27 29  0  0  0  0  0  0  0  0999 V2000
    5.4630   -1.6750    1.0870 C   0  0  0  0  0  0  0  0  0  0  0  0
    5.5070    0.1020    1.2740 S   0  0  0  0  0  0  0  0  0  0  0  0
    3.9300    0.9060    1.3850 C   0  0  0  0  0  0  0  0  0  0  0  0
    3.0940    1.0190    0.1600 C   0  0  2  0  0  0  0  0  0  0  0  0
    3.6060    1.7240   -0.8840 O   0  0  0  0  0  0  0  0  0  0  0  0
    3.4250    1.3590   -2.1570 C   0  0  0  0  0  0  0  0  0  0  0  0
    3.9170    0.0750   -2.6460 C   0  0  0  0  0  0  0  0  0  0  0  0
    4.6220   -0.8420   -1.8510 N   0  0  0  0  0  0  0  0  0  0  0  0
    3.7080   -0.2650   -3.8810 O   0  0  0  0  0  0  0  0  0  0  0  0
    1.8850    1.7530    0.5070 O   0  0  0  0  0  0  0  0  0  0  0  0
    0.6240    1.2850    0.4870 C   0  0  0  0  0  0  0  0  0  0  0  0
    0.2400    0.0220    0.1380 C   0  0  0  0  0  0  0  0  0  0  0  0
   -1.0920   -0.4110    0.1370 C   0  0  0  0  0  0  0  0  0  0  0  0
   -1.4270   -1.6910   -0.2230 C   0  0  0  0  0  0  0  0  0  0  0  0
   -2.7500   -2.0780   -0.2090 C   0  0  0  0  0  0  0  0  0  0  0  0
   -3.3070   -3.8400   -0.6960 Br  0  0  0  0  0  0  0  0  0  0  0  0
   -3.7330   -1.1860    0.1640 C   0  0  0  0  0  0  0  0  0  0  0  0
   -3.3410    0.1130    0.5240 C   0  0  0  0  0  0  0  0  0  0  0  0
   -2.0380    0.5340    0.5210 C   0  0  0  0  0  0  0  0  0  0  0  0
   -1.7070    1.8070    0.8770 C   0  0  0  0  0  0  0  0  0  0  0  0
   -0.3840    2.1870    0.8630 C   0  0  0  0  0  0  0  0  0  0  0  0
   -0.0520    3.4870    1.2280 O   0  0  0  0  0  0  0  0  0  0  0  0
   -4.4000    0.9940    0.9460 C   0  0  0  0  0  0  0  0  0  0  0  0
   -4.1590    1.7720    1.9330 O   0  0  0  0  0  0  0  0  0  0  0  0
   -5.7140    0.9710    0.2380 C   0  0  0  0  0  0  0  0  0  0  0  0
   -6.0530   -0.3920   -0.2910 C   0  0  0  0  0  0  0  0  0  0  0  0
   -5.1580   -1.4930    0.2100 C   0  0  0  0  0  0  0  0  0  0  0  0
  1  2  1  0
  2  3  1  0
  4  3  1  1
  4  5  1  0
  4 10  1  0
  5  6  1  0
  6  7  1  0
  7  8  1  0
  7  9  2  0
 10 11  1  0
 11 12  2  0
 11 21  1  0
 12 13  1  0
 13 14  2  0
 13 19  1  0
 14 15  1  0
 15 16  1  0
 15 17  2  0
 17 18  1  0
 17 27  1  0
 18 19  2  0
 18 23  1  0
 19 20  1  0
 20 21  2  0
 21 22  1  0
 23 24  2  0
 23 25  1  0
 25 26  1  0
 26 27  1  0
M  END
