
     RDKit          3D

 37 40  0  0  0  0  0  0  0  0999 V2000
    4.3930    2.7470   -3.0610 C   0  0  0  0  0  0  0  0  0  0  0  0
    4.7120    2.3070   -1.7670 O   0  0  0  0  0  0  0  0  0  0  0  0
    5.7590    1.4110   -1.5270 C   0  0  0  0  0  0  0  0  0  0  0  0
    5.4890    0.0870   -1.5160 C   0  0  0  0  0  0  0  0  0  0  0  0
    4.2100   -0.4710   -1.7290 O   0  0  0  0  0  0  0  0  0  0  0  0
    3.3380   -0.6250   -0.6570 C   0  0  0  0  0  0  0  0  0  0  0  0
    3.7810   -0.2240    0.4650 O   0  0  0  0  0  0  0  0  0  0  0  0
    1.9920   -1.2000   -0.7430 C   0  0  0  0  0  0  0  0  0  0  0  0
    1.3770   -1.1660    0.5690 N   0  0  0  0  0  0  0  0  0  0  0  0
    0.0530   -1.7050    0.7680 C   0  0  0  0  0  0  0  0  0  0  0  0
   -0.4860   -2.1850   -0.2310 O   0  0  0  0  0  0  0  0  0  0  0  0
   -0.5200   -1.6460    2.0830 C   0  0  1  0  0  0  0  0  0  0  0  0
   -0.6640   -0.1510    2.4440 C   0  0  0  0  0  0  0  0  0  0  0  0
   -1.1170    0.0180    3.8520 C   0  0  0  0  0  0  0  0  0  0  0  0
   -1.3800   -1.2830    4.5890 C   0  0  0  0  0  0  0  0  0  0  0  0
   -2.1720   -2.2050    3.7460 C   0  0  0  0  0  0  0  0  0  0  0  0
   -3.0840   -2.8960    4.2240 O   0  0  0  0  0  0  0  0  0  0  0  0
   -1.7950   -2.2280    2.3370 N   0  0  0  0  0  0  0  0  0  0  0  0
   -2.6570   -2.8170    1.3990 C   0  0  0  0  0  0  0  0  0  0  0  0
   -3.7180   -1.9650    0.7930 C   0  0  0  0  0  0  0  0  0  0  0  0
   -3.1580   -0.8680    0.1200 O   0  0  0  0  0  0  0  0  0  0  0  0
   -3.9320    0.0820   -0.5350 C   0  0  0  0  0  0  0  0  0  0  0  0
   -3.3520    1.1460   -1.1820 C   0  0  0  0  0  0  0  0  0  0  0  0
   -4.1650    2.0780   -1.8260 C   0  0  0  0  0  0  0  0  0  0  0  0
   -5.5300    1.9600   -1.8300 C   0  0  0  0  0  0  0  0  0  0  0  0
   -6.3580    2.9210   -2.4880 N   0  0  0  0  0  0  0  0  0  0  0  0
   -6.0940    0.8690   -1.1660 C   0  0  0  0  0  0  0  0  0  0  0  0
   -7.8630    0.7240   -1.1870 S   0  0  0  0  0  0  0  0  0  0  0  0
   -8.3420   -0.7670   -0.2840 C   0  0  0  0  0  0  0  0  0  0  0  0
   -5.3170   -0.0680   -0.5220 C   0  0  0  0  0  0  0  0  0  0  0  0
    6.4720   -0.8780   -1.2860 C   0  0  0  0  0  0  0  0  0  0  0  0
    7.7710   -0.4140   -1.0630 C   0  0  0  0  0  0  0  0  0  0  0  0
    8.0230    0.9290   -1.0780 C   0  0  0  0  0  0  0  0  0  0  0  0
    7.0680    1.8840   -1.3020 C   0  0  0  0  0  0  0  0  0  0  0  0
    7.4740    3.1680   -1.2840 O   0  0  0  0  0  0  0  0  0  0  0  0
    8.8340    3.4260   -1.5150 C   0  0  0  0  0  0  0  0  0  0  0  0
    9.5340    1.8470   -0.8490 S   0  0  0  0  0  0  0  0  0  0  0  0
  1  2  1  0
  2  3  1  0
  3  4  2  0
  3 34  1  0
  4  5  1  0
  4 31  1  0
  5  6  1  0
  6  7  2  0
  6  8  1  0
  8  9  1  0
  9 10  1  0
 10 11  2  0
 12 10  1  6
 12 13  1  0
 12 18  1  0
 13 14  1  0
 14 15  1  0
 15 16  1  0
 16 17  2  0
 16 18  1  0
 18 19  1  0
 19 20  1  0
 20 21  1  0
 21 22  1  0
 22 23  2  0
 22 30  1  0
 23 24  1  0
 24 25  2  0
 25 26  1  0
 25 27  1  0
 27 28  1  0
 27 30  2  0
 28 29  1  0
 31 32  2  0
 32 33  1  0
 33 34  2  0
 33 37  1  0
 34 35  1  0
 35 36  1  0
 36 37  1  0
M  END
