
     RDKit          3D

 37 40  0  0  0  0  0  0  0  0999 V2000
   -6.1110   -4.1490    0.1590 C   0  0  0  0  0  0  0  0  0  0  0  0
   -6.4020   -2.6970    0.1220 N   0  0  0  0  0  0  0  0  0  0  0  0
   -5.2210   -1.9480   -0.1010 C   0  0  2  0  0  0  0  0  0  0  0  0
   -4.1520   -2.1770    0.9540 C   0  0  0  0  0  0  0  0  0  0  0  0
   -3.1150   -1.1730    0.3670 C   0  0  0  0  0  0  0  0  0  0  0  0
   -4.0070    0.0110    0.1560 C   0  0  0  0  0  0  0  0  0  0  0  0
   -3.7940    1.3510    0.2070 C   0  0  0  0  0  0  0  0  0  0  0  0
   -2.5170    2.0470    0.2440 C   0  0  0  0  0  0  0  0  0  0  0  0
   -1.3740    1.6590    0.8100 O   0  0  0  0  0  0  0  0  0  0  0  0
   -0.4220    0.7420    0.5500 C   0  0  0  0  0  0  0  0  0  0  0  0
   -0.5210    0.0350   -0.4750 O   0  0  0  0  0  0  0  0  0  0  0  0
    0.7270    0.5940    1.4930 C   0  0  0  0  0  0  0  0  0  0  0  0
    1.6780   -0.4620    1.0300 C   0  0  0  0  0  0  0  0  0  0  0  0
    2.1980   -0.0700   -0.3090 C   0  0  0  0  0  0  0  0  0  0  0  0
    1.9940   -0.1620   -1.4620 N   0  0  0  0  0  0  0  0  0  0  0  0
    2.6820    0.3240   -2.4320 N   0  0  0  0  0  0  0  0  0  0  0  0
    3.7300    1.0030   -2.2520 C   0  0  0  0  0  0  0  0  0  0  0  0
    4.9460    1.8370   -3.1980 S   0  0  0  0  0  0  0  0  0  0  0  0
    6.2110    2.6170   -2.1410 C   0  0  0  0  0  0  0  0  0  0  0  0
    6.9570    1.5330   -1.4720 C   0  0  0  0  0  0  0  0  0  0  0  0
    7.9940    1.0740   -2.0590 O   0  0  0  0  0  0  0  0  0  0  0  0
    6.6250    0.9720   -0.2620 O   0  0  0  0  0  0  0  0  0  0  0  0
    7.4020   -0.0460    0.2710 C   0  0  0  0  0  0  0  0  0  0  0  0
    8.4550    0.2440    1.1120 C   0  0  0  0  0  0  0  0  0  0  0  0
    9.2220   -0.7950    1.6350 C   0  0  0  0  0  0  0  0  0  0  0  0
    8.9690   -2.1200    1.3430 C   0  0  0  0  0  0  0  0  0  0  0  0
    7.9100   -2.3980    0.4980 C   0  0  0  0  0  0  0  0  0  0  0  0
    7.1440   -1.3730   -0.0250 C   0  0  0  0  0  0  0  0  0  0  0  0
    6.0820   -1.6310   -0.8710 O   0  0  0  0  0  0  0  0  0  0  0  0
    3.7830    0.9690   -0.3700 S   0  0  0  0  0  0  0  0  0  0  0  0
   -4.9020    2.2390    0.1000 C   0  0  0  0  0  0  0  0  0  0  0  0
   -6.1590    1.7820   -0.0540 C   0  0  0  0  0  0  0  0  0  0  0  0
   -7.2660    2.6560   -0.1590 O   0  0  0  0  0  0  0  0  0  0  0  0
   -7.0350    4.0440   -0.1000 C   0  0  0  0  0  0  0  0  0  0  0  0
   -6.3750    0.3910   -0.1110 C   0  0  0  0  0  0  0  0  0  0  0  0
   -7.7000    0.0470   -0.2680 O   0  0  0  0  0  0  0  0  0  0  0  0
   -5.3220   -0.4740   -0.0110 C   0  0  0  0  0  0  0  0  0  0  0  0
  1  2  1  0
  3  2  1  1
  3  4  1  0
  3 37  1  0
  4  5  1  0
  5  6  1  0
  6  7  2  0
  6 37  1  0
  7  8  1  0
  7 31  1  0
  8  9  1  0
  9 10  1  0
 10 11  2  0
 10 12  1  0
 12 13  1  0
 13 14  1  0
 14 15  2  0
 14 30  1  0
 15 16  1  0
 16 17  2  0
 17 18  1  0
 17 30  1  0
 18 19  1  0
 19 20  1  0
 20 21  2  0
 20 22  1  0
 22 23  1  0
 23 24  2  0
 23 28  1  0
 24 25  1  0
 25 26  2  0
 26 27  1  0
 27 28  2  0
 28 29  1  0
 31 32  2  0
 32 33  1  0
 32 35  1  0
 33 34  1  0
 35 36  1  0
 35 37  2  0
M  END
