
     RDKit          3D

 37 40  0  0  0  0  0  0  0  0999 V2000
    5.7480   -2.4220    0.1520 C   0  0  0  0  0  0  0  0  0  0  0  0
    5.3510   -0.9910    0.1650 C   0  0  0  0  0  0  0  0  0  0  0  0
    6.2100   -0.0170    0.0630 O   0  0  0  0  0  0  0  0  0  0  0  0
    5.6540    1.1490    0.1030 C   0  0  0  0  0  0  0  0  0  0  0  0
    6.3660    2.4730    0.0120 C   0  0  0  0  0  0  0  0  0  0  0  0
    5.7600    3.6710    0.0480 C   0  0  0  0  0  0  0  0  0  0  0  0
    6.4710    4.7920   -0.0380 C   0  0  0  0  0  0  0  0  0  0  0  0
    8.1880    4.2280   -0.1880 S   0  0  0  0  0  0  0  0  0  0  0  0
    7.7560    2.4650   -0.1200 C   0  0  0  0  0  0  0  0  0  0  0  0
    4.3120    0.9480    0.2460 C   0  0  0  0  0  0  0  0  0  0  0  0
    4.0700   -0.4240    0.2900 C   0  0  0  0  0  0  0  0  0  0  0  0
    2.8750   -1.2030    0.3920 C   0  0  0  0  0  0  0  0  0  0  0  0
    3.0140   -2.3860    0.8300 O   0  0  0  0  0  0  0  0  0  0  0  0
    1.5260   -0.8470    0.0660 N   0  0  0  0  0  0  0  0  0  0  0  0
    0.4740   -1.7660    0.2070 C   0  0  1  0  0  0  0  0  0  0  0  0
    0.7060   -2.9800   -0.7120 C   0  0  0  0  0  0  0  0  0  0  0  0
    0.2690   -2.3910    1.5860 C   0  0  0  0  0  0  0  0  0  0  0  0
   -0.7090   -3.4540    1.3420 N   0  0  0  0  0  0  0  0  0  0  0  0
   -1.6560   -3.4320    0.4760 C   0  0  0  0  0  0  0  0  0  0  0  0
   -2.5540   -4.5010    0.2980 N   0  0  0  0  0  0  0  0  0  0  0  0
   -1.8240   -2.2360   -0.3450 N   0  0  0  0  0  0  0  0  0  0  0  0
   -0.8730   -1.1930   -0.0580 C   0  0  0  0  0  0  0  0  0  0  0  0
   -1.2030    0.0570    0.0150 C   0  0  0  0  0  0  0  0  0  0  0  0
   -2.4240    0.7980   -0.1910 C   0  0  0  0  0  0  0  0  0  0  0  0
   -2.3580    2.0700   -0.0110 O   0  0  0  0  0  0  0  0  0  0  0  0
   -3.6700    0.2730   -0.5550 N   0  0  0  0  0  0  0  0  0  0  0  0
   -4.8480    1.0400   -0.6980 C   0  0  0  0  0  0  0  0  0  0  0  0
   -5.1020    2.2670   -0.1640 C   0  0  0  0  0  0  0  0  0  0  0  0
   -6.3300    2.8980   -0.2810 C   0  0  0  0  0  0  0  0  0  0  0  0
   -6.5720    4.2120    0.3400 C   0  0  1  0  0  0  0  0  0  0  0  0
   -6.0920    5.2630   -0.3800 F   0  0  0  0  0  0  0  0  0  0  0  0
   -7.9480    4.3960    0.5470 F   0  0  0  0  0  0  0  0  0  0  0  0
   -5.9360    4.1640    1.5820 F   0  0  0  0  0  0  0  0  0  0  0  0
   -7.3460    2.2770   -0.9630 C   0  0  0  0  0  0  0  0  0  0  0  0
   -7.1220    1.0430   -1.5130 C   0  0  0  0  0  0  0  0  0  0  0  0
   -5.9070    0.4370   -1.3850 C   0  0  0  0  0  0  0  0  0  0  0  0
   -5.7590   -0.7990   -1.9660 F   0  0  0  0  0  0  0  0  0  0  0  0
  1  2  1  0
  2  3  1  0
  2 11  2  0
  3  4  1  0
  4  5  1  0
  4 10  2  0
  5  6  1  0
  5  9  2  0
  6  7  2  0
  7  8  1  0
  8  9  1  0
 10 11  1  0
 11 12  1  0
 12 13  2  0
 12 14  1  0
 14 15  1  0
 15 16  1  6
 15 17  1  0
 15 22  1  0
 17 18  1  0
 18 19  2  0
 19 20  1  0
 19 21  1  0
 21 22  1  0
 22 23  2  3
 23 24  1  0
 24 25  2  0
 24 26  1  0
 26 27  1  0
 27 28  2  0
 27 36  1  0
 28 29  1  0
 29 30  1  0
 29 34  2  0
 30 31  1  6
 30 32  1  0
 30 33  1  0
 34 35  1  0
 35 36  2  0
 36 37  1  0
M  CHG  1  18   1
M  END
