
     RDKit          3D

 37 40  0  0  0  0  0  0  0  0999 V2000
   -4.8560   -1.5140    0.0780 C   0  0  0  0  0  0  0  0  0  0  0  0
   -3.9490   -1.7040   -1.0940 C   0  0  1  0  0  0  0  0  0  0  0  0
   -4.4460   -2.9020   -1.8900 C   0  0  0  0  0  0  0  0  0  0  0  0
   -5.7590   -2.6760   -2.3370 O   0  0  0  0  0  0  0  0  0  0  0  0
   -3.8870   -0.2970   -2.1970 S   0  0  0  0  0  0  0  0  0  0  0  0
   -3.1560    1.1500   -1.4950 C   0  0  0  0  0  0  0  0  0  0  0  0
   -3.0780    2.2090   -2.2160 N   0  0  0  0  0  0  0  0  0  0  0  0
   -2.6420    1.2160   -0.1650 N   0  0  0  0  0  0  0  0  0  0  0  0
   -1.3440    0.9400    0.0410 C   0  0  0  0  0  0  0  0  0  0  0  0
   -0.5990    0.6210   -0.9760 N   0  0  0  0  0  0  0  0  0  0  0  0
    0.7830    0.3260   -0.7690 C   0  0  0  0  0  0  0  0  0  0  0  0
    1.7200    1.2440   -1.1330 C   0  0  0  0  0  0  0  0  0  0  0  0
    3.0520    0.9880   -0.9460 N   0  0  0  0  0  0  0  0  0  0  0  0
    3.5090   -0.1310   -0.4140 C   0  0  0  0  0  0  0  0  0  0  0  0
    4.9350   -0.3890   -0.1720 C   0  0  0  0  0  0  0  0  0  0  0  0
    5.3400   -1.6820    0.1720 C   0  0  0  0  0  0  0  0  0  0  0  0
    6.6500   -1.9510    0.4380 C   0  0  0  0  0  0  0  0  0  0  0  0
    7.0360   -3.2200    0.7750 F   0  0  0  0  0  0  0  0  0  0  0  0
    7.6140   -0.9730    0.3790 C   0  0  0  0  0  0  0  0  0  0  0  0
    9.0190   -1.3280    0.6780 C   0  0  2  0  0  0  0  0  0  0  0  0
    9.4450   -0.5370    1.7430 F   0  0  0  0  0  0  0  0  0  0  0  0
    9.7900   -1.0700   -0.4430 F   0  0  0  0  0  0  0  0  0  0  0  0
    7.2140    0.2830    0.0440 C   0  0  0  0  0  0  0  0  0  0  0  0
    5.8800    0.5850   -0.2330 C   0  0  0  0  0  0  0  0  0  0  0  0
    5.5820    1.8720   -0.5380 F   0  0  0  0  0  0  0  0  0  0  0  0
    2.5740   -1.0750   -0.0380 C   0  0  0  0  0  0  0  0  0  0  0  0
    1.2170   -0.8380   -0.2200 C   0  0  0  0  0  0  0  0  0  0  0  0
    0.4080   -1.7220    0.1360 O   0  0  0  0  0  0  0  0  0  0  0  0
   -0.8050    0.9870    1.2700 N   0  0  0  0  0  0  0  0  0  0  0  0
   -1.5470    1.3120    2.3350 C   0  0  0  0  0  0  0  0  0  0  0  0
   -0.9980    1.3420    3.4630 O   0  0  0  0  0  0  0  0  0  0  0  0
   -2.8820    1.6000    2.1560 C   0  0  0  0  0  0  0  0  0  0  0  0
   -3.6480    1.9360    3.2560 C   0  0  0  0  0  0  0  0  0  0  0  0
   -4.9800    2.2230    3.0660 C   0  0  0  0  0  0  0  0  0  0  0  0
   -5.5250    2.1720    1.7950 C   0  0  0  0  0  0  0  0  0  0  0  0
   -4.7230    1.8280    0.6990 C   0  0  0  0  0  0  0  0  0  0  0  0
   -3.3950    1.5410    0.8850 C   0  0  0  0  0  0  0  0  0  0  0  0
  2  1  1  1
  2  3  1  0
  2  5  1  0
  3  4  1  0
  5  6  1  0
  6  7  2  0
  6  8  1  0
  8  9  1  0
  8 37  1  0
  9 10  2  3
  9 29  1  0
 10 11  1  0
 11 12  2  0
 11 27  1  0
 12 13  1  0
 13 14  1  0
 14 15  1  0
 14 26  2  0
 15 16  2  0
 15 24  1  0
 16 17  1  0
 17 18  1  0
 17 19  2  0
 19 20  1  0
 19 23  1  0
 20 21  1  1
 20 22  1  0
 23 24  2  0
 24 25  1  0
 26 27  1  0
 27 28  2  0
 29 30  1  0
 30 31  2  0
 30 32  1  0
 32 33  2  0
 32 37  1  0
 33 34  1  0
 34 35  2  0
 35 36  1  0
 36 37  2  0
M  CHG  1   7   1
M  END
