
     RDKit          3D

 21 23  0  0  0  0  0  0  0  0999 V2000
    3.0550    2.3790   -0.6380 O   0  0  0  0  0  0  0  0  0  0  0  0
    3.6530    1.1650   -0.3470 C   0  0  0  0  0  0  0  0  0  0  0  0
    4.6780    1.0680    0.4820 C   0  0  0  0  0  0  0  0  0  0  0  0
    5.2730   -0.1260    0.7740 O   0  0  0  0  0  0  0  0  0  0  0  0
    4.8900   -1.3530    0.2530 C   0  0  0  0  0  0  0  0  0  0  0  0
    3.7510   -1.2380   -0.6670 C   0  0  0  0  0  0  0  0  0  0  0  0
    3.1930   -0.0830   -0.9340 C   0  0  0  0  0  0  0  0  0  0  0  0
    2.1150   -0.1100   -1.8280 O   0  0  0  0  0  0  0  0  0  0  0  0
    0.7890    0.1630   -1.3820 C   0  0  0  0  0  0  0  0  0  0  0  0
    0.4330   -0.8590   -0.3270 C   0  0  1  0  0  0  0  0  0  0  0  0
    1.3500   -0.7280    0.7140 O   0  0  0  0  0  0  0  0  0  0  0  0
   -0.9400   -0.6270    0.2490 C   0  0  1  0  0  0  0  0  0  0  0  0
   -1.0190    0.6220    1.0620 C   0  0  0  0  0  0  0  0  0  0  0  0
   -2.1930    1.3600    0.8440 O   0  0  0  0  0  0  0  0  0  0  0  0
   -3.3770    0.7730    0.4000 C   0  0  0  0  0  0  0  0  0  0  0  0
   -4.6170    1.2650    0.7660 C   0  0  0  0  0  0  0  0  0  0  0  0
   -5.7520    0.6400    0.2920 C   0  0  0  0  0  0  0  0  0  0  0  0
   -5.6170   -0.4560   -0.5300 C   0  0  0  0  0  0  0  0  0  0  0  0
   -4.3730   -0.9260   -0.8800 C   0  0  0  0  0  0  0  0  0  0  0  0
   -3.2320   -0.3330   -0.4300 C   0  0  0  0  0  0  0  0  0  0  0  0
   -1.9570   -0.7360   -0.7290 O   0  0  0  0  0  0  0  0  0  0  0  0
  1  2  1  0
  2  3  2  0
  2  7  1  0
  3  4  1  0
  4  5  1  0
  5  6  1  0
  6  7  2  0
  7  8  1  0
  8  9  1  0
  9 10  1  0
 10 11  1  1
 10 12  1  0
 12 13  1  6
 12 21  1  0
 13 14  1  0
 14 15  1  0
 15 16  2  0
 15 20  1  0
 16 17  1  0
 17 18  2  0
 18 19  1  0
 19 20  2  0
 20 21  1  0
M  END
