
     RDKit          3D

 15 15  0  0  0  0  0  0  0  0999 V2000
    4.5440   -1.4220    1.2080 C   0  0  0  0  0  0  0  0  0  0  0  0
    3.2640   -0.8430    1.1900 O   0  0  0  0  0  0  0  0  0  0  0  0
    2.7220   -0.3760    0.0070 C   0  0  0  0  0  0  0  0  0  0  0  0
    3.3310   -0.4430   -1.0920 O   0  0  0  0  0  0  0  0  0  0  0  0
    1.4070    0.2250   -0.0460 N   0  0  0  0  0  0  0  0  0  0  0  0
    0.8690    0.7010   -1.2870 C   0  0  2  0  0  0  0  0  0  0  0  0
    0.6770    2.0940   -1.1490 O   0  0  0  0  0  0  0  0  0  0  0  0
   -0.4380    0.0610   -1.6690 C   0  0  1  0  0  0  0  0  0  0  0  0
   -0.2510   -1.3060   -1.7740 O   0  0  0  0  0  0  0  0  0  0  0  0
   -1.5330    0.4660   -0.7480 C   0  0  2  0  0  0  0  0  0  0  0  0
   -1.3870    0.0260    0.6190 N   0  0  0  0  0  0  0  0  0  0  0  0
   -2.7110    0.3360    1.1350 C   0  0  1  0  0  0  0  0  0  0  0  0
   -2.8340    1.7080    1.2750 O   0  0  0  0  0  0  0  0  0  0  0  0
   -3.5670   -0.1290   -0.0250 C   0  0  0  0  0  0  0  0  0  0  0  0
   -2.7900    0.0460   -1.1690 O   0  0  0  0  0  0  0  0  0  0  0  0
  1  2  1  0
  2  3  1  0
  3  4  2  0
  3  5  1  0
  5  6  1  0
  6  7  1  1
  6  8  1  0
  8  9  1  1
  8 10  1  0
 10 11  1  1
 10 15  1  0
 11 12  1  0
 12 13  1  6
 12 14  1  0
 14 15  1  0
M  END
