
     RDKit          3D

 21 22  0  0  0  0  0  0  0  0999 V2000
   -4.0630   -1.7610    1.3860 C   0  0  0  0  0  0  0  0  0  0  0  0
   -3.5150   -0.6260    0.5790 C   0  0  0  0  0  0  0  0  0  0  0  0
   -4.3900    0.0950   -0.1840 C   0  0  0  0  0  0  0  0  0  0  0  0
   -5.7380   -0.2420   -0.2180 O   0  0  0  0  0  0  0  0  0  0  0  0
   -3.8960    1.1550   -0.9060 C   0  0  0  0  0  0  0  0  0  0  0  0
   -4.7570    1.9250   -1.7200 O   0  0  0  0  0  0  0  0  0  0  0  0
   -2.5230    1.4800   -0.8520 C   0  0  0  0  0  0  0  0  0  0  0  0
   -1.6470    0.7670   -0.0950 C   0  0  0  0  0  0  0  0  0  0  0  0
   -0.2230    1.0740   -0.1160 C   0  0  0  0  0  0  0  0  0  0  0  0
    0.2270    2.0400   -0.7650 O   0  0  0  0  0  0  0  0  0  0  0  0
    0.7160    0.3770    0.5190 O   0  0  0  0  0  0  0  0  0  0  0  0
    1.9430    0.1330    0.8880 C   0  0  0  0  0  0  0  0  0  0  0  0
    3.1180    0.0630    0.0390 C   0  0  0  0  0  0  0  0  0  0  0  0
    3.8300    1.2910   -0.2070 C   0  0  0  0  0  0  0  0  0  0  0  0
    5.1060    1.3070   -0.7790 C   0  0  0  0  0  0  0  0  0  0  0  0
    5.7200    0.1280   -1.1310 C   0  0  0  0  0  0  0  0  0  0  0  0
    5.0340   -1.0680   -0.9040 C   0  0  0  0  0  0  0  0  0  0  0  0
    3.7910   -1.0430   -0.3410 C   0  0  0  0  0  0  0  0  0  0  0  0
    3.0930   -2.2680   -0.1020 O   0  0  0  0  0  0  0  0  0  0  0  0
   -2.1690   -0.3220    0.6410 C   0  0  0  0  0  0  0  0  0  0  0  0
   -1.3700   -1.0680    1.4300 O   0  0  0  0  0  0  0  0  0  0  0  0
  1  2  1  0
  2  3  2  0
  2 20  1  0
  3  4  1  0
  3  5  1  0
  5  6  1  0
  5  7  2  0
  7  8  1  0
  8  9  1  0
  8 20  2  0
  9 10  2  0
  9 11  1  0
 11 12  1  0
 12 13  1  0
 13 14  2  0
 13 18  1  0
 14 15  1  0
 15 16  2  0
 16 17  1  0
 17 18  2  0
 18 19  1  0
 20 21  1  0
M  END
