
     RDKit          3D

 21 23  0  0  0  0  0  0  0  0999 V2000
    4.9020   -0.8580    2.4180 O   0  0  0  0  0  0  0  0  0  0  0  0
    4.3460   -0.0920    1.6200 C   0  0  0  0  0  0  0  0  0  0  0  0
    5.0630    0.9460    1.0610 O   0  0  0  0  0  0  0  0  0  0  0  0
    2.9310   -0.3080    1.2870 C   0  0  0  0  0  0  0  0  0  0  0  0
    2.2170   -1.3460    1.8480 C   0  0  0  0  0  0  0  0  0  0  0  0
    0.8800   -1.5350    1.5220 C   0  0  0  0  0  0  0  0  0  0  0  0
    0.1550   -2.5700    2.0760 O   0  0  0  0  0  0  0  0  0  0  0  0
    0.2280   -0.7010    0.6370 C   0  0  0  0  0  0  0  0  0  0  0  0
   -1.1270   -0.9060    0.3160 C   0  0  0  0  0  0  0  0  0  0  0  0
   -1.7510   -1.9520    0.9150 O   0  0  0  0  0  0  0  0  0  0  0  0
   -1.7720   -0.0660   -0.5720 C   0  0  0  0  0  0  0  0  0  0  0  0
   -3.0960   -0.2270   -0.9160 C   0  0  0  0  0  0  0  0  0  0  0  0
   -3.8460   -1.2560   -0.3740 O   0  0  0  0  0  0  0  0  0  0  0  0
   -3.7560    0.6170   -1.8120 C   0  0  0  0  0  0  0  0  0  0  0  0
   -3.0410    1.6510   -2.3690 C   0  0  0  0  0  0  0  0  0  0  0  0
   -1.7130    1.8150   -2.0260 C   0  0  0  0  0  0  0  0  0  0  0  0
   -1.0560    0.9810   -1.1390 C   0  0  0  0  0  0  0  0  0  0  0  0
    0.2730    1.1640   -0.8110 C   0  0  0  0  0  0  0  0  0  0  0  0
    1.0170    2.1900   -1.3510 O   0  0  0  0  0  0  0  0  0  0  0  0
    0.9270    0.3270    0.0780 C   0  0  0  0  0  0  0  0  0  0  0  0
    2.2660    0.5180    0.4040 C   0  0  0  0  0  0  0  0  0  0  0  0
  1  2  2  0
  2  3  1  0
  2  4  1  0
  4  5  2  0
  4 21  1  0
  5  6  1  0
  6  7  1  0
  6  8  2  0
  8  9  1  0
  8 20  1  0
  9 10  1  0
  9 11  2  0
 11 12  1  0
 11 17  1  0
 12 13  1  0
 12 14  2  0
 14 15  1  0
 15 16  2  0
 16 17  1  0
 17 18  2  0
 18 19  1  0
 18 20  1  0
 20 21  2  0
M  END
