
     RDKit          3D

 21 22  0  0  0  0  0  0  0  0999 V2000
    2.7250   -0.4500   -2.6510 C   0  0  0  0  0  0  0  0  0  0  0  0
    3.7380   -0.8210   -1.7380 O   0  0  0  0  0  0  0  0  0  0  0  0
    3.4530   -0.9200   -0.3990 C   0  0  0  0  0  0  0  0  0  0  0  0
    4.4600   -1.2840    0.4770 C   0  0  0  0  0  0  0  0  0  0  0  0
    4.1980   -1.3890    1.8160 C   0  0  0  0  0  0  0  0  0  0  0  0
    2.9230   -1.1260    2.2740 C   0  0  0  0  0  0  0  0  0  0  0  0
    2.6810   -1.2360    3.6210 O   0  0  0  0  0  0  0  0  0  0  0  0
    1.8970   -0.7590    1.4200 C   0  0  0  0  0  0  0  0  0  0  0  0
    0.6190   -0.5020    1.9270 O   0  0  0  0  0  0  0  0  0  0  0  0
   -0.3900   -0.1380    1.0640 C   0  0  0  0  0  0  0  0  0  0  0  0
   -1.2190   -1.0540    0.6060 C   0  0  0  0  0  0  0  0  0  0  0  0
   -2.2910   -0.6120   -0.3240 C   0  0  2  0  0  0  0  0  0  0  0  0
   -3.2860   -1.7220   -0.5630 C   0  0  0  0  0  0  0  0  0  0  0  0
   -1.7820   -0.2490   -1.5750 O   0  0  0  0  0  0  0  0  0  0  0  0
   -2.9750    0.5630    0.3630 C   0  0  1  0  0  0  0  0  0  0  0  0
   -3.4710    0.0580    1.5760 O   0  0  0  0  0  0  0  0  0  0  0  0
   -2.0200    1.6770    0.6140 C   0  0  2  0  0  0  0  0  0  0  0  0
   -2.2280    2.8550   -0.3300 C   0  0  0  0  0  0  0  0  0  0  0  0
   -1.2850    3.8320   -0.0040 O   0  0  0  0  0  0  0  0  0  0  0  0
   -0.5760    1.2640    0.6280 C   0  0  0  0  0  0  0  0  0  0  0  0
    2.1820   -0.6600    0.0730 C   0  0  0  0  0  0  0  0  0  0  0  0
  1  2  1  0
  2  3  1  0
  3  4  2  0
  3 21  1  0
  4  5  1  0
  5  6  2  0
  6  7  1  0
  6  8  1  0
  8  9  1  0
  8 21  2  0
  9 10  1  0
 10 11  2  0
 10 20  1  0
 11 12  1  0
 12 13  1  6
 12 14  1  0
 12 15  1  0
 15 16  1  1
 15 17  1  0
 17 18  1  6
 17 20  1  0
 18 19  1  0
M  END
