
     RDKit          3D

 21 22  0  0  0  0  0  0  0  0999 V2000
   -3.3780   -3.2240    1.3020 O   0  0  0  0  0  0  0  0  0  0  0  0
   -3.1640   -1.9430    0.7540 C   0  0  0  0  0  0  0  0  0  0  0  0
   -2.2950   -1.2000    1.7060 C   0  0  0  0  0  0  0  0  0  0  0  0
   -1.9000    0.0750    1.4500 O   0  0  0  0  0  0  0  0  0  0  0  0
   -1.1850    0.6920    0.4750 C   0  0  0  0  0  0  0  0  0  0  0  0
    0.2120    0.7000    0.5400 C   0  0  0  0  0  0  0  0  0  0  0  0
    0.8510    0.0850    1.5840 O   0  0  0  0  0  0  0  0  0  0  0  0
    0.9680    1.3080   -0.4090 C   0  0  0  0  0  0  0  0  0  0  0  0
    2.4580    1.3400   -0.3700 C   0  0  2  0  0  0  0  0  0  0  0  0
    2.9030    1.7330   -1.6280 O   0  0  0  0  0  0  0  0  0  0  0  0
    3.0310    0.0220   -0.0320 C   0  0  0  0  0  0  0  0  0  0  0  0
    3.7890   -0.2130    1.0170 C   0  0  0  0  0  0  0  0  0  0  0  0
    4.1740   -1.6160    1.0390 C   0  0  0  0  0  0  0  0  0  0  0  0
    3.5320   -2.1950   -0.1600 C   0  0  0  0  0  0  0  0  0  0  0  0
    2.8770   -1.2160   -0.7580 C   0  0  0  0  0  0  0  0  0  0  0  0
    0.3390    1.9250   -1.4490 C   0  0  0  0  0  0  0  0  0  0  0  0
   -1.0580    1.9520   -1.5690 C   0  0  0  0  0  0  0  0  0  0  0  0
   -1.5660    2.6000   -2.6550 O   0  0  0  0  0  0  0  0  0  0  0  0
   -1.8080    1.3330   -0.6010 C   0  0  0  0  0  0  0  0  0  0  0  0
   -3.3050    1.3370   -0.6310 C   0  0  0  0  0  0  0  0  0  0  0  0
   -3.8030    2.0370   -1.6960 O   0  0  0  0  0  0  0  0  0  0  0  0
  1  2  1  0
  2  3  1  0
  3  4  1  0
  4  5  1  0
  5  6  2  0
  5 19  1  0
  6  7  1  0
  6  8  1  0
  8  9  1  0
  8 16  2  0
  9 10  1  6
  9 11  1  0
 11 12  2  0
 11 15  1  0
 12 13  1  0
 13 14  1  0
 14 15  2  0
 16 17  1  0
 17 18  1  0
 17 19  2  0
 19 20  1  0
 20 21  1  0
M  END
