
     RDKit          3D

 36 38  0  0  0  0  0  0  0  0999 V2000
   -0.8780    0.1300    2.2090 C   0  0  0  0  0  0  0  0  0  0  0  0
   -1.1490    1.3660    1.4390 C   0  0  2  0  0  0  0  0  0  0  0  0
   -2.5760    1.6870    1.1630 C   0  0  1  0  0  0  0  0  0  0  0  0
   -2.5870    3.1220    1.0640 O   0  0  0  0  0  0  0  0  0  0  0  0
   -1.7600    3.5410    0.0610 C   0  0  0  0  0  0  0  0  0  0  0  0
   -1.1390    2.4250   -0.7430 C   0  0  2  0  0  0  0  0  0  0  0  0
   -2.2920    1.5720   -1.2830 C   0  0  0  0  0  0  0  0  0  0  0  0
   -3.1830    1.2580   -0.1550 C   0  0  1  0  0  0  0  0  0  0  0  0
   -3.8500   -0.0080   -0.1500 N   0  0  0  0  0  0  0  0  0  0  0  0
   -3.0980   -1.2080   -0.2480 C   0  0  0  0  0  0  0  0  0  0  0  0
   -1.8230   -1.1590   -0.4020 O   0  0  0  0  0  0  0  0  0  0  0  0
   -3.6240   -2.5120   -0.1900 N   0  0  0  0  0  0  0  0  0  0  0  0
   -2.7640   -3.6750   -0.3050 C   0  0  0  0  0  0  0  0  0  0  0  0
   -1.5530   -3.4980   -0.4570 O   0  0  0  0  0  0  0  0  0  0  0  0
   -3.2970   -4.9540   -0.2460 O   0  0  0  0  0  0  0  0  0  0  0  0
   -5.2500   -0.0790   -0.0210 C   0  0  0  0  0  0  0  0  0  0  0  0
   -5.9250   -1.1570   -0.0490 O   0  0  0  0  0  0  0  0  0  0  0  0
   -6.0420    1.0930    0.1610 N   0  0  0  0  0  0  0  0  0  0  0  0
   -7.4850    0.9890    0.2790 C   0  0  0  0  0  0  0  0  0  0  0  0
   -8.0130   -0.1250    0.2210 O   0  0  0  0  0  0  0  0  0  0  0  0
   -8.2640    2.1280    0.4570 O   0  0  0  0  0  0  0  0  0  0  0  0
   -0.4280    1.5570    0.2090 N   0  0  0  0  0  0  0  0  0  0  0  0
    0.8150    1.0450   -0.1600 C   0  0  0  0  0  0  0  0  0  0  0  0
    1.2800    1.3410   -1.3160 O   0  0  0  0  0  0  0  0  0  0  0  0
    1.6350    0.2250    0.6020 O   0  0  0  0  0  0  0  0  0  0  0  0
    2.8500   -0.2180    0.1240 O   0  0  0  0  0  0  0  0  0  0  0  0
    3.9300   -0.4660    0.9260 C   0  0  0  0  0  0  0  0  0  0  0  0
    3.8260   -0.2860    2.1620 O   0  0  0  0  0  0  0  0  0  0  0  0
    5.1880   -0.9250    0.4330 N   0  0  0  0  0  0  0  0  0  0  0  0
    6.4860   -1.2730    0.9740 C   0  0  0  0  0  0  0  0  0  0  0  0
    7.0570   -1.0700   -0.4130 C   0  0  1  0  0  0  0  0  0  0  0  0
    7.9650   -2.0300   -0.8450 O   0  0  0  0  0  0  0  0  0  0  0  0
    9.1790   -1.6440   -1.3870 C   0  0  0  0  0  0  0  0  0  0  0  0
    9.4160   -0.4150   -1.4690 O   0  0  0  0  0  0  0  0  0  0  0  0
   10.1400   -2.5280   -1.8420 O   0  0  0  0  0  0  0  0  0  0  0  0
    5.6390   -1.2270   -0.9120 C   0  0  0  0  0  0  0  0  0  0  0  0
  2  1  1  6
  2  3  1  0
  2 22  1  0
  3  4  1  6
  3  8  1  0
  4  5  1  0
  6  5  1  1
  6  7  1  0
  6 22  1  0
  7  8  1  0
  8  9  1  1
  9 10  1  0
  9 16  1  0
 10 11  2  0
 10 12  1  0
 12 13  1  0
 13 14  2  0
 13 15  1  0
 16 17  2  0
 16 18  1  0
 18 19  1  0
 19 20  2  0
 19 21  1  0
 22 23  1  0
 23 24  2  0
 23 25  1  0
 25 26  1  0
 26 27  1  0
 27 28  2  0
 27 29  1  0
 29 30  1  0
 29 36  1  0
 30 31  1  0
 31 32  1  6
 31 36  1  0
 32 33  1  0
 33 34  2  0
 33 35  1  0
M  END
