
     RDKit          3D

 36 38  0  0  0  0  0  0  0  0999 V2000
   -4.2880    2.4580    1.1830 O   0  0  0  0  0  0  0  0  0  0  0  0
   -4.5060    1.5520    0.3380 C   0  0  0  0  0  0  0  0  0  0  0  0
   -5.5190    1.7450   -0.6050 O   0  0  0  0  0  0  0  0  0  0  0  0
   -3.7250    0.3440    0.3470 N   0  0  0  0  0  0  0  0  0  0  0  0
   -2.6990    0.2310    1.3590 C   0  0  1  0  0  0  0  0  0  0  0  0
   -3.0610   -0.9330    2.2500 C   0  0  0  0  0  0  0  0  0  0  0  0
   -2.1650   -1.1440    3.2730 O   0  0  0  0  0  0  0  0  0  0  0  0
   -2.5920   -2.1760    3.9680 O   0  0  0  0  0  0  0  0  0  0  0  0
   -1.3080    0.0450    0.7190 C   0  0  2  0  0  0  0  0  0  0  0  0
   -1.2910   -1.2180   -0.1070 C   0  0  0  0  0  0  0  0  0  0  0  0
   -0.9520   -0.9000   -1.5450 C   0  0  0  0  0  0  0  0  0  0  0  0
    0.3420   -0.6450   -1.7580 O   0  0  0  0  0  0  0  0  0  0  0  0
    1.0910   -1.2940   -2.6840 C   0  0  0  0  0  0  0  0  0  0  0  0
    2.1670   -0.3060   -3.2590 C   0  0  0  0  0  0  0  0  0  0  0  0
    1.6210    1.0440   -2.9810 N   0  0  0  0  0  0  0  0  0  0  0  0
    1.1060    1.7710   -3.9990 C   0  0  0  0  0  0  0  0  0  0  0  0
    1.2160    1.5360   -5.2610 O   0  0  0  0  0  0  0  0  0  0  0  0
    0.4750    2.7560   -3.4820 O   0  0  0  0  0  0  0  0  0  0  0  0
    0.5630    2.6950   -2.1590 C   0  0  0  0  0  0  0  0  0  0  0  0
   -0.0290    3.5610   -1.2920 N   0  0  0  0  0  0  0  0  0  0  0  0
    0.1650    3.2460   -0.0210 C   0  0  0  0  0  0  0  0  0  0  0  0
    0.9210    2.1250    0.4170 C   0  0  0  0  0  0  0  0  0  0  0  0
    1.5590    1.2600   -0.4650 C   0  0  0  0  0  0  0  0  0  0  0  0
    2.7010    0.4130   -0.0480 N   0  0  0  0  0  0  0  0  0  0  0  0
    2.7770   -0.8940    0.3730 C   0  0  0  0  0  0  0  0  0  0  0  0
    1.8440   -1.6660    0.4940 O   0  0  0  0  0  0  0  0  0  0  0  0
    4.0390   -1.4450    0.7110 O   0  0  0  0  0  0  0  0  0  0  0  0
    4.1260   -2.7420    1.1300 O   0  0  0  0  0  0  0  0  0  0  0  0
    5.0670   -3.0430    2.0980 C   0  0  0  0  0  0  0  0  0  0  0  0
    5.7830   -2.1090    2.5340 O   0  0  0  0  0  0  0  0  0  0  0  0
    5.2330   -4.3450    2.5940 O   0  0  0  0  0  0  0  0  0  0  0  0
    1.3220    1.5910   -1.8200 C   0  0  0  0  0  0  0  0  0  0  0  0
    0.8420    2.0670    1.8360 O   0  0  0  0  0  0  0  0  0  0  0  0
    0.2160    1.0090    2.5610 C   0  0  0  0  0  0  0  0  0  0  0  0
    0.1840    0.9590    3.8110 O   0  0  0  0  0  0  0  0  0  0  0  0
   -0.3960   -0.0360    1.8320 N   0  0  0  0  0  0  0  0  0  0  0  0
  1  2  2  0
  2  3  1  0
  2  4  1  0
  4  5  1  0
  5  6  1  1
  5  9  1  0
  6  7  1  0
  7  8  1  0
  9 10  1  1
  9 36  1  0
 10 11  1  0
 11 12  1  0
 12 13  1  0
 13 14  1  0
 14 15  1  0
 15 16  1  0
 15 32  1  0
 16 17  2  0
 16 18  1  0
 18 19  1  0
 19 20  2  0
 19 32  1  0
 20 21  1  0
 21 22  2  0
 22 23  1  0
 22 33  1  0
 23 24  1  0
 23 32  2  0
 24 25  1  0
 25 26  2  0
 25 27  1  0
 27 28  1  0
 28 29  1  0
 29 30  2  0
 29 31  1  0
 33 34  1  0
 34 35  2  0
 34 36  1  0
M  END
