
     RDKit          3D

 32 33  0  0  0  0  0  0  0  0999 V2000
   -7.1810    0.1880    0.8190 N   0  0  0  0  0  0  0  0  0  0  0  0
   -6.3630    1.1180    0.1190 C   0  0  0  0  0  0  0  0  0  0  0  0
   -5.0400    1.0820    0.3690 N   0  0  0  0  0  0  0  0  0  0  0  0
   -4.1670    1.9150   -0.2340 C   0  0  0  0  0  0  0  0  0  0  0  0
   -4.6920    2.8220   -1.1340 C   0  0  0  0  0  0  0  0  0  0  0  0
   -3.6740    3.5320   -1.6030 N   0  0  0  0  0  0  0  0  0  0  0  0
   -2.5430    3.0770   -1.0080 C   0  0  0  0  0  0  0  0  0  0  0  0
   -2.8390    2.0820   -0.1650 N   0  0  0  0  0  0  0  0  0  0  0  0
   -1.9330    1.3480    0.6430 C   0  0  0  0  0  0  0  0  0  0  0  0
   -1.4040    0.1280   -0.0740 C   0  0  0  0  0  0  0  0  0  0  0  0
   -0.4820   -0.6160    0.7550 N   0  0  2  0  0  0  0  0  0  0  0  0
    0.8440   -0.6900    0.1940 C   0  0  0  0  0  0  0  0  0  0  0  0
    1.4080    0.7010    0.0490 C   0  0  0  0  0  0  0  0  0  0  0  0
    2.7520    0.6770   -0.5160 N   0  0  2  0  0  0  0  0  0  0  0  0
    2.6810    0.3960   -1.9090 C   0  0  0  0  0  0  0  0  0  0  0  0
    2.9540    1.6170   -2.7170 C   0  0  0  0  0  0  0  0  0  0  0  0
    3.1910    2.6470   -2.1410 O   0  0  0  0  0  0  0  0  0  0  0  0
    3.5180   -0.2600    0.2510 C   0  0  0  0  0  0  0  0  0  0  0  0
    4.9870   -0.0610    0.2320 C   0  0  0  0  0  0  0  0  0  0  0  0
    5.6960    1.4090    0.8030 P   0  0  0  0  0  0  0  0  0  0  0  0
    5.9500    1.6450    2.4250 O   0  0  0  0  0  0  0  0  0  0  0  0
    7.1850    1.0470    0.6350 O   0  0  0  0  0  0  0  0  0  0  0  0
    5.9700    2.6800   -0.2570 O   0  0  0  0  0  0  0  0  0  0  0  0
   -1.0070   -1.8770    1.1450 C   0  0  0  0  0  0  0  0  0  0  0  0
   -0.5290   -3.0150    0.2260 C   0  0  0  0  0  0  0  0  0  0  0  0
   -1.1510   -4.4650    0.6970 P   0  0  0  0  0  0  0  0  0  0  0  0
   -2.7040   -3.9860    0.5310 O   0  0  0  0  0  0  0  0  0  0  0  0
   -0.4270   -4.3600    2.2000 O   0  0  0  0  0  0  0  0  0  0  0  0
   -0.4190   -5.2880   -0.5310 O   0  0  0  0  0  0  0  0  0  0  0  0
   -6.0490    2.8770   -1.4070 C   0  0  0  0  0  0  0  0  0  0  0  0
   -6.5640    3.6790   -2.2120 O   0  0  0  0  0  0  0  0  0  0  0  0
   -6.8540    2.0120   -0.7640 N   0  0  0  0  0  0  0  0  0  0  0  0
  1  2  1  0
  2  3  2  0
  2 32  1  0
  3  4  1  0
  4  5  2  0
  4  8  1  0
  5  6  1  0
  5 30  1  0
  6  7  2  0
  7  8  1  0
  8  9  1  0
  9 10  1  0
 11 10  1  6
 11 12  1  0
 11 24  1  0
 12 13  1  0
 14 13  1  1
 14 15  1  0
 14 18  1  0
 15 16  1  0
 16 17  2  0
 18 19  1  0
 19 20  1  0
 20 21  1  0
 20 22  1  0
 20 23  1  0
 24 25  1  0
 25 26  1  0
 26 27  1  0
 26 28  1  0
 26 29  1  0
 30 31  2  0
 30 32  1  0
M  CHG  2  11   1  14   1
M  END
