
     RDKit          3D

 36 39  0  0  0  0  0  0  0  0999 V2000
   -4.0150    1.7240    2.1100 N   0  0  0  0  0  0  0  0  0  0  0  0
   -2.8030    1.7020    1.5630 C   0  0  0  0  0  0  0  0  0  0  0  0
   -1.9170    2.7980    1.6360 N   0  0  0  0  0  0  0  0  0  0  0  0
   -0.5100    2.8660    1.5620 C   0  0  0  0  0  0  0  0  0  0  0  0
    0.1480    3.3040    2.6180 O   0  0  0  0  0  0  0  0  0  0  0  0
    0.3190    2.5390    0.5360 O   0  0  0  0  0  0  0  0  0  0  0  0
    0.4470    2.9440   -0.7740 C   0  0  0  0  0  0  0  0  0  0  0  0
    1.1170    1.8170   -1.5880 C   0  0  0  0  0  0  0  0  0  0  0  0
    1.6760    0.9330   -0.7310 O   0  0  0  0  0  0  0  0  0  0  0  0
    1.8910   -0.3960   -0.5820 C   0  0  0  0  0  0  0  0  0  0  0  0
    1.2500   -1.4660   -1.1560 C   0  0  0  0  0  0  0  0  0  0  0  0
    1.7310   -2.7390   -0.7810 C   0  0  0  0  0  0  0  0  0  0  0  0
    2.7680   -2.9270    0.0970 C   0  0  0  0  0  0  0  0  0  0  0  0
    3.1800   -4.0700    0.4170 O   0  0  0  0  0  0  0  0  0  0  0  0
    3.3430   -1.8820    0.6140 O   0  0  0  0  0  0  0  0  0  0  0  0
    2.9540   -0.6630    0.3150 C   0  0  0  0  0  0  0  0  0  0  0  0
    3.7070    0.3880    0.9860 C   0  0  0  0  0  0  0  0  0  0  0  0
    3.3860    1.5840    0.7450 O   0  0  0  0  0  0  0  0  0  0  0  0
    4.7340    0.1540    1.8540 O   0  0  0  0  0  0  0  0  0  0  0  0
    5.3860    1.1640    2.4370 O   0  0  0  0  0  0  0  0  0  0  0  0
    6.6690    1.0370    2.2500 O   0  0  0  0  0  0  0  0  0  0  0  0
    7.0600   -0.2090    2.1400 O   0  0  0  0  0  0  0  0  0  0  0  0
    0.1620   -1.5160   -2.1040 C   0  0  0  0  0  0  0  0  0  0  0  0
    0.3100   -2.3350   -3.1370 O   0  0  0  0  0  0  0  0  0  0  0  0
   -1.0710   -0.8610   -2.1760 N   0  0  0  0  0  0  0  0  0  0  0  0
   -2.1660   -0.7380   -1.2760 C   0  0  2  0  0  0  0  0  0  0  0  0
   -1.8740    0.3950   -0.3760 C   0  0  0  0  0  0  0  0  0  0  0  0
   -2.5230    0.4520    0.9030 N   0  0  0  0  0  0  0  0  0  0  0  0
   -2.8930   -0.7800    1.5630 C   0  0  0  0  0  0  0  0  0  0  0  0
   -2.3130   -2.0010    0.8440 C   0  0  0  0  0  0  0  0  0  0  0  0
   -2.5650   -1.9290   -0.5610 N   0  0  0  0  0  0  0  0  0  0  0  0
   -3.1700   -2.7250   -1.5570 C   0  0  0  0  0  0  0  0  0  0  0  0
   -3.1980   -3.9960   -1.5360 O   0  0  0  0  0  0  0  0  0  0  0  0
   -3.7150   -1.8670   -2.5410 O   0  0  0  0  0  0  0  0  0  0  0  0
   -3.4210   -0.5750   -2.1040 C   0  0  0  0  0  0  0  0  0  0  0  0
   -4.0440    0.4980   -2.3340 O   0  0  0  0  0  0  0  0  0  0  0  0
  1  2  2  0
  2  3  1  0
  2 28  1  0
  3  4  1  0
  4  5  2  0
  4  6  1  0
  6  7  1  0
  7  8  1  0
  8  9  1  0
  9 10  1  0
 10 11  1  0
 10 16  2  0
 11 12  2  0
 11 23  1  0
 12 13  1  0
 13 14  2  0
 13 15  1  0
 15 16  1  0
 16 17  1  0
 17 18  2  0
 17 19  1  0
 19 20  1  0
 20 21  1  0
 21 22  1  0
 23 24  2  0
 23 25  1  0
 26 25  1  6
 26 27  1  0
 26 31  1  0
 26 35  1  0
 27 28  1  0
 28 29  1  0
 29 30  1  0
 30 31  1  0
 31 32  1  0
 32 33  2  0
 32 34  1  0
 34 35  1  0
 35 36  2  0
M  END
