
     RDKit          3D

 36 38  0  0  0  0  0  0  0  0999 V2000
   -1.0340   -3.0410    2.0190 O   0  0  0  0  0  0  0  0  0  0  0  0
   -0.2150   -3.2760    1.0900 C   0  0  0  0  0  0  0  0  0  0  0  0
   -0.6050   -3.1640   -0.3280 C   0  0  0  0  0  0  0  0  0  0  0  0
   -0.2740   -1.9480   -0.9070 O   0  0  0  0  0  0  0  0  0  0  0  0
   -1.1970   -0.9920   -0.4910 N   0  0  0  0  0  0  0  0  0  0  0  0
   -2.4880   -1.2660   -0.9860 C   0  0  0  0  0  0  0  0  0  0  0  0
   -2.6050   -1.8390   -2.1490 O   0  0  0  0  0  0  0  0  0  0  0  0
   -3.7200   -1.0250   -0.4340 O   0  0  0  0  0  0  0  0  0  0  0  0
   -3.9930   -0.5480    0.8470 C   0  0  0  0  0  0  0  0  0  0  0  0
   -5.4530   -0.0870    0.8640 C   0  0  0  0  0  0  0  0  0  0  0  0
   -5.4620    1.2390    1.2810 O   0  0  0  0  0  0  0  0  0  0  0  0
   -5.2700    2.1280    0.2300 C   0  0  0  0  0  0  0  0  0  0  0  0
   -4.3370    3.2520    0.5550 C   0  0  0  0  0  0  0  0  0  0  0  0
   -3.0090    2.9090    0.5800 O   0  0  0  0  0  0  0  0  0  0  0  0
   -2.5760    2.5150   -0.6630 C   0  0  0  0  0  0  0  0  0  0  0  0
   -1.0830    2.3860   -0.7190 C   0  0  0  0  0  0  0  0  0  0  0  0
   -0.5460    3.5210   -1.0230 O   0  0  0  0  0  0  0  0  0  0  0  0
   -0.3010    1.2150   -0.4830 N   0  0  0  0  0  0  0  0  0  0  0  0
    0.9870    1.2750   -1.1790 C   0  0  0  0  0  0  0  0  0  0  0  0
    1.2770    2.3350   -1.8770 O   0  0  0  0  0  0  0  0  0  0  0  0
    1.9610    0.3440   -1.2020 O   0  0  0  0  0  0  0  0  0  0  0  0
    2.9290   -0.1230   -0.3370 C   0  0  1  0  0  0  0  0  0  0  0  0
    4.2890    0.5260   -0.5270 C   0  0  0  0  0  0  0  0  0  0  0  0
    5.1540   -0.0580    0.4270 O   0  0  0  0  0  0  0  0  0  0  0  0
    6.3650    0.4700    0.3100 O   0  0  0  0  0  0  0  0  0  0  0  0
    6.2930    1.6250   -0.3290 O   0  0  0  0  0  0  0  0  0  0  0  0
    7.0200    2.5550    0.2180 O   0  0  0  0  0  0  0  0  0  0  0  0
    6.3020    3.1500    1.1480 O   0  0  0  0  0  0  0  0  0  0  0  0
    2.6260   -0.1360    1.1090 C   0  0  0  0  0  0  0  0  0  0  0  0
    2.1410   -1.4030    1.4270 O   0  0  0  0  0  0  0  0  0  0  0  0
    2.9460   -2.2740    0.6900 C   0  0  1  0  0  0  0  0  0  0  0  0
    2.1540   -3.5400    0.4640 C   0  0  0  0  0  0  0  0  0  0  0  0
    1.0880   -3.6490    1.3890 O   0  0  0  0  0  0  0  0  0  0  0  0
    3.1520   -1.5930   -0.6460 C   0  0  0  0  0  0  0  0  0  0  0  0
   -0.6990    0.0730    0.3010 C   0  0  0  0  0  0  0  0  0  0  0  0
   -0.6170    0.0010    1.6160 O   0  0  0  0  0  0  0  0  0  0  0  0
  1  2  2  0
  2  3  1  0
  2 33  1  0
  3  4  1  0
  4  5  1  0
  5  6  1  0
  5 35  1  0
  6  7  2  0
  6  8  1  0
  8  9  1  0
  9 10  1  0
 10 11  1  0
 11 12  1  0
 12 13  1  0
 13 14  1  0
 14 15  1  0
 15 16  1  0
 16 17  2  0
 16 18  1  0
 18 19  1  0
 18 35  1  0
 19 20  2  0
 19 21  1  0
 21 22  1  0
 22 23  1  1
 22 29  1  0
 22 34  1  0
 23 24  1  0
 24 25  1  0
 25 26  1  0
 26 27  1  0
 27 28  1  0
 29 30  1  0
 30 31  1  0
 31 32  1  6
 31 34  1  0
 32 33  1  0
 35 36  2  0
M  END
