
     RDKit          3D

 36 37  0  0  0  0  0  0  0  0999 V2000
   -4.2540    2.0520   -3.0660 O   0  0  0  0  0  0  0  0  0  0  0  0
   -3.3190    1.4720   -2.4020 C   0  0  0  0  0  0  0  0  0  0  0  0
   -2.0090    1.9180   -2.4990 O   0  0  0  0  0  0  0  0  0  0  0  0
   -1.1330    2.1240   -1.4110 C   0  0  0  0  0  0  0  0  0  0  0  0
   -1.8200    2.5720   -0.2910 O   0  0  0  0  0  0  0  0  0  0  0  0
   -1.4000    3.4060    0.7230 C   0  0  0  0  0  0  0  0  0  0  0  0
   -2.0410    4.4760    0.9700 O   0  0  0  0  0  0  0  0  0  0  0  0
   -0.2380    3.1510    1.5680 C   0  0  0  0  0  0  0  0  0  0  0  0
   -0.3090    3.3070    2.8420 O   0  0  0  0  0  0  0  0  0  0  0  0
    1.0900    2.7030    1.0630 C   0  0  0  0  0  0  0  0  0  0  0  0
    1.6690    1.8910    2.0380 O   0  0  0  0  0  0  0  0  0  0  0  0
    2.1900    0.5850    1.8940 C   0  0  0  0  0  0  0  0  0  0  0  0
    3.4530    0.6250    2.2830 O   0  0  0  0  0  0  0  0  0  0  0  0
    1.3600   -0.5220    1.3880 C   0  0  0  0  0  0  0  0  0  0  0  0
    0.6200   -1.3680    2.2000 C   0  0  0  0  0  0  0  0  0  0  0  0
    0.4250   -1.4560    3.6300 O   0  0  0  0  0  0  0  0  0  0  0  0
   -0.1640   -2.4050    1.6940 N   0  0  0  0  0  0  0  0  0  0  0  0
   -0.2540   -2.6500    0.3990 C   0  0  0  0  0  0  0  0  0  0  0  0
    0.4470   -1.8450   -0.3720 N   0  0  0  0  0  0  0  0  0  0  0  0
    1.2650   -0.7760    0.0210 C   0  0  0  0  0  0  0  0  0  0  0  0
    1.6760   -0.3340   -1.1130 N   0  0  0  0  0  0  0  0  0  0  0  0
    2.3390    0.4860   -1.8000 O   0  0  0  0  0  0  0  0  0  0  0  0
    3.5960    0.6250   -2.1610 O   0  0  0  0  0  0  0  0  0  0  0  0
    4.4470    0.8310   -1.0820 C   0  0  0  0  0  0  0  0  0  0  0  0
    5.8780    0.9880   -1.4930 C   0  0  0  0  0  0  0  0  0  0  0  0
    6.3490   -0.1500   -2.1670 O   0  0  0  0  0  0  0  0  0  0  0  0
    7.6030    0.0010   -2.5150 O   0  0  0  0  0  0  0  0  0  0  0  0
   -0.9440   -3.6250   -0.3500 N   0  0  0  0  0  0  0  0  0  0  0  0
   -2.1500   -3.8140   -0.6260 C   0  0  0  0  0  0  0  0  0  0  0  0
   -3.2120   -2.9720   -0.1830 N   0  0  0  0  0  0  0  0  0  0  0  0
   -3.3030   -1.5770   -0.3120 C   0  0  0  0  0  0  0  0  0  0  0  0
   -3.7130   -0.8030    0.6730 C   0  0  0  0  0  0  0  0  0  0  0  0
   -4.0990   -1.3780    1.9730 C   0  0  0  0  0  0  0  0  0  0  0  0
   -5.4340   -1.0930    2.3030 O   0  0  0  0  0  0  0  0  0  0  0  0
   -2.9470   -0.8500   -1.5840 C   0  0  0  0  0  0  0  0  0  0  0  0
   -3.5730    0.4000   -1.5800 O   0  0  0  0  0  0  0  0  0  0  0  0
  1  2  2  0
  2  3  1  0
  2 36  1  0
  3  4  1  0
  4  5  1  0
  5  6  1  0
  6  7  2  0
  6  8  1  0
  8  9  2  0
  8 10  1  0
 10 11  1  0
 11 12  1  0
 12 13  2  0
 12 14  1  0
 14 15  2  0
 14 20  1  0
 15 16  1  0
 15 17  1  0
 17 18  1  0
 18 19  2  0
 18 28  1  0
 19 20  1  0
 20 21  2  3
 21 22  1  0
 22 23  1  0
 23 24  1  0
 24 25  1  0
 25 26  1  0
 26 27  1  0
 28 29  2  0
 29 30  1  0
 30 31  1  0
 31 32  2  3
 31 35  1  0
 32 33  1  0
 33 34  1  0
 35 36  1  0
M  END
