
     RDKit          3D

 36 37  0  0  0  0  0  0  0  0999 V2000
    3.3500   -4.6990    0.3910 O   0  0  0  0  0  0  0  0  0  0  0  0
    3.9150   -4.2400    1.3960 C   0  0  0  0  0  0  0  0  0  0  0  0
    3.9620   -5.0020    2.5590 O   0  0  0  0  0  0  0  0  0  0  0  0
    4.4780   -2.9810    1.3140 O   0  0  0  0  0  0  0  0  0  0  0  0
    4.4440   -2.1880    0.1480 C   0  0  2  0  0  0  0  0  0  0  0  0
    5.7250   -1.8340   -0.3030 O   0  0  0  0  0  0  0  0  0  0  0  0
    6.1410   -2.2130   -1.5690 C   0  0  0  0  0  0  0  0  0  0  0  0
    5.3840   -2.8700   -2.3170 O   0  0  0  0  0  0  0  0  0  0  0  0
    7.3910   -1.8720   -2.0200 O   0  0  0  0  0  0  0  0  0  0  0  0
    3.6070   -0.9900    0.4740 C   0  0  0  0  0  0  0  0  0  0  0  0
    4.0210   -0.1680    1.5020 O   0  0  0  0  0  0  0  0  0  0  0  0
    2.5440   -0.7180   -0.1610 N   0  0  0  0  0  0  0  0  0  0  0  0
    1.6810    0.3770    0.0560 C   0  0  0  0  0  0  0  0  0  0  0  0
    2.1530    1.5610    0.0450 N   0  0  0  0  0  0  0  0  0  0  0  0
    1.3900    2.6800    0.2470 O   0  0  0  0  0  0  0  0  0  0  0  0
    1.6250    3.7950   -0.6260 C   0  0  0  0  0  0  0  0  0  0  0  0
    0.7050    4.9470   -0.2710 C   0  0  0  0  0  0  0  0  0  0  0  0
    0.9990    5.2920    1.0660 O   0  0  0  0  0  0  0  0  0  0  0  0
    0.2220    6.2800    1.3930 O   0  0  0  0  0  0  0  0  0  0  0  0
    0.2300    0.0650    0.2970 C   0  0  1  0  0  0  0  0  0  0  0  0
   -0.4110    1.2630    0.3640 O   0  0  0  0  0  0  0  0  0  0  0  0
   -1.0760    1.7000   -0.7440 C   0  0  0  0  0  0  0  0  0  0  0  0
   -2.0400    0.5960   -1.1440 C   0  0  2  0  0  0  0  0  0  0  0  0
   -1.2060   -0.6030   -1.4410 C   0  0  0  0  0  0  0  0  0  0  0  0
   -0.1140   -0.8130   -0.6780 O   0  0  0  0  0  0  0  0  0  0  0  0
   -2.7780    1.0360   -2.2370 O   0  0  0  0  0  0  0  0  0  0  0  0
   -3.9960    1.2870   -1.8210 O   0  0  0  0  0  0  0  0  0  0  0  0
   -4.7770    0.1310   -1.8270 C   0  0  0  0  0  0  0  0  0  0  0  0
   -5.4160   -0.0710   -0.4640 C   0  0  0  0  0  0  0  0  0  0  0  0
   -4.9910   -1.4100    0.1080 C   0  0  0  0  0  0  0  0  0  0  0  0
   -4.5340   -1.1850    1.4220 O   0  0  0  0  0  0  0  0  0  0  0  0
   -3.2710   -1.7920    1.5620 C   0  0  0  0  0  0  0  0  0  0  0  0
   -2.3030   -0.8890    2.2960 C   0  0  0  0  0  0  0  0  0  0  0  0
   -0.9830   -1.2790    2.0590 O   0  0  0  0  0  0  0  0  0  0  0  0
    0.0960   -0.5520    1.6780 C   0  0  0  0  0  0  0  0  0  0  0  0
    1.0830   -0.3350    2.4660 O   0  0  0  0  0  0  0  0  0  0  0  0
  1  2  2  0
  2  3  1  0
  2  4  1  0
  5  4  1  1
  5  6  1  0
  5 10  1  0
  6  7  1  0
  7  8  2  0
  7  9  1  0
 10 11  1  0
 10 12  2  3
 12 13  1  0
 13 14  2  3
 20 13  1  6
 14 15  1  0
 15 16  1  0
 16 17  1  0
 17 18  1  0
 18 19  1  0
 20 21  1  0
 20 25  1  0
 20 35  1  0
 21 22  1  0
 22 23  1  0
 23 24  1  6
 23 26  1  0
 24 25  1  0
 26 27  1  0
 27 28  1  0
 28 29  1  0
 29 30  1  0
 30 31  1  0
 31 32  1  0
 32 33  1  0
 33 34  1  0
 34 35  1  0
 35 36  2  0
M  END
