
     RDKit          3D

 30 33  0  0  0  0  0  0  0  0999 V2000
    0.8090   -3.1960    0.7050 C   0  0  0  0  0  0  0  0  0  0  0  0
    0.8110   -2.2870   -0.4650 N   0  0  0  0  0  0  0  0  0  0  0  0
   -0.5300   -1.9180   -0.8640 C   0  0  0  0  0  0  0  0  0  0  0  0
   -1.3410   -1.4030    0.2570 C   0  0  0  0  0  0  0  0  0  0  0  0
   -1.1210   -1.8180    1.4330 O   0  0  0  0  0  0  0  0  0  0  0  0
   -2.3760   -0.4510    0.1000 N   0  0  0  0  0  0  0  0  0  0  0  0
   -3.1660   -0.6440    1.3070 C   0  0  0  0  0  0  0  0  0  0  0  0
   -4.6490   -0.5410    1.0510 C   0  0  0  0  0  0  0  0  0  0  0  0
   -5.0050    0.8860    0.7950 C   0  0  0  0  0  0  0  0  0  0  0  0
   -5.8360    0.9340   -0.4690 C   0  0  0  0  0  0  0  0  0  0  0  0
   -5.0620    0.4460   -1.6690 C   0  0  2  0  0  0  0  0  0  0  0  0
   -5.2910   -0.8790   -1.9550 F   0  0  0  0  0  0  0  0  0  0  0  0
   -3.6770    0.7220   -1.6180 N   0  0  0  0  0  0  0  0  0  0  0  0
   -2.5480    0.4440   -0.9900 C   0  0  0  0  0  0  0  0  0  0  0  0
   -1.5280    1.2310   -1.6210 C   0  0  0  0  0  0  0  0  0  0  0  0
   -0.3120    1.5540   -1.1330 C   0  0  0  0  0  0  0  0  0  0  0  0
    0.0530    1.1150    0.0920 N   0  0  0  0  0  0  0  0  0  0  0  0
    0.9880    0.8450    0.8610 C   0  0  0  0  0  0  0  0  0  0  0  0
    2.4500    0.9190    0.6960 C   0  0  0  0  0  0  0  0  0  0  0  0
    3.2800    1.7210    1.4190 N   0  0  0  0  0  0  0  0  0  0  0  0
    4.5480    1.6120    0.9920 C   0  0  0  0  0  0  0  0  0  0  0  0
    5.7510    2.2160    1.3820 C   0  0  0  0  0  0  0  0  0  0  0  0
    6.9280    1.9130    0.7400 C   0  0  0  0  0  0  0  0  0  0  0  0
    6.8820    1.0030   -0.2910 C   0  0  0  0  0  0  0  0  0  0  0  0
    5.7040    0.4100   -0.6740 C   0  0  0  0  0  0  0  0  0  0  0  0
    4.5220    0.7170   -0.0250 C   0  0  0  0  0  0  0  0  0  0  0  0
    3.1910    0.2510   -0.2380 C   0  0  0  0  0  0  0  0  0  0  0  0
    2.7160   -0.7100   -1.1870 N   0  0  0  0  0  0  0  0  0  0  0  0
    2.0410   -1.9280   -1.0420 C   0  0  0  0  0  0  0  0  0  0  0  0
    2.6510   -3.0100   -1.5410 O   0  0  0  0  0  0  0  0  0  0  0  0
  1  2  1  0
  2  3  1  0
  2 29  1  0
  3  4  1  0
  4  5  2  0
  4  6  1  0
  6  7  1  0
  6 14  1  0
  7  8  1  0
  8  9  1  0
  9 10  1  0
 10 11  1  0
 11 12  1  1
 11 13  1  0
 13 14  2  0
 14 15  1  0
 15 16  2  0
 16 17  1  0
 17 18  2  0
 18 19  1  0
 19 20  1  0
 19 27  2  0
 20 21  1  0
 21 22  2  0
 21 26  1  0
 22 23  1  0
 23 24  2  0
 24 25  1  0
 25 26  2  0
 26 27  1  0
 27 28  1  0
 28 29  1  0
 29 30  2  0
M  END
