
     RDKit          3D

 29 32  0  0  0  0  0  0  0  0999 V2000
    4.1970    1.0440   -1.4090 C   0  0  0  0  0  0  0  0  0  0  0  0
    4.2350    0.1460   -0.1890 C   0  0  2  0  0  0  0  0  0  0  0  0
    5.6530    0.3350    0.3820 C   0  0  0  0  0  0  0  0  0  0  0  0
    4.1850   -1.2670   -0.6690 C   0  0  0  0  0  0  0  0  0  0  0  0
    3.2530    0.5150    0.8690 C   0  0  2  0  0  0  0  0  0  0  0  0
    3.2810   -0.3550    2.0720 C   0  0  0  0  0  0  0  0  0  0  0  0
    2.4770   -1.6250    1.8790 C   0  0  0  0  0  0  0  0  0  0  0  0
    1.1830   -1.3670    1.2480 C   0  0  0  0  0  0  0  0  0  0  0  0
    0.8810   -0.3010    0.5340 C   0  0  0  0  0  0  0  0  0  0  0  0
    1.8380    0.6450    0.3570 C   0  0  0  0  0  0  0  0  0  0  0  0
    1.4960    1.7760   -0.3540 C   0  0  0  0  0  0  0  0  0  0  0  0
    0.2550    1.9690   -0.8730 C   0  0  0  0  0  0  0  0  0  0  0  0
   -0.7250    0.9840   -0.6810 C   0  0  0  0  0  0  0  0  0  0  0  0
   -0.4530   -0.1800    0.0200 C   0  0  0  0  0  0  0  0  0  0  0  0
   -1.2130   -1.1440    0.2130 N   0  0  0  0  0  0  0  0  0  0  0  0
   -2.5130   -1.6050   -0.0190 C   0  0  0  0  0  0  0  0  0  0  0  0
   -2.7850   -1.7970   -1.4900 C   0  0  0  0  0  0  0  0  0  0  0  0
   -4.0260   -1.1890   -2.0260 C   0  0  0  0  0  0  0  0  0  0  0  0
   -5.0210   -1.0900   -0.9840 N   0  0  0  0  0  0  0  0  0  0  0  0
   -5.5670   -0.0100   -0.3060 C   0  0  0  0  0  0  0  0  0  0  0  0
   -6.8390    0.1580   -0.4990 O   0  0  0  0  0  0  0  0  0  0  0  0
   -5.0020    0.9760    0.5850 N   0  0  0  0  0  0  0  0  0  0  0  0
   -3.8900    1.6730    0.3910 C   0  0  0  0  0  0  0  0  0  0  0  0
   -3.7600    2.4600    1.5200 N   0  0  0  0  0  0  0  0  0  0  0  0
   -4.7200    2.2700    2.3570 N   0  0  0  0  0  0  0  0  0  0  0  0
   -5.5070    1.3610    1.8130 C   0  0  0  0  0  0  0  0  0  0  0  0
   -6.5670    0.9380    2.3860 O   0  0  0  0  0  0  0  0  0  0  0  0
   -3.1410    1.5550   -0.7690 N   0  0  0  0  0  0  0  0  0  0  0  0
   -2.0450    1.3250   -1.2580 C   0  0  0  0  0  0  0  0  0  0  0  0
  2  1  1  6
  2  3  1  0
  2  4  1  0
  2  5  1  0
  5  6  1  1
  5 10  1  0
  6  7  1  0
  7  8  1  0
  8  9  2  0
  9 10  1  0
  9 14  1  0
 10 11  2  0
 11 12  1  0
 12 13  2  0
 13 14  1  0
 13 29  1  0
 14 15  2  0
 15 16  1  0
 16 17  1  0
 17 18  1  0
 18 19  1  0
 19 20  1  0
 20 21  2  0
 20 22  1  0
 22 23  1  0
 22 26  1  0
 23 24  2  0
 23 28  1  0
 24 25  1  0
 25 26  1  0
 26 27  2  0
 28 29  2  0
M  END
