
     RDKit          3D

 30 33  0  0  0  0  0  0  0  0999 V2000
    1.5820   -0.3610   -3.5340 C   0  0  0  0  0  0  0  0  0  0  0  0
    1.4720   -1.0620   -2.1790 C   0  0  0  0  0  0  0  0  0  0  0  0
    0.4300   -1.8770   -2.0660 C   0  0  0  0  0  0  0  0  0  0  0  0
    0.0450   -2.6730   -0.9210 C   0  0  0  0  0  0  0  0  0  0  0  0
   -0.6740   -2.3600    0.1260 C   0  0  0  0  0  0  0  0  0  0  0  0
   -1.2850   -1.0240    0.3590 C   0  0  2  0  0  0  0  0  0  0  0  0
   -1.4940   -0.6290    1.7360 C   0  0  1  0  0  0  0  0  0  0  0  0
   -1.2970    0.7720    2.1200 C   0  0  0  0  0  0  0  0  0  0  0  0
   -0.9110    0.9950    3.3380 O   0  0  0  0  0  0  0  0  0  0  0  0
   -1.4730    1.9370    1.3410 N   0  0  0  0  0  0  0  0  0  0  0  0
   -0.8410    2.2960    0.1250 C   0  0  0  0  0  0  0  0  0  0  0  0
   -1.5250    3.0730   -0.7690 C   0  0  0  0  0  0  0  0  0  0  0  0
   -0.9750    3.4920   -1.9690 C   0  0  0  0  0  0  0  0  0  0  0  0
    0.3020    3.1230   -2.2870 C   0  0  0  0  0  0  0  0  0  0  0  0
    0.9760    3.5290   -3.5560 C   0  0  0  0  0  0  0  0  0  0  0  0
    0.9620    2.3770   -1.4340 N   0  0  0  0  0  0  0  0  0  0  0  0
    0.4860    1.9220   -0.2260 C   0  0  0  0  0  0  0  0  0  0  0  0
    1.1180    1.1520    0.6670 N   0  0  0  0  0  0  0  0  0  0  0  0
    1.8460    0.2180    0.9740 C   0  0  0  0  0  0  0  0  0  0  0  0
    2.2030   -0.1650    2.3300 N   0  0  0  0  0  0  0  0  0  0  0  0
    3.0600   -1.2780    2.2550 C   0  0  0  0  0  0  0  0  0  0  0  0
    3.6850   -2.0220    3.4140 C   0  0  0  0  0  0  0  0  0  0  0  0
    2.6770   -2.5170    4.2090 F   0  0  0  0  0  0  0  0  0  0  0  0
    3.2460   -1.5910    1.0340 N   0  0  0  0  0  0  0  0  0  0  0  0
    2.5370   -0.7230    0.1640 N   0  0  0  0  0  0  0  0  0  0  0  0
    2.5320   -0.7760   -1.2700 C   0  0  0  0  0  0  0  0  0  0  0  0
    3.6950   -0.5210   -1.8110 O   0  0  0  0  0  0  0  0  0  0  0  0
   -2.6880   -1.0610    0.9660 C   0  0  1  0  0  0  0  0  0  0  0  0
   -3.7030   -0.0750    0.4810 C   0  0  0  0  0  0  0  0  0  0  0  0
   -3.2630   -2.4390    1.2150 C   0  0  0  0  0  0  0  0  0  0  0  0
  1  2  1  0
  2  3  2  0
  2 26  1  0
  3  4  1  0
  4  5  2  0
  6  5  1  1
  6  7  1  0
  6 28  1  0
  7  8  1  6
  7 28  1  0
  8  9  2  0
  8 10  1  0
 10 11  1  0
 11 12  2  0
 11 17  1  0
 12 13  1  0
 13 14  2  0
 14 15  1  0
 14 16  1  0
 16 17  2  0
 17 18  1  0
 18 19  2  0
 19 20  1  0
 19 25  1  0
 20 21  1  0
 21 22  1  0
 21 24  2  0
 22 23  1  0
 24 25  1  0
 25 26  1  0
 26 27  2  0
 28 29  1  6
 28 30  1  0
M  END
