
     RDKit          3D

 30 32  0  0  0  0  0  0  0  0999 V2000
    1.3710   -0.3280    2.5720 C   0  0  0  0  0  0  0  0  0  0  0  0
    0.4290    0.0910    1.5980 N   0  0  0  0  0  0  0  0  0  0  0  0
    0.6240    0.8110    0.5560 C   0  0  0  0  0  0  0  0  0  0  0  0
    1.9100    1.3840    0.1270 C   0  0  0  0  0  0  0  0  0  0  0  0
    2.8890    0.3280    0.1530 O   0  0  0  0  0  0  0  0  0  0  0  0
    4.1910    0.6550   -0.2310 C   0  0  0  0  0  0  0  0  0  0  0  0
    4.5330    1.9280   -0.6190 C   0  0  0  0  0  0  0  0  0  0  0  0
    5.8270    2.2150   -0.9920 C   0  0  0  0  0  0  0  0  0  0  0  0
    6.8110    1.2490   -0.9900 C   0  0  0  0  0  0  0  0  0  0  0  0
    8.6120    1.5980   -1.4990 Br  0  0  0  0  0  0  0  0  0  0  0  0
    6.4770   -0.0300   -0.6030 C   0  0  0  0  0  0  0  0  0  0  0  0
    7.4320   -1.0390   -0.5880 C   0  0  0  0  0  0  0  0  0  0  0  0
    7.1630   -2.3360   -0.2160 C   0  0  0  0  0  0  0  0  0  0  0  0
    5.8650   -2.6160    0.1580 C   0  0  0  0  0  0  0  0  0  0  0  0
    5.5490   -3.8740    0.5300 F   0  0  0  0  0  0  0  0  0  0  0  0
    4.8980   -1.6200    0.1480 C   0  0  0  0  0  0  0  0  0  0  0  0
    5.1580   -0.3180   -0.2240 C   0  0  0  0  0  0  0  0  0  0  0  0
   -0.4860    1.0710   -0.2290 O   0  0  0  0  0  0  0  0  0  0  0  0
   -1.5830    0.2930   -0.3090 N   0  0  0  0  0  0  0  0  0  0  0  0
   -2.8480    0.8740   -0.0520 C   0  0  0  0  0  0  0  0  0  0  0  0
   -2.8790    2.1060    0.2490 O   0  0  0  0  0  0  0  0  0  0  0  0
   -4.0710    0.0960   -0.1320 C   0  0  0  0  0  0  0  0  0  0  0  0
   -4.0610   -1.2680   -0.2060 C   0  0  0  0  0  0  0  0  0  0  0  0
   -5.2390   -2.0090   -0.3040 C   0  0  0  0  0  0  0  0  0  0  0  0
   -6.4540   -1.3620   -0.3270 C   0  0  0  0  0  0  0  0  0  0  0  0
   -7.7350   -2.1490   -0.4450 C   0  0  0  0  0  0  0  0  0  0  0  0
   -6.4780    0.0100   -0.2520 C   0  0  0  0  0  0  0  0  0  0  0  0
   -7.7860    0.7300   -0.2800 C   0  0  0  0  0  0  0  0  0  0  0  0
   -8.3860    0.6010    0.9490 F   0  0  0  0  0  0  0  0  0  0  0  0
   -5.3170    0.7410   -0.1550 C   0  0  0  0  0  0  0  0  0  0  0  0
  1  2  1  0
  2  3  2  3
  3  4  1  0
  3 18  1  0
  4  5  1  0
  5  6  1  0
  6  7  2  0
  6 17  1  0
  7  8  1  0
  8  9  2  0
  9 10  1  0
  9 11  1  0
 11 12  2  0
 11 17  1  0
 12 13  1  0
 13 14  2  0
 14 15  1  0
 14 16  1  0
 16 17  2  0
 18 19  1  0
 19 20  1  0
 20 21  2  0
 20 22  1  0
 22 23  2  0
 22 30  1  0
 23 24  1  0
 24 25  2  0
 25 26  1  0
 25 27  1  0
 27 28  1  0
 27 30  2  0
 28 29  1  0
M  END
