
     RDKit          3D

 29 32  0  0  0  0  0  0  0  0999 V2000
   -5.3400    0.2710    1.1540 C   0  0  0  0  0  0  0  0  0  0  0  0
   -4.1340    0.8610    0.4720 C   0  0  0  0  0  0  0  0  0  0  0  0
   -2.9250    0.1350    0.3450 C   0  0  0  0  0  0  0  0  0  0  0  0
   -1.8660    0.6870   -0.2750 N   0  0  0  0  0  0  0  0  0  0  0  0
   -2.0120    1.9280   -0.7530 C   0  0  0  0  0  0  0  0  0  0  0  0
   -3.2120    2.6180   -0.6140 N   0  0  0  0  0  0  0  0  0  0  0  0
   -4.2880    2.1390   -0.0190 C   0  0  0  0  0  0  0  0  0  0  0  0
   -5.3700    2.7730    0.1010 O   0  0  0  0  0  0  0  0  0  0  0  0
   -1.1110    2.8130   -1.4540 N   0  0  0  0  0  0  0  0  0  0  0  0
    0.1920    3.2160   -1.1840 C   0  0  0  0  0  0  0  0  0  0  0  0
    0.9420    3.6140   -2.1320 O   0  0  0  0  0  0  0  0  0  0  0  0
    0.8360    3.2320    0.1610 C   0  0  0  0  0  0  0  0  0  0  0  0
    1.9030    2.2350    0.1920 N   0  0  0  0  0  0  0  0  0  0  0  0
    1.5650    0.9900    0.4690 N   0  0  0  0  0  0  0  0  0  0  0  0
    2.6810    0.2570    0.4410 C   0  0  0  0  0  0  0  0  0  0  0  0
    3.7250    1.0730    0.1410 C   0  0  0  0  0  0  0  0  0  0  0  0
    5.0670    0.7840    0.0000 C   0  0  0  0  0  0  0  0  0  0  0  0
    5.9190    1.7980   -0.3080 C   0  0  0  0  0  0  0  0  0  0  0  0
    5.3970    3.0700   -0.4650 C   0  0  0  0  0  0  0  0  0  0  0  0
    4.0760    3.3330   -0.3230 N   0  0  0  0  0  0  0  0  0  0  0  0
    3.2130    2.3390   -0.0170 C   0  0  0  0  0  0  0  0  0  0  0  0
    2.5300   -1.2010    0.7270 C   0  0  0  0  0  0  0  0  0  0  0  0
    1.5120   -1.7360   -0.2650 C   0  0  1  0  0  0  0  0  0  0  0  0
    2.1420   -2.8020   -1.1300 C   0  0  0  0  0  0  0  0  0  0  0  0
    0.3650   -2.3130    0.5600 C   0  0  0  0  0  0  0  0  0  0  0  0
   -0.6410   -2.8800   -0.3960 C   0  0  0  0  0  0  0  0  0  0  0  0
   -1.8690   -3.3060    0.3970 C   0  0  0  0  0  0  0  0  0  0  0  0
   -2.9840   -2.3590    0.0140 C   0  0  0  0  0  0  0  0  0  0  0  0
   -3.0500   -1.2110    0.9870 C   0  0  0  0  0  0  0  0  0  0  0  0
  1  2  1  0
  2  3  2  0
  2  7  1  0
  3  4  1  0
  3 29  1  0
  4  5  1  0
  5  6  2  0
  5  9  1  0
  6  7  1  0
  7  8  2  0
  9 10  1  0
 10 11  2  0
 10 12  1  0
 12 13  1  0
 13 14  1  0
 13 21  1  0
 14 15  2  0
 15 16  1  0
 15 22  1  0
 16 17  2  0
 16 21  1  0
 17 18  1  0
 18 19  2  0
 19 20  1  0
 20 21  2  0
 22 23  1  0
 23 24  1  1
 23 25  1  0
 25 26  1  0
 26 27  1  0
 27 28  1  0
 28 29  1  0
M  END
