
     RDKit          3D

 30 33  0  0  0  0  0  0  0  0999 V2000
    7.1520   -2.2090   -0.5300 O   0  0  0  0  0  0  0  0  0  0  0  0
    6.9460   -1.0350    0.3490 S   0  0  1  0  0  0  0  0  0  0  0  0
    7.4020   -1.2320    1.7450 O   0  0  0  0  0  0  0  0  0  0  0  0
    7.7330    0.3530   -0.3800 N   0  0  0  0  0  0  0  0  0  0  0  0
    6.8150    1.4160   -0.1360 C   0  0  1  0  0  0  0  0  0  0  0  0
    6.9000    2.2870   -1.2470 O   0  0  0  0  0  0  0  0  0  0  0  0
    5.4540    0.9310   -0.0140 C   0  0  0  0  0  0  0  0  0  0  0  0
    4.2690    1.6690   -0.1410 C   0  0  0  0  0  0  0  0  0  0  0  0
    3.0660    1.0380    0.0120 C   0  0  0  0  0  0  0  0  0  0  0  0
    2.9450   -0.3090    0.2900 C   0  0  0  0  0  0  0  0  0  0  0  0
    1.6820   -0.9430    0.4450 N   0  0  0  0  0  0  0  0  0  0  0  0
    0.7600   -1.0640   -0.5540 C   0  0  0  0  0  0  0  0  0  0  0  0
   -0.3530   -1.7350   -0.0510 C   0  0  0  0  0  0  0  0  0  0  0  0
   -1.5370   -2.0300   -0.8800 C   0  0  0  0  0  0  0  0  0  0  0  0
   -2.4950   -1.0270   -0.8460 O   0  0  0  0  0  0  0  0  0  0  0  0
   -2.9320   -0.8470    0.4430 C   0  0  2  0  0  0  0  0  0  0  0  0
   -4.2960   -1.0710    0.5960 O   0  0  0  0  0  0  0  0  0  0  0  0
   -5.0570   -0.2640   -0.2440 C   0  0  1  0  0  0  0  0  0  0  0  0
   -6.5130   -0.5210    0.0900 C   0  0  0  0  0  0  0  0  0  0  0  0
   -6.7960   -1.8620   -0.1240 O   0  0  0  0  0  0  0  0  0  0  0  0
   -4.7990    1.2070   -0.0040 C   0  0  1  0  0  0  0  0  0  0  0  0
   -5.3450    1.5890    1.2050 O   0  0  0  0  0  0  0  0  0  0  0  0
   -3.3190    1.5200    0.0050 C   0  0  2  0  0  0  0  0  0  0  0  0
   -2.7590    1.4310   -1.2660 O   0  0  0  0  0  0  0  0  0  0  0  0
   -2.6620    0.5550    0.9690 C   0  0  1  0  0  0  0  0  0  0  0  0
   -3.3680    0.6590    2.1800 O   0  0  0  0  0  0  0  0  0  0  0  0
   -0.0650   -1.9930    1.2180 N   0  0  0  0  0  0  0  0  0  0  0  0
    1.1400   -1.5170    1.4890 N   0  0  0  0  0  0  0  0  0  0  0  0
    4.1020   -1.0350    0.4150 C   0  0  0  0  0  0  0  0  0  0  0  0
    5.3160   -0.4050    0.2620 C   0  0  0  0  0  0  0  0  0  0  0  0
  1  2  2  0
  2  3  2  0
  2  4  1  6
  2 30  1  0
  4  5  1  0
  5  6  1  6
  5  7  1  0
  7  8  2  0
  7 30  1  0
  8  9  1  0
  9 10  2  0
 10 11  1  0
 10 29  1  0
 11 12  1  0
 11 28  1  0
 12 13  2  0
 13 14  1  0
 13 27  1  0
 14 15  1  0
 16 15  1  6
 16 17  1  0
 16 25  1  0
 17 18  1  0
 18 19  1  1
 18 21  1  0
 19 20  1  0
 21 22  1  1
 21 23  1  0
 23 24  1  6
 23 25  1  0
 25 26  1  1
 27 28  2  0
 29 30  2  0
M  END
