
     RDKit          3D

 30 32  0  0  0  0  0  0  0  0999 V2000
    2.8730    2.8080   -0.0770 O   0  0  0  0  0  0  0  0  0  0  0  0
    3.3990    1.6790   -0.4380 C   0  0  0  0  0  0  0  0  0  0  0  0
    2.5740    0.8640   -1.3780 C   0  0  0  0  0  0  0  0  0  0  0  0
    1.1630    1.2340   -1.0760 N   0  0  0  0  0  0  0  0  0  0  0  0
    0.8500    1.0750    0.3330 C   0  0  0  0  0  0  0  0  0  0  0  0
    0.0130   -0.1550    0.4930 C   0  0  0  0  0  0  0  0  0  0  0  0
    0.7040   -1.3100    1.1350 C   0  0  0  0  0  0  0  0  0  0  0  0
    1.5440   -1.1420    1.9930 N   0  0  0  0  0  0  0  0  0  0  0  0
    2.3340   -0.4430    2.8240 C   0  0  0  0  0  0  0  0  0  0  0  0
    3.6390   -0.1230    2.7560 C   0  0  0  0  0  0  0  0  0  0  0  0
    4.5890   -0.4560    1.7180 C   0  0  0  0  0  0  0  0  0  0  0  0
    4.9410    0.1630    0.6800 N   0  0  0  0  0  0  0  0  0  0  0  0
    4.6710    1.3110    0.0580 N   0  0  0  0  0  0  0  0  0  0  0  0
    0.2480   -2.6450    0.6350 C   0  0  0  0  0  0  0  0  0  0  0  0
    1.2170   -3.7830    0.6260 C   0  0  0  0  0  0  0  0  0  0  0  0
    2.4640   -3.6570    0.9760 C   0  0  0  0  0  0  0  0  0  0  0  0
    3.2200   -4.8000    0.9130 F   0  0  0  0  0  0  0  0  0  0  0  0
   -0.9810   -2.9230    0.2380 C   0  0  0  0  0  0  0  0  0  0  0  0
   -2.2330   -2.1390    0.1430 C   0  0  0  0  0  0  0  0  0  0  0  0
   -3.0000   -1.4920    0.9820 C   0  0  0  0  0  0  0  0  0  0  0  0
   -4.2450   -0.7170    0.8720 C   0  0  0  0  0  0  0  0  0  0  0  0
   -4.5830    0.3680    0.1690 C   0  0  0  0  0  0  0  0  0  0  0  0
   -3.7110    1.0740   -0.7090 N   0  0  0  0  0  0  0  0  0  0  0  0
   -2.8520    2.1380   -0.1960 C   0  0  0  0  0  0  0  0  0  0  0  0
   -1.8790    2.6910   -1.1980 C   0  0  0  0  0  0  0  0  0  0  0  0
   -1.1360    1.6790   -1.9740 N   0  0  0  0  0  0  0  0  0  0  0  0
   -2.0630    0.7110   -2.5330 C   0  0  0  0  0  0  0  0  0  0  0  0
   -3.5030    0.9130   -2.1200 C   0  0  0  0  0  0  0  0  0  0  0  0
    0.2740    1.6990   -2.1070 C   0  0  0  0  0  0  0  0  0  0  0  0
    0.9900    2.1150   -3.1140 O   0  0  0  0  0  0  0  0  0  0  0  0
  1  2  2  0
  2  3  1  0
  2 13  1  0
  3  4  1  0
  4  5  1  0
  4 29  1  0
  5  6  1  0
  6  7  1  0
  7  8  2  0
  7 14  1  0
  8  9  1  0
  9 10  2  0
 10 11  1  0
 11 12  2  0
 12 13  1  0
 14 15  1  0
 14 18  2  0
 15 16  2  3
 16 17  1  0
 18 19  1  0
 19 20  2  0
 20 21  1  0
 21 22  2  0
 22 23  1  0
 23 24  1  0
 23 28  1  0
 24 25  1  0
 25 26  1  0
 26 27  1  0
 26 29  1  0
 27 28  1  0
 29 30  2  0
M  END
