
     RDKit          3D

 30 33  0  0  0  0  0  0  0  0999 V2000
   -3.8920    0.4730   -2.0110 C   0  0  0  0  0  0  0  0  0  0  0  0
   -4.0200    0.2640   -0.6120 N   0  0  0  0  0  0  0  0  0  0  0  0
   -2.6560    0.1120    0.0900 C   0  0  0  0  0  0  0  0  0  0  0  0
   -2.2810    1.2310    0.6270 C   0  0  0  0  0  0  0  0  0  0  0  0
   -3.3270    2.2360    0.3440 O   0  0  0  0  0  0  0  0  0  0  0  0
   -3.4070    3.4950    0.6760 C   0  0  0  0  0  0  0  0  0  0  0  0
   -2.4250    3.9960    1.3760 C   0  0  0  0  0  0  0  0  0  0  0  0
   -1.3320    3.1700    1.7390 C   0  0  0  0  0  0  0  0  0  0  0  0
   -1.2050    1.8280    1.4040 C   0  0  0  0  0  0  0  0  0  0  0  0
    0.0300    1.3630    1.9910 C   0  0  0  0  0  0  0  0  0  0  0  0
    1.3040    1.1270    1.7130 C   0  0  0  0  0  0  0  0  0  0  0  0
    2.0310    1.2630    0.5890 N   0  0  0  0  0  0  0  0  0  0  0  0
    2.7880    0.8940   -0.3180 C   0  0  0  0  0  0  0  0  0  0  0  0
    3.1070    1.9540   -1.3250 C   0  0  0  0  0  0  0  0  0  0  0  0
    3.8810    1.8030   -2.3610 C   0  0  0  0  0  0  0  0  0  0  0  0
    4.4870    0.5040   -2.5610 C   0  0  0  0  0  0  0  0  0  0  0  0
    4.2500   -0.4640   -1.7200 C   0  0  0  0  0  0  0  0  0  0  0  0
    4.8910   -1.6550   -2.0270 F   0  0  0  0  0  0  0  0  0  0  0  0
    3.4010   -0.3830   -0.5420 N   0  0  0  0  0  0  0  0  0  0  0  0
    3.2920   -1.6070    0.1590 C   0  0  0  0  0  0  0  0  0  0  0  0
    3.3240   -1.7200    1.6420 C   0  0  0  0  0  0  0  0  0  0  0  0
    2.0670   -2.3360    2.1360 N   0  0  0  0  0  0  0  0  0  0  0  0
    0.7480   -1.8150    1.8930 C   0  0  0  0  0  0  0  0  0  0  0  0
    0.1090   -1.5340    3.0090 O   0  0  0  0  0  0  0  0  0  0  0  0
    0.0710   -1.5640    0.6920 N   0  0  0  0  0  0  0  0  0  0  0  0
   -1.1720   -1.9480    0.0570 C   0  0  0  0  0  0  0  0  0  0  0  0
   -2.2630   -1.2560   -0.1660 C   0  0  0  0  0  0  0  0  0  0  0  0
   -3.2460   -2.3610   -0.7340 C   0  0  0  0  0  0  0  0  0  0  0  0
   -2.2000   -3.1320   -1.5320 C   0  0  0  0  0  0  0  0  0  0  0  0
   -1.2520   -3.2990   -0.4510 O   0  0  0  0  0  0  0  0  0  0  0  0
  1  2  1  0
  2  3  1  0
  3  4  2  0
  3 27  1  0
  4  5  1  0
  4  9  1  0
  5  6  1  0
  6  7  2  0
  7  8  1  0
  8  9  2  0
  9 10  1  0
 10 11  2  0
 11 12  1  0
 12 13  2  0
 13 14  1  0
 13 19  1  0
 14 15  2  0
 15 16  1  0
 16 17  2  0
 17 18  1  0
 17 19  1  0
 19 20  1  0
 20 21  1  0
 21 22  1  0
 22 23  1  0
 23 24  2  0
 23 25  1  0
 25 26  1  0
 26 27  2  0
 26 30  1  0
 27 28  1  0
 28 29  1  0
 29 30  1  0
M  END
