
     RDKit          3D

 30 32  0  0  0  0  0  0  0  0999 V2000
    7.8110    0.1620    0.5590 C   0  0  0  0  0  0  0  0  0  0  0  0
    6.6930   -0.5460   -0.0380 N   0  0  0  0  0  0  0  0  0  0  0  0
    5.4920    0.1300    0.3610 C   0  0  0  0  0  0  0  0  0  0  0  0
    4.2890   -0.5570   -0.2280 C   0  0  0  0  0  0  0  0  0  0  0  0
    4.2550   -1.6420   -1.0560 C   0  0  0  0  0  0  0  0  0  0  0  0
    2.9200   -1.8740   -1.3050 C   0  0  0  0  0  0  0  0  0  0  0  0
    2.1820   -0.9210   -0.6190 C   0  0  0  0  0  0  0  0  0  0  0  0
    0.7070   -0.8140   -0.6170 C   0  0  0  0  0  0  0  0  0  0  0  0
    0.0900   -1.6650   -1.2970 O   0  0  0  0  0  0  0  0  0  0  0  0
    0.0240    0.1900    0.1100 N   0  0  0  0  0  0  0  0  0  0  0  0
    0.6800    1.1940    0.9090 C   0  0  0  0  0  0  0  0  0  0  0  0
   -0.1790    2.4640    1.0400 C   0  0  0  0  0  0  0  0  0  0  0  0
   -1.1090    2.5760   -0.1270 C   0  0  0  0  0  0  0  0  0  0  0  0
   -2.0230    1.3830   -0.0430 C   0  0  0  0  0  0  0  0  0  0  0  0
   -3.4420    1.5290   -0.0250 C   0  0  0  0  0  0  0  0  0  0  0  0
   -4.2130    0.5660    0.1040 O   0  0  0  0  0  0  0  0  0  0  0  0
   -4.0530    2.8720   -0.1600 C   0  0  1  0  0  0  0  0  0  0  0  0
   -3.7220    3.7800    1.0300 C   0  0  0  0  0  0  0  0  0  0  0  0
   -3.6380    3.4930   -1.3380 F   0  0  0  0  0  0  0  0  0  0  0  0
   -5.9680    2.7070   -0.2920 Br  0  0  0  0  0  0  0  0  0  0  0  0
   -1.4030    0.2100    0.0690 C   0  0  0  0  0  0  0  0  0  0  0  0
   -2.1410   -1.0750    0.0510 C   0  0  0  0  0  0  0  0  0  0  0  0
   -2.9540   -1.4700   -0.9770 C   0  0  0  0  0  0  0  0  0  0  0  0
   -3.6540   -2.6690   -0.9600 C   0  0  0  0  0  0  0  0  0  0  0  0
   -4.5280   -3.0540   -2.1070 C   0  0  0  0  0  0  0  0  0  0  0  0
   -3.5220   -3.4890    0.1330 C   0  0  0  0  0  0  0  0  0  0  0  0
   -2.7140   -3.1370    1.1980 C   0  0  0  0  0  0  0  0  0  0  0  0
   -2.6210   -3.9820    2.2470 F   0  0  0  0  0  0  0  0  0  0  0  0
   -2.0440   -1.9350    1.1250 C   0  0  0  0  0  0  0  0  0  0  0  0
    3.0560   -0.1910   -0.0160 O   0  0  0  0  0  0  0  0  0  0  0  0
  1  2  1  0
  2  3  1  0
  3  4  1  0
  4  5  2  0
  4 30  1  0
  5  6  1  0
  6  7  2  0
  7  8  1  0
  7 30  1  0
  8  9  2  0
  8 10  1  0
 10 11  1  0
 10 21  1  0
 11 12  1  0
 12 13  1  0
 13 14  1  0
 14 15  1  0
 14 21  2  0
 15 16  2  0
 15 17  1  0
 17 18  1  1
 17 19  1  0
 17 20  1  0
 21 22  1  0
 22 23  2  0
 22 29  1  0
 23 24  1  0
 24 25  1  0
 24 26  2  0
 26 27  1  0
 27 28  1  0
 27 29  2  0
M  END
