
     RDKit          3D

 23 25  0  0  0  0  0  0  0  0999 V2000
    4.7820    1.7310   -0.4420 C   0  0  0  0  0  0  0  0  0  0  0  0
    5.1980    0.8690    0.4490 C   0  0  0  0  0  0  0  0  0  0  0  0
    4.4130   -0.2890    0.8650 C   0  0  0  0  0  0  0  0  0  0  0  0
    4.8940   -1.1210    1.7720 C   0  0  0  0  0  0  0  0  0  0  0  0
    3.1260   -0.4960    0.2720 N   0  0  0  0  0  0  0  0  0  0  0  0
    1.9980    0.2430    0.7450 C   0  0  0  0  0  0  0  0  0  0  0  0
    1.0160    0.3610   -0.3870 C   0  0  0  0  0  0  0  0  0  0  0  0
    0.6050   -0.9100   -0.8740 N   0  0  0  0  0  0  0  0  0  0  0  0
   -0.4670   -1.5290   -0.1620 C   0  0  0  0  0  0  0  0  0  0  0  0
   -1.7190   -0.7580   -0.1400 C   0  0  0  0  0  0  0  0  0  0  0  0
   -2.0010    0.0660    0.9190 C   0  0  0  0  0  0  0  0  0  0  0  0
   -3.1690    0.8150    0.9850 C   0  0  0  0  0  0  0  0  0  0  0  0
   -3.4700    1.6730    2.0800 N   0  0  0  0  0  0  0  0  0  0  0  0
   -4.0390    0.6730   -0.1030 C   0  0  0  0  0  0  0  0  0  0  0  0
   -5.2240    1.3760   -0.1300 C   0  0  0  0  0  0  0  0  0  0  0  0
   -6.0950    1.2750   -1.1510 N   0  0  0  0  0  0  0  0  0  0  0  0
   -5.8220    0.4800   -2.1740 N   0  0  0  0  0  0  0  0  0  0  0  0
   -4.6660   -0.2310   -2.1870 C   0  0  0  0  0  0  0  0  0  0  0  0
   -4.4470   -0.9660   -3.1660 O   0  0  0  0  0  0  0  0  0  0  0  0
   -3.7510   -0.1560   -1.1640 C   0  0  0  0  0  0  0  0  0  0  0  0
   -2.5820   -0.8620   -1.1600 N   0  0  0  0  0  0  0  0  0  0  0  0
    1.6600   -1.8140   -1.2090 C   0  0  0  0  0  0  0  0  0  0  0  0
    3.0150   -1.4400   -0.7780 C   0  0  0  0  0  0  0  0  0  0  0  0
  1  2  2  0
  2  3  1  0
  3  4  2  0
  3  5  1  0
  5  6  1  0
  5 23  1  0
  6  7  1  0
  7  8  1  0
  8  9  1  0
  8 22  1  0
  9 10  1  0
 10 11  2  0
 10 21  1  0
 11 12  1  0
 12 13  1  0
 12 14  2  0
 14 15  1  0
 14 20  1  0
 15 16  2  0
 16 17  1  0
 17 18  1  0
 18 19  2  0
 18 20  1  0
 20 21  2  0
 22 23  1  0
M  CHG  1  13   1
M  END
