
     RDKit          3D

 23 26  0  0  0  0  0  0  0  0999 V2000
    1.2480    0.7830    1.8750 C   0  0  0  0  0  0  0  0  0  0  0  0
    0.6510   -0.0220    0.8510 N   0  0  0  0  0  0  0  0  0  0  0  0
   -0.6590   -0.2120    0.6980 N   0  0  0  0  0  0  0  0  0  0  0  0
   -0.8440   -1.0110   -0.3490 C   0  0  0  0  0  0  0  0  0  0  0  0
   -2.1200   -1.4370   -0.8190 N   0  0  0  0  0  0  0  0  0  0  0  0
   -3.3510   -1.0520   -0.2160 C   0  0  1  0  0  0  0  0  0  0  0  0
   -4.5040   -1.6660   -0.9430 C   0  0  0  0  0  0  0  0  0  0  0  0
   -3.4440   -1.4250    1.2450 C   0  0  0  0  0  0  0  0  0  0  0  0
   -4.7470   -1.0910    1.7360 N   0  0  0  0  0  0  0  0  0  0  0  0
   -5.3290    0.1040    1.2360 C   0  0  0  0  0  0  0  0  0  0  0  0
   -4.4360    1.0000    0.4900 C   0  0  0  0  0  0  0  0  0  0  0  0
   -4.3610    2.3040    0.3510 O   0  0  0  0  0  0  0  0  0  0  0  0
   -3.3770    2.6350   -0.4300 C   0  0  0  0  0  0  0  0  0  0  0  0
   -2.7500    1.4660   -0.8410 C   0  0  0  0  0  0  0  0  0  0  0  0
   -3.4220    0.4360   -0.2580 C   0  0  0  0  0  0  0  0  0  0  0  0
    0.3540   -1.3130   -0.8400 N   0  0  0  0  0  0  0  0  0  0  0  0
    1.3010   -0.7050   -0.1040 C   0  0  0  0  0  0  0  0  0  0  0  0
    2.7510   -0.7540   -0.2780 C   0  0  0  0  0  0  0  0  0  0  0  0
    3.2710    0.2870   -1.1420 N   0  0  0  0  0  0  0  0  0  0  0  0
    4.7170    0.1480   -1.1430 C   0  0  2  0  0  0  0  0  0  0  0  0
    5.2940    0.0290    0.2530 C   0  0  0  0  0  0  0  0  0  0  0  0
    6.4600    0.8950   -0.2410 C   0  0  0  0  0  0  0  0  0  0  0  0
    5.4840    1.4380   -1.2930 C   0  0  0  0  0  0  0  0  0  0  0  0
  1  2  1  0
  2  3  1  0
  2 17  1  0
  3  4  2  0
  4  5  1  0
  4 16  1  0
  5  6  1  0
  6  7  1  6
  6  8  1  0
  6 15  1  0
  8  9  1  0
  9 10  1  0
 10 11  1  0
 11 12  1  0
 11 15  2  0
 12 13  1  0
 13 14  2  0
 14 15  1  0
 16 17  2  0
 17 18  1  0
 18 19  1  0
 20 19  1  1
 20 21  1  0
 20 23  1  0
 21 22  1  0
 22 23  1  0
M  CHG  1  19   1
M  END
