
     RDKit          3D

 23 25  0  0  0  0  0  0  0  0999 V2000
   -5.3220   -1.6560   -0.8130 C   0  0  0  0  0  0  0  0  0  0  0  0
   -4.2260   -0.8430   -0.2800 N   0  0  2  0  0  0  0  0  0  0  0  0
   -4.7580    0.2990    0.4650 C   0  0  0  0  0  0  0  0  0  0  0  0
   -3.9050    0.6060    1.6700 C   0  0  0  0  0  0  0  0  0  0  0  0
   -3.1600    1.9090    1.4670 C   0  0  0  0  0  0  0  0  0  0  0  0
   -1.8650    1.6850    0.8530 N   0  0  0  0  0  0  0  0  0  0  0  0
   -1.3680    0.6970   -0.0580 C   0  0  0  0  0  0  0  0  0  0  0  0
   -0.0270    0.6990    0.0820 N   0  0  0  0  0  0  0  0  0  0  0  0
    0.7650   -0.1160   -0.6310 C   0  0  0  0  0  0  0  0  0  0  0  0
    2.1870   -0.1130   -0.4820 N   0  0  0  0  0  0  0  0  0  0  0  0
    2.8430    0.7670    0.4430 C   0  0  0  0  0  0  0  0  0  0  0  0
    4.3060    0.5460    0.3820 C   0  0  0  0  0  0  0  0  0  0  0  0
    5.0850    1.5430    0.0450 C   0  0  0  0  0  0  0  0  0  0  0  0
    6.5290    1.3590   -0.0250 C   0  0  0  0  0  0  0  0  0  0  0  0
    7.0770    0.1980    0.2460 C   0  0  0  0  0  0  0  0  0  0  0  0
    6.3480   -1.0180    0.6380 C   0  0  0  0  0  0  0  0  0  0  0  0
    4.8720   -0.7460    0.6890 C   0  0  0  0  0  0  0  0  0  0  0  0
    4.1300   -1.7430    1.0270 N   0  0  0  0  0  0  0  0  0  0  0  0
    0.1770   -0.9470   -1.5010 N   0  0  0  0  0  0  0  0  0  0  0  0
   -1.1560   -0.9880   -1.6790 C   0  0  0  0  0  0  0  0  0  0  0  0
   -1.7420   -1.8540   -2.5830 O   0  0  0  0  0  0  0  0  0  0  0  0
   -1.9850   -0.1540   -0.9520 C   0  0  0  0  0  0  0  0  0  0  0  0
   -3.3750   -0.4220   -1.3560 C   0  0  0  0  0  0  0  0  0  0  0  0
  2  1  1  6
  2  3  1  0
  2 23  1  0
  3  4  1  0
  4  5  1  0
  5  6  1  0
  6  7  1  0
  7  8  2  0
  7 22  1  0
  8  9  1  0
  9 10  1  0
  9 19  2  0
 10 11  1  0
 11 12  1  0
 12 13  2  0
 12 17  1  0
 13 14  1  0
 14 15  2  0
 15 16  1  0
 16 17  1  0
 17 18  2  0
 19 20  1  0
 20 21  1  0
 20 22  2  0
 22 23  1  0
M  CHG  1   2   1
M  END
