
     RDKit          3D

 23 26  0  0  0  0  0  0  0  0999 V2000
   -2.5830   -3.9930   -1.4820 C   0  0  0  0  0  0  0  0  0  0  0  0
   -2.5180   -3.4820   -0.0470 C   0  0  0  0  0  0  0  0  0  0  0  0
   -1.7850   -2.1550    0.0150 C   0  0  0  0  0  0  0  0  0  0  0  0
   -0.5190   -1.8700    0.1200 N   0  0  0  0  0  0  0  0  0  0  0  0
   -0.2940   -0.5630    0.1050 N   0  0  0  0  0  0  0  0  0  0  0  0
    0.9690    0.0610    0.1230 C   0  0  0  0  0  0  0  0  0  0  0  0
    1.1520    1.3540   -0.3060 C   0  0  0  0  0  0  0  0  0  0  0  0
    2.3770    1.9950   -0.2300 C   0  0  0  0  0  0  0  0  0  0  0  0
    3.4870    1.3600    0.2890 C   0  0  0  0  0  0  0  0  0  0  0  0
    4.7250    2.0130    0.3200 N   0  0  0  0  0  0  0  0  0  0  0  0
    3.3100    0.0510    0.7190 C   0  0  0  0  0  0  0  0  0  0  0  0
    4.5010   -0.5620    1.3550 C   0  0  0  0  0  0  0  0  0  0  0  0
    5.1310   -1.5850    0.5170 N   0  0  0  0  0  0  0  0  0  0  0  0
    2.0940   -0.5840    0.6420 C   0  0  0  0  0  0  0  0  0  0  0  0
   -1.5050    0.0710   -0.0170 C   0  0  0  0  0  0  0  0  0  0  0  0
   -2.4280   -0.9480   -0.0690 C   0  0  0  0  0  0  0  0  0  0  0  0
   -3.6670   -0.3360   -0.1750 C   0  0  0  0  0  0  0  0  0  0  0  0
   -4.7560   -0.9660   -0.2430 O   0  0  0  0  0  0  0  0  0  0  0  0
   -3.4690    0.9860   -0.1770 N   0  0  0  0  0  0  0  0  0  0  0  0
   -2.1690    1.2600   -0.0810 N   0  0  0  0  0  0  0  0  0  0  0  0
   -1.9900    2.6870   -0.0530 C   0  0  0  0  0  0  0  0  0  0  0  0
   -3.3290    3.2620   -0.5660 C   0  0  0  0  0  0  0  0  0  0  0  0
   -4.2870    2.1830   -0.2490 C   0  0  0  0  0  0  0  0  0  0  0  0
  1  2  1  0
  2  3  1  0
  3  4  2  0
  3 16  1  0
  4  5  1  0
  5  6  1  0
  5 15  1  0
  6  7  2  0
  6 14  1  0
  7  8  1  0
  8  9  2  0
  9 10  1  0
  9 11  1  0
 11 12  1  0
 11 14  2  0
 12 13  1  0
 15 16  2  0
 15 20  1  0
 16 17  1  0
 17 18  2  0
 17 19  1  0
 19 20  1  0
 19 23  1  0
 20 21  1  0
 21 22  1  0
 22 23  1  0
M  CHG  1  13   1
M  END
