
     RDKit          3D

 23 26  0  0  0  0  0  0  0  0999 V2000
    3.0580   -1.5760    1.4430 C   0  0  0  0  0  0  0  0  0  0  0  0
    3.2340   -0.7080    0.3000 N   0  0  0  0  0  0  0  0  0  0  0  0
    3.8020    0.5950    0.4820 C   0  0  0  0  0  0  0  0  0  0  0  0
    3.2630    1.5940   -0.2050 C   0  0  0  0  0  0  0  0  0  0  0  0
    2.1400    1.3510   -1.1050 C   0  0  0  0  0  0  0  0  0  0  0  0
    1.0350    0.6160   -0.9460 N   0  0  0  0  0  0  0  0  0  0  0  0
    0.2940    0.6680   -2.0560 C   0  0  0  0  0  0  0  0  0  0  0  0
   -0.9860    0.0490   -2.3380 C   0  0  0  0  0  0  0  0  0  0  0  0
   -1.5280    0.0960   -3.4810 O   0  0  0  0  0  0  0  0  0  0  0  0
   -1.7010   -0.6490   -1.3180 N   0  0  0  0  0  0  0  0  0  0  0  0
   -2.9700   -1.2800   -1.5560 C   0  0  1  0  0  0  0  0  0  0  0  0
   -3.1850   -2.5910   -0.8910 C   0  0  0  0  0  0  0  0  0  0  0  0
   -3.6980   -2.2130    0.4830 C   0  0  0  0  0  0  0  0  0  0  0  0
   -4.5550   -1.0200    0.1720 C   0  0  0  0  0  0  0  0  0  0  0  0
   -5.5720   -0.2690    0.5940 C   0  0  0  0  0  0  0  0  0  0  0  0
   -5.8310    0.7830   -0.3240 N   0  0  0  0  0  0  0  0  0  0  0  0
   -4.8770    0.6100   -1.3360 C   0  0  0  0  0  0  0  0  0  0  0  0
   -4.1170   -0.4370   -1.0800 C   0  0  0  0  0  0  0  0  0  0  0  0
    0.9580    1.4500   -2.9170 N   0  0  0  0  0  0  0  0  0  0  0  0
    2.0830    1.8750   -2.3560 N   0  0  0  0  0  0  0  0  0  0  0  0
    4.9490    0.8030    1.3840 C   0  0  2  0  0  0  0  0  0  0  0  0
    4.7990    1.4600    2.7100 C   0  0  0  0  0  0  0  0  0  0  0  0
    5.5360    2.1490    1.5750 C   0  0  0  0  0  0  0  0  0  0  0  0
  1  2  1  0
  2  3  1  0
  3  4  2  3
 21  3  1  6
  4  5  1  0
  5  6  2  0
  5 20  1  0
  6  7  1  0
  7  8  1  0
  7 19  2  0
  8  9  2  0
  8 10  1  0
 11 10  1  1
 11 12  1  0
 11 18  1  0
 12 13  1  0
 13 14  1  0
 14 15  2  0
 14 18  1  0
 15 16  1  0
 16 17  1  0
 17 18  2  0
 19 20  1  0
 21 22  1  0
 21 23  1  0
 22 23  1  0
M  CHG  1  16   1
M  END
