
     RDKit          3D

 23 26  0  0  0  0  0  0  0  0999 V2000
    1.7200   -2.0220    1.3800 N   0  0  0  0  0  0  0  0  0  0  0  0
    2.2450   -0.9510    0.6020 C   0  0  0  0  0  0  0  0  0  0  0  0
    1.4250    0.1350    0.3830 C   0  0  0  0  0  0  0  0  0  0  0  0
    0.1060    0.2160    0.8960 N   0  0  0  0  0  0  0  0  0  0  0  0
   -0.2810    0.4680    2.1590 C   0  0  0  0  0  0  0  0  0  0  0  0
   -1.6530    0.4550    2.2150 C   0  0  0  0  0  0  0  0  0  0  0  0
   -2.1340    0.1870    0.9440 C   0  0  0  0  0  0  0  0  0  0  0  0
   -3.3910    0.0610    0.4360 N   0  0  0  0  0  0  0  0  0  0  0  0
   -3.6220   -0.2080   -0.8580 C   0  0  0  0  0  0  0  0  0  0  0  0
   -4.9740   -0.3530   -1.4520 C   0  0  0  0  0  0  0  0  0  0  0  0
   -6.0390   -0.1510   -0.3890 C   0  0  0  0  0  0  0  0  0  0  0  0
   -5.8960    1.1760    0.1620 N   0  0  0  0  0  0  0  0  0  0  0  0
   -2.5200   -0.3550   -1.6740 C   0  0  0  0  0  0  0  0  0  0  0  0
   -1.2270   -0.2340   -1.1930 C   0  0  0  0  0  0  0  0  0  0  0  0
   -1.0160    0.0440    0.1500 C   0  0  0  0  0  0  0  0  0  0  0  0
    1.9400    1.1330   -0.3530 N   0  0  0  0  0  0  0  0  0  0  0  0
    3.1760    1.1140   -0.8650 C   0  0  0  0  0  0  0  0  0  0  0  0
    3.9590    0.0560   -0.6450 N   0  0  0  0  0  0  0  0  0  0  0  0
    5.2910    0.0440   -1.2000 C   0  0  2  0  0  0  0  0  0  0  0  0
    6.4170   -0.2510   -0.2950 C   0  0  0  0  0  0  0  0  0  0  0  0
    6.2670    1.1100   -0.8360 C   0  0  0  0  0  0  0  0  0  0  0  0
    3.5340   -0.9830    0.0750 C   0  0  0  0  0  0  0  0  0  0  0  0
    4.2320   -2.0020    0.3110 O   0  0  0  0  0  0  0  0  0  0  0  0
  1  2  1  0
  2  3  2  0
  2 22  1  0
  3  4  1  0
  3 16  1  0
  4  5  1  0
  4 15  1  0
  5  6  2  0
  6  7  1  0
  7  8  2  0
  7 15  1  0
  8  9  1  0
  9 10  1  0
  9 13  2  0
 10 11  1  0
 11 12  1  0
 13 14  1  0
 14 15  2  0
 16 17  2  0
 17 18  1  0
 19 18  1  1
 18 22  1  0
 19 20  1  0
 19 21  1  0
 20 21  1  0
 22 23  2  0
M  CHG  1  12   1
M  END
