
     RDKit          3D

 29 33  0  0  0  0  0  0  0  0999 V2000
    7.6470   -1.2680   -2.0820 C   0  0  0  0  0  0  0  0  0  0  0  0
    7.3670    0.0830   -1.7890 O   0  0  0  0  0  0  0  0  0  0  0  0
    6.2120    0.1950   -1.0160 C   0  0  2  0  0  0  0  0  0  0  0  0
    5.2050    0.9490   -1.7990 C   0  0  0  0  0  0  0  0  0  0  0  0
    4.1500    1.6310   -0.9970 C   0  0  0  0  0  0  0  0  0  0  0  0
    4.3130    1.4010    0.4220 N   0  0  0  0  0  0  0  0  0  0  0  0
    3.2230    0.9530    1.2260 C   0  0  0  0  0  0  0  0  0  0  0  0
    3.3940    0.7510    2.5370 N   0  0  0  0  0  0  0  0  0  0  0  0
    2.3930    0.3330    3.3090 C   0  0  0  0  0  0  0  0  0  0  0  0
    1.1500    0.1120    2.6940 C   0  0  0  0  0  0  0  0  0  0  0  0
    0.9470    0.3110    1.3530 C   0  0  0  0  0  0  0  0  0  0  0  0
   -0.2670    0.1090    0.6810 N   0  0  0  0  0  0  0  0  0  0  0  0
   -1.4820   -0.3270    1.2300 C   0  0  0  0  0  0  0  0  0  0  0  0
   -2.6140   -0.4740    0.4060 C   0  0  0  0  0  0  0  0  0  0  0  0
   -3.8270   -0.8970    0.8890 C   0  0  0  0  0  0  0  0  0  0  0  0
   -3.9820   -1.1970    2.2170 C   0  0  0  0  0  0  0  0  0  0  0  0
   -5.2700   -1.5910    2.4410 C   0  0  0  0  0  0  0  0  0  0  0  0
   -5.9130   -1.5290    1.2260 C   0  0  0  0  0  0  0  0  0  0  0  0
   -5.0420   -1.1140    0.3060 N   0  0  0  0  0  0  0  0  0  0  0  0
   -5.2870   -0.9040   -1.1050 C   0  0  1  0  0  0  0  0  0  0  0  0
   -6.7220   -1.0920   -1.4760 C   0  0  0  0  0  0  0  0  0  0  0  0
   -6.9030   -0.1440   -2.6420 C   0  0  0  0  0  0  0  0  0  0  0  0
   -6.1510    1.0870   -2.1280 C   0  0  0  0  0  0  0  0  0  0  0  0
   -4.8850    0.4840   -1.5260 C   0  0  0  0  0  0  0  0  0  0  0  0
   -2.8580   -1.0520    3.0380 C   0  0  0  0  0  0  0  0  0  0  0  0
   -1.7020   -0.6360    2.5140 N   0  0  0  0  0  0  0  0  0  0  0  0
    2.0490    0.7400    0.6680 N   0  0  0  0  0  0  0  0  0  0  0  0
    5.6200    1.6470    0.9740 C   0  0  0  0  0  0  0  0  0  0  0  0
    6.6160    0.7930    0.2890 C   0  0  0  0  0  0  0  0  0  0  0  0
  1  2  1  0
  3  2  1  6
  3  4  1  0
  3 29  1  0
  4  5  1  0
  5  6  1  0
  6  7  1  0
  6 28  1  0
  7  8  2  0
  7 27  1  0
  8  9  1  0
  9 10  2  0
 10 11  1  0
 11 12  1  0
 11 27  2  0
 12 13  1  0
 13 14  2  0
 13 26  1  0
 14 15  1  0
 15 16  2  0
 15 19  1  0
 16 17  1  0
 16 25  1  0
 17 18  2  0
 18 19  1  0
 20 19  1  1
 20 21  1  0
 20 24  1  0
 21 22  1  0
 22 23  1  0
 23 24  1  0
 25 26  2  0
 28 29  1  0
M  END
