
     RDKit          3D

 31 35  0  0  0  0  0  0  0  0999 V2000
    8.5210   -1.9460    3.3440 Cl  0  0  0  0  0  0  0  0  0  0  0  0
    7.4300   -0.8900    2.4650 C   0  0  0  0  0  0  0  0  0  0  0  0
    7.7910    0.4430    2.3090 C   0  0  0  0  0  0  0  0  0  0  0  0
    6.9570    1.2910    1.6260 C   0  0  0  0  0  0  0  0  0  0  0  0
    7.4180    2.9660    1.4340 Cl  0  0  0  0  0  0  0  0  0  0  0  0
    5.7770    0.8000    1.1080 C   0  0  0  0  0  0  0  0  0  0  0  0
    4.7700    1.3520    0.4090 N   0  0  0  0  0  0  0  0  0  0  0  0
    3.8320    0.4210    0.1410 C   0  0  0  0  0  0  0  0  0  0  0  0
    2.5960    0.6790   -0.6060 C   0  0  0  0  0  0  0  0  0  0  0  0
    1.6850   -0.3070   -0.8440 C   0  0  0  0  0  0  0  0  0  0  0  0
    0.5230   -0.0020   -1.5630 C   0  0  0  0  0  0  0  0  0  0  0  0
    0.2580    1.2500   -2.0410 C   0  0  0  0  0  0  0  0  0  0  0  0
   -0.9160    1.6440   -2.7900 C   0  0  0  0  0  0  0  0  0  0  0  0
   -1.8890    0.9170   -3.1310 N   0  0  0  0  0  0  0  0  0  0  0  0
   -2.1440   -0.4110   -2.9190 N   0  0  0  0  0  0  0  0  0  0  0  0
   -3.0470   -0.7620   -1.8480 C   0  0  0  0  0  0  0  0  0  0  0  0
   -3.6860    0.0520   -1.0120 N   0  0  0  0  0  0  0  0  0  0  0  0
   -4.4430   -0.6400   -0.1440 C   0  0  0  0  0  0  0  0  0  0  0  0
   -5.3010   -0.1780    0.9320 C   0  0  0  0  0  0  0  0  0  0  0  0
   -5.5330    1.0700    1.3060 C   0  0  0  0  0  0  0  0  0  0  0  0
   -6.4560    1.1130    2.4290 C   0  0  0  0  0  0  0  0  0  0  0  0
   -6.7730   -0.0930    2.7260 N   0  0  0  0  0  0  0  0  0  0  0  0
   -6.1000   -1.0150    1.8420 C   0  0  1  0  0  0  0  0  0  0  0  0
   -7.2950   -2.0130    0.9630 Cl  0  0  0  0  0  0  0  0  0  0  0  0
   -4.2490   -1.9610   -0.4750 C   0  0  0  0  0  0  0  0  0  0  0  0
   -3.3980   -2.0160   -1.5130 N   0  0  0  0  0  0  0  0  0  0  0  0
    1.1990    2.2020   -1.7770 N   0  0  0  0  0  0  0  0  0  0  0  0
    2.3170    1.9360   -1.0930 C   0  0  0  0  0  0  0  0  0  0  0  0
    4.2540   -0.6870    0.6670 O   0  0  0  0  0  0  0  0  0  0  0  0
    5.4230   -0.5310    1.2670 C   0  0  0  0  0  0  0  0  0  0  0  0
    6.2560   -1.3920    1.9530 C   0  0  0  0  0  0  0  0  0  0  0  0
  1  2  1  0
  2  3  2  0
  2 31  1  0
  3  4  1  0
  4  5  1  0
  4  6  2  0
  6  7  1  0
  6 30  1  0
  7  8  2  0
  8  9  1  0
  8 29  1  0
  9 10  2  0
  9 28  1  0
 10 11  1  0
 11 12  2  0
 12 13  1  0
 12 27  1  0
 13 14  2  3
 14 15  1  0
 15 16  1  0
 16 17  2  0
 16 26  1  0
 17 18  1  0
 18 19  1  0
 18 25  2  0
 19 20  2  0
 19 23  1  0
 20 21  1  0
 21 22  2  0
 22 23  1  0
 23 24  1  6
 25 26  1  0
 27 28  2  0
 29 30  1  0
 30 31  2  0
M  CHG  1  22   1
M  END
