
     RDKit          3D

 28 32  0  0  0  0  0  0  0  0999 V2000
    2.3900   -2.7560   -1.6350 C   0  0  0  0  0  0  0  0  0  0  0  0
    3.5560   -2.0140   -1.1220 C   0  0  0  0  0  0  0  0  0  0  0  0
    4.8510   -2.4020   -1.2610 N   0  0  0  0  0  0  0  0  0  0  0  0
    5.6440   -1.5280   -0.6820 N   0  0  0  0  0  0  0  0  0  0  0  0
    4.9290   -0.5300   -0.1380 C   0  0  0  0  0  0  0  0  0  0  0  0
    3.5920   -0.8370   -0.4180 C   0  0  0  0  0  0  0  0  0  0  0  0
    2.6440    0.0220    0.0370 C   0  0  0  0  0  0  0  0  0  0  0  0
    1.2720   -0.2100   -0.2610 N   0  0  0  0  0  0  0  0  0  0  0  0
    0.7970    0.0190   -1.5900 C   0  0  0  0  0  0  0  0  0  0  0  0
   -0.4350   -0.7600   -1.8910 C   0  0  0  0  0  0  0  0  0  0  0  0
   -1.2820   -1.0130   -0.8390 O   0  0  0  0  0  0  0  0  0  0  0  0
   -1.0370   -0.2110    0.2590 C   0  0  1  0  0  0  0  0  0  0  0  0
   -2.0050   -0.4770    1.3560 C   0  0  0  0  0  0  0  0  0  0  0  0
   -3.3590   -0.2490    1.0580 N   0  0  0  0  0  0  0  0  0  0  0  0
   -4.0230   -1.0670    0.1380 C   0  0  0  0  0  0  0  0  0  0  0  0
   -5.5190   -0.8940    0.2780 C   0  0  0  0  0  0  0  0  0  0  0  0
   -6.0290    0.3320   -0.4170 C   0  0  0  0  0  0  0  0  0  0  0  0
   -5.9870    1.5220    0.4060 N   0  0  0  0  0  0  0  0  0  0  0  0
   -4.6480    1.8500    0.8270 C   0  0  0  0  0  0  0  0  0  0  0  0
   -4.0400    0.7950    1.7090 C   0  0  0  0  0  0  0  0  0  0  0  0
    0.3520   -0.6450    0.7590 C   0  0  0  0  0  0  0  0  0  0  0  0
    2.9930    1.1380    0.7400 N   0  0  0  0  0  0  0  0  0  0  0  0
    4.2630    1.4390    1.0130 C   0  0  0  0  0  0  0  0  0  0  0  0
    4.5760    2.5890    1.7300 C   0  0  0  0  0  0  0  0  0  0  0  0
    5.8770    2.9290    2.0230 C   0  0  0  0  0  0  0  0  0  0  0  0
    6.8780    2.0740    1.5720 C   0  0  0  0  0  0  0  0  0  0  0  0
    6.5520    0.9420    0.8640 C   0  0  0  0  0  0  0  0  0  0  0  0
    5.2440    0.6020    0.5720 C   0  0  0  0  0  0  0  0  0  0  0  0
  1  2  1  0
  2  3  1  0
  2  6  2  0
  3  4  1  0
  4  5  2  0
  5  6  1  0
  5 28  1  0
  6  7  1  0
  7  8  1  0
  7 22  2  0
  8  9  1  0
  8 21  1  0
  9 10  1  0
 10 11  1  0
 11 12  1  0
 12 13  1  1
 12 21  1  0
 13 14  1  0
 14 15  1  0
 14 20  1  0
 15 16  1  0
 16 17  1  0
 17 18  1  0
 18 19  1  0
 19 20  1  0
 22 23  1  0
 23 24  2  0
 23 28  1  0
 24 25  1  0
 25 26  2  0
 26 27  1  0
 27 28  2  0
M  CHG  1  18   1
M  END
