
     RDKit          3D

 31 34  0  0  0  0  0  0  0  0999 V2000
   -3.1380   -4.3640    0.7480 C   0  0  0  0  0  0  0  0  0  0  0  0
   -2.5140   -3.3630    0.1680 C   0  0  0  0  0  0  0  0  0  0  0  0
   -3.2550   -2.1310   -0.1020 C   0  0  0  0  0  0  0  0  0  0  0  0
   -4.4900   -2.0720    0.2390 N   0  0  0  0  0  0  0  0  0  0  0  0
   -5.3610   -1.0140    0.0530 N   0  0  0  0  0  0  0  0  0  0  0  0
   -4.6640    0.2050    0.0070 C   0  0  0  0  0  0  0  0  0  0  0  0
   -5.2600    1.2970    0.5360 C   0  0  0  0  0  0  0  0  0  0  0  0
   -6.8600    1.1500    1.2350 Cl  0  0  0  0  0  0  0  0  0  0  0  0
   -3.3170    0.2750   -0.4970 C   0  0  0  0  0  0  0  0  0  0  0  0
   -2.7720    1.2950   -1.0730 C   0  0  0  0  0  0  0  0  0  0  0  0
   -3.3860    2.5900   -1.3620 C   0  0  0  0  0  0  0  0  0  0  0  0
   -2.5610    3.8700   -0.4600 Cl  0  0  0  0  0  0  0  0  0  0  0  0
   -2.5710   -0.9800   -0.5220 N   0  0  0  0  0  0  0  0  0  0  0  0
   -1.2340   -0.9760   -0.9630 C   0  0  0  0  0  0  0  0  0  0  0  0
   -0.3140   -0.2570   -0.0230 C   0  0  0  0  0  0  0  0  0  0  0  0
   -0.8220    0.2290    0.9890 O   0  0  0  0  0  0  0  0  0  0  0  0
    1.0670   -0.1380   -0.2780 N   0  0  0  0  0  0  0  0  0  0  0  0
    2.0290    0.5120    0.5250 C   0  0  0  0  0  0  0  0  0  0  0  0
    1.7720    1.1640    1.6960 C   0  0  0  0  0  0  0  0  0  0  0  0
    2.7610    1.7910    2.4420 C   0  0  0  0  0  0  0  0  0  0  0  0
    4.0560    1.7500    1.9790 C   0  0  0  0  0  0  0  0  0  0  0  0
    5.3420    2.5130    2.8680 Cl  0  0  0  0  0  0  0  0  0  0  0  0
    4.3420    1.0910    0.7880 C   0  0  0  0  0  0  0  0  0  0  0  0
    5.6410    1.0490    0.3290 C   0  0  0  0  0  0  0  0  0  0  0  0
    5.9510    0.4030   -0.8430 C   0  0  0  0  0  0  0  0  0  0  0  0
    7.1450    0.2180   -1.5090 C   0  0  0  0  0  0  0  0  0  0  0  0
    6.8210   -0.4960   -2.6020 N   0  0  0  0  0  0  0  0  0  0  0  0
    5.5240   -0.7470   -2.6320 N   0  0  0  0  0  0  0  0  0  0  0  0
    4.9160   -0.2090   -1.5520 C   0  0  0  0  0  0  0  0  0  0  0  0
    3.6500   -0.1680   -1.1030 N   0  0  0  0  0  0  0  0  0  0  0  0
    3.3580    0.4760    0.0590 C   0  0  0  0  0  0  0  0  0  0  0  0
  1  2  2  0
  2  3  1  0
  3  4  2  0
  3 13  1  0
  4  5  1  0
  5  6  1  0
  6  7  2  3
  6  9  1  0
  7  8  1  0
  9 10  2  3
  9 13  1  0
 10 11  1  0
 11 12  1  0
 13 14  1  0
 14 15  1  0
 15 16  2  0
 15 17  1  0
 17 18  1  0
 18 19  2  0
 18 31  1  0
 19 20  1  0
 20 21  2  0
 21 22  1  0
 21 23  1  0
 23 24  2  0
 23 31  1  0
 24 25  1  0
 25 26  1  0
 25 29  2  0
 26 27  2  0
 27 28  1  0
 28 29  1  0
 29 30  1  0
 30 31  2  0
M  CHG  1   5   1
M  END
