
     RDKit          3D

 31 35  0  0  0  0  0  0  0  0999 V2000
    3.5920    1.8560    0.0920 O   0  0  0  0  0  0  0  0  0  0  0  0
    3.4920    0.6040    0.1410 C   0  0  0  0  0  0  0  0  0  0  0  0
    2.2530    0.0270   -0.0010 C   0  0  0  0  0  0  0  0  0  0  0  0
    1.0760    0.8100   -0.2010 N   0  0  0  0  0  0  0  0  0  0  0  0
   -0.2290    0.2240   -0.3520 C   0  0  0  0  0  0  0  0  0  0  0  0
   -1.2400    1.3040   -0.5450 C   0  0  0  0  0  0  0  0  0  0  0  0
   -2.6070    0.6930   -0.7020 C   0  0  0  0  0  0  0  0  0  0  0  0
   -3.6490    0.8760    0.0320 N   0  0  0  0  0  0  0  0  0  0  0  0
   -4.7270    0.1330   -0.4360 N   0  0  0  0  0  0  0  0  0  0  0  0
   -6.0820    0.2740   -0.0230 C   0  0  0  0  0  0  0  0  0  0  0  0
   -6.7800    1.4610   -0.1770 C   0  0  0  0  0  0  0  0  0  0  0  0
   -8.0940    1.6140    0.2170 C   0  0  0  0  0  0  0  0  0  0  0  0
   -8.7650    0.5550    0.7930 C   0  0  0  0  0  0  0  0  0  0  0  0
  -10.4380    0.7580    1.2930 Cl  0  0  0  0  0  0  0  0  0  0  0  0
   -8.1010   -0.6430    0.9620 C   0  0  0  0  0  0  0  0  0  0  0  0
   -6.7880   -0.7770    0.5620 C   0  0  0  0  0  0  0  0  0  0  0  0
   -5.9350   -2.2860    0.7690 Cl  0  0  0  0  0  0  0  0  0  0  0  0
   -4.1890   -0.7940   -1.4110 C   0  0  0  0  0  0  0  0  0  0  0  0
   -2.9040   -0.2160   -1.7590 N   0  0  0  0  0  0  0  0  0  0  0  0
    2.1120   -1.3410    0.0480 C   0  0  0  0  0  0  0  0  0  0  0  0
    3.2150   -2.0840    0.2370 N   0  0  0  0  0  0  0  0  0  0  0  0
    4.4280   -1.5240    0.3750 C   0  0  0  0  0  0  0  0  0  0  0  0
    5.6560   -2.0610    0.5710 N   0  0  0  0  0  0  0  0  0  0  0  0
    6.5550   -1.0500    0.6440 C   0  0  0  0  0  0  0  0  0  0  0  0
    7.9320   -1.0380    0.8330 C   0  0  0  0  0  0  0  0  0  0  0  0
    8.6100    0.1560    0.8660 C   0  0  0  0  0  0  0  0  0  0  0  0
   10.3640    0.1910    1.1060 Cl  0  0  0  0  0  0  0  0  0  0  0  0
    7.9290    1.3420    0.7140 C   0  0  0  0  0  0  0  0  0  0  0  0
    6.5520    1.3410    0.5250 C   0  0  0  0  0  0  0  0  0  0  0  0
    5.8860    0.1270    0.4940 C   0  0  0  0  0  0  0  0  0  0  0  0
    4.5820   -0.1930    0.3300 N   0  0  0  0  0  0  0  0  0  0  0  0
  1  2  2  0
  2  3  1  0
  2 31  1  0
  3  4  1  0
  3 20  2  0
  4  5  1  0
  5  6  1  0
  6  7  1  0
  7  8  2  0
  7 19  1  0
  8  9  1  0
  9 10  1  0
  9 18  1  0
 10 11  2  0
 10 16  1  0
 11 12  1  0
 12 13  2  0
 13 14  1  0
 13 15  1  0
 15 16  2  0
 16 17  1  0
 18 19  1  0
 20 21  1  0
 21 22  1  0
 22 23  2  0
 22 31  1  0
 23 24  1  0
 24 25  2  0
 24 30  1  0
 25 26  1  0
 26 27  1  0
 26 28  2  0
 28 29  1  0
 29 30  2  0
 30 31  1  0
M  CHG  1  23   1
M  END
