
     RDKit          3D

 29 32  0  0  0  0  0  0  0  0999 V2000
    4.7200    0.3730    2.5310 C   0  0  0  0  0  0  0  0  0  0  0  0
    5.2730    0.7040    1.1620 C   0  0  0  0  0  0  0  0  0  0  0  0
    4.2710    0.3860    0.0700 C   0  0  0  0  0  0  0  0  0  0  0  0
    2.9920    1.1790    0.2500 C   0  0  1  0  0  0  0  0  0  0  0  0
    3.3530    2.6060    0.1940 C   0  0  0  0  0  0  0  0  0  0  0  0
    2.7910    3.0800   -0.8530 N   0  0  0  0  0  0  0  0  0  0  0  0
    2.0720    2.1280   -1.5380 N   0  0  0  0  0  0  0  0  0  0  0  0
    2.1510    1.0080   -0.9480 C   0  0  0  0  0  0  0  0  0  0  0  0
    1.5220   -0.2280   -1.3760 N   0  0  0  0  0  0  0  0  0  0  0  0
    2.1970   -1.2010   -2.1960 C   0  0  0  0  0  0  0  0  0  0  0  0
    1.8230   -2.5660   -1.6910 C   0  0  0  0  0  0  0  0  0  0  0  0
    2.6620   -3.4820   -1.6430 O   0  0  0  0  0  0  0  0  0  0  0  0
    0.4980   -2.8060   -1.2670 N   0  0  0  0  0  0  0  0  0  0  0  0
   -0.2880   -1.8400   -0.9170 C   0  0  0  0  0  0  0  0  0  0  0  0
   -1.5850   -2.1930   -0.5120 N   0  0  0  0  0  0  0  0  0  0  0  0
    0.1630   -0.4560   -0.9430 C   0  0  0  0  0  0  0  0  0  0  0  0
   -0.5680    0.5480   -0.6090 N   0  0  0  0  0  0  0  0  0  0  0  0
   -1.9020    0.4870   -0.1690 C   0  0  0  0  0  0  0  0  0  0  0  0
   -2.0840    0.4240    1.1550 C   0  0  0  0  0  0  0  0  0  0  0  0
   -0.8320    0.4280    1.9820 C   0  0  0  0  0  0  0  0  0  0  0  0
   -0.8070   -0.8450    2.7760 C   0  0  0  0  0  0  0  0  0  0  0  0
   -3.3490    0.3570    1.8320 C   0  0  0  0  0  0  0  0  0  0  0  0
   -4.5240   -0.0570    1.4110 C   0  0  0  0  0  0  0  0  0  0  0  0
   -4.9660   -0.5910    0.1200 C   0  0  0  0  0  0  0  0  0  0  0  0
   -4.2870    0.0160   -1.0580 C   0  0  0  0  0  0  0  0  0  0  0  0
   -4.9260    0.1950   -2.2260 C   0  0  0  0  0  0  0  0  0  0  0  0
   -3.9960    0.8110   -3.1860 C   0  0  0  0  0  0  0  0  0  0  0  0
   -2.7340    0.9740   -2.4540 C   0  0  0  0  0  0  0  0  0  0  0  0
   -2.9270    0.5090   -1.2310 C   0  0  0  0  0  0  0  0  0  0  0  0
  1  2  1  0
  2  3  1  0
  4  3  1  6
  4  5  1  0
  4  8  1  0
  5  6  2  0
  6  7  1  0
  7  8  2  0
  8  9  1  0
  9 10  1  0
  9 16  1  0
 10 11  1  0
 11 12  2  0
 11 13  1  0
 13 14  2  0
 14 15  1  0
 14 16  1  0
 16 17  2  3
 17 18  1  0
 18 19  2  0
 18 29  1  0
 19 20  1  0
 19 22  1  0
 20 21  1  0
 22 23  2  0
 23 24  1  0
 24 25  1  0
 25 26  2  0
 25 29  1  0
 26 27  1  0
 27 28  1  0
 28 29  2  0
M  END
