
     RDKit          3D

 31 36  0  0  0  0  0  0  0  0999 V2000
   -4.0600   -2.3150    1.2370 C   0  0  0  0  0  0  0  0  0  0  0  0
   -4.5300   -1.2480    0.7960 C   0  0  0  0  0  0  0  0  0  0  0  0
   -3.9830   -0.2990   -0.1380 C   0  0  0  0  0  0  0  0  0  0  0  0
   -4.8600    0.3690   -0.9690 C   0  0  0  0  0  0  0  0  0  0  0  0
   -6.3030    0.0630   -0.8630 C   0  0  0  0  0  0  0  0  0  0  0  0
   -7.2080    0.9650   -2.1060 Cl  0  0  0  0  0  0  0  0  0  0  0  0
   -4.4180    1.2970   -1.8880 C   0  0  0  0  0  0  0  0  0  0  0  0
   -5.5400    2.1220   -2.9300 Cl  0  0  0  0  0  0  0  0  0  0  0  0
   -3.0540    1.5550   -1.9670 C   0  0  0  0  0  0  0  0  0  0  0  0
   -2.4990    2.5230   -2.9420 C   0  0  0  0  0  0  0  0  0  0  0  0
   -2.1960    0.8830   -1.1330 C   0  0  0  0  0  0  0  0  0  0  0  0
   -0.8500    0.9300   -0.9890 N   0  0  0  0  0  0  0  0  0  0  0  0
   -0.4520    0.0840   -0.0350 C   0  0  0  0  0  0  0  0  0  0  0  0
    0.9110   -0.1910    0.4350 C   0  0  0  0  0  0  0  0  0  0  0  0
    1.0310   -1.1540    1.4320 C   0  0  0  0  0  0  0  0  0  0  0  0
    2.1940   -1.5450    1.9690 N   0  0  0  0  0  0  0  0  0  0  0  0
    3.3110   -0.9410    1.4860 C   0  0  0  0  0  0  0  0  0  0  0  0
    4.5100   -1.3690    2.0590 C   0  0  0  0  0  0  0  0  0  0  0  0
    4.5480   -2.3490    3.0510 N   0  0  0  0  0  0  0  0  0  0  0  0
    5.6650   -0.7630    1.5730 C   0  0  0  0  0  0  0  0  0  0  0  0
    6.7710   -1.1340    2.0760 O   0  0  0  0  0  0  0  0  0  0  0  0
    5.5960    0.1550    0.6300 N   0  0  0  0  0  0  0  0  0  0  0  0
    6.5820    0.8800    0.0170 C   0  0  0  0  0  0  0  0  0  0  0  0
    6.0470    1.6990   -0.8720 N   0  0  0  0  0  0  0  0  0  0  0  0
    4.6990    1.5270   -0.8580 N   0  0  0  0  0  0  0  0  0  0  0  0
    4.4490    0.5950    0.0500 C   0  0  0  0  0  0  0  0  0  0  0  0
    3.2850   -0.0010    0.5240 C   0  0  0  0  0  0  0  0  0  0  0  0
    2.0560    0.4030   -0.0340 C   0  0  0  0  0  0  0  0  0  0  0  0
    1.9360    1.5980   -1.2670 Cl  0  0  0  0  0  0  0  0  0  0  0  0
   -1.5660   -0.5350    0.4610 N   0  0  0  0  0  0  0  0  0  0  0  0
   -2.6260   -0.0650   -0.1920 C   0  0  0  0  0  0  0  0  0  0  0  0
  1  2  2  0
  2  3  1  0
  3  4  2  0
  3 31  1  0
  4  5  1  0
  4  7  1  0
  5  6  1  0
  7  8  1  0
  7  9  2  0
  9 10  1  0
  9 11  1  0
 11 12  1  0
 11 31  2  0
 12 13  1  0
 13 14  1  0
 13 30  2  0
 14 15  2  0
 14 28  1  0
 15 16  1  0
 16 17  1  0
 17 18  2  0
 17 27  1  0
 18 19  1  0
 18 20  1  0
 20 21  2  0
 20 22  1  0
 22 23  1  0
 22 26  1  0
 23 24  2  0
 24 25  1  0
 25 26  2  0
 26 27  1  0
 27 28  2  0
 28 29  1  0
 30 31  1  0
  8  6  1  0
M  CHG  1  25   1
M  END
