
     RDKit          3D

 19 19  0  0  0  0  0  0  0  0999 V2000
   -0.3470   -1.1010    0.3810 C   0  0  0  0  0  0  0  0  0  0  0  0
   -1.3380    0.0410    0.3620 C   0  0  2  0  0  0  0  0  0  0  0  0
   -0.6760    1.3830    0.3420 C   0  0  1  0  0  0  0  0  0  0  0  0
    0.1040    1.4980    1.4820 O   0  0  0  0  0  0  0  0  0  0  0  0
    0.1290    1.5980   -0.8850 C   0  0  0  0  0  0  0  0  0  0  0  0
    1.1930    0.7470   -1.1260 O   0  0  0  0  0  0  0  0  0  0  0  0
    2.3350    0.5450   -0.4070 C   0  0  0  0  0  0  0  0  0  0  0  0
    2.4950    1.2130    0.6400 O   0  0  0  0  0  0  0  0  0  0  0  0
    3.3330   -0.3590   -0.7700 O   0  0  0  0  0  0  0  0  0  0  0  0
    4.4730   -0.4770    0.0620 C   0  0  0  0  0  0  0  0  0  0  0  0
    5.4520   -1.4800   -0.4510 C   0  0  0  0  0  0  0  0  0  0  0  0
    4.9320   -2.7550   -0.5560 O   0  0  0  0  0  0  0  0  0  0  0  0
   -2.2900   -0.1460    1.5520 C   0  0  1  0  0  0  0  0  0  0  0  0
   -2.9050    0.9950    1.9930 O   0  0  0  0  0  0  0  0  0  0  0  0
   -3.1670   -0.9500    0.6220 C   0  0  0  0  0  0  0  0  0  0  0  0
   -2.4660   -0.2230   -0.5360 C   0  0  2  0  0  0  0  0  0  0  0  0
   -2.2160   -1.1630   -1.5360 O   0  0  0  0  0  0  0  0  0  0  0  0
   -3.3400    0.9000   -0.9940 C   0  0  0  0  0  0  0  0  0  0  0  0
   -4.5640    0.3150   -1.4020 O   0  0  0  0  0  0  0  0  0  0  0  0
  2  1  1  1
  2  3  1  0
  2 13  1  0
  2 16  1  0
  3  4  1  1
  3  5  1  0
  5  6  1  0
  6  7  1  0
  7  8  2  0
  7  9  1  0
  9 10  1  0
 10 11  1  0
 11 12  1  0
 13 14  1  6
 13 15  1  0
 15 16  1  0
 16 17  1  6
 16 18  1  0
 18 19  1  0
M  END
