
     RDKit          3D

 19 19  0  0  0  0  0  0  0  0999 V2000
   -1.7890   -3.5080   -0.0840 C   0  0  0  0  0  0  0  0  0  0  0  0
   -1.5540   -2.1250    0.5630 C   0  0  0  0  0  0  0  0  0  0  0  0
   -1.1700   -1.3130   -0.4420 O   0  0  0  0  0  0  0  0  0  0  0  0
   -0.8710   -0.0130   -0.2140 C   0  0  1  0  0  0  0  0  0  0  0  0
   -1.9370    0.9930   -0.1610 C   0  0  0  0  0  0  0  0  0  0  0  0
   -3.0120    0.8740    0.8450 C   0  0  1  0  0  0  0  0  0  0  0  0
   -2.5340    0.8770    2.1660 O   0  0  0  0  0  0  0  0  0  0  0  0
   -3.8020    2.2110    0.7590 C   0  0  0  0  0  0  0  0  0  0  0  0
   -4.8240    2.2110    1.6950 O   0  0  0  0  0  0  0  0  0  0  0  0
    0.1730    0.1440    0.7030 O   0  0  0  0  0  0  0  0  0  0  0  0
    1.2530   -0.5480    0.2160 C   0  0  2  0  0  0  0  0  0  0  0  0
    2.5520    0.2270    0.4280 C   0  0  0  0  0  0  0  0  0  0  0  0
    3.6400   -0.4750   -0.0660 O   0  0  0  0  0  0  0  0  0  0  0  0
    4.7770    0.2770    0.1560 C   0  0  1  0  0  0  0  0  0  0  0  0
    5.7090   -0.5120    0.8050 O   0  0  0  0  0  0  0  0  0  0  0  0
    5.2850    0.6220   -1.1160 O   0  0  0  0  0  0  0  0  0  0  0  0
    1.0670   -0.6490   -1.2920 C   0  0  0  0  0  0  0  0  0  0  0  0
   -0.0460    0.3570   -1.5010 C   0  0  2  0  0  0  0  0  0  0  0  0
    0.3480    1.6590   -1.4500 O   0  0  0  0  0  0  0  0  0  0  0  0
  1  2  1  0
  2  3  1  0
  3  4  1  0
  4  5  1  1
  4 10  1  0
  4 18  1  0
  5  6  1  0
  6  7  1  1
  6  8  1  0
  8  9  1  0
 10 11  1  0
 11 12  1  6
 11 17  1  0
 12 13  1  0
 13 14  1  0
 14 15  1  6
 14 16  1  0
 17 18  1  0
 18 19  1  1
M  END
