
     RDKit          3D

 19 19  0  0  0  0  0  0  0  0999 V2000
    5.0570   -1.2090   -0.8640 O   0  0  0  0  0  0  0  0  0  0  0  0
    4.4810   -0.0630   -0.3510 C   0  0  0  0  0  0  0  0  0  0  0  0
    3.8070   -0.3130    0.9810 C   0  0  1  0  0  0  0  0  0  0  0  0
    4.7710   -0.7740    1.8840 O   0  0  0  0  0  0  0  0  0  0  0  0
    3.1970    0.8360    1.4230 O   0  0  0  0  0  0  0  0  0  0  0  0
    1.8340    0.7730    1.5740 C   0  0  0  0  0  0  0  0  0  0  0  0
    1.1310    0.4800    0.2920 C   0  0  0  0  0  0  0  0  0  0  0  0
   -0.2660    0.4180    0.4600 O   0  0  0  0  0  0  0  0  0  0  0  0
   -0.8190    0.1450   -0.7680 C   0  0  1  0  0  0  0  0  0  0  0  0
   -0.4690    1.1640   -1.6380 O   0  0  0  0  0  0  0  0  0  0  0  0
   -0.2610   -1.2090   -1.2160 C   0  0  0  0  0  0  0  0  0  0  0  0
   -1.2790   -1.9770   -1.8270 O   0  0  0  0  0  0  0  0  0  0  0  0
   -2.1750   -2.4130   -0.8310 C   0  0  0  0  0  0  0  0  0  0  0  0
   -2.6650   -1.2310    0.0110 C   0  0  0  0  0  0  0  0  0  0  0  0
   -2.3060    0.0170   -0.7600 C   0  0  1  0  0  0  0  0  0  0  0  0
   -3.0540    1.2290   -0.3320 C   0  0  1  0  0  0  0  0  0  0  0  0
   -4.4300    0.9050   -0.3930 O   0  0  0  0  0  0  0  0  0  0  0  0
   -2.7880    1.6700    1.0680 C   0  0  0  0  0  0  0  0  0  0  0  0
   -3.6120    2.7940    1.3150 O   0  0  0  0  0  0  0  0  0  0  0  0
  1  2  1  0
  2  3  1  0
  3  4  1  1
  3  5  1  0
  5  6  1  0
  6  7  1  0
  7  8  1  0
  8  9  1  0
  9 10  1  6
  9 11  1  0
  9 15  1  0
 11 12  1  0
 12 13  1  0
 13 14  1  0
 15 14  1  1
 15 16  1  0
 16 17  1  1
 16 18  1  0
 18 19  1  0
M  END
