
     RDKit          3D

 19 19  0  0  0  0  0  0  0  0999 V2000
   -2.2690    0.7680    1.8100 C   0  0  0  0  0  0  0  0  0  0  0  0
   -2.1610    0.6820    0.3300 C   0  0  2  0  0  0  0  0  0  0  0  0
   -0.7850    0.9350   -0.2010 C   0  0  1  0  0  0  0  0  0  0  0  0
   -0.4610    2.2690    0.0440 O   0  0  0  0  0  0  0  0  0  0  0  0
    0.2710    0.0900    0.4880 C   0  0  0  0  0  0  0  0  0  0  0  0
    1.5310    0.3750   -0.0130 O   0  0  0  0  0  0  0  0  0  0  0  0
    2.5720   -0.3010    0.5410 C   0  0  1  0  0  0  0  0  0  0  0  0
    2.6690   -0.0490    1.9190 O   0  0  0  0  0  0  0  0  0  0  0  0
    2.4400   -1.7800    0.2830 C   0  0  0  0  0  0  0  0  0  0  0  0
    3.5470   -2.4450    0.8460 O   0  0  0  0  0  0  0  0  0  0  0  0
    3.8550    0.1950   -0.0960 C   0  0  0  0  0  0  0  0  0  0  0  0
    3.8990   -0.0130   -1.5810 C   0  0  0  0  0  0  0  0  0  0  0  0
    5.1290    0.4890   -2.0490 O   0  0  0  0  0  0  0  0  0  0  0  0
   -3.0330    1.5430   -0.3410 O   0  0  0  0  0  0  0  0  0  0  0  0
   -3.0520    1.0290   -1.6260 C   0  0  0  0  0  0  0  0  0  0  0  0
   -2.7350   -0.3060   -1.5690 O   0  0  0  0  0  0  0  0  0  0  0  0
   -2.7400   -0.6320   -0.2130 C   0  0  2  0  0  0  0  0  0  0  0  0
   -4.1680   -0.7240    0.2120 C   0  0  0  0  0  0  0  0  0  0  0  0
   -4.8480   -1.7060   -0.5150 O   0  0  0  0  0  0  0  0  0  0  0  0
  2  1  1  1
  2  3  1  0
  2 14  1  0
  2 17  1  0
  3  4  1  1
  3  5  1  0
  5  6  1  0
  6  7  1  0
  7  8  1  1
  7  9  1  0
  7 11  1  0
  9 10  1  0
 11 12  1  0
 12 13  1  0
 14 15  1  0
 15 16  1  0
 16 17  1  0
 17 18  1  1
 18 19  1  0
M  END
