
     RDKit          3D

 17 18  0  0  0  0  0  0  0  0999 V2000
    5.5060    1.1960    0.4850 C   0  0  0  0  0  0  0  0  0  0  0  0
    4.2570    1.4660    0.2080 C   0  0  0  0  0  0  0  0  0  0  0  0
    3.2090    0.4720    0.3050 C   0  0  0  0  0  0  0  0  0  0  0  0
    1.9700    0.8260    0.0100 C   0  0  0  0  0  0  0  0  0  0  0  0
    0.8610   -0.0600    0.0680 N   0  0  0  0  0  0  0  0  0  0  0  0
   -0.4880    0.4160   -0.1490 C   0  0  1  0  0  0  0  0  0  0  0  0
   -0.5580    1.0020   -1.5250 C   0  0  0  0  0  0  0  0  0  0  0  0
   -1.8160    0.6260   -2.2720 C   0  0  0  0  0  0  0  0  0  0  0  0
   -2.9620    1.0440   -1.6160 O   0  0  0  0  0  0  0  0  0  0  0  0
   -3.5680    0.0390   -0.8750 C   0  0  0  0  0  0  0  0  0  0  0  0
   -2.8240   -0.1520    0.4380 C   0  0  1  0  0  0  0  0  0  0  0  0
   -2.7890    1.1980    1.1170 C   0  0  0  0  0  0  0  0  0  0  0  0
   -3.5730   -1.1200    1.3160 C   0  0  0  0  0  0  0  0  0  0  0  0
   -1.4540   -0.6810    0.1150 C   0  0  0  0  0  0  0  0  0  0  0  0
    1.0780   -1.4660    0.3490 C   0  0  0  0  0  0  0  0  0  0  0  0
    2.5170   -1.8620    0.0530 C   0  0  0  0  0  0  0  0  0  0  0  0
    3.5050   -0.9100    0.7210 C   0  0  0  0  0  0  0  0  0  0  0  0
  1  2  2  0
  2  3  1  0
  3  4  2  0
  3 17  1  0
  4  5  1  0
  6  5  1  6
  5 15  1  0
  6  7  1  0
  6 14  1  0
  7  8  1  0
  8  9  1  0
  9 10  1  0
 10 11  1  0
 11 12  1  1
 11 13  1  0
 11 14  1  0
 15 16  1  0
 16 17  1  0
M  END
