
     RDKit          3D

 17 18  0  0  0  0  0  0  0  0999 V2000
    0.6810    2.4040    2.5970 C   0  0  0  0  0  0  0  0  0  0  0  0
    0.9070    3.0730    1.2740 C   0  0  0  0  0  0  0  0  0  0  0  0
    1.3630    2.0980    0.2200 C   0  0  0  0  0  0  0  0  0  0  0  0
    2.5610    2.3350   -0.3270 C   0  0  0  0  0  0  0  0  0  0  0  0
    3.4120    3.3360   -0.0590 C   0  0  0  0  0  0  0  0  0  0  0  0
    4.1910    4.2870    0.1980 N   0  0  0  0  0  0  0  0  0  0  0  0
    0.5440    0.9890   -0.2200 C   0  0  0  0  0  0  0  0  0  0  0  0
   -0.6480    0.6250    0.1900 C   0  0  0  0  0  0  0  0  0  0  0  0
   -1.0850   -0.5730   -0.5680 C   0  0  0  0  0  0  0  0  0  0  0  0
   -2.1940   -1.2030   -0.8370 C   0  0  0  0  0  0  0  0  0  0  0  0
   -2.2710   -2.3960   -1.6660 C   0  0  0  0  0  0  0  0  0  0  0  0
   -3.5420   -3.0750   -1.9250 C   0  0  0  0  0  0  0  0  0  0  0  0
   -1.1120   -2.8120   -2.1620 C   0  0  0  0  0  0  0  0  0  0  0  0
    0.0700   -2.1550   -1.9150 O   0  0  0  0  0  0  0  0  0  0  0  0
    0.2250   -1.2040   -0.9610 C   0  0  2  0  0  0  0  0  0  0  0  0
    0.7760   -1.9080    0.2930 C   0  0  0  0  0  0  0  0  0  0  0  0
    1.0570    0.0150   -1.2800 C   0  0  0  0  0  0  0  0  0  0  0  0
  1  2  1  0
  2  3  1  0
  3  4  2  3
  3  7  1  0
  4  5  1  0
  5  6  3  0
  7  8  2  0
  7 17  1  0
  8  9  1  0
  9 10  2  0
  9 15  1  0
 10 11  1  0
 11 12  1  0
 11 13  2  0
 13 14  1  0
 14 15  1  0
 15 16  1  1
 15 17  1  0
M  END
