
     RDKit          3D

 14 14  0  0  0  0  0  0  0  0999 V2000
    5.5800    1.9770    1.5290 N   0  0  0  0  0  0  0  0  0  0  0  0
    4.6740    1.6280    0.8760 C   0  0  0  0  0  0  0  0  0  0  0  0
    3.5310    1.1930    0.0820 C   0  0  0  0  0  0  0  0  0  0  0  0
    2.7420    0.2110    0.7980 N   0  0  0  0  0  0  0  0  0  0  0  0
    1.5700   -0.3740    0.2430 C   0  0  0  0  0  0  0  0  0  0  0  0
    1.2210   -0.0200   -0.9020 O   0  0  0  0  0  0  0  0  0  0  0  0
    0.8320   -1.3060    0.9360 O   0  0  0  0  0  0  0  0  0  0  0  0
   -0.3390   -1.9190    0.4360 C   0  0  0  0  0  0  0  0  0  0  0  0
   -1.4220   -0.9640    0.1160 C   0  0  0  0  0  0  0  0  0  0  0  0
   -1.7080   -0.5300   -1.1610 C   0  0  0  0  0  0  0  0  0  0  0  0
   -2.7300    0.3690   -1.4240 C   0  0  0  0  0  0  0  0  0  0  0  0
   -3.4670    0.8270   -0.3500 C   0  0  0  0  0  0  0  0  0  0  0  0
   -3.2070    0.4130    0.9380 C   0  0  0  0  0  0  0  0  0  0  0  0
   -2.1840   -0.4810    1.1580 C   0  0  0  0  0  0  0  0  0  0  0  0
  1  2  3  0
  2  3  1  0
  3  4  1  0
  4  5  1  0
  5  6  2  0
  5  7  1  0
  7  8  1  0
  8  9  1  0
  9 10  2  0
  9 14  1  0
 10 11  1  0
 11 12  2  0
 12 13  1  0
 13 14  2  0
M  END
