
     RDKit          3D

 39 42  0  0  0  0  0  0  0  0999 V2000
   -0.3520    4.3660   -1.6200 C   0  0  0  0  0  0  0  0  0  0  0  0
   -0.9750    3.4380   -2.4840 O   0  0  0  0  0  0  0  0  0  0  0  0
   -1.2300    2.1350   -2.0850 C   0  0  0  0  0  0  0  0  0  0  0  0
   -0.8950    1.6810   -0.8410 C   0  0  0  0  0  0  0  0  0  0  0  0
   -1.1480    0.3850   -0.4420 C   0  0  0  0  0  0  0  0  0  0  0  0
   -1.7670   -0.5340   -1.3050 C   0  0  0  0  0  0  0  0  0  0  0  0
   -2.0590   -1.8930   -0.8450 C   0  0  1  0  0  0  0  0  0  0  0  0
   -3.5260   -2.0520   -0.6170 C   0  0  0  0  0  0  0  0  0  0  0  0
   -4.3140   -1.2240    0.2540 C   0  0  0  0  0  0  0  0  0  0  0  0
   -4.2740   -1.0930    1.7090 C   0  0  2  0  0  0  0  0  0  0  0  0
   -4.5880   -2.3080    2.5270 C   0  0  0  0  0  0  0  0  0  0  0  0
   -5.3940   -0.0620    2.1410 C   0  0  0  0  0  0  0  0  0  0  0  0
   -3.0270   -0.4620    2.2830 C   0  0  0  0  0  0  0  0  0  0  0  0
   -1.8660   -2.9530   -1.9790 C   0  0  0  0  0  0  0  0  0  0  0  0
   -1.6820   -2.6360   -3.0910 O   0  0  0  0  0  0  0  0  0  0  0  0
   -1.9440   -4.2560   -1.4690 N   0  0  0  0  0  0  0  0  0  0  0  0
   -1.8450   -4.6890   -0.0920 C   0  0  0  0  0  0  0  0  0  0  0  0
   -1.5780   -3.5360    0.8840 C   0  0  0  0  0  0  0  0  0  0  0  0
   -1.0930   -2.4220    0.0200 N   0  0  0  0  0  0  0  0  0  0  0  0
    0.2400   -2.1140    0.1690 C   0  0  0  0  0  0  0  0  0  0  0  0
    0.8810   -2.5180    1.2360 O   0  0  0  0  0  0  0  0  0  0  0  0
    1.1200   -1.3790   -0.7310 C   0  0  0  0  0  0  0  0  0  0  0  0
    0.8550   -1.0460   -1.9130 O   0  0  0  0  0  0  0  0  0  0  0  0
    2.4370   -0.9490   -0.3180 N   0  0  0  0  0  0  0  0  0  0  0  0
    3.2630   -0.2230   -1.2510 C   0  0  2  0  0  0  0  0  0  0  0  0
    4.4330   -1.1720   -1.5720 C   0  0  0  0  0  0  0  0  0  0  0  0
    3.7480    1.0620   -0.7460 C   0  0  0  0  0  0  0  0  0  0  0  0
    3.7200    2.2390   -1.4610 C   0  0  0  0  0  0  0  0  0  0  0  0
    4.2000    3.4310   -0.9300 C   0  0  0  0  0  0  0  0  0  0  0  0
    4.7230    3.4770    0.3330 C   0  0  0  0  0  0  0  0  0  0  0  0
    4.7590    2.3020    1.0660 C   0  0  0  0  0  0  0  0  0  0  0  0
    4.2790    1.1380    0.5210 C   0  0  0  0  0  0  0  0  0  0  0  0
    5.2940    2.3830    2.3400 O   0  0  0  0  0  0  0  0  0  0  0  0
    6.1420    3.3910    2.8090 C   0  0  0  0  0  0  0  0  0  0  0  0
    6.3440    4.4580    1.7910 C   0  0  0  0  0  0  0  0  0  0  0  0
    5.2250    4.6370    0.9330 O   0  0  0  0  0  0  0  0  0  0  0  0
   -2.0920   -0.0360   -2.5560 C   0  0  0  0  0  0  0  0  0  0  0  0
   -1.8330    1.2720   -2.9480 C   0  0  0  0  0  0  0  0  0  0  0  0
   -2.3090    1.8740   -4.6830 Br  0  0  0  0  0  0  0  0  0  0  0  0
  1  2  1  0
  2  3  1  0
  3  4  2  0
  3 38  1  0
  4  5  1  0
  5  6  2  0
  6  7  1  0
  6 37  1  0
  7  8  1  1
  7 14  1  0
  7 19  1  0
  8  9  1  0
  9 10  1  0
 10 11  1  1
 10 12  1  0
 10 13  1  0
 14 15  2  0
 14 16  1  0
 16 17  1  0
 17 18  1  0
 18 19  1  0
 19 20  1  0
 20 21  2  0
 20 22  1  0
 22 23  2  0
 22 24  1  0
 24 25  1  0
 25 26  1  1
 25 27  1  0
 27 28  2  0
 27 32  1  0
 28 29  1  0
 29 30  2  0
 30 31  1  0
 30 36  1  0
 31 32  2  0
 31 33  1  0
 33 34  1  0
 34 35  1  0
 35 36  1  0
 37 38  2  0
 38 39  1  0
M  END
