
     RDKit          3D

 39 42  0  0  0  0  0  0  0  0999 V2000
   -5.0040   -5.1090   -0.7940 C   0  0  0  0  0  0  0  0  0  0  0  0
   -5.4540   -4.1130    0.2540 C   0  0  0  0  0  0  0  0  0  0  0  0
   -5.0350   -2.7870   -0.0100 N   0  0  0  0  0  0  0  0  0  0  0  0
   -5.8170   -1.9160   -0.7820 C   0  0  0  0  0  0  0  0  0  0  0  0
   -5.4740   -0.6930   -1.0580 C   0  0  0  0  0  0  0  0  0  0  0  0
   -4.2460   -0.1260   -0.5870 C   0  0  0  0  0  0  0  0  0  0  0  0
   -3.9780    1.0880   -0.9010 O   0  0  0  0  0  0  0  0  0  0  0  0
   -3.3070   -0.9380    0.2510 C   0  0  0  0  0  0  0  0  0  0  0  0
   -2.2210   -0.3400    0.6020 C   0  0  0  0  0  0  0  0  0  0  0  0
   -1.0200   -0.6110    1.3710 C   0  0  0  0  0  0  0  0  0  0  0  0
   -0.1280    0.4280    1.4240 C   0  0  0  0  0  0  0  0  0  0  0  0
   -0.5040    1.6730    0.7220 C   0  0  0  0  0  0  0  0  0  0  0  0
   -0.0880    1.9890   -0.5350 C   0  0  0  0  0  0  0  0  0  0  0  0
   -0.4820    3.1940   -1.1400 C   0  0  0  0  0  0  0  0  0  0  0  0
   -1.2990    4.0750   -0.4660 C   0  0  0  0  0  0  0  0  0  0  0  0
   -1.7550    5.3300   -1.0390 C   0  0  0  0  0  0  0  0  0  0  0  0
   -1.3860    5.6480   -2.1940 O   0  0  0  0  0  0  0  0  0  0  0  0
   -2.5870    6.1850   -0.3490 O   0  0  0  0  0  0  0  0  0  0  0  0
   -3.0070    7.3770   -0.9360 C   0  0  0  0  0  0  0  0  0  0  0  0
   -1.7370    3.7800    0.8130 C   0  0  0  0  0  0  0  0  0  0  0  0
   -1.3330    2.5960    1.3750 C   0  0  0  0  0  0  0  0  0  0  0  0
   -1.9150    2.1490    3.1320 Br  0  0  0  0  0  0  0  0  0  0  0  0
    1.1770    0.3420    2.0960 C   0  0  2  0  0  0  0  0  0  0  0  0
    2.2280   -0.3640    1.3340 C   0  0  0  0  0  0  0  0  0  0  0  0
    2.6100   -1.5140    1.7410 O   0  0  0  0  0  0  0  0  0  0  0  0
    2.8800    0.0990    0.1710 N   0  0  0  0  0  0  0  0  0  0  0  0
    3.9080   -0.6910   -0.5090 C   0  0  1  0  0  0  0  0  0  0  0  0
    3.3870   -2.0390   -0.9070 C   0  0  0  0  0  0  0  0  0  0  0  0
    4.2920    0.0110   -1.8140 C   0  0  0  0  0  0  0  0  0  0  0  0
    5.7590   -0.0430   -2.0860 C   0  0  0  0  0  0  0  0  0  0  0  0
    6.4540   -1.2770   -1.6190 C   0  0  0  0  0  0  0  0  0  0  0  0
    6.1920   -1.6610   -0.2020 C   0  0  0  0  0  0  0  0  0  0  0  0
    5.1150   -0.7540    0.3540 C   0  0  0  0  0  0  0  0  0  0  0  0
    1.0000   -0.4510    3.3980 C   0  0  0  0  0  0  0  0  0  0  0  0
    0.4480   -1.7770    2.9500 C   0  0  0  0  0  0  0  0  0  0  0  0
    0.9760   -2.8590    3.2460 O   0  0  0  0  0  0  0  0  0  0  0  0
   -0.7520   -1.7630    2.1400 N   0  0  0  0  0  0  0  0  0  0  0  0
   -3.7760   -2.2830    0.5030 C   0  0  0  0  0  0  0  0  0  0  0  0
   -3.1140   -3.0760    1.1760 O   0  0  0  0  0  0  0  0  0  0  0  0
  1  2  1  0
  2  3  1  0
  3  4  1  0
  3 38  1  0
  4  5  2  0
  5  6  1  0
  6  7  2  0
  6  8  1  0
  8  9  2  3
  8 38  1  0
  9 10  1  0
 10 11  2  0
 10 37  1  0
 11 12  1  0
 11 23  1  0
 12 13  2  0
 12 21  1  0
 13 14  1  0
 14 15  2  0
 15 16  1  0
 15 20  1  0
 16 17  2  0
 16 18  1  0
 18 19  1  0
 20 21  2  0
 21 22  1  0
 23 24  1  6
 23 34  1  0
 24 25  2  0
 24 26  1  0
 26 27  1  0
 27 28  1  6
 27 29  1  0
 27 33  1  0
 29 30  1  0
 30 31  1  0
 31 32  1  0
 32 33  1  0
 34 35  1  0
 35 36  2  0
 35 37  1  0
 38 39  2  0
M  END
