
     RDKit          3D

 39 42  0  0  0  0  0  0  0  0999 V2000
    1.7840   -1.6570   -0.6020 C   0  0  0  0  0  0  0  0  0  0  0  0
    1.6990   -1.0160    0.7230 C   0  0  2  0  0  0  0  0  0  0  0  0
    3.0820   -1.2500    1.3760 C   0  0  0  0  0  0  0  0  0  0  0  0
    4.1760   -0.6440    0.5750 C   0  0  0  0  0  0  0  0  0  0  0  0
    3.9280   -0.1010   -0.5250 O   0  0  0  0  0  0  0  0  0  0  0  0
    5.5210   -0.6620    1.0270 N   0  0  0  0  0  0  0  0  0  0  0  0
    6.6170   -0.1120    0.3280 C   0  0  0  0  0  0  0  0  0  0  0  0
    6.6310    0.4820   -0.8530 C   0  0  0  0  0  0  0  0  0  0  0  0
    8.0370    0.8770   -1.1250 C   0  0  0  0  0  0  0  0  0  0  0  0
    8.8120    0.4360    0.0520 C   0  0  0  0  0  0  0  0  0  0  0  0
    7.9890   -0.1340    0.8850 C   0  0  0  0  0  0  0  0  0  0  0  0
    8.5360   -0.8680    2.5660 Br  0  0  0  0  0  0  0  0  0  0  0  0
    0.7730   -1.8040    1.6770 C   0  0  0  0  0  0  0  0  0  0  0  0
   -0.2090   -2.6350    1.0140 C   0  0  0  0  0  0  0  0  0  0  0  0
   -1.4570   -2.2880    0.7980 C   0  0  0  0  0  0  0  0  0  0  0  0
   -2.1010   -0.9980    1.1800 C   0  0  0  0  0  0  0  0  0  0  0  0
   -2.2770   -0.2560   -0.1260 C   0  0  1  0  0  0  0  0  0  0  0  0
   -2.3500    1.2090    0.1610 C   0  0  0  0  0  0  0  0  0  0  0  0
   -3.5040    1.5700    1.0710 C   0  0  0  0  0  0  0  0  0  0  0  0
   -4.8190    1.2710    0.5070 C   0  0  0  0  0  0  0  0  0  0  0  0
   -4.9360    1.0160   -0.7120 O   0  0  0  0  0  0  0  0  0  0  0  0
   -6.0120    1.2570    1.2940 N   0  0  0  0  0  0  0  0  0  0  0  0
   -7.3170    0.9850    0.8300 C   0  0  0  0  0  0  0  0  0  0  0  0
   -7.7010    0.8880   -0.3810 O   0  0  0  0  0  0  0  0  0  0  0  0
   -8.2500    0.8130    1.9590 C   0  0  0  0  0  0  0  0  0  0  0  0
   -7.3450    0.8070    3.1700 C   0  0  0  0  0  0  0  0  0  0  0  0
   -6.1370    1.5140    2.7080 C   0  0  0  0  0  0  0  0  0  0  0  0
   -5.3370    2.2170    3.3750 O   0  0  0  0  0  0  0  0  0  0  0  0
   -1.3420   -0.5410   -1.0670 O   0  0  0  0  0  0  0  0  0  0  0  0
   -0.8060   -0.2420   -2.2530 C   0  0  0  0  0  0  0  0  0  0  0  0
   -1.2010   -0.9480   -3.4030 C   0  0  0  0  0  0  0  0  0  0  0  0
   -0.7130   -0.7110   -4.6630 C   0  0  0  0  0  0  0  0  0  0  0  0
    0.2200    0.2780   -4.8140 C   0  0  0  0  0  0  0  0  0  0  0  0
    0.6230    0.9800   -3.7060 C   0  0  0  0  0  0  0  0  0  0  0  0
    0.1620    0.7770   -2.4120 C   0  0  0  0  0  0  0  0  0  0  0  0
    0.7280    1.5890   -1.3940 N   0  0  0  0  0  0  0  0  0  0  0  0
    1.3600    1.3720   -0.1850 C   0  0  0  0  0  0  0  0  0  0  0  0
    2.2040    2.3470    0.1490 O   0  0  0  0  0  0  0  0  0  0  0  0
    1.4000    0.3890    0.8770 C   0  0  0  0  0  0  0  0  0  0  0  0
  2  1  1  6
  2  3  1  0
  2 13  1  0
  2 39  1  0
  3  4  1  0
  4  5  2  0
  4  6  1  0
  6  7  1  0
  7  8  2  0
  7 11  1  0
  8  9  1  0
  9 10  1  0
 10 11  2  0
 11 12  1  0
 13 14  1  0
 14 15  2  0
 15 16  1  0
 16 17  1  0
 17 18  1  1
 17 29  1  0
 18 19  1  0
 19 20  1  0
 20 21  2  0
 20 22  1  0
 22 23  1  0
 22 27  1  0
 23 24  2  0
 23 25  1  0
 25 26  1  0
 26 27  1  0
 27 28  2  0
 29 30  1  0
 30 31  2  0
 30 35  1  0
 31 32  1  0
 32 33  2  0
 33 34  1  0
 34 35  2  0
 35 36  1  0
 36 37  1  0
 37 38  2  0
 37 39  1  0
M  END
