
     RDKit          3D

 39 43  0  0  0  0  0  0  0  0999 V2000
   -4.1440   -4.8150    2.9610 N   0  0  0  0  0  0  0  0  0  0  0  0
   -3.8510   -5.3700    1.3580 S   0  0  1  0  0  0  0  0  0  0  0  0
   -3.4370   -6.8100    1.3460 O   0  0  0  0  0  0  0  0  0  0  0  0
   -5.1870   -5.3060    0.6310 O   0  0  0  0  0  0  0  0  0  0  0  0
   -2.6700   -4.3720    0.5430 C   0  0  0  0  0  0  0  0  0  0  0  0
   -1.5030   -4.2480    0.3480 N   0  0  0  0  0  0  0  0  0  0  0  0
   -0.8890   -3.3680   -0.3360 N   0  0  0  0  0  0  0  0  0  0  0  0
   -1.5070   -2.4740   -0.9180 C   0  0  0  0  0  0  0  0  0  0  0  0
   -1.2350   -1.3160   -1.7710 N   0  0  0  0  0  0  0  0  0  0  0  0
   -2.3030   -0.5020   -2.2550 C   0  0  0  0  0  0  0  0  0  0  0  0
   -3.0880    0.1130   -1.1520 C   0  0  0  0  0  0  0  0  0  0  0  0
   -4.1790    0.9430   -1.3050 C   0  0  0  0  0  0  0  0  0  0  0  0
   -4.6460    1.3170   -0.1000 N   0  0  0  0  0  0  0  0  0  0  0  0
   -5.7710    2.1790    0.1670 C   0  0  0  0  0  0  0  0  0  0  0  0
   -6.3120    2.9070   -0.8720 C   0  0  0  0  0  0  0  0  0  0  0  0
   -7.3860    3.7550   -0.7110 C   0  0  0  0  0  0  0  0  0  0  0  0
   -7.9540    3.8890    0.5500 C   0  0  0  0  0  0  0  0  0  0  0  0
   -7.4090    3.1570    1.5920 C   0  0  0  0  0  0  0  0  0  0  0  0
   -6.3200    2.3040    1.4030 C   0  0  0  0  0  0  0  0  0  0  0  0
   -3.8650    0.7350    0.7960 N   0  0  0  0  0  0  0  0  0  0  0  0
   -2.9220    0.0060    0.1780 N   0  0  0  0  0  0  0  0  0  0  0  0
    0.1240   -0.9990   -2.1230 C   0  0  0  0  0  0  0  0  0  0  0  0
    0.9580   -0.7270   -0.9260 C   0  0  0  0  0  0  0  0  0  0  0  0
    2.2950   -0.4010   -0.9970 C   0  0  0  0  0  0  0  0  0  0  0  0
    2.7610   -0.2180    0.2530 N   0  0  0  0  0  0  0  0  0  0  0  0
    4.1100    0.1370    0.6490 C   0  0  2  0  0  0  0  0  0  0  0  0
    4.2470    1.5160    0.5190 O   0  0  0  0  0  0  0  0  0  0  0  0
    5.5000    1.9770    0.8250 C   0  0  2  0  0  0  0  0  0  0  0  0
    6.0560    2.8060   -0.3120 C   0  0  0  0  0  0  0  0  0  0  0  0
    7.3200    3.2770   -0.0180 O   0  0  0  0  0  0  0  0  0  0  0  0
    6.4660    0.9320    1.2740 C   0  0  1  0  0  0  0  0  0  0  0  0
    6.2610    0.6510    2.6270 O   0  0  0  0  0  0  0  0  0  0  0  0
    6.5020   -0.2970    0.4290 C   0  0  2  0  0  0  0  0  0  0  0  0
    7.5260   -0.2580   -0.5200 O   0  0  0  0  0  0  0  0  0  0  0  0
    5.1550   -0.5000   -0.2320 C   0  0  1  0  0  0  0  0  0  0  0  0
    4.9550   -1.8750   -0.3630 O   0  0  0  0  0  0  0  0  0  0  0  0
    1.7580   -0.4210    1.0610 N   0  0  0  0  0  0  0  0  0  0  0  0
    0.6450   -0.7340    0.3800 N   0  0  0  0  0  0  0  0  0  0  0  0
   -3.2790   -2.8810   -0.4670 S   0  0  0  0  0  0  0  0  0  0  0  0
  2  1  1  1
  2  3  2  0
  2  4  2  0
  2  5  1  0
  5  6  2  0
  5 39  1  0
  6  7  1  0
  7  8  2  0
  8  9  1  0
  8 39  1  0
  9 10  1  0
  9 22  1  0
 10 11  1  0
 11 12  2  0
 11 21  1  0
 12 13  1  0
 13 14  1  0
 13 20  1  0
 14 15  2  0
 14 19  1  0
 15 16  1  0
 16 17  2  0
 17 18  1  0
 18 19  2  0
 20 21  2  0
 22 23  1  0
 23 24  2  0
 23 38  1  0
 24 25  1  0
 26 25  1  6
 25 37  1  0
 26 27  1  0
 26 35  1  0
 27 28  1  0
 28 29  1  6
 28 31  1  0
 29 30  1  0
 31 32  1  1
 31 33  1  0
 33 34  1  6
 33 35  1  0
 35 36  1  1
 37 38  2  0
M  END
