
     RDKit          3D

 25 26  0  0  0  0  0  0  0  0999 V2000
   -1.3060   -1.0050    2.6490 C   0  0  0  0  0  0  0  0  0  0  0  0
   -1.2980    0.2140    1.9280 O   0  0  0  0  0  0  0  0  0  0  0  0
   -0.7900    0.2050    0.5820 C   0  0  0  0  0  0  0  0  0  0  0  0
    0.6460    0.1050    0.5040 C   0  0  0  0  0  0  0  0  0  0  0  0
    1.2400    0.0470    1.6420 O   0  0  0  0  0  0  0  0  0  0  0  0
    1.3700    0.0700   -0.6830 N   0  0  0  0  0  0  0  0  0  0  0  0
    2.7970   -0.0350   -0.7180 C   0  0  0  0  0  0  0  0  0  0  0  0
    3.4200    0.1390   -1.9710 C   0  0  0  0  0  0  0  0  0  0  0  0
    4.7750    0.0490   -2.1130 C   0  0  0  0  0  0  0  0  0  0  0  0
    5.5610   -0.2200   -1.0030 C   0  0  0  0  0  0  0  0  0  0  0  0
    7.0040   -0.3170   -1.1550 C   0  0  0  0  0  0  0  0  0  0  0  0
    7.5160   -0.1620   -2.2940 O   0  0  0  0  0  0  0  0  0  0  0  0
    5.0130   -0.3980    0.2390 C   0  0  0  0  0  0  0  0  0  0  0  0
    5.8600   -0.6810    1.4190 C   0  0  0  0  0  0  0  0  0  0  0  0
    3.6130   -0.2980    0.3440 C   0  0  0  0  0  0  0  0  0  0  0  0
   -1.7090    0.2890   -0.3240 C   0  0  0  0  0  0  0  0  0  0  0  0
   -1.5490    0.3040   -1.7910 C   0  0  0  0  0  0  0  0  0  0  0  0
   -3.1210    0.4130    0.1440 C   0  0  0  0  0  0  0  0  0  0  0  0
   -4.0440   -0.3800   -0.5230 C   0  0  0  0  0  0  0  0  0  0  0  0
   -5.3790   -0.3490   -0.2010 C   0  0  0  0  0  0  0  0  0  0  0  0
   -6.3330   -1.2120   -0.9340 C   0  0  0  0  0  0  0  0  0  0  0  0
   -5.7550    0.4780    0.7830 N   0  0  0  0  0  0  0  0  0  0  0  0
   -4.8860    1.2620    1.4510 C   0  0  0  0  0  0  0  0  0  0  0  0
   -5.2620    2.0430    2.3840 O   0  0  0  0  0  0  0  0  0  0  0  0
   -3.5210    1.2420    1.1350 C   0  0  0  0  0  0  0  0  0  0  0  0
  1  2  1  0
  2  3  1  0
  3  4  1  0
  3 16  2  3
  4  5  2  0
  4  6  1  0
  6  7  1  0
  7  8  2  0
  7 15  1  0
  8  9  1  0
  9 10  2  0
 10 11  1  0
 10 13  1  0
 11 12  2  0
 13 14  1  0
 13 15  2  0
 16 17  1  0
 16 18  1  0
 18 19  1  0
 18 25  2  0
 19 20  2  0
 20 21  1  0
 20 22  1  0
 22 23  1  0
 23 24  2  0
 23 25  1  0
M  END
