
     RDKit          3D

 25 26  0  0  0  0  0  0  0  0999 V2000
   -4.7950   -2.0550   -0.3100 C   0  0  0  0  0  0  0  0  0  0  0  0
   -5.7680   -1.1530    0.0340 C   0  0  0  0  0  0  0  0  0  0  0  0
   -6.9200   -1.7210    0.6470 C   0  0  0  0  0  0  0  0  0  0  0  0
   -7.9190   -1.1550    1.0470 O   0  0  0  0  0  0  0  0  0  0  0  0
   -5.4930    0.2130   -0.2290 C   0  0  0  0  0  0  0  0  0  0  0  0
   -6.1970    1.2900   -0.0590 C   0  0  0  0  0  0  0  0  0  0  0  0
   -7.5310    1.5360    0.4590 C   0  0  0  0  0  0  0  0  0  0  0  0
   -4.1220    0.4470   -0.7910 N   0  0  0  0  0  0  0  0  0  0  0  0
   -3.0120    0.2150    0.0470 C   0  0  0  0  0  0  0  0  0  0  0  0
   -3.1590   -0.1780    1.2500 O   0  0  0  0  0  0  0  0  0  0  0  0
   -1.6510    0.4340   -0.4920 C   0  0  0  0  0  0  0  0  0  0  0  0
   -1.5450    0.8150   -1.6630 O   0  0  0  0  0  0  0  0  0  0  0  0
   -0.5360    0.2090    0.3250 N   0  0  0  0  0  0  0  0  0  0  0  0
    0.8150    0.3790   -0.0690 C   0  0  0  0  0  0  0  0  0  0  0  0
    1.2620    0.6800   -1.3250 C   0  0  0  0  0  0  0  0  0  0  0  0
    2.6210    0.8420   -1.6390 C   0  0  0  0  0  0  0  0  0  0  0  0
    3.5890    0.7010   -0.6730 C   0  0  0  0  0  0  0  0  0  0  0  0
    3.1490    0.3980    0.5950 C   0  0  0  0  0  0  0  0  0  0  0  0
    1.8190    0.2390    0.9040 C   0  0  0  0  0  0  0  0  0  0  0  0
    4.0400    0.2080    1.7840 C   0  0  0  0  0  0  0  0  0  0  0  0
    5.1670   -0.6820    1.3620 C   0  0  0  0  0  0  0  0  0  0  0  0
    6.2970    0.0830    0.7170 C   0  0  0  0  0  0  0  0  0  0  0  0
    6.1090    0.2920   -0.7460 C   0  0  1  0  0  0  0  0  0  0  0  0
    6.2570   -1.0050   -1.5130 C   0  0  0  0  0  0  0  0  0  0  0  0
    4.8800    0.8840   -1.1090 O   0  0  0  0  0  0  0  0  0  0  0  0
  1  2  2  0
  2  3  1  0
  2  5  1  0
  3  4  2  0
  5  6  2  3
  5  8  1  0
  6  7  1  0
  8  9  1  0
  9 10  2  0
  9 11  1  0
 11 12  2  0
 11 13  1  0
 13 14  1  0
 14 15  2  0
 14 19  1  0
 15 16  1  0
 16 17  2  0
 17 18  1  0
 17 25  1  0
 18 19  2  0
 18 20  1  0
 20 21  1  0
 21 22  1  0
 22 23  1  0
 23 24  1  6
 23 25  1  0
M  END
