
     RDKit          3D

 25 26  0  0  0  0  0  0  0  0999 V2000
    1.1630   -1.3330   -4.0900 C   0  0  0  0  0  0  0  0  0  0  0  0
    0.6290   -2.0970   -2.9610 C   0  0  0  0  0  0  0  0  0  0  0  0
   -0.2490   -3.1420   -3.2050 O   0  0  0  0  0  0  0  0  0  0  0  0
    0.9570   -1.8220   -1.7210 C   0  0  0  0  0  0  0  0  0  0  0  0
    0.3790   -2.6350   -0.6110 C   0  0  0  0  0  0  0  0  0  0  0  0
   -0.4120   -1.8100    0.2600 N   0  0  0  0  0  0  0  0  0  0  0  0
   -1.5380   -1.0500   -0.1990 C   0  0  0  0  0  0  0  0  0  0  0  0
   -1.7760   -1.1680   -1.4270 O   0  0  0  0  0  0  0  0  0  0  0  0
   -2.3270   -0.2200    0.6900 C   0  0  0  0  0  0  0  0  0  0  0  0
   -3.3670    0.4870    0.2760 C   0  0  0  0  0  0  0  0  0  0  0  0
   -3.7100    0.3960   -1.1840 C   0  0  0  0  0  0  0  0  0  0  0  0
   -4.1970    1.3620    1.1510 C   0  0  0  0  0  0  0  0  0  0  0  0
   -4.1770    0.9970    2.5970 C   0  0  0  0  0  0  0  0  0  0  0  0
   -3.3530   -0.2260    2.8680 C   0  0  0  0  0  0  0  0  0  0  0  0
   -2.0100   -0.1210    2.1350 C   0  0  0  0  0  0  0  0  0  0  0  0
    1.8700   -0.7380   -1.4440 C   0  0  0  0  0  0  0  0  0  0  0  0
    2.3280   -0.0380   -2.3700 O   0  0  0  0  0  0  0  0  0  0  0  0
    2.2630   -0.4550   -0.1180 N   0  0  0  0  0  0  0  0  0  0  0  0
    3.1420    0.5710    0.3090 C   0  0  0  0  0  0  0  0  0  0  0  0
    3.9190    1.3420   -0.4930 C   0  0  0  0  0  0  0  0  0  0  0  0
    4.7510    2.3540    0.0160 C   0  0  0  0  0  0  0  0  0  0  0  0
    4.8190    2.6150    1.3710 C   0  0  0  0  0  0  0  0  0  0  0  0
    5.6450    3.6160    1.8480 O   0  0  0  0  0  0  0  0  0  0  0  0
    4.0340    1.8360    2.1820 C   0  0  0  0  0  0  0  0  0  0  0  0
    3.2190    0.8450    1.6810 C   0  0  0  0  0  0  0  0  0  0  0  0
  1  2  1  0
  2  3  1  0
  2  4  2  3
  4  5  1  0
  4 16  1  0
  5  6  1  0
  6  7  1  0
  7  8  2  0
  7  9  1  0
  9 10  2  0
  9 15  1  0
 10 11  1  0
 10 12  1  0
 12 13  1  0
 13 14  1  0
 14 15  1  0
 16 17  2  0
 16 18  1  0
 18 19  1  0
 19 20  2  0
 19 25  1  0
 20 21  1  0
 21 22  2  0
 22 23  1  0
 22 24  1  0
 24 25  2  0
M  END
