
     RDKit          3D

 25 26  0  0  0  0  0  0  0  0999 V2000
    4.4230    1.3070    2.6950 C   0  0  0  0  0  0  0  0  0  0  0  0
    4.8060    1.8600    1.5640 C   0  0  0  0  0  0  0  0  0  0  0  0
    5.7330    2.9140    1.6400 O   0  0  0  0  0  0  0  0  0  0  0  0
    4.3210    1.4360    0.2730 C   0  0  0  0  0  0  0  0  0  0  0  0
    4.7660    2.0420   -0.8120 C   0  0  0  0  0  0  0  0  0  0  0  0
    4.3090    1.6590   -2.1810 C   0  0  0  0  0  0  0  0  0  0  0  0
    3.3830    0.3860    0.1320 N   0  0  0  0  0  0  0  0  0  0  0  0
    2.0610    0.4250    0.6450 C   0  0  0  0  0  0  0  0  0  0  0  0
    1.6490    1.4320    1.2600 O   0  0  0  0  0  0  0  0  0  0  0  0
    1.1330   -0.6570    0.4970 N   0  0  0  0  0  0  0  0  0  0  0  0
   -0.2150   -0.5960    1.0290 C   0  0  1  0  0  0  0  0  0  0  0  0
   -1.2420   -0.6500   -0.0210 C   0  0  0  0  0  0  0  0  0  0  0  0
   -1.1800   -1.5570   -1.0780 C   0  0  0  0  0  0  0  0  0  0  0  0
   -2.1640   -1.5860   -2.0560 C   0  0  0  0  0  0  0  0  0  0  0  0
   -3.2330   -0.7150   -2.0090 C   0  0  0  0  0  0  0  0  0  0  0  0
   -3.3140    0.1930   -0.9690 C   0  0  0  0  0  0  0  0  0  0  0  0
   -2.3360    0.2030   -0.0210 C   0  0  0  0  0  0  0  0  0  0  0  0
   -4.4610    1.0980   -0.9560 C   0  0  0  0  0  0  0  0  0  0  0  0
   -4.7700    1.6550    0.1290 O   0  0  0  0  0  0  0  0  0  0  0  0
   -5.2150    1.3230   -2.2170 C   0  0  0  0  0  0  0  0  0  0  0  0
   -5.4360   -0.0280   -2.8730 C   0  0  0  0  0  0  0  0  0  0  0  0
   -4.2250   -0.7140   -2.9590 O   0  0  0  0  0  0  0  0  0  0  0  0
   -0.3590   -1.6470    2.0810 C   0  0  2  0  0  0  0  0  0  0  0  0
   -0.1200   -3.0370    1.5420 C   0  0  0  0  0  0  0  0  0  0  0  0
   -1.6950   -1.6340    2.7650 C   0  0  0  0  0  0  0  0  0  0  0  0
  1  2  2  0
  2  3  1  0
  2  4  1  0
  4  5  2  3
  4  7  1  0
  5  6  1  0
  7  8  1  0
  8  9  2  0
  8 10  1  0
 11 10  1  6
 11 12  1  0
 11 23  1  0
 12 13  2  0
 12 17  1  0
 13 14  1  0
 14 15  2  0
 15 16  1  0
 15 22  1  0
 16 17  2  0
 16 18  1  0
 18 19  2  0
 18 20  1  0
 20 21  1  0
 21 22  1  0
 23 24  1  6
 23 25  1  0
M  END
