
     RDKit          3D

 10 10  0  0  0  0  0  0  0  0999 V2000
    3.2330   -1.4570    0.4930 Cl  0  0  0  0  0  0  0  0  0  0  0  0
    2.5390   -0.1690   -0.5420 C   0  0  0  0  0  0  0  0  0  0  0  0
    1.1090    0.0200   -0.1710 C   0  0  0  0  0  0  0  0  0  0  0  0
    0.6580    0.8990    0.7920 C   0  0  0  0  0  0  0  0  0  0  0  0
   -0.7120    0.7460    0.8040 C   0  0  0  0  0  0  0  0  0  0  0  0
   -1.0330   -0.2070   -0.1410 C   0  0  0  0  0  0  0  0  0  0  0  0
   -2.4450   -0.6230   -0.3960 C   0  0  1  0  0  0  0  0  0  0  0  0
   -3.1660   -1.1890    1.1360 Cl  0  0  0  0  0  0  0  0  0  0  0  0
   -3.3690    0.7940   -0.9480 Cl  0  0  0  0  0  0  0  0  0  0  0  0
    0.0640   -0.6120   -0.6940 O   0  0  0  0  0  0  0  0  0  0  0  0
  1  2  1  0
  2  3  1  0
  3  4  2  0
  3 10  1  0
  4  5  1  0
  5  6  2  0
  6  7  1  0
  6 10  1  0
  7  8  1  1
  7  9  1  0
M  END
