
     RDKit          3D

 10 10  0  0  0  0  0  0  0  0999 V2000
    2.6530   -0.5580    1.4320 Cl  0  0  0  0  0  0  0  0  0  0  0  0
    2.4670   -0.4060   -0.3520 C   0  0  2  0  0  0  0  0  0  0  0  0
    1.8970   -1.8890   -1.1050 Cl  0  0  0  0  0  0  0  0  0  0  0  0
    4.1560   -0.1700   -0.9680 Cl  0  0  0  0  0  0  0  0  0  0  0  0
    1.6300    0.7960   -0.7020 C   0  0  0  0  0  0  0  0  0  0  0  0
    0.4170    0.7820   -0.2030 O   0  0  0  0  0  0  0  0  0  0  0  0
   -0.5660   -0.0600   -0.4300 C   0  0  1  0  0  0  0  0  0  0  0  0
   -1.0180   -0.7810    0.8540 C   0  0  0  0  0  0  0  0  0  0  0  0
   -2.0370    0.3630    0.9800 C   0  0  0  0  0  0  0  0  0  0  0  0
   -1.9900    0.4120   -0.5330 C   0  0  0  0  0  0  0  0  0  0  0  0
  2  1  1  1
  2  3  1  0
  2  4  1  0
  2  5  1  0
  5  6  1  0
  7  6  1  1
  7  8  1  0
  7 10  1  0
  8  9  1  0
  9 10  1  0
M  END
