
     RDKit          3D

 10  9  0  0  0  0  0  0  0  0999 V2000
    2.2580    0.1210   -0.2380 C   0  0  0  0  0  0  0  0  0  0  0  0
    0.9340    0.7560   -0.1510 C   0  0  0  0  0  0  0  0  0  0  0  0
    0.9080    1.9670   -0.2720 O   0  0  0  0  0  0  0  0  0  0  0  0
   -0.3440    0.0530    0.0670 C   0  0  2  0  0  0  0  0  0  0  0  0
   -0.3840   -0.7110    1.3660 C   0  0  0  0  0  0  0  0  0  0  0  0
   -0.5790   -0.9870   -1.0380 C   0  0  0  0  0  0  0  0  0  0  0  0
   -1.4810    1.0490    0.0250 C   0  0  2  0  0  0  0  0  0  0  0  0
   -1.2850    2.2830    1.2850 Cl  0  0  0  0  0  0  0  0  0  0  0  0
   -3.0480    0.2160    0.2750 Cl  0  0  0  0  0  0  0  0  0  0  0  0
   -1.5790    1.8790   -1.5330 Cl  0  0  0  0  0  0  0  0  0  0  0  0
  1  2  1  0
  2  3  2  0
  2  4  1  0
  4  5  1  1
  4  6  1  0
  4  7  1  0
  7  8  1  1
  7  9  1  0
  7 10  1  0
M  END
