
     RDKit          3D

  9  9  0  0  0  0  0  0  0  0999 V2000
   -2.0450    1.7790    0.3380 Cl  0  0  0  0  0  0  0  0  0  0  0  0
   -2.1030    0.3190   -0.6670 C   0  0  0  0  0  0  0  0  0  0  0  0
   -1.2460   -0.7740   -0.0570 C   0  0  0  0  0  0  0  0  0  0  0  0
    0.1750   -0.3700    0.0650 C   0  0  0  0  0  0  0  0  0  0  0  0
    0.7760    0.2560    1.1290 C   0  0  0  0  0  0  0  0  0  0  0  0
    2.0980    0.4210    0.7740 C   0  0  0  0  0  0  0  0  0  0  0  0
    2.2600   -0.1040   -0.4820 C   0  0  0  0  0  0  0  0  0  0  0  0
    3.7460   -0.1660   -1.4340 Cl  0  0  0  0  0  0  0  0  0  0  0  0
    1.0980   -0.5530   -0.8460 O   0  0  0  0  0  0  0  0  0  0  0  0
  1  2  1  0
  2  3  1  0
  3  4  1  0
  4  5  2  0
  4  9  1  0
  5  6  1  0
  6  7  2  0
  7  8  1  0
  7  9  1  0
M  END
