
     RDKit          3D

 10  9  0  0  0  0  0  0  0  0999 V2000
   -3.1110    0.8510   -0.8550 C   0  0  0  0  0  0  0  0  0  0  0  0
   -1.7030    1.1460   -0.3850 C   0  0  0  0  0  0  0  0  0  0  0  0
   -0.8470   -0.1100   -0.3950 C   0  0  0  0  0  0  0  0  0  0  0  0
    0.5340    0.2250    0.0750 C   0  0  0  0  0  0  0  0  0  0  0  0
    1.4070   -1.0070    0.0750 C   0  0  1  0  0  0  0  0  0  0  0  0
    1.4450   -1.4760   -1.2380 O   0  0  0  0  0  0  0  0  0  0  0  0
    2.8130   -0.6490    0.5180 C   0  0  1  0  0  0  0  0  0  0  0  0
    3.8700   -2.0570    0.5330 Cl  0  0  0  0  0  0  0  0  0  0  0  0
    3.5090    0.5440   -0.6030 Cl  0  0  0  0  0  0  0  0  0  0  0  0
    2.8060    0.0850    2.1340 Cl  0  0  0  0  0  0  0  0  0  0  0  0
  1  2  1  0
  2  3  1  0
  3  4  1  0
  4  5  1  0
  5  6  1  6
  5  7  1  0
  7  8  1  1
  7  9  1  0
  7 10  1  0
M  END
