
     RDKit          3D

 10  9  0  0  0  0  0  0  0  0999 V2000
   -1.8680   -0.0900    0.2390 C   0  0  0  0  0  0  0  0  0  0  0  0
   -0.4000    0.0360   -0.1190 C   0  0  1  0  0  0  0  0  0  0  0  0
   -0.1690   -0.9160   -1.2860 C   0  0  0  0  0  0  0  0  0  0  0  0
   -0.1750    1.4730   -0.5340 C   0  0  0  0  0  0  0  0  0  0  0  0
    0.4570   -0.2820    1.0350 C   0  0  0  0  0  0  0  0  0  0  0  0
   -0.0800   -0.5920    2.0880 O   0  0  0  0  0  0  0  0  0  0  0  0
    1.9220   -0.2590    1.0360 C   0  0  1  0  0  0  0  0  0  0  0  0
    2.6310    1.3060    0.6540 Cl  0  0  0  0  0  0  0  0  0  0  0  0
    2.6100   -0.8150    2.5780 Cl  0  0  0  0  0  0  0  0  0  0  0  0
    2.4600   -1.4050   -0.2430 Cl  0  0  0  0  0  0  0  0  0  0  0  0
  2  1  1  1
  2  3  1  0
  2  4  1  0
  2  5  1  0
  5  6  2  0
  5  7  1  0
  7  8  1  6
  7  9  1  0
  7 10  1  0
M  END
