
     RDKit          3D

  9  9  0  0  0  0  0  0  0  0999 V2000
    2.9270   -1.2880    0.0640 Cl  0  0  0  0  0  0  0  0  0  0  0  0
    1.3270   -0.5700    0.0290 C   0  0  0  0  0  0  0  0  0  0  0  0
    1.1600    0.8000    0.0080 C   0  0  0  0  0  0  0  0  0  0  0  0
   -0.0860    1.3910   -0.0200 C   0  0  0  0  0  0  0  0  0  0  0  0
   -1.2280    0.6200   -0.0280 C   0  0  0  0  0  0  0  0  0  0  0  0
   -2.8310    1.3660   -0.0630 Cl  0  0  0  0  0  0  0  0  0  0  0  0
   -1.0780   -0.7520   -0.0070 C   0  0  0  0  0  0  0  0  0  0  0  0
   -2.5420   -1.7380   -0.0180 Cl  0  0  0  0  0  0  0  0  0  0  0  0
    0.1790   -1.3220    0.0200 C   0  0  0  0  0  0  0  0  0  0  0  0
  1  2  1  0
  2  3  2  0
  2  9  1  0
  3  4  1  0
  4  5  2  0
  5  6  1  0
  5  7  1  0
  7  8  1  0
  7  9  2  0
M  END
