
     RDKit          3D

 10 10  0  0  0  0  0  0  0  0999 V2000
   -2.4790    0.0920   -0.2800 O   0  0  0  0  0  0  0  0  0  0  0  0
   -1.0950    0.0850   -0.1210 C   0  0  0  0  0  0  0  0  0  0  0  0
   -0.4390   -1.1290   -0.1160 C   0  0  0  0  0  0  0  0  0  0  0  0
   -1.3500   -2.6220   -0.3070 Cl  0  0  0  0  0  0  0  0  0  0  0  0
    0.9250   -1.1100    0.0420 C   0  0  0  0  0  0  0  0  0  0  0  0
    1.6570    0.0430    0.1930 C   0  0  0  0  0  0  0  0  0  0  0  0
    3.4070   -0.0430    0.3900 Cl  0  0  0  0  0  0  0  0  0  0  0  0
    0.9960    1.2550    0.1870 C   0  0  0  0  0  0  0  0  0  0  0  0
   -0.3780    1.2530    0.0290 C   0  0  0  0  0  0  0  0  0  0  0  0
   -1.2240    2.7850    0.0200 Cl  0  0  0  0  0  0  0  0  0  0  0  0
  1  2  1  0
  2  3  2  0
  2  9  1  0
  3  4  1  0
  3  5  1  0
  5  6  2  0
  6  7  1  0
  6  8  1  0
  8  9  2  0
  9 10  1  0
M  END
