
     RDKit          3D

 24 25  0  0  0  0  0  0  0  0999 V2000
    3.2860   -0.0920    2.0750 C   0  0  0  0  0  0  0  0  0  0  0  0
    3.4510    1.0650    1.3600 O   0  0  0  0  0  0  0  0  0  0  0  0
    2.5810    1.2620    0.3200 C   0  0  0  0  0  0  0  0  0  0  0  0
    2.6710    0.1730   -0.7300 C   0  0  2  0  0  0  0  0  0  0  0  0
    4.0650    0.1190   -1.3360 C   0  0  0  0  0  0  0  0  0  0  0  0
    4.4300    1.4260   -1.9960 C   0  0  0  0  0  0  0  0  0  0  0  0
    3.5240    1.7060   -3.0080 O   0  0  0  0  0  0  0  0  0  0  0  0
    1.7800    0.4570   -1.7240 O   0  0  0  0  0  0  0  0  0  0  0  0
    0.8640   -0.5290   -1.9010 C   0  0  0  0  0  0  0  0  0  0  0  0
   -0.0320   -0.7750   -0.7660 C   0  0  0  0  0  0  0  0  0  0  0  0
   -1.2810   -0.4970   -1.0370 N   0  0  0  0  0  0  0  0  0  0  0  0
   -2.4700   -0.6050   -0.1830 C   0  0  2  0  0  0  0  0  0  0  0  0
   -2.6050   -1.8950    0.3760 N   0  0  0  0  0  0  0  0  0  0  0  0
   -1.6860   -2.1300    1.3610 N   0  0  0  0  0  0  0  0  0  0  0  0
   -0.2890   -1.8450    1.4150 C   0  0  0  0  0  0  0  0  0  0  0  0
    0.4400   -2.2230    2.5770 N   0  0  0  0  0  0  0  0  0  0  0  0
    0.4040   -1.2530    0.4730 N   0  0  0  0  0  0  0  0  0  0  0  0
   -3.6190   -0.2590   -1.1440 C   0  0  1  0  0  0  0  0  0  0  0  0
   -4.8650   -0.1070   -0.4500 N   0  0  0  0  0  0  0  0  0  0  0  0
   -3.1340    1.1600   -1.4890 C   0  0  0  0  0  0  0  0  0  0  0  0
   -2.8510    1.6430   -0.0920 C   0  0  0  0  0  0  0  0  0  0  0  0
   -2.8710    2.8390    0.2810 O   0  0  0  0  0  0  0  0  0  0  0  0
   -2.5550    0.4910    0.7310 N   0  0  0  0  0  0  0  0  0  0  0  0
   -2.4080    0.5950    2.1530 C   0  0  0  0  0  0  0  0  0  0  0  0
  1  2  1  0
  2  3  1  0
  4  3  1  1
  4  5  1  0
  4  8  1  0
  5  6  1  0
  6  7  1  0
  8  9  1  0
  9 10  1  0
 10 11  2  0
 10 17  1  0
 11 12  1  0
 12 13  1  1
 12 18  1  0
 12 23  1  0
 13 14  1  0
 14 15  1  0
 15 16  1  0
 15 17  2  0
 18 19  1  1
 18 20  1  0
 20 21  1  0
 21 22  2  0
 21 23  1  0
 23 24  1  0
M  CHG  1  19   1
M  END
