
     RDKit          3D

 25 26  0  0  0  0  0  0  0  0999 V2000
    6.3650    1.2900   -0.6160 N   0  0  0  0  0  0  0  0  0  0  0  0
    6.3060    0.1200   -1.4910 C   0  0  0  0  0  0  0  0  0  0  0  0
    6.5330   -1.1100   -0.6520 C   0  0  0  0  0  0  0  0  0  0  0  0
    5.5800   -1.2660    0.3440 N   0  0  0  0  0  0  0  0  0  0  0  0
    4.1040   -1.3880    0.0580 C   0  0  0  0  0  0  0  0  0  0  0  0
    3.7260   -1.2980   -1.0450 O   0  0  0  0  0  0  0  0  0  0  0  0
    3.4590   -1.6030    1.2570 N   0  0  0  0  0  0  0  0  0  0  0  0
    1.8790   -0.9050    1.0660 C   0  0  0  0  0  0  0  0  0  0  0  0
    1.4820   -1.1990    2.1160 O   0  0  0  0  0  0  0  0  0  0  0  0
    1.4040   -0.2430    0.0010 N   0  0  0  0  0  0  0  0  0  0  0  0
   -0.1060    0.2200    0.6990 C   0  0  0  0  0  0  0  0  0  0  0  0
   -0.2440   -0.1280    1.7940 O   0  0  0  0  0  0  0  0  0  0  0  0
   -0.9460    0.9580   -0.1950 C   0  0  2  0  0  0  0  0  0  0  0  0
   -1.9480    1.7110    0.6670 C   0  0  0  0  0  0  0  0  0  0  0  0
   -3.0020    0.8620    1.2380 C   0  0  0  0  0  0  0  0  0  0  0  0
   -3.6550   -0.0530    0.2690 C   0  0  1  0  0  0  0  0  0  0  0  0
   -5.1430    0.0080    0.3510 C   0  0  0  0  0  0  0  0  0  0  0  0
   -5.9600    1.0150    0.0360 N   0  0  0  0  0  0  0  0  0  0  0  0
   -7.2070    0.6590    0.2760 N   0  0  0  0  0  0  0  0  0  0  0  0
   -7.2100   -0.5950    0.7580 C   0  0  0  0  0  0  0  0  0  0  0  0
   -8.2410   -1.2410    1.0900 O   0  0  0  0  0  0  0  0  0  0  0  0
   -5.9290   -0.9800    0.7950 N   0  0  0  0  0  0  0  0  0  0  0  0
   -3.1560    0.2690   -1.1140 C   0  0  2  0  0  0  0  0  0  0  0  0
   -3.7650   -0.5150   -2.0880 O   0  0  0  0  0  0  0  0  0  0  0  0
   -1.6660   -0.0120   -1.1070 C   0  0  0  0  0  0  0  0  0  0  0  0
  1  2  1  0
  2  3  1  0
  3  4  1  0
  4  5  1  0
  5  6  2  0
  5  7  1  0
  7  8  1  0
  8  9  2  0
  8 10  1  0
 10 11  1  0
 11 12  2  0
 13 11  1  1
 13 14  1  0
 13 25  1  0
 14 15  1  0
 15 16  1  0
 16 17  1  6
 16 23  1  0
 17 18  2  0
 17 22  1  0
 18 19  1  0
 19 20  1  0
 20 21  2  0
 20 22  1  0
 23 24  1  6
 23 25  1  0
M  CHG  1   1   1
M  END
