
     RDKit          3D

 25 26  0  0  0  0  0  0  0  0999 V2000
   -2.9040    1.3430    0.9110 C   0  0  0  0  0  0  0  0  0  0  0  0
   -2.7870    0.6460   -0.4530 C   0  0  2  0  0  0  0  0  0  0  0  0
   -1.6230    1.2450   -1.1340 C   0  0  0  0  0  0  0  0  0  0  0  0
   -0.3490    1.0990   -0.3570 C   0  0  1  0  0  0  0  0  0  0  0  0
   -0.0500   -0.2370   -0.1540 O   0  0  0  0  0  0  0  0  0  0  0  0
    1.2270   -0.7850   -0.0810 C   0  0  0  0  0  0  0  0  0  0  0  0
    1.3430   -2.1690    0.4160 C   0  0  0  0  0  0  0  0  0  0  0  0
    0.6160   -3.1110   -0.4210 N   0  0  0  0  0  0  0  0  0  0  0  0
    2.2700   -0.1090   -0.4350 C   0  0  0  0  0  0  0  0  0  0  0  0
    3.6840   -0.5590   -0.4140 C   0  0  0  0  0  0  0  0  0  0  0  0
    4.3720    0.3750    0.4950 N   0  0  0  0  0  0  0  0  0  0  0  0
    5.7770    0.0260    0.5930 C   0  0  0  0  0  0  0  0  0  0  0  0
    6.3950    0.9750    1.4940 N   0  0  0  0  0  0  0  0  0  0  0  0
    2.0520    1.2440   -0.9030 N   0  0  0  0  0  0  0  0  0  0  0  0
    0.7780    1.8430   -0.9870 C   0  0  0  0  0  0  0  0  0  0  0  0
    0.6340    2.9350   -1.5640 O   0  0  0  0  0  0  0  0  0  0  0  0
   -4.0550    0.9930   -1.1360 N   0  0  0  0  0  0  0  0  0  0  0  0
   -5.3450    0.7790   -0.5760 C   0  0  0  0  0  0  0  0  0  0  0  0
   -6.2940    1.3920   -1.1810 O   0  0  0  0  0  0  0  0  0  0  0  0
   -5.7270   -0.0100    0.5500 N   0  0  0  0  0  0  0  0  0  0  0  0
   -4.9510   -1.0720    1.0960 C   0  0  0  0  0  0  0  0  0  0  0  0
   -5.4150   -1.7230    2.0820 O   0  0  0  0  0  0  0  0  0  0  0  0
   -3.6490   -1.5200    0.6490 N   0  0  0  0  0  0  0  0  0  0  0  0
   -2.8120   -0.8070   -0.2820 C   0  0  0  0  0  0  0  0  0  0  0  0
   -2.0470   -1.5530   -0.9950 O   0  0  0  0  0  0  0  0  0  0  0  0
  2  1  1  1
  2  3  1  0
  2 17  1  0
  2 24  1  0
  4  3  1  6
  4  5  1  0
  4 15  1  0
  5  6  1  0
  6  7  1  0
  6  9  2  0
  7  8  1  0
  9 10  1  0
  9 14  1  0
 10 11  1  0
 11 12  1  0
 12 13  1  0
 14 15  1  0
 15 16  2  0
 17 18  1  0
 18 19  2  0
 18 20  1  0
 20 21  1  0
 21 22  2  0
 21 23  1  0
 23 24  1  0
 24 25  2  0
M  END
