
     RDKit          3D

 25 26  0  0  0  0  0  0  0  0999 V2000
    5.2710    1.7350    2.3330 N   0  0  0  0  0  0  0  0  0  0  0  0
    4.7940    1.2020    1.0790 C   0  0  0  0  0  0  0  0  0  0  0  0
    5.3360    1.6590    0.0610 O   0  0  0  0  0  0  0  0  0  0  0  0
    3.7330    0.1820    1.0470 C   0  0  0  0  0  0  0  0  0  0  0  0
    3.3450   -0.2710   -0.3190 C   0  0  1  0  0  0  0  0  0  0  0  0
    2.8190    0.8360   -1.2130 C   0  0  0  0  0  0  0  0  0  0  0  0
    1.6880    1.4880   -0.6750 O   0  0  0  0  0  0  0  0  0  0  0  0
    0.5280    0.7920   -0.4190 C   0  0  0  0  0  0  0  0  0  0  0  0
    0.4040   -0.4450   -0.6450 O   0  0  0  0  0  0  0  0  0  0  0  0
   -0.6390    1.4130    0.1270 N   0  0  0  0  0  0  0  0  0  0  0  0
   -1.8470    0.6830    0.3930 C   0  0  1  0  0  0  0  0  0  0  0  0
   -2.2640    0.7190    1.8260 C   0  0  0  0  0  0  0  0  0  0  0  0
   -3.5270   -0.1020    1.9790 C   0  0  0  0  0  0  0  0  0  0  0  0
   -3.8860   -0.8550    0.7250 C   0  0  0  0  0  0  0  0  0  0  0  0
   -4.0650    0.1070   -0.4190 C   0  0  2  0  0  0  0  0  0  0  0  0
   -3.0130    1.1790   -0.4520 C   0  0  0  0  0  0  0  0  0  0  0  0
   -5.4120    0.6390   -0.3700 N   0  0  0  0  0  0  0  0  0  0  0  0
   -6.2340   -0.3620   -0.8560 N   0  0  0  0  0  0  0  0  0  0  0  0
   -5.4710   -1.0890   -1.7880 N   0  0  0  0  0  0  0  0  0  0  0  0
   -4.1110   -0.6820   -1.6790 C   0  0  0  0  0  0  0  0  0  0  0  0
   -3.1680   -0.9430   -2.4850 O   0  0  0  0  0  0  0  0  0  0  0  0
    4.4970   -0.8470   -0.9750 N   0  0  0  0  0  0  0  0  0  0  0  0
    4.5330   -2.2260   -1.3810 C   0  0  0  0  0  0  0  0  0  0  0  0
    5.6430   -2.8110   -2.0210 N   0  0  0  0  0  0  0  0  0  0  0  0
    3.5060   -2.9070   -1.1360 O   0  0  0  0  0  0  0  0  0  0  0  0
  1  2  1  0
  2  3  2  0
  2  4  1  0
  5  4  1  1
  5  6  1  0
  5 22  1  0
  6  7  1  0
  7  8  1  0
  8  9  2  0
  8 10  1  0
 11 10  1  1
 11 12  1  0
 11 16  1  0
 12 13  1  0
 13 14  1  0
 15 14  1  1
 15 16  1  0
 15 17  1  0
 15 20  1  0
 17 18  1  0
 18 19  1  0
 19 20  1  0
 20 21  2  0
 22 23  1  0
 23 24  1  0
 23 25  2  0
M  END
