
     RDKit          3D

 25 27  0  0  0  0  0  0  0  0999 V2000
   -3.1680    2.6780    1.6330 N   0  0  0  0  0  0  0  0  0  0  0  0
   -3.6340    1.9330    0.5490 N   0  0  0  0  0  0  0  0  0  0  0  0
   -3.5550    0.5280    0.5990 C   0  0  0  0  0  0  0  0  0  0  0  0
   -3.3820   -0.0980    1.7250 N   0  0  0  0  0  0  0  0  0  0  0  0
   -3.3070   -1.5450    1.7110 C   0  0  0  0  0  0  0  0  0  0  0  0
   -3.6880   -2.1380    2.7510 O   0  0  0  0  0  0  0  0  0  0  0  0
   -2.8050   -2.2860    0.5300 C   0  0  0  0  0  0  0  0  0  0  0  0
   -2.5400   -1.3420   -0.5650 C   0  0  1  0  0  0  0  0  0  0  0  0
   -1.2430   -0.6750   -0.4470 C   0  0  0  0  0  0  0  0  0  0  0  0
   -0.6920   -0.1130   -1.4610 O   0  0  0  0  0  0  0  0  0  0  0  0
   -0.4710   -0.5740    0.7450 N   0  0  0  0  0  0  0  0  0  0  0  0
    0.8060    0.1190    0.7730 C   0  0  0  0  0  0  0  0  0  0  0  0
    1.8030   -0.4390   -0.1510 C   0  0  0  0  0  0  0  0  0  0  0  0
    1.5140   -1.4150   -0.8640 O   0  0  0  0  0  0  0  0  0  0  0  0
    3.1240    0.1500   -0.2290 C   0  0  0  0  0  0  0  0  0  0  0  0
    4.0650   -0.2950   -1.0430 C   0  0  0  0  0  0  0  0  0  0  0  0
    5.3560    0.2230   -1.1740 N   0  0  0  0  0  0  0  0  0  0  0  0
    5.7050    1.2510   -0.3540 N   0  0  0  0  0  0  0  0  0  0  0  0
    4.7360    1.7360    0.5030 C   0  0  0  0  0  0  0  0  0  0  0  0
    3.5300    1.2810    0.6150 C   0  0  0  0  0  0  0  0  0  0  0  0
   -2.7700   -1.8620   -1.9020 N   0  0  0  0  0  0  0  0  0  0  0  0
   -3.0990   -0.7290   -2.6800 C   0  0  0  0  0  0  0  0  0  0  0  0
   -3.1270   -0.6820   -3.9580 O   0  0  0  0  0  0  0  0  0  0  0  0
   -3.3920    0.3430   -1.8060 O   0  0  0  0  0  0  0  0  0  0  0  0
   -3.6700   -0.2950   -0.5770 C   0  0  2  0  0  0  0  0  0  0  0  0
  1  2  1  0
  2  3  1  0
  3  4  2  0
  3 25  1  0
  4  5  1  0
  5  6  2  0
  5  7  1  0
  7  8  1  0
  8  9  1  6
  8 21  1  0
  8 25  1  0
  9 10  2  0
  9 11  1  0
 11 12  1  0
 12 13  1  0
 13 14  2  0
 13 15  1  0
 15 16  2  0
 15 20  1  0
 16 17  1  0
 17 18  1  0
 18 19  1  0
 19 20  2  0
 21 22  1  0
 22 23  2  0
 22 24  1  0
 25 24  1  6
M  CHG  2  17   1  18   1
M  END
