
     RDKit          3D

 10 11  0  0  0  0  0  0  0  0999 V2000
   -2.6480   -0.5840    0.1020 C   0  0  0  0  0  0  0  0  0  0  0  0
   -1.3040   -0.3210    0.7380 C   0  0  1  0  0  0  0  0  0  0  0  0
   -0.4890   -1.5880    0.5900 C   0  0  0  0  0  0  0  0  0  0  0  0
    0.8740   -1.0380    0.3660 C   0  0  0  0  0  0  0  0  0  0  0  0
    2.1610   -1.1730    0.6420 C   0  0  0  0  0  0  0  0  0  0  0  0
    2.9690   -0.1200   -0.0330 C   0  0  0  0  0  0  0  0  0  0  0  0
    1.9290    0.9280   -0.3340 C   0  0  0  0  0  0  0  0  0  0  0  0
    0.6570    0.1480   -0.5440 C   0  0  2  0  0  0  0  0  0  0  0  0
   -0.5420    0.7850    0.0830 C   0  0  1  0  0  0  0  0  0  0  0  0
   -1.3430    1.6440   -0.8280 C   0  0  0  0  0  0  0  0  0  0  0  0
  2  1  1  6
  2  3  1  0
  2  9  1  0
  3  4  1  0
  4  5  2  0
  4  8  1  0
  5  6  1  0
  6  7  1  0
  8  7  1  1
  8  9  1  0
  9 10  1  6
M  END
