
     RDKit          3D

 10 11  0  0  0  0  0  0  0  0999 V2000
    3.0620   -0.2200    0.1370 C   0  0  0  0  0  0  0  0  0  0  0  0
    1.8730   -0.3720   -0.8150 C   0  0  0  0  0  0  0  0  0  0  0  0
    0.6350   -0.2350    0.0290 C   0  0  1  0  0  0  0  0  0  0  0  0
    0.5720    1.1140    0.7250 C   0  0  0  0  0  0  0  0  0  0  0  0
   -0.8330    1.5520    0.4140 C   0  0  2  0  0  0  0  0  0  0  0  0
   -1.7650    0.5500    0.9830 C   0  0  0  0  0  0  0  0  0  0  0  0
   -1.7280   -0.5570    0.2450 C   0  0  0  0  0  0  0  0  0  0  0  0
   -2.5560   -1.7770    0.3310 C   0  0  0  0  0  0  0  0  0  0  0  0
   -0.6390   -0.3520   -0.7520 C   0  0  1  0  0  0  0  0  0  0  0  0
   -0.8910    1.1340   -1.0700 C   0  0  0  0  0  0  0  0  0  0  0  0
  1  2  1  0
  3  2  1  6
  3  4  1  0
  3  9  1  0
  5  4  1  1
  5  6  1  0
  5 10  1  0
  6  7  2  0
  7  8  1  0
  9  7  1  1
  9 10  1  0
M  END
