
     RDKit          3D

 10 11  0  0  0  0  0  0  0  0999 V2000
   -1.0670    2.2850    0.3770 C   0  0  0  0  0  0  0  0  0  0  0  0
   -0.8340    0.8180    0.5340 C   0  0  1  0  0  0  0  0  0  0  0  0
   -1.7120    0.0440   -0.4410 C   0  0  0  0  0  0  0  0  0  0  0  0
   -1.6540   -1.4200   -0.1700 C   0  0  0  0  0  0  0  0  0  0  0  0
   -0.3070   -1.9660    0.1340 C   0  0  0  0  0  0  0  0  0  0  0  0
    0.7950   -1.0160    0.0070 C   0  0  0  0  0  0  0  0  0  0  0  0
    2.0760   -1.1880   -0.2730 C   0  0  0  0  0  0  0  0  0  0  0  0
    2.7800    0.1020   -0.2820 C   0  0  0  0  0  0  0  0  0  0  0  0
    1.7150    1.0770    0.0390 C   0  0  0  0  0  0  0  0  0  0  0  0
    0.5730    0.4300    0.2050 C   0  0  0  0  0  0  0  0  0  0  0  0
  2  1  1  6
  2  3  1  0
  2 10  1  0
  3  4  1  0
  4  5  1  0
  5  6  1  0
  6  7  2  0
  6 10  1  0
  7  8  1  0
  8  9  1  0
  9 10  2  0
M  END
