
     RDKit          3D

 10 11  0  0  0  0  0  0  0  0999 V2000
    2.8620   -0.2940   -0.4430 C   0  0  0  0  0  0  0  0  0  0  0  0
    1.4480   -0.3790    0.0040 C   0  0  0  0  0  0  0  0  0  0  0  0
    1.0310   -1.2340    0.9100 C   0  0  0  0  0  0  0  0  0  0  0  0
   -0.3640   -1.2760    1.4330 C   0  0  0  0  0  0  0  0  0  0  0  0
   -1.2540   -0.2680    0.7700 C   0  0  2  0  0  0  0  0  0  0  0  0
   -1.6170   -0.7050   -0.6240 C   0  0  0  0  0  0  0  0  0  0  0  0
   -0.4430   -0.3120   -1.4920 C   0  0  0  0  0  0  0  0  0  0  0  0
    0.4600    0.5490   -0.6040 C   0  0  1  0  0  0  0  0  0  0  0  0
   -0.4670    0.9890    0.5230 C   0  0  1  0  0  0  0  0  0  0  0  0
   -1.3400    2.1470    0.1030 C   0  0  0  0  0  0  0  0  0  0  0  0
  1  2  1  0
  2  3  2  0
  2  8  1  0
  3  4  1  0
  5  4  1  6
  5  6  1  0
  5  9  1  0
  6  7  1  0
  8  7  1  6
  8  9  1  0
  9 10  1  6
M  END
