
     RDKit          3D

 10 11  0  0  0  0  0  0  0  0999 V2000
   -1.1630   -1.8550    0.3420 C   0  0  0  0  0  0  0  0  0  0  0  0
   -0.9890   -0.3690    0.4140 C   0  0  2  0  0  0  0  0  0  0  0  0
   -2.1930    0.3060   -0.2080 C   0  0  0  0  0  0  0  0  0  0  0  0
   -1.9940    1.7580   -0.1320 C   0  0  0  0  0  0  0  0  0  0  0  0
   -0.8000    2.2930   -0.1600 C   0  0  0  0  0  0  0  0  0  0  0  0
    0.4410    1.4870   -0.2700 C   0  0  0  0  0  0  0  0  0  0  0  0
    0.1760    0.0420   -0.5090 C   0  0  1  0  0  0  0  0  0  0  0  0
    1.3330   -0.8660   -0.3700 C   0  0  2  0  0  0  0  0  0  0  0  0
    2.0820   -1.0730    0.8760 C   0  0  0  0  0  0  0  0  0  0  0  0
    2.6710   -0.1970   -0.1940 C   0  0  0  0  0  0  0  0  0  0  0  0
  2  1  1  6
  2  3  1  0
  2  7  1  0
  3  4  1  0
  4  5  2  0
  5  6  1  0
  7  6  1  1
  7  8  1  0
  8  9  1  1
  8 10  1  0
  9 10  1  0
M  END
