
     RDKit          3D

 10 10  0  0  0  0  0  0  0  0999 V2000
   -3.2170   -0.3920    0.4120 C   0  0  0  0  0  0  0  0  0  0  0  0
   -1.8340    0.0750    0.1240 C   0  0  0  0  0  0  0  0  0  0  0  0
   -1.6770    1.3800   -0.0580 C   0  0  0  0  0  0  0  0  0  0  0  0
   -0.4550    2.0880   -0.3470 C   0  0  0  0  0  0  0  0  0  0  0  0
    0.7910    1.6990   -0.1990 C   0  0  0  0  0  0  0  0  0  0  0  0
    1.3370    0.4440    0.2990 C   0  0  2  0  0  0  0  0  0  0  0  0
    2.6920    0.2280   -0.3840 C   0  0  0  0  0  0  0  0  0  0  0  0
    0.5040   -0.7350    0.1530 C   0  0  0  0  0  0  0  0  0  0  0  0
    1.2650   -2.0200    0.0680 C   0  0  0  0  0  0  0  0  0  0  0  0
   -0.8160   -0.9470    0.0750 C   0  0  0  0  0  0  0  0  0  0  0  0
  1  2  1  0
  2  3  2  0
  2 10  1  0
  3  4  1  0
  4  5  2  0
  5  6  1  0
  6  7  1  6
  6  8  1  0
  8  9  1  0
  8 10  2  0
M  END
