
     RDKit          3D

 44 48  0  0  0  0  0  0  0  0999 V2000
   11.1930    1.1480   -1.5660 N   0  0  0  0  0  0  0  0  0  0  0  0
   10.1840    0.1890   -1.2900 C   0  0  0  0  0  0  0  0  0  0  0  0
   10.3470   -0.9830   -1.7330 O   0  0  0  0  0  0  0  0  0  0  0  0
    9.0100    0.5620   -0.5220 C   0  0  0  0  0  0  0  0  0  0  0  0
    8.8710    1.8340   -0.0520 C   0  0  0  0  0  0  0  0  0  0  0  0
    7.7350    2.1550    0.6800 C   0  0  0  0  0  0  0  0  0  0  0  0
    6.7910    1.1730    0.9010 C   0  0  0  0  0  0  0  0  0  0  0  0
    6.9230   -0.0770    0.4410 N   0  0  0  0  0  0  0  0  0  0  0  0
    5.9380   -1.0710    0.6820 C   0  0  2  0  0  0  0  0  0  0  0  0
    5.2250   -1.4220   -0.4610 O   0  0  0  0  0  0  0  0  0  0  0  0
    4.0900   -2.0860   -0.0760 C   0  0  2  0  0  0  0  0  0  0  0  0
    2.8560   -1.6320   -0.8160 C   0  0  0  0  0  0  0  0  0  0  0  0
    1.7420   -2.3370   -0.3860 O   0  0  0  0  0  0  0  0  0  0  0  0
    0.3410   -1.8510   -1.1970 P   0  0  1  0  0  0  0  0  0  0  0  0
    0.4790   -2.3030   -2.6330 O   0  0  0  0  0  0  0  0  0  0  0  0
   -1.0000   -2.5910   -0.4950 O   0  0  0  0  0  0  0  0  0  0  0  0
    0.2450   -0.1660   -1.0840 O   0  0  0  0  0  0  0  0  0  0  0  0
   -0.8410    0.4820   -2.1930 P   0  0  1  0  0  0  0  0  0  0  0  0
   -0.0970    1.5480   -2.9920 O   0  0  0  0  0  0  0  0  0  0  0  0
   -1.3710   -0.6790   -3.3070 O   0  0  0  0  0  0  0  0  0  0  0  0
   -2.1460    1.2490   -1.4470 O   0  0  0  0  0  0  0  0  0  0  0  0
   -2.3930    0.7250   -0.1800 C   0  0  0  0  0  0  0  0  0  0  0  0
   -3.5500    1.3940    0.5000 C   0  0  1  0  0  0  0  0  0  0  0  0
   -4.7350    1.2820   -0.1830 O   0  0  0  0  0  0  0  0  0  0  0  0
   -5.7490    1.0630    0.7190 C   0  0  1  0  0  0  0  0  0  0  0  0
   -6.9110    0.4980    0.0930 N   0  0  0  0  0  0  0  0  0  0  0  0
   -6.9600   -0.4820   -0.8300 C   0  0  0  0  0  0  0  0  0  0  0  0
   -8.2460   -0.7270   -1.1660 N   0  0  0  0  0  0  0  0  0  0  0  0
   -9.0310    0.0980   -0.4570 C   0  0  0  0  0  0  0  0  0  0  0  0
  -10.4070    0.2380   -0.4390 C   0  0  0  0  0  0  0  0  0  0  0  0
  -11.2680   -0.5480   -1.2470 N   0  0  0  0  0  0  0  0  0  0  0  0
  -10.9040    1.1730    0.3970 N   0  0  0  0  0  0  0  0  0  0  0  0
  -10.0840    1.9290    1.1730 C   0  0  0  0  0  0  0  0  0  0  0  0
   -8.7470    1.7830    1.1470 N   0  0  0  0  0  0  0  0  0  0  0  0
   -8.1870    0.8570    0.3250 C   0  0  0  0  0  0  0  0  0  0  0  0
   -5.0930    0.0750    1.6820 C   0  0  2  0  0  0  0  0  0  0  0  0
   -5.7830   -0.0040    2.8850 O   0  0  0  0  0  0  0  0  0  0  0  0
   -3.7380    0.7340    1.8480 C   0  0  2  0  0  0  0  0  0  0  0  0
   -3.8560    1.6990    2.8720 O   0  0  0  0  0  0  0  0  0  0  0  0
    3.8490   -1.8070    1.3930 C   0  0  1  0  0  0  0  0  0  0  0  0
    4.3340   -2.8850    2.1130 O   0  0  0  0  0  0  0  0  0  0  0  0
    4.8340   -0.6460    1.6110 C   0  0  1  0  0  0  0  0  0  0  0  0
    5.2180   -0.5340    2.9240 O   0  0  0  0  0  0  0  0  0  0  0  0
    8.0230   -0.3850   -0.2660 C   0  0  0  0  0  0  0  0  0  0  0  0
  1  2  1  0
  2  3  2  0
  2  4  1  0
  4  5  2  0
  4 44  1  0
  5  6  1  0
  6  7  2  0
  7  8  1  0
  9  8  1  6
  8 44  2  0
  9 10  1  0
  9 42  1  0
 10 11  1  0
 11 12  1  6
 11 40  1  0
 12 13  1  0
 13 14  1  0
 14 15  2  0
 14 16  1  1
 14 17  1  0
 17 18  1  0
 18 19  2  0
 18 20  1  6
 18 21  1  0
 21 22  1  0
 23 22  1  6
 23 24  1  0
 23 38  1  0
 24 25  1  0
 25 26  1  6
 25 36  1  0
 26 27  1  0
 26 35  1  0
 27 28  2  0
 28 29  1  0
 29 30  2  0
 29 35  1  0
 30 31  1  0
 30 32  1  0
 32 33  2  0
 33 34  1  0
 34 35  2  0
 36 37  1  1
 36 38  1  0
 38 39  1  1
 40 41  1  1
 40 42  1  0
 42 43  1  1
M  CHG  2   8   1  16  -1
M  END
