
     RDKit          3D

 44 48  0  0  0  0  0  0  0  0999 V2000
    1.4480    0.0960   -1.3850 C   0  0  0  0  0  0  0  0  0  0  0  0
    2.6130   -0.0000   -0.5550 C   0  0  1  0  0  0  0  0  0  0  0  0
    2.9420    0.1280    0.8550 C   0  0  0  0  0  0  0  0  0  0  0  0
    4.3100   -0.1260    1.0560 O   0  0  0  0  0  0  0  0  0  0  0  0
    5.4700    0.3880    0.7210 C   0  0  0  0  0  0  0  0  0  0  0  0
    5.5350    1.4220    0.0170 O   0  0  0  0  0  0  0  0  0  0  0  0
    6.7270   -0.1620    1.1140 O   0  0  0  0  0  0  0  0  0  0  0  0
    3.1520   -1.3910   -0.8310 C   0  0  0  0  0  0  0  0  0  0  0  0
    2.4090   -2.2850    0.1890 C   0  0  0  0  0  0  0  0  0  0  0  0
    0.9980   -2.4700    0.0030 N   0  0  0  0  0  0  0  0  0  0  0  0
    0.6700   -3.3330   -1.0880 C   0  0  0  0  0  0  0  0  0  0  0  0
   -0.4360   -3.6720   -1.4930 O   0  0  0  0  0  0  0  0  0  0  0  0
    1.7550   -3.8810   -1.8100 O   0  0  0  0  0  0  0  0  0  0  0  0
   -0.1020   -1.9370    0.7670 C   0  0  2  0  0  0  0  0  0  0  0  0
    0.1510   -1.6810    2.2440 C   0  0  0  0  0  0  0  0  0  0  0  0
   -0.2880   -0.3390    2.7360 C   0  0  0  0  0  0  0  0  0  0  0  0
    0.6280    0.6840    2.8460 O   0  0  0  0  0  0  0  0  0  0  0  0
    0.5450    2.0210    2.4070 C   0  0  0  0  0  0  0  0  0  0  0  0
    1.2270    2.8790    3.0950 O   0  0  0  0  0  0  0  0  0  0  0  0
   -0.1930    2.5870    1.2990 C   0  0  0  0  0  0  0  0  0  0  0  0
   -0.0010    2.4910   -0.0230 C   0  0  0  0  0  0  0  0  0  0  0  0
    1.2090    2.5740   -0.7920 N   0  0  0  0  0  0  0  0  0  0  0  0
    2.5350    2.3230   -0.8390 C   0  0  0  0  0  0  0  0  0  0  0  0
    3.3190    3.3580   -0.6940 O   0  0  0  0  0  0  0  0  0  0  0  0
    3.3570    1.1540   -1.0250 O   0  0  0  0  0  0  0  0  0  0  0  0
   -1.3930    2.3570   -0.4810 C   0  0  2  0  0  0  0  0  0  0  0  0
   -1.8130    2.1100   -1.7900 C   0  0  0  0  0  0  0  0  0  0  0  0
   -1.2960    2.6520   -2.7960 O   0  0  0  0  0  0  0  0  0  0  0  0
   -2.8710    1.2120   -2.0730 O   0  0  0  0  0  0  0  0  0  0  0  0
   -3.1740    0.0710   -1.4000 C   0  0  1  0  0  0  0  0  0  0  0  0
   -3.7070    0.1680   -0.0060 C   0  0  0  0  0  0  0  0  0  0  0  0
   -4.3180   -0.6670   -2.1560 C   0  0  0  0  0  0  0  0  0  0  0  0
   -4.4990   -1.9130   -1.4710 O   0  0  0  0  0  0  0  0  0  0  0  0
   -3.6660   -2.4680   -0.5120 C   0  0  0  0  0  0  0  0  0  0  0  0
   -4.0340   -3.3160    0.3100 O   0  0  0  0  0  0  0  0  0  0  0  0
   -2.2540   -1.9710   -0.5250 N   0  0  0  0  0  0  0  0  0  0  0  0
   -1.4560   -2.5510    0.4990 C   0  0  0  0  0  0  0  0  0  0  0  0
   -2.1020   -1.0270   -1.5410 C   0  0  0  0  0  0  0  0  0  0  0  0
   -1.3720   -0.8280   -2.5090 O   0  0  0  0  0  0  0  0  0  0  0  0
   -2.0350    3.4990    0.2390 N   0  0  0  0  0  0  0  0  0  0  0  0
   -3.0060    4.3820    0.2330 C   0  0  0  0  0  0  0  0  0  0  0  0
   -3.1380    4.7680    1.5390 N   0  0  0  0  0  0  0  0  0  0  0  0
   -2.2360    4.1080    2.2870 N   0  0  0  0  0  0  0  0  0  0  0  0
   -1.5320    3.3060    1.4280 C   0  0  0  0  0  0  0  0  0  0  0  0
  2  1  1  1
  2  3  1  0
  2  8  1  0
  2 25  1  0
  3  4  1  0
  4  5  1  0
  5  6  2  0
  5  7  1  0
  8  9  1  0
  9 10  1  0
 10 11  1  0
 10 14  1  0
 11 12  2  0
 11 13  1  0
 14 15  1  0
 14 37  1  1
 15 16  1  0
 16 17  1  0
 17 18  1  0
 18 19  2  0
 18 20  1  0
 20 21  2  0
 20 44  1  0
 21 22  1  0
 21 26  1  0
 22 23  1  0
 23 24  2  0
 23 25  1  0
 26 27  1  0
 26 40  1  6
 27 28  2  0
 27 29  1  0
 29 30  1  0
 30 31  1  1
 30 32  1  0
 30 38  1  0
 32 33  1  0
 33 34  1  0
 34 35  2  0
 34 36  1  0
 36 37  1  0
 36 38  1  0
 38 39  2  0
 40 41  1  0
 40 44  1  0
 41 42  2  0
 42 43  1  0
 43 44  2  0
M  END
