
     RDKit          3D

 43 46  0  0  0  0  0  0  0  0999 V2000
    2.9430    6.7420   -0.2240 C   0  0  0  0  0  0  0  0  0  0  0  0
    1.4840    6.7590    0.1980 C   0  0  0  0  0  0  0  0  0  0  0  0
    0.7470    6.0840   -0.7960 O   0  0  0  0  0  0  0  0  0  0  0  0
    1.0350    4.7390   -1.0840 C   0  0  0  0  0  0  0  0  0  0  0  0
    1.9460    4.1970   -0.4340 O   0  0  0  0  0  0  0  0  0  0  0  0
    0.3770    4.0250   -2.0190 O   0  0  0  0  0  0  0  0  0  0  0  0
    0.3920    2.7730   -2.5080 C   0  0  0  0  0  0  0  0  0  0  0  0
   -0.0730    1.6320   -1.6730 C   0  0  1  0  0  0  0  0  0  0  0  0
    0.7170    1.3200   -0.4430 C   0  0  0  0  0  0  0  0  0  0  0  0
    2.1460    0.9740   -0.7400 C   0  0  0  0  0  0  0  0  0  0  0  0
    2.8880    0.6560    0.3720 O   0  0  0  0  0  0  0  0  0  0  0  0
    3.0320    1.6020    1.3300 C   0  0  0  0  0  0  0  0  0  0  0  0
    3.8350    1.1660    2.5310 C   0  0  0  0  0  0  0  0  0  0  0  0
    5.1290    0.7790    2.3020 O   0  0  0  0  0  0  0  0  0  0  0  0
    5.5570   -0.3010    1.5440 C   0  0  0  0  0  0  0  0  0  0  0  0
    4.6860   -1.0050    1.0180 O   0  0  0  0  0  0  0  0  0  0  0  0
    6.9400   -0.5720    1.3880 N   0  0  0  0  0  0  0  0  0  0  0  0
    7.4600   -1.6610    0.6440 C   0  0  0  0  0  0  0  0  0  0  0  0
    7.0960   -2.9970    1.2110 C   0  0  0  0  0  0  0  0  0  0  0  0
    5.7530   -3.1930    1.2510 O   0  0  0  0  0  0  0  0  0  0  0  0
   -1.5370    1.7130   -1.3480 C   0  0  0  0  0  0  0  0  0  0  0  0
   -1.9560    0.2830   -1.4820 N   0  0  0  0  0  0  0  0  0  0  0  0
   -2.8320   -0.3970   -0.6500 C   0  0  0  0  0  0  0  0  0  0  0  0
   -3.3590    0.3690    0.2640 O   0  0  0  0  0  0  0  0  0  0  0  0
   -3.2110   -1.7520   -0.6600 N   0  0  0  0  0  0  0  0  0  0  0  0
   -2.6860   -2.7410   -1.5760 C   0  0  0  0  0  0  0  0  0  0  0  0
   -2.7040   -4.1570   -1.0980 C   0  0  0  0  0  0  0  0  0  0  0  0
   -3.6910   -4.4770   -0.2020 O   0  0  0  0  0  0  0  0  0  0  0  0
   -3.6430   -3.5500    0.8660 C   0  0  0  0  0  0  0  0  0  0  0  0
   -4.2220   -2.2690    0.2660 C   0  0  1  0  0  0  0  0  0  0  0  0
   -4.6010   -1.3470    1.3670 C   0  0  0  0  0  0  0  0  0  0  0  0
   -5.3190   -2.0950    2.3750 O   0  0  0  0  0  0  0  0  0  0  0  0
   -6.5280   -2.7320    2.3720 C   0  0  0  0  0  0  0  0  0  0  0  0
   -7.4040   -2.9570    3.4100 C   0  0  0  0  0  0  0  0  0  0  0  0
   -8.4350   -3.6090    2.9280 O   0  0  0  0  0  0  0  0  0  0  0  0
   -8.3010   -3.8280    1.6570 N   0  0  0  0  0  0  0  0  0  0  0  0
   -7.1320   -3.3050    1.2530 C   0  0  0  0  0  0  0  0  0  0  0  0
   -6.5970   -3.3250   -0.0720 N   0  0  0  0  0  0  0  0  0  0  0  0
   -5.4290   -2.6610   -0.5170 C   0  0  0  0  0  0  0  0  0  0  0  0
   -5.4280   -2.3670   -1.7550 O   0  0  0  0  0  0  0  0  0  0  0  0
   -1.2740   -0.0950   -2.6630 C   0  0  0  0  0  0  0  0  0  0  0  0
   -1.6790   -0.7760   -3.6320 O   0  0  0  0  0  0  0  0  0  0  0  0
    0.0250    0.4570   -2.5800 N   0  0  0  0  0  0  0  0  0  0  0  0
  1  2  1  0
  2  3  1  0
  3  4  1  0
  4  5  2  0
  4  6  1  0
  6  7  1  0
  8  7  1  6
  8  9  1  0
  8 21  1  0
  8 43  1  0
  9 10  1  0
 10 11  1  0
 11 12  1  0
 12 13  1  0
 13 14  1  0
 14 15  1  0
 15 16  2  0
 15 17  1  0
 17 18  1  0
 18 19  1  0
 19 20  1  0
 21 22  1  0
 22 23  1  0
 22 41  1  0
 23 24  2  0
 23 25  1  0
 25 26  1  0
 25 30  1  0
 26 27  1  0
 27 28  1  0
 28 29  1  0
 30 29  1  1
 30 31  1  0
 30 39  1  0
 31 32  1  0
 32 33  1  0
 33 34  2  0
 33 37  1  0
 34 35  1  0
 35 36  1  0
 36 37  2  0
 37 38  1  0
 38 39  1  0
 39 40  2  0
 41 42  2  0
 41 43  1  0
M  END
