
     RDKit          3D

 43 45  0  0  0  0  0  0  0  0999 V2000
    7.6140   -0.1180   -0.1950 C   0  0  0  0  0  0  0  0  0  0  0  0
    7.0970    0.3490    1.1580 C   0  0  0  0  0  0  0  0  0  0  0  0
    5.6760    0.1280    1.2460 N   0  0  0  0  0  0  0  0  0  0  0  0
    5.0370   -1.0750    1.7430 C   0  0  0  0  0  0  0  0  0  0  0  0
    3.5630   -0.8180    1.6840 C   0  0  0  0  0  0  0  0  0  0  0  0
    3.3860    0.3260    0.8110 N   0  0  0  0  0  0  0  0  0  0  0  0
    2.2780    0.6900    0.0710 O   0  0  0  0  0  0  0  0  0  0  0  0
    1.0500    0.1070    0.2110 C   0  0  0  0  0  0  0  0  0  0  0  0
    0.9390   -0.8060    1.0590 O   0  0  0  0  0  0  0  0  0  0  0  0
   -0.1210    0.4750   -0.5520 N   0  0  0  0  0  0  0  0  0  0  0  0
    0.1000    1.5240   -1.5100 C   0  0  0  0  0  0  0  0  0  0  0  0
   -1.0880    2.1960   -2.0890 C   0  0  0  0  0  0  0  0  0  0  0  0
   -2.3280    1.5010   -1.8040 N   0  0  0  0  0  0  0  0  0  0  0  0
   -2.3430    0.1790   -1.3230 C   0  0  0  0  0  0  0  0  0  0  0  0
   -3.1900   -0.6400   -1.7830 O   0  0  0  0  0  0  0  0  0  0  0  0
   -1.3410   -0.2000   -0.2790 C   0  0  1  0  0  0  0  0  0  0  0  0
   -1.0860   -1.6970   -0.4090 C   0  0  0  0  0  0  0  0  0  0  0  0
   -1.9690   -2.3950    0.1440 O   0  0  0  0  0  0  0  0  0  0  0  0
    0.0160   -2.2080   -1.0780 N   0  0  0  0  0  0  0  0  0  0  0  0
    0.2610   -3.6060   -1.1840 C   0  0  0  0  0  0  0  0  0  0  0  0
    1.0900   -4.0900   -2.1900 C   0  0  0  0  0  0  0  0  0  0  0  0
    1.3560   -5.4140   -2.2870 C   0  0  0  0  0  0  0  0  0  0  0  0
    0.8310   -6.3370   -1.4100 C   0  0  0  0  0  0  0  0  0  0  0  0
    0.0100   -5.8940   -0.4060 C   0  0  0  0  0  0  0  0  0  0  0  0
   -0.2530   -4.5280   -0.3210 C   0  0  0  0  0  0  0  0  0  0  0  0
   -1.8710    0.0110    1.0940 C   0  0  2  0  0  0  0  0  0  0  0  0
   -3.1400   -0.7130    1.2860 C   0  0  0  0  0  0  0  0  0  0  0  0
   -3.2390   -1.5720    2.2210 O   0  0  0  0  0  0  0  0  0  0  0  0
   -4.2840   -0.5480    0.5270 O   0  0  0  0  0  0  0  0  0  0  0  0
   -5.4680   -1.2780    0.7700 C   0  0  0  0  0  0  0  0  0  0  0  0
   -2.1340    1.4290    1.4240 C   0  0  0  0  0  0  0  0  0  0  0  0
   -1.4740    1.9560    2.3420 O   0  0  0  0  0  0  0  0  0  0  0  0
   -3.0730    2.1680    0.7540 O   0  0  0  0  0  0  0  0  0  0  0  0
   -3.2870    3.4910    1.0950 C   0  0  0  0  0  0  0  0  0  0  0  0
   -2.6380    4.0480    2.0100 O   0  0  0  0  0  0  0  0  0  0  0  0
   -4.2960    4.2490    0.3670 C   0  0  0  0  0  0  0  0  0  0  0  0
   -4.9710    3.7120   -0.5660 O   0  0  0  0  0  0  0  0  0  0  0  0
   -4.5810    5.6200    0.6560 N   0  0  0  0  0  0  0  0  0  0  0  0
   -5.5720    6.3360   -0.0660 C   0  0  0  0  0  0  0  0  0  0  0  0
   -6.1870    5.7150   -0.9710 O   0  0  0  0  0  0  0  0  0  0  0  0
   -5.8550    7.6720    0.2130 O   0  0  0  0  0  0  0  0  0  0  0  0
    4.6450    1.0340    0.8710 C   0  0  0  0  0  0  0  0  0  0  0  0
    4.7660    2.2710    0.6190 O   0  0  0  0  0  0  0  0  0  0  0  0
  1  2  1  0
  2  3  1  0
  3  4  1  0
  3 42  1  0
  4  5  1  0
  5  6  1  0
  6  7  1  0
  6 42  1  0
  7  8  1  0
  8  9  2  0
  8 10  1  0
 10 11  1  0
 10 16  1  0
 11 12  1  0
 12 13  1  0
 13 14  1  0
 14 15  2  0
 14 16  1  0
 16 17  1  1
 16 26  1  0
 17 18  2  0
 17 19  1  0
 19 20  1  0
 20 21  2  0
 20 25  1  0
 21 22  1  0
 22 23  2  0
 23 24  1  0
 24 25  2  0
 26 27  1  6
 26 31  1  0
 27 28  2  0
 27 29  1  0
 29 30  1  0
 31 32  2  0
 31 33  1  0
 33 34  1  0
 34 35  2  0
 34 36  1  0
 36 37  2  0
 36 38  1  0
 38 39  1  0
 39 40  2  0
 39 41  1  0
 42 43  2  0
M  END
