
     RDKit          3D

 43 45  0  0  0  0  0  0  0  0999 V2000
    5.2940    2.3150   -0.2140 C   0  0  0  0  0  0  0  0  0  0  0  0
    4.0040    2.0280   -1.0210 C   0  0  1  0  0  0  0  0  0  0  0  0
    4.4570    1.4760   -2.3340 C   0  0  0  0  0  0  0  0  0  0  0  0
    3.2780    1.1450   -0.2300 O   0  0  0  0  0  0  0  0  0  0  0  0
    2.0100    0.5970   -0.6260 C   0  0  0  0  0  0  0  0  0  0  0  0
    1.6600    1.0050   -1.7400 O   0  0  0  0  0  0  0  0  0  0  0  0
    1.3440   -0.3130    0.2740 C   0  0  2  0  0  0  0  0  0  0  0  0
    2.2940   -1.5300    0.4760 C   0  0  0  0  0  0  0  0  0  0  0  0
    2.0110   -2.2140    1.7700 C   0  0  0  0  0  0  0  0  0  0  0  0
    0.6900   -1.9950    2.2440 N   0  0  0  0  0  0  0  0  0  0  0  0
   -0.3750   -1.4560    1.4410 C   0  0  0  0  0  0  0  0  0  0  0  0
    0.0170   -0.8500    0.0810 C   0  0  2  0  0  0  0  0  0  0  0  0
   -0.0850   -1.9260   -0.9580 C   0  0  0  0  0  0  0  0  0  0  0  0
   -0.1630   -3.1140   -0.5640 O   0  0  0  0  0  0  0  0  0  0  0  0
   -0.0970   -1.6860   -2.3440 N   0  0  0  0  0  0  0  0  0  0  0  0
   -0.1900   -2.7890   -3.3080 C   0  0  0  0  0  0  0  0  0  0  0  0
    0.9720   -3.7350   -3.1570 C   0  0  0  0  0  0  0  0  0  0  0  0
    2.1660   -3.0530   -3.3760 O   0  0  0  0  0  0  0  0  0  0  0  0
   -1.0980    0.1050   -0.1780 C   0  0  0  0  0  0  0  0  0  0  0  0
   -0.7370    1.2550   -0.9900 N   0  0  0  0  0  0  0  0  0  0  0  0
   -0.9920    2.4590   -0.6980 C   0  0  0  0  0  0  0  0  0  0  0  0
   -0.5390    3.4050   -1.6550 O   0  0  0  0  0  0  0  0  0  0  0  0
   -1.6910    2.9750    0.4990 C   0  0  0  0  0  0  0  0  0  0  0  0
   -2.9330    3.6340    0.0890 N   0  0  0  0  0  0  0  0  0  0  0  0
   -3.8120    4.2240    1.0180 C   0  0  0  0  0  0  0  0  0  0  0  0
   -3.5300    4.1870    2.2350 O   0  0  0  0  0  0  0  0  0  0  0  0
   -5.0010    4.8570    0.6580 O   0  0  0  0  0  0  0  0  0  0  0  0
   -2.2880    0.0800    0.1780 N   0  0  0  0  0  0  0  0  0  0  0  0
   -3.2130   -0.6530    0.8890 C   0  0  0  0  0  0  0  0  0  0  0  0
   -4.4650   -1.0030    0.3410 C   0  0  0  0  0  0  0  0  0  0  0  0
   -5.3930   -1.7470    1.0250 C   0  0  0  0  0  0  0  0  0  0  0  0
   -5.0660   -2.1710    2.3220 C   0  0  0  0  0  0  0  0  0  0  0  0
   -3.8400   -1.8210    2.8430 C   0  0  0  0  0  0  0  0  0  0  0  0
   -3.0400   -1.1140    2.1140 N   0  0  0  0  0  0  0  0  0  0  0  0
   -3.4190   -2.3130    4.1930 C   0  0  0  0  0  0  0  0  0  0  0  0
   -4.3530   -2.3850    5.0100 O   0  0  0  0  0  0  0  0  0  0  0  0
   -2.0920   -2.6250    4.3860 O   0  0  0  0  0  0  0  0  0  0  0  0
   -0.9650   -2.0530    4.0990 O   0  0  0  0  0  0  0  0  0  0  0  0
    0.2420   -2.2860    3.5990 C   0  0  0  0  0  0  0  0  0  0  0  0
    1.1650   -2.8190    4.3220 O   0  0  0  0  0  0  0  0  0  0  0  0
    3.3630    3.3560   -1.1570 C   0  0  0  0  0  0  0  0  0  0  0  0
    2.3010    3.5800   -0.5530 O   0  0  0  0  0  0  0  0  0  0  0  0
    3.9600    4.3080   -1.9500 O   0  0  0  0  0  0  0  0  0  0  0  0
  2  1  1  1
  2  3  1  0
  2  4  1  0
  2 41  1  0
  4  5  1  0
  5  6  2  0
  7  5  1  6
  7  8  1  0
  7 12  1  0
  8  9  1  0
  9 10  1  0
 10 11  1  0
 10 39  1  0
 11 12  1  0
 12 13  1  6
 12 19  1  0
 13 14  2  0
 13 15  1  0
 15 16  1  0
 16 17  1  0
 17 18  1  0
 19 20  1  0
 19 28  2  0
 20 21  2  3
 21 22  1  0
 21 23  1  0
 23 24  1  0
 24 25  1  0
 25 26  2  0
 25 27  1  0
 28 29  1  0
 29 30  2  0
 29 34  1  0
 30 31  1  0
 31 32  2  0
 32 33  1  0
 33 34  2  0
 33 35  1  0
 35 36  2  0
 35 37  1  0
 37 38  1  0
 38 39  1  0
 39 40  2  0
 41 42  2  0
 41 43  1  0
M  END
