
     RDKit          3D

 28 32  0  0  0  0  0  0  0  0999 V2000
   -7.0920    2.4440    0.3340 C   0  0  0  0  0  0  0  0  0  0  0  0
   -7.2590    0.9410    0.2860 C   0  0  0  0  0  0  0  0  0  0  0  0
   -5.9430    0.2780    0.2890 C   0  0  0  0  0  0  0  0  0  0  0  0
   -4.7880    1.0190    0.3310 C   0  0  0  0  0  0  0  0  0  0  0  0
   -3.5230    0.4120    0.3350 C   0  0  0  0  0  0  0  0  0  0  0  0
   -3.4780   -0.9510    0.2960 C   0  0  0  0  0  0  0  0  0  0  0  0
   -2.2810   -1.6630    0.2580 N   0  0  0  0  0  0  0  0  0  0  0  0
   -1.0180   -1.0340    0.5140 C   0  0  0  0  0  0  0  0  0  0  0  0
   -0.8510   -0.1330    1.5230 C   0  0  0  0  0  0  0  0  0  0  0  0
    0.3660    0.4880    1.7350 C   0  0  0  0  0  0  0  0  0  0  0  0
    1.4230    0.1700    0.8890 C   0  0  0  0  0  0  0  0  0  0  0  0
    1.2760   -0.7380   -0.1350 C   0  0  0  0  0  0  0  0  0  0  0  0
    0.0580   -1.3320   -0.3150 C   0  0  0  0  0  0  0  0  0  0  0  0
    2.3910   -1.0240   -0.9660 N   0  0  0  0  0  0  0  0  0  0  0  0
    3.6720   -0.4020   -0.7820 C   0  0  0  0  0  0  0  0  0  0  0  0
    4.6850   -0.6960   -1.5770 C   0  0  0  0  0  0  0  0  0  0  0  0
    5.9960   -0.0900   -1.4250 C   0  0  0  0  0  0  0  0  0  0  0  0
    7.1550   -0.2100   -2.0760 C   0  0  0  0  0  0  0  0  0  0  0  0
    8.1780    0.6650   -1.4740 C   0  0  0  0  0  0  0  0  0  0  0  0
    7.4430    1.3120   -0.3760 C   0  0  0  0  0  0  0  0  0  0  0  0
    6.1570    0.8630   -0.3520 C   0  0  0  0  0  0  0  0  0  0  0  0
    5.0520    1.2050    0.5420 C   0  0  0  0  0  0  0  0  0  0  0  0
    3.8300    0.5190    0.2540 N   0  0  0  0  0  0  0  0  0  0  0  0
    2.6840    0.8160    1.1120 C   0  0  0  0  0  0  0  0  0  0  0  0
    2.8330    1.6550    2.0530 O   0  0  0  0  0  0  0  0  0  0  0  0
   -4.6660   -1.7010    0.2530 C   0  0  0  0  0  0  0  0  0  0  0  0
   -4.5790   -3.1810    0.2110 C   0  0  0  0  0  0  0  0  0  0  0  0
   -5.8240   -1.0650    0.2510 N   0  0  0  0  0  0  0  0  0  0  0  0
  1  2  1  0
  2  3  1  0
  3  4  2  0
  3 28  1  0
  4  5  1  0
  5  6  2  0
  6  7  1  0
  6 26  1  0
  7  8  1  0
  8  9  2  0
  8 13  1  0
  9 10  1  0
 10 11  2  0
 11 12  1  0
 11 24  1  0
 12 13  2  0
 12 14  1  0
 14 15  1  0
 15 16  2  0
 15 23  1  0
 16 17  1  0
 17 18  2  0
 17 21  1  0
 18 19  1  0
 19 20  1  0
 20 21  2  0
 21 22  1  0
 22 23  1  0
 23 24  1  0
 24 25  2  0
 26 27  1  0
 26 28  2  0
M  END
