
     RDKit          3D

 28 32  0  0  0  0  0  0  0  0999 V2000
   -4.7700    1.0760    4.2200 O   0  0  0  0  0  0  0  0  0  0  0  0
   -3.8650    0.5020    3.5610 C   0  0  0  0  0  0  0  0  0  0  0  0
   -3.4130   -0.7530    3.6970 N   0  0  0  0  0  0  0  0  0  0  0  0
   -2.4260   -1.0080    2.8000 C   0  0  0  0  0  0  0  0  0  0  0  0
   -1.6490   -2.1080    2.5270 C   0  0  0  0  0  0  0  0  0  0  0  0
   -0.6950   -2.0860    1.5320 C   0  0  0  0  0  0  0  0  0  0  0  0
   -0.5460   -0.9060    0.8130 C   0  0  0  0  0  0  0  0  0  0  0  0
    0.4850   -0.8730   -0.2400 C   0  0  0  0  0  0  0  0  0  0  0  0
    0.3800   -0.1310   -1.3910 C   0  0  0  0  0  0  0  0  0  0  0  0
    1.4060   -0.1380   -2.3400 C   0  0  0  0  0  0  0  0  0  0  0  0
    2.5560   -0.8840   -2.1630 C   0  0  0  0  0  0  0  0  0  0  0  0
    3.5960   -0.8470   -3.2020 C   0  0  0  0  0  0  0  0  0  0  0  0
    3.4620   -1.9060   -4.1770 N   0  0  0  0  0  0  0  0  0  0  0  0
    4.0460   -3.1140   -4.0520 C   0  0  0  0  0  0  0  0  0  0  0  0
    3.7050   -3.8690   -5.1660 C   0  0  0  0  0  0  0  0  0  0  0  0
    2.9000   -3.0990   -5.9780 C   0  0  0  0  0  0  0  0  0  0  0  0
    2.7750   -1.8770   -5.3160 C   0  0  0  0  0  0  0  0  0  0  0  0
    2.6560   -1.6250   -1.0080 C   0  0  0  0  0  0  0  0  0  0  0  0
    1.6470   -1.6180   -0.0740 C   0  0  0  0  0  0  0  0  0  0  0  0
   -1.3260    0.1890    1.0910 C   0  0  0  0  0  0  0  0  0  0  0  0
   -2.2840    0.1760    2.0850 C   0  0  0  0  0  0  0  0  0  0  0  0
   -3.1620    1.0850    2.5560 N   0  0  0  0  0  0  0  0  0  0  0  0
   -3.3430    2.4450    2.0960 C   0  0  0  0  0  0  0  0  0  0  0  0
   -2.5010    3.4250    2.8130 C   0  0  0  0  0  0  0  0  0  0  0  0
   -1.2480    3.9040    2.4990 C   0  0  0  0  0  0  0  0  0  0  0  0
   -0.8470    4.8020    3.4500 C   0  0  0  0  0  0  0  0  0  0  0  0
   -1.8250    4.8940    4.3530 N   0  0  0  0  0  0  0  0  0  0  0  0
   -2.8450    4.0640    3.9870 C   0  0  0  0  0  0  0  0  0  0  0  0
  1  2  2  0
  2  3  1  0
  2 22  1  0
  3  4  1  0
  4  5  2  0
  4 21  1  0
  5  6  1  0
  6  7  2  0
  7  8  1  0
  7 20  1  0
  8  9  2  0
  8 19  1  0
  9 10  1  0
 10 11  2  0
 11 12  1  0
 11 18  1  0
 12 13  1  0
 13 14  1  0
 13 17  1  0
 14 15  2  0
 15 16  1  0
 16 17  2  0
 18 19  2  0
 20 21  2  0
 21 22  1  0
 22 23  1  0
 23 24  1  0
 24 25  1  0
 24 28  2  0
 25 26  2  0
 26 27  1  0
 27 28  1  0
M  END
