
     RDKit          3D

 28 32  0  0  0  0  0  0  0  0999 V2000
    8.8790    0.7050    1.0820 C   0  0  0  0  0  0  0  0  0  0  0  0
    9.1990    0.0090    0.0020 C   0  0  0  0  0  0  0  0  0  0  0  0
    8.1910   -0.5570   -0.9020 C   0  0  0  0  0  0  0  0  0  0  0  0
    6.8670   -0.2400   -0.4250 N   0  0  0  0  0  0  0  0  0  0  0  0
    5.9300   -0.8160   -1.3710 C   0  0  0  0  0  0  0  0  0  0  0  0
    4.5380   -0.5020   -0.8930 C   0  0  0  0  0  0  0  0  0  0  0  0
    4.1800    0.1520    0.2300 N   0  0  0  0  0  0  0  0  0  0  0  0
    2.8430    0.2330    0.3040 C   0  0  0  0  0  0  0  0  0  0  0  0
    1.9340    0.7700    1.1940 C   0  0  0  0  0  0  0  0  0  0  0  0
    0.5680    0.6840    0.9740 C   0  0  0  0  0  0  0  0  0  0  0  0
    0.1110    0.0480   -0.1610 C   0  0  0  0  0  0  0  0  0  0  0  0
   -1.3140   -0.0680   -0.4380 C   0  0  0  0  0  0  0  0  0  0  0  0
   -2.3230    0.4080    0.3500 C   0  0  0  0  0  0  0  0  0  0  0  0
   -3.5810    0.1190   -0.2200 C   0  0  0  0  0  0  0  0  0  0  0  0
   -4.8270    0.4630    0.4280 C   0  0  0  0  0  0  0  0  0  0  0  0
   -4.7550    1.4020    1.4640 C   0  0  0  0  0  0  0  0  0  0  0  0
   -5.8770    1.7870    2.1580 C   0  0  0  0  0  0  0  0  0  0  0  0
   -7.0890    1.2320    1.8200 C   0  0  0  0  0  0  0  0  0  0  0  0
   -7.2170    0.3050    0.8130 C   0  0  0  0  0  0  0  0  0  0  0  0
   -6.0620   -0.0720    0.1190 C   0  0  0  0  0  0  0  0  0  0  0  0
   -6.3930   -0.9950   -0.7700 C   0  0  0  0  0  0  0  0  0  0  0  0
   -7.8630   -1.2170   -0.7200 C   0  0  0  0  0  0  0  0  0  0  0  0
   -8.2710   -0.3280    0.3740 C   0  0  0  0  0  0  0  0  0  0  0  0
   -3.2550   -0.5240   -1.3380 N   0  0  0  0  0  0  0  0  0  0  0  0
   -1.9160   -0.6410   -1.4760 N   0  0  0  0  0  0  0  0  0  0  0  0
    1.0110   -0.4850   -1.0460 C   0  0  0  0  0  0  0  0  0  0  0  0
    2.3650   -0.4000   -0.8270 C   0  0  0  0  0  0  0  0  0  0  0  0
    3.4270   -0.8210   -1.5080 O   0  0  0  0  0  0  0  0  0  0  0  0
  1  2  2  0
  2  3  1  0
  3  4  1  0
  4  5  1  0
  5  6  1  0
  6  7  2  0
  6 28  1  0
  7  8  1  0
  8  9  2  0
  8 27  1  0
  9 10  1  0
 10 11  2  0
 11 12  1  0
 11 26  1  0
 12 13  1  0
 12 25  2  0
 13 14  2  0
 14 15  1  0
 14 24  1  0
 15 16  2  0
 15 20  1  0
 16 17  1  0
 17 18  2  0
 18 19  1  0
 19 20  1  0
 19 23  2  0
 20 21  2  0
 21 22  1  0
 22 23  1  0
 24 25  1  0
 26 27  2  0
 27 28  1  0
M  END
