
     RDKit          3D

 28 31  0  0  0  0  0  0  0  0999 V2000
   -1.1910   -0.7280   -3.0410 C   0  0  0  0  0  0  0  0  0  0  0  0
    0.0550   -0.5510   -2.2760 C   0  0  0  0  0  0  0  0  0  0  0  0
    1.1400   -1.2170   -2.6660 C   0  0  0  0  0  0  0  0  0  0  0  0
    2.4090   -1.1050   -1.9750 C   0  0  0  0  0  0  0  0  0  0  0  0
    2.5980   -0.3420   -0.9110 C   0  0  0  0  0  0  0  0  0  0  0  0
    3.9100   -0.2690   -0.2520 C   0  0  0  0  0  0  0  0  0  0  0  0
    4.9910   -0.9500   -0.6640 N   0  0  0  0  0  0  0  0  0  0  0  0
    6.0430   -0.6930    0.1210 C   0  0  0  0  0  0  0  0  0  0  0  0
    7.3710   -1.1270    0.1350 C   0  0  0  0  0  0  0  0  0  0  0  0
    8.2250   -0.6570    1.1100 C   0  0  0  0  0  0  0  0  0  0  0  0
    7.7880    0.2310    2.0670 C   0  0  0  0  0  0  0  0  0  0  0  0
    6.4710    0.6540    2.0440 C   0  0  0  0  0  0  0  0  0  0  0  0
    5.5840    0.2050    1.0810 C   0  0  0  0  0  0  0  0  0  0  0  0
    4.2830    0.4390    0.8220 N   0  0  0  0  0  0  0  0  0  0  0  0
    1.4440    0.4040   -0.4490 C   0  0  0  0  0  0  0  0  0  0  0  0
    1.5620    1.1390    0.5480 O   0  0  0  0  0  0  0  0  0  0  0  0
    0.1210    0.3250   -1.1210 C   0  0  0  0  0  0  0  0  0  0  0  0
   -0.8680    1.0340   -0.6460 C   0  0  0  0  0  0  0  0  0  0  0  0
   -2.1630    1.1010   -1.1320 N   0  0  0  0  0  0  0  0  0  0  0  0
   -3.3630    0.7690   -0.4390 C   0  0  0  0  0  0  0  0  0  0  0  0
   -3.4480   -0.1700    0.4810 C   0  0  0  0  0  0  0  0  0  0  0  0
   -2.2320   -0.9530    0.8450 C   0  0  0  0  0  0  0  0  0  0  0  0
   -4.6550   -0.4870    1.1680 N   0  0  0  0  0  0  0  0  0  0  0  0
   -4.6340   -1.5510    2.1840 C   0  0  0  0  0  0  0  0  0  0  0  0
   -5.8740    0.2220    0.8720 C   0  0  0  0  0  0  0  0  0  0  0  0
   -5.7290    1.2630   -0.1650 C   0  0  0  0  0  0  0  0  0  0  0  0
   -4.5900    1.5260   -0.7740 C   0  0  0  0  0  0  0  0  0  0  0  0
   -4.4930    2.5910   -1.8180 C   0  0  0  0  0  0  0  0  0  0  0  0
  1  2  1  0
  2  3  2  0
  2 17  1  0
  3  4  1  0
  4  5  2  0
  5  6  1  0
  5 15  1  0
  6  7  2  0
  6 14  1  0
  7  8  1  0
  8  9  2  0
  8 13  1  0
  9 10  1  0
 10 11  2  0
 11 12  1  0
 12 13  2  0
 13 14  1  0
 15 16  2  0
 15 17  1  0
 17 18  2  3
 18 19  1  0
 19 20  1  0
 20 21  2  0
 20 27  1  0
 21 22  1  0
 21 23  1  0
 23 24  1  0
 23 25  1  0
 25 26  1  0
 26 27  2  0
 27 28  1  0
M  END
