
     RDKit          3D

 28 32  0  0  0  0  0  0  0  0999 V2000
    3.2300   -4.4510   -1.1970 C   0  0  0  0  0  0  0  0  0  0  0  0
    2.4740   -3.3660   -1.9390 C   0  0  0  0  0  0  0  0  0  0  0  0
    2.0420   -2.2770   -1.0240 C   0  0  0  0  0  0  0  0  0  0  0  0
    0.8840   -2.2660   -0.3850 N   0  0  0  0  0  0  0  0  0  0  0  0
    0.4870   -1.2520    0.4650 C   0  0  0  0  0  0  0  0  0  0  0  0
   -0.6260   -1.3240    1.0290 N   0  0  0  0  0  0  0  0  0  0  0  0
   -1.3850   -0.6680    1.8530 O   0  0  0  0  0  0  0  0  0  0  0  0
   -2.7620   -0.4720    1.8660 C   0  0  0  0  0  0  0  0  0  0  0  0
   -3.2580    0.2130    0.6450 C   0  0  0  0  0  0  0  0  0  0  0  0
   -2.5920    0.6700   -0.4640 C   0  0  0  0  0  0  0  0  0  0  0  0
   -3.4890    1.2310   -1.3220 N   0  0  0  0  0  0  0  0  0  0  0  0
   -4.7300    1.1490   -0.7940 C   0  0  0  0  0  0  0  0  0  0  0  0
   -5.9470    1.5690   -1.2760 C   0  0  0  0  0  0  0  0  0  0  0  0
   -7.0630    1.3480   -0.5050 C   0  0  0  0  0  0  0  0  0  0  0  0
   -6.9490    0.7180    0.7200 C   0  0  0  0  0  0  0  0  0  0  0  0
   -5.7210    0.3020    1.1920 C   0  0  0  0  0  0  0  0  0  0  0  0
   -4.5910    0.5130    0.4370 C   0  0  0  0  0  0  0  0  0  0  0  0
    1.3910   -0.2220    0.6130 C   0  0  0  0  0  0  0  0  0  0  0  0
    1.0930    0.8330    1.4350 C   0  0  0  0  0  0  0  0  0  0  0  0
    1.9910    1.8760    1.5960 C   0  0  0  0  0  0  0  0  0  0  0  0
    3.2000    1.9000    0.9520 C   0  0  0  0  0  0  0  0  0  0  0  0
    4.0850    2.9590    1.1300 C   0  0  0  0  0  0  0  0  0  0  0  0
    5.2950    2.9670    0.4730 C   0  0  0  0  0  0  0  0  0  0  0  0
    5.6050    1.9070   -0.3590 C   0  0  0  0  0  0  0  0  0  0  0  0
    4.7260    0.8370   -0.5470 C   0  0  0  0  0  0  0  0  0  0  0  0
    3.5210    0.8450    0.1160 C   0  0  0  0  0  0  0  0  0  0  0  0
    2.6330   -0.1960   -0.0490 C   0  0  0  0  0  0  0  0  0  0  0  0
    2.9130   -1.2320   -0.8480 N   0  0  0  0  0  0  0  0  0  0  0  0
  1  2  1  0
  2  3  1  0
  3  4  2  0
  3 28  1  0
  4  5  1  0
  5  6  2  3
  5 18  1  0
  6  7  1  0
  7  8  1  0
  8  9  1  0
  9 10  2  0
  9 17  1  0
 10 11  1  0
 11 12  1  0
 12 13  2  0
 12 17  1  0
 13 14  1  0
 14 15  2  0
 15 16  1  0
 16 17  2  0
 18 19  2  0
 18 27  1  0
 19 20  1  0
 20 21  2  0
 21 22  1  0
 21 26  1  0
 22 23  2  0
 23 24  1  0
 24 25  2  0
 25 26  1  0
 26 27  2  0
 27 28  1  0
M  END
