
     RDKit          3D

 28 31  0  0  0  0  0  0  0  0999 V2000
   -1.7320   -2.0650   -2.0100 C   0  0  0  0  0  0  0  0  0  0  0  0
   -2.9700   -2.0120   -2.3030 C   0  0  0  0  0  0  0  0  0  0  0  0
   -3.9340   -1.0370   -1.8950 C   0  0  0  0  0  0  0  0  0  0  0  0
   -5.1890   -1.1800   -2.3760 C   0  0  0  0  0  0  0  0  0  0  0  0
   -6.4160   -0.3590   -2.1630 C   0  0  0  0  0  0  0  0  0  0  0  0
   -6.0830    1.0980   -2.4040 C   0  0  0  0  0  0  0  0  0  0  0  0
   -5.0720    1.8020   -1.8930 C   0  0  0  0  0  0  0  0  0  0  0  0
   -4.1000    1.2480   -0.9900 N   0  0  0  0  0  0  0  0  0  0  0  0
   -3.5890    0.0280   -0.9620 C   0  0  0  0  0  0  0  0  0  0  0  0
   -2.6940   -0.2620    0.0840 N   0  0  0  0  0  0  0  0  0  0  0  0
   -2.8890   -1.4220    0.9260 C   0  0  0  0  0  0  0  0  0  0  0  0
   -2.7380   -0.8690    2.3640 C   0  0  0  0  0  0  0  0  0  0  0  0
   -1.3100   -0.4700    2.6160 C   0  0  0  0  0  0  0  0  0  0  0  0
   -0.6090   -0.2180    1.3220 C   0  0  2  0  0  0  0  0  0  0  0  0
    0.6290    0.5930    1.4690 C   0  0  0  0  0  0  0  0  0  0  0  0
    1.7850    0.1310    0.8420 C   0  0  0  0  0  0  0  0  0  0  0  0
    2.9830    0.7820    0.9190 C   0  0  0  0  0  0  0  0  0  0  0  0
    4.1710    0.3500    0.2960 N   0  0  0  0  0  0  0  0  0  0  0  0
    5.4060    1.0690    0.4880 C   0  0  0  0  0  0  0  0  0  0  0  0
    6.5080    0.4380   -0.2840 C   0  0  0  0  0  0  0  0  0  0  0  0
    7.8540    0.6650   -0.1290 C   0  0  0  0  0  0  0  0  0  0  0  0
    8.5090   -0.1260   -1.0460 C   0  0  0  0  0  0  0  0  0  0  0  0
    7.5030   -0.7970   -1.7150 C   0  0  0  0  0  0  0  0  0  0  0  0
    6.3360   -0.4410   -1.2400 O   0  0  0  0  0  0  0  0  0  0  0  0
    3.0170    1.9560    1.6640 C   0  0  0  0  0  0  0  0  0  0  0  0
    1.8810    2.4210    2.2870 C   0  0  0  0  0  0  0  0  0  0  0  0
    0.7140    1.7170    2.1670 N   0  0  0  0  0  0  0  0  0  0  0  0
   -1.5600    0.5960    0.4320 C   0  0  0  0  0  0  0  0  0  0  0  0
  1  2  2  0
  2  3  1  0
  3  4  2  0
  3  9  1  0
  4  5  1  0
  5  6  1  0
  6  7  2  0
  7  8  1  0
  8  9  2  0
  9 10  1  0
 10 11  1  0
 10 28  1  0
 11 12  1  0
 12 13  1  0
 13 14  1  0
 14 15  1  1
 14 28  1  0
 15 16  2  0
 15 27  1  0
 16 17  1  0
 17 18  1  0
 17 25  2  0
 18 19  1  0
 19 20  1  0
 20 21  2  0
 20 24  1  0
 21 22  1  0
 22 23  2  0
 23 24  1  0
 25 26  1  0
 26 27  2  0
M  END
