
     RDKit          3D

 19 20  0  0  0  0  0  0  0  0999 V2000
   -4.1830    1.2840    0.0150 C   0  0  0  0  0  0  0  0  0  0  0  0
   -2.7850    1.3890    0.5690 C   0  0  0  0  0  0  0  0  0  0  0  0
   -2.5830    0.4320    1.7390 C   0  0  0  0  0  0  0  0  0  0  0  0
   -2.7980   -0.9910    1.3320 C   0  0  0  0  0  0  0  0  0  0  0  0
   -1.8960   -1.4330    0.2860 N   0  0  0  0  0  0  0  0  0  0  0  0
   -0.4880   -1.4350    0.4390 C   0  0  0  0  0  0  0  0  0  0  0  0
   -0.0120   -1.0360    1.5290 O   0  0  0  0  0  0  0  0  0  0  0  0
    0.3560   -1.9000   -0.6750 C   0  0  1  0  0  0  0  0  0  0  0  0
    0.1130   -0.9560   -1.8590 C   0  0  0  0  0  0  0  0  0  0  0  0
    0.3100    0.3530   -1.3740 O   0  0  0  0  0  0  0  0  0  0  0  0
    1.5700    0.6100   -0.7780 C   0  0  0  0  0  0  0  0  0  0  0  0
    1.8280    1.9180   -0.8210 C   0  0  0  0  0  0  0  0  0  0  0  0
    3.3000    2.7000   -0.1840 S   0  0  0  0  0  0  0  0  0  0  0  0
    4.0370    1.7220    1.0690 N   0  0  0  0  0  0  0  0  0  0  0  0
    4.4420    0.4400    0.6580 C   0  0  0  0  0  0  0  0  0  0  0  0
    3.4700   -0.5700    0.3190 C   0  0  0  0  0  0  0  0  0  0  0  0
    3.8100   -1.9190    0.6740 O   0  0  0  0  0  0  0  0  0  0  0  0
    2.2950   -0.5360   -0.2640 C   0  0  0  0  0  0  0  0  0  0  0  0
    1.7320   -1.8420   -0.3690 O   0  0  0  0  0  0  0  0  0  0  0  0
  1  2  1  0
  2  3  1  0
  3  4  1  0
  4  5  1  0
  5  6  1  0
  6  7  2  0
  8  6  1  1
  8  9  1  0
  8 19  1  0
  9 10  1  0
 10 11  1  0
 11 12  2  0
 11 18  1  0
 12 13  1  0
 13 14  1  0
 14 15  1  0
 15 16  1  0
 16 17  1  0
 16 18  2  0
 18 19  1  0
M  END
