
     RDKit          3D

 19 20  0  0  0  0  0  0  0  0999 V2000
    4.5810    0.6380   -1.5200 C   0  0  0  0  0  0  0  0  0  0  0  0
    3.7970   -0.3150   -0.7900 N   0  0  0  0  0  0  0  0  0  0  0  0
    3.9510   -1.7340   -1.0530 C   0  0  0  0  0  0  0  0  0  0  0  0
    2.8680    0.1350    0.1940 C   0  0  0  0  0  0  0  0  0  0  0  0
    2.7310    1.3470    0.4260 O   0  0  0  0  0  0  0  0  0  0  0  0
    2.1140   -0.7860    0.8950 O   0  0  0  0  0  0  0  0  0  0  0  0
    1.1790   -0.4620    1.8720 C   0  0  0  0  0  0  0  0  0  0  0  0
    0.0340    0.4050    1.3900 C   0  0  2  0  0  0  0  0  0  0  0  0
   -0.7660    0.8030    2.5860 C   0  0  0  0  0  0  0  0  0  0  0  0
   -2.5540    0.7740    2.2710 S   0  0  0  0  0  0  0  0  0  0  0  0
   -2.6880    1.0280    0.4540 C   0  0  2  0  0  0  0  0  0  0  0  0
   -4.0690    1.0340    0.1470 N   0  0  0  0  0  0  0  0  0  0  0  0
   -4.8540    0.4610   -0.8990 C   0  0  0  0  0  0  0  0  0  0  0  0
   -6.0760    0.7130   -0.8860 O   0  0  0  0  0  0  0  0  0  0  0  0
   -4.3670   -0.3820   -1.9680 C   0  0  0  0  0  0  0  0  0  0  0  0
   -3.1700   -0.9160   -2.0790 C   0  0  0  0  0  0  0  0  0  0  0  0
   -2.0460   -0.8100   -1.1920 C   0  0  0  0  0  0  0  0  0  0  0  0
   -1.8650   -0.0040   -0.1530 C   0  0  0  0  0  0  0  0  0  0  0  0
   -0.6300   -0.2690    0.3910 O   0  0  0  0  0  0  0  0  0  0  0  0
  1  2  1  0
  2  3  1  0
  2  4  1  0
  4  5  2  0
  4  6  1  0
  6  7  1  0
  8  7  1  1
  8  9  1  0
  8 19  1  0
  9 10  1  0
 10 11  1  0
 11 12  1  6
 11 18  1  0
 12 13  1  0
 13 14  2  0
 13 15  1  0
 15 16  2  0
 16 17  1  0
 17 18  2  0
 18 19  1  0
M  END
