
     RDKit          3D

 19 20  0  0  0  0  0  0  0  0999 V2000
   -1.6460   -1.0090    0.9160 C   0  0  0  0  0  0  0  0  0  0  0  0
   -2.5800   -0.0590    0.2380 C   0  0  0  0  0  0  0  0  0  0  0  0
   -3.8730   -0.1190    0.5830 C   0  0  0  0  0  0  0  0  0  0  0  0
   -4.9120    0.7260    0.0370 C   0  0  0  0  0  0  0  0  0  0  0  0
   -6.1180    0.6480    0.3770 O   0  0  0  0  0  0  0  0  0  0  0  0
   -4.5460    1.6880   -0.9270 N   0  0  0  0  0  0  0  0  0  0  0  0
   -3.2100    1.8230   -1.3480 C   0  0  0  0  0  0  0  0  0  0  0  0
   -2.9120    2.6800   -2.2010 O   0  0  0  0  0  0  0  0  0  0  0  0
   -2.1820    0.9150   -0.7470 C   0  0  0  0  0  0  0  0  0  0  0  0
   -0.9730    1.0090   -1.1940 C   0  0  0  0  0  0  0  0  0  0  0  0
    0.2500    0.2720   -0.9240 C   0  0  0  0  0  0  0  0  0  0  0  0
    0.5600   -1.0550   -1.1310 C   0  0  0  0  0  0  0  0  0  0  0  0
    1.8440   -1.3030   -0.7190 C   0  0  0  0  0  0  0  0  0  0  0  0
    2.3000   -0.0870   -0.2590 C   0  0  0  0  0  0  0  0  0  0  0  0
    3.6620    0.2020    0.3110 C   0  0  0  0  0  0  0  0  0  0  0  0
    4.3180   -1.0540    0.5560 N   0  0  0  0  0  0  0  0  0  0  0  0
    5.9110   -0.8420    1.2310 S   0  0  0  0  0  0  0  0  0  0  0  0
    6.1010    0.5810    1.7640 O   0  0  0  0  0  0  0  0  0  0  0  0
    1.3580    0.7990   -0.3910 O   0  0  0  0  0  0  0  0  0  0  0  0
  1  2  1  0
  2  3  2  0
  2  9  1  0
  3  4  1  0
  4  5  2  0
  4  6  1  0
  6  7  1  0
  7  8  2  0
  7  9  1  0
  9 10  2  3
 10 11  1  0
 11 12  2  0
 11 19  1  0
 12 13  1  0
 13 14  2  0
 14 15  1  0
 14 19  1  0
 15 16  1  0
 16 17  1  0
 17 18  2  0
M  END
