
     RDKit          3D

 19 19  0  0  0  0  0  0  0  0999 V2000
   -5.7520   -0.8880   -0.8270 C   0  0  0  0  0  0  0  0  0  0  0  0
   -5.3590    0.0740    0.2940 C   0  0  0  0  0  0  0  0  0  0  0  0
   -3.9730   -0.0330    0.6340 N   0  0  0  0  0  0  0  0  0  0  0  0
   -2.9680    0.2200   -0.3340 C   0  0  0  0  0  0  0  0  0  0  0  0
   -3.2880    0.5420   -1.5060 O   0  0  0  0  0  0  0  0  0  0  0  0
   -1.5320    0.1110    0.0080 C   0  0  0  0  0  0  0  0  0  0  0  0
   -0.6070    0.3440   -0.8820 C   0  0  0  0  0  0  0  0  0  0  0  0
   -0.9150    0.7330   -2.3010 C   0  0  0  0  0  0  0  0  0  0  0  0
    0.8130    0.2230   -0.4940 C   0  0  0  0  0  0  0  0  0  0  0  0
    1.1470   -0.1150    0.7340 C   0  0  0  0  0  0  0  0  0  0  0  0
    2.5480   -0.2390    1.1330 C   0  0  0  0  0  0  0  0  0  0  0  0
    2.8040   -0.5730    2.3500 O   0  0  0  0  0  0  0  0  0  0  0  0
    3.6030   -0.0040    0.2280 N   0  0  0  0  0  0  0  0  0  0  0  0
    4.9700   -0.1360    0.6610 C   0  0  0  0  0  0  0  0  0  0  0  0
    5.1400   -0.4650    1.8620 O   0  0  0  0  0  0  0  0  0  0  0  0
    6.3310    0.1560   -0.4650 S   0  0  0  0  0  0  0  0  0  0  0  0
    7.8670   -0.1150    0.4670 C   0  0  0  0  0  0  0  0  0  0  0  0
    0.1270   -0.3490    1.6340 O   0  0  0  0  0  0  0  0  0  0  0  0
   -1.2450   -0.2720    1.4060 C   0  0  0  0  0  0  0  0  0  0  0  0
  1  2  1  0
  2  3  1  0
  3  4  1  0
  4  5  2  0
  4  6  1  0
  6  7  2  0
  6 19  1  0
  7  8  1  0
  7  9  1  0
  9 10  2  0
 10 11  1  0
 10 18  1  0
 11 12  2  0
 11 13  1  0
 13 14  1  0
 14 15  2  0
 14 16  1  0
 16 17  1  0
 18 19  1  0
M  END
