
     RDKit          3D

 19 20  0  0  0  0  0  0  0  0999 V2000
    0.6870    3.4900   -0.2690 N   0  0  0  0  0  0  0  0  0  0  0  0
    0.9700    2.1320   -0.7020 C   0  0  0  0  0  0  0  0  0  0  0  0
    1.1070    1.9860   -1.9070 O   0  0  0  0  0  0  0  0  0  0  0  0
    1.0560    1.1270    0.3160 C   0  0  1  0  0  0  0  0  0  0  0  0
   -0.2620    0.8720    1.0430 C   0  0  0  0  0  0  0  0  0  0  0  0
   -1.2990    0.4370    0.1790 N   0  0  0  0  0  0  0  0  0  0  0  0
   -1.1940   -0.8400   -0.4030 C   0  0  0  0  0  0  0  0  0  0  0  0
   -2.4730   -1.6390   -0.4390 C   0  0  0  0  0  0  0  0  0  0  0  0
   -3.4710   -0.8140   -0.9250 O   0  0  0  0  0  0  0  0  0  0  0  0
   -3.7390    0.1140    0.0800 C   0  0  0  0  0  0  0  0  0  0  0  0
   -2.5730    1.0160    0.3540 C   0  0  0  0  0  0  0  0  0  0  0  0
    1.7760   -0.1370    0.0570 C   0  0  0  0  0  0  0  0  0  0  0  0
    2.0490   -0.5560   -1.1400 C   0  0  0  0  0  0  0  0  0  0  0  0
    2.7610   -1.8000   -1.4670 C   0  0  0  0  0  0  0  0  0  0  0  0
    2.9720   -2.0980   -2.6410 O   0  0  0  0  0  0  0  0  0  0  0  0
    3.3020   -2.8430   -0.1640 S   0  0  0  0  0  0  0  0  0  0  0  0
    4.8050   -3.0430   -0.1510 O   0  0  0  0  0  0  0  0  0  0  0  0
    2.7900   -2.0160    1.3320 C   0  0  0  0  0  0  0  0  0  0  0  0
    2.1630   -0.8960    1.2630 C   0  0  0  0  0  0  0  0  0  0  0  0
  1  2  1  0
  2  3  2  0
  2  4  1  0
  4  5  1  6
  4 12  1  0
  5  6  1  0
  6  7  1  0
  6 11  1  0
  7  8  1  0
  8  9  1  0
  9 10  1  0
 10 11  1  0
 12 13  2  0
 12 19  1  0
 13 14  1  0
 14 15  2  0
 14 16  1  0
 16 17  2  0
 16 18  1  1
 18 19  2  0
M  END
