
     RDKit          3D

 25 27  0  0  0  0  0  0  0  0999 V2000
    6.9090   -0.5520    0.1980 N   0  0  0  0  0  0  0  0  0  0  0  0
    5.7220   -0.2390   -0.5200 C   0  0  0  0  0  0  0  0  0  0  0  0
    5.7140    0.3350   -1.7350 N   0  0  0  0  0  0  0  0  0  0  0  0
    4.5770    0.6210   -2.3950 C   0  0  0  0  0  0  0  0  0  0  0  0
    3.3910    0.3330   -1.8380 N   0  0  0  0  0  0  0  0  0  0  0  0
    3.3590   -0.2410   -0.6240 C   0  0  0  0  0  0  0  0  0  0  0  0
    4.5090   -0.5390    0.0620 C   0  0  0  0  0  0  0  0  0  0  0  0
    4.1920   -1.1020    1.2400 N   0  0  0  0  0  0  0  0  0  0  0  0
    2.8410   -1.1560    1.2930 C   0  0  0  0  0  0  0  0  0  0  0  0
    2.3210   -0.6390    0.1740 N   0  0  0  0  0  0  0  0  0  0  0  0
    0.9110   -0.5080   -0.1690 C   0  0  2  0  0  0  0  0  0  0  0  0
    0.6790    0.6390   -0.8730 O   0  0  0  0  0  0  0  0  0  0  0  0
   -0.2880    1.3770   -0.2520 C   0  0  2  0  0  0  0  0  0  0  0  0
    0.2570    2.5870    0.4770 C   0  0  0  0  0  0  0  0  0  0  0  0
    1.1650    2.2360    1.4630 O   0  0  0  0  0  0  0  0  0  0  0  0
   -1.0430    0.4670    0.6710 C   0  0  1  0  0  0  0  0  0  0  0  0
   -2.0800   -0.2650   -0.0240 N   0  0  0  0  0  0  0  0  0  0  0  0
   -3.3840   -0.2750    0.5570 C   0  0  0  0  0  0  0  0  0  0  0  0
   -3.5590    0.3500    1.6390 O   0  0  0  0  0  0  0  0  0  0  0  0
   -4.5120   -0.9920   -0.0720 C   0  0  1  0  0  0  0  0  0  0  0  0
   -5.6770   -0.8390    0.7850 N   0  0  0  0  0  0  0  0  0  0  0  0
   -4.8080   -0.3270   -1.4140 C   0  0  0  0  0  0  0  0  0  0  0  0
   -3.7470   -0.4350   -2.2790 O   0  0  0  0  0  0  0  0  0  0  0  0
    0.0540   -0.5280    1.0480 C   0  0  1  0  0  0  0  0  0  0  0  0
   -0.5090   -1.7580    1.3220 O   0  0  0  0  0  0  0  0  0  0  0  0
  1  2  1  0
  2  3  2  0
  2  7  1  0
  3  4  1  0
  4  5  2  0
  5  6  1  0
  6  7  2  0
  6 10  1  0
  7  8  1  0
  8  9  2  0
  9 10  1  0
 11 10  1  1
 11 12  1  0
 11 24  1  0
 12 13  1  0
 13 14  1  1
 13 16  1  0
 14 15  1  0
 16 17  1  6
 16 24  1  0
 17 18  1  0
 18 19  2  0
 18 20  1  0
 20 21  1  1
 20 22  1  0
 22 23  1  0
 24 25  1  6
M  CHG  1  21   1
M  END
