
     RDKit          3D

 24 25  0  0  0  0  0  0  0  0999 V2000
    5.9160    0.5050    1.9900 C   0  0  0  0  0  0  0  0  0  0  0  0
    5.3370    0.3400    0.6050 C   0  0  2  0  0  0  0  0  0  0  0  0
    3.9320   -0.0150    0.6400 N   0  0  0  0  0  0  0  0  0  0  0  0
    2.9170    0.8150    0.1240 C   0  0  0  0  0  0  0  0  0  0  0  0
    3.2180    1.9240   -0.3990 O   0  0  0  0  0  0  0  0  0  0  0  0
    1.5370    0.4820    0.1500 N   0  0  0  0  0  0  0  0  0  0  0  0
    0.4850    1.3260   -0.3770 C   0  0  1  0  0  0  0  0  0  0  0  0
   -0.2620    0.6370   -1.4660 C   0  0  0  0  0  0  0  0  0  0  0  0
   -1.2810   -0.2230   -0.7760 C   0  0  0  0  0  0  0  0  0  0  0  0
   -1.6640    0.5870    0.4370 C   0  0  2  0  0  0  0  0  0  0  0  0
   -2.9830    1.1980    0.2670 N   0  0  0  0  0  0  0  0  0  0  0  0
   -4.1200    0.3880    0.1110 C   0  0  0  0  0  0  0  0  0  0  0  0
   -5.3770    0.8810   -0.0660 N   0  0  0  0  0  0  0  0  0  0  0  0
   -6.2430   -0.1390   -0.1780 C   0  0  0  0  0  0  0  0  0  0  0  0
   -7.6860   -0.0540   -0.3770 C   0  0  0  0  0  0  0  0  0  0  0  0
   -8.4610   -1.2320   -0.4760 N   0  0  0  0  0  0  0  0  0  0  0  0
   -8.2210    1.0820   -0.4590 O   0  0  0  0  0  0  0  0  0  0  0  0
   -5.4950   -1.2950   -0.0670 C   0  0  0  0  0  0  0  0  0  0  0  0
   -4.2090   -0.9440    0.1080 N   0  0  0  0  0  0  0  0  0  0  0  0
   -0.5920    1.6150    0.6430 C   0  0  0  0  0  0  0  0  0  0  0  0
    6.1320   -0.5900   -0.2010 C   0  0  0  0  0  0  0  0  0  0  0  0
    5.6800   -1.5940   -0.8100 O   0  0  0  0  0  0  0  0  0  0  0  0
    7.4970   -0.3570   -0.3130 O   0  0  0  0  0  0  0  0  0  0  0  0
    8.3490   -1.1430   -1.0310 N   0  0  0  0  0  0  0  0  0  0  0  0
  2  1  1  1
  2  3  1  0
  2 21  1  0
  3  4  1  0
  4  5  2  0
  4  6  1  0
  7  6  1  1
  7  8  1  0
  7 20  1  0
  8  9  1  0
  9 10  1  0
 10 11  1  6
 10 20  1  0
 11 12  1  0
 12 13  1  0
 12 19  2  0
 13 14  1  0
 14 15  1  0
 14 18  2  0
 15 16  1  0
 15 17  2  0
 18 19  1  0
 21 22  2  0
 21 23  1  0
 23 24  1  0
M  CHG  1  19   1
M  END
