
     RDKit          3D

 25 26  0  0  0  0  0  0  0  0999 V2000
   -1.1970    5.0840    0.9350 N   0  0  0  0  0  0  0  0  0  0  0  0
   -0.6280    3.8770    0.5190 C   0  0  0  0  0  0  0  0  0  0  0  0
   -0.5870    3.5980   -0.7240 O   0  0  0  0  0  0  0  0  0  0  0  0
   -0.0590    2.8880    1.4730 C   0  0  0  0  0  0  0  0  0  0  0  0
    0.4720    1.6980    0.7510 C   0  0  0  0  0  0  0  0  0  0  0  0
    1.6950    1.2300    0.7900 N   0  0  0  0  0  0  0  0  0  0  0  0
    1.7930    0.1150   -0.0170 N   0  0  0  0  0  0  0  0  0  0  0  0
    2.7440   -0.9680    0.0650 C   0  0  0  0  0  0  0  0  0  0  0  0
    2.5170   -1.8740    0.9640 C   0  0  0  0  0  0  0  0  0  0  0  0
    3.2090   -3.0900    1.3610 C   0  0  0  0  0  0  0  0  0  0  0  0
    4.3420   -3.4240    0.7070 O   0  0  0  0  0  0  0  0  0  0  0  0
    3.8230   -0.8960   -0.8650 C   0  0  0  0  0  0  0  0  0  0  0  0
    3.9080    0.2050   -1.8000 N   0  0  0  0  0  0  0  0  0  0  0  0
    4.7290   -1.7240   -0.9470 O   0  0  0  0  0  0  0  0  0  0  0  0
    0.7300    0.2460   -0.9870 C   0  0  1  0  0  0  0  0  0  0  0  0
    0.4200   -0.8720   -1.7520 N   0  0  0  0  0  0  0  0  0  0  0  0
   -0.2880    0.8060   -0.1250 N   0  0  0  0  0  0  0  0  0  0  0  0
   -1.6840    0.6560    0.0310 C   0  0  0  0  0  0  0  0  0  0  0  0
   -2.2050   -0.6070    0.6360 C   0  0  1  0  0  0  0  0  0  0  0  0
   -1.7370   -0.8520    1.9020 O   0  0  0  0  0  0  0  0  0  0  0  0
   -3.7520   -0.5190    0.7240 C   0  0  0  0  0  0  0  0  0  0  0  0
   -4.2150   -0.8790   -0.6630 C   0  0  0  0  0  0  0  0  0  0  0  0
   -3.0700   -1.4650   -1.3310 N   0  0  0  0  0  0  0  0  0  0  0  0
   -2.1140   -1.7460   -0.2900 C   0  0  0  0  0  0  0  0  0  0  0  0
   -1.3720   -2.7340   -0.1840 O   0  0  0  0  0  0  0  0  0  0  0  0
  1  2  1  0
  2  3  2  0
  2  4  1  0
  4  5  1  0
  5  6  2  0
  5 17  1  0
  6  7  1  0
  7  8  1  0
  7 15  1  0
  8  9  2  3
  8 12  1  0
  9 10  1  0
 10 11  1  0
 12 13  1  0
 12 14  2  0
 15 16  1  1
 15 17  1  0
 17 18  1  0
 18 19  1  0
 19 20  1  1
 19 21  1  0
 19 24  1  0
 21 22  1  0
 22 23  1  0
 23 24  1  0
 24 25  2  0
M  END
