
     RDKit          3D

 24 25  0  0  0  0  0  0  0  0999 V2000
    5.1140    1.3490    1.6080 C   0  0  0  0  0  0  0  0  0  0  0  0
    5.8560    0.5060    0.6390 C   0  0  2  0  0  0  0  0  0  0  0  0
    6.3890    1.0520   -0.6830 C   0  0  0  0  0  0  0  0  0  0  0  0
    5.2420    0.1580   -0.7000 C   0  0  2  0  0  0  0  0  0  0  0  0
    3.9350    0.5960   -0.9860 N   0  0  0  0  0  0  0  0  0  0  0  0
    2.7280   -0.2280   -0.6080 C   0  0  0  0  0  0  0  0  0  0  0  0
    2.9450   -1.2230   -0.0650 O   0  0  0  0  0  0  0  0  0  0  0  0
    1.5920    0.5360   -1.0630 N   0  0  0  0  0  0  0  0  0  0  0  0
    0.3900   -0.4790   -0.3210 C   0  0  0  0  0  0  0  0  0  0  0  0
    0.8600   -1.3030    0.3520 O   0  0  0  0  0  0  0  0  0  0  0  0
   -0.9460   -0.0540   -0.7260 C   0  0  0  0  0  0  0  0  0  0  0  0
   -2.0260   -0.7800    0.0510 C   0  0  2  0  0  0  0  0  0  0  0  0
   -3.3930   -0.4080   -0.3740 C   0  0  0  0  0  0  0  0  0  0  0  0
   -3.7810    1.0290   -0.2530 C   0  0  0  0  0  0  0  0  0  0  0  0
   -5.1770    1.1930   -0.7340 C   0  0  0  0  0  0  0  0  0  0  0  0
   -5.8610    2.4310   -0.7590 N   0  0  0  0  0  0  0  0  0  0  0  0
   -5.8070    0.1880   -1.1530 O   0  0  0  0  0  0  0  0  0  0  0  0
   -1.8910   -0.4830    1.4770 N   0  0  0  0  0  0  0  0  0  0  0  0
   -2.8500   -1.2090    2.1540 N   0  0  0  0  0  0  0  0  0  0  0  0
   -3.1480   -2.5650    1.8870 C   0  0  0  0  0  0  0  0  0  0  0  0
   -3.8390   -3.2830    2.6250 O   0  0  0  0  0  0  0  0  0  0  0  0
   -2.6060   -3.1310    0.6780 N   0  0  0  0  0  0  0  0  0  0  0  0
   -1.8220   -2.2280   -0.1090 C   0  0  0  0  0  0  0  0  0  0  0  0
   -0.9870   -2.6910   -0.9050 O   0  0  0  0  0  0  0  0  0  0  0  0
  2  1  1  1
  2  3  1  0
  2  4  1  0
  3  4  1  0
  4  5  1  1
  5  6  1  0
  6  7  2  0
  6  8  1  0
  8  9  1  0
  9 10  2  0
  9 11  1  0
 12 11  1  6
 12 13  1  0
 12 18  1  0
 12 23  1  0
 13 14  1  0
 14 15  1  0
 15 16  1  0
 15 17  2  0
 18 19  1  0
 19 20  1  0
 20 21  2  0
 20 22  1  0
 22 23  1  0
 23 24  2  0
M  END
