
     RDKit          3D

 25 27  0  0  0  0  0  0  0  0999 V2000
    6.7030    2.0040   -0.5920 N   0  0  0  0  0  0  0  0  0  0  0  0
    5.3330    2.0940   -0.2090 C   0  0  0  0  0  0  0  0  0  0  0  0
    4.7540    3.2690    0.0510 N   0  0  0  0  0  0  0  0  0  0  0  0
    3.4460    3.3280    0.4140 C   0  0  0  0  0  0  0  0  0  0  0  0
    2.6870    2.2230    0.5260 N   0  0  0  0  0  0  0  0  0  0  0  0
    3.2240    1.0100    0.2730 C   0  0  0  0  0  0  0  0  0  0  0  0
    4.5520    0.9580   -0.0950 C   0  0  0  0  0  0  0  0  0  0  0  0
    4.8320   -0.3390   -0.2840 N   0  0  0  0  0  0  0  0  0  0  0  0
    3.7380   -1.0420   -0.0460 C   0  0  0  0  0  0  0  0  0  0  0  0
    2.7200   -0.2370    0.3020 N   0  0  0  0  0  0  0  0  0  0  0  0
    1.4010   -0.6710    0.6250 C   0  0  2  0  0  0  0  0  0  0  0  0
    1.1680   -1.9170    0.0010 O   0  0  0  0  0  0  0  0  0  0  0  0
   -0.1870   -2.0770    0.2330 C   0  0  2  0  0  0  0  0  0  0  0  0
   -0.7720   -3.2760   -0.4730 C   0  0  0  0  0  0  0  0  0  0  0  0
   -0.6100   -3.1710   -1.8510 O   0  0  0  0  0  0  0  0  0  0  0  0
   -0.7530   -0.7800   -0.3290 C   0  0  1  0  0  0  0  0  0  0  0  0
   -2.0180   -0.5470    0.2900 N   0  0  0  0  0  0  0  0  0  0  0  0
   -3.2560   -0.4430   -0.4030 C   0  0  0  0  0  0  0  0  0  0  0  0
   -3.2600   -0.5620   -1.6520 O   0  0  0  0  0  0  0  0  0  0  0  0
   -4.5530   -0.2000    0.2760 C   0  0  1  0  0  0  0  0  0  0  0  0
   -4.4260   -0.0810    1.6960 N   0  0  0  0  0  0  0  0  0  0  0  0
   -5.2280    1.0200   -0.3470 C   0  0  0  0  0  0  0  0  0  0  0  0
   -4.4910    2.1760   -0.0880 O   0  0  0  0  0  0  0  0  0  0  0  0
    0.3090    0.2190    0.1210 C   0  0  1  0  0  0  0  0  0  0  0  0
   -0.2450    1.0000    1.1210 O   0  0  0  0  0  0  0  0  0  0  0  0
  1  2  1  0
  2  3  2  0
  2  7  1  0
  3  4  1  0
  4  5  2  0
  5  6  1  0
  6  7  2  0
  6 10  1  0
  7  8  1  0
  8  9  2  0
  9 10  1  0
 11 10  1  6
 11 12  1  0
 11 24  1  0
 12 13  1  0
 13 14  1  6
 13 16  1  0
 14 15  1  0
 16 17  1  1
 16 24  1  0
 17 18  1  0
 18 19  2  0
 18 20  1  0
 20 21  1  1
 20 22  1  0
 22 23  1  0
 24 25  1  1
M  END
