
     RDKit          3D

 24 25  0  0  0  0  0  0  0  0999 V2000
    7.0610   -1.5500    0.0700 N   0  0  0  0  0  0  0  0  0  0  0  0
    6.0400   -0.7700    0.3110 C   0  0  0  0  0  0  0  0  0  0  0  0
    5.2520   -0.7890    1.4120 N   0  0  0  0  0  0  0  0  0  0  0  0
    4.3220    0.1490    1.2950 N   0  0  0  0  0  0  0  0  0  0  0  0
    4.4810    0.7950    0.1260 C   0  0  0  0  0  0  0  0  0  0  0  0
    3.6700    1.9230   -0.4360 C   0  0  0  0  0  0  0  0  0  0  0  0
    2.6300    1.3470   -1.1910 O   0  0  0  0  0  0  0  0  0  0  0  0
    1.7380    0.5100   -0.5510 C   0  0  0  0  0  0  0  0  0  0  0  0
    0.6370    1.0190   -0.0470 C   0  0  0  0  0  0  0  0  0  0  0  0
   -0.4020    0.2370    0.6600 C   0  0  1  0  0  0  0  0  0  0  0  0
   -1.6890    0.4830   -0.1120 C   0  0  1  0  0  0  0  0  0  0  0  0
   -1.5220    0.0180   -1.4720 N   0  0  0  0  0  0  0  0  0  0  0  0
   -2.8860   -0.0720    0.5890 C   0  0  0  0  0  0  0  0  0  0  0  0
   -4.0970    0.2380   -0.2540 C   0  0  0  0  0  0  0  0  0  0  0  0
   -3.9430    0.8610   -1.3270 O   0  0  0  0  0  0  0  0  0  0  0  0
   -5.3880   -0.1530    0.1330 N   0  0  0  0  0  0  0  0  0  0  0  0
   -6.5440    0.1350   -0.6570 C   0  0  0  0  0  0  0  0  0  0  0  0
   -7.8440   -0.2570   -0.2720 N   0  0  0  0  0  0  0  0  0  0  0  0
   -6.4270    0.7610   -1.7450 O   0  0  0  0  0  0  0  0  0  0  0  0
   -0.0540   -1.1820    0.7650 C   0  0  0  0  0  0  0  0  0  0  0  0
   -0.8280   -2.0080    1.3810 O   0  0  0  0  0  0  0  0  0  0  0  0
    1.1660   -1.7270    0.1910 C   0  0  0  0  0  0  0  0  0  0  0  0
    2.0070   -0.9210   -0.4270 C   0  0  0  0  0  0  0  0  0  0  0  0
    5.5440    0.2120   -0.4630 N   0  0  0  0  0  0  0  0  0  0  0  0
  1  2  2  0
  2  3  1  0
  2 24  1  0
  3  4  1  0
  4  5  2  0
  5  6  1  0
  5 24  1  0
  6  7  1  0
  7  8  1  0
  8  9  2  0
  8 23  1  0
 10  9  1  6
 10 11  1  0
 10 20  1  0
 11 12  1  6
 11 13  1  0
 13 14  1  0
 14 15  2  0
 14 16  1  0
 16 17  1  0
 17 18  1  0
 17 19  2  0
 20 21  2  0
 20 22  1  0
 22 23  2  0
M  END
