
     RDKit          3D

 25 26  0  0  0  0  0  0  0  0999 V2000
   -6.4160    1.1080   -2.0100 C   0  0  0  0  0  0  0  0  0  0  0  0
   -5.1630    1.8200   -1.6930 N   0  0  0  0  0  0  0  0  0  0  0  0
   -4.6120    1.6940   -0.3900 C   0  0  0  0  0  0  0  0  0  0  0  0
   -5.2190    0.9720    0.4570 O   0  0  0  0  0  0  0  0  0  0  0  0
   -3.3630    2.4040   -0.0780 C   0  0  2  0  0  0  0  0  0  0  0  0
   -2.7770    3.0400   -1.2210 N   0  0  0  0  0  0  0  0  0  0  0  0
   -2.3940    1.5570    0.5870 N   0  0  0  0  0  0  0  0  0  0  0  0
   -2.5610    1.3670    1.9270 C   0  0  0  0  0  0  0  0  0  0  0  0
   -3.5350    1.9350    2.5050 O   0  0  0  0  0  0  0  0  0  0  0  0
   -1.7120    0.5970    2.6140 N   0  0  0  0  0  0  0  0  0  0  0  0
   -0.6570   -0.0160    1.9820 C   0  0  0  0  0  0  0  0  0  0  0  0
   -0.4440    0.1390    0.6480 C   0  0  0  0  0  0  0  0  0  0  0  0
    0.5990   -0.4480   -0.0800 N   0  0  0  0  0  0  0  0  0  0  0  0
    1.6140   -1.3030    0.3890 C   0  0  0  0  0  0  0  0  0  0  0  0
    1.6430   -1.6090    1.5950 O   0  0  0  0  0  0  0  0  0  0  0  0
    2.6190   -1.8310   -0.5040 N   0  0  0  0  0  0  0  0  0  0  0  0
    3.6400   -2.7080    0.0270 C   0  0  1  0  0  0  0  0  0  0  0  0
    4.0810   -3.7960   -0.8820 C   0  0  0  0  0  0  0  0  0  0  0  0
    5.0110   -2.6550   -0.6220 C   0  0  0  0  0  0  0  0  0  0  0  0
    6.1900   -2.0860   -0.8390 C   0  0  0  0  0  0  0  0  0  0  0  0
    6.5630   -0.8370   -0.2100 C   0  0  0  0  0  0  0  0  0  0  0  0
    5.6570   -0.1930    0.6600 N   0  0  0  0  0  0  0  0  0  0  0  0
    7.6770   -0.3300   -0.4330 O   0  0  0  0  0  0  0  0  0  0  0  0
   -1.3630    0.9560   -0.0250 C   0  0  0  0  0  0  0  0  0  0  0  0
   -1.2000    1.1210   -1.2460 O   0  0  0  0  0  0  0  0  0  0  0  0
  1  2  1  0
  2  3  1  0
  3  4  2  0
  3  5  1  0
  5  6  1  6
  5  7  1  0
  7  8  1  0
  7 24  1  0
  8  9  2  0
  8 10  1  0
 10 11  1  0
 11 12  2  0
 12 13  1  0
 12 24  1  0
 13 14  1  0
 14 15  2  0
 14 16  1  0
 17 16  1  6
 17 18  1  0
 17 19  1  0
 18 19  1  0
 19 20  2  3
 20 21  1  0
 21 22  1  0
 21 23  2  0
 24 25  2  0
M  END
