
     RDKit          3D

 25 26  0  0  0  0  0  0  0  0999 V2000
    6.0340   -0.6010   -1.6810 N   0  0  0  0  0  0  0  0  0  0  0  0
    4.6490   -0.7920   -1.8420 N   0  0  0  0  0  0  0  0  0  0  0  0
    3.6990   -0.3150   -0.8850 C   0  0  0  0  0  0  0  0  0  0  0  0
    2.6340    0.3100   -1.2970 C   0  0  0  0  0  0  0  0  0  0  0  0
    1.6080    0.8320   -0.3500 C   0  0  0  0  0  0  0  0  0  0  0  0
    0.5400    1.4620   -0.8420 C   0  0  0  0  0  0  0  0  0  0  0  0
   -0.5990    2.0610   -0.2070 C   0  0  0  0  0  0  0  0  0  0  0  0
   -1.7520    1.5040    0.1270 C   0  0  0  0  0  0  0  0  0  0  0  0
   -2.9310    2.0330    0.7600 O   0  0  0  0  0  0  0  0  0  0  0  0
   -4.0500    1.5340   -0.0140 C   0  0  0  0  0  0  0  0  0  0  0  0
   -3.4980    0.4730   -0.8990 C   0  0  0  0  0  0  0  0  0  0  0  0
   -2.1810    0.0990   -0.0740 C   0  0  2  0  0  0  0  0  0  0  0  0
   -2.7230   -0.5910    1.0700 C   0  0  0  0  0  0  0  0  0  0  0  0
   -3.4680    0.0590    2.0860 N   0  0  0  0  0  0  0  0  0  0  0  0
   -2.5970   -1.8390    1.2960 O   0  0  0  0  0  0  0  0  0  0  0  0
   -1.3020   -0.5960   -0.9510 N   0  0  0  0  0  0  0  0  0  0  0  0
   -0.5410   -1.7490   -0.8760 C   0  0  0  0  0  0  0  0  0  0  0  0
   -0.6970   -2.4900   -1.9670 O   0  0  0  0  0  0  0  0  0  0  0  0
    0.3370   -2.2690    0.1010 N   0  0  0  0  0  0  0  0  0  0  0  0
    0.4020   -2.1130    1.4740 N   0  0  0  0  0  0  0  0  0  0  0  0
    0.3380   -0.9590    2.3000 C   0  0  0  0  0  0  0  0  0  0  0  0
   -0.4510   -0.9850    3.3440 O   0  0  0  0  0  0  0  0  0  0  0  0
    1.0760    0.2810    2.1020 C   0  0  0  0  0  0  0  0  0  0  0  0
    0.9620    1.1690    3.0310 O   0  0  0  0  0  0  0  0  0  0  0  0
    1.9050    0.6480    1.0300 N   0  0  0  0  0  0  0  0  0  0  0  0
  1  2  1  0
  2  3  1  0
  3  4  2  3
  4  5  1  0
  5  6  2  0
  5 25  1  0
  6  7  1  0
  7  8  2  0
  8  9  1  0
  8 12  1  0
  9 10  1  0
 10 11  1  0
 11 12  1  0
 12 13  1  1
 12 16  1  0
 13 14  1  0
 13 15  2  0
 16 17  1  0
 17 18  2  0
 17 19  1  0
 19 20  1  0
 20 21  1  0
 21 22  2  0
 21 23  1  0
 23 24  2  0
 23 25  1  0
M  END
