
     RDKit          3D

 24 26  0  0  0  0  0  0  0  0999 V2000
    4.9030   -2.3260   -0.2670 C   0  0  0  0  0  0  0  0  0  0  0  0
    4.1790   -1.6280    0.7100 O   0  0  0  0  0  0  0  0  0  0  0  0
    2.8480   -1.3690    0.5160 C   0  0  0  0  0  0  0  0  0  0  0  0
    2.5540   -0.1250    0.2070 C   0  0  0  0  0  0  0  0  0  0  0  0
    1.2510    0.5060   -0.0670 C   0  0  0  0  0  0  0  0  0  0  0  0
    1.2930    1.9370   -0.2630 C   0  0  0  0  0  0  0  0  0  0  0  0
    2.1180    2.6210   -1.1130 N   0  0  0  0  0  0  0  0  0  0  0  0
    1.8850    3.8960   -0.9630 N   0  0  0  0  0  0  0  0  0  0  0  0
    0.9240    4.0910   -0.0340 C   0  0  0  0  0  0  0  0  0  0  0  0
    0.4620    5.2070    0.3490 O   0  0  0  0  0  0  0  0  0  0  0  0
    0.5750    2.8640    0.3830 N   0  0  0  0  0  0  0  0  0  0  0  0
    0.0700   -0.0670   -0.0940 C   0  0  0  0  0  0  0  0  0  0  0  0
   -0.9670    0.8540   -0.4010 N   0  0  0  0  0  0  0  0  0  0  0  0
   -2.2970    0.5730    0.0700 C   0  0  1  0  0  0  0  0  0  0  0  0
   -3.2070    1.4590   -0.6280 N   0  0  0  0  0  0  0  0  0  0  0  0
   -2.6740   -0.8740   -0.1950 C   0  0  2  0  0  0  0  0  0  0  0  0
   -3.8370   -1.2230    0.6530 C   0  0  0  0  0  0  0  0  0  0  0  0
   -5.0860   -0.5640    0.5410 N   0  0  0  0  0  0  0  0  0  0  0  0
   -3.7430   -2.1310    1.5120 O   0  0  0  0  0  0  0  0  0  0  0  0
   -1.5820   -1.7910    0.1080 C   0  0  0  0  0  0  0  0  0  0  0  0
   -0.3220   -1.4520    0.1630 C   0  0  0  0  0  0  0  0  0  0  0  0
    0.5260   -2.5570    0.4840 N   0  0  0  0  0  0  0  0  0  0  0  0
    1.9540   -2.4970    0.6790 C   0  0  0  0  0  0  0  0  0  0  0  0
    2.4870   -3.5720    1.0380 O   0  0  0  0  0  0  0  0  0  0  0  0
  1  2  1  0
  2  3  1  0
  3  4  2  0
  3 23  1  0
  4  5  1  0
  5  6  1  0
  5 12  2  0
  6  7  2  0
  6 11  1  0
  7  8  1  0
  8  9  1  0
  9 10  2  0
  9 11  1  0
 12 13  1  0
 12 21  1  0
 13 14  1  0
 14 15  1  6
 14 16  1  0
 16 17  1  1
 16 20  1  0
 17 18  1  0
 17 19  2  0
 20 21  2  0
 21 22  1  0
 22 23  1  0
 23 24  2  0
M  END
