
     RDKit          3D

 25 26  0  0  0  0  0  0  0  0999 V2000
    0.9230   -3.1350   -1.2900 C   0  0  0  0  0  0  0  0  0  0  0  0
    1.3240   -2.1380   -0.3980 O   0  0  0  0  0  0  0  0  0  0  0  0
    0.4480   -1.1160    0.0510 C   0  0  0  0  0  0  0  0  0  0  0  0
   -0.7730   -1.0650   -0.4280 C   0  0  0  0  0  0  0  0  0  0  0  0
   -1.3410   -1.9500   -1.3850 O   0  0  0  0  0  0  0  0  0  0  0  0
   -2.7250   -1.8580   -1.3700 C   0  0  0  0  0  0  0  0  0  0  0  0
   -3.0960   -0.6130   -0.6480 C   0  0  0  0  0  0  0  0  0  0  0  0
   -1.8120   -0.0700   -0.0690 C   0  0  1  0  0  0  0  0  0  0  0  0
   -1.9820   -0.0410    1.3500 N   0  0  0  0  0  0  0  0  0  0  0  0
   -2.2920   -1.2800    1.9820 C   0  0  0  0  0  0  0  0  0  0  0  0
   -1.9950   -2.4170    1.4470 N   0  0  0  0  0  0  0  0  0  0  0  0
   -1.5170    1.2500   -0.7020 C   0  0  0  0  0  0  0  0  0  0  0  0
   -1.3750    2.3400    0.2100 N   0  0  0  0  0  0  0  0  0  0  0  0
   -0.2550    3.0740    0.5850 C   0  0  0  0  0  0  0  0  0  0  0  0
   -0.2060    3.3040    1.8720 O   0  0  0  0  0  0  0  0  0  0  0  0
    0.8080    3.5920   -0.2020 N   0  0  0  0  0  0  0  0  0  0  0  0
    1.3430    3.1580   -1.3820 N   0  0  0  0  0  0  0  0  0  0  0  0
    1.9610    1.9370   -1.7270 C   0  0  0  0  0  0  0  0  0  0  0  0
    2.5460    1.8750   -2.8690 O   0  0  0  0  0  0  0  0  0  0  0  0
    2.0260    0.7560   -0.9800 N   0  0  0  0  0  0  0  0  0  0  0  0
    2.1700    0.6350    0.4540 C   0  0  2  0  0  0  0  0  0  0  0  0
    3.4750   -0.0200    0.8000 C   0  0  0  0  0  0  0  0  0  0  0  0
    3.8740   -0.2640    2.1330 N   0  0  0  0  0  0  0  0  0  0  0  0
    4.2400   -0.3630   -0.1300 O   0  0  0  0  0  0  0  0  0  0  0  0
    1.0550   -0.2090    1.0410 C   0  0  0  0  0  0  0  0  0  0  0  0
  1  2  1  0
  2  3  1  0
  3  4  2  0
  3 25  1  0
  4  5  1  0
  4  8  1  0
  5  6  1  0
  6  7  1  0
  7  8  1  0
  8  9  1  1
  8 12  1  0
  9 10  1  0
 10 11  2  0
 12 13  1  0
 13 14  1  0
 14 15  2  0
 14 16  1  0
 16 17  1  0
 17 18  1  0
 18 19  2  0
 18 20  1  0
 20 21  1  0
 21 22  1  6
 21 25  1  0
 22 23  1  0
 22 24  2  0
M  END
