
     RDKit          3D

 26 28  0  0  0  0  0  0  0  0999 V2000
   -4.2940   -2.3840   -0.1640 O   0  0  0  0  0  0  0  0  0  0  0  0
   -5.0010   -1.5120    0.4000 C   0  0  0  0  0  0  0  0  0  0  0  0
   -6.3280   -1.7770    0.7930 O   0  0  0  0  0  0  0  0  0  0  0  0
   -6.9230   -0.6230    1.2710 N   0  0  0  0  0  0  0  0  0  0  0  0
   -6.1370    0.4680    0.6480 C   0  0  0  0  0  0  0  0  0  0  0  0
   -4.7610   -0.1280    0.7970 C   0  0  1  0  0  0  0  0  0  0  0  0
   -4.4590   -0.0980    2.1630 O   0  0  0  0  0  0  0  0  0  0  0  0
   -3.6910    0.5900   -0.0080 C   0  0  2  0  0  0  0  0  0  0  0  0
   -4.1100    0.6050   -1.4860 C   0  0  0  0  0  0  0  0  0  0  0  0
   -3.1720    1.3320   -2.1980 O   0  0  0  0  0  0  0  0  0  0  0  0
   -2.4150   -0.0030    0.1700 N   0  0  0  0  0  0  0  0  0  0  0  0
   -1.2220    0.6130   -0.2660 C   0  0  0  0  0  0  0  0  0  0  0  0
   -1.0200    1.7830   -0.8820 N   0  0  0  0  0  0  0  0  0  0  0  0
    0.2530    1.9870   -1.1170 N   0  0  0  0  0  0  0  0  0  0  0  0
    0.9640    0.9210   -0.6490 C   0  0  0  0  0  0  0  0  0  0  0  0
    2.3700    0.8270   -0.7120 N   0  0  0  0  0  0  0  0  0  0  0  0
    3.1810   -0.2660   -0.3370 C   0  0  0  0  0  0  0  0  0  0  0  0
    2.8260   -1.5890   -0.3760 C   0  0  0  0  0  0  0  0  0  0  0  0
    3.6850   -2.6130    0.0480 C   0  0  0  0  0  0  0  0  0  0  0  0
    4.9390   -2.2950    0.5240 C   0  0  0  0  0  0  0  0  0  0  0  0
    5.3330   -0.9760    0.5770 C   0  0  0  0  0  0  0  0  0  0  0  0
    6.6400   -0.6110    1.0690 N   0  0  0  0  0  0  0  0  0  0  0  0
    7.0740    0.7500    1.1360 C   0  0  0  0  0  0  0  0  0  0  0  0
    6.2640    1.5370    1.9510 O   0  0  0  0  0  0  0  0  0  0  0  0
    4.4670    0.0050    0.1550 C   0  0  0  0  0  0  0  0  0  0  0  0
    0.0470    0.1000   -0.1370 N   0  0  0  0  0  0  0  0  0  0  0  0
  1  2  2  0
  2  3  1  0
  2  6  1  0
  3  4  1  0
  4  5  1  0
  5  6  1  0
  6  7  1  1
  6  8  1  0
  8  9  1  6
  8 11  1  0
  9 10  1  0
 11 12  1  0
 12 13  2  0
 12 26  1  0
 13 14  1  0
 14 15  2  0
 15 16  1  0
 15 26  1  0
 16 17  1  0
 17 18  2  0
 17 25  1  0
 18 19  1  0
 19 20  2  0
 20 21  1  0
 21 22  1  0
 21 25  2  0
 22 23  1  0
 23 24  1  0
M  CHG  1  14   1
M  END
