
     RDKit          3D

 25 27  0  0  0  0  0  0  0  0999 V2000
   -1.7320    4.0870   -1.0750 C   0  0  0  0  0  0  0  0  0  0  0  0
   -1.7480    2.6570   -0.6760 C   0  0  0  0  0  0  0  0  0  0  0  0
   -0.7080    1.9540   -0.7340 N   0  0  0  0  0  0  0  0  0  0  0  0
   -0.6390    0.5440   -0.3470 C   0  0  0  0  0  0  0  0  0  0  0  0
    0.5200   -0.2120    0.0160 N   0  0  0  0  0  0  0  0  0  0  0  0
    1.4980   -0.2700   -0.9900 C   0  0  0  0  0  0  0  0  0  0  0  0
    0.9690    0.2370   -2.0610 O   0  0  0  0  0  0  0  0  0  0  0  0
    2.7510   -0.7610   -0.9020 N   0  0  0  0  0  0  0  0  0  0  0  0
    3.6260   -0.7690   -2.0840 C   0  0  0  0  0  0  0  0  0  0  0  0
    4.8020   -1.3630   -1.6650 O   0  0  0  0  0  0  0  0  0  0  0  0
    5.3440   -0.6090   -0.6280 C   0  0  1  0  0  0  0  0  0  0  0  0
    5.5800   -1.5120    0.5440 C   0  0  0  0  0  0  0  0  0  0  0  0
    7.0800   -1.4420    0.7550 C   0  0  0  0  0  0  0  0  0  0  0  0
    7.5660   -1.1840   -0.5230 O   0  0  0  0  0  0  0  0  0  0  0  0
    6.7460   -0.1380   -0.9570 C   0  0  0  0  0  0  0  0  0  0  0  0
   -1.6390    0.0610    0.0450 N   0  0  0  0  0  0  0  0  0  0  0  0
   -2.8850    0.6960    0.1720 C   0  0  1  0  0  0  0  0  0  0  0  0
   -2.9550    2.0510   -0.2850 N   0  0  0  0  0  0  0  0  0  0  0  0
   -3.8670   -0.1920   -0.3780 N   0  0  0  0  0  0  0  0  0  0  0  0
   -4.0130   -1.1580    0.7360 C   0  0  2  0  0  0  0  0  0  0  0  0
   -5.2250   -2.0110    0.5340 C   0  0  0  0  0  0  0  0  0  0  0  0
   -5.0420   -2.6950   -0.6880 O   0  0  0  0  0  0  0  0  0  0  0  0
   -4.1460   -0.1810    1.8770 C   0  0  2  0  0  0  0  0  0  0  0  0
   -5.4600    0.5770    1.7430 C   0  0  0  0  0  0  0  0  0  0  0  0
   -3.1090    0.7700    1.6300 N   0  0  0  0  0  0  0  0  0  0  0  0
  1  2  1  0
  2  3  2  0
  2 18  1  0
  3  4  1  0
  4  5  1  0
  4 16  2  0
  5  6  1  0
  6  7  2  0
  6  8  1  0
  8  9  1  0
  9 10  1  0
 11 10  1  6
 11 12  1  0
 11 15  1  0
 12 13  1  0
 13 14  1  0
 14 15  1  0
 16 17  1  0
 17 18  1  6
 17 19  1  0
 17 25  1  0
 19 20  1  0
 20 21  1  6
 20 23  1  0
 21 22  1  0
 23 24  1  6
 23 25  1  0
M  CHG  1  25   1
M  END
