
     RDKit          3D

 26 27  0  0  0  0  0  0  0  0999 V2000
   -2.6560    3.6580   -1.4380 C   0  0  0  0  0  0  0  0  0  0  0  0
   -2.0410    2.3890   -1.7160 N   0  0  0  0  0  0  0  0  0  0  0  0
   -2.5310    1.2340   -0.9840 C   0  0  0  0  0  0  0  0  0  0  0  0
   -3.6730    1.3150   -0.4110 N   0  0  0  0  0  0  0  0  0  0  0  0
   -1.7720    0.0870   -0.9190 O   0  0  0  0  0  0  0  0  0  0  0  0
   -2.1070   -1.0760   -0.2690 C   0  0  0  0  0  0  0  0  0  0  0  0
   -3.1900   -1.1470    0.3330 O   0  0  0  0  0  0  0  0  0  0  0  0
   -1.1650   -2.2360   -0.2950 C   0  0  0  0  0  0  0  0  0  0  0  0
   -1.5540   -3.2990    0.3440 C   0  0  0  0  0  0  0  0  0  0  0  0
   -2.8260   -3.3250    1.0180 N   0  0  0  0  0  0  0  0  0  0  0  0
   -0.7250   -4.4580    0.4720 N   0  0  0  0  0  0  0  0  0  0  0  0
    0.4320   -4.4220   -0.0580 C   0  0  0  0  0  0  0  0  0  0  0  0
    1.2330   -5.6030    0.0840 N   0  0  0  0  0  0  0  0  0  0  0  0
    1.0220   -3.2820   -0.7380 C   0  0  0  0  0  0  0  0  0  0  0  0
    0.0680   -2.1970   -1.0370 C   0  0  2  0  0  0  0  0  0  0  0  0
    0.7220   -0.8490   -1.0300 C   0  0  0  0  0  0  0  0  0  0  0  0
    0.9260   -0.2820   -2.1200 O   0  0  0  0  0  0  0  0  0  0  0  0
    1.1260   -0.1730    0.1490 N   0  0  0  0  0  0  0  0  0  0  0  0
    1.7550    1.1190    0.1790 C   0  0  2  0  0  0  0  0  0  0  0  0
    3.1160    0.9390    0.8260 C   0  0  0  0  0  0  0  0  0  0  0  0
    3.7130    2.2010    1.2740 C   0  0  0  0  0  0  0  0  0  0  0  0
    4.9460    2.2440    1.5020 O   0  0  0  0  0  0  0  0  0  0  0  0
    2.9520    3.3850    1.4620 N   0  0  0  0  0  0  0  0  0  0  0  0
    1.6730    3.4790    0.7640 C   0  0  0  0  0  0  0  0  0  0  0  0
    0.9850    2.1290    0.9950 C   0  0  2  0  0  0  0  0  0  0  0  0
    1.0180    1.8860    2.3460 O   0  0  0  0  0  0  0  0  0  0  0  0
  1  2  1  0
  2  3  1  0
  3  4  2  0
  3  5  1  0
  5  6  1  0
  6  7  2  0
  6  8  1  0
  8  9  2  0
  8 15  1  0
  9 10  1  0
  9 11  1  0
 11 12  2  0
 12 13  1  0
 12 14  1  0
 14 15  1  0
 15 16  1  1
 16 17  2  0
 16 18  1  0
 19 18  1  1
 19 20  1  0
 19 25  1  0
 20 21  1  0
 21 22  2  0
 21 23  1  0
 23 24  1  0
 24 25  1  0
 25 26  1  1
M  CHG  1   4   1
M  END
