
     RDKit          3D

 25 26  0  0  0  0  0  0  0  0999 V2000
   -6.2410   -1.3430   -0.8800 N   0  0  0  0  0  0  0  0  0  0  0  0
   -5.9140   -1.6870    0.4550 C   0  0  0  0  0  0  0  0  0  0  0  0
   -4.7370   -1.3780    0.9190 C   0  0  0  0  0  0  0  0  0  0  0  0
   -3.7520   -0.6670    0.0270 C   0  0  0  0  0  0  0  0  0  0  0  0
   -2.5630   -0.4120    0.9030 C   0  0  1  0  0  0  0  0  0  0  0  0
   -1.4500    0.2280    0.3000 N   0  0  0  0  0  0  0  0  0  0  0  0
   -0.1400   -0.2640    0.5240 C   0  0  0  0  0  0  0  0  0  0  0  0
   -0.0190   -1.2630    1.2660 O   0  0  0  0  0  0  0  0  0  0  0  0
    1.0670    0.3410   -0.0680 C   0  0  0  0  0  0  0  0  0  0  0  0
    0.9900    1.3140   -0.8660 O   0  0  0  0  0  0  0  0  0  0  0  0
    2.3600   -0.1500    0.2420 N   0  0  0  0  0  0  0  0  0  0  0  0
    3.5510    0.3810   -0.2910 C   0  0  0  0  0  0  0  0  0  0  0  0
    3.7020    1.3720   -1.1420 N   0  0  0  0  0  0  0  0  0  0  0  0
    5.0050    1.5930   -1.4200 C   0  0  0  0  0  0  0  0  0  0  0  0
    5.6490    2.5970   -2.3100 C   0  0  0  0  0  0  0  0  0  0  0  0
    5.8450    2.0850   -3.7310 C   0  0  0  0  0  0  0  0  0  0  0  0
    6.7420    0.8450   -3.5700 C   0  0  0  0  0  0  0  0  0  0  0  0
    7.0210    0.2440   -4.7850 O   0  0  0  0  0  0  0  0  0  0  0  0
    5.6480    0.6490   -0.6670 N   0  0  0  0  0  0  0  0  0  0  0  0
    4.7790   -0.0520   -0.0110 O   0  0  0  0  0  0  0  0  0  0  0  0
   -3.0480    0.3300    2.1470 C   0  0  1  0  0  0  0  0  0  0  0  0
   -4.1210    1.1120    1.7860 O   0  0  0  0  0  0  0  0  0  0  0  0
   -3.5580   -0.7500    3.1150 C   0  0  0  0  0  0  0  0  0  0  0  0
   -4.3630   -1.7080    2.2850 C   0  0  0  0  0  0  0  0  0  0  0  0
   -4.7510   -2.8390    2.7540 N   0  0  0  0  0  0  0  0  0  0  0  0
  1  2  1  0
  2  3  2  3
  3  4  1  0
  3 24  1  0
  4  5  1  0
  5  6  1  6
  5 21  1  0
  6  7  1  0
  7  8  2  0
  7  9  1  0
  9 10  2  0
  9 11  1  0
 11 12  1  0
 12 13  2  0
 12 20  1  0
 13 14  1  0
 14 15  1  0
 14 19  2  0
 15 16  1  0
 16 17  1  0
 17 18  1  0
 19 20  1  0
 21 22  1  6
 21 23  1  0
 23 24  1  0
 24 25  2  0
M  CHG  1  25   1
M  END
