
     RDKit          3D

 20 22  0  0  0  0  0  0  0  0999 V2000
   -6.8510    1.1300    0.9410 F   0  0  0  0  0  0  0  0  0  0  0  0
   -5.5170    1.0850    0.6920 C   0  0  2  0  0  0  0  0  0  0  0  0
   -4.8240    2.1920    1.1310 F   0  0  0  0  0  0  0  0  0  0  0  0
   -5.2990    0.9090   -0.7600 C   0  0  0  0  0  0  0  0  0  0  0  0
   -4.1530    0.4910   -1.2570 C   0  0  0  0  0  0  0  0  0  0  0  0
   -3.8050    0.2750   -2.6530 C   0  0  0  0  0  0  0  0  0  0  0  0
   -2.5530   -0.1440   -2.6550 C   0  0  0  0  0  0  0  0  0  0  0  0
   -2.0160   -0.2290   -1.3130 C   0  0  0  0  0  0  0  0  0  0  0  0
   -0.7820   -0.6040   -0.7800 C   0  0  0  0  0  0  0  0  0  0  0  0
   -0.5360   -0.5900    0.5770 C   0  0  0  0  0  0  0  0  0  0  0  0
    0.7640   -0.9860    1.1290 C   0  0  0  0  0  0  0  0  0  0  0  0
    1.6700    0.1610    1.2390 N   0  0  0  0  0  0  0  0  0  0  0  0
    3.0200   -0.3670    1.1680 C   0  0  1  0  0  0  0  0  0  0  0  0
    3.2020   -0.9920   -0.1810 C   0  0  0  0  0  0  0  0  0  0  0  0
    4.4690   -0.3620   -0.7510 C   0  0  0  0  0  0  0  0  0  0  0  0
    4.3780    1.0380   -0.1460 C   0  0  0  0  0  0  0  0  0  0  0  0
    4.0480    0.7250    1.2930 C   0  0  0  0  0  0  0  0  0  0  0  0
   -1.5550   -0.1890    1.4160 C   0  0  0  0  0  0  0  0  0  0  0  0
   -2.7620    0.1790    0.9170 N   0  0  0  0  0  0  0  0  0  0  0  0
   -2.9930    0.1620   -0.4190 C   0  0  0  0  0  0  0  0  0  0  0  0
  2  1  1  6
  2  3  1  0
  2  4  1  0
  4  5  2  3
  5  6  1  0
  5 20  1  0
  6  7  2  0
  7  8  1  0
  8  9  2  0
  8 20  1  0
  9 10  1  0
 10 11  1  0
 10 18  2  0
 11 12  1  0
 13 12  1  6
 13 14  1  0
 13 17  1  0
 14 15  1  0
 15 16  1  0
 16 17  1  0
 18 19  1  0
 19 20  2  0
M  CHG  1  12   1
M  END
