
     RDKit          3D

 25 26  0  0  0  0  0  0  0  0999 V2000
    5.5970   -0.3290   -3.0440 C   0  0  0  0  0  0  0  0  0  0  0  0
    4.3410   -0.8150   -2.3600 C   0  0  1  0  0  0  0  0  0  0  0  0
    4.2780   -0.3860   -0.9280 C   0  0  0  0  0  0  0  0  0  0  0  0
    3.6080    0.9440   -0.9590 C   0  0  2  0  0  0  0  0  0  0  0  0
    4.5130    2.1110   -0.6970 C   0  0  0  0  0  0  0  0  0  0  0  0
    2.5470    0.9850    0.0550 N   0  0  0  0  0  0  0  0  0  0  0  0
    1.4490    0.1090    0.0210 C   0  0  0  0  0  0  0  0  0  0  0  0
    1.3990   -0.7280   -0.9450 O   0  0  0  0  0  0  0  0  0  0  0  0
    0.4030    0.1110    1.0000 N   0  0  0  0  0  0  0  0  0  0  0  0
   -0.6960   -0.8390    0.8770 C   0  0  0  0  0  0  0  0  0  0  0  0
   -1.6230   -0.6320    2.0260 C   0  0  0  0  0  0  0  0  0  0  0  0
   -1.0800   -0.8050    3.3650 C   0  0  0  0  0  0  0  0  0  0  0  0
   -1.8710   -0.6380    4.5160 N   0  0  0  0  0  0  0  0  0  0  0  0
    0.1310   -1.1130    3.5430 O   0  0  0  0  0  0  0  0  0  0  0  0
   -2.8810   -0.3100    1.8600 C   0  0  0  0  0  0  0  0  0  0  0  0
   -3.6920   -0.1340    3.0340 N   0  0  0  0  0  0  0  0  0  0  0  0
   -3.5240   -0.1150    0.6160 N   0  0  0  0  0  0  0  0  0  0  0  0
   -3.6780    1.1970    0.0880 C   0  0  0  0  0  0  0  0  0  0  0  0
   -4.4270    1.4040   -0.9120 N   0  0  0  0  0  0  0  0  0  0  0  0
   -5.1350    0.4380   -1.5640 N   0  0  0  0  0  0  0  0  0  0  0  0
   -5.2800   -0.8200   -0.8960 C   0  0  0  0  0  0  0  0  0  0  0  0
   -4.0460   -1.2650   -0.1320 C   0  0  0  0  0  0  0  0  0  0  0  0
    3.0130    0.9940   -2.3240 C   0  0  0  0  0  0  0  0  0  0  0  0
    2.4270    1.9710   -2.8480 O   0  0  0  0  0  0  0  0  0  0  0  0
    3.2060   -0.2230   -2.9460 O   0  0  0  0  0  0  0  0  0  0  0  0
  2  1  1  6
  2  3  1  0
  2 25  1  0
  3  4  1  0
  4  5  1  1
  4  6  1  0
  4 23  1  0
  6  7  1  0
  7  8  2  0
  7  9  1  0
  9 10  1  0
 10 11  1  0
 11 12  1  0
 11 15  2  3
 12 13  1  0
 12 14  2  0
 15 16  1  0
 15 17  1  0
 17 18  1  0
 17 22  1  0
 18 19  2  0
 19 20  1  0
 20 21  1  0
 21 22  1  0
 23 24  2  0
 23 25  1  0
M  CHG  1  20   1
M  END
