
     RDKit          3D

 26 27  0  0  0  0  0  0  0  0999 V2000
   -4.3180   -1.2740   -1.2920 C   0  0  0  0  0  0  0  0  0  0  0  0
   -4.4550   -0.2120   -0.2570 C   0  0  0  0  0  0  0  0  0  0  0  0
   -3.4070    0.1820    0.5030 C   0  0  0  0  0  0  0  0  0  0  0  0
   -2.2010   -0.4720    0.2500 N   0  0  0  0  0  0  0  0  0  0  0  0
   -0.9340   -0.3110    0.8480 C   0  0  0  0  0  0  0  0  0  0  0  0
   -0.7530    0.5030    1.7400 O   0  0  0  0  0  0  0  0  0  0  0  0
    0.2030   -1.0950    0.4380 N   0  0  0  0  0  0  0  0  0  0  0  0
    1.4590   -0.8580    1.1100 C   0  0  0  0  0  0  0  0  0  0  0  0
    2.4970   -1.7790    0.5270 C   0  0  0  0  0  0  0  0  0  0  0  0
    3.8310   -1.5910    1.1910 C   0  0  2  0  0  0  0  0  0  0  0  0
    4.3180   -0.1740    1.0150 C   0  0  0  0  0  0  0  0  0  0  0  0
    4.4490    0.1640   -0.4460 C   0  0  1  0  0  0  0  0  0  0  0  0
    5.2260    1.4590   -0.6310 C   0  0  0  0  0  0  0  0  0  0  0  0
    4.5760    2.5640    0.0380 N   0  0  0  0  0  0  0  0  0  0  0  0
    5.1270   -0.8610   -1.1140 O   0  0  0  0  0  0  0  0  0  0  0  0
    5.6260   -1.9540   -0.4420 C   0  0  0  0  0  0  0  0  0  0  0  0
    6.7230   -2.5150   -0.7080 O   0  0  0  0  0  0  0  0  0  0  0  0
    4.8360   -2.4840    0.6320 N   0  0  0  0  0  0  0  0  0  0  0  0
   -3.6230    1.2190    1.4950 C   0  0  0  0  0  0  0  0  0  0  0  0
   -2.7220    1.6270    2.2200 O   0  0  0  0  0  0  0  0  0  0  0  0
   -4.9660    1.7550    1.5900 N   0  0  0  0  0  0  0  0  0  0  0  0
   -6.0230    0.9200    1.2300 N   0  0  0  0  0  0  0  0  0  0  0  0
   -5.7080    0.4160   -0.0610 N   0  0  0  0  0  0  0  0  0  0  0  0
   -6.6530    0.5530   -1.1130 C   0  0  0  0  0  0  0  0  0  0  0  0
   -6.4090    1.3860   -2.0890 C   0  0  0  0  0  0  0  0  0  0  0  0
   -5.2440    2.1620   -2.1490 O   0  0  0  0  0  0  0  0  0  0  0  0
  1  2  1  0
  2  3  2  0
  2 23  1  0
  3  4  1  0
  3 19  1  0
  4  5  1  0
  5  6  2  0
  5  7  1  0
  7  8  1  0
  8  9  1  0
 10  9  1  6
 10 11  1  0
 10 18  1  0
 11 12  1  0
 12 13  1  1
 12 15  1  0
 13 14  1  0
 15 16  1  0
 16 17  2  0
 16 18  1  0
 19 20  2  0
 19 21  1  0
 21 22  1  0
 22 23  1  0
 23 24  1  0
 24 25  2  3
 25 26  1  0
M  CHG  1  14   1
M  END
