
     RDKit          3D

 19 20  0  0  0  0  0  0  0  0999 V2000
    0.1040    2.5620   -0.6020 N   0  0  0  0  0  0  0  0  0  0  0  0
    0.4850    1.8540    0.5530 C   0  0  0  0  0  0  0  0  0  0  0  0
    0.5820    2.5830    1.6170 O   0  0  0  0  0  0  0  0  0  0  0  0
    0.7790    0.4510    0.7190 C   0  0  1  0  0  0  0  0  0  0  0  0
   -0.2500   -0.5360    0.3030 C   0  0  0  0  0  0  0  0  0  0  0  0
   -1.5070   -0.3790    1.0090 N   0  0  0  0  0  0  0  0  0  0  0  0
   -2.3400   -1.5740    0.8050 C   0  0  0  0  0  0  0  0  0  0  0  0
   -3.0810   -1.4650   -0.4870 C   0  0  0  0  0  0  0  0  0  0  0  0
   -4.1310   -0.5340   -0.4010 O   0  0  0  0  0  0  0  0  0  0  0  0
   -3.7700    0.4840    0.5040 C   0  0  0  0  0  0  0  0  0  0  0  0
   -2.2740    0.7270    0.4450 C   0  0  0  0  0  0  0  0  0  0  0  0
    2.0700    0.0520    0.0280 C   0  0  0  0  0  0  0  0  0  0  0  0
    2.6390    0.9130   -0.7620 C   0  0  0  0  0  0  0  0  0  0  0  0
    3.8780    0.6540   -1.4840 C   0  0  0  0  0  0  0  0  0  0  0  0
    4.4020    1.5400   -2.1750 O   0  0  0  0  0  0  0  0  0  0  0  0
    4.6090   -0.9320   -1.3520 S   0  0  0  0  0  0  0  0  0  0  0  0
    5.9910   -0.7750   -0.7430 O   0  0  0  0  0  0  0  0  0  0  0  0
    3.6200   -1.8490   -0.2250 C   0  0  0  0  0  0  0  0  0  0  0  0
    2.5500   -1.2990    0.2940 C   0  0  0  0  0  0  0  0  0  0  0  0
  1  2  1  0
  2  3  2  0
  2  4  1  0
  4  5  1  6
  4 12  1  0
  5  6  1  0
  6  7  1  0
  6 11  1  0
  7  8  1  0
  8  9  1  0
  9 10  1  0
 10 11  1  0
 12 13  2  0
 12 19  1  0
 13 14  1  0
 14 15  2  0
 14 16  1  0
 16 17  2  0
 16 18  1  1
 18 19  2  0
M  END
