
     RDKit          3D

 19 20  0  0  0  0  0  0  0  0999 V2000
   -2.0530    2.2740   -0.0860 C   0  0  0  0  0  0  0  0  0  0  0  0
   -2.8570    0.9930   -0.2220 C   0  0  0  0  0  0  0  0  0  0  0  0
   -4.0790    0.9820    0.2120 C   0  0  0  0  0  0  0  0  0  0  0  0
   -5.0710   -0.1020    0.2090 C   0  0  0  0  0  0  0  0  0  0  0  0
   -4.4280   -1.5600   -0.5030 S   0  0  2  0  0  0  0  0  0  0  0  0
   -5.2850   -2.0640   -1.6440 O   0  0  0  0  0  0  0  0  0  0  0  0
   -4.3800   -2.6080    0.5970 O   0  0  0  0  0  0  0  0  0  0  0  0
   -2.7960   -1.2910   -1.0000 C   0  0  0  0  0  0  0  0  0  0  0  0
   -2.1950   -0.1400   -0.8350 C   0  0  0  0  0  0  0  0  0  0  0  0
   -0.8160   -0.0130   -1.2870 N   0  0  0  0  0  0  0  0  0  0  0  0
    0.2610    0.0390   -0.3350 C   0  0  0  0  0  0  0  0  0  0  0  0
    1.5800    0.1670   -0.9580 C   0  0  0  0  0  0  0  0  0  0  0  0
    1.6960    0.2220   -2.2110 O   0  0  0  0  0  0  0  0  0  0  0  0
    2.7440    0.2320   -0.1760 N   0  0  0  0  0  0  0  0  0  0  0  0
    4.1350    0.3590   -0.5850 C   0  0  0  0  0  0  0  0  0  0  0  0
    4.7750   -0.7590    0.2480 C   0  0  0  0  0  0  0  0  0  0  0  0
    4.0930   -0.5390    1.5820 C   0  0  2  0  0  0  0  0  0  0  0  0
    3.8290   -1.7110    2.2520 O   0  0  0  0  0  0  0  0  0  0  0  0
    2.8000    0.1840    1.2840 C   0  0  0  0  0  0  0  0  0  0  0  0
  1  2  1  0
  2  3  2  0
  2  9  1  0
  3  4  1  0
  5  4  1  1
  5  6  2  0
  5  7  2  0
  5  8  1  0
  8  9  2  0
  9 10  1  0
 10 11  1  0
 11 12  1  0
 12 13  2  0
 12 14  1  0
 14 15  1  0
 14 19  1  0
 15 16  1  0
 16 17  1  0
 17 18  1  6
 17 19  1  0
M  END
