
     RDKit          3D

 19 20  0  0  0  0  0  0  0  0999 V2000
    4.7890    0.4350   -1.1130 C   0  0  0  0  0  0  0  0  0  0  0  0
    4.4920    0.9930    0.2530 C   0  0  0  0  0  0  0  0  0  0  0  0
    4.3650   -0.0920    1.2960 C   0  0  0  0  0  0  0  0  0  0  0  0
    3.2540   -1.0520    0.9630 C   0  0  0  0  0  0  0  0  0  0  0  0
    1.9970   -0.3700    0.8880 N   0  0  0  0  0  0  0  0  0  0  0  0
    0.7670   -1.0010    0.5930 C   0  0  0  0  0  0  0  0  0  0  0  0
    0.7560   -2.2340    0.3800 O   0  0  0  0  0  0  0  0  0  0  0  0
   -0.4590   -0.2050    0.5430 C   0  0  1  0  0  0  0  0  0  0  0  0
   -0.4060    0.8610   -0.5600 C   0  0  0  0  0  0  0  0  0  0  0  0
   -1.4660    1.7460   -0.2580 O   0  0  0  0  0  0  0  0  0  0  0  0
   -2.7540    1.1630   -0.1800 C   0  0  0  0  0  0  0  0  0  0  0  0
   -3.6960    2.0830   -0.3680 C   0  0  0  0  0  0  0  0  0  0  0  0
   -5.4550    1.8150   -0.3580 S   0  0  0  0  0  0  0  0  0  0  0  0
   -5.7870    0.1710   -0.7750 N   0  0  0  0  0  0  0  0  0  0  0  0
   -5.2890   -0.8090    0.1220 C   0  0  0  0  0  0  0  0  0  0  0  0
   -3.8690   -1.0190    0.1920 C   0  0  0  0  0  0  0  0  0  0  0  0
   -3.5210   -2.3660    0.4460 O   0  0  0  0  0  0  0  0  0  0  0  0
   -2.8010   -0.2620    0.0780 C   0  0  0  0  0  0  0  0  0  0  0  0
   -1.6000   -0.9830    0.2360 O   0  0  0  0  0  0  0  0  0  0  0  0
  1  2  1  0
  2  3  1  0
  3  4  1  0
  4  5  1  0
  5  6  1  0
  6  7  2  0
  8  6  1  6
  8  9  1  0
  8 19  1  0
  9 10  1  0
 10 11  1  0
 11 12  2  0
 11 18  1  0
 12 13  1  0
 13 14  1  0
 14 15  1  0
 15 16  1  0
 16 17  1  0
 16 18  2  0
 18 19  1  0
M  END
