
     RDKit          3D

 19 20  0  0  0  0  0  0  0  0999 V2000
   -3.4930   -1.7140   -0.5720 C   0  0  0  0  0  0  0  0  0  0  0  0
   -3.2990   -0.2650   -0.2820 C   0  0  0  0  0  0  0  0  0  0  0  0
   -4.3750    0.4240    0.0620 C   0  0  0  0  0  0  0  0  0  0  0  0
   -4.2920    1.8350    0.3630 C   0  0  0  0  0  0  0  0  0  0  0  0
   -5.3370    2.4570    0.6850 O   0  0  0  0  0  0  0  0  0  0  0  0
   -3.0340    2.4540    0.2800 N   0  0  0  0  0  0  0  0  0  0  0  0
   -1.8360    1.7450   -0.0890 C   0  0  0  0  0  0  0  0  0  0  0  0
   -0.7490    2.3770   -0.1350 O   0  0  0  0  0  0  0  0  0  0  0  0
   -1.9570    0.3380   -0.3840 C   0  0  0  0  0  0  0  0  0  0  0  0
   -0.9370   -0.4210   -0.7000 C   0  0  0  0  0  0  0  0  0  0  0  0
    0.4500   -0.0290   -0.8580 C   0  0  0  0  0  0  0  0  0  0  0  0
    1.0520    0.9480   -1.5960 C   0  0  0  0  0  0  0  0  0  0  0  0
    2.4190    0.9000   -1.3860 C   0  0  0  0  0  0  0  0  0  0  0  0
    2.5910   -0.1430   -0.5000 C   0  0  0  0  0  0  0  0  0  0  0  0
    3.9280   -0.5500    0.0030 C   0  0  0  0  0  0  0  0  0  0  0  0
    3.8630   -1.6670    0.9000 N   0  0  0  0  0  0  0  0  0  0  0  0
    5.4960   -2.0360    1.4090 S   0  0  0  0  0  0  0  0  0  0  0  0
    6.4620   -1.5130    0.3550 O   0  0  0  0  0  0  0  0  0  0  0  0
    1.4270   -0.6500   -0.2230 O   0  0  0  0  0  0  0  0  0  0  0  0
  1  2  1  0
  2  3  2  0
  2  9  1  0
  3  4  1  0
  4  5  2  0
  4  6  1  0
  6  7  1  0
  7  8  2  0
  7  9  1  0
  9 10  2  3
 10 11  1  0
 11 12  2  0
 11 19  1  0
 12 13  1  0
 13 14  2  0
 14 15  1  0
 14 19  1  0
 15 16  1  0
 16 17  1  0
 17 18  2  0
M  END
