
     RDKit          3D

 19 19  0  0  0  0  0  0  0  0999 V2000
   -5.4050   -0.3070   -1.3430 C   0  0  0  0  0  0  0  0  0  0  0  0
   -5.0900    0.8080   -0.3750 C   0  0  0  0  0  0  0  0  0  0  0  0
   -3.7820    0.5770    0.1910 N   0  0  0  0  0  0  0  0  0  0  0  0
   -2.5980    0.5040   -0.5930 C   0  0  0  0  0  0  0  0  0  0  0  0
   -2.7130    0.6500   -1.8320 O   0  0  0  0  0  0  0  0  0  0  0  0
   -1.3060    0.2680    0.0370 C   0  0  0  0  0  0  0  0  0  0  0  0
   -0.1820    0.1940   -0.6640 C   0  0  0  0  0  0  0  0  0  0  0  0
   -0.2540    0.3600   -2.1550 C   0  0  0  0  0  0  0  0  0  0  0  0
    1.1120   -0.0430   -0.0300 C   0  0  0  0  0  0  0  0  0  0  0  0
    1.1750   -0.1880    1.2710 C   0  0  0  0  0  0  0  0  0  0  0  0
    2.4400   -0.4270    1.9610 C   0  0  0  0  0  0  0  0  0  0  0  0
    2.4460   -0.5610    3.2240 O   0  0  0  0  0  0  0  0  0  0  0  0
    3.6690   -0.5190    1.2970 N   0  0  0  0  0  0  0  0  0  0  0  0
    4.8670   -0.7580    2.0670 C   0  0  0  0  0  0  0  0  0  0  0  0
    4.8120   -0.8820    3.3170 O   0  0  0  0  0  0  0  0  0  0  0  0
    6.4710   -0.8880    1.2980 S   0  0  0  0  0  0  0  0  0  0  0  0
    6.3020   -0.6780   -0.4890 C   0  0  0  0  0  0  0  0  0  0  0  0
    0.0120   -0.1130    2.0080 O   0  0  0  0  0  0  0  0  0  0  0  0
   -1.2550    0.1060    1.5070 C   0  0  0  0  0  0  0  0  0  0  0  0
  1  2  1  0
  2  3  1  0
  3  4  1  0
  4  5  2  0
  4  6  1  0
  6  7  2  0
  6 19  1  0
  7  8  1  0
  7  9  1  0
  9 10  2  0
 10 11  1  0
 10 18  1  0
 11 12  2  0
 11 13  1  0
 13 14  1  0
 14 15  2  0
 14 16  1  0
 16 17  1  0
 18 19  1  0
M  END
