
     RDKit          3D

 26 28  0  0  0  0  0  0  0  0999 V2000
   -4.8670    0.4900    1.7900 C   0  0  0  0  0  0  0  0  0  0  0  0
   -4.9820   -0.4890    0.6210 C   0  0  1  0  0  0  0  0  0  0  0  0
   -6.3050   -0.5510    0.1930 O   0  0  0  0  0  0  0  0  0  0  0  0
   -4.1580    0.0680   -0.5040 C   0  0  2  0  0  0  0  0  0  0  0  0
   -4.2480   -0.7680   -1.6670 N   0  0  0  0  0  0  0  0  0  0  0  0
   -2.7350    0.2750   -0.0790 C   0  0  0  0  0  0  0  0  0  0  0  0
   -2.4860    0.9860    0.9280 O   0  0  0  0  0  0  0  0  0  0  0  0
   -1.6460   -0.2970   -0.7630 N   0  0  0  0  0  0  0  0  0  0  0  0
   -0.2760   -0.1050   -0.3630 C   0  0  2  0  0  0  0  0  0  0  0  0
    0.5460    0.4610   -1.4670 C   0  0  1  0  0  0  0  0  0  0  0  0
    0.7960    1.9250   -1.1970 C   0  0  0  0  0  0  0  0  0  0  0  0
   -0.4400    2.5570   -1.0530 O   0  0  0  0  0  0  0  0  0  0  0  0
    1.6780   -0.2810   -1.6290 O   0  0  0  0  0  0  0  0  0  0  0  0
    1.7990   -1.1630   -0.5720 C   0  0  1  0  0  0  0  0  0  0  0  0
    2.6820   -0.5540    0.4020 N   0  0  0  0  0  0  0  0  0  0  0  0
    2.4290   -0.1720    1.6690 C   0  0  0  0  0  0  0  0  0  0  0  0
    3.5800    0.3430    2.1660 N   0  0  0  0  0  0  0  0  0  0  0  0
    4.5460    0.2950    1.2490 C   0  0  0  0  0  0  0  0  0  0  0  0
    5.8730    0.6600    1.1870 C   0  0  0  0  0  0  0  0  0  0  0  0
    6.4500    1.2450    2.3430 N   0  0  0  0  0  0  0  0  0  0  0  0
    6.5760    0.4640    0.0730 N   0  0  0  0  0  0  0  0  0  0  0  0
    6.0210   -0.0920   -1.0220 C   0  0  0  0  0  0  0  0  0  0  0  0
    4.7320   -0.4530   -0.9780 N   0  0  0  0  0  0  0  0  0  0  0  0
    3.9710   -0.2760    0.1300 C   0  0  0  0  0  0  0  0  0  0  0  0
    0.4240   -1.4080   -0.0310 C   0  0  2  0  0  0  0  0  0  0  0  0
   -0.2220   -2.4640   -0.6760 O   0  0  0  0  0  0  0  0  0  0  0  0
  2  1  1  1
  2  3  1  0
  2  4  1  0
  4  5  1  6
  4  6  1  0
  6  7  2  0
  6  8  1  0
  9  8  1  6
  9 10  1  0
  9 25  1  0
 10 11  1  1
 10 13  1  0
 11 12  1  0
 13 14  1  0
 14 15  1  1
 14 25  1  0
 15 16  1  0
 15 24  1  0
 16 17  2  0
 17 18  1  0
 18 19  2  0
 18 24  1  0
 19 20  1  0
 19 21  1  0
 21 22  2  0
 22 23  1  0
 23 24  2  0
 25 26  1  6
M  CHG  1   5   1
M  END
