
     RDKit          3D

 26 28  0  0  0  0  0  0  0  0999 V2000
   -6.9320   -0.0410    0.9370 O   0  0  0  0  0  0  0  0  0  0  0  0
   -6.1050    0.8850    0.7930 C   0  0  0  0  0  0  0  0  0  0  0  0
   -6.3390    2.1690    0.3140 O   0  0  0  0  0  0  0  0  0  0  0  0
   -5.4290    3.0200    0.8470 N   0  0  0  0  0  0  0  0  0  0  0  0
   -4.2430    2.2360    1.1170 C   0  0  0  0  0  0  0  0  0  0  0  0
   -4.6600    0.7880    1.1180 C   0  0  1  0  0  0  0  0  0  0  0  0
   -4.4020    0.2430    2.3480 O   0  0  0  0  0  0  0  0  0  0  0  0
   -3.9000    0.0930   -0.0110 C   0  0  2  0  0  0  0  0  0  0  0  0
   -4.3550   -1.3390   -0.1340 C   0  0  0  0  0  0  0  0  0  0  0  0
   -3.7270   -1.9320   -1.2090 O   0  0  0  0  0  0  0  0  0  0  0  0
   -2.4800    0.1840    0.2040 N   0  0  0  0  0  0  0  0  0  0  0  0
   -1.4770   -0.1860   -0.7120 C   0  0  0  0  0  0  0  0  0  0  0  0
   -1.5900   -0.6800   -1.9400 N   0  0  0  0  0  0  0  0  0  0  0  0
   -0.4160   -0.8980   -2.4810 N   0  0  0  0  0  0  0  0  0  0  0  0
    0.5330   -0.5330   -1.5740 C   0  0  0  0  0  0  0  0  0  0  0  0
    1.9020   -0.6770   -1.8390 N   0  0  0  0  0  0  0  0  0  0  0  0
    2.9410   -0.2270   -0.9890 C   0  0  0  0  0  0  0  0  0  0  0  0
    2.8260    0.9360   -0.2650 C   0  0  0  0  0  0  0  0  0  0  0  0
    3.8430    1.3320    0.5820 C   0  0  0  0  0  0  0  0  0  0  0  0
    4.9620    0.5460    0.6850 C   0  0  0  0  0  0  0  0  0  0  0  0
    5.1150   -0.6270   -0.0260 C   0  0  0  0  0  0  0  0  0  0  0  0
    6.2890   -1.4490    0.0860 N   0  0  0  0  0  0  0  0  0  0  0  0
    7.2960   -1.0260    1.0350 C   0  0  0  0  0  0  0  0  0  0  0  0
    6.7150   -1.0390    2.3020 O   0  0  0  0  0  0  0  0  0  0  0  0
    4.0980   -1.0140   -0.8670 C   0  0  0  0  0  0  0  0  0  0  0  0
   -0.1320   -0.0990   -0.4960 N   0  0  0  0  0  0  0  0  0  0  0  0
  1  2  2  0
  2  3  1  0
  2  6  1  0
  3  4  1  0
  4  5  1  0
  5  6  1  0
  6  7  1  1
  6  8  1  0
  8  9  1  1
  8 11  1  0
  9 10  1  0
 11 12  1  0
 12 13  2  0
 12 26  1  0
 13 14  1  0
 14 15  2  0
 15 16  1  0
 15 26  1  0
 16 17  1  0
 17 18  2  0
 17 25  1  0
 18 19  1  0
 19 20  2  0
 20 21  1  0
 21 22  1  0
 21 25  2  0
 22 23  1  0
 23 24  1  0
M  CHG  1  14   1
M  END
