
     RDKit          3D

 25 26  0  0  0  0  0  0  0  0999 V2000
    6.4190   -1.6140    0.0380 C   0  0  0  0  0  0  0  0  0  0  0  0
    5.2800   -1.5630    1.0160 C   0  0  1  0  0  0  0  0  0  0  0  0
    4.5770   -0.2180    1.0140 C   0  0  0  0  0  0  0  0  0  0  0  0
    3.3350   -0.5230    0.2080 C   0  0  2  0  0  0  0  0  0  0  0  0
    3.6490   -0.5400   -1.2870 C   0  0  0  0  0  0  0  0  0  0  0  0
    2.2610    0.3890    0.4950 N   0  0  0  0  0  0  0  0  0  0  0  0
    1.0260    0.2760   -0.1480 C   0  0  0  0  0  0  0  0  0  0  0  0
    0.8690   -0.6580   -0.9980 O   0  0  0  0  0  0  0  0  0  0  0  0
   -0.0840    1.1340    0.0770 N   0  0  0  0  0  0  0  0  0  0  0  0
   -1.3190    0.9220   -0.6490 C   0  0  0  0  0  0  0  0  0  0  0  0
   -2.3350    1.9330   -0.2540 C   0  0  0  0  0  0  0  0  0  0  0  0
   -2.0490    3.3280   -0.4620 C   0  0  0  0  0  0  0  0  0  0  0  0
   -0.8240    3.7380   -1.0310 N   0  0  0  0  0  0  0  0  0  0  0  0
   -2.9090    4.1790   -0.1280 O   0  0  0  0  0  0  0  0  0  0  0  0
   -3.4600    1.5410    0.2700 C   0  0  0  0  0  0  0  0  0  0  0  0
   -4.4230    2.5130    0.6420 N   0  0  0  0  0  0  0  0  0  0  0  0
   -3.7100    0.1510    0.4610 N   0  0  0  0  0  0  0  0  0  0  0  0
   -3.1610   -0.5810    1.5470 C   0  0  0  0  0  0  0  0  0  0  0  0
   -3.3180   -1.8480    1.7070 N   0  0  0  0  0  0  0  0  0  0  0  0
   -4.0740   -2.5480    0.7570 N   0  0  0  0  0  0  0  0  0  0  0  0
   -5.1640   -1.7400    0.2770 C   0  0  0  0  0  0  0  0  0  0  0  0
   -4.5530   -0.5660   -0.4770 C   0  0  0  0  0  0  0  0  0  0  0  0
    3.0310   -1.9120    0.6740 C   0  0  0  0  0  0  0  0  0  0  0  0
    1.9130   -2.4260    0.9460 O   0  0  0  0  0  0  0  0  0  0  0  0
    4.2810   -2.5320    0.7440 O   0  0  0  0  0  0  0  0  0  0  0  0
  2  1  1  6
  2  3  1  0
  2 25  1  0
  3  4  1  0
  4  5  1  6
  4  6  1  0
  4 23  1  0
  6  7  1  0
  7  8  2  0
  7  9  1  0
  9 10  1  0
 10 11  1  0
 11 12  1  0
 11 15  2  3
 12 13  1  0
 12 14  2  0
 15 16  1  0
 15 17  1  0
 17 18  1  0
 17 22  1  0
 18 19  2  0
 19 20  1  0
 20 21  1  0
 21 22  1  0
 23 24  2  0
 23 25  1  0
M  CHG  1  20   1
M  END
