
     RDKit          3D

 25 26  0  0  0  0  0  0  0  0999 V2000
   -6.2800   -1.5850   -1.9710 N   0  0  0  0  0  0  0  0  0  0  0  0
   -5.0540   -1.6970   -1.2850 C   0  0  0  0  0  0  0  0  0  0  0  0
   -4.7660   -0.9330   -0.2560 C   0  0  0  0  0  0  0  0  0  0  0  0
   -3.4660   -1.0430    0.4780 C   0  0  0  0  0  0  0  0  0  0  0  0
   -2.8600    0.3180    0.7180 C   0  0  1  0  0  0  0  0  0  0  0  0
   -1.5260    0.3220    0.1160 N   0  0  0  0  0  0  0  0  0  0  0  0
   -0.3510    0.5210    0.8780 C   0  0  0  0  0  0  0  0  0  0  0  0
   -0.4570    0.6990    2.1070 O   0  0  0  0  0  0  0  0  0  0  0  0
    0.9860    0.5230    0.2580 C   0  0  0  0  0  0  0  0  0  0  0  0
    1.1050    0.3420   -0.9800 O   0  0  0  0  0  0  0  0  0  0  0  0
    2.1610    0.7250    1.0160 N   0  0  0  0  0  0  0  0  0  0  0  0
    3.4690    0.7250    0.3810 C   0  0  0  0  0  0  0  0  0  0  0  0
    4.6450    0.9020    0.9920 N   0  0  0  0  0  0  0  0  0  0  0  0
    5.5980    0.8320    0.0540 C   0  0  0  0  0  0  0  0  0  0  0  0
    7.0660    0.9590    0.1900 C   0  0  0  0  0  0  0  0  0  0  0  0
    7.7000   -0.4090    0.4470 C   0  0  0  0  0  0  0  0  0  0  0  0
    7.3730   -1.3160   -0.7370 C   0  0  0  0  0  0  0  0  0  0  0  0
    7.9720   -2.5600   -0.4620 O   0  0  0  0  0  0  0  0  0  0  0  0
    4.9580    0.6130   -1.1030 N   0  0  0  0  0  0  0  0  0  0  0  0
    3.6980    0.5540   -0.8840 O   0  0  0  0  0  0  0  0  0  0  0  0
   -3.7050    1.4250    0.1280 C   0  0  1  0  0  0  0  0  0  0  0  0
   -3.7930    1.3110   -1.2660 O   0  0  0  0  0  0  0  0  0  0  0  0
   -5.0960    1.3700    0.6970 C   0  0  0  0  0  0  0  0  0  0  0  0
   -5.7070    0.0690    0.2300 C   0  0  0  0  0  0  0  0  0  0  0  0
   -6.9540   -0.1420    0.2660 N   0  0  0  0  0  0  0  0  0  0  0  0
  1  2  1  0
  2  3  2  3
  3  4  1  0
  3 24  1  0
  4  5  1  0
  5  6  1  6
  5 21  1  0
  6  7  1  0
  7  8  2  0
  7  9  1  0
  9 10  2  0
  9 11  1  0
 11 12  1  0
 12 13  2  0
 12 20  1  0
 13 14  1  0
 14 15  1  0
 14 19  2  0
 15 16  1  0
 16 17  1  0
 17 18  1  0
 19 20  1  0
 21 22  1  6
 21 23  1  0
 23 24  1  0
 24 25  2  0
M  CHG  1  25   1
M  END
