
     RDKit          3D

 26 27  0  0  0  0  0  0  0  0999 V2000
   -0.0820   -4.4070   -2.5800 N   0  0  0  0  0  0  0  0  0  0  0  0
    0.0230   -3.6340   -1.3840 C   0  0  0  0  0  0  0  0  0  0  0  0
   -0.4660   -2.2170   -1.5430 C   0  0  2  0  0  0  0  0  0  0  0  0
    0.2780   -1.4410   -2.5760 C   0  0  0  0  0  0  0  0  0  0  0  0
    1.1210   -0.3950   -1.8320 C   0  0  0  0  0  0  0  0  0  0  0  0
    1.1890   -0.9660   -0.4630 C   0  0  1  0  0  0  0  0  0  0  0  0
    1.6880   -0.0900    0.6130 C   0  0  0  0  0  0  0  0  0  0  0  0
    3.0740    0.3480    0.3280 C   0  0  0  0  0  0  0  0  0  0  0  0
    3.6880   -0.0420   -0.6950 O   0  0  0  0  0  0  0  0  0  0  0  0
    3.7510    1.2280    1.2150 N   0  0  0  0  0  0  0  0  0  0  0  0
    5.1000    1.7040    1.0140 C   0  0  0  0  0  0  0  0  0  0  0  0
    5.2600    2.4790   -0.2740 C   0  0  0  0  0  0  0  0  0  0  0  0
    6.5950    2.8790   -0.3470 O   0  0  0  0  0  0  0  0  0  0  0  0
   -0.2000   -1.5050   -0.2310 C   0  0  1  0  0  0  0  0  0  0  0  0
   -1.1850   -0.4520   -0.1080 N   0  0  0  0  0  0  0  0  0  0  0  0
   -2.0250   -0.3910    1.0150 C   0  0  0  0  0  0  0  0  0  0  0  0
   -1.8990   -1.2730    1.9040 O   0  0  0  0  0  0  0  0  0  0  0  0
   -3.0460    0.6660    1.1840 C   0  0  0  0  0  0  0  0  0  0  0  0
   -3.1670    1.5440    0.2910 O   0  0  0  0  0  0  0  0  0  0  0  0
   -3.8840    0.7200    2.3110 N   0  0  0  0  0  0  0  0  0  0  0  0
   -4.8450    1.7480    2.4300 C   0  0  0  0  0  0  0  0  0  0  0  0
   -5.1100    2.7550    1.5850 N   0  0  0  0  0  0  0  0  0  0  0  0
   -6.0990    3.5060    2.0810 N   0  0  0  0  0  0  0  0  0  0  0  0
   -6.4770    2.9760    3.2620 C   0  0  0  0  0  0  0  0  0  0  0  0
   -7.3780    3.3840    4.0500 O   0  0  0  0  0  0  0  0  0  0  0  0
   -5.6890    1.8880    3.4620 N   0  0  0  0  0  0  0  0  0  0  0  0
  1  2  1  0
  3  2  1  1
  3  4  1  0
  3 14  1  0
  4  5  1  0
  5  6  1  0
  6  7  1  1
  6 14  1  0
  7  8  1  0
  8  9  2  0
  8 10  1  0
 10 11  1  0
 11 12  1  0
 12 13  1  0
 14 15  1  6
 15 16  1  0
 16 17  2  0
 16 18  1  0
 18 19  2  0
 18 20  1  0
 20 21  1  0
 21 22  2  0
 21 26  1  0
 22 23  1  0
 23 24  1  0
 24 25  2  0
 24 26  1  0
M  CHG  1   1   1
M  END
