
     RDKit          3D

 26 27  0  0  0  0  0  0  0  0999 V2000
    4.0440   -1.1170   -0.8270 C   0  0  0  0  0  0  0  0  0  0  0  0
    4.3570   -0.0430    0.1180 C   0  0  0  0  0  0  0  0  0  0  0  0
    3.4270    0.5480    0.8070 C   0  0  0  0  0  0  0  0  0  0  0  0
    2.0560    0.3580    0.8420 N   0  0  0  0  0  0  0  0  0  0  0  0
    1.1060   -0.4460    0.2390 C   0  0  0  0  0  0  0  0  0  0  0  0
    1.4150   -1.2730   -0.5890 O   0  0  0  0  0  0  0  0  0  0  0  0
   -0.3110   -0.3560    0.5540 N   0  0  0  0  0  0  0  0  0  0  0  0
   -1.2170   -1.2620   -0.1530 C   0  0  0  0  0  0  0  0  0  0  0  0
   -2.6270   -1.0450    0.2800 C   0  0  0  0  0  0  0  0  0  0  0  0
   -3.1300    0.3500    0.0240 C   0  0  2  0  0  0  0  0  0  0  0  0
   -4.5510    0.4240    0.5040 C   0  0  0  0  0  0  0  0  0  0  0  0
   -5.4980    0.4900   -0.6500 C   0  0  1  0  0  0  0  0  0  0  0  0
   -6.9450    0.4630   -0.2220 C   0  0  0  0  0  0  0  0  0  0  0  0
   -7.2550   -0.7390    0.5250 N   0  0  0  0  0  0  0  0  0  0  0  0
   -5.1880    1.6630   -1.3810 O   0  0  0  0  0  0  0  0  0  0  0  0
   -3.8860    1.7230   -1.8670 C   0  0  0  0  0  0  0  0  0  0  0  0
   -3.5190    2.5700   -2.7450 O   0  0  0  0  0  0  0  0  0  0  0  0
   -2.9690    0.7770   -1.3300 N   0  0  0  0  0  0  0  0  0  0  0  0
    3.9330    1.6540    1.6960 C   0  0  0  0  0  0  0  0  0  0  0  0
    3.1380    2.3000    2.4120 O   0  0  0  0  0  0  0  0  0  0  0  0
    5.3210    1.9210    1.6840 N   0  0  0  0  0  0  0  0  0  0  0  0
    6.2150    0.8700    1.3930 N   0  0  0  0  0  0  0  0  0  0  0  0
    5.7760    0.2760    0.2050 N   0  0  0  0  0  0  0  0  0  0  0  0
    6.6460   -0.0100   -0.8820 C   0  0  0  0  0  0  0  0  0  0  0  0
    7.4580   -1.0390   -0.9060 C   0  0  0  0  0  0  0  0  0  0  0  0
    8.2680   -1.2340   -2.0100 O   0  0  0  0  0  0  0  0  0  0  0  0
  1  2  1  0
  2  3  2  0
  2 23  1  0
  3  4  1  0
  3 19  1  0
  4  5  1  0
  5  6  2  0
  5  7  1  0
  7  8  1  0
  8  9  1  0
 10  9  1  6
 10 11  1  0
 10 18  1  0
 11 12  1  0
 12 13  1  1
 12 15  1  0
 13 14  1  0
 15 16  1  0
 16 17  2  0
 16 18  1  0
 19 20  2  0
 19 21  1  0
 21 22  1  0
 22 23  1  0
 23 24  1  0
 24 25  2  3
 25 26  1  0
M  CHG  1  14   1
M  END
