
     RDKit          3D

 18 18  0  0  0  0  0  0  0  0999 V2000
    4.2300   -0.1670    2.2390 C   0  0  0  0  0  0  0  0  0  0  0  0
    3.7130   -1.1040    1.2100 C   0  0  0  0  0  0  0  0  0  0  0  0
    3.7850   -0.6800   -0.2060 C   0  0  0  0  0  0  0  0  0  0  0  0
    3.0320    0.5380   -0.5850 C   0  0  2  0  0  0  0  0  0  0  0  0
    3.4320    1.7980    0.1110 C   0  0  0  0  0  0  0  0  0  0  0  0
    1.6600    0.2800   -0.4110 O   0  0  0  0  0  0  0  0  0  0  0  0
    0.9660    0.2890   -1.6070 C   0  0  0  0  0  0  0  0  0  0  0  0
   -0.4810    0.0130   -1.3910 C   0  0  0  0  0  0  0  0  0  0  0  0
   -1.3590   -0.0280   -2.4500 C   0  0  0  0  0  0  0  0  0  0  0  0
   -2.6910   -0.2860   -2.2210 C   0  0  0  0  0  0  0  0  0  0  0  0
   -3.6310   -0.3270   -3.3750 C   0  0  0  0  0  0  0  0  0  0  0  0
   -3.1760   -0.5090   -0.9300 C   0  0  0  0  0  0  0  0  0  0  0  0
   -4.5220   -0.7590   -0.7900 O   0  0  0  0  0  0  0  0  0  0  0  0
   -2.3040   -0.4700    0.1370 C   0  0  0  0  0  0  0  0  0  0  0  0
   -2.7820   -0.7000    1.5010 C   0  0  1  0  0  0  0  0  0  0  0  0
   -1.6560   -0.6010    2.5090 C   0  0  0  0  0  0  0  0  0  0  0  0
   -3.8520    0.2950    1.9230 C   0  0  0  0  0  0  0  0  0  0  0  0
   -0.9800   -0.2110   -0.1130 C   0  0  0  0  0  0  0  0  0  0  0  0
  1  2  1  0
  2  3  1  0
  3  4  1  0
  4  5  1  1
  4  6  1  0
  6  7  1  0
  7  8  1  0
  8  9  2  0
  8 18  1  0
  9 10  1  0
 10 11  1  0
 10 12  2  0
 12 13  1  0
 12 14  1  0
 14 15  1  0
 14 18  2  0
 15 16  1  1
 15 17  1  0
M  END
