
     RDKit          3D

 18 18  0  0  0  0  0  0  0  0999 V2000
    5.6530   -1.7910   -0.3960 C   0  0  0  0  0  0  0  0  0  0  0  0
    4.5010   -1.5580    0.1480 C   0  0  0  0  0  0  0  0  0  0  0  0
    3.7900   -0.3000   -0.0420 C   0  0  0  0  0  0  0  0  0  0  0  0
    2.4040   -0.4130   -0.2550 C   0  0  0  0  0  0  0  0  0  0  0  0
    1.6320    0.6900   -0.4220 C   0  0  0  0  0  0  0  0  0  0  0  0
    0.1770    0.5500   -0.6450 C   0  0  0  0  0  0  0  0  0  0  0  0
   -0.5970    0.5510    0.6480 C   0  0  0  0  0  0  0  0  0  0  0  0
   -2.0900    0.4150    0.4490 C   0  0  1  0  0  0  0  0  0  0  0  0
   -2.5710    1.4700   -0.3200 O   0  0  0  0  0  0  0  0  0  0  0  0
   -2.4220   -0.8880   -0.2280 C   0  0  0  0  0  0  0  0  0  0  0  0
   -3.8910   -1.1000   -0.4660 C   0  0  0  0  0  0  0  0  0  0  0  0
   -4.6430   -1.0970    0.8360 C   0  0  0  0  0  0  0  0  0  0  0  0
   -6.0090   -1.3030    0.6730 O   0  0  0  0  0  0  0  0  0  0  0  0
   -6.6500   -0.3660   -0.0920 C   0  0  0  0  0  0  0  0  0  0  0  0
    2.2040    1.9370   -0.3830 C   0  0  0  0  0  0  0  0  0  0  0  0
    3.5560    2.0900   -0.1770 C   0  0  0  0  0  0  0  0  0  0  0  0
    4.3440    0.9410   -0.0040 C   0  0  0  0  0  0  0  0  0  0  0  0
    5.8000    1.1050    0.2650 C   0  0  0  0  0  0  0  0  0  0  0  0
  1  2  2  0
  2  3  1  0
  3  4  2  0
  3 17  1  0
  4  5  1  0
  5  6  1  0
  5 15  2  0
  6  7  1  0
  7  8  1  0
  8  9  1  6
  8 10  1  0
 10 11  1  0
 11 12  1  0
 12 13  1  0
 13 14  1  0
 15 16  1  0
 16 17  2  0
 17 18  1  0
M  END
