
     RDKit          3D

 18 18  0  0  0  0  0  0  0  0999 V2000
   -3.9180    0.1820    1.4510 C   0  0  0  0  0  0  0  0  0  0  0  0
   -2.5420    0.5620    1.0230 C   0  0  0  0  0  0  0  0  0  0  0  0
   -2.0870   -0.1310   -0.2450 C   0  0  2  0  0  0  0  0  0  0  0  0
   -3.0960    0.2850   -1.3100 C   0  0  0  0  0  0  0  0  0  0  0  0
   -3.2000    1.7290   -1.5750 C   0  0  0  0  0  0  0  0  0  0  0  0
   -2.1680   -1.6150   -0.1480 C   0  0  0  0  0  0  0  0  0  0  0  0
   -0.8640   -2.3640   -0.2460 C   0  0  0  0  0  0  0  0  0  0  0  0
   -0.0040   -2.2080    0.9700 C   0  0  0  0  0  0  0  0  0  0  0  0
    1.3610   -1.7670    0.5880 C   0  0  0  0  0  0  0  0  0  0  0  0
    1.4600   -0.4400   -0.1170 C   0  0  2  0  0  0  0  0  0  0  0  0
    1.4050   -0.6760   -1.4980 O   0  0  0  0  0  0  0  0  0  0  0  0
    2.8320    0.0960    0.1870 C   0  0  0  0  0  0  0  0  0  0  0  0
    3.1740    1.4070   -0.4160 C   0  0  0  0  0  0  0  0  0  0  0  0
    4.5810    1.8300   -0.0550 C   0  0  0  0  0  0  0  0  0  0  0  0
    5.4880    1.0440    0.7840 C   0  0  0  0  0  0  0  0  0  0  0  0
    4.9550    2.8960   -0.5050 O   0  0  0  0  0  0  0  0  0  0  0  0
    0.3310    0.4880    0.2400 C   0  0  0  0  0  0  0  0  0  0  0  0
   -0.7730    0.3900   -0.7370 C   0  0  0  0  0  0  0  0  0  0  0  0
  1  2  1  0
  3  2  1  1
  3  4  1  0
  3  6  1  0
  3 18  1  0
  4  5  1  0
  6  7  1  0
  7  8  1  0
  8  9  1  0
  9 10  1  0
 10 11  1  6
 10 12  1  0
 10 17  1  0
 12 13  1  0
 13 14  1  0
 14 15  1  0
 14 16  2  0
 17 18  1  0
M  END
