
     RDKit          3D

 18 18  0  0  0  0  0  0  0  0999 V2000
   -2.5020    2.0210   -0.5000 C   0  0  0  0  0  0  0  0  0  0  0  0
   -1.1340    2.1430    0.0720 C   0  0  1  0  0  0  0  0  0  0  0  0
   -1.1750    3.4710    0.8780 C   0  0  0  0  0  0  0  0  0  0  0  0
   -0.5650    1.0590    0.8850 C   0  0  0  0  0  0  0  0  0  0  0  0
   -0.3650   -0.2960    0.2720 C   0  0  2  0  0  0  0  0  0  0  0  0
    0.5030   -0.1480   -0.9250 C   0  0  0  0  0  0  0  0  0  0  0  0
    1.8570    0.4280   -0.5960 C   0  0  0  0  0  0  0  0  0  0  0  0
    2.7720    0.6440   -1.6280 C   0  0  0  0  0  0  0  0  0  0  0  0
    3.9040    1.1650   -1.0530 C   0  0  0  0  0  0  0  0  0  0  0  0
    3.6240    1.2410    0.2990 C   0  0  0  0  0  0  0  0  0  0  0  0
    4.5950    1.7570    1.2930 C   0  0  0  0  0  0  0  0  0  0  0  0
    5.3450    0.6510    1.7260 O   0  0  0  0  0  0  0  0  0  0  0  0
    2.3950    0.7900    0.5110 O   0  0  0  0  0  0  0  0  0  0  0  0
   -1.6080   -1.0390    0.2120 C   0  0  0  0  0  0  0  0  0  0  0  0
   -1.6520   -2.4190   -0.3510 C   0  0  1  0  0  0  0  0  0  0  0  0
   -1.2710   -2.6480   -1.7460 C   0  0  0  0  0  0  0  0  0  0  0  0
   -0.8340   -3.3940    0.5130 C   0  0  0  0  0  0  0  0  0  0  0  0
   -3.1050   -2.8820   -0.1560 C   0  0  0  0  0  0  0  0  0  0  0  0
  2  1  1  1
  2  3  1  0
  2  4  1  0
  5  4  1  6
  5  6  1  0
  5 14  1  0
  6  7  1  0
  7  8  2  0
  7 13  1  0
  8  9  1  0
  9 10  2  0
 10 11  1  0
 10 13  1  0
 11 12  1  0
 14 15  1  0
 15 16  1  6
 15 17  1  0
 15 18  1  0
M  END
