
     RDKit          3D

 18 18  0  0  0  0  0  0  0  0999 V2000
   -5.0790   -0.1230    0.7640 C   0  0  0  0  0  0  0  0  0  0  0  0
   -3.9690   -0.6530   -0.1060 C   0  0  0  0  0  0  0  0  0  0  0  0
   -3.0170   -1.5700    0.6460 C   0  0  0  0  0  0  0  0  0  0  0  0
   -2.3470   -0.8910    1.7930 C   0  0  0  0  0  0  0  0  0  0  0  0
   -1.5300    0.3270    1.3970 C   0  0  0  0  0  0  0  0  0  0  0  0
   -0.4370   -0.0320    0.4900 C   0  0  0  0  0  0  0  0  0  0  0  0
   -0.2560   -1.2600    0.2690 O   0  0  0  0  0  0  0  0  0  0  0  0
    0.4270    0.9740   -0.1490 C   0  0  0  0  0  0  0  0  0  0  0  0
    0.3730    2.3460   -0.0810 C   0  0  0  0  0  0  0  0  0  0  0  0
   -0.5960    3.1650    0.7030 C   0  0  0  0  0  0  0  0  0  0  0  0
    1.3460    2.8540   -0.8470 O   0  0  0  0  0  0  0  0  0  0  0  0
    2.0320    1.9140   -1.4070 C   0  0  0  0  0  0  0  0  0  0  0  0
    3.2070    2.0960   -2.3390 C   0  0  0  0  0  0  0  0  0  0  0  0
    1.4980    0.6990   -1.0000 C   0  0  0  0  0  0  0  0  0  0  0  0
    2.0580   -0.6100   -1.3590 C   0  0  0  0  0  0  0  0  0  0  0  0
    3.0900   -1.1580   -0.4440 C   0  0  1  0  0  0  0  0  0  0  0  0
    2.7390   -1.3880    0.9720 C   0  0  0  0  0  0  0  0  0  0  0  0
    3.5710   -2.4720   -1.0580 C   0  0  0  0  0  0  0  0  0  0  0  0
  1  2  1  0
  2  3  1  0
  3  4  1  0
  4  5  1  0
  5  6  1  0
  6  7  2  0
  6  8  1  0
  8  9  2  0
  8 14  1  0
  9 10  1  0
  9 11  1  0
 11 12  1  0
 12 13  1  0
 12 14  2  0
 14 15  1  0
 15 16  1  0
 16 17  1  1
 16 18  1  0
M  END
