
     RDKit          3D

 18 18  0  0  0  0  0  0  0  0999 V2000
    3.9740   -0.0390    3.1950 C   0  0  0  0  0  0  0  0  0  0  0  0
    5.0520   -0.0240    2.3630 C   0  0  0  0  0  0  0  0  0  0  0  0
    4.8570   -0.3610    0.9230 C   0  0  0  0  0  0  0  0  0  0  0  0
    3.5260    0.1990    0.5010 C   0  0  0  0  0  0  0  0  0  0  0  0
    3.0630   -0.2050   -0.8970 C   0  0  0  0  0  0  0  0  0  0  0  0
    1.6720    0.4160   -1.2170 C   0  0  0  0  0  0  0  0  0  0  0  0
    0.6790    0.0180   -0.2070 C   0  0  0  0  0  0  0  0  0  0  0  0
   -0.7460    0.2600   -0.3180 C   0  0  0  0  0  0  0  0  0  0  0  0
   -1.4470    1.2190    0.4160 C   0  0  0  0  0  0  0  0  0  0  0  0
   -2.8300    1.2030    0.4760 C   0  0  0  0  0  0  0  0  0  0  0  0
   -3.5940    1.9000    1.5480 C   0  0  0  0  0  0  0  0  0  0  0  0
   -4.5800    2.7890    1.0690 O   0  0  0  0  0  0  0  0  0  0  0  0
   -3.5020    0.2280   -0.2100 C   0  0  0  0  0  0  0  0  0  0  0  0
   -4.9620    0.2410   -0.1780 C   0  0  0  0  0  0  0  0  0  0  0  0
   -2.8030   -0.7680   -0.9700 C   0  0  0  0  0  0  0  0  0  0  0  0
   -1.4830   -0.7700   -1.0310 C   0  0  0  0  0  0  0  0  0  0  0  0
   -0.6970   -1.7000   -1.7520 O   0  0  0  0  0  0  0  0  0  0  0  0
   -1.2720   -2.8260   -2.3970 C   0  0  0  0  0  0  0  0  0  0  0  0
  1  2  2  0
  2  3  1  0
  3  4  1  0
  4  5  1  0
  5  6  1  0
  6  7  1  0
  7  8  1  0
  8  9  2  0
  8 16  1  0
  9 10  1  0
 10 11  1  0
 10 13  2  0
 11 12  1  0
 13 14  1  0
 13 15  1  0
 15 16  2  0
 16 17  1  0
 17 18  1  0
M  END
