
     RDKit          3D

 19 21  0  0  0  0  0  0  0  0999 V2000
   -5.4140   -0.0370    1.9630 N   0  0  0  0  0  0  0  0  0  0  0  0
   -4.3110   -0.0060    1.2940 C   0  0  0  0  0  0  0  0  0  0  0  0
   -2.9780    0.0460    1.8210 N   0  0  0  0  0  0  0  0  0  0  0  0
   -2.0910    0.0640    0.7110 C   0  0  0  0  0  0  0  0  0  0  0  0
   -0.5950    0.1160    0.7780 C   0  0  0  0  0  0  0  0  0  0  0  0
   -0.0080    0.1210   -0.5450 N   0  0  1  0  0  0  0  0  0  0  0  0
    0.6170    1.3840   -0.8600 C   0  0  0  0  0  0  0  0  0  0  0  0
    1.9030    1.6260   -0.1620 C   0  0  0  0  0  0  0  0  0  0  0  0
    2.4860    0.3760    0.4410 C   0  0  2  0  0  0  0  0  0  0  0  0
    3.7890    0.5650    0.8440 O   0  0  0  0  0  0  0  0  0  0  0  0
    4.7160   -0.2050    0.1820 C   0  0  0  0  0  0  0  0  0  0  0  0
    4.3140   -1.6080   -0.0760 C   0  0  0  0  0  0  0  0  0  0  0  0
    2.9680   -1.8590   -0.0310 O   0  0  0  0  0  0  0  0  0  0  0  0
    2.3010   -0.7370   -0.5350 C   0  0  1  0  0  0  0  0  0  0  0  0
    0.8600   -1.0080   -0.7590 C   0  0  0  0  0  0  0  0  0  0  0  0
   -2.7430    0.0280   -0.3900 N   0  0  0  0  0  0  0  0  0  0  0  0
   -4.1430   -0.0180   -0.1470 C   0  0  0  0  0  0  0  0  0  0  0  0
   -5.1320   -0.0630   -1.0240 C   0  0  0  0  0  0  0  0  0  0  0  0
   -6.4530   -0.1030   -0.6070 O   0  0  0  0  0  0  0  0  0  0  0  0
  1  2  2  0
  2  3  1  0
  2 17  1  0
  3  4  1  0
  4  5  1  0
  4 16  2  0
  6  5  1  1
  6  7  1  0
  6 15  1  0
  7  8  1  0
  9  8  1  6
  9 10  1  0
  9 14  1  0
 10 11  1  0
 11 12  1  0
 12 13  1  0
 13 14  1  0
 14 15  1  1
 16 17  1  0
 17 18  2  3
 18 19  1  0
M  CHG  1   6   1
M  END
