
     RDKit          3D

 18 18  0  0  0  0  0  0  0  0999 V2000
   -4.5800    1.9370    0.5290 C   0  0  0  0  0  0  0  0  0  0  0  0
   -4.2140    0.9530   -0.5440 C   0  0  0  0  0  0  0  0  0  0  0  0
   -3.0100    0.0950   -0.0970 C   0  0  0  0  0  0  0  0  0  0  0  0
   -2.6570   -0.8850   -1.1630 C   0  0  0  0  0  0  0  0  0  0  0  0
   -1.4870   -1.7710   -0.9230 C   0  0  0  0  0  0  0  0  0  0  0  0
   -0.1930   -1.0930   -0.7360 C   0  0  0  0  0  0  0  0  0  0  0  0
    0.5430   -0.7380   -1.8910 C   0  0  0  0  0  0  0  0  0  0  0  0
    1.6880    0.0080   -1.8330 C   0  0  0  0  0  0  0  0  0  0  0  0
    2.4460    0.3670   -3.0640 C   0  0  0  0  0  0  0  0  0  0  0  0
    2.0960    0.4060   -0.5780 C   0  0  0  0  0  0  0  0  0  0  0  0
    3.2700    1.1720   -0.5430 O   0  0  0  0  0  0  0  0  0  0  0  0
    3.7050    1.5920    0.7490 C   0  0  0  0  0  0  0  0  0  0  0  0
    4.9820    2.3980    0.5950 C   0  0  0  0  0  0  0  0  0  0  0  0
    1.4000    0.0720    0.5590 C   0  0  0  0  0  0  0  0  0  0  0  0
    0.2220   -0.7020    0.4950 C   0  0  0  0  0  0  0  0  0  0  0  0
   -0.3530   -1.1250    1.7990 C   0  0  0  0  0  0  0  0  0  0  0  0
    0.3450   -2.4280    2.2250 C   0  0  0  0  0  0  0  0  0  0  0  0
    0.1970   -3.4580    1.3330 O   0  0  0  0  0  0  0  0  0  0  0  0
  1  2  1  0
  2  3  1  0
  3  4  1  0
  4  5  1  0
  5  6  1  0
  6  7  2  0
  6 15  1  0
  7  8  1  0
  8  9  1  0
  8 10  2  0
 10 11  1  0
 10 14  1  0
 11 12  1  0
 12 13  1  0
 14 15  2  0
 15 16  1  0
 16 17  1  0
 17 18  1  0
M  END
