
     RDKit          3D

 18 18  0  0  0  0  0  0  0  0999 V2000
    4.6160    1.8810   -0.5110 C   0  0  0  0  0  0  0  0  0  0  0  0
    3.2310    1.8750   -1.1120 C   0  0  0  0  0  0  0  0  0  0  0  0
    2.1340    2.0290   -0.1340 C   0  0  0  0  0  0  0  0  0  0  0  0
    1.9250    1.0110    0.9060 C   0  0  0  0  0  0  0  0  0  0  0  0
    1.5790   -0.3470    0.5080 C   0  0  0  0  0  0  0  0  0  0  0  0
    2.4390   -1.3370    0.1190 C   0  0  0  0  0  0  0  0  0  0  0  0
    3.9290   -1.3600    0.0110 C   0  0  0  0  0  0  0  0  0  0  0  0
    1.7420   -2.3810   -0.1800 O   0  0  0  0  0  0  0  0  0  0  0  0
    0.4600   -2.2000   -0.0300 C   0  0  0  0  0  0  0  0  0  0  0  0
   -0.5810   -3.2300   -0.3000 C   0  0  0  0  0  0  0  0  0  0  0  0
    0.2970   -0.9010    0.4130 C   0  0  0  0  0  0  0  0  0  0  0  0
   -0.9380   -0.2330    0.7100 C   0  0  0  0  0  0  0  0  0  0  0  0
   -0.9170    0.9640    1.0910 O   0  0  0  0  0  0  0  0  0  0  0  0
   -2.2850   -0.8330    0.6090 C   0  0  0  0  0  0  0  0  0  0  0  0
   -3.4010    0.1390    0.9590 C   0  0  2  0  0  0  0  0  0  0  0  0
   -4.7000   -0.6720    0.8030 C   0  0  0  0  0  0  0  0  0  0  0  0
   -3.5040    1.2970    0.0140 C   0  0  0  0  0  0  0  0  0  0  0  0
   -3.7690    0.8840   -1.4090 C   0  0  0  0  0  0  0  0  0  0  0  0
  1  2  1  0
  2  3  1  0
  3  4  1  0
  4  5  1  0
  5  6  2  0
  5 11  1  0
  6  7  1  0
  6  8  1  0
  8  9  1  0
  9 10  1  0
  9 11  2  0
 11 12  1  0
 12 13  2  0
 12 14  1  0
 14 15  1  0
 15 16  1  6
 15 17  1  0
 17 18  1  0
M  END
