
     RDKit          3D

 17 17  0  0  0  0  0  0  0  0999 V2000
    0.1080   -0.9490   -1.1630 O   0  0  0  0  0  0  0  0  0  0  0  0
    0.7480   -0.6870   -0.1210 C   0  0  0  0  0  0  0  0  0  0  0  0
    2.2480   -0.5390   -0.2350 C   0  0  0  0  0  0  0  0  0  0  0  0
    2.7520   -0.2560    1.0040 O   0  0  0  0  0  0  0  0  0  0  0  0
    4.0990   -0.1150    1.1270 C   0  0  0  0  0  0  0  0  0  0  0  0
    4.6870    0.8820    0.3840 O   0  0  0  0  0  0  0  0  0  0  0  0
    4.5740    0.7950   -0.8940 O   0  0  0  0  0  0  0  0  0  0  0  0
    5.4880    0.0500   -1.4710 O   0  0  0  0  0  0  0  0  0  0  0  0
    0.1010   -0.5400    1.0860 O   0  0  0  0  0  0  0  0  0  0  0  0
   -1.2240   -0.6680    1.2000 O   0  0  0  0  0  0  0  0  0  0  0  0
   -1.8590    0.4010    0.5710 C   0  0  0  0  0  0  0  0  0  0  0  0
   -3.3580    0.1550    0.7610 C   0  0  2  0  0  0  0  0  0  0  0  0
   -3.7000   -1.0110   -0.1550 C   0  0  0  0  0  0  0  0  0  0  0  0
   -3.7200   -0.3680   -1.4270 O   0  0  0  0  0  0  0  0  0  0  0  0
   -4.0140    0.9830   -1.2720 C   0  0  0  0  0  0  0  0  0  0  0  0
   -4.1910    1.8500   -2.1710 O   0  0  0  0  0  0  0  0  0  0  0  0
   -4.0840    1.2340    0.1270 N   0  0  0  0  0  0  0  0  0  0  0  0
  1  2  2  0
  2  3  1  0
  2  9  1  0
  3  4  1  0
  4  5  1  0
  5  6  1  0
  6  7  1  0
  7  8  1  0
  9 10  1  0
 10 11  1  0
 12 11  1  6
 12 13  1  0
 12 17  1  0
 13 14  1  0
 14 15  1  0
 15 16  2  0
 15 17  1  0
M  END
