
     RDKit          3D

 17 17  0  0  0  0  0  0  0  0999 V2000
    2.5280    1.2580    0.8030 O   0  0  0  0  0  0  0  0  0  0  0  0
    3.1890    0.3790    0.1890 C   0  0  0  0  0  0  0  0  0  0  0  0
    4.5980    0.1650    0.5720 C   0  0  0  0  0  0  0  0  0  0  0  0
    5.0100    1.0090    1.5870 O   0  0  0  0  0  0  0  0  0  0  0  0
    6.2830    0.7380    1.8410 O   0  0  0  0  0  0  0  0  0  0  0  0
    2.5280   -0.3030   -0.7900 O   0  0  0  0  0  0  0  0  0  0  0  0
    1.2410   -0.1560   -1.2000 N   0  0  0  0  0  0  0  0  0  0  0  0
    0.0990   -0.4920   -0.4240 C   0  0  0  0  0  0  0  0  0  0  0  0
    0.3090   -0.9500    0.7060 O   0  0  0  0  0  0  0  0  0  0  0  0
   -1.1820   -0.3240   -0.8770 O   0  0  0  0  0  0  0  0  0  0  0  0
   -2.3380   -0.6210   -0.1780 C   0  0  1  0  0  0  0  0  0  0  0  0
   -2.5470    0.1050    1.1220 C   0  0  0  0  0  0  0  0  0  0  0  0
   -2.5780    1.4810    0.8090 O   0  0  0  0  0  0  0  0  0  0  0  0
   -2.7570    2.2080    1.9020 O   0  0  0  0  0  0  0  0  0  0  0  0
   -3.5470   -0.2780   -1.0820 C   0  0  0  0  0  0  0  0  0  0  0  0
   -4.2490   -1.3690   -0.5780 O   0  0  0  0  0  0  0  0  0  0  0  0
   -2.9800   -1.9490   -0.3290 C   0  0  0  0  0  0  0  0  0  0  0  0
  1  2  2  0
  2  3  1  0
  2  6  1  0
  3  4  1  0
  4  5  1  0
  6  7  1  0
  7  8  1  0
  8  9  2  0
  8 10  1  0
 10 11  1  0
 11 12  1  1
 11 15  1  0
 11 17  1  0
 12 13  1  0
 13 14  1  0
 15 16  1  0
 16 17  1  0
M  END
