
     RDKit          3D

 17 16  0  0  0  0  0  0  0  0999 V2000
    3.1250   -0.2980    0.8560 O   0  0  0  0  0  0  0  0  0  0  0  0
    2.9400   -0.7480   -0.3160 C   0  0  0  0  0  0  0  0  0  0  0  0
    1.6130   -0.7260   -0.8180 N   0  0  0  0  0  0  0  0  0  0  0  0
    0.5370   -0.1990    0.0130 C   0  0  0  0  0  0  0  0  0  0  0  0
   -0.7920   -0.2810   -0.7440 C   0  0  1  0  0  0  0  0  0  0  0  0
   -1.0420   -1.6180   -1.0500 O   0  0  0  0  0  0  0  0  0  0  0  0
   -1.8590    0.1710    0.2280 C   0  0  0  0  0  0  0  0  0  0  0  0
   -3.1390    0.0530   -0.3160 O   0  0  0  0  0  0  0  0  0  0  0  0
   -4.0190    0.5070    0.6940 C   0  0  0  0  0  0  0  0  0  0  0  0
   -5.4540    0.4300    0.2280 C   0  0  0  0  0  0  0  0  0  0  0  0
   -6.2460    0.8930    1.2770 O   0  0  0  0  0  0  0  0  0  0  0  0
    4.0060   -1.2360   -1.0580 O   0  0  0  0  0  0  0  0  0  0  0  0
    5.2330   -1.2050   -0.4680 O   0  0  0  0  0  0  0  0  0  0  0  0
    5.8970   -0.0130   -0.2130 C   0  0  0  0  0  0  0  0  0  0  0  0
    5.3380    1.0630   -0.5430 O   0  0  0  0  0  0  0  0  0  0  0  0
    7.1400    0.0190    0.3850 O   0  0  0  0  0  0  0  0  0  0  0  0
    7.7630    1.1970    0.6200 O   0  0  0  0  0  0  0  0  0  0  0  0
  1  2  2  0
  2  3  1  0
  2 12  1  0
  3  4  1  0
  4  5  1  0
  5  6  1  1
  5  7  1  0
  7  8  1  0
  8  9  1  0
  9 10  1  0
 10 11  1  0
 12 13  1  0
 13 14  1  0
 14 15  2  0
 14 16  1  0
 16 17  1  0
M  END
