
     RDKit          3D

 17 16  0  0  0  0  0  0  0  0999 V2000
   -5.1910   -0.1280   -1.9080 O   0  0  0  0  0  0  0  0  0  0  0  0
   -5.5070   -0.0740   -0.6940 C   0  0  0  0  0  0  0  0  0  0  0  0
   -6.8200    0.0050   -0.3220 O   0  0  0  0  0  0  0  0  0  0  0  0
   -4.4520   -0.1010    0.2280 O   0  0  0  0  0  0  0  0  0  0  0  0
   -3.0910   -0.1860   -0.2620 C   0  0  0  0  0  0  0  0  0  0  0  0
   -2.2760   -0.1950    0.8250 O   0  0  0  0  0  0  0  0  0  0  0  0
   -0.9340   -0.2770    0.6800 C   0  0  0  0  0  0  0  0  0  0  0  0
   -0.3190    0.8640   -0.0230 C   0  0  2  0  0  0  0  0  0  0  0  0
   -0.7090    1.1160   -1.3060 O   0  0  0  0  0  0  0  0  0  0  0  0
   -0.9760    2.3970   -1.5140 O   0  0  0  0  0  0  0  0  0  0  0  0
    1.2010    0.7470    0.0240 C   0  0  0  0  0  0  0  0  0  0  0  0
    1.8480    0.8700   -1.0440 O   0  0  0  0  0  0  0  0  0  0  0  0
    1.9090    0.5060    1.2130 N   0  0  0  0  0  0  0  0  0  0  0  0
    3.3400    0.3930    1.2640 C   0  0  0  0  0  0  0  0  0  0  0  0
    3.8840   -0.7300    0.4150 C   0  0  0  0  0  0  0  0  0  0  0  0
    5.2760   -0.7420    0.5430 O   0  0  0  0  0  0  0  0  0  0  0  0
    5.8400   -1.6820   -0.1570 O   0  0  0  0  0  0  0  0  0  0  0  0
  1  2  2  0
  2  3  1  0
  2  4  1  0
  4  5  1  0
  5  6  1  0
  6  7  1  0
  8  7  1  6
  8  9  1  0
  8 11  1  0
  9 10  1  0
 11 12  2  0
 11 13  1  0
 13 14  1  0
 14 15  1  0
 15 16  1  0
 16 17  1  0
M  END
