
     RDKit          3D

 18 18  0  0  0  0  0  0  0  0999 V2000
    2.1140    0.5260    1.2730 O   0  0  0  0  0  0  0  0  0  0  0  0
    1.9180    0.0190    0.1270 C   0  0  0  0  0  0  0  0  0  0  0  0
    2.7950    0.3310   -0.9430 N   0  0  0  0  0  0  0  0  0  0  0  0
    3.9140    1.2210   -0.7480 C   0  0  0  0  0  0  0  0  0  0  0  0
    4.7510    0.6720    0.2340 O   0  0  0  0  0  0  0  0  0  0  0  0
    5.7690    1.4600    0.4270 O   0  0  0  0  0  0  0  0  0  0  0  0
    0.7610   -0.8920   -0.0440 C   0  0  2  0  0  0  0  0  0  0  0  0
    0.7420   -1.3260   -1.3720 O   0  0  0  0  0  0  0  0  0  0  0  0
   -0.0880   -2.4050   -1.3830 O   0  0  0  0  0  0  0  0  0  0  0  0
   -1.0460   -2.3920   -0.3810 C   0  0  0  0  0  0  0  0  0  0  0  0
   -1.5230   -3.3980    0.1900 O   0  0  0  0  0  0  0  0  0  0  0  0
   -1.5140   -1.0410    0.0130 C   0  0  1  0  0  0  0  0  0  0  0  0
   -2.4440   -1.1270    1.0270 O   0  0  0  0  0  0  0  0  0  0  0  0
   -3.6420   -0.5940    0.5510 C   0  0  0  0  0  0  0  0  0  0  0  0
   -3.3370    1.1680    0.0780 P   0  0  0  0  0  0  0  0  0  0  0  0
   -3.5930    1.3800   -1.6430 O   0  0  0  0  0  0  0  0  0  0  0  0
   -4.4030    2.2410    0.9310 O   0  0  0  0  0  0  0  0  0  0  0  0
   -0.4030   -0.2890    0.3510 O   0  0  0  0  0  0  0  0  0  0  0  0
  1  2  2  0
  2  3  1  0
  7  2  1  6
  3  4  1  0
  4  5  1  0
  5  6  1  0
  7  8  1  0
  7 18  1  0
  8  9  1  0
  9 10  1  0
 10 11  2  0
 10 12  1  0
 12 13  1  1
 12 18  1  0
 13 14  1  0
 14 15  1  0
 15 16  1  0
 15 17  1  0
M  END
