
     RDKit          3D

 17 17  0  0  0  0  0  0  0  0999 V2000
   -5.7990    0.7670    0.4970 O   0  0  0  0  0  0  0  0  0  0  0  0
   -4.5680    0.8630    0.3080 C   0  0  0  0  0  0  0  0  0  0  0  0
   -3.8520   -0.0780   -0.4640 N   0  0  0  0  0  0  0  0  0  0  0  0
   -2.4460    0.1040   -0.7900 C   0  0  2  0  0  0  0  0  0  0  0  0
   -1.6430   -1.0750   -0.3820 C   0  0  0  0  0  0  0  0  0  0  0  0
   -2.1430   -2.0870    0.1730 O   0  0  0  0  0  0  0  0  0  0  0  0
   -0.2900   -1.0710   -0.6160 O   0  0  0  0  0  0  0  0  0  0  0  0
    0.4900   -2.1060   -0.2700 O   0  0  0  0  0  0  0  0  0  0  0  0
    1.1930   -1.8480    0.8870 C   0  0  0  0  0  0  0  0  0  0  0  0
    2.0350   -0.7370    0.7830 O   0  0  0  0  0  0  0  0  0  0  0  0
    2.9800   -0.9240   -0.2340 C   0  0  0  0  0  0  0  0  0  0  0  0
    3.8680    0.2970   -0.3120 C   0  0  0  0  0  0  0  0  0  0  0  0
    3.0610    1.3970   -0.5940 O   0  0  0  0  0  0  0  0  0  0  0  0
    3.7560    2.4980   -0.6780 O   0  0  0  0  0  0  0  0  0  0  0  0
   -1.9360    1.3910   -0.2050 C   0  0  0  0  0  0  0  0  0  0  0  0
   -2.5150    1.6590    1.0500 O   0  0  0  0  0  0  0  0  0  0  0  0
   -3.8260    1.9230    0.8580 O   0  0  0  0  0  0  0  0  0  0  0  0
  1  2  2  0
  2  3  1  0
  2 17  1  0
  3  4  1  0
  4  5  1  1
  4 15  1  0
  5  6  2  0
  5  7  1  0
  7  8  1  0
  8  9  1  0
  9 10  1  0
 10 11  1  0
 11 12  1  0
 12 13  1  0
 13 14  1  0
 15 16  1  0
 16 17  1  0
M  END
