
     RDKit          3D

 17 16  0  0  0  0  0  0  0  0999 V2000
    1.5820    1.1260   -0.5240 O   0  0  0  0  0  0  0  0  0  0  0  0
    1.3530   -0.0650   -0.7570 C   0  0  0  0  0  0  0  0  0  0  0  0
    2.3230   -1.0330   -1.0870 N   0  0  0  0  0  0  0  0  0  0  0  0
    3.7170   -0.7660   -1.1850 C   0  0  0  0  0  0  0  0  0  0  0  0
    4.3120   -0.3540    0.1110 C   0  0  0  0  0  0  0  0  0  0  0  0
    3.7380    0.7890    0.5980 O   0  0  0  0  0  0  0  0  0  0  0  0
    4.2470    1.1690    1.7380 O   0  0  0  0  0  0  0  0  0  0  0  0
    0.0160   -0.5010   -0.6900 O   0  0  0  0  0  0  0  0  0  0  0  0
   -1.0080    0.3930   -0.3700 C   0  0  0  0  0  0  0  0  0  0  0  0
   -0.6670    1.5870   -0.1500 O   0  0  0  0  0  0  0  0  0  0  0  0
   -2.4190   -0.0640   -0.2980 C   0  0  2  0  0  0  0  0  0  0  0  0
   -2.8340   -0.6700   -1.6180 C   0  0  0  0  0  0  0  0  0  0  0  0
   -2.6910    0.3000   -2.6070 O   0  0  0  0  0  0  0  0  0  0  0  0
   -3.1930    1.0320    0.0360 O   0  0  0  0  0  0  0  0  0  0  0  0
   -3.8120    0.7710    1.2640 C   0  0  0  0  0  0  0  0  0  0  0  0
   -2.8030    0.5630    2.2050 O   0  0  0  0  0  0  0  0  0  0  0  0
   -3.3180    0.3120    3.3850 O   0  0  0  0  0  0  0  0  0  0  0  0
  1  2  2  0
  2  3  1  0
  2  8  1  0
  3  4  1  0
  4  5  1  0
  5  6  1  0
  6  7  1  0
  8  9  1  0
  9 10  2  0
  9 11  1  0
 11 12  1  6
 11 14  1  0
 12 13  1  0
 14 15  1  0
 15 16  1  0
 16 17  1  0
M  END
