
     RDKit          3D

 21 22  0  0  0  0  0  0  0  0999 V2000
   -6.0660    1.2130    0.2530 O   0  0  0  0  0  0  0  0  0  0  0  0
   -4.8570    0.8520    0.0660 C   0  0  0  0  0  0  0  0  0  0  0  0
   -4.0440    0.4890    1.1150 C   0  0  0  0  0  0  0  0  0  0  0  0
   -2.7350    0.1020    0.8620 C   0  0  0  0  0  0  0  0  0  0  0  0
   -2.2270    0.0690   -0.3790 N   0  0  0  0  0  0  0  0  0  0  0  0
   -0.8720   -0.3370   -0.5850 C   0  0  2  0  0  0  0  0  0  0  0  0
   -0.5760   -1.4640    0.1340 O   0  0  0  0  0  0  0  0  0  0  0  0
    0.7350   -1.4020    0.5600 C   0  0  2  0  0  0  0  0  0  0  0  0
    0.7240   -1.4020    2.0740 C   0  0  0  0  0  0  0  0  0  0  0  0
    0.1200   -2.5680    2.5240 O   0  0  0  0  0  0  0  0  0  0  0  0
    1.3300   -0.1420    0.0020 C   0  0  1  0  0  0  0  0  0  0  0  0
    2.1390   -0.2630   -1.0410 O   0  0  0  0  0  0  0  0  0  0  0  0
    3.7170    0.1410   -0.9190 P   0  0  0  0  0  0  0  0  0  0  0  0
    4.6880   -0.4950    0.2030 O   0  0  0  0  0  0  0  0  0  0  0  0
    4.4100    1.1170   -2.1240 O   0  0  0  0  0  0  0  0  0  0  0  0
    3.4000    1.4040   -0.1180 O   0  0  0  0  0  0  0  0  0  0  0  0
    0.1280    0.7260   -0.1010 C   0  0  1  0  0  0  0  0  0  0  0  0
    0.1810    1.6580   -1.1270 O   0  0  0  0  0  0  0  0  0  0  0  0
   -3.0340    0.4270   -1.3910 C   0  0  0  0  0  0  0  0  0  0  0  0
   -2.6610    0.4320   -2.5920 O   0  0  0  0  0  0  0  0  0  0  0  0
   -4.3210    0.8090   -1.1690 N   0  0  0  0  0  0  0  0  0  0  0  0
  1  2  2  0
  2  3  1  0
  2 21  1  0
  3  4  2  0
  4  5  1  0
  6  5  1  1
  5 19  1  0
  6  7  1  0
  6 17  1  0
  7  8  1  0
  8  9  1  1
  8 11  1  0
  9 10  1  0
 11 12  1  6
 11 17  1  0
 12 13  1  0
 13 14  1  0
 13 15  1  0
 13 16  1  0
 17 18  1  6
 19 20  2  0
 19 21  1  0
M  END
