
     RDKit          3D

 14 14  0  0  0  0  0  0  0  0999 V2000
    3.1990    1.1970    0.2170 N   0  0  0  0  0  0  0  0  0  0  0  0
    2.6600   -0.1290    0.3340 C   0  0  1  0  0  0  0  0  0  0  0  0
    2.6220   -0.6030    1.6250 O   0  0  0  0  0  0  0  0  0  0  0  0
    1.2460   -0.2240   -0.2290 C   0  0  2  0  0  0  0  0  0  0  0  0
    0.8560   -1.5360   -0.0550 O   0  0  0  0  0  0  0  0  0  0  0  0
    1.3860    0.0110   -1.7180 C   0  0  0  0  0  0  0  0  0  0  0  0
    1.7700    1.2910   -2.0380 O   0  0  0  0  0  0  0  0  0  0  0  0
    0.3190    0.7290    0.4300 C   0  0  0  0  0  0  0  0  0  0  0  0
   -0.9750    0.7520    0.0530 O   0  0  0  0  0  0  0  0  0  0  0  0
   -1.6980   -0.3780    0.2960 C   0  0  1  0  0  0  0  0  0  0  0  0
   -2.9500   -0.0540    1.1440 C   0  0  0  0  0  0  0  0  0  0  0  0
   -3.8870    0.4060    0.0660 C   0  0  0  0  0  0  0  0  0  0  0  0
   -3.6860   -0.5150   -0.9540 O   0  0  0  0  0  0  0  0  0  0  0  0
   -2.3570   -0.8240   -0.9920 C   0  0  0  0  0  0  0  0  0  0  0  0
  2  1  1  1
  2  3  1  0
  2  4  1  0
  4  5  1  6
  4  6  1  0
  4  8  1  0
  6  7  1  0
  8  9  1  0
 10  9  1  6
 10 11  1  0
 10 14  1  0
 11 12  1  0
 12 13  1  0
 13 14  1  0
M  END
