
     RDKit          3D

 15 15  0  0  0  0  0  0  0  0999 V2000
   -0.8640   -1.4960   -1.7490 N   0  0  0  0  0  0  0  0  0  0  0  0
   -1.0950   -0.1590   -1.3000 C   0  0  0  0  0  0  0  0  0  0  0  0
   -0.7380    0.0920    0.1220 C   0  0  2  0  0  0  0  0  0  0  0  0
   -1.5240   -0.7760    0.9120 O   0  0  0  0  0  0  0  0  0  0  0  0
   -1.0600    1.4760    0.6260 C   0  0  0  0  0  0  0  0  0  0  0  0
   -2.4890    1.8400    0.5770 C   0  0  0  0  0  0  0  0  0  0  0  0
   -3.3750    1.0460    0.1870 O   0  0  0  0  0  0  0  0  0  0  0  0
   -2.9540    3.0970    0.9620 O   0  0  0  0  0  0  0  0  0  0  0  0
    0.7090   -0.1940    0.4400 C   0  0  2  0  0  0  0  0  0  0  0  0
    0.8540    0.0660    1.8240 O   0  0  0  0  0  0  0  0  0  0  0  0
    1.6650    0.7180   -0.2640 C   0  0  0  0  0  0  0  0  0  0  0  0
    2.9710    0.3920   -0.1300 O   0  0  0  0  0  0  0  0  0  0  0  0
    3.3220   -0.8960    0.0710 C   0  0  0  0  0  0  0  0  0  0  0  0
    2.4420   -1.6920    0.7700 O   0  0  0  0  0  0  0  0  0  0  0  0
    1.1350   -1.6050    0.2250 C   0  0  0  0  0  0  0  0  0  0  0  0
  1  2  1  0
  2  3  1  0
  3  4  1  1
  3  5  1  0
  3  9  1  0
  5  6  1  0
  6  7  2  0
  6  8  1  0
  9 10  1  1
  9 11  1  0
  9 15  1  0
 11 12  1  0
 12 13  1  0
 13 14  1  0
 14 15  1  0
M  END
