
     RDKit          3D

 14 14  0  0  0  0  0  0  0  0999 V2000
    0.2520    2.2640   -0.1270 C   0  0  0  0  0  0  0  0  0  0  0  0
    0.5180    0.8160   -0.4360 C   0  0  1  0  0  0  0  0  0  0  0  0
    0.8680    0.7930   -1.8120 O   0  0  0  0  0  0  0  0  0  0  0  0
    1.6940    0.2540    0.2810 C   0  0  0  0  0  0  0  0  0  0  0  0
    1.8230   -1.2090    0.1280 C   0  0  1  0  0  0  0  0  0  0  0  0
    2.4170   -1.7010    1.3180 O   0  0  0  0  0  0  0  0  0  0  0  0
    0.6940   -1.9500   -0.0690 O   0  0  0  0  0  0  0  0  0  0  0  0
   -0.2290   -1.3840   -0.9350 C   0  0  0  0  0  0  0  0  0  0  0  0
   -0.6360   -0.0820   -0.2210 C   0  0  2  0  0  0  0  0  0  0  0  0
   -1.9360    0.4420   -0.7800 C   0  0  0  0  0  0  0  0  0  0  0  0
   -2.2060    1.6440   -0.1590 O   0  0  0  0  0  0  0  0  0  0  0  0
   -0.9070   -0.4680    1.1790 C   0  0  0  0  0  0  0  0  0  0  0  0
   -1.9930   -1.3700    1.3950 N   0  0  0  0  0  0  0  0  0  0  0  0
   -0.2850   -0.0860    2.1910 O   0  0  0  0  0  0  0  0  0  0  0  0
  2  1  1  1
  2  3  1  0
  2  4  1  0
  2  9  1  0
  4  5  1  0
  5  6  1  1
  5  7  1  0
  7  8  1  0
  8  9  1  0
  9 10  1  6
  9 12  1  0
 10 11  1  0
 12 13  1  0
 12 14  2  0
M  END
