
     RDKit          3D

 15 15  0  0  0  0  0  0  0  0999 V2000
    3.9530    0.8220   -0.8790 C   0  0  0  0  0  0  0  0  0  0  0  0
    2.9870   -0.1180   -0.2250 C   0  0  0  0  0  0  0  0  0  0  0  0
    3.3920   -1.1020    0.4350 O   0  0  0  0  0  0  0  0  0  0  0  0
    1.5810    0.0620   -0.3240 N   0  0  0  0  0  0  0  0  0  0  0  0
    0.6770   -0.8720    0.3250 C   0  0  1  0  0  0  0  0  0  0  0  0
   -0.1150   -0.0440    1.3460 C   0  0  1  0  0  0  0  0  0  0  0  0
    0.8140    0.3910    2.2940 O   0  0  0  0  0  0  0  0  0  0  0  0
   -0.5560    1.0830    0.6560 O   0  0  0  0  0  0  0  0  0  0  0  0
   -1.4620    0.7770   -0.3380 C   0  0  2  0  0  0  0  0  0  0  0  0
   -2.8270    1.2860    0.1450 C   0  0  0  0  0  0  0  0  0  0  0  0
   -2.6720    2.6610    0.3260 O   0  0  0  0  0  0  0  0  0  0  0  0
   -1.5980   -0.7020   -0.5750 C   0  0  1  0  0  0  0  0  0  0  0  0
   -2.3590   -0.9130   -1.7190 O   0  0  0  0  0  0  0  0  0  0  0  0
   -0.2870   -1.4120   -0.7100 C   0  0  2  0  0  0  0  0  0  0  0  0
   -0.5430   -2.7830   -0.4760 O   0  0  0  0  0  0  0  0  0  0  0  0
  1  2  1  0
  2  3  2  0
  2  4  1  0
  5  4  1  6
  5  6  1  0
  5 14  1  0
  6  7  1  1
  6  8  1  0
  8  9  1  0
  9 10  1  1
  9 12  1  0
 10 11  1  0
 12 13  1  6
 12 14  1  0
 14 15  1  1
M  END
