
     RDKit          3D

 15 15  0  0  0  0  0  0  0  0999 V2000
    3.1010    1.8880    0.1900 N   0  0  0  0  0  0  0  0  0  0  0  0
    2.6550    0.8820   -0.5690 O   0  0  0  0  0  0  0  0  0  0  0  0
    3.0800   -0.3520   -0.0910 C   0  0  0  0  0  0  0  0  0  0  0  0
    1.8360   -1.2220    0.1510 C   0  0  1  0  0  0  0  0  0  0  0  0
    1.6110   -1.2930    1.5340 O   0  0  0  0  0  0  0  0  0  0  0  0
    0.6600   -0.4350   -0.4210 C   0  0  0  0  0  0  0  0  0  0  0  0
   -0.6330   -1.0000    0.0790 C   0  0  1  0  0  0  0  0  0  0  0  0
   -0.5970   -0.9150    1.4900 O   0  0  0  0  0  0  0  0  0  0  0  0
   -1.7320   -0.0760   -0.3930 C   0  0  1  0  0  0  0  0  0  0  0  0
   -1.7500    0.0070   -1.7760 O   0  0  0  0  0  0  0  0  0  0  0  0
   -3.0910   -0.5610    0.1120 C   0  0  0  0  0  0  0  0  0  0  0  0
   -3.8540    0.6290    0.1320 O   0  0  0  0  0  0  0  0  0  0  0  0
   -3.0340    1.7300    0.3200 C   0  0  0  0  0  0  0  0  0  0  0  0
   -3.3730    2.9130    0.5320 O   0  0  0  0  0  0  0  0  0  0  0  0
   -1.6260    1.2750    0.2380 C   0  0  0  0  0  0  0  0  0  0  0  0
  1  2  1  0
  2  3  1  0
  3  4  1  0
  4  5  1  1
  4  6  1  0
  6  7  1  0
  7  8  1  1
  7  9  1  0
  9 10  1  6
  9 11  1  0
  9 15  1  0
 11 12  1  0
 12 13  1  0
 13 14  2  0
 13 15  1  0
M  END
