
     RDKit          3D

 15 15  0  0  0  0  0  0  0  0999 V2000
    1.9620   -1.4430   -1.7370 N   0  0  0  0  0  0  0  0  0  0  0  0
    1.9900   -0.3020   -0.8830 C   0  0  0  0  0  0  0  0  0  0  0  0
    3.1630    0.4030   -0.8490 O   0  0  0  0  0  0  0  0  0  0  0  0
    0.9490    0.0410   -0.1810 C   0  0  0  0  0  0  0  0  0  0  0  0
    0.9940    1.2010    0.6840 C   0  0  0  0  0  0  0  0  0  0  0  0
    1.9950    1.4480    1.5050 C   0  0  0  0  0  0  0  0  0  0  0  0
    3.0970    0.6420    1.6350 O   0  0  0  0  0  0  0  0  0  0  0  0
   -0.1170    2.0610    0.5980 O   0  0  0  0  0  0  0  0  0  0  0  0
   -1.3380    1.5680    0.0870 C   0  0  0  0  0  0  0  0  0  0  0  0
   -1.5130    0.0850    0.1770 C   0  0  1  0  0  0  0  0  0  0  0  0
   -1.8460   -0.2320    1.4910 O   0  0  0  0  0  0  0  0  0  0  0  0
   -2.6860   -0.2960   -0.7020 C   0  0  0  0  0  0  0  0  0  0  0  0
   -3.8500    0.4040   -0.3310 O   0  0  0  0  0  0  0  0  0  0  0  0
   -0.3280   -0.7200   -0.2440 C   0  0  2  0  0  0  0  0  0  0  0  0
   -0.1850   -1.8010    0.6240 O   0  0  0  0  0  0  0  0  0  0  0  0
  1  2  1  0
  2  3  1  0
  2  4  2  3
  4  5  1  0
  4 14  1  0
  5  6  2  3
  5  8  1  0
  6  7  1  0
  8  9  1  0
  9 10  1  0
 10 11  1  1
 10 12  1  0
 10 14  1  0
 12 13  1  0
 14 15  1  1
M  END
