
     RDKit          3D

 14 14  0  0  0  0  0  0  0  0999 V2000
    3.2490   -2.0570   -0.0380 C   0  0  0  0  0  0  0  0  0  0  0  0
    2.0710   -1.3530   -0.3820 O   0  0  0  0  0  0  0  0  0  0  0  0
    1.8340   -0.0420   -0.0030 C   0  0  0  0  0  0  0  0  0  0  0  0
    2.7200    0.5260    0.6780 O   0  0  0  0  0  0  0  0  0  0  0  0
    0.5670    0.6550   -0.3970 C   0  0  1  0  0  0  0  0  0  0  0  0
    1.0010    1.8870   -1.1950 C   0  0  0  0  0  0  0  0  0  0  0  0
   -0.2400   -0.1750   -1.1370 O   0  0  0  0  0  0  0  0  0  0  0  0
   -1.2210   -0.6850   -0.3260 C   0  0  2  0  0  0  0  0  0  0  0  0
   -0.8050   -1.7590    0.4540 O   0  0  0  0  0  0  0  0  0  0  0  0
   -2.4710   -1.0970   -1.0450 C   0  0  0  0  0  0  0  0  0  0  0  0
   -3.3600   -1.5920   -0.0740 O   0  0  0  0  0  0  0  0  0  0  0  0
   -1.5710    0.4600    0.5950 C   0  0  0  0  0  0  0  0  0  0  0  0
   -0.2080    1.1300    0.7840 C   0  0  2  0  0  0  0  0  0  0  0  0
   -0.4390    2.5500    0.8010 N   0  0  0  0  0  0  0  0  0  0  0  0
  1  2  1  0
  2  3  1  0
  3  4  2  0
  3  5  1  0
  5  6  1  6
  5  7  1  0
  5 13  1  0
  7  8  1  0
  8  9  1  1
  8 10  1  0
  8 12  1  0
 10 11  1  0
 12 13  1  0
 13 14  1  6
M  END
