
     RDKit          3D

 14 14  0  0  0  0  0  0  0  0999 V2000
    3.7110    0.8760    1.5850 C   0  0  0  0  0  0  0  0  0  0  0  0
    3.0700    1.3790    0.3310 C   0  0  0  0  0  0  0  0  0  0  0  0
    1.7990    0.7740    0.0980 O   0  0  0  0  0  0  0  0  0  0  0  0
    1.6700   -0.5840   -0.0550 C   0  0  0  0  0  0  0  0  0  0  0  0
    2.6460   -1.3560   -0.0010 O   0  0  0  0  0  0  0  0  0  0  0  0
    0.3310   -1.1670   -0.2950 C   0  0  0  0  0  0  0  0  0  0  0  0
   -0.7990   -0.5000   -0.3810 C   0  0  0  0  0  0  0  0  0  0  0  0
   -0.8680    1.2920   -0.2110 S   0  0  0  0  0  0  0  0  0  0  0  0
   -2.5760    1.8210   -0.3900 C   0  0  0  0  0  0  0  0  0  0  0  0
   -3.4050    1.3090    0.7480 C   0  0  0  0  0  0  0  0  0  0  0  0
   -1.9220   -1.3310   -0.6170 N   0  0  0  0  0  0  0  0  0  0  0  0
   -1.4290   -2.6490   -0.6830 C   0  0  0  0  0  0  0  0  0  0  0  0
   -2.0840   -3.7120   -0.8790 O   0  0  0  0  0  0  0  0  0  0  0  0
    0.0220   -2.6040   -0.4810 C   0  0  0  0  0  0  0  0  0  0  0  0
  1  2  1  0
  2  3  1  0
  3  4  1  0
  4  5  2  0
  4  6  1  0
  6  7  2  0
  6 14  1  0
  7  8  1  0
  7 11  1  0
  8  9  1  0
  9 10  1  0
 11 12  1  0
 12 13  2  0
 12 14  1  0
M  END
