
     RDKit          3D

 14 14  0  0  0  0  0  0  0  0999 V2000
    3.4630    1.1410   -0.3450 C   0  0  0  0  0  0  0  0  0  0  0  0
    2.2170    0.2860   -0.2350 C   0  0  1  0  0  0  0  0  0  0  0  0
    2.6150   -1.0630    0.2800 C   0  0  0  0  0  0  0  0  0  0  0  0
    1.2260    1.0020    0.6150 C   0  0  0  0  0  0  0  0  0  0  0  0
   -0.0480    0.2880    0.8190 C   0  0  0  0  0  0  0  0  0  0  0  0
   -0.2560   -0.2790    1.9060 O   0  0  0  0  0  0  0  0  0  0  0  0
   -1.0600    0.2310   -0.2080 C   0  0  0  0  0  0  0  0  0  0  0  0
   -0.9060    0.9520   -1.7990 S   0  0  0  0  0  0  0  0  0  0  0  0
   -2.5620    0.4160   -2.4130 C   0  0  0  0  0  0  0  0  0  0  0  0
   -3.0090    0.6600   -3.5310 O   0  0  0  0  0  0  0  0  0  0  0  0
   -3.0120   -0.2370   -1.3330 N   0  0  0  0  0  0  0  0  0  0  0  0
   -2.3110   -0.3440   -0.2540 C   0  0  0  0  0  0  0  0  0  0  0  0
   -2.7930   -1.0700    0.9980 C   0  0  0  0  0  0  0  0  0  0  0  0
   -4.0550   -1.5700    0.7510 O   0  0  0  0  0  0  0  0  0  0  0  0
  2  1  1  1
  2  3  1  0
  2  4  1  0
  4  5  1  0
  5  6  2  0
  5  7  1  0
  7  8  1  0
  7 12  2  0
  8  9  1  0
  9 10  2  0
  9 11  1  0
 11 12  1  0
 12 13  1  0
 13 14  1  0
M  END
