
     RDKit          3D

 14 14  0  0  0  0  0  0  0  0999 V2000
    5.2270    0.0690    0.4810 C   0  0  0  0  0  0  0  0  0  0  0  0
    3.8990    0.0200   -0.1010 N   0  0  0  0  0  0  0  0  0  0  0  0
    2.7150    0.0750    0.6670 C   0  0  0  0  0  0  0  0  0  0  0  0
    2.8140    0.1720    1.9220 O   0  0  0  0  0  0  0  0  0  0  0  0
    1.3900    0.0230    0.0590 C   0  0  0  0  0  0  0  0  0  0  0  0
    0.3010    0.0770    0.8020 C   0  0  0  0  0  0  0  0  0  0  0  0
   -1.0390    0.0270    0.2150 C   0  0  0  0  0  0  0  0  0  0  0  0
   -1.4460   -0.0720   -1.0510 C   0  0  0  0  0  0  0  0  0  0  0  0
   -2.7540   -0.0990   -1.3560 C   0  0  0  0  0  0  0  0  0  0  0  0
   -3.6320   -0.0210   -0.2940 C   0  0  0  0  0  0  0  0  0  0  0  0
   -5.0940   -0.0240   -0.2760 C   0  0  0  0  0  0  0  0  0  0  0  0
   -5.6900   -0.1100   -1.3670 O   0  0  0  0  0  0  0  0  0  0  0  0
   -5.8280    0.0620    0.8860 O   0  0  0  0  0  0  0  0  0  0  0  0
   -2.5590    0.0920    1.1220 S   0  0  0  0  0  0  0  0  0  0  0  0
  1  2  1  0
  2  3  1  0
  3  4  2  0
  3  5  1  0
  5  6  2  3
  6  7  1  0
  7  8  2  0
  7 14  1  0
  8  9  1  0
  9 10  2  0
 10 11  1  0
 10 14  1  0
 11 12  2  0
 11 13  1  0
M  END
