
     RDKit          3D

 13 12  0  0  0  0  0  0  0  0999 V2000
   -4.2960   -0.4400   -0.7790 C   0  0  0  0  0  0  0  0  0  0  0  0
   -2.9660   -0.4010   -0.4260 O   0  0  0  0  0  0  0  0  0  0  0  0
   -2.6110    0.8040    0.1760 C   0  0  0  0  0  0  0  0  0  0  0  0
   -1.0650    0.6070    0.4830 C   0  0  1  0  0  0  0  0  0  0  0  0
   -0.7190    1.8530    1.1000 N   0  0  0  0  0  0  0  0  0  0  0  0
   -1.0610   -0.5890    1.3580 C   0  0  0  0  0  0  0  0  0  0  0  0
   -1.4010   -1.7570    0.6400 O   0  0  0  0  0  0  0  0  0  0  0  0
   -0.4450    0.4870   -0.8610 C   0  0  0  0  0  0  0  0  0  0  0  0
    0.9040    0.5960   -0.9840 O   0  0  0  0  0  0  0  0  0  0  0  0
    1.6530   -0.3010   -0.2840 C   0  0  0  0  0  0  0  0  0  0  0  0
    3.1450   -0.1170   -0.5850 C   0  0  0  0  0  0  0  0  0  0  0  0
    3.8410   -1.0650    0.1630 O   0  0  0  0  0  0  0  0  0  0  0  0
    5.1600   -0.9980   -0.0210 N   0  0  0  0  0  0  0  0  0  0  0  0
  1  2  1  0
  2  3  1  0
  3  4  1  0
  4  5  1  1
  4  6  1  0
  4  8  1  0
  6  7  1  0
  8  9  1  0
  9 10  1  0
 10 11  1  0
 11 12  1  0
 12 13  1  0
M  CHG  2   5   1  13   1
M  END
