
     RDKit          3D

 14 14  0  0  0  0  0  0  0  0999 V2000
    3.3490    0.8250   -0.7880 C   0  0  0  0  0  0  0  0  0  0  0  0
    3.7490   -0.3130    0.0880 C   0  0  0  0  0  0  0  0  0  0  0  0
    2.8110   -1.4930   -0.0290 C   0  0  0  0  0  0  0  0  0  0  0  0
    1.5740   -1.2430    0.3260 O   0  0  0  0  0  0  0  0  0  0  0  0
    0.3890   -0.6710    0.2700 C   0  0  0  0  0  0  0  0  0  0  0  0
   -0.0140    0.2710   -0.6780 C   0  0  0  0  0  0  0  0  0  0  0  0
   -1.2800    0.7850   -0.6110 C   0  0  0  0  0  0  0  0  0  0  0  0
   -2.1810    0.4080    0.3590 C   0  0  0  0  0  0  0  0  0  0  0  0
   -3.7950    1.0750    0.4290 S   0  0  1  0  0  0  0  0  0  0  0  0
   -4.8120    0.0550   -0.5290 N   0  0  0  0  0  0  0  0  0  0  0  0
   -4.2980    1.0120    1.8410 O   0  0  0  0  0  0  0  0  0  0  0  0
   -3.7500    2.4690   -0.1050 O   0  0  0  0  0  0  0  0  0  0  0  0
   -1.7800   -0.5200    1.2890 C   0  0  0  0  0  0  0  0  0  0  0  0
   -0.5440   -1.0530    1.2630 C   0  0  0  0  0  0  0  0  0  0  0  0
  1  2  1  0
  2  3  1  0
  3  4  1  0
  4  5  1  0
  5  6  2  0
  5 14  1  0
  6  7  1  0
  7  8  2  0
  8  9  1  0
  8 13  1  0
  9 10  1  6
  9 11  2  0
  9 12  2  0
 13 14  2  0
M  END
