
     RDKit          3D

 14 14  0  0  0  0  0  0  0  0999 V2000
    4.4870   -0.6060   -0.7710 C   0  0  0  0  0  0  0  0  0  0  0  0
    3.7070    0.6740    0.2000 S   0  0  2  0  0  0  0  0  0  0  0  0
    4.3450    1.9790   -0.2130 O   0  0  0  0  0  0  0  0  0  0  0  0
    3.9460    0.4060    1.6590 O   0  0  0  0  0  0  0  0  0  0  0  0
    1.9480    0.7180   -0.1290 C   0  0  0  0  0  0  0  0  0  0  0  0
    1.3670   -0.6210    0.2370 C   0  0  0  0  0  0  0  0  0  0  0  0
   -0.0540   -0.6490   -0.0090 N   0  0  0  0  0  0  0  0  0  0  0  0
   -0.9510    0.2390    0.6380 C   0  0  0  0  0  0  0  0  0  0  0  0
   -0.5460    1.1000    1.4660 O   0  0  0  0  0  0  0  0  0  0  0  0
   -2.3940    0.1350    0.3210 C   0  0  0  0  0  0  0  0  0  0  0  0
   -3.3330    0.8930    0.8470 C   0  0  0  0  0  0  0  0  0  0  0  0
   -4.6220    0.4850    0.2840 C   0  0  0  0  0  0  0  0  0  0  0  0
   -4.3020   -0.6140   -0.6400 C   0  0  0  0  0  0  0  0  0  0  0  0
   -3.0010   -0.8030   -0.6060 C   0  0  0  0  0  0  0  0  0  0  0  0
  2  1  1  6
  2  3  2  0
  2  4  2  0
  2  5  1  0
  5  6  1  0
  6  7  1  0
  7  8  1  0
  8  9  2  0
  8 10  1  0
 10 11  2  0
 10 14  1  0
 11 12  1  0
 12 13  1  0
 13 14  2  0
M  END
