
     RDKit          3D

 14 14  0  0  0  0  0  0  0  0999 V2000
    4.2360   -0.7020    0.3850 C   0  0  0  0  0  0  0  0  0  0  0  0
    3.5530   -2.0530    0.4490 C   0  0  0  0  0  0  0  0  0  0  0  0
    2.5950   -2.1080   -0.5990 O   0  0  0  0  0  0  0  0  0  0  0  0
    1.5760   -1.1720   -0.6100 C   0  0  0  0  0  0  0  0  0  0  0  0
    1.5160   -0.3000    0.2940 O   0  0  0  0  0  0  0  0  0  0  0  0
    0.5270   -1.1420   -1.6570 C   0  0  0  0  0  0  0  0  0  0  0  0
   -0.4230   -0.0700   -1.4400 N   0  0  0  0  0  0  0  0  0  0  0  0
   -1.2040    0.0020   -0.2570 C   0  0  0  0  0  0  0  0  0  0  0  0
   -1.0240   -0.9130    0.5840 O   0  0  0  0  0  0  0  0  0  0  0  0
   -2.1850    1.0810    0.0020 C   0  0  0  0  0  0  0  0  0  0  0  0
   -2.3660    2.0300   -0.8780 C   0  0  0  0  0  0  0  0  0  0  0  0
   -3.6140    3.1200   -0.2020 S   0  0  0  0  0  0  0  0  0  0  0  0
   -4.2190    1.9160    1.0600 C   0  0  0  0  0  0  0  0  0  0  0  0
   -2.9620    1.1290    1.2260 C   0  0  0  0  0  0  0  0  0  0  0  0
  1  2  1  0
  2  3  1  0
  3  4  1  0
  4  5  2  0
  4  6  1  0
  6  7  1  0
  7  8  1  0
  8  9  2  0
  8 10  1  0
 10 11  2  0
 10 14  1  0
 11 12  1  0
 12 13  1  0
 13 14  1  0
M  END
