
     RDKit          3D

 14 14  0  0  0  0  0  0  0  0999 V2000
    4.0170    1.0280   -0.4330 C   0  0  0  0  0  0  0  0  0  0  0  0
    3.8070    0.3960    0.7730 O   0  0  0  0  0  0  0  0  0  0  0  0
    2.8040   -0.5350    0.7910 C   0  0  0  0  0  0  0  0  0  0  0  0
    1.4450    0.0260    0.5400 C   0  0  0  0  0  0  0  0  0  0  0  0
    1.3290    1.2500    0.4160 O   0  0  0  0  0  0  0  0  0  0  0  0
    0.3030   -0.7910    0.4400 N   0  0  0  0  0  0  0  0  0  0  0  0
   -1.0290   -0.3810    0.2060 C   0  0  0  0  0  0  0  0  0  0  0  0
   -1.4530    0.9140    0.0310 C   0  0  0  0  0  0  0  0  0  0  0  0
   -2.7900    1.2610   -0.1990 C   0  0  0  0  0  0  0  0  0  0  0  0
   -3.0970    2.6030   -0.3610 O   0  0  0  0  0  0  0  0  0  0  0  0
   -3.7030    0.2630   -0.2500 C   0  0  0  0  0  0  0  0  0  0  0  0
   -3.3580   -1.0600   -0.0850 C   0  0  0  0  0  0  0  0  0  0  0  0
   -2.0360   -1.3520    0.1380 C   0  0  0  0  0  0  0  0  0  0  0  0
   -1.5500   -3.0520    0.3570 S   0  0  0  0  0  0  0  0  0  0  0  0
  1  2  1  0
  2  3  1  0
  3  4  1  0
  4  5  2  0
  4  6  1  0
  6  7  1  0
  7  8  2  0
  7 13  1  0
  8  9  1  0
  9 10  1  0
  9 11  2  0
 11 12  1  0
 12 13  2  0
 13 14  1  0
M  END
