
     RDKit          3D

 14 14  0  0  0  0  0  0  0  0999 V2000
   -1.7220   -0.0950    1.3720 O   0  0  0  0  0  0  0  0  0  0  0  0
   -1.3340    0.2810    0.2270 C   0  0  0  0  0  0  0  0  0  0  0  0
    0.0940    0.3450   -0.0620 C   0  0  0  0  0  0  0  0  0  0  0  0
    0.9700    0.0160    0.8550 C   0  0  0  0  0  0  0  0  0  0  0  0
    2.4020    0.0750    0.5810 C   0  0  0  0  0  0  0  0  0  0  0  0
    3.0170    0.4560   -0.5940 C   0  0  0  0  0  0  0  0  0  0  0  0
    4.3760    0.3670   -0.4230 C   0  0  0  0  0  0  0  0  0  0  0  0
    4.5540   -0.0720    0.8690 C   0  0  0  0  0  0  0  0  0  0  0  0
    6.1640   -0.3520    1.5920 S   0  0  0  0  0  0  0  0  0  0  0  0
    3.3810   -0.2310    1.4240 O   0  0  0  0  0  0  0  0  0  0  0  0
   -2.3120    0.6300   -0.7440 N   0  0  0  0  0  0  0  0  0  0  0  0
   -3.7210    0.5880   -0.5230 C   0  0  0  0  0  0  0  0  0  0  0  0
   -4.1990   -0.8240   -0.1640 C   0  0  0  0  0  0  0  0  0  0  0  0
   -3.8830   -1.6780   -1.2160 O   0  0  0  0  0  0  0  0  0  0  0  0
  1  2  2  0
  2  3  1  0
  2 11  1  0
  3  4  2  3
  4  5  1  0
  5  6  2  0
  5 10  1  0
  6  7  1  0
  7  8  2  0
  8  9  1  0
  8 10  1  0
 11 12  1  0
 12 13  1  0
 13 14  1  0
M  END
