
     RDKit          3D

 14 14  0  0  0  0  0  0  0  0999 V2000
   -4.0480    1.6630    0.5490 C   0  0  0  0  0  0  0  0  0  0  0  0
   -3.6080    0.2950    0.3700 N   0  0  0  0  0  0  0  0  0  0  0  0
   -2.2090    0.0100    0.2190 C   0  0  0  0  0  0  0  0  0  0  0  0
   -1.4770    1.0050    0.2560 O   0  0  0  0  0  0  0  0  0  0  0  0
   -1.7720   -1.3620    0.0400 C   0  0  0  0  0  0  0  0  0  0  0  0
   -0.6070   -1.8680   -0.1130 C   0  0  0  0  0  0  0  0  0  0  0  0
    0.6600   -1.2380   -0.1600 C   0  0  0  0  0  0  0  0  0  0  0  0
    1.9100   -1.7660   -0.3230 C   0  0  0  0  0  0  0  0  0  0  0  0
    2.9770   -0.9890   -0.3370 C   0  0  0  0  0  0  0  0  0  0  0  0
    2.7920    0.3640   -0.1830 C   0  0  0  0  0  0  0  0  0  0  0  0
    3.8070    1.4440   -0.1610 C   0  0  0  0  0  0  0  0  0  0  0  0
    3.4690    2.6410   -0.0090 O   0  0  0  0  0  0  0  0  0  0  0  0
    5.1350    1.1610   -0.3060 O   0  0  0  0  0  0  0  0  0  0  0  0
    1.0650    0.5200   -0.0160 S   0  0  0  0  0  0  0  0  0  0  0  0
  1  2  1  0
  2  3  1  0
  3  4  2  0
  3  5  1  0
  5  6  2  3
  6  7  1  0
  7  8  2  0
  7 14  1  0
  8  9  1  0
  9 10  2  0
 10 11  1  0
 10 14  1  0
 11 12  2  0
 11 13  1  0
M  END
