
     RDKit          3D

 14 14  0  0  0  0  0  0  0  0999 V2000
    4.1810   -0.0710    1.4530 C   0  0  0  0  0  0  0  0  0  0  0  0
    2.9600    0.4220    0.6630 C   0  0  0  0  0  0  0  0  0  0  0  0
    2.7770   -0.4550   -0.5450 C   0  0  0  0  0  0  0  0  0  0  0  0
    1.6930   -0.1030   -1.3140 O   0  0  0  0  0  0  0  0  0  0  0  0
    0.3870   -0.1770   -0.9530 C   0  0  0  0  0  0  0  0  0  0  0  0
   -0.1240   -0.6560    0.2320 C   0  0  0  0  0  0  0  0  0  0  0  0
   -1.4930   -0.6810    0.5060 C   0  0  0  0  0  0  0  0  0  0  0  0
   -2.3970   -0.2220   -0.4150 C   0  0  0  0  0  0  0  0  0  0  0  0
   -4.1260   -0.2370   -0.1080 S   0  0  1  0  0  0  0  0  0  0  0  0
   -4.5500    1.2450    0.6270 N   0  0  0  0  0  0  0  0  0  0  0  0
   -4.8010   -0.3180   -1.4500 O   0  0  0  0  0  0  0  0  0  0  0  0
   -4.5370   -1.4280    0.7020 O   0  0  0  0  0  0  0  0  0  0  0  0
   -1.8780    0.2540   -1.5990 C   0  0  0  0  0  0  0  0  0  0  0  0
   -0.5460    0.2930   -1.8970 C   0  0  0  0  0  0  0  0  0  0  0  0
  1  2  1  0
  2  3  1  0
  3  4  1  0
  4  5  1  0
  5  6  2  0
  5 14  1  0
  6  7  1  0
  7  8  2  0
  8  9  1  0
  8 13  1  0
  9 10  1  1
  9 11  2  0
  9 12  2  0
 13 14  2  0
M  END
