
     RDKit          3D

 14 14  0  0  0  0  0  0  0  0999 V2000
    5.6780    0.1420    0.5740 C   0  0  0  0  0  0  0  0  0  0  0  0
    4.3150   -0.1340    0.0150 C   0  0  0  0  0  0  0  0  0  0  0  0
    3.0730    0.0600    0.5740 C   0  0  0  0  0  0  0  0  0  0  0  0
    1.9870   -0.2710   -0.1380 C   0  0  0  0  0  0  0  0  0  0  0  0
    0.6580   -0.1030    0.3650 N   0  0  0  0  0  0  0  0  0  0  0  0
   -0.4370   -0.4970   -0.4990 C   0  0  0  0  0  0  0  0  0  0  0  0
   -1.7440   -0.2840    0.1110 C   0  0  0  0  0  0  0  0  0  0  0  0
   -1.8320    0.1920    1.2610 O   0  0  0  0  0  0  0  0  0  0  0  0
   -2.9040   -0.5940   -0.5460 O   0  0  0  0  0  0  0  0  0  0  0  0
   -4.1910   -0.4300   -0.0550 C   0  0  0  0  0  0  0  0  0  0  0  0
   -4.5710    0.9710    0.2990 C   0  0  0  0  0  0  0  0  0  0  0  0
   -4.4840    1.7980   -0.8210 O   0  0  0  0  0  0  0  0  0  0  0  0
    2.2030   -0.7940   -1.4120 C   0  0  0  0  0  0  0  0  0  0  0  0
    3.9690   -0.7970   -1.5520 S   0  0  0  0  0  0  0  0  0  0  0  0
  1  2  1  0
  2  3  2  0
  2 14  1  0
  3  4  1  0
  4  5  1  0
  4 13  2  0
  5  6  1  0
  6  7  1  0
  7  8  2  0
  7  9  1  0
  9 10  1  0
 10 11  1  0
 11 12  1  0
 13 14  1  0
M  END
