
     RDKit          3D

 14 14  0  0  0  0  0  0  0  0999 V2000
   -3.8550    1.4070   -1.0780 C   0  0  0  0  0  0  0  0  0  0  0  0
   -2.9030    2.0230   -0.3150 O   0  0  0  0  0  0  0  0  0  0  0  0
   -2.2830    1.2190    0.6090 C   0  0  0  0  0  0  0  0  0  0  0  0
   -1.5570    0.0350   -0.0170 C   0  0  0  0  0  0  0  0  0  0  0  0
   -0.9620   -0.7120    1.0510 N   0  0  0  0  0  0  0  0  0  0  0  0
   -0.0930   -2.0920    0.5600 S   0  0  2  0  0  0  0  0  0  0  0  0
   -0.2740   -2.4040   -0.8990 O   0  0  0  0  0  0  0  0  0  0  0  0
   -0.5170   -3.3260    1.3230 O   0  0  0  0  0  0  0  0  0  0  0  0
    1.6390   -1.8600    0.8540 C   0  0  0  0  0  0  0  0  0  0  0  0
    2.2190   -0.7140    0.1390 C   0  0  0  0  0  0  0  0  0  0  0  0
    3.1960   -0.7530   -0.7520 C   0  0  0  0  0  0  0  0  0  0  0  0
    3.4960    0.6110   -1.2450 C   0  0  0  0  0  0  0  0  0  0  0  0
    2.5400    1.4470   -0.4950 C   0  0  0  0  0  0  0  0  0  0  0  0
    1.8170    0.6740    0.2910 C   0  0  0  0  0  0  0  0  0  0  0  0
  1  2  1  0
  2  3  1  0
  3  4  1  0
  4  5  1  0
  5  6  1  0
  6  7  2  0
  6  8  2  0
  6  9  1  6
  9 10  1  0
 10 11  2  0
 10 14  1  0
 11 12  1  0
 12 13  1  0
 13 14  2  0
M  END
