
     RDKit          3D

 14 14  0  0  0  0  0  0  0  0999 V2000
    4.7450    0.6520   -0.7510 C   0  0  0  0  0  0  0  0  0  0  0  0
    4.4940    0.5970    0.7310 C   0  0  0  0  0  0  0  0  0  0  0  0
    3.3740   -0.2080    1.0510 O   0  0  0  0  0  0  0  0  0  0  0  0
    2.1480    0.1590    0.5240 C   0  0  0  0  0  0  0  0  0  0  0  0
    2.0730    1.1760   -0.2070 O   0  0  0  0  0  0  0  0  0  0  0  0
    0.9470   -0.6260    0.8130 C   0  0  0  0  0  0  0  0  0  0  0  0
   -0.2340   -0.0790    0.1690 N   0  0  0  0  0  0  0  0  0  0  0  0
   -1.4540   -0.7640    0.3830 C   0  0  0  0  0  0  0  0  0  0  0  0
   -1.5050   -1.7920    1.0950 O   0  0  0  0  0  0  0  0  0  0  0  0
   -2.7320   -0.2770   -0.2390 C   0  0  0  0  0  0  0  0  0  0  0  0
   -2.7880    0.7940   -1.0040 C   0  0  0  0  0  0  0  0  0  0  0  0
   -4.4910    0.9930   -1.5120 S   0  0  0  0  0  0  0  0  0  0  0  0
   -5.1670   -0.0310   -0.1200 C   0  0  0  0  0  0  0  0  0  0  0  0
   -4.0020   -0.9870   -0.0490 C   0  0  0  0  0  0  0  0  0  0  0  0
  1  2  1  0
  2  3  1  0
  3  4  1  0
  4  5  2  0
  4  6  1  0
  6  7  1  0
  7  8  1  0
  8  9  2  0
  8 10  1  0
 10 11  2  0
 10 14  1  0
 11 12  1  0
 12 13  1  0
 13 14  1  0
M  END
