
     RDKit          3D

 13 12  0  0  0  0  0  0  0  0999 V2000
   -2.9450    2.3690    0.1700 C   0  0  0  0  0  0  0  0  0  0  0  0
   -3.5410    1.1300    0.5170 O   0  0  0  0  0  0  0  0  0  0  0  0
   -2.9190    0.0610   -0.0760 C   0  0  0  0  0  0  0  0  0  0  0  0
   -1.6340   -0.3970    0.4140 C   0  0  1  0  0  0  0  0  0  0  0  0
   -1.7370   -0.9210    1.7740 N   0  0  0  0  0  0  0  0  0  0  0  0
   -1.3620   -1.7530   -0.3700 C   0  0  0  0  0  0  0  0  0  0  0  0
   -1.1320   -1.4890   -1.6620 O   0  0  0  0  0  0  0  0  0  0  0  0
   -0.3410    0.3460    0.1940 C   0  0  0  0  0  0  0  0  0  0  0  0
    0.6990   -0.5050    0.0510 O   0  0  0  0  0  0  0  0  0  0  0  0
    1.9150   -0.1230   -0.2670 C   0  0  0  0  0  0  0  0  0  0  0  0
    2.9300    0.2950    0.7850 C   0  0  0  0  0  0  0  0  0  0  0  0
    4.0380    0.6120   -0.0850 O   0  0  0  0  0  0  0  0  0  0  0  0
    5.0690   -0.1540    0.1360 N   0  0  0  0  0  0  0  0  0  0  0  0
  1  2  1  0
  2  3  1  0
  3  4  1  0
  4  5  1  1
  4  6  1  0
  4  8  1  0
  6  7  1  0
  8  9  1  0
  9 10  1  0
 10 11  1  0
 11 12  1  0
 12 13  1  0
M  CHG  2   5   1  13   1
M  END
