
     RDKit          3D

 14 14  0  0  0  0  0  0  0  0999 V2000
    3.8310   -1.0090    1.4790 C   0  0  0  0  0  0  0  0  0  0  0  0
    3.6880   -1.3170    0.1530 O   0  0  0  0  0  0  0  0  0  0  0  0
    2.8700   -0.5550   -0.6010 C   0  0  0  0  0  0  0  0  0  0  0  0
    1.4180   -0.6030   -0.1620 C   0  0  0  0  0  0  0  0  0  0  0  0
    1.0860   -1.3410    0.7740 O   0  0  0  0  0  0  0  0  0  0  0  0
    0.4750    0.1980   -0.8350 N   0  0  0  0  0  0  0  0  0  0  0  0
   -0.9030    0.2440   -0.5240 C   0  0  0  0  0  0  0  0  0  0  0  0
   -1.5180   -0.4740    0.4640 C   0  0  0  0  0  0  0  0  0  0  0  0
   -2.8880   -0.4020    0.7440 C   0  0  0  0  0  0  0  0  0  0  0  0
   -3.4320   -1.1660    1.7660 O   0  0  0  0  0  0  0  0  0  0  0  0
   -3.6520    0.4430   -0.0270 C   0  0  0  0  0  0  0  0  0  0  0  0
   -3.0690    1.1800   -1.0280 C   0  0  0  0  0  0  0  0  0  0  0  0
   -1.7370    1.0930   -1.2790 C   0  0  0  0  0  0  0  0  0  0  0  0
   -0.9900    2.0720   -2.6030 S   0  0  0  0  0  0  0  0  0  0  0  0
  1  2  1  0
  2  3  1  0
  3  4  1  0
  4  5  2  0
  4  6  1  0
  6  7  1  0
  7  8  2  0
  7 13  1  0
  8  9  1  0
  9 10  1  0
  9 11  2  0
 11 12  1  0
 12 13  2  0
 13 14  1  0
M  END
