
     RDKit          3D

 14 14  0  0  0  0  0  0  0  0999 V2000
    4.7560   -1.1310    0.3540 C   0  0  0  0  0  0  0  0  0  0  0  0
    3.7310    0.2020   -0.2320 S   0  0  2  0  0  0  0  0  0  0  0  0
    3.7830    0.2300   -1.7290 O   0  0  0  0  0  0  0  0  0  0  0  0
    4.1670    1.5110    0.3680 O   0  0  0  0  0  0  0  0  0  0  0  0
    2.0200   -0.0850    0.2400 C   0  0  0  0  0  0  0  0  0  0  0  0
    1.2320    1.0750   -0.2880 C   0  0  0  0  0  0  0  0  0  0  0  0
   -0.1680    0.9930    0.0130 N   0  0  0  0  0  0  0  0  0  0  0  0
   -0.9770   -0.0670   -0.4290 C   0  0  0  0  0  0  0  0  0  0  0  0
   -0.4650   -0.9750   -1.1130 O   0  0  0  0  0  0  0  0  0  0  0  0
   -2.4150   -0.0900   -0.0810 C   0  0  0  0  0  0  0  0  0  0  0  0
   -3.2990   -1.0050   -0.4160 C   0  0  0  0  0  0  0  0  0  0  0  0
   -4.6410   -0.6740    0.1250 C   0  0  0  0  0  0  0  0  0  0  0  0
   -4.3900    0.5950    0.8360 C   0  0  0  0  0  0  0  0  0  0  0  0
   -3.1130    0.9130    0.7080 C   0  0  0  0  0  0  0  0  0  0  0  0
  2  1  1  1
  2  3  2  0
  2  4  2  0
  2  5  1  0
  5  6  1  0
  6  7  1  0
  7  8  1  0
  8  9  2  0
  8 10  1  0
 10 11  2  0
 10 14  1  0
 11 12  1  0
 12 13  1  0
 13 14  2  0
M  END
