
     RDKit          3D

 14 14  0  0  0  0  0  0  0  0999 V2000
    3.7750    1.4810    0.1380 C   0  0  0  0  0  0  0  0  0  0  0  0
    2.5960    1.8140   -0.7070 C   0  0  0  0  0  0  0  0  0  0  0  0
    1.5080    0.9240   -0.5460 O   0  0  0  0  0  0  0  0  0  0  0  0
    1.5720   -0.4210   -0.7980 C   0  0  0  0  0  0  0  0  0  0  0  0
    2.6740   -0.8720   -1.1970 O   0  0  0  0  0  0  0  0  0  0  0  0
    0.4090   -1.3230   -0.6180 C   0  0  0  0  0  0  0  0  0  0  0  0
   -0.7990   -1.0030   -0.2110 C   0  0  0  0  0  0  0  0  0  0  0  0
   -1.2140    0.7070    0.2070 S   0  0  0  0  0  0  0  0  0  0  0  0
   -2.9390    0.7460    0.7150 C   0  0  0  0  0  0  0  0  0  0  0  0
   -3.3980    2.1320    1.0890 C   0  0  0  0  0  0  0  0  0  0  0  0
   -1.6730   -2.1150   -0.1510 N   0  0  0  0  0  0  0  0  0  0  0  0
   -0.9230   -3.2420   -0.5650 C   0  0  0  0  0  0  0  0  0  0  0  0
   -1.3380   -4.4430   -0.6530 O   0  0  0  0  0  0  0  0  0  0  0  0
    0.4370   -2.7660   -0.8770 C   0  0  0  0  0  0  0  0  0  0  0  0
  1  2  1  0
  2  3  1  0
  3  4  1  0
  4  5  2  0
  4  6  1  0
  6  7  2  0
  6 14  1  0
  7  8  1  0
  7 11  1  0
  8  9  1  0
  9 10  1  0
 11 12  1  0
 12 13  2  0
 12 14  1  0
M  END
