
     RDKit          3D

 26 28  0  0  0  0  0  0  0  0999 V2000
   -5.5600   -1.9170    1.4060 C   0  0  0  0  0  0  0  0  0  0  0  0
   -4.0810   -1.9950    1.0940 C   0  0  0  0  0  0  0  0  0  0  0  0
   -3.8290   -1.1510   -0.1510 C   0  0  2  0  0  0  0  0  0  0  0  0
   -4.7060   -1.8120   -1.2290 C   0  0  0  0  0  0  0  0  0  0  0  0
   -2.4090   -1.2250   -0.5060 C   0  0  0  0  0  0  0  0  0  0  0  0
   -1.5920   -0.2010   -0.6900 C   0  0  0  0  0  0  0  0  0  0  0  0
   -1.9590    1.1870   -0.5720 C   0  0  0  0  0  0  0  0  0  0  0  0
   -1.1540    2.1900   -0.7210 C   0  0  0  0  0  0  0  0  0  0  0  0
   -1.6120    3.6210   -0.6020 C   0  0  0  0  0  0  0  0  0  0  0  0
   -0.9870    4.4200   -1.6410 N   0  0  0  0  0  0  0  0  0  0  0  0
   -0.2900    3.5930   -2.6200 C   0  0  0  0  0  0  0  0  0  0  0  0
    0.7400    2.7430   -1.9690 C   0  0  0  0  0  0  0  0  0  0  0  0
    0.2620    2.0080   -0.9620 C   0  0  0  0  0  0  0  0  0  0  0  0
    1.0850    1.1090   -0.1650 C   0  0  0  0  0  0  0  0  0  0  0  0
    0.6820    0.5020    0.9670 N   0  0  0  0  0  0  0  0  0  0  0  0
    1.4420   -0.3370    1.6870 C   0  0  0  0  0  0  0  0  0  0  0  0
    1.0210   -0.8860    2.7450 O   0  0  0  0  0  0  0  0  0  0  0  0
    2.7280   -0.6320    1.2870 C   0  0  0  0  0  0  0  0  0  0  0  0
    3.5290   -1.4900    2.0060 C   0  0  0  0  0  0  0  0  0  0  0  0
    4.8230   -1.7790    1.5920 C   0  0  0  0  0  0  0  0  0  0  0  0
    5.6350   -2.6480    2.3210 O   0  0  0  0  0  0  0  0  0  0  0  0
    6.9380   -2.8850    1.8270 C   0  0  0  0  0  0  0  0  0  0  0  0
    5.2600   -1.1690    0.4360 C   0  0  0  0  0  0  0  0  0  0  0  0
    4.4410   -0.3010   -0.2870 C   0  0  0  0  0  0  0  0  0  0  0  0
    3.1570   -0.0200    0.1330 C   0  0  0  0  0  0  0  0  0  0  0  0
    2.3420    0.8170   -0.5490 N   0  0  0  0  0  0  0  0  0  0  0  0
  1  2  1  0
  2  3  1  0
  3  4  1  6
  3  5  1  0
  5  6  2  3
  6  7  1  0
  7  8  2  3
  8  9  1  0
  8 13  1  0
  9 10  1  0
 10 11  1  0
 11 12  1  0
 12 13  2  0
 13 14  1  0
 14 15  2  0
 14 26  1  0
 15 16  1  0
 16 17  2  0
 16 18  1  0
 18 19  2  0
 18 25  1  0
 19 20  1  0
 20 21  1  0
 20 23  2  0
 21 22  1  0
 23 24  1  0
 24 25  2  0
 25 26  1  0
M  END
