
     RDKit          3D

 26 29  0  0  0  0  0  0  0  0999 V2000
   -2.6480    1.6640    0.2350 C   0  0  0  0  0  0  0  0  0  0  0  0
   -1.8420    0.6370    0.1500 C   0  0  0  0  0  0  0  0  0  0  0  0
   -0.5050    0.8120    0.6240 C   0  0  0  0  0  0  0  0  0  0  0  0
   -0.2500    1.9260    1.5380 C   0  0  0  0  0  0  0  0  0  0  0  0
    0.3950   -0.0560    0.1600 C   0  0  0  0  0  0  0  0  0  0  0  0
    1.8270   -0.0400    0.6420 C   0  0  0  0  0  0  0  0  0  0  0  0
    2.5750    0.2690   -0.6280 N   0  0  0  0  0  0  0  0  0  0  0  0
    3.8010   -0.3340   -0.7520 C   0  0  0  0  0  0  0  0  0  0  0  0
    5.0100   -0.0970    0.0310 C   0  0  0  0  0  0  0  0  0  0  0  0
    6.1880    0.1530   -0.4650 C   0  0  0  0  0  0  0  0  0  0  0  0
    7.1250    0.3080    0.6390 C   0  0  0  0  0  0  0  0  0  0  0  0
    6.3480    0.1570    1.8370 N   0  0  0  0  0  0  0  0  0  0  0  0
    5.1070   -0.0930    1.5020 C   0  0  0  0  0  0  0  0  0  0  0  0
    0.0860   -1.0860   -0.7370 C   0  0  0  0  0  0  0  0  0  0  0  0
   -1.2140   -1.2480   -1.1710 C   0  0  0  0  0  0  0  0  0  0  0  0
   -2.1850   -0.3690   -0.7070 C   0  0  0  0  0  0  0  0  0  0  0  0
   -3.4940   -0.7420   -0.7910 C   0  0  0  0  0  0  0  0  0  0  0  0
   -4.5020   -0.1290    0.0400 C   0  0  0  0  0  0  0  0  0  0  0  0
   -4.4910    0.0230    1.3840 C   0  0  0  0  0  0  0  0  0  0  0  0
   -5.6280    0.6860    1.7690 C   0  0  0  0  0  0  0  0  0  0  0  0
   -6.2900    0.9130    0.5610 C   0  0  0  0  0  0  0  0  0  0  0  0
   -5.5950    0.4130   -0.4180 O   0  0  0  0  0  0  0  0  0  0  0  0
   -3.8610   -1.6450   -1.8460 N   0  0  0  0  0  0  0  0  0  0  0  0
   -2.8490   -2.0730   -2.7330 C   0  0  0  0  0  0  0  0  0  0  0  0
   -3.0110   -2.1700   -3.9700 O   0  0  0  0  0  0  0  0  0  0  0  0
   -1.5290   -2.3920   -2.0680 C   0  0  0  0  0  0  0  0  0  0  0  0
  1  2  2  0
  2  3  1  0
  2 16  1  0
  3  4  1  0
  3  5  2  0
  5  6  1  0
  5 14  1  0
  6  7  1  0
  7  8  1  0
  8  9  1  0
  9 10  2  0
  9 13  1  0
 10 11  1  0
 11 12  1  0
 12 13  2  0
 14 15  2  0
 15 16  1  0
 15 26  1  0
 16 17  2  0
 17 18  1  0
 17 23  1  0
 18 19  2  0
 18 22  1  0
 19 20  1  0
 20 21  2  0
 21 22  1  0
 23 24  1  0
 24 25  2  0
 24 26  1  0
M  END
