
     RDKit          3D

 26 29  0  0  0  0  0  0  0  0999 V2000
    5.1470   -3.9580   -0.8000 O   0  0  0  0  0  0  0  0  0  0  0  0
    4.2650   -3.3450    0.1500 C   0  0  0  0  0  0  0  0  0  0  0  0
    3.7640   -2.0730   -0.3890 C   0  0  0  0  0  0  0  0  0  0  0  0
    2.4630   -1.7540   -0.6540 C   0  0  0  0  0  0  0  0  0  0  0  0
    2.0430   -0.5220   -1.0780 C   0  0  0  0  0  0  0  0  0  0  0  0
    0.6170   -0.1440   -1.2890 C   0  0  0  0  0  0  0  0  0  0  0  0
    0.0650    0.4780   -0.0600 N   0  0  0  0  0  0  0  0  0  0  0  0
    0.6670    1.6120    0.5470 C   0  0  0  0  0  0  0  0  0  0  0  0
   -0.1090    2.8760    0.4920 C   0  0  0  0  0  0  0  0  0  0  0  0
   -1.3440    3.1410    0.1240 C   0  0  0  0  0  0  0  0  0  0  0  0
   -1.6420    4.6140    0.2610 C   0  0  0  0  0  0  0  0  0  0  0  0
   -0.5670    5.0460    1.1250 N   0  0  0  0  0  0  0  0  0  0  0  0
    0.5510    4.2640    0.6960 C   0  0  0  0  0  0  0  0  0  0  0  0
   -1.1630   -0.0410    0.4190 C   0  0  0  0  0  0  0  0  0  0  0  0
   -1.6440    0.3510    1.6520 C   0  0  0  0  0  0  0  0  0  0  0  0
   -2.8820   -0.1500    2.0400 C   0  0  0  0  0  0  0  0  0  0  0  0
   -3.5630   -1.0000    1.1880 C   0  0  0  0  0  0  0  0  0  0  0  0
   -3.0670   -1.3880   -0.0590 C   0  0  0  0  0  0  0  0  0  0  0  0
   -3.8610   -2.2320   -0.9960 C   0  0  1  0  0  0  0  0  0  0  0  0
   -4.5940   -3.4660   -0.4270 C   0  0  0  0  0  0  0  0  0  0  0  0
   -5.3300   -2.2690   -0.8860 C   0  0  0  0  0  0  0  0  0  0  0  0
   -1.8790   -0.8870   -0.3840 N   0  0  0  0  0  0  0  0  0  0  0  0
    2.9600    0.4910   -1.2720 C   0  0  0  0  0  0  0  0  0  0  0  0
    4.2790    0.2070   -1.0120 C   0  0  0  0  0  0  0  0  0  0  0  0
    4.6640   -1.0100   -0.5900 C   0  0  0  0  0  0  0  0  0  0  0  0
    6.0230   -1.3120   -0.3100 O   0  0  0  0  0  0  0  0  0  0  0  0
  1  2  1  0
  2  3  1  0
  3  4  2  0
  3 25  1  0
  4  5  1  0
  5  6  1  0
  5 23  2  0
  6  7  1  0
  7  8  1  0
  7 14  1  0
  8  9  1  0
  9 10  2  0
  9 13  1  0
 10 11  1  0
 11 12  1  0
 12 13  1  0
 14 15  2  0
 14 22  1  0
 15 16  1  0
 16 17  2  0
 17 18  1  0
 19 18  1  1
 18 22  2  0
 19 20  1  0
 19 21  1  0
 20 21  1  0
 23 24  1  0
 24 25  2  0
 25 26  1  0
M  END
