
     RDKit          3D

 15 16  0  0  0  0  0  0  0  0999 V2000
   -1.7280    2.5530   -0.5210 N   0  0  0  0  0  0  0  0  0  0  0  0
   -1.3130    1.1660   -0.3670 C   0  0  0  0  0  0  0  0  0  0  0  0
   -0.1030    0.7250   -0.6570 C   0  0  0  0  0  0  0  0  0  0  0  0
    0.1820   -0.6230   -0.4710 C   0  0  0  0  0  0  0  0  0  0  0  0
    1.4090   -1.3800   -0.6880 C   0  0  0  0  0  0  0  0  0  0  0  0
    2.6080   -0.9750   -0.3650 C   0  0  0  0  0  0  0  0  0  0  0  0
    3.8160   -1.7000   -0.5720 N   0  0  0  0  0  0  0  0  0  0  0  0
    4.8670   -0.9300   -0.0760 N   0  0  0  0  0  0  0  0  0  0  0  0
    4.3820    0.2920    0.4560 C   0  0  0  0  0  0  0  0  0  0  0  0
    5.0660    1.2120    0.9810 O   0  0  0  0  0  0  0  0  0  0  0  0
    2.9550    0.2510    0.2680 N   0  0  0  0  0  0  0  0  0  0  0  0
   -1.2890   -1.2590    0.1200 S   0  0  0  0  0  0  0  0  0  0  0  0
   -2.2740    0.2800    0.1150 C   0  0  0  0  0  0  0  0  0  0  0  0
   -3.6570    0.4300    0.5200 C   0  0  0  0  0  0  0  0  0  0  0  0
   -4.2320   -0.8420    0.9600 N   0  0  0  0  0  0  0  0  0  0  0  0
  1  2  1  0
  2  3  1  0
  2 13  2  0
  3  4  2  0
  4  5  1  0
  4 12  1  0
  5  6  2  3
  6  7  1  0
  6 11  1  0
  7  8  1  0
  8  9  1  0
  9 10  2  0
  9 11  1  0
 12 13  1  0
 13 14  1  0
 14 15  1  0
M  CHG  1  15   1
M  END
