
     RDKit          3D

 15 16  0  0  0  0  0  0  0  0999 V2000
   -3.8110   -0.5810    0.1280 N   0  0  0  0  0  0  0  0  0  0  0  0
   -2.4270   -0.2960   -0.0020 C   0  0  0  0  0  0  0  0  0  0  0  0
   -1.5260   -1.2760    0.3230 C   0  0  0  0  0  0  0  0  0  0  0  0
   -0.1810   -0.9960    0.1960 C   0  0  0  0  0  0  0  0  0  0  0  0
    0.7790   -1.9280    0.5030 C   0  0  0  0  0  0  0  0  0  0  0  0
    2.1250   -1.6660    0.3820 C   0  0  0  0  0  0  0  0  0  0  0  0
    2.5260   -0.4180   -0.0640 C   0  0  0  0  0  0  0  0  0  0  0  0
    3.9200   -0.1190   -0.1990 N   0  0  0  0  0  0  0  0  0  0  0  0
    4.3910    1.4440   -0.7580 S   0  0  0  0  0  0  0  0  0  0  0  0
    3.9520    2.5580    0.2080 O   0  0  0  0  0  0  0  0  0  0  0  0
    1.6010    0.5080   -0.3700 N   0  0  0  0  0  0  0  0  0  0  0  0
    0.2910    0.2330   -0.2450 C   0  0  0  0  0  0  0  0  0  0  0  0
   -0.6430    1.1630   -0.5520 N   0  0  0  0  0  0  0  0  0  0  0  0
   -1.9590    0.9240   -0.4400 C   0  0  0  0  0  0  0  0  0  0  0  0
   -2.8670    1.9370   -0.7760 N   0  0  0  0  0  0  0  0  0  0  0  0
  1  2  1  0
  2  3  2  0
  2 14  1  0
  3  4  1  0
  4  5  2  0
  4 12  1  0
  5  6  1  0
  6  7  2  0
  7  8  1  0
  7 11  1  0
  8  9  1  0
  9 10  2  0
 11 12  2  0
 12 13  1  0
 13 14  2  0
 14 15  1  0
M  CHG  1  15   1
M  END
