
     RDKit          3D

 26 29  0  0  0  0  0  0  0  0999 V2000
   -2.7080    2.1710    1.4420 O   0  0  0  0  0  0  0  0  0  0  0  0
   -2.1020    1.1500    0.8840 C   0  0  0  0  0  0  0  0  0  0  0  0
   -0.7900    0.8750    1.4280 C   0  0  0  0  0  0  0  0  0  0  0  0
   -0.4640    0.0070    2.4360 C   0  0  0  0  0  0  0  0  0  0  0  0
    0.8830    0.0990    2.6560 N   0  0  0  0  0  0  0  0  0  0  0  0
    1.4330    0.9910    1.8260 C   0  0  0  0  0  0  0  0  0  0  0  0
    0.4070    1.4950    1.0420 C   0  0  0  0  0  0  0  0  0  0  0  0
    0.4870    2.4940   -0.0230 C   0  0  0  0  0  0  0  0  0  0  0  0
    1.6940    2.4790   -0.8770 C   0  0  0  0  0  0  0  0  0  0  0  0
    2.0120    1.2900   -1.6860 C   0  0  0  0  0  0  0  0  0  0  0  0
    2.2870    0.0250   -1.0230 C   0  0  0  0  0  0  0  0  0  0  0  0
    1.4380   -1.0490   -0.8780 C   0  0  0  0  0  0  0  0  0  0  0  0
    2.0980   -2.0470   -0.1850 C   0  0  0  0  0  0  0  0  0  0  0  0
    3.3520   -1.6090    0.1050 N   0  0  0  0  0  0  0  0  0  0  0  0
    4.3750   -2.2280    0.7640 C   0  0  0  0  0  0  0  0  0  0  0  0
    5.5760   -1.5590    0.9250 C   0  0  0  0  0  0  0  0  0  0  0  0
    5.7010   -0.2990    0.4190 C   0  0  0  0  0  0  0  0  0  0  0  0
    4.6460    0.3050   -0.2450 C   0  0  0  0  0  0  0  0  0  0  0  0
    3.4620   -0.3880   -0.3900 C   0  0  0  0  0  0  0  0  0  0  0  0
   -2.7980    0.5030   -0.1240 N   0  0  0  0  0  0  0  0  0  0  0  0
   -4.1170    1.0060   -0.5180 C   0  0  0  0  0  0  0  0  0  0  0  0
   -5.1960   -0.0280   -0.2150 C   0  0  0  0  0  0  0  0  0  0  0  0
   -4.6710   -1.4290   -0.3480 C   0  0  1  0  0  0  0  0  0  0  0  0
   -5.6800   -2.2140   -0.8980 O   0  0  0  0  0  0  0  0  0  0  0  0
   -3.4980   -1.4870   -1.3170 C   0  0  0  0  0  0  0  0  0  0  0  0
   -2.3200   -0.6630   -0.8020 C   0  0  0  0  0  0  0  0  0  0  0  0
  1  2  2  0
  2  3  1  0
  2 20  1  0
  3  4  2  0
  3  7  1  0
  4  5  1  0
  5  6  1  0
  6  7  2  0
  7  8  1  0
  8  9  1  0
  9 10  1  0
 10 11  1  0
 11 12  1  0
 11 19  2  0
 12 13  2  0
 13 14  1  0
 14 15  1  0
 14 19  1  0
 15 16  2  0
 16 17  1  0
 17 18  2  0
 18 19  1  0
 20 21  1  0
 20 26  1  0
 21 22  1  0
 22 23  1  0
 23 24  1  6
 23 25  1  0
 25 26  1  0
M  END
