
     RDKit          3D

 27 29  0  0  0  0  0  0  0  0999 V2000
   -1.6460   -0.6260   -1.3230 C   0  0  0  0  0  0  0  0  0  0  0  0
   -2.3720   -1.1140   -0.0160 C   0  0  2  0  0  0  0  0  0  0  0  0
   -3.2260   -2.2050   -0.7460 C   0  0  0  0  0  0  0  0  0  0  0  0
   -3.2550   -0.0340    0.4430 C   0  0  0  0  0  0  0  0  0  0  0  0
   -2.8090    1.1760    0.6470 C   0  0  0  0  0  0  0  0  0  0  0  0
   -1.4460    1.6920    0.5740 C   0  0  0  0  0  0  0  0  0  0  0  0
   -1.2920    2.9790    0.6710 O   0  0  0  0  0  0  0  0  0  0  0  0
   -0.2000    1.0730    0.4360 N   0  0  0  0  0  0  0  0  0  0  0  0
    1.0530    1.7270    0.2730 C   0  0  0  0  0  0  0  0  0  0  0  0
    2.1640    1.0420    0.2080 C   0  0  0  0  0  0  0  0  0  0  0  0
    2.3910   -0.3710    0.3050 C   0  0  0  0  0  0  0  0  0  0  0  0
    3.6000   -0.8930    0.0210 C   0  0  0  0  0  0  0  0  0  0  0  0
    3.5880   -2.3490    0.1880 C   0  0  1  0  0  0  0  0  0  0  0  0
    3.4560   -3.0330   -1.1560 C   0  0  0  0  0  0  0  0  0  0  0  0
    4.8740   -2.8330    0.8350 C   0  0  0  0  0  0  0  0  0  0  0  0
    2.4960   -2.6050    0.9690 O   0  0  0  0  0  0  0  0  0  0  0  0
    1.6670   -1.4360    0.9170 C   0  0  0  0  0  0  0  0  0  0  0  0
    0.5140   -1.5360    1.4010 O   0  0  0  0  0  0  0  0  0  0  0  0
    3.3920    1.9610    0.0770 C   0  0  0  0  0  0  0  0  0  0  0  0
    3.2200    2.7290   -1.1970 C   0  0  0  0  0  0  0  0  0  0  0  0
    1.8860    3.3920   -1.2830 C   0  0  0  0  0  0  0  0  0  0  0  0
    1.2180    3.2070    0.0930 C   0  0  0  0  0  0  0  0  0  0  0  0
   -3.7910    2.3380    0.6570 C   0  0  0  0  0  0  0  0  0  0  0  0
   -5.0590    2.2850    0.4620 C   0  0  0  0  0  0  0  0  0  0  0  0
   -5.7870    0.6930    0.1280 S   0  0  0  0  0  0  0  0  0  0  0  0
   -4.6170   -0.3630    0.9740 C   0  0  1  0  0  0  0  0  0  0  0  0
   -5.0220   -1.7340    1.2090 C   0  0  0  0  0  0  0  0  0  0  0  0
  2  1  1  6
  2  3  1  0
  2  4  1  0
  4  5  2  0
  4 26  1  0
  5  6  1  0
  5 23  1  0
  6  7  2  0
  6  8  1  0
  8  9  1  0
  9 10  2  0
  9 22  1  0
 10 11  1  0
 10 19  1  0
 11 12  2  0
 11 17  1  0
 12 13  1  0
 13 14  1  6
 13 15  1  0
 13 16  1  0
 16 17  1  0
 17 18  2  0
 19 20  1  0
 20 21  1  0
 21 22  1  0
 23 24  2  0
 24 25  1  0
 25 26  1  0
 26 27  1  6
M  END
