
     RDKit          3D

 26 28  0  0  0  0  0  0  0  0999 V2000
   -4.4800   -0.5500   -0.1620 C   0  0  0  0  0  0  0  0  0  0  0  0
   -3.5140    0.3030   -0.9490 C   0  0  0  0  0  0  0  0  0  0  0  0
   -2.5690   -0.5050   -1.5880 O   0  0  0  0  0  0  0  0  0  0  0  0
   -1.6860   -1.3820   -1.1020 C   0  0  0  0  0  0  0  0  0  0  0  0
   -0.5850   -1.1980   -0.4740 C   0  0  0  0  0  0  0  0  0  0  0  0
    0.0440    0.0560   -0.1070 C   0  0  0  0  0  0  0  0  0  0  0  0
   -0.5080    1.0670   -0.4510 O   0  0  0  0  0  0  0  0  0  0  0  0
    1.2850   -0.0390    0.6390 C   0  0  0  0  0  0  0  0  0  0  0  0
    1.8170   -1.7180    1.1830 S   0  0  0  0  0  0  0  0  0  0  0  0
    3.2900   -1.1550    1.9720 C   0  0  0  0  0  0  0  0  0  0  0  0
    3.2840    0.1920    1.7800 C   0  0  0  0  0  0  0  0  0  0  0  0
    4.3470    0.9950    2.2630 C   0  0  0  0  0  0  0  0  0  0  0  0
    4.3570    2.3440    2.0500 C   0  0  0  0  0  0  0  0  0  0  0  0
    3.3120    2.9070    1.3540 C   0  0  0  0  0  0  0  0  0  0  0  0
    3.1180    4.2470    0.9990 C   0  0  0  0  0  0  0  0  0  0  0  0
    1.9690    4.3070    0.3090 C   0  0  0  0  0  0  0  0  0  0  0  0
    1.3540    5.5260   -0.2800 C   0  0  0  0  0  0  0  0  0  0  0  0
    1.4880    2.9960    0.2600 C   0  0  0  0  0  0  0  0  0  0  0  0
    2.3060    2.1470    0.8960 N   0  0  0  0  0  0  0  0  0  0  0  0
    2.2750    0.7680    1.1050 C   0  0  0  0  0  0  0  0  0  0  0  0
   -2.0450   -2.8880   -1.3450 C   0  0  0  0  0  0  0  0  0  0  0  0
   -3.1530   -3.0530   -2.0030 C   0  0  0  0  0  0  0  0  0  0  0  0
   -3.8260   -4.2520   -2.4200 C   0  0  0  0  0  0  0  0  0  0  0  0
   -2.8230   -5.2460   -1.7840 O   0  0  0  0  0  0  0  0  0  0  0  0
   -1.2100   -3.7280   -0.8780 O   0  0  0  0  0  0  0  0  0  0  0  0
   -0.3820   -4.7150   -0.5500 C   0  0  0  0  0  0  0  0  0  0  0  0
  1  2  1  0
  2  3  1  0
  3  4  1  0
  4  5  2  3
  4 21  1  0
  5  6  1  0
  6  7  2  0
  6  8  1  0
  8  9  1  0
  8 20  2  0
  9 10  1  0
 10 11  2  0
 11 12  1  0
 11 20  1  0
 12 13  2  0
 13 14  1  0
 14 15  2  0
 14 19  1  0
 15 16  1  0
 16 17  1  0
 16 18  2  0
 18 19  1  0
 19 20  1  0
 21 22  2  3
 21 25  1  0
 22 23  1  0
 23 24  2  0
 25 26  1  0
M  END
