
     RDKit          3D

 27 28  0  0  0  0  0  0  0  0999 V2000
   -5.8660    1.6080    0.1940 C   0  0  0  0  0  0  0  0  0  0  0  0
   -5.5200    0.4430   -0.7570 C   0  0  0  0  0  0  0  0  0  0  0  0
   -3.9920    0.2340   -1.2520 S   0  0  0  0  0  0  0  0  0  0  0  0
   -4.1300   -1.3230   -1.5350 C   0  0  0  0  0  0  0  0  0  0  0  0
   -3.6200    1.7640   -1.1970 C   0  0  0  0  0  0  0  0  0  0  0  0
   -3.5350    0.3220   -2.8940 O   0  0  0  0  0  0  0  0  0  0  0  0
   -2.7070   -0.1030   -0.1520 C   0  0  0  0  0  0  0  0  0  0  0  0
   -3.0230   -0.3780    1.1240 C   0  0  0  0  0  0  0  0  0  0  0  0
   -2.0250   -0.6520    2.0210 C   0  0  0  0  0  0  0  0  0  0  0  0
   -2.2940   -0.9600    3.4250 C   0  0  0  0  0  0  0  0  0  0  0  0
   -0.6970   -0.6370    1.5770 C   0  0  0  0  0  0  0  0  0  0  0  0
    0.2820   -0.9290    2.5230 O   0  0  0  0  0  0  0  0  0  0  0  0
    0.6500   -2.2870    2.7860 C   0  0  0  0  0  0  0  0  0  0  0  0
   -0.3750   -0.3580    0.2980 C   0  0  0  0  0  0  0  0  0  0  0  0
    0.9660   -0.2230   -0.2300 C   0  0  0  0  0  0  0  0  0  0  0  0
    1.0980   -0.0150   -1.5050 O   0  0  0  0  0  0  0  0  0  0  0  0
    2.1710   -0.2980    0.4960 N   0  0  0  0  0  0  0  0  0  0  0  0
    3.4540   -0.1640   -0.1660 C   0  0  0  0  0  0  0  0  0  0  0  0
    4.0190    1.0850   -0.2970 C   0  0  0  0  0  0  0  0  0  0  0  0
    3.3120    2.2730    0.2370 C   0  0  0  0  0  0  0  0  0  0  0  0
    5.2350    1.2540   -0.9190 C   0  0  0  0  0  0  0  0  0  0  0  0
    5.8950    0.1260   -1.4200 C   0  0  0  0  0  0  0  0  0  0  0  0
    7.2150    0.3160   -2.0940 C   0  0  0  0  0  0  0  0  0  0  0  0
    5.3090   -1.1080   -1.2760 C   0  0  0  0  0  0  0  0  0  0  0  0
    4.0830   -1.2910   -0.6500 C   0  0  0  0  0  0  0  0  0  0  0  0
    3.5090   -2.6560   -0.5300 C   0  0  0  0  0  0  0  0  0  0  0  0
   -1.4420   -0.0830   -0.5940 C   0  0  0  0  0  0  0  0  0  0  0  0
  1  2  1  0
  2  3  1  0
  3  4  1  0
  3  5  1  0
  3  6  2  0
  3  7  1  0
  7  8  2  0
  7 27  1  0
  8  9  1  0
  9 10  1  0
  9 11  2  0
 11 12  1  0
 11 14  1  0
 12 13  1  0
 14 15  1  0
 14 27  2  0
 15 16  2  0
 15 17  1  0
 17 18  1  0
 18 19  2  0
 18 25  1  0
 19 20  1  0
 19 21  1  0
 21 22  2  0
 22 23  1  0
 22 24  1  0
 24 25  2  0
 25 26  1  0
M  END
