
     RDKit          3D

 26 28  0  0  0  0  0  0  0  0999 V2000
    6.4460   -0.9030   -0.8900 C   0  0  0  0  0  0  0  0  0  0  0  0
    4.9330   -0.7830   -0.8510 C   0  0  0  0  0  0  0  0  0  0  0  0
    4.4750   -0.9300    0.5760 C   0  0  0  0  0  0  0  0  0  0  0  0
    3.1260   -0.8400    0.6930 O   0  0  0  0  0  0  0  0  0  0  0  0
    2.1880    0.0970    0.4500 C   0  0  0  0  0  0  0  0  0  0  0  0
    2.3580    1.3730   -0.0260 C   0  0  0  0  0  0  0  0  0  0  0  0
    1.2850    2.2310   -0.2290 C   0  0  0  0  0  0  0  0  0  0  0  0
    0.0180    1.8640    0.0290 N   0  0  0  0  0  0  0  0  0  0  0  0
   -1.1800    2.4740   -0.0680 C   0  0  0  0  0  0  0  0  0  0  0  0
   -1.4360    3.8180   -0.5360 C   0  0  0  0  0  0  0  0  0  0  0  0
   -0.4640    4.7990   -1.0080 C   0  0  0  0  0  0  0  0  0  0  0  0
   -2.6610    4.2090   -0.5420 O   0  0  0  0  0  0  0  0  0  0  0  0
   -2.1660    1.5850    0.3530 C   0  0  0  0  0  0  0  0  0  0  0  0
   -1.5570    0.4230    0.7080 C   0  0  0  0  0  0  0  0  0  0  0  0
   -2.0950   -0.7970    1.2550 C   0  0  0  0  0  0  0  0  0  0  0  0
   -1.5870   -1.2370    2.4900 C   0  0  0  0  0  0  0  0  0  0  0  0
   -2.0890   -2.3790    3.0210 C   0  0  0  0  0  0  0  0  0  0  0  0
   -3.0700   -3.1130    2.3980 C   0  0  0  0  0  0  0  0  0  0  0  0
   -3.5380   -2.6480    1.1950 C   0  0  0  0  0  0  0  0  0  0  0  0
   -3.0750   -1.4790    0.5750 C   0  0  0  0  0  0  0  0  0  0  0  0
   -3.7560   -1.0020   -0.9570 S   0  0  1  0  0  0  0  0  0  0  0  0
   -4.8270   -2.3570   -1.5020 C   0  0  0  0  0  0  0  0  0  0  0  0
   -4.7300    0.1600   -0.8210 O   0  0  0  0  0  0  0  0  0  0  0  0
   -2.7590   -0.7950   -2.0250 O   0  0  0  0  0  0  0  0  0  0  0  0
   -0.1890    0.6100    0.5010 C   0  0  0  0  0  0  0  0  0  0  0  0
    0.8690   -0.2640    0.7110 C   0  0  0  0  0  0  0  0  0  0  0  0
  1  2  1  0
  2  3  1  0
  3  4  1  0
  4  5  1  0
  5  6  1  0
  5 26  2  0
  6  7  2  0
  7  8  1  0
  8  9  1  0
  8 25  1  0
  9 10  1  0
  9 13  2  0
 10 11  1  0
 10 12  2  0
 13 14  1  0
 14 15  1  0
 14 25  2  0
 15 16  2  0
 15 20  1  0
 16 17  1  0
 17 18  2  0
 18 19  1  0
 19 20  2  0
 20 21  1  0
 21 22  1  6
 21 23  2  0
 21 24  2  0
 25 26  1  0
M  END
