
     RDKit          3D

 27 29  0  0  0  0  0  0  0  0999 V2000
    2.9430    1.1460    2.9680 C   0  0  0  0  0  0  0  0  0  0  0  0
    2.8330   -0.1490    2.3720 O   0  0  0  0  0  0  0  0  0  0  0  0
    3.9100   -0.6050    1.6370 C   0  0  0  0  0  0  0  0  0  0  0  0
    5.1310   -0.8940    2.1130 C   0  0  0  0  0  0  0  0  0  0  0  0
    5.9880   -1.3400    1.0530 C   0  0  0  0  0  0  0  0  0  0  0  0
    5.3030   -1.3380   -0.1300 C   0  0  0  0  0  0  0  0  0  0  0  0
    6.0330   -1.8250   -1.6490 S   0  0  0  0  0  0  0  0  0  0  0  0
    4.9820   -1.7610   -3.0790 C   0  0  0  0  0  0  0  0  0  0  0  0
    3.9680   -0.8740    0.1970 C   0  0  0  0  0  0  0  0  0  0  0  0
    2.9640   -0.7170   -0.6500 C   0  0  0  0  0  0  0  0  0  0  0  0
    1.6310   -0.2510   -0.3060 C   0  0  0  0  0  0  0  0  0  0  0  0
    0.6770   -0.1180   -1.2080 C   0  0  0  0  0  0  0  0  0  0  0  0
    1.1170   -0.5000   -2.6160 C   0  0  0  0  0  0  0  0  0  0  0  0
   -0.6630    0.3580   -0.9980 C   0  0  0  0  0  0  0  0  0  0  0  0
   -1.3980    0.3430   -2.0660 O   0  0  0  0  0  0  0  0  0  0  0  0
   -1.2570    0.8180    0.1740 N   0  0  0  0  0  0  0  0  0  0  0  0
   -0.6880    1.0430    1.4640 C   0  0  0  0  0  0  0  0  0  0  0  0
   -1.6600    1.9320    2.1990 C   0  0  0  0  0  0  0  0  0  0  0  0
   -3.0020    1.5340    1.6500 C   0  0  0  0  0  0  0  0  0  0  0  0
   -2.7000    1.1170    0.2560 C   0  0  2  0  0  0  0  0  0  0  0  0
   -3.4790   -0.0520   -0.2280 C   0  0  0  0  0  0  0  0  0  0  0  0
   -3.0130   -1.2850   -0.4090 C   0  0  0  0  0  0  0  0  0  0  0  0
   -4.0580   -2.1880   -0.8930 C   0  0  0  0  0  0  0  0  0  0  0  0
   -5.2370   -1.3090   -0.9630 C   0  0  0  0  0  0  0  0  0  0  0  0
   -4.8750   -0.0640   -0.5720 C   0  0  0  0  0  0  0  0  0  0  0  0
   -5.8460    0.9150   -0.5760 O   0  0  0  0  0  0  0  0  0  0  0  0
   -5.9480    2.1000    0.0910 C   0  0  0  0  0  0  0  0  0  0  0  0
  1  2  1  0
  2  3  1  0
  3  4  2  0
  3  9  1  0
  4  5  1  0
  5  6  2  0
  6  7  1  0
  6  9  1  0
  7  8  1  0
  9 10  2  3
 10 11  1  0
 11 12  2  3
 12 13  1  0
 12 14  1  0
 14 15  2  0
 14 16  1  0
 16 17  1  0
 16 20  1  0
 17 18  1  0
 18 19  1  0
 19 20  1  0
 20 21  1  1
 21 22  2  0
 21 25  1  0
 22 23  1  0
 23 24  1  0
 24 25  2  0
 25 26  1  0
 26 27  1  0
M  END
