
     RDKit          3D

 34 37  0  0  0  0  0  0  0  0999 V2000
   -0.0770   -2.0870   -3.7210 C   0  0  0  0  0  0  0  0  0  0  0  0
   -1.2880   -2.5900   -3.5520 C   0  0  0  0  0  0  0  0  0  0  0  0
   -2.0710   -2.5520   -2.3840 C   0  0  0  0  0  0  0  0  0  0  0  0
   -3.3140   -3.1860   -2.4720 C   0  0  0  0  0  0  0  0  0  0  0  0
   -3.6940   -3.8220   -3.7440 C   0  0  0  0  0  0  0  0  0  0  0  0
   -1.7650   -2.1370   -1.0840 N   0  0  0  0  0  0  0  0  0  0  0  0
   -2.5520   -1.2750   -0.3010 C   0  0  0  0  0  0  0  0  0  0  0  0
   -2.4840    0.1710   -0.3920 C   0  0  0  0  0  0  0  0  0  0  0  0
   -3.4520    1.0380   -0.7380 C   0  0  0  0  0  0  0  0  0  0  0  0
   -3.0850    2.4490   -0.7320 C   0  0  0  0  0  0  0  0  0  0  0  0
   -1.8850    2.9390   -0.4660 C   0  0  0  0  0  0  0  0  0  0  0  0
   -1.4540    4.2920   -0.3790 C   0  0  0  0  0  0  0  0  0  0  0  0
   -0.2150    4.7280   -0.3900 C   0  0  0  0  0  0  0  0  0  0  0  0
    0.8080    3.7120   -0.5250 C   0  0  0  0  0  0  0  0  0  0  0  0
    0.5390    2.3900   -0.6390 C   0  0  0  0  0  0  0  0  0  0  0  0
    1.7120    1.4960   -0.7930 C   0  0  0  0  0  0  0  0  0  0  0  0
    2.9760    1.9780   -0.7580 F   0  0  0  0  0  0  0  0  0  0  0  0
    1.5780    0.2160   -0.9690 C   0  0  0  0  0  0  0  0  0  0  0  0
    2.5820   -0.8280   -1.1350 C   0  0  0  0  0  0  0  0  0  0  0  0
   -0.7850    1.8710   -0.6290 C   0  0  1  0  0  0  0  0  0  0  0  0
   -1.2600    0.8140    0.1490 N   0  0  0  0  0  0  0  0  0  0  0  0
   -0.7470    0.3540    1.4280 C   0  0  0  0  0  0  0  0  0  0  0  0
   -1.4500    0.3180    2.5400 N   0  0  0  0  0  0  0  0  0  0  0  0
   -0.6620   -0.1850    3.6190 C   0  0  0  0  0  0  0  0  0  0  0  0
    0.6400   -0.4500    2.9950 C   0  0  0  0  0  0  0  0  0  0  0  0
    1.8490   -0.9790    3.5460 N   0  0  0  0  0  0  0  0  0  0  0  0
    3.1080   -0.3710    3.3260 C   0  0  0  0  0  0  0  0  0  0  0  0
    3.2940    0.9380    2.9210 C   0  0  0  0  0  0  0  0  0  0  0  0
    4.5480    1.4420    2.6920 C   0  0  0  0  0  0  0  0  0  0  0  0
    5.6510    0.6440    2.8620 C   0  0  0  0  0  0  0  0  0  0  0  0
    7.2630    1.2990    2.5620 Cl  0  0  0  0  0  0  0  0  0  0  0  0
    5.4940   -0.6330    3.2500 N   0  0  0  0  0  0  0  0  0  0  0  0
    4.2470   -1.1310    3.4780 C   0  0  0  0  0  0  0  0  0  0  0  0
    0.5290   -0.1250    1.7590 N   0  0  0  0  0  0  0  0  0  0  0  0
  1  2  2  0
  2  3  1  0
  3  4  2  3
  3  6  1  0
  4  5  1  0
  6  7  1  0
  7  8  1  0
  8  9  2  0
  8 21  1  0
  9 10  1  0
 10 11  2  0
 11 12  1  0
 11 20  1  0
 12 13  2  0
 13 14  1  0
 14 15  2  0
 15 16  1  0
 15 20  1  0
 16 17  1  0
 16 18  2  3
 18 19  1  0
 20 21  1  1
 21 22  1  0
 22 23  2  0
 22 34  1  0
 23 24  1  0
 24 25  1  0
 25 26  1  0
 25 34  2  0
 26 27  1  0
 27 28  2  0
 27 33  1  0
 28 29  1  0
 29 30  2  0
 30 31  1  0
 30 32  1  0
 32 33  2  0
M  CHG  1  23   1
M  END
