
     RDKit          3D

 35 39  0  0  0  0  0  0  0  0999 V2000
    5.9860   -0.2940   -1.2380 C   0  0  0  0  0  0  0  0  0  0  0  0
    6.5840   -0.0500    0.0630 N   0  0  0  0  0  0  0  0  0  0  0  0
    7.9420    0.0700    0.2210 C   0  0  0  0  0  0  0  0  0  0  0  0
    8.2220    0.2900    1.5080 N   0  0  0  0  0  0  0  0  0  0  0  0
    7.0960    0.3200    2.2110 C   0  0  0  0  0  0  0  0  0  0  0  0
    6.8510    0.5670    3.9180 Cl  0  0  0  0  0  0  0  0  0  0  0  0
    6.0530    0.1000    1.2660 C   0  0  0  0  0  0  0  0  0  0  0  0
    4.6650    0.0770    1.7040 C   0  0  0  0  0  0  0  0  0  0  0  0
    3.6500   -0.1440    0.7510 N   0  0  1  0  0  0  0  0  0  0  0  0
    3.3190   -1.5810    0.6570 C   0  0  0  0  0  0  0  0  0  0  0  0
    2.4200    0.4970    1.2520 C   0  0  0  0  0  0  0  0  0  0  0  0
    1.9520    1.5970    0.3510 C   0  0  0  0  0  0  0  0  0  0  0  0
    1.6170    1.1780   -1.0450 C   0  0  0  0  0  0  0  0  0  0  0  0
    0.5100    0.1610   -0.9910 C   0  0  0  0  0  0  0  0  0  0  0  0
    0.6030   -1.1620   -1.1590 N   0  0  0  0  0  0  0  0  0  0  0  0
   -0.5990   -1.7460   -1.0430 N   0  0  0  0  0  0  0  0  0  0  0  0
   -0.8690   -3.1730   -1.1860 C   0  0  0  0  0  0  0  0  0  0  0  0
   -1.5090   -0.7930   -0.7910 C   0  0  0  0  0  0  0  0  0  0  0  0
   -2.8750   -0.8290   -0.5940 C   0  0  0  0  0  0  0  0  0  0  0  0
   -3.6480   -2.0200   -0.5770 N   0  0  0  0  0  0  0  0  0  0  0  0
   -3.6250   -2.9720    0.5110 C   0  0  0  0  0  0  0  0  0  0  0  0
   -4.2060   -4.2520   -0.0540 C   0  0  0  0  0  0  0  0  0  0  0  0
   -5.3000   -3.6720   -0.9570 C   0  0  0  0  0  0  0  0  0  0  0  0
   -4.5720   -2.5050   -1.5860 C   0  0  0  0  0  0  0  0  0  0  0  0
   -3.4860    0.3720   -0.3720 N   0  0  0  0  0  0  0  0  0  0  0  0
   -2.8310    1.5380   -0.3380 C   0  0  0  0  0  0  0  0  0  0  0  0
   -3.5340    2.8020   -0.0970 C   0  0  0  0  0  0  0  0  0  0  0  0
   -4.8940    2.8440    0.1060 C   0  0  0  0  0  0  0  0  0  0  0  0
   -5.5540    4.0430    0.3330 C   0  0  0  0  0  0  0  0  0  0  0  0
   -4.8720    5.2420    0.3650 C   0  0  0  0  0  0  0  0  0  0  0  0
   -5.5500    6.4330    0.5940 O   0  0  0  0  0  0  0  0  0  0  0  0
   -3.5080    5.2000    0.1620 C   0  0  0  0  0  0  0  0  0  0  0  0
   -2.8610    4.0040   -0.0630 C   0  0  0  0  0  0  0  0  0  0  0  0
   -1.5030    1.5420   -0.5320 N   0  0  0  0  0  0  0  0  0  0  0  0
   -0.8310    0.4150   -0.7560 C   0  0  0  0  0  0  0  0  0  0  0  0
  1  2  1  0
  2  3  1  0
  2  7  1  0
  3  4  2  0
  4  5  1  0
  5  6  1  0
  5  7  2  0
  7  8  1  0
  8  9  1  0
  9 10  1  1
  9 11  1  0
 11 12  1  0
 12 13  1  0
 13 14  1  0
 14 15  2  0
 14 35  1  0
 15 16  1  0
 16 17  1  0
 16 18  1  0
 18 19  2  0
 18 35  1  0
 19 20  1  0
 19 25  1  0
 20 21  1  0
 20 24  1  0
 21 22  1  0
 22 23  1  0
 23 24  1  0
 25 26  2  0
 26 27  1  0
 26 34  1  0
 27 28  2  0
 27 33  1  0
 28 29  1  0
 29 30  2  0
 30 31  1  0
 30 32  1  0
 32 33  2  0
 34 35  2  0
M  CHG  1   9   1
M  END
