
     RDKit          3D

 34 38  0  0  0  0  0  0  0  0999 V2000
   -4.1130   -2.4060    0.7700 C   0  0  0  0  0  0  0  0  0  0  0  0
   -4.0420   -1.1750    1.5940 C   0  0  0  0  0  0  0  0  0  0  0  0
   -3.8490    0.1470    0.9260 C   0  0  1  0  0  0  0  0  0  0  0  0
   -3.8490    1.1590    1.9660 N   0  0  0  0  0  0  0  0  0  0  0  0
   -4.2900    2.4510    1.5980 C   0  0  0  0  0  0  0  0  0  0  0  0
   -2.9240    0.2960   -0.1850 C   0  0  2  0  0  0  0  0  0  0  0  0
   -3.2250   -0.4970   -1.4550 C   0  0  0  0  0  0  0  0  0  0  0  0
   -4.5770   -0.0780   -1.9700 C   0  0  1  0  0  0  0  0  0  0  0  0
   -4.6350    1.3980   -2.2860 C   0  0  0  0  0  0  0  0  0  0  0  0
   -4.8090   -0.8160   -3.2900 C   0  0  0  0  0  0  0  0  0  0  0  0
   -1.5210    0.2990    0.0640 N   0  0  0  0  0  0  0  0  0  0  0  0
   -0.8850    1.3280    0.7520 C   0  0  0  0  0  0  0  0  0  0  0  0
   -0.2160    0.8220    1.9950 C   0  0  0  0  0  0  0  0  0  0  0  0
    1.2020    0.3110    1.7360 C   0  0  0  0  0  0  0  0  0  0  0  0
    1.3900   -0.0200    0.3460 N   0  0  0  0  0  0  0  0  0  0  0  0
    2.4840    0.5330   -0.3680 C   0  0  0  0  0  0  0  0  0  0  0  0
    2.2410    1.5230   -1.2910 N   0  0  0  0  0  0  0  0  0  0  0  0
    3.2310    2.0920   -1.9720 C   0  0  0  0  0  0  0  0  0  0  0  0
    4.4920    1.6980   -1.7600 N   0  0  0  0  0  0  0  0  0  0  0  0
    4.7740    0.7310   -0.8650 C   0  0  0  0  0  0  0  0  0  0  0  0
    3.7580    0.1080   -0.1300 C   0  0  0  0  0  0  0  0  0  0  0  0
    4.3460   -0.8310    0.6800 C   0  0  0  0  0  0  0  0  0  0  0  0
    3.6360   -1.7300    1.6100 C   0  0  0  0  0  0  0  0  0  0  0  0
    5.7020   -0.7680    0.4300 C   0  0  0  0  0  0  0  0  0  0  0  0
    6.8930   -1.3380    0.8050 C   0  0  0  0  0  0  0  0  0  0  0  0
    7.0100   -2.2460    1.6520 O   0  0  0  0  0  0  0  0  0  0  0  0
    7.8560   -0.7130    0.0750 N   0  0  0  0  0  0  0  0  0  0  0  0
    9.1750   -0.6500   -0.1710 C   0  0  0  0  0  0  0  0  0  0  0  0
    9.4340    0.3100   -1.1210 C   0  0  0  0  0  0  0  0  0  0  0  0
    8.2430    0.8370   -1.4540 N   0  0  0  0  0  0  0  0  0  0  0  0
    7.2890    0.2170   -0.7300 C   0  0  0  0  0  0  0  0  0  0  0  0
    5.9480    0.1640   -0.4900 N   0  0  0  0  0  0  0  0  0  0  0  0
    0.5760   -0.8770   -0.5260 C   0  0  0  0  0  0  0  0  0  0  0  0
   -0.8500   -0.9420   -0.0240 C   0  0  0  0  0  0  0  0  0  0  0  0
  1  2  1  0
  3  2  1  1
  3  4  1  0
  3  6  1  0
  4  5  1  0
  6  7  1  6
  6 11  1  0
  7  8  1  0
  8  9  1  6
  8 10  1  0
 11 12  1  0
 11 34  1  0
 12 13  1  0
 13 14  1  0
 14 15  1  0
 15 16  1  0
 15 33  1  0
 16 17  2  0
 16 21  1  0
 17 18  1  0
 18 19  2  0
 19 20  1  0
 20 21  2  0
 20 32  1  0
 21 22  1  0
 22 23  1  0
 22 24  2  0
 24 25  1  0
 24 32  1  0
 25 26  2  0
 25 27  1  0
 27 28  1  0
 27 31  1  0
 28 29  2  0
 29 30  1  0
 30 31  2  0
 31 32  1  0
 33 34  1  0
M  CHG  1   4   1
M  END
