
     RDKit          3D

 34 38  0  0  0  0  0  0  0  0999 V2000
   -3.3590    1.6370   -1.7070 C   0  0  0  0  0  0  0  0  0  0  0  0
   -4.2310    1.3410   -0.5350 C   0  0  0  0  0  0  0  0  0  0  0  0
   -3.5920    0.8210    0.6920 C   0  0  0  0  0  0  0  0  0  0  0  0
   -2.8260   -0.4520    0.5460 C   0  0  0  0  0  0  0  0  0  0  0  0
   -3.6270   -1.5520    0.3680 C   0  0  0  0  0  0  0  0  0  0  0  0
   -5.1230   -1.5300    0.3290 C   0  0  0  0  0  0  0  0  0  0  0  0
   -3.0750   -2.7990    0.2160 C   0  0  0  0  0  0  0  0  0  0  0  0
   -1.6910   -2.8840    0.2540 C   0  0  0  0  0  0  0  0  0  0  0  0
   -1.2250   -4.1340    0.0840 N   0  0  0  0  0  0  0  0  0  0  0  0
    0.0820   -4.3530    0.0870 C   0  0  0  0  0  0  0  0  0  0  0  0
    0.7690   -5.5440   -0.0750 C   0  0  0  0  0  0  0  0  0  0  0  0
    2.1010   -5.2200    0.0060 C   0  0  0  0  0  0  0  0  0  0  0  0
    2.1360   -3.9100    0.2030 N   0  0  0  0  0  0  0  0  0  0  0  0
    0.9530   -3.3320    0.2620 N   0  0  0  0  0  0  0  0  0  0  0  0
    0.4930   -2.0880    0.4330 C   0  0  0  0  0  0  0  0  0  0  0  0
   -0.8610   -1.7530    0.4400 C   0  0  0  0  0  0  0  0  0  0  0  0
   -1.3920   -0.4880    0.5930 C   0  0  0  0  0  0  0  0  0  0  0  0
   -0.8420    0.7940    0.7230 N   0  0  0  0  0  0  0  0  0  0  0  0
    0.0110    1.5720    1.5880 C   0  0  0  0  0  0  0  0  0  0  0  0
    0.7410    2.6060    0.7610 C   0  0  0  0  0  0  0  0  0  0  0  0
   -0.0200    3.7380    0.1990 C   0  0  0  0  0  0  0  0  0  0  0  0
   -1.2310    4.1970    0.1690 C   0  0  0  0  0  0  0  0  0  0  0  0
   -2.4170    3.8440    0.6590 F   0  0  0  0  0  0  0  0  0  0  0  0
   -0.8260    5.3400   -0.6580 C   0  0  0  0  0  0  0  0  0  0  0  0
    0.3730    4.8390   -0.5990 N   0  0  0  0  0  0  0  0  0  0  0  0
    2.0220    2.4860    0.5890 C   0  0  0  0  0  0  0  0  0  0  0  0
    2.8270    3.7170   -0.3950 Cl  0  0  0  0  0  0  0  0  0  0  0  0
    2.9610    1.4830    1.1470 C   0  0  0  0  0  0  0  0  0  0  0  0
    3.8000    0.8130    0.1240 C   0  0  0  0  0  0  0  0  0  0  0  0
    3.8070   -0.4690   -0.2030 C   0  0  0  0  0  0  0  0  0  0  0  0
    4.7200   -0.9920   -1.2600 C   0  0  0  0  0  0  0  0  0  0  0  0
    5.5460    0.1550   -1.7990 C   0  0  0  0  0  0  0  0  0  0  0  0
    2.9000   -1.3730    0.4800 N   0  0  0  0  0  0  0  0  0  0  0  0
    1.5420   -1.0820    0.7120 C   0  0  0  0  0  0  0  0  0  0  0  0
  1  2  1  0
  2  3  1  0
  3  4  1  0
  4  5  1  0
  4 17  2  0
  5  6  1  0
  5  7  2  0
  7  8  1  0
  8  9  2  0
  8 16  1  0
  9 10  1  0
 10 11  2  0
 10 14  1  0
 11 12  1  0
 12 13  2  0
 13 14  1  0
 14 15  1  0
 15 16  2  0
 15 34  1  0
 16 17  1  0
 17 18  1  0
 18 19  1  0
 19 20  1  0
 20 21  1  0
 20 26  2  0
 21 22  2  0
 21 25  1  0
 22 23  1  0
 22 24  1  0
 24 25  2  0
 26 27  1  0
 26 28  1  0
 28 29  1  0
 29 30  2  0
 30 31  1  0
 30 33  1  0
 31 32  1  0
 33 34  1  0
M  CHG  1  25   1
M  END
