
     RDKit          3D

 35 39  0  0  0  0  0  0  0  0999 V2000
   -5.6580   -3.8310    0.5870 C   0  0  0  0  0  0  0  0  0  0  0  0
   -4.8180   -2.6270    0.1680 C   0  0  0  0  0  0  0  0  0  0  0  0
   -5.2280   -1.3970    0.9340 C   0  0  0  0  0  0  0  0  0  0  0  0
   -4.3870   -0.2850    0.4770 N   0  0  0  0  0  0  0  0  0  0  0  0
   -3.0110   -0.3210    0.8150 C   0  0  0  0  0  0  0  0  0  0  0  0
   -2.1600    0.8190    0.3010 C   0  0  2  0  0  0  0  0  0  0  0  0
   -2.1210    0.9390   -1.1730 C   0  0  0  0  0  0  0  0  0  0  0  0
   -0.9560    1.5490   -1.7430 N   0  0  0  0  0  0  0  0  0  0  0  0
    0.1200    0.6090   -1.9880 C   0  0  0  0  0  0  0  0  0  0  0  0
    0.1600   -0.4490   -0.9040 C   0  0  0  0  0  0  0  0  0  0  0  0
    0.2680    0.2240    0.3350 N   0  0  0  0  0  0  0  0  0  0  0  0
    1.4420    0.4570    1.0340 C   0  0  0  0  0  0  0  0  0  0  0  0
    1.2990    1.0670    2.2120 O   0  0  0  0  0  0  0  0  0  0  0  0
    2.8260    0.1700    0.7510 C   0  0  0  0  0  0  0  0  0  0  0  0
    3.7660    0.3270    1.7820 C   0  0  0  0  0  0  0  0  0  0  0  0
    5.1090    0.1270    1.6150 C   0  0  0  0  0  0  0  0  0  0  0  0
    5.6170   -0.2480    0.3920 C   0  0  0  0  0  0  0  0  0  0  0  0
    7.0150   -0.4380    0.2800 N   0  0  0  0  0  0  0  0  0  0  0  0
    7.5650   -1.6370    0.5640 C   0  0  0  0  0  0  0  0  0  0  0  0
    8.8630   -1.8930    0.4840 N   0  0  0  0  0  0  0  0  0  0  0  0
    9.7360   -0.9560    0.1070 C   0  0  0  0  0  0  0  0  0  0  0  0
   11.4350   -1.3170    0.0100 Cl  0  0  0  0  0  0  0  0  0  0  0  0
    9.2740    0.2930   -0.2020 C   0  0  0  0  0  0  0  0  0  0  0  0
    9.8170    1.4450   -0.6020 N   0  0  0  0  0  0  0  0  0  0  0  0
    8.8420    2.3430   -0.7480 N   0  0  0  0  0  0  0  0  0  0  0  0
    7.6680    1.8120   -0.4530 N   0  0  0  0  0  0  0  0  0  0  0  0
    7.8420    0.5370   -0.1030 C   0  0  0  0  0  0  0  0  0  0  0  0
    4.7070   -0.4000   -0.6140 C   0  0  0  0  0  0  0  0  0  0  0  0
    3.3320   -0.2010   -0.4630 C   0  0  0  0  0  0  0  0  0  0  0  0
   -0.8970    0.8100    1.0560 C   0  0  0  0  0  0  0  0  0  0  0  0
   -5.0540    0.7180   -0.2500 C   0  0  0  0  0  0  0  0  0  0  0  0
   -5.6210    0.6280   -1.4350 C   0  0  0  0  0  0  0  0  0  0  0  0
   -6.2170    1.9160   -1.8490 C   0  0  0  0  0  0  0  0  0  0  0  0
   -5.9120    2.7880   -0.7060 C   0  0  0  0  0  0  0  0  0  0  0  0
   -5.2460    2.0880    0.1990 C   0  0  0  0  0  0  0  0  0  0  0  0
  1  2  1  0
  2  3  1  0
  3  4  1  0
  4  5  1  0
  4 31  1  0
  6  5  1  6
  6  7  1  0
  6 30  1  0
  7  8  1  0
  8  9  1  0
  9 10  1  0
 10 11  1  0
 11 12  1  0
 11 30  1  0
 12 13  2  0
 12 14  1  0
 14 15  2  0
 14 29  1  0
 15 16  1  0
 16 17  2  0
 17 18  1  0
 17 28  1  0
 18 19  1  0
 18 27  1  0
 19 20  2  0
 20 21  1  0
 21 22  1  0
 21 23  2  0
 23 24  1  0
 23 27  1  0
 24 25  2  0
 25 26  1  0
 26 27  2  0
 28 29  2  0
 31 32  2  0
 31 35  1  0
 32 33  1  0
 33 34  1  0
 34 35  2  0
M  CHG  1   8   1
M  END
