
     RDKit          3D

 34 38  0  0  0  0  0  0  0  0999 V2000
    7.7780    2.3720   -0.7120 C   0  0  0  0  0  0  0  0  0  0  0  0
    6.5500    1.9280   -0.6170 C   0  0  0  0  0  0  0  0  0  0  0  0
    6.1760    0.5590   -0.1820 C   0  0  0  0  0  0  0  0  0  0  0  0
    7.1370   -0.2530    0.1270 C   0  0  0  0  0  0  0  0  0  0  0  0
    7.0740   -1.6550    0.5850 C   0  0  0  0  0  0  0  0  0  0  0  0
    4.7650    0.1890   -0.1250 C   0  0  0  0  0  0  0  0  0  0  0  0
    4.1030   -0.9390    0.2470 N   0  0  0  0  0  0  0  0  0  0  0  0
    2.7760   -0.7850    0.1500 C   0  0  0  0  0  0  0  0  0  0  0  0
    1.6810   -1.7150    0.4630 C   0  0  0  0  0  0  0  0  0  0  0  0
    0.3870   -1.3110    0.1820 C   0  0  0  0  0  0  0  0  0  0  0  0
   -0.7100   -2.0890    0.4430 C   0  0  0  0  0  0  0  0  0  0  0  0
   -2.0900   -1.6500    0.1330 C   0  0  0  0  0  0  0  0  0  0  0  0
   -3.0790   -2.5990    0.4610 N   0  0  0  0  0  0  0  0  0  0  0  0
   -4.4310   -2.3090    0.2370 C   0  0  2  0  0  0  0  0  0  0  0  0
   -4.6850   -2.1200   -1.2580 C   0  0  0  0  0  0  0  0  0  0  0  0
   -6.0050   -1.3220   -1.2820 C   0  0  0  0  0  0  0  0  0  0  0  0
   -5.7700   -0.3840   -0.2120 N   0  0  0  0  0  0  0  0  0  0  0  0
   -6.2880    0.9530   -0.1980 C   0  0  0  0  0  0  0  0  0  0  0  0
   -5.9890    1.8030    0.8590 C   0  0  0  0  0  0  0  0  0  0  0  0
   -6.4740    3.1050    0.9120 C   0  0  0  0  0  0  0  0  0  0  0  0
   -7.2680    3.5650   -0.1060 C   0  0  0  0  0  0  0  0  0  0  0  0
   -7.7330    4.8360   -0.0400 F   0  0  0  0  0  0  0  0  0  0  0  0
   -7.5600    2.7140   -1.1520 C   0  0  0  0  0  0  0  0  0  0  0  0
   -7.0850    1.4240   -1.2130 C   0  0  0  0  0  0  0  0  0  0  0  0
   -4.9640   -1.0190    0.7790 C   0  0  0  0  0  0  0  0  0  0  0  0
   -0.5210   -3.2930    0.9960 N   0  0  0  0  0  0  0  0  0  0  0  0
    0.7260   -3.7450    1.2960 C   0  0  0  0  0  0  0  0  0  0  0  0
    1.8290   -2.9420    1.0230 C   0  0  0  0  0  0  0  0  0  0  0  0
    3.3960   -3.5740    1.4400 Cl  0  0  0  0  0  0  0  0  0  0  0  0
    2.6010    0.4680   -0.2930 N   0  0  0  0  0  0  0  0  0  0  0  0
    3.8100    1.0820   -0.4680 C   0  0  0  0  0  0  0  0  0  0  0  0
    4.1080    2.4430   -0.9480 C   0  0  0  0  0  0  0  0  0  0  0  0
    5.4870    2.7990   -0.9490 N   0  0  0  0  0  0  0  0  0  0  0  0
    5.8090    4.1900   -1.3260 C   0  0  0  0  0  0  0  0  0  0  0  0
  1  2  2  0
  2  3  1  0
  2 33  1  0
  3  4  2  3
  3  6  1  0
  4  5  1  0
  6  7  1  0
  6 31  2  0
  7  8  1  0
  8  9  1  0
  8 30  2  0
  9 10  2  0
  9 28  1  0
 10 11  1  0
 11 12  1  0
 11 26  2  0
 12 13  1  0
 14 13  1  6
 14 15  1  0
 14 25  1  0
 15 16  1  0
 16 17  1  0
 17 18  1  0
 17 25  1  0
 18 19  2  0
 18 24  1  0
 19 20  1  0
 20 21  2  0
 21 22  1  0
 21 23  1  0
 23 24  2  0
 26 27  1  0
 27 28  2  0
 28 29  1  0
 30 31  1  0
 31 32  1  0
 32 33  1  0
 33 34  1  0
M  CHG  1  26   1
M  END
