
     RDKit          3D

 34 37  0  0  0  0  0  0  0  0999 V2000
   -5.4910   -4.8160   -1.4690 C   0  0  0  0  0  0  0  0  0  0  0  0
   -4.3860   -3.8380   -1.4480 C   0  0  0  0  0  0  0  0  0  0  0  0
   -4.4610   -2.6830   -0.7480 C   0  0  0  0  0  0  0  0  0  0  0  0
   -5.6020   -2.4750   -0.0720 F   0  0  0  0  0  0  0  0  0  0  0  0
   -3.3720   -1.7530   -0.7640 C   0  0  0  0  0  0  0  0  0  0  0  0
   -3.2580   -0.6100   -0.1610 C   0  0  0  0  0  0  0  0  0  0  0  0
   -4.3800   -0.1450    0.6830 C   0  0  0  0  0  0  0  0  0  0  0  0
   -4.7650    1.1120    0.9270 C   0  0  0  0  0  0  0  0  0  0  0  0
   -5.9250    1.3470    1.8080 C   0  0  2  0  0  0  0  0  0  0  0  0
   -5.4740    2.2840    2.9170 C   0  0  0  0  0  0  0  0  0  0  0  0
   -6.5380    0.0910    2.3310 C   0  0  0  0  0  0  0  0  0  0  0  0
   -4.1410    2.2770    0.4140 N   0  0  0  0  0  0  0  0  0  0  0  0
   -2.7790    2.4750   -0.0230 C   0  0  0  0  0  0  0  0  0  0  0  0
   -1.9030    1.5680   -0.3520 N   0  0  0  0  0  0  0  0  0  0  0  0
   -2.0010    0.1500   -0.3860 C   0  0  0  0  0  0  0  0  0  0  0  0
   -0.9820   -0.5790   -0.6180 N   0  0  0  0  0  0  0  0  0  0  0  0
    0.2990   -0.0640   -0.8570 C   0  0  0  0  0  0  0  0  0  0  0  0
    0.4080    1.0620   -1.8390 C   0  0  0  0  0  0  0  0  0  0  0  0
    1.4030   -0.4870   -0.2940 C   0  0  0  0  0  0  0  0  0  0  0  0
    2.6590    0.1550   -0.6510 C   0  0  0  0  0  0  0  0  0  0  0  0
    3.9040   -0.0790   -0.2310 C   0  0  0  0  0  0  0  0  0  0  0  0
    5.0440    0.5830   -0.6250 C   0  0  0  0  0  0  0  0  0  0  0  0
    5.0900    1.6470   -1.5630 N   0  0  0  0  0  0  0  0  0  0  0  0
    6.3530    2.2800   -1.9100 C   0  0  2  0  0  0  0  0  0  0  0  0
    7.1610    2.9430   -0.8340 C   0  0  0  0  0  0  0  0  0  0  0  0
    6.3630    3.7590   -1.7780 C   0  0  0  0  0  0  0  0  0  0  0  0
    6.0840    0.0230    0.0480 N   0  0  0  0  0  0  0  0  0  0  0  0
    5.6480   -0.9450    0.8340 N   0  0  0  0  0  0  0  0  0  0  0  0
    6.5210   -1.7530    1.6990 C   0  0  0  0  0  0  0  0  0  0  0  0
    4.3250   -1.0300    0.6840 C   0  0  0  0  0  0  0  0  0  0  0  0
    3.6250   -1.9310    1.3660 C   0  0  0  0  0  0  0  0  0  0  0  0
    2.1950   -2.1970    1.3600 C   0  0  0  0  0  0  0  0  0  0  0  0
    1.2330   -1.5800    0.6480 C   0  0  0  0  0  0  0  0  0  0  0  0
   -0.3700   -2.2160    0.9410 Cl  0  0  0  0  0  0  0  0  0  0  0  0
  1  2  1  0
  2  3  2  3
  3  4  1  0
  3  5  1  0
  5  6  2  3
  6  7  1  0
  6 15  1  0
  7  8  2  0
  8  9  1  0
  8 12  1  0
  9 10  1  1
  9 11  1  0
 12 13  1  0
 13 14  2  0
 14 15  1  0
 15 16  2  3
 16 17  1  0
 17 18  1  0
 17 19  2  3
 19 20  1  0
 19 33  1  0
 20 21  2  0
 21 22  1  0
 21 30  1  0
 22 23  1  0
 22 27  2  0
 24 23  1  1
 24 25  1  0
 24 26  1  0
 25 26  1  0
 27 28  1  0
 28 29  1  0
 28 30  1  0
 30 31  2  0
 31 32  1  0
 32 33  2  0
 33 34  1  0
M  CHG  1  27   1
M  END
