
     RDKit          3D

 33 34  0  0  0  0  0  0  0  0999 V2000
   -5.9770    0.9420   -2.8950 C   0  0  0  0  0  0  0  0  0  0  0  0
   -6.8040    0.1390   -1.9100 C   0  0  0  0  0  0  0  0  0  0  0  0
   -5.8970   -0.4170   -0.8050 C   0  0  0  0  0  0  0  0  0  0  0  0
   -5.2700    0.7830   -0.1320 C   0  0  0  0  0  0  0  0  0  0  0  0
   -4.3850    0.4500    0.9320 N   0  0  0  0  0  0  0  0  0  0  0  0
   -3.1100   -0.2170    0.7390 C   0  0  0  0  0  0  0  0  0  0  0  0
   -3.1490   -1.6310    0.7930 N   0  0  0  0  0  0  0  0  0  0  0  0
   -3.1680   -2.2710    2.1030 C   0  0  0  0  0  0  0  0  0  0  0  0
   -3.2180   -3.7660    2.0030 C   0  0  0  0  0  0  0  0  0  0  0  0
   -4.3580   -4.1920    1.3220 O   0  0  0  0  0  0  0  0  0  0  0  0
   -2.0880    0.5540    0.5450 C   0  0  0  0  0  0  0  0  0  0  0  0
   -2.4200    2.0500    0.5550 C   0  0  0  0  0  0  0  0  0  0  0  0
   -0.6960    0.2630    0.3150 C   0  0  0  0  0  0  0  0  0  0  0  0
    0.0430    1.3540    0.1620 N   0  0  0  0  0  0  0  0  0  0  0  0
    1.4150    1.4640   -0.0750 N   0  0  0  0  0  0  0  0  0  0  0  0
    1.8410    2.8340   -0.1810 C   0  0  0  0  0  0  0  0  0  0  0  0
    3.0640    3.1380   -0.3960 N   0  0  0  0  0  0  0  0  0  0  0  0
    4.0370    2.1150   -0.5360 C   0  0  0  0  0  0  0  0  0  0  0  0
    5.4140    2.4640   -0.7790 N   0  0  0  0  0  0  0  0  0  0  0  0
    6.4680    1.6710   -0.2140 C   0  0  0  0  0  0  0  0  0  0  0  0
    6.8370    0.5780   -0.8160 C   0  0  0  0  0  0  0  0  0  0  0  0
    7.8730   -0.3860   -0.4420 C   0  0  0  0  0  0  0  0  0  0  0  0
    7.1790   -2.0900   -0.1600 P   0  0  0  0  0  0  0  0  0  0  0  0
    6.8800   -2.8900   -1.6520 O   0  0  0  0  0  0  0  0  0  0  0  0
    5.7830   -2.0130    0.8530 O   0  0  0  0  0  0  0  0  0  0  0  0
    7.0760    2.1210    1.0090 C   0  0  0  0  0  0  0  0  0  0  0  0
    7.9940    1.5810    1.6500 O   0  0  0  0  0  0  0  0  0  0  0  0
    6.5880    3.3260    1.5750 O   0  0  0  0  0  0  0  0  0  0  0  0
    3.7420    0.8550   -0.4550 N   0  0  0  0  0  0  0  0  0  0  0  0
    2.4040    0.4640   -0.2180 C   0  0  0  0  0  0  0  0  0  0  0  0
    2.2480   -0.8340   -0.1600 N   0  0  0  0  0  0  0  0  0  0  0  0
    1.0350   -1.5380    0.0620 C   0  0  0  0  0  0  0  0  0  0  0  0
   -0.2230   -1.1050    0.2650 C   0  0  0  0  0  0  0  0  0  0  0  0
  1  2  1  0
  2  3  1  0
  3  4  1  0
  4  5  1  0
  5  6  1  0
  6  7  1  0
  6 11  2  3
  7  8  1  0
  8  9  1  0
  9 10  1  0
 11 12  1  0
 11 13  1  0
 13 14  2  0
 13 33  1  0
 14 15  1  0
 15 16  1  0
 15 30  1  0
 16 17  2  0
 17 18  1  0
 18 19  1  0
 18 29  2  0
 19 20  1  0
 20 21  2  3
 20 26  1  0
 21 22  1  0
 22 23  1  0
 23 24  1  0
 23 25  1  0
 26 27  2  0
 26 28  1  0
 29 30  1  0
 30 31  2  0
 31 32  1  0
 32 33  2  0
M  END
