
     RDKit          3D

 33 34  0  0  0  0  0  0  0  0999 V2000
   -7.6360   -4.8660   -0.5290 C   0  0  0  0  0  0  0  0  0  0  0  0
   -6.6700   -3.8270   -0.0580 C   0  0  2  0  0  0  0  0  0  0  0  0
   -6.7780   -2.6210   -0.8480 N   0  0  0  0  0  0  0  0  0  0  0  0
   -5.2670   -4.4290   -0.1370 C   0  0  0  0  0  0  0  0  0  0  0  0
   -4.3110   -3.4280    0.3520 C   0  0  0  0  0  0  0  0  0  0  0  0
   -4.7390   -2.3220    0.8100 O   0  0  0  0  0  0  0  0  0  0  0  0
   -2.8980   -3.5960    0.3550 N   0  0  0  0  0  0  0  0  0  0  0  0
   -1.9980   -2.6030    0.8570 C   0  0  0  0  0  0  0  0  0  0  0  0
   -1.8280   -1.4800   -0.0910 C   0  0  0  0  0  0  0  0  0  0  0  0
   -2.5140   -1.2320   -1.1660 N   0  0  0  0  0  0  0  0  0  0  0  0
   -2.3670   -0.2420   -2.0070 N   0  0  0  0  0  0  0  0  0  0  0  0
   -1.3490    0.6810   -1.7310 C   0  0  0  0  0  0  0  0  0  0  0  0
   -0.6040    0.4520   -0.6090 C   0  0  0  0  0  0  0  0  0  0  0  0
    0.5190    1.4210   -0.3070 C   0  0  0  0  0  0  0  0  0  0  0  0
    0.1530    2.5950   -0.5490 N   0  0  0  0  0  0  0  0  0  0  0  0
    0.8690    3.7700   -0.3850 C   0  0  0  0  0  0  0  0  0  0  0  0
    1.8270    4.2560   -1.2080 C   0  0  0  0  0  0  0  0  0  0  0  0
    2.5390    5.4410   -1.0070 C   0  0  0  0  0  0  0  0  0  0  0  0
    2.2420    6.1800    0.1280 C   0  0  0  0  0  0  0  0  0  0  0  0
    3.1410    7.7600    0.4990 P   0  0  0  0  0  0  0  0  0  0  0  0
    4.2940    8.0780   -0.7690 O   0  0  0  0  0  0  0  0  0  0  0  0
    4.0020    7.5370    2.0140 O   0  0  0  0  0  0  0  0  0  0  0  0
    1.2750    5.7030    0.9690 C   0  0  0  0  0  0  0  0  0  0  0  0
    0.5750    4.5370    0.7700 C   0  0  0  0  0  0  0  0  0  0  0  0
    1.8510    1.2330   -0.3020 N   0  0  0  0  0  0  0  0  0  0  0  0
    2.7610    0.4090    0.3670 C   0  0  0  0  0  0  0  0  0  0  0  0
    2.1800   -0.2340    1.2530 O   0  0  0  0  0  0  0  0  0  0  0  0
    4.1020    0.3710    0.0510 N   0  0  0  0  0  0  0  0  0  0  0  0
    5.0070   -0.4540    0.7840 C   0  0  0  0  0  0  0  0  0  0  0  0
    4.6170   -1.9020    0.6370 C   0  0  0  0  0  0  0  0  0  0  0  0
    5.5970   -2.7940    1.3830 C   0  0  0  0  0  0  0  0  0  0  0  0
    5.1920   -4.1090    1.2090 O   0  0  0  0  0  0  0  0  0  0  0  0
   -0.8240   -0.5710    0.1760 N   0  0  0  0  0  0  0  0  0  0  0  0
  2  1  1  6
  2  3  1  0
  2  4  1  0
  4  5  1  0
  5  6  2  0
  5  7  1  0
  7  8  1  0
  8  9  1  0
  9 10  2  0
  9 33  1  0
 10 11  1  0
 11 12  2  0
 12 13  1  0
 13 14  1  0
 13 33  2  0
 14 15  2  3
 14 25  1  0
 15 16  1  0
 16 17  2  0
 16 24  1  0
 17 18  1  0
 18 19  2  0
 19 20  1  0
 19 23  1  0
 20 21  1  0
 20 22  1  0
 23 24  2  0
 25 26  1  0
 26 27  2  0
 26 28  1  0
 28 29  1  0
 29 30  1  0
 30 31  1  0
 31 32  1  0
M  END
