
     RDKit          3D

 33 34  0  0  0  0  0  0  0  0999 V2000
   -4.6440   -3.0810   -0.9320 C   0  0  0  0  0  0  0  0  0  0  0  0
   -4.3910   -2.6100    0.4900 C   0  0  1  0  0  0  0  0  0  0  0  0
   -3.2800   -3.4210    1.0630 C   0  0  0  0  0  0  0  0  0  0  0  0
   -4.1110   -1.1230    0.4930 C   0  0  2  0  0  0  0  0  0  0  0  0
   -2.9170   -0.7610   -0.3250 C   0  0  0  0  0  0  0  0  0  0  0  0
   -2.8340    0.7370   -0.1760 N   0  0  0  0  0  0  0  0  0  0  0  0
   -3.6400    1.3850   -1.0920 C   0  0  0  0  0  0  0  0  0  0  0  0
   -4.1680    0.5230   -1.9690 O   0  0  0  0  0  0  0  0  0  0  0  0
   -4.0520    2.6850   -1.3430 N   0  0  0  0  0  0  0  0  0  0  0  0
   -4.9080    2.9040   -2.5660 C   0  0  0  0  0  0  0  0  0  0  0  0
   -3.8580    3.9000   -0.6130 C   0  0  0  0  0  0  0  0  0  0  0  0
   -2.0020    1.3860    0.8340 C   0  0  2  0  0  0  0  0  0  0  0  0
   -1.2460    2.4840    0.2580 C   0  0  0  0  0  0  0  0  0  0  0  0
   -1.0470    0.3460    1.4250 C   0  0  0  0  0  0  0  0  0  0  0  0
   -0.1590    0.8200    2.4960 C   0  0  0  0  0  0  0  0  0  0  0  0
    0.8240    1.7970    2.2610 N   0  0  0  0  0  0  0  0  0  0  0  0
    2.0570    1.5030    1.6180 C   0  0  0  0  0  0  0  0  0  0  0  0
    2.3040    0.2040    1.2400 C   0  0  0  0  0  0  0  0  0  0  0  0
    3.5060   -0.1160    0.5990 C   0  0  0  0  0  0  0  0  0  0  0  0
    4.4350    0.8720    0.3490 C   0  0  0  0  0  0  0  0  0  0  0  0
    5.6780    0.5710   -0.3100 N   0  0  0  0  0  0  0  0  0  0  0  0
    5.9810   -0.7290   -0.7170 N   0  0  0  0  0  0  0  0  0  0  0  0
    6.9980   -0.6210   -1.7680 C   0  0  0  0  0  0  0  0  0  0  0  0
    7.3570   -2.0200   -2.2360 C   0  0  0  0  0  0  0  0  0  0  0  0
    8.0200   -2.9340   -0.7420 P   0  0  0  0  0  0  0  0  0  0  0  0
    9.1790   -4.1100   -1.3390 O   0  0  0  0  0  0  0  0  0  0  0  0
    8.9250   -1.7960    0.2280 O   0  0  0  0  0  0  0  0  0  0  0  0
    4.1370    2.1190    0.7410 N   0  0  0  0  0  0  0  0  0  0  0  0
    2.9970    2.4190    1.3490 N   0  0  0  0  0  0  0  0  0  0  0  0
   -2.9680    1.7100    1.8600 O   0  0  0  0  0  0  0  0  0  0  0  0
   -3.8160    0.6790    2.3440 C   0  0  0  0  0  0  0  0  0  0  0  0
   -4.4140    0.9830    3.4150 O   0  0  0  0  0  0  0  0  0  0  0  0
   -4.0890   -0.6100    1.8240 N   0  0  0  0  0  0  0  0  0  0  0  0
  2  1  1  6
  2  3  1  0
  2  4  1  0
  4  5  1  1
  4 33  1  0
  5  6  1  0
  6  7  1  0
  6 12  1  0
  7  8  2  0
  7  9  1  0
  9 10  1  0
  9 11  1  0
 12 13  1  6
 12 14  1  0
 12 30  1  0
 14 15  1  0
 15 16  1  0
 16 17  1  0
 17 18  2  0
 17 29  1  0
 18 19  1  0
 19 20  2  0
 20 21  1  0
 20 28  1  0
 21 22  1  0
 22 23  1  0
 23 24  1  0
 24 25  1  0
 25 26  1  0
 25 27  1  0
 28 29  2  0
 30 31  1  0
 31 32  2  0
 31 33  1  0
M  END
