
     RDKit          3D

 44 50  0  0  0  0  0  0  0  0999 V2000
   10.2700   -1.8660   -0.8990 N   0  0  0  0  0  0  0  0  0  0  0  0
    9.2770   -0.8680   -0.8090 C   0  0  0  0  0  0  0  0  0  0  0  0
    9.6070    0.3940   -1.1710 N   0  0  0  0  0  0  0  0  0  0  0  0
    8.6940    1.3750   -1.1020 C   0  0  0  0  0  0  0  0  0  0  0  0
    7.4410    1.1130   -0.6720 N   0  0  0  0  0  0  0  0  0  0  0  0
    7.0580   -0.1300   -0.2990 C   0  0  0  0  0  0  0  0  0  0  0  0
    7.9940   -1.1340   -0.3700 C   0  0  0  0  0  0  0  0  0  0  0  0
    7.3830   -2.2420    0.0440 N   0  0  0  0  0  0  0  0  0  0  0  0
    6.1120   -1.9340    0.3600 C   0  0  0  0  0  0  0  0  0  0  0  0
    5.8720   -0.6270    0.1590 N   0  0  0  0  0  0  0  0  0  0  0  0
    4.6680    0.1460    0.3590 C   0  0  2  0  0  0  0  0  0  0  0  0
    3.9770   -0.2150    1.5140 O   0  0  0  0  0  0  0  0  0  0  0  0
    2.7120    0.3160    1.3000 C   0  0  2  0  0  0  0  0  0  0  0  0
    1.6960   -0.0570    2.3210 C   0  0  0  0  0  0  0  0  0  0  0  0
    0.5210   -0.4310    1.7400 O   0  0  0  0  0  0  0  0  0  0  0  0
   -0.7800    0.3510    2.3560 P   0  0  0  0  0  0  0  0  0  0  0  0
   -0.8160    0.6320    4.0230 O   0  0  0  0  0  0  0  0  0  0  0  0
   -0.1680    1.7420    2.1690 O   0  0  0  0  0  0  0  0  0  0  0  0
   -2.0930    0.7180    1.4630 O   0  0  0  0  0  0  0  0  0  0  0  0
   -2.5910   -0.1990    0.5940 C   0  0  2  0  0  0  0  0  0  0  0  0
   -2.3930    0.1670   -0.8590 C   0  0  1  0  0  0  0  0  0  0  0  0
   -1.3060   -0.7110   -1.4770 C   0  0  0  0  0  0  0  0  0  0  0  0
   -0.6760   -0.1650   -2.5370 O   0  0  0  0  0  0  0  0  0  0  0  0
    0.8930    0.2280   -2.1200 P   0  0  0  0  0  0  0  0  0  0  0  0
    0.5180    1.7050   -2.2680 O   0  0  0  0  0  0  0  0  0  0  0  0
    1.2540   -1.2540   -2.2050 O   0  0  0  0  0  0  0  0  0  0  0  0
    1.3080    0.3760   -0.5520 O   0  0  0  0  0  0  0  0  0  0  0  0
    2.3900   -0.2850   -0.0770 C   0  0  1  0  0  0  0  0  0  0  0  0
    3.6910    0.0060   -0.7940 C   0  0  1  0  0  0  0  0  0  0  0  0
    3.6500    1.2260   -1.4720 O   0  0  0  0  0  0  0  0  0  0  0  0
   -3.6470   -0.1380   -1.4390 O   0  0  0  0  0  0  0  0  0  0  0  0
   -4.5360    0.4620   -0.5400 C   0  0  1  0  0  0  0  0  0  0  0  0
   -5.8970    0.1150   -0.8560 N   0  0  0  0  0  0  0  0  0  0  0  0
   -6.4290   -0.5020   -1.9140 C   0  0  0  0  0  0  0  0  0  0  0  0
   -7.7640   -0.6130   -1.7800 N   0  0  0  0  0  0  0  0  0  0  0  0
   -8.1110   -0.0620   -0.6210 C   0  0  0  0  0  0  0  0  0  0  0  0
   -9.3360    0.0880   -0.0070 C   0  0  0  0  0  0  0  0  0  0  0  0
  -10.5610   -0.3610   -0.5600 N   0  0  0  0  0  0  0  0  0  0  0  0
   -9.3700    0.7000    1.1890 N   0  0  0  0  0  0  0  0  0  0  0  0
   -8.2400    1.1530    1.7720 C   0  0  0  0  0  0  0  0  0  0  0  0
   -7.0660    0.9990    1.1660 N   0  0  0  0  0  0  0  0  0  0  0  0
   -6.9340    0.4000   -0.0320 C   0  0  0  0  0  0  0  0  0  0  0  0
   -4.1160   -0.2100    0.7590 C   0  0  2  0  0  0  0  0  0  0  0  0
   -4.5020    0.5710    1.8480 O   0  0  0  0  0  0  0  0  0  0  0  0
  1  2  1  0
  2  3  2  0
  2  7  1  0
  3  4  1  0
  4  5  2  0
  5  6  1  0
  6  7  2  0
  6 10  1  0
  7  8  1  0
  8  9  2  0
  9 10  1  0
 11 10  1  6
 11 12  1  0
 11 29  1  0
 12 13  1  0
 13 14  1  1
 13 28  1  0
 14 15  1  0
 15 16  1  0
 16 17  1  0
 16 18  1  0
 16 19  1  0
 20 19  1  1
 20 21  1  0
 20 43  1  0
 21 22  1  6
 21 31  1  0
 22 23  1  0
 23 24  1  0
 24 25  1  0
 24 26  1  0
 24 27  1  0
 28 27  1  6
 28 29  1  0
 29 30  1  1
 31 32  1  0
 32 33  1  6
 32 43  1  0
 33 34  1  0
 33 42  1  0
 34 35  2  0
 35 36  1  0
 36 37  2  0
 36 42  1  0
 37 38  1  0
 37 39  1  0
 39 40  2  0
 40 41  1  0
 41 42  2  0
 43 44  1  1
M  END
