
     RDKit          3D

 32 34  0  0  0  0  0  0  0  0999 V2000
   -0.1450   -1.3950   -3.5140 N   0  0  0  0  0  0  0  0  0  0  0  0
   -0.7130   -1.3740   -2.1820 C   0  0  0  0  0  0  0  0  0  0  0  0
   -1.2510    0.0530   -1.9340 C   0  0  0  0  0  0  0  0  0  0  0  0
   -1.7930    0.2720   -0.8070 O   0  0  0  0  0  0  0  0  0  0  0  0
   -1.6270    0.2540    0.4650 C   0  0  1  0  0  0  0  0  0  0  0  0
   -3.0280    0.7450    1.0050 C   0  0  0  0  0  0  0  0  0  0  0  0
   -4.0770   -0.1220    0.5080 N   0  0  0  0  0  0  0  0  0  0  0  0
   -4.5570   -1.2260    1.0780 C   0  0  0  0  0  0  0  0  0  0  0  0
   -5.5230   -1.7650    0.3190 N   0  0  0  0  0  0  0  0  0  0  0  0
   -5.6360   -0.9930   -0.7140 N   0  0  0  0  0  0  0  0  0  0  0  0
   -4.7510    0.0700   -0.6600 C   0  0  0  0  0  0  0  0  0  0  0  0
   -4.7250    0.9920   -1.6580 N   0  0  0  0  0  0  0  0  0  0  0  0
   -4.2850    1.9970   -2.1390 C   0  0  0  0  0  0  0  0  0  0  0  0
   -3.2680    2.8490   -1.5980 N   0  0  0  0  0  0  0  0  0  0  0  0
   -4.7690    2.5180   -3.4370 N   0  0  0  0  0  0  0  0  0  0  0  0
   -1.3680   -0.9780    1.2610 C   0  0  0  0  0  0  0  0  0  0  0  0
   -1.3480   -0.7130    2.7310 C   0  0  0  0  0  0  0  0  0  0  0  0
   -1.1230    0.5180    3.2130 O   0  0  0  0  0  0  0  0  0  0  0  0
   -1.1540    1.6200    2.4380 C   0  0  0  0  0  0  0  0  0  0  0  0
   -0.6380    1.2900    1.0030 C   0  0  1  0  0  0  0  0  0  0  0  0
    0.7490    0.8330    1.2160 C   0  0  0  0  0  0  0  0  0  0  0  0
    1.5240    0.3590    0.1300 N   0  0  0  0  0  0  0  0  0  0  0  0
    2.8410   -0.1910    0.3500 C   0  0  0  0  0  0  0  0  0  0  0  0
    3.3780   -0.2260    1.6160 C   0  0  0  0  0  0  0  0  0  0  0  0
    4.6510   -0.7650    1.8450 C   0  0  0  0  0  0  0  0  0  0  0  0
    5.3920   -1.2710    0.8060 C   0  0  0  0  0  0  0  0  0  0  0  0
    7.0640   -1.9820    1.0970 P   0  0  0  0  0  0  0  0  0  0  0  0
    7.4490   -3.1880   -0.0710 O   0  0  0  0  0  0  0  0  0  0  0  0
    8.2860   -0.7790    1.1840 O   0  0  0  0  0  0  0  0  0  0  0  0
    7.7190    0.3990    1.0520 O   0  0  0  0  0  0  0  0  0  0  0  0
    4.8520   -1.2340   -0.4610 C   0  0  0  0  0  0  0  0  0  0  0  0
    3.5910   -0.7000   -0.6800 C   0  0  0  0  0  0  0  0  0  0  0  0
  1  2  1  0
  2  3  1  0
  3  4  1  0
  4  5  1  0
  5  6  1  1
  5 16  1  0
  5 20  1  0
  6  7  1  0
  7  8  1  0
  7 11  1  0
  8  9  2  0
  9 10  1  0
 10 11  2  0
 11 12  1  0
 12 13  2  3
 13 14  1  0
 13 15  1  0
 16 17  1  0
 17 18  1  0
 18 19  1  0
 19 20  1  0
 20 21  1  1
 21 22  1  0
 22 23  1  0
 23 24  2  0
 23 32  1  0
 24 25  1  0
 25 26  2  0
 26 27  1  0
 26 31  1  0
 27 28  1  0
 27 29  1  0
 29 30  1  0
 31 32  2  0
M  END
