
     RDKit          3D

 33 33  0  0  0  0  0  0  0  0999 V2000
    1.0970   -0.2600   -2.3220 C   0  0  0  0  0  0  0  0  0  0  0  0
    1.5730   -0.7720   -0.9810 C   0  0  1  0  0  0  0  0  0  0  0  0
    1.3940   -2.2820   -1.0340 C   0  0  0  0  0  0  0  0  0  0  0  0
    2.9120   -0.4320   -0.8720 O   0  0  0  0  0  0  0  0  0  0  0  0
    3.6440   -0.9900    0.5870 P   0  0  0  0  0  0  0  0  0  0  0  0
    3.0930   -2.5280    1.0870 O   0  0  0  0  0  0  0  0  0  0  0  0
    5.3560   -1.0780    0.3020 O   0  0  0  0  0  0  0  0  0  0  0  0
    0.8400   -0.1630    0.0580 N   0  0  0  0  0  0  0  0  0  0  0  0
   -0.4100   -0.5800    0.3570 N   0  0  0  0  0  0  0  0  0  0  0  0
   -0.6000   -1.3890    1.5440 C   0  0  0  0  0  0  0  0  0  0  0  0
    0.3630   -1.6870    2.3020 O   0  0  0  0  0  0  0  0  0  0  0  0
   -1.8440   -1.8730    1.8980 O   0  0  0  0  0  0  0  0  0  0  0  0
   -1.9940   -2.6600    3.0720 C   0  0  0  0  0  0  0  0  0  0  0  0
   -1.5920   -1.8620    4.2690 C   0  0  0  0  0  0  0  0  0  0  0  0
   -1.6160   -2.3600    5.4210 O   0  0  0  0  0  0  0  0  0  0  0  0
   -1.1880   -0.5460    4.0540 O   0  0  0  0  0  0  0  0  0  0  0  0
   -1.5180   -0.2150   -0.4650 C   0  0  1  0  0  0  0  0  0  0  0  0
   -2.0870   -1.4050   -0.9330 F   0  0  0  0  0  0  0  0  0  0  0  0
   -2.6050    0.5120    0.2840 C   0  0  0  0  0  0  0  0  0  0  0  0
   -3.6670    0.7950   -0.6960 N   0  0  0  0  0  0  0  0  0  0  0  0
   -3.6530    1.9890   -1.4510 C   0  0  0  0  0  0  0  0  0  0  0  0
   -2.6610    2.9870   -1.3500 N   0  0  0  0  0  0  0  0  0  0  0  0
   -4.5830    2.2150   -2.2930 O   0  0  0  0  0  0  0  0  0  0  0  0
   -4.7240   -0.1280   -0.8890 C   0  0  0  0  0  0  0  0  0  0  0  0
   -4.7410   -1.1800   -0.2170 O   0  0  0  0  0  0  0  0  0  0  0  0
   -5.7290    0.1120   -1.7980 O   0  0  0  0  0  0  0  0  0  0  0  0
    1.2000    1.5080    0.4330 P   0  0  0  0  0  0  0  0  0  0  0  0
    0.6240    2.5410   -0.8270 O   0  0  0  0  0  0  0  0  0  0  0  0
    2.8570    1.7810    0.6910 O   0  0  0  0  0  0  0  0  0  0  0  0
    3.6000    2.7440   -0.5640 P   0  0  0  0  0  0  0  0  0  0  0  0
    3.8690    2.9580   -2.2660 O   0  0  0  0  0  0  0  0  0  0  0  0
    5.4520    3.2330   -1.3830 P   0  0  0  0  0  0  0  0  0  0  0  0
    6.7950    4.3360   -1.4320 O   0  0  0  0  0  0  0  0  0  0  0  0
  2  1  1  6
  2  3  1  0
  2  4  1  0
  2  8  1  0
  4  5  1  0
  5  6  1  0
  5  7  1  0
  8  9  1  0
  8 27  1  0
  9 10  1  0
  9 17  1  0
 10 11  2  0
 10 12  1  0
 12 13  1  0
 13 14  1  0
 14 15  2  0
 14 16  1  0
 17 18  1  1
 17 19  1  0
 19 20  1  0
 20 21  1  0
 20 24  1  0
 21 22  1  0
 21 23  2  0
 24 25  2  0
 24 26  1  0
 27 28  1  0
 27 29  1  0
 29 30  1  0
 30 31  1  0
 30 32  1  0
 31 32  1  0
 32 33  1  0
M  END
