
     RDKit          3D

 33 34  0  0  0  0  0  0  0  0999 V2000
   -4.0390   -2.4280    0.8330 C   0  0  0  0  0  0  0  0  0  0  0  0
   -2.6220   -2.5750    0.7740 N   0  0  0  0  0  0  0  0  0  0  0  0
   -2.3460   -3.8210    0.0420 C   0  0  0  0  0  0  0  0  0  0  0  0
   -1.8650   -1.6470    0.3660 O   0  0  0  0  0  0  0  0  0  0  0  0
   -2.0450   -0.3250    0.4720 C   0  0  1  0  0  0  0  0  0  0  0  0
   -3.4630    0.4680   -0.3180 P   0  0  0  0  0  0  0  0  0  0  0  0
   -4.2560   -0.3880   -1.5500 O   0  0  0  0  0  0  0  0  0  0  0  0
   -3.5150   -1.2210   -2.2080 O   0  0  0  0  0  0  0  0  0  0  0  0
   -4.5240    1.2170    0.7960 O   0  0  0  0  0  0  0  0  0  0  0  0
   -5.3040    2.1200    0.2440 O   0  0  0  0  0  0  0  0  0  0  0  0
   -1.9780   -0.0120    1.9910 C   0  0  0  0  0  0  0  0  0  0  0  0
   -0.6550   -0.4650    2.2270 O   0  0  0  0  0  0  0  0  0  0  0  0
    0.0680    0.2440    1.3060 C   0  0  1  0  0  0  0  0  0  0  0  0
    0.2840    1.9710    1.9540 P   0  0  0  0  0  0  0  0  0  0  0  0
   -0.2350    2.0870    3.5840 O   0  0  0  0  0  0  0  0  0  0  0  0
   -0.4960    3.1190    0.9180 O   0  0  0  0  0  0  0  0  0  0  0  0
   -0.7010    4.6410    1.7070 P   0  0  0  0  0  0  0  0  0  0  0  0
   -2.0220    5.4470    1.6760 O   0  0  0  0  0  0  0  0  0  0  0  0
    1.2620   -0.3110    0.9090 O   0  0  0  0  0  0  0  0  0  0  0  0
    1.8950    0.5130    0.0150 C   0  0  1  0  0  0  0  0  0  0  0  0
    2.4680    1.5520    0.7240 F   0  0  0  0  0  0  0  0  0  0  0  0
    2.9740   -0.1820   -0.5780 O   0  0  0  0  0  0  0  0  0  0  0  0
    3.8360   -0.5630    0.3380 O   0  0  0  0  0  0  0  0  0  0  0  0
    5.1290   -0.6190   -0.1320 C   0  0  1  0  0  0  0  0  0  0  0  0
    5.3110   -1.5750   -1.2730 C   0  0  0  0  0  0  0  0  0  0  0  0
    5.6110    0.7490   -0.6180 C   0  0  0  0  0  0  0  0  0  0  0  0
    5.9670   -1.0750    0.9780 N   0  0  0  0  0  0  0  0  0  0  0  0
    1.0770    1.0050   -1.0620 N   0  0  0  0  0  0  0  0  0  0  0  0
   -0.2110    0.9120   -1.0230 C   0  0  0  0  0  0  0  0  0  0  0  0
   -1.3280    1.5000   -2.3260 P   0  0  0  0  0  0  0  0  0  0  0  0
   -0.5190    1.3080   -3.8510 O   0  0  0  0  0  0  0  0  0  0  0  0
   -1.7170    3.1910   -2.1260 O   0  0  0  0  0  0  0  0  0  0  0  0
   -0.7640    0.3120    0.1100 N   0  0  0  0  0  0  0  0  0  0  0  0
  1  2  1  0
  2  3  1  0
  2  4  1  0
  5  4  1  1
  5  6  1  0
  5 11  1  0
  5 33  1  0
  6  7  1  0
  6  9  1  0
  7  8  1  0
  9 10  1  0
 11 12  1  0
 12 13  1  0
 13 14  1  1
 13 19  1  0
 13 33  1  0
 14 15  1  0
 14 16  1  0
 16 17  1  0
 17 18  2  0
 19 20  1  0
 20 21  1  1
 20 22  1  0
 20 28  1  0
 22 23  1  0
 23 24  1  0
 24 25  1  6
 24 26  1  0
 24 27  1  0
 28 29  2  0
 29 30  1  0
 29 33  1  0
 30 31  1  0
 30 32  1  0
M  END
