
     RDKit          3D

 33 35  0  0  0  0  0  0  0  0999 V2000
    4.5110   -1.8540   -0.4470 C   0  0  0  0  0  0  0  0  0  0  0  0
    3.5690   -0.9590    0.1690 N   0  0  0  0  0  0  0  0  0  0  0  0
    3.0910   -1.0940    1.5020 C   0  0  0  0  0  0  0  0  0  0  0  0
    3.7080   -1.8660    2.2700 O   0  0  0  0  0  0  0  0  0  0  0  0
    1.9560   -0.3680    1.9080 O   0  0  0  0  0  0  0  0  0  0  0  0
    0.8070    0.0190    0.6060 P   0  0  0  0  0  0  0  0  0  0  0  0
   -0.8420   -1.3990    0.6350 P   0  0  0  0  0  0  0  0  0  0  0  0
   -0.8660   -2.1810    2.2080 O   0  0  0  0  0  0  0  0  0  0  0  0
   -0.8160   -3.8860    2.0760 P   0  0  0  0  0  0  0  0  0  0  0  0
   -0.6000   -4.3450    0.4350 O   0  0  0  0  0  0  0  0  0  0  0  0
   -2.2880   -4.5410    2.7450 O   0  0  0  0  0  0  0  0  0  0  0  0
   -2.0780   -4.8740    4.4320 P   0  0  0  0  0  0  0  0  0  0  0  0
   -1.0140   -4.1650    5.3030 O   0  0  0  0  0  0  0  0  0  0  0  0
   -2.3700   -0.7080    0.3840 O   0  0  0  0  0  0  0  0  0  0  0  0
   -2.5070    0.0790   -0.7240 C   0  0  2  0  0  0  0  0  0  0  0  0
   -2.2580   -0.5820   -1.9240 O   0  0  0  0  0  0  0  0  0  0  0  0
   -1.8130    1.3490   -0.6370 N   0  0  0  0  0  0  0  0  0  0  0  0
   -0.6750    1.7310   -1.2580 F   0  0  0  0  0  0  0  0  0  0  0  0
   -2.5940    2.1340    0.2590 C   0  0  0  0  0  0  0  0  0  0  0  0
   -2.2630    3.2330    0.8000 O   0  0  0  0  0  0  0  0  0  0  0  0
   -3.8960    1.4120    0.4480 C   0  0  1  0  0  0  0  0  0  0  0  0
   -3.9600    0.7310    1.6310 O   0  0  0  0  0  0  0  0  0  0  0  0
   -4.9830    2.2350    0.1980 O   0  0  0  0  0  0  0  0  0  0  0  0
   -4.7030    2.7040   -1.0850 C   0  0  2  0  0  0  0  0  0  0  0  0
   -5.8630    3.1720   -1.7040 O   0  0  0  0  0  0  0  0  0  0  0  0
   -4.1370    1.4930   -1.7850 C   0  0  0  0  0  0  0  0  0  0  0  0
   -3.9060    0.5420   -0.7190 N   0  0  0  0  0  0  0  0  0  0  0  0
    1.7320   -0.1040   -0.8820 O   0  0  0  0  0  0  0  0  0  0  0  0
    3.0470    0.1770   -0.5940 C   0  0  2  0  0  0  0  0  0  0  0  0
    3.8210    0.4660   -1.6870 O   0  0  0  0  0  0  0  0  0  0  0  0
    4.3980    1.7440   -1.6110 C   0  0  0  0  0  0  0  0  0  0  0  0
    5.2750    1.8330   -0.3870 C   0  0  0  0  0  0  0  0  0  0  0  0
    6.3980    1.2200   -0.4210 N   0  0  0  0  0  0  0  0  0  0  0  0
  1  2  1  0
  2  3  1  0
  2 29  1  0
  3  4  2  0
  3  5  1  0
  5  6  1  0
  6  7  1  0
  6 28  1  0
  7  8  1  0
  7 14  1  0
  8  9  1  0
  9 10  1  0
  9 11  1  0
 11 12  1  0
 12 13  2  0
 14 15  1  0
 15 16  1  6
 15 17  1  0
 15 27  1  0
 17 18  1  0
 17 19  1  0
 19 20  2  0
 19 21  1  0
 21 22  1  1
 21 23  1  0
 21 27  1  0
 23 24  1  0
 24 25  1  6
 24 26  1  0
 26 27  1  0
 28 29  1  0
 29 30  1  6
 30 31  1  0
 31 32  1  0
 32 33  2  0
M  END
