
     RDKit          3D

 30 31  0  0  0  0  0  0  0  0999 V2000
    8.0320    0.4460   -0.8110 C   0  0  0  0  0  0  0  0  0  0  0  0
    6.6150    0.3610   -0.7820 O   0  0  0  0  0  0  0  0  0  0  0  0
    5.8510    0.7910    0.2630 C   0  0  0  0  0  0  0  0  0  0  0  0
    6.3590    1.2920    1.2660 O   0  0  0  0  0  0  0  0  0  0  0  0
    4.3830    0.6760    0.2380 C   0  0  0  0  0  0  0  0  0  0  0  0
    3.4160    0.0120   -1.0480 S   0  0  0  0  0  0  0  0  0  0  0  0
    1.8610    0.2440   -0.3120 C   0  0  0  0  0  0  0  0  0  0  0  0
    0.5840   -0.1040   -0.8680 N   0  0  0  0  0  0  0  0  0  0  0  0
    0.5160   -0.6980   -2.1390 C   0  0  0  0  0  0  0  0  0  0  0  0
    1.6250   -0.8920   -2.7380 O   0  0  0  0  0  0  0  0  0  0  0  0
   -0.7260   -1.1020   -2.8140 C   0  0  0  0  0  0  0  0  0  0  0  0
   -1.8360   -0.9250   -1.9630 O   0  0  0  0  0  0  0  0  0  0  0  0
   -2.0190   -1.5950   -0.7840 C   0  0  0  0  0  0  0  0  0  0  0  0
   -1.0820   -2.4350   -0.4910 O   0  0  0  0  0  0  0  0  0  0  0  0
   -3.1500   -1.4590    0.1790 C   0  0  1  0  0  0  0  0  0  0  0  0
   -4.1230   -2.5880   -0.0300 C   0  0  0  0  0  0  0  0  0  0  0  0
   -2.5400   -1.7810    1.5060 N   0  0  0  0  0  0  0  0  0  0  0  0
   -3.7240   -0.1130    0.2420 C   0  0  0  0  0  0  0  0  0  0  0  0
   -3.6470    0.5210    1.3960 C   0  0  0  0  0  0  0  0  0  0  0  0
   -4.1110    1.8370    1.7220 C   0  0  0  0  0  0  0  0  0  0  0  0
   -3.9390    2.3020    3.0150 F   0  0  0  0  0  0  0  0  0  0  0  0
   -4.6980    2.6810    0.9220 C   0  0  0  0  0  0  0  0  0  0  0  0
   -4.9740    2.2260   -0.7560 S   0  0  0  0  0  0  0  0  0  0  0  0
   -4.4070    0.4710   -0.8730 C   0  0  0  0  0  0  0  0  0  0  0  0
   -4.7240   -0.1280   -1.9600 C   0  0  0  0  0  0  0  0  0  0  0  0
   -4.5220   -1.3720   -2.3240 F   0  0  0  0  0  0  0  0  0  0  0  0
   -5.3830    0.6300   -2.9290 F   0  0  0  0  0  0  0  0  0  0  0  0
    2.1620    0.8160    0.8750 C   0  0  0  0  0  0  0  0  0  0  0  0
    3.4670    1.0370    1.1560 C   0  0  0  0  0  0  0  0  0  0  0  0
    3.9200    1.6740    2.4640 C   0  0  0  0  0  0  0  0  0  0  0  0
  1  2  1  0
  2  3  1  0
  3  4  2  0
  3  5  1  0
  5  6  1  0
  5 29  2  0
  6  7  1  0
  7  8  1  0
  7 28  2  0
  8  9  1  0
  9 10  2  0
  9 11  1  0
 11 12  1  0
 12 13  1  0
 13 14  2  0
 13 15  1  0
 15 16  1  6
 15 17  1  0
 15 18  1  0
 18 19  2  0
 18 24  1  0
 19 20  1  0
 20 21  1  0
 20 22  2  0
 22 23  1  0
 23 24  1  0
 24 25  2  3
 25 26  1  0
 25 27  1  0
 28 29  1  0
 29 30  1  0
M  END
