
     RDKit          3D

 31 35  0  0  0  0  0  0  0  0999 V2000
    3.8700    2.7530    1.0220 C   0  0  0  0  0  0  0  0  0  0  0  0
    3.3960    1.6630    0.4490 C   0  0  0  0  0  0  0  0  0  0  0  0
    2.0800    1.0290    0.6650 C   0  0  0  0  0  0  0  0  0  0  0  0
    1.1200    1.5950    1.6140 C   0  0  0  0  0  0  0  0  0  0  0  0
    2.0580   -0.0250   -0.1260 C   0  0  0  0  0  0  0  0  0  0  0  0
    1.0370   -0.9830   -0.3150 N   0  0  0  0  0  0  0  0  0  0  0  0
   -0.2240   -1.1330    0.2360 C   0  0  0  0  0  0  0  0  0  0  0  0
   -0.6480   -0.3210    1.0520 O   0  0  0  0  0  0  0  0  0  0  0  0
   -1.0600   -2.2870   -0.1750 C   0  0  0  0  0  0  0  0  0  0  0  0
   -2.4120   -2.1140   -0.1720 C   0  0  0  0  0  0  0  0  0  0  0  0
   -3.0060   -0.8350    0.0980 C   0  0  0  0  0  0  0  0  0  0  0  0
   -2.6110    0.3050   -0.5630 C   0  0  0  0  0  0  0  0  0  0  0  0
   -3.1790    1.5550   -0.3060 C   0  0  0  0  0  0  0  0  0  0  0  0
   -4.1740    1.6730    0.6400 C   0  0  0  0  0  0  0  0  0  0  0  0
   -4.5870    0.5370    1.3170 C   0  0  0  0  0  0  0  0  0  0  0  0
   -4.0110   -0.6770    1.0440 C   0  0  0  0  0  0  0  0  0  0  0  0
   -5.5940    0.7250    2.2580 O   0  0  0  0  0  0  0  0  0  0  0  0
   -6.5940    1.7210    2.1060 C   0  0  0  0  0  0  0  0  0  0  0  0
   -5.9130    3.0170    1.7740 C   0  0  0  0  0  0  0  0  0  0  0  0
   -4.7830    2.8790    0.9470 O   0  0  0  0  0  0  0  0  0  0  0  0
   -3.2110   -3.1930   -0.4480 N   0  0  0  0  0  0  0  0  0  0  0  0
   -2.6710   -4.3930   -0.7180 C   0  0  0  0  0  0  0  0  0  0  0  0
   -1.3390   -4.5430   -0.7180 N   0  0  0  0  0  0  0  0  0  0  0  0
   -0.4800   -3.5030   -0.4480 C   0  0  0  0  0  0  0  0  0  0  0  0
    0.7500   -3.7230   -0.4630 O   0  0  0  0  0  0  0  0  0  0  0  0
    3.3500   -0.1010   -0.8700 C   0  0  0  0  0  0  0  0  0  0  0  0
    4.1280    0.8780   -0.5370 C   0  0  0  0  0  0  0  0  0  0  0  0
    5.4870    1.1020   -1.0920 C   0  0  0  0  0  0  0  0  0  0  0  0
    6.0590   -0.1700   -1.6100 C   0  0  0  0  0  0  0  0  0  0  0  0
    5.0340   -0.7610   -2.5590 C   0  0  0  0  0  0  0  0  0  0  0  0
    3.7720   -1.1370   -1.8800 C   0  0  0  0  0  0  0  0  0  0  0  0
  1  2  2  0
  2  3  1  0
  2 27  1  0
  3  4  1  0
  3  5  2  0
  5  6  1  0
  5 26  1  0
  6  7  1  0
  7  8  2  0
  7  9  1  0
  9 10  2  0
  9 24  1  0
 10 11  1  0
 10 21  1  0
 11 12  2  0
 11 16  1  0
 12 13  1  0
 13 14  2  0
 14 15  1  0
 14 20  1  0
 15 16  2  0
 15 17  1  0
 17 18  1  0
 18 19  1  0
 19 20  1  0
 21 22  2  0
 22 23  1  0
 23 24  1  0
 24 25  2  0
 26 27  2  0
 26 31  1  0
 27 28  1  0
 28 29  1  0
 29 30  1  0
 30 31  1  0
M  END
