
     RDKit          3D

 31 35  0  0  0  0  0  0  0  0999 V2000
    1.6260    2.0760   -1.5200 C   0  0  0  0  0  0  0  0  0  0  0  0
    2.8850    2.7780   -1.0500 C   0  0  0  0  0  0  0  0  0  0  0  0
    3.2460    2.3800    0.2580 O   0  0  0  0  0  0  0  0  0  0  0  0
    3.5170    1.0400    0.4850 C   0  0  0  0  0  0  0  0  0  0  0  0
    4.8350    0.6190    0.3160 C   0  0  0  0  0  0  0  0  0  0  0  0
    5.1020   -0.7350    0.5470 C   0  0  0  0  0  0  0  0  0  0  0  0
    4.0740   -1.5730    0.9220 C   0  0  0  0  0  0  0  0  0  0  0  0
    2.7740   -1.1490    1.0860 C   0  0  0  0  0  0  0  0  0  0  0  0
    2.5130    0.1840    0.8590 C   0  0  0  0  0  0  0  0  0  0  0  0
    1.1600    0.4460    1.0670 O   0  0  0  0  0  0  0  0  0  0  0  0
    0.6430   -0.6190    1.8710 C   0  0  1  0  0  0  0  0  0  0  0  0
   -0.7850   -0.7840    1.5050 C   0  0  0  0  0  0  0  0  0  0  0  0
   -1.4980   -1.6600    2.0610 O   0  0  0  0  0  0  0  0  0  0  0  0
   -1.4140    0.0250    0.5220 N   0  0  0  0  0  0  0  0  0  0  0  0
   -2.7900   -0.1300    0.1660 C   0  0  0  0  0  0  0  0  0  0  0  0
   -3.7920    0.5520    0.8000 C   0  0  0  0  0  0  0  0  0  0  0  0
   -3.4210    1.4840    1.8980 C   0  0  0  0  0  0  0  0  0  0  0  0
   -5.0930    0.3610    0.4120 C   0  0  0  0  0  0  0  0  0  0  0  0
   -5.4610   -0.5080   -0.6160 C   0  0  0  0  0  0  0  0  0  0  0  0
   -6.8470   -0.6790   -0.9920 C   0  0  0  0  0  0  0  0  0  0  0  0
   -7.7810   -0.0450   -0.4030 N   0  0  0  0  0  0  0  0  0  0  0  0
   -4.4050   -1.1900   -1.2440 C   0  0  0  0  0  0  0  0  0  0  0  0
   -4.7070   -2.0620   -2.2650 C   0  0  0  0  0  0  0  0  0  0  0  0
   -3.6800   -2.7270   -2.8780 N   0  0  0  0  0  0  0  0  0  0  0  0
   -2.4010   -2.5590   -2.5190 C   0  0  0  0  0  0  0  0  0  0  0  0
   -2.0770   -1.6950   -1.5030 C   0  0  0  0  0  0  0  0  0  0  0  0
   -3.0860   -1.0100   -0.8650 C   0  0  0  0  0  0  0  0  0  0  0  0
    1.4860   -1.7840    1.4680 C   0  0  0  0  0  0  0  0  0  0  0  0
    6.4610   -0.8950    0.3170 O   0  0  0  0  0  0  0  0  0  0  0  0
    7.1400    0.3440    0.4650 C   0  0  0  0  0  0  0  0  0  0  0  0
    6.0930    1.3110   -0.0720 C   0  0  0  0  0  0  0  0  0  0  0  0
  1  2  1  0
  2  3  1  0
  3  4  1  0
  4  5  2  0
  4  9  1  0
  5  6  1  0
  5 31  1  0
  6  7  2  0
  6 29  1  0
  7  8  1  0
  8  9  2  0
  8 28  1  0
  9 10  1  0
 10 11  1  0
 11 12  1  6
 11 28  1  0
 12 13  2  0
 12 14  1  0
 14 15  1  0
 15 16  2  0
 15 27  1  0
 16 17  1  0
 16 18  1  0
 18 19  2  0
 19 20  1  0
 19 22  1  0
 20 21  2  0
 22 23  2  0
 22 27  1  0
 23 24  1  0
 24 25  2  0
 25 26  1  0
 26 27  2  0
 29 30  1  0
 30 31  1  0
M  END
