
     RDKit          3D

 30 31  0  0  0  0  0  0  0  0999 V2000
    8.8330    0.3990   -1.3210 C   0  0  0  0  0  0  0  0  0  0  0  0
    7.9450    0.6210   -0.1320 C   0  0  2  0  0  0  0  0  0  0  0  0
    7.8400   -0.5920    0.7530 C   0  0  0  0  0  0  0  0  0  0  0  0
    6.3840   -0.4170    1.7730 S   0  0  0  0  0  0  0  0  0  0  0  0
    5.1800    0.3390    0.6470 C   0  0  2  0  0  0  0  0  0  0  0  0
    4.3400   -0.6630    0.0530 N   0  0  0  0  0  0  0  0  0  0  0  0
    2.9260   -0.5590    0.2090 C   0  0  0  0  0  0  0  0  0  0  0  0
    2.4500    0.4050    0.8620 O   0  0  0  0  0  0  0  0  0  0  0  0
    1.9880   -1.5430   -0.3670 C   0  0  0  0  0  0  0  0  0  0  0  0
    0.6630   -1.2070   -0.0790 O   0  0  0  0  0  0  0  0  0  0  0  0
    0.0690   -0.0090   -0.4880 C   0  0  0  0  0  0  0  0  0  0  0  0
    0.7750    0.7610   -1.1290 O   0  0  0  0  0  0  0  0  0  0  0  0
   -1.3300    0.1930   -0.1050 C   0  0  0  0  0  0  0  0  0  0  0  0
   -2.0020   -0.7720    0.6240 C   0  0  0  0  0  0  0  0  0  0  0  0
   -3.3190   -0.6850    1.0360 C   0  0  0  0  0  0  0  0  0  0  0  0
   -3.9020   -1.7150    1.8270 N   0  0  0  0  0  0  0  0  0  0  0  0
   -3.9930    0.4590    0.6810 C   0  0  0  0  0  0  0  0  0  0  0  0
   -5.4460    0.6060    1.0390 C   0  0  0  0  0  0  0  0  0  0  0  0
   -6.3520    0.0330    0.0360 C   0  0  0  0  0  0  0  0  0  0  0  0
   -7.2360    0.7750   -0.5910 C   0  0  0  0  0  0  0  0  0  0  0  0
   -7.3780    2.1800   -0.3460 C   0  0  0  0  0  0  0  0  0  0  0  0
   -8.2610    2.8320   -0.9940 O   0  0  0  0  0  0  0  0  0  0  0  0
   -6.3040   -1.4040   -0.3120 C   0  0  1  0  0  0  0  0  0  0  0  0
   -7.2920   -1.6970   -1.2790 F   0  0  0  0  0  0  0  0  0  0  0  0
   -5.1320   -1.8010   -0.8980 F   0  0  0  0  0  0  0  0  0  0  0  0
   -6.6850   -2.1550    0.7800 F   0  0  0  0  0  0  0  0  0  0  0  0
   -3.3630    1.4460   -0.0430 C   0  0  0  0  0  0  0  0  0  0  0  0
   -2.0240    1.3290   -0.4470 C   0  0  0  0  0  0  0  0  0  0  0  0
   -1.4760    2.3630   -1.1660 O   0  0  0  0  0  0  0  0  0  0  0  0
    6.2830    1.1320   -0.5600 S   0  0  0  0  0  0  0  0  0  0  0  0
  2  1  1  6
  2  3  1  0
  2 30  1  0
  3  4  1  0
  4  5  1  0
  5  6  1  6
  5 30  1  0
  6  7  1  0
  7  8  2  0
  7  9  1  0
  9 10  1  0
 10 11  1  0
 11 12  2  0
 11 13  1  0
 13 14  2  0
 13 28  1  0
 14 15  1  0
 15 16  1  0
 15 17  2  0
 17 18  1  0
 17 27  1  0
 18 19  1  0
 19 20  2  3
 19 23  1  0
 20 21  1  0
 21 22  2  0
 23 24  1  6
 23 25  1  0
 23 26  1  0
 27 28  2  0
 28 29  1  0
M  END
