
     RDKit          3D

 31 35  0  0  0  0  0  0  0  0999 V2000
    0.7950   -1.2000    0.8940 C   0  0  0  0  0  0  0  0  0  0  0  0
   -0.1500   -0.2610    0.2490 C   0  0  0  0  0  0  0  0  0  0  0  0
    0.2590    0.7280   -0.5080 C   0  0  0  0  0  0  0  0  0  0  0  0
    1.6220    1.0510   -0.8300 C   0  0  0  0  0  0  0  0  0  0  0  0
    1.7590    2.1000   -1.5940 O   0  0  0  0  0  0  0  0  0  0  0  0
    2.8270    0.4530   -0.4790 N   0  0  0  0  0  0  0  0  0  0  0  0
    4.0890    1.0570   -0.9890 C   0  0  0  0  0  0  0  0  0  0  0  0
    5.2450    0.2740   -0.5050 C   0  0  0  0  0  0  0  0  0  0  0  0
    5.7380   -0.7870   -1.2360 C   0  0  0  0  0  0  0  0  0  0  0  0
    6.8210   -1.5350   -0.8020 C   0  0  0  0  0  0  0  0  0  0  0  0
    7.4470   -1.2440    0.3830 C   0  0  0  0  0  0  0  0  0  0  0  0
    6.9680   -0.1860    1.1290 C   0  0  0  0  0  0  0  0  0  0  0  0
    5.8870    0.5540    0.6870 C   0  0  0  0  0  0  0  0  0  0  0  0
    7.7890   -0.1240    2.2710 O   0  0  0  0  0  0  0  0  0  0  0  0
    9.0320   -0.7220    1.8860 C   0  0  0  0  0  0  0  0  0  0  0  0
    8.5390   -1.8010    1.0770 O   0  0  0  0  0  0  0  0  0  0  0  0
   -0.7930    1.5630   -1.0630 N   0  0  0  0  0  0  0  0  0  0  0  0
   -2.1610    1.3490   -0.8220 C   0  0  0  0  0  0  0  0  0  0  0  0
   -3.1170    2.1790   -1.3730 C   0  0  0  0  0  0  0  0  0  0  0  0
   -4.4330    1.9640   -1.1290 C   0  0  0  0  0  0  0  0  0  0  0  0
   -4.8930    0.9100   -0.3220 C   0  0  0  0  0  0  0  0  0  0  0  0
   -6.3280    0.7660   -0.1220 C   0  0  0  0  0  0  0  0  0  0  0  0
   -7.2130    1.6080   -0.6810 O   0  0  0  0  0  0  0  0  0  0  0  0
   -8.4210    1.2790   -0.3600 C   0  0  0  0  0  0  0  0  0  0  0  0
   -8.3860    0.1790    0.4430 C   0  0  0  0  0  0  0  0  0  0  0  0
   -7.0230   -0.1530    0.5970 C   0  0  0  0  0  0  0  0  0  0  0  0
   -6.5140   -1.2800    1.3880 C   0  0  0  0  0  0  0  0  0  0  0  0
   -3.9310    0.0980    0.2150 C   0  0  0  0  0  0  0  0  0  0  0  0
   -2.5840    0.3040   -0.0240 C   0  0  0  0  0  0  0  0  0  0  0  0
   -1.5560   -0.5130    0.5170 N   0  0  0  0  0  0  0  0  0  0  0  0
   -1.9000   -1.6460    1.3340 C   0  0  0  0  0  0  0  0  0  0  0  0
  1  2  1  0
  2  3  2  0
  2 30  1  0
  3  4  1  0
  3 17  1  0
  4  5  2  0
  4  6  1  0
  6  7  1  0
  7  8  1  0
  8  9  2  0
  8 13  1  0
  9 10  1  0
 10 11  2  0
 11 12  1  0
 11 16  1  0
 12 13  2  0
 12 14  1  0
 14 15  1  0
 15 16  1  0
 17 18  1  0
 18 19  2  0
 18 29  1  0
 19 20  1  0
 20 21  2  0
 21 22  1  0
 21 28  1  0
 22 23  1  0
 22 26  2  0
 23 24  1  0
 24 25  2  0
 25 26  1  0
 26 27  1  0
 28 29  2  0
 29 30  1  0
 30 31  1  0
M  END
