
     RDKit          3D

 30 31  0  0  0  0  0  0  0  0999 V2000
    5.7430    4.9610   -0.8330 N   0  0  0  0  0  0  0  0  0  0  0  0
    6.1560    3.7210   -0.2950 C   0  0  0  0  0  0  0  0  0  0  0  0
    7.2920    3.6380    0.2190 O   0  0  0  0  0  0  0  0  0  0  0  0
    5.3230    2.5730   -0.3200 C   0  0  0  0  0  0  0  0  0  0  0  0
    5.4400    1.3060    0.1100 C   0  0  0  0  0  0  0  0  0  0  0  0
    4.4440    0.4240   -0.0660 C   0  0  0  0  0  0  0  0  0  0  0  0
    3.2980    0.8240   -0.6900 C   0  0  0  0  0  0  0  0  0  0  0  0
    2.1230    0.1670   -1.0110 O   0  0  0  0  0  0  0  0  0  0  0  0
    1.1670    0.1290    0.0360 C   0  0  0  0  0  0  0  0  0  0  0  0
   -0.0900   -0.5850   -0.3690 C   0  0  0  0  0  0  0  0  0  0  0  0
   -0.4110   -1.6570    0.3490 C   0  0  0  0  0  0  0  0  0  0  0  0
   -1.5810   -2.5280    0.1690 C   0  0  0  0  0  0  0  0  0  0  0  0
   -1.2630   -3.8120   -0.0790 C   0  0  0  0  0  0  0  0  0  0  0  0
   -2.3830   -4.8060   -0.2840 C   0  0  2  0  0  0  0  0  0  0  0  0
   -1.8870   -6.0990   -0.3030 F   0  0  0  0  0  0  0  0  0  0  0  0
   -2.9810   -4.6120   -1.5090 F   0  0  0  0  0  0  0  0  0  0  0  0
   -3.3240   -4.7390    0.7010 F   0  0  0  0  0  0  0  0  0  0  0  0
   -2.9920   -2.1400    0.2870 C   0  0  0  0  0  0  0  0  0  0  0  0
   -3.6200   -1.2170    0.9910 C   0  0  0  0  0  0  0  0  0  0  0  0
   -5.0390   -1.1450    0.8460 O   0  0  0  0  0  0  0  0  0  0  0  0
   -3.1880   -0.1880    1.9410 C   0  0  0  0  0  0  0  0  0  0  0  0
   -2.7190    1.0200    1.8270 C   0  0  0  0  0  0  0  0  0  0  0  0
   -2.3970    1.9450    0.7350 C   0  0  0  0  0  0  0  0  0  0  0  0
   -3.3440    1.6870   -0.2970 O   0  0  0  0  0  0  0  0  0  0  0  0
   -3.2560    0.7790   -1.3430 C   0  0  0  0  0  0  0  0  0  0  0  0
   -4.7330    0.4840   -2.0300 S   0  0  0  0  0  0  0  0  0  0  0  0
   -2.1450    0.1190   -1.8630 N   0  0  0  0  0  0  0  0  0  0  0  0
   -0.8180   -0.0520   -1.5150 C   0  0  0  0  0  0  0  0  0  0  0  0
    0.0130    0.3570   -2.4170 O   0  0  0  0  0  0  0  0  0  0  0  0
    3.6380    2.5570   -1.0580 S   0  0  0  0  0  0  0  0  0  0  0  0
  1  2  1  0
  2  3  2  0
  2  4  1  0
  4  5  2  0
  4 30  1  0
  5  6  1  0
  6  7  2  0
  7  8  1  0
  7 30  1  0
  8  9  1  0
  9 10  1  0
 10 11  2  0
 10 28  1  0
 11 12  1  0
 12 13  2  3
 12 18  1  0
 13 14  1  0
 14 15  1  6
 14 16  1  0
 14 17  1  0
 18 19  2  0
 19 20  1  0
 19 21  1  0
 21 22  2  0
 22 23  1  0
 23 24  1  0
 24 25  1  0
 25 26  2  0
 25 27  1  0
 27 28  1  0
 28 29  2  0
M  END
