
     RDKit          3D

 31 35  0  0  0  0  0  0  0  0999 V2000
    8.3420   -2.0300   -3.0350 O   0  0  0  0  0  0  0  0  0  0  0  0
    7.6470   -1.3770   -2.2100 C   0  0  0  0  0  0  0  0  0  0  0  0
    6.5830   -0.6690   -2.6270 N   0  0  0  0  0  0  0  0  0  0  0  0
    5.8160    0.0430   -1.7660 C   0  0  0  0  0  0  0  0  0  0  0  0
    4.7240    0.7690   -2.1960 C   0  0  0  0  0  0  0  0  0  0  0  0
    3.9450    1.4950   -1.3040 C   0  0  0  0  0  0  0  0  0  0  0  0
    4.2360    1.5150    0.0460 C   0  0  0  0  0  0  0  0  0  0  0  0
    3.4080    2.2900    1.0190 C   0  0  0  0  0  0  0  0  0  0  0  0
    2.3020    1.4320    1.5460 C   0  0  0  0  0  0  0  0  0  0  0  0
    2.2760    0.6310    2.6090 N   0  0  0  0  0  0  0  0  0  0  0  0
    1.0710    0.0450    2.7120 C   0  0  0  0  0  0  0  0  0  0  0  0
    0.3420    0.5270    1.6490 C   0  0  0  0  0  0  0  0  0  0  0  0
   -1.0370    0.2060    1.2970 C   0  0  0  0  0  0  0  0  0  0  0  0
   -1.6660    0.7530    0.2030 C   0  0  0  0  0  0  0  0  0  0  0  0
   -2.9620    0.4580   -0.1380 C   0  0  0  0  0  0  0  0  0  0  0  0
   -3.7340   -0.4320    0.6210 C   0  0  0  0  0  0  0  0  0  0  0  0
   -5.0790   -0.6790    0.1880 C   0  0  0  0  0  0  0  0  0  0  0  0
   -5.8120   -1.5080    0.8870 C   0  0  0  0  0  0  0  0  0  0  0  0
   -7.2180   -1.9180    0.6390 C   0  0  0  0  0  0  0  0  0  0  0  0
   -8.1000   -1.2870   -0.1030 C   0  0  0  0  0  0  0  0  0  0  0  0
   -7.9000   -0.0270   -0.8590 C   0  0  0  0  0  0  0  0  0  0  0  0
   -6.6520   -0.0920   -1.7230 C   0  0  0  0  0  0  0  0  0  0  0  0
   -5.4800   -0.0030   -0.9480 O   0  0  0  0  0  0  0  0  0  0  0  0
   -3.1150   -0.9830    1.7150 C   0  0  0  0  0  0  0  0  0  0  0  0
   -1.7900   -0.6680    2.0440 C   0  0  0  0  0  0  0  0  0  0  0  0
    1.1190    1.3490    0.9850 O   0  0  0  0  0  0  0  0  0  0  0  0
    5.3290    0.7860    0.4680 C   0  0  0  0  0  0  0  0  0  0  0  0
    6.1080    0.0610   -0.4180 C   0  0  0  0  0  0  0  0  0  0  0  0
    7.1740   -0.6500   -0.0100 N   0  0  0  0  0  0  0  0  0  0  0  0
    7.9450   -1.3630   -0.8640 C   0  0  0  0  0  0  0  0  0  0  0  0
    8.9330   -2.0140   -0.4370 O   0  0  0  0  0  0  0  0  0  0  0  0
  1  2  2  0
  2  3  1  0
  2 30  1  0
  3  4  1  0
  4  5  2  0
  4 28  1  0
  5  6  1  0
  6  7  2  0
  7  8  1  0
  7 27  1  0
  8  9  1  0
  9 10  2  0
  9 26  1  0
 10 11  1  0
 11 12  2  0
 12 13  1  0
 12 26  1  0
 13 14  2  0
 13 25  1  0
 14 15  1  0
 15 16  2  0
 16 17  1  0
 16 24  1  0
 17 18  2  0
 17 23  1  0
 18 19  1  0
 19 20  2  0
 20 21  1  0
 21 22  1  0
 22 23  1  0
 24 25  2  0
 27 28  2  0
 28 29  1  0
 29 30  1  0
 30 31  2  0
M  END
