
     RDKit          3D

 31 35  0  0  0  0  0  0  0  0999 V2000
    6.2570   -0.8070   -1.2130 C   0  0  0  0  0  0  0  0  0  0  0  0
    5.0980   -0.4370   -0.3740 C   0  0  0  0  0  0  0  0  0  0  0  0
    5.0930    0.7510    0.3210 C   0  0  0  0  0  0  0  0  0  0  0  0
    4.0340    1.1290    1.1120 C   0  0  0  0  0  0  0  0  0  0  0  0
    3.7690    2.1780    1.8660 O   0  0  0  0  0  0  0  0  0  0  0  0
    2.6150    2.0970    2.4400 C   0  0  0  0  0  0  0  0  0  0  0  0
    2.0420    0.9010    2.0530 C   0  0  0  0  0  0  0  0  0  0  0  0
    0.7390    0.3610    2.4410 C   0  0  0  0  0  0  0  0  0  0  0  0
   -0.2790    0.4880    1.3670 C   0  0  0  0  0  0  0  0  0  0  0  0
    0.0120    1.0140    0.2520 O   0  0  0  0  0  0  0  0  0  0  0  0
   -1.6140    0.0370    1.5170 N   0  0  0  0  0  0  0  0  0  0  0  0
   -2.6040    0.1530    0.4930 C   0  0  0  0  0  0  0  0  0  0  0  0
   -2.7430   -0.8830   -0.4050 C   0  0  0  0  0  0  0  0  0  0  0  0
   -1.9370   -1.9920   -0.3010 C   0  0  0  0  0  0  0  0  0  0  0  0
   -2.0540   -3.0490   -1.1910 C   0  0  0  0  0  0  0  0  0  0  0  0
   -3.0110   -2.9330   -2.1780 C   0  0  0  0  0  0  0  0  0  0  0  0
   -3.8170   -1.8200   -2.2800 C   0  0  0  0  0  0  0  0  0  0  0  0
   -3.6960   -0.7660   -1.3880 C   0  0  0  0  0  0  0  0  0  0  0  0
   -4.4800    0.3620   -1.4540 C   0  0  0  0  0  0  0  0  0  0  0  0
   -5.3520    0.4620   -2.3580 O   0  0  0  0  0  0  0  0  0  0  0  0
   -4.3430    1.3740   -0.5750 N   0  0  0  0  0  0  0  0  0  0  0  0
   -5.1140    2.4850   -0.6380 C   0  0  0  0  0  0  0  0  0  0  0  0
   -4.9680    3.5150    0.2650 C   0  0  0  0  0  0  0  0  0  0  0  0
   -4.0380    3.4000    1.2230 N   0  0  0  0  0  0  0  0  0  0  0  0
   -3.2650    2.3020    1.2990 C   0  0  0  0  0  0  0  0  0  0  0  0
   -2.3910    2.2030    2.2050 O   0  0  0  0  0  0  0  0  0  0  0  0
   -3.4130    1.2690    0.3910 C   0  0  0  0  0  0  0  0  0  0  0  0
    2.9600    0.2970    1.2070 C   0  0  0  0  0  0  0  0  0  0  0  0
    2.9600   -0.9060    0.5050 C   0  0  0  0  0  0  0  0  0  0  0  0
    4.0100   -1.3050   -0.2920 C   0  0  0  0  0  0  0  0  0  0  0  0
    4.0340   -2.5820   -1.0510 C   0  0  0  0  0  0  0  0  0  0  0  0
  1  2  1  0
  2  3  2  0
  2 30  1  0
  3  4  1  0
  4  5  1  0
  4 28  2  0
  5  6  1  0
  6  7  2  0
  7  8  1  0
  7 28  1  0
  8  9  1  0
  9 10  2  0
  9 11  1  0
 11 12  1  0
 12 13  1  0
 12 27  2  0
 13 14  2  0
 13 18  1  0
 14 15  1  0
 15 16  2  0
 16 17  1  0
 17 18  2  0
 18 19  1  0
 19 20  2  0
 19 21  1  0
 21 22  1  0
 21 27  1  0
 22 23  2  0
 23 24  1  0
 24 25  1  0
 25 26  2  0
 25 27  1  0
 28 29  1  0
 29 30  2  0
 30 31  1  0
M  END
