
     RDKit          3D

 16 17  0  0  0  0  0  0  0  0999 V2000
    3.0560   -0.2080    0.5740 C   0  0  0  0  0  0  0  0  0  0  0  0
    1.7590    0.0860    0.8780 O   0  0  0  0  0  0  0  0  0  0  0  0
    0.9260   -0.0130   -0.2170 C   0  0  1  0  0  0  0  0  0  0  0  0
    0.8820   -1.3880   -0.7580 C   0  0  0  0  0  0  0  0  0  0  0  0
   -0.2220   -2.0580    0.0150 C   0  0  0  0  0  0  0  0  0  0  0  0
   -0.4060   -3.2700    0.2010 O   0  0  0  0  0  0  0  0  0  0  0  0
   -1.0580   -1.0260    0.5210 N   0  0  0  0  0  0  0  0  0  0  0  0
   -2.1800   -1.1540    1.2730 O   0  0  0  0  0  0  0  0  0  0  0  0
   -3.2310   -2.3360    0.5920 P   0  0  0  0  0  0  0  0  0  0  0  0
   -0.4970    0.2750    0.1270 C   0  0  1  0  0  0  0  0  0  0  0  0
   -0.7010    1.4240    1.4960 S   0  0  0  0  0  0  0  0  0  0  0  0
   -0.1430    2.9790    1.1550 O   0  0  0  0  0  0  0  0  0  0  0  0
   -1.0010    3.6870    0.3820 N   0  0  0  0  0  0  0  0  0  0  0  0
   -1.1850    0.6880   -0.9660 O   0  0  0  0  0  0  0  0  0  0  0  0
    0.0200    1.5960   -1.8090 P   0  0  0  0  0  0  0  0  0  0  0  0
    1.3680    0.9680   -1.1620 N   0  0  0  0  0  0  0  0  0  0  0  0
  1  2  1  0
  3  2  1  1
  3  4  1  0
  3 10  1  0
  3 16  1  0
  4  5  1  0
  5  6  2  0
  5  7  1  0
  7  8  1  0
  7 10  1  0
  8  9  1  0
 10 11  1  1
 10 14  1  0
 11 12  1  0
 12 13  1  0
 14 15  1  0
 15 16  2  0
M  END
