
     RDKit          3D

 16 17  0  0  0  0  0  0  0  0999 V2000
   -3.4570    1.6270    0.4200 C   0  0  0  0  0  0  0  0  0  0  0  0
   -2.5100    0.4580   -0.6810 P   0  0  0  0  0  0  0  0  0  0  0  0
   -2.0430    1.1950   -2.1590 O   0  0  0  0  0  0  0  0  0  0  0  0
   -1.1070   -0.2220    0.2810 C   0  0  1  0  0  0  0  0  0  0  0  0
   -1.8040   -1.0820    1.7760 P   0  0  0  0  0  0  0  0  0  0  0  0
   -0.2190   -1.1030   -0.4750 C   0  0  0  0  0  0  0  0  0  0  0  0
   -0.3100   -2.3340   -0.9290 N   0  0  0  0  0  0  0  0  0  0  0  0
    0.9080   -2.6840   -1.6220 C   0  0  0  0  0  0  0  0  0  0  0  0
    1.4920   -1.4460   -1.8360 O   0  0  0  0  0  0  0  0  0  0  0  0
    1.0020   -0.6310   -0.8380 N   0  0  0  0  0  0  0  0  0  0  0  0
    1.5120    0.5240   -0.1740 C   0  0  2  0  0  0  0  0  0  0  0  0
    2.6190    0.2300    0.5940 O   0  0  0  0  0  0  0  0  0  0  0  0
    3.7270    0.9950    0.2320 C   0  0  0  0  0  0  0  0  0  0  0  0
    3.4240    2.7340    0.4160 Cl  0  0  0  0  0  0  0  0  0  0  0  0
    0.0740    1.0950    0.8590 P   0  0  0  0  0  0  0  0  0  0  0  0
    0.4350    0.8670    2.5250 O   0  0  0  0  0  0  0  0  0  0  0  0
  1  2  1  0
  2  3  1  0
  2  4  1  0
  4  5  1  1
  4  6  1  0
  4 15  1  0
  6  7  2  0
  6 10  1  0
  7  8  1  0
  8  9  1  0
  9 10  1  0
 10 11  1  0
 11 12  1  1
 11 15  1  0
 12 13  1  0
 13 14  1  0
 15 16  1  0
M  END
