
     RDKit          3D

 16 15  0  0  0  0  0  0  0  0999 V2000
    4.3060    2.6730    0.1890 C   0  0  0  0  0  0  0  0  0  0  0  0
    4.8230    0.9260   -0.0170 P   0  0  0  0  0  0  0  0  0  0  0  0
    3.1980   -0.4830    0.4250 P   0  0  0  0  0  0  0  0  0  0  0  0
    3.7980   -2.1960   -0.0420 C   0  0  0  0  0  0  0  0  0  0  0  0
    1.3890   -0.0250   -0.7020 P   0  0  0  0  0  0  0  0  0  0  0  0
   -0.1060   -0.6840    0.1240 C   0  0  0  0  0  0  0  0  0  0  0  0
   -0.0730   -0.8880    1.3610 O   0  0  0  0  0  0  0  0  0  0  0  0
   -1.2730   -0.9660   -0.5680 O   0  0  0  0  0  0  0  0  0  0  0  0
   -2.3150   -1.4440    0.1200 O   0  0  0  0  0  0  0  0  0  0  0  0
   -3.4450   -0.6200   -0.0810 C   0  0  1  0  0  0  0  0  0  0  0  0
   -3.1650    0.7820    0.3820 C   0  0  0  0  0  0  0  0  0  0  0  0
   -3.6940   -0.6610   -1.4640 O   0  0  0  0  0  0  0  0  0  0  0  0
   -4.5840   -1.2170    0.5680 N   0  0  0  0  0  0  0  0  0  0  0  0
   -5.7750   -0.9670    0.2080 N   0  0  0  0  0  0  0  0  0  0  0  0
   -6.1060   -0.1240   -0.8100 O   0  0  0  0  0  0  0  0  0  0  0  0
   -6.6940    1.4470   -0.4270 Cl  0  0  0  0  0  0  0  0  0  0  0  0
  1  2  1  0
  2  3  1  0
  3  4  1  0
  3  5  1  0
  5  6  1  0
  6  7  2  0
  6  8  1  0
  8  9  1  0
  9 10  1  0
 10 11  1  1
 10 12  1  0
 10 13  1  0
 13 14  2  3
 14 15  1  0
 15 16  1  0
M  END
