
     RDKit          3D

 15 14  0  0  0  0  0  0  0  0999 V2000
   -3.6610   -1.9240   -0.1440 C   0  0  0  0  0  0  0  0  0  0  0  0
   -3.1320   -0.6380    0.2220 N   0  0  0  0  0  0  0  0  0  0  0  0
   -3.7180    0.4270   -0.5360 C   0  0  0  0  0  0  0  0  0  0  0  0
   -1.7100   -0.6510    0.0450 C   0  0  0  0  0  0  0  0  0  0  0  0
   -0.9240    0.9680    0.4920 P   0  0  0  0  0  0  0  0  0  0  0  0
    1.0360    1.0550   -0.5470 P   0  0  0  0  0  0  0  0  0  0  0  0
    2.1530   -0.0970    0.3340 C   0  0  0  0  0  0  0  0  0  0  0  0
    2.2470   -0.0310    1.6040 N   0  0  0  0  0  0  0  0  0  0  0  0
    2.9240   -1.0800   -0.4480 C   0  0  0  0  0  0  0  0  0  0  0  0
    3.7560   -1.9060    0.4460 C   0  0  0  0  0  0  0  0  0  0  0  0
    3.7760   -1.7590    1.6960 O   0  0  0  0  0  0  0  0  0  0  0  0
    4.5700   -2.9040   -0.0750 O   0  0  0  0  0  0  0  0  0  0  0  0
    1.8950    3.0560   -0.4470 P   0  0  0  0  0  0  0  0  0  0  0  0
    1.5120    3.8120    1.0620 O   0  0  0  0  0  0  0  0  0  0  0  0
    1.3920    4.0240   -1.7960 O   0  0  0  0  0  0  0  0  0  0  0  0
  1  2  1  0
  2  3  1  0
  2  4  1  0
  4  5  1  0
  5  6  1  0
  6  7  1  0
  6 13  1  0
  7  8  2  0
  7  9  1  0
  9 10  1  0
 10 11  2  0
 10 12  1  0
 13 14  1  0
 13 15  1  0
M  END
