
     RDKit          3D

 16 17  0  0  0  0  0  0  0  0999 V2000
   -2.4290   -1.4930    0.3160 C   0  0  0  0  0  0  0  0  0  0  0  0
   -1.2970   -1.1950   -0.6000 C   0  0  2  0  0  0  0  0  0  0  0  0
   -1.3970   -2.1080   -1.6840 O   0  0  0  0  0  0  0  0  0  0  0  0
   -0.0050   -1.5170    0.0570 C   0  0  0  0  0  0  0  0  0  0  0  0
    0.5280   -2.5420    0.2760 O   0  0  0  0  0  0  0  0  0  0  0  0
    0.6880    0.1460    0.4550 P   0  0  0  0  0  0  0  0  0  0  0  0
    2.0650    0.5000   -0.6930 C   0  0  0  0  0  0  0  0  0  0  0  0
    3.4180    0.8890   -0.1710 C   0  0  0  0  0  0  0  0  0  0  0  0
    4.0630   -0.2430    0.2730 O   0  0  0  0  0  0  0  0  0  0  0  0
    5.0960   -0.4140   -0.5440 O   0  0  0  0  0  0  0  0  0  0  0  0
   -0.8150    1.0660   -0.2600 C   0  0  1  0  0  0  0  0  0  0  0  0
   -0.2610    2.5440   -1.0940 Cl  0  0  0  0  0  0  0  0  0  0  0  0
   -1.2740    0.0810   -1.1700 N   0  0  0  0  0  0  0  0  0  0  0  0
   -2.8230    0.9910   -1.2700 P   0  0  0  0  0  0  0  0  0  0  0  0
   -2.2270    1.2710    0.8460 P   0  0  0  0  0  0  0  0  0  0  0  0
   -2.5220    2.8850    1.4210 O   0  0  0  0  0  0  0  0  0  0  0  0
  2  1  1  1
  2  3  1  0
  2  4  1  0
  2 13  1  0
  4  5  2  0
  4  6  1  0
  6  7  1  0
  6 11  1  0
  7  8  1  0
  8  9  1  0
  9 10  1  0
 11 12  1  6
 11 13  1  0
 11 15  1  0
 13 14  1  0
 14 15  1  0
 15 16  1  0
M  END
