
     RDKit          3D

 12 13  0  0  0  0  0  0  0  0999 V2000
    3.8970    1.9790    2.0750 O   0  0  0  0  0  0  0  0  0  0  0  0
    3.5010    0.7230    1.6610 C   0  0  0  0  0  0  0  0  0  0  0  0
    2.5620    0.7730    0.4970 C   0  0  0  0  0  0  0  0  0  0  0  0
    1.3720    0.2940    0.5380 C   0  0  0  0  0  0  0  0  0  0  0  0
    0.5220    0.3640   -0.5820 N   0  0  0  0  0  0  0  0  0  0  0  0
   -0.6630   -0.0740   -0.6560 C   0  0  0  0  0  0  0  0  0  0  0  0
   -1.5500    0.0180   -1.8780 C   0  0  0  0  0  0  0  0  0  0  0  0
   -2.9230   -0.2530   -1.3140 C   0  0  0  0  0  0  0  0  0  0  0  0
   -2.7410   -1.0920   -0.0970 C   0  0  0  0  0  0  0  0  0  0  0  0
   -1.3570   -0.7270    0.4040 C   0  0  0  0  0  0  0  0  0  0  0  0
   -0.9150   -0.9900    1.6200 C   0  0  0  0  0  0  0  0  0  0  0  0
    0.7440   -0.4770    2.0080 S   0  0  0  0  0  0  0  0  0  0  0  0
  1  2  1  0
  2  3  1  0
  3  4  2  3
  4  5  1  0
  4 12  1  0
  5  6  2  0
  6  7  1  0
  6 10  1  0
  7  8  1  0
  8  9  1  0
  9 10  1  0
 10 11  2  0
 11 12  1  0
M  END
