
     RDKit          3D

 12 11  0  0  0  0  0  0  0  0999 V2000
   -4.4090    1.1040    0.5310 C   0  0  0  0  0  0  0  0  0  0  0  0
   -3.6230   -0.0460   -0.0570 C   0  0  0  0  0  0  0  0  0  0  0  0
   -2.1790    0.1300    0.3840 C   0  0  0  0  0  0  0  0  0  0  0  0
   -1.3090   -0.9960   -0.1690 C   0  0  0  0  0  0  0  0  0  0  0  0
    0.0980   -0.7400    0.3180 C   0  0  0  0  0  0  0  0  0  0  0  0
    1.0610   -1.8010   -0.1710 C   0  0  0  0  0  0  0  0  0  0  0  0
    2.4680   -1.5370    0.3200 C   0  0  0  0  0  0  0  0  0  0  0  0
    2.9350   -0.2130   -0.1780 C   0  0  0  0  0  0  0  0  0  0  0  0
    3.2900    0.7670    0.6250 C   0  0  0  0  0  0  0  0  0  0  0  0
    3.7320    2.0240    0.0130 C   0  0  0  0  0  0  0  0  0  0  0  0
    4.0810    2.9880    0.7670 O   0  0  0  0  0  0  0  0  0  0  0  0
    3.7890    2.2100   -1.3410 O   0  0  0  0  0  0  0  0  0  0  0  0
  1  2  1  0
  2  3  1  0
  3  4  1  0
  4  5  1  0
  5  6  1  0
  6  7  1  0
  7  8  1  0
  8  9  2  3
  9 10  1  0
 10 11  2  0
 10 12  1  0
M  END
