
     RDKit          3D

 12 13  0  0  0  0  0  0  0  0999 V2000
    3.9320   -0.6030   -0.5730 O   0  0  0  0  0  0  0  0  0  0  0  0
    2.5860   -0.3800   -0.2730 C   0  0  0  0  0  0  0  0  0  0  0  0
    1.9330   -1.4710    0.1050 C   0  0  0  0  0  0  0  0  0  0  0  0
    0.5680   -1.7360    0.5040 N   0  0  0  0  0  0  0  0  0  0  0  0
   -0.5540   -1.1280    0.4250 C   0  0  0  0  0  0  0  0  0  0  0  0
   -1.9820   -1.9530    1.1130 S   0  0  0  0  0  0  0  0  0  0  0  0
   -3.1280   -0.5200    0.9590 C   0  0  0  0  0  0  0  0  0  0  0  0
   -2.5030    0.1580   -0.2370 C   0  0  0  0  0  0  0  0  0  0  0  0
   -1.0430    0.1330   -0.1000 C   0  0  0  0  0  0  0  0  0  0  0  0
   -0.4120    1.2360   -0.4720 C   0  0  0  0  0  0  0  0  0  0  0  0
    0.9860    1.6410   -0.5110 C   0  0  0  0  0  0  0  0  0  0  0  0
    2.1600    1.0030   -0.4330 C   0  0  0  0  0  0  0  0  0  0  0  0
  1  2  1  0
  2  3  2  0
  2 12  1  0
  3  4  1  0
  4  5  2  0
  5  6  1  0
  5  9  1  0
  6  7  1  0
  7  8  1  0
  8  9  1  0
  9 10  2  0
 10 11  1  0
 11 12  2  0
M  END
