
     RDKit          3D

 12 13  0  0  0  0  0  0  0  0999 V2000
    5.2280   -0.2610   -0.2570 O   0  0  0  0  0  0  0  0  0  0  0  0
    4.1490    0.2410    0.1360 C   0  0  0  0  0  0  0  0  0  0  0  0
    2.8490   -0.2010   -0.4080 C   0  0  0  0  0  0  0  0  0  0  0  0
    2.8150   -1.1380   -1.3240 C   0  0  0  0  0  0  0  0  0  0  0  0
    1.1000   -1.4010   -1.7310 S   0  0  0  0  0  0  0  0  0  0  0  0
    0.4820   -0.1780   -0.5940 C   0  0  0  0  0  0  0  0  0  0  0  0
   -0.7570    0.1300   -0.4030 C   0  0  0  0  0  0  0  0  0  0  0  0
   -1.9660   -0.4270   -1.0520 C   0  0  0  0  0  0  0  0  0  0  0  0
   -2.9000   -0.5860    0.1480 C   0  0  0  0  0  0  0  0  0  0  0  0
   -2.4400    0.4160    1.1730 C   0  0  0  0  0  0  0  0  0  0  0  0
   -1.2530    1.1510    0.5470 C   0  0  0  0  0  0  0  0  0  0  0  0
    1.6420    0.3380    0.0110 N   0  0  0  0  0  0  0  0  0  0  0  0
  1  2  2  0
  2  3  1  0
  3  4  2  0
  3 12  1  0
  4  5  1  0
  5  6  1  0
  6  7  2  3
  6 12  1  0
  7  8  1  0
  7 11  1  0
  8  9  1  0
  9 10  1  0
 10 11  1  0
M  END
