
     RDKit          3D

 12 12  0  0  0  0  0  0  0  0999 V2000
    1.5720   -2.4900    0.0940 C   0  0  0  0  0  0  0  0  0  0  0  0
    0.8580   -1.4480    0.4480 C   0  0  0  0  0  0  0  0  0  0  0  0
   -0.6700   -1.8710    1.2970 S   0  0  0  0  0  0  0  0  0  0  0  0
   -1.9250   -0.8410    0.5540 C   0  0  0  0  0  0  0  0  0  0  0  0
   -1.8220    0.3390   -0.0120 C   0  0  0  0  0  0  0  0  0  0  0  0
   -3.1390    0.8520   -0.5100 C   0  0  0  0  0  0  0  0  0  0  0  0
   -4.1760   -0.0420   -0.2590 O   0  0  0  0  0  0  0  0  0  0  0  0
   -0.7070    1.2140   -0.2390 C   0  0  0  0  0  0  0  0  0  0  0  0
    0.5410    1.0020   -0.1730 N   0  0  0  0  0  0  0  0  0  0  0  0
    1.3390   -0.1310    0.1390 C   0  0  0  0  0  0  0  0  0  0  0  0
    2.6460    0.0050    0.1550 C   0  0  0  0  0  0  0  0  0  0  0  0
    3.2390    1.3250   -0.1510 C   0  0  0  0  0  0  0  0  0  0  0  0
  1  2  2  0
  2  3  1  0
  2 10  1  0
  3  4  1  0
  4  5  2  0
  5  6  1  0
  5  8  1  0
  6  7  1  0
  8  9  2  0
  9 10  1  0
 10 11  2  3
 11 12  1  0
M  END
