
     RDKit          3D

 12 13  0  0  0  0  0  0  0  0999 V2000
    3.2300    1.3210   -0.3240 N   0  0  0  0  0  0  0  0  0  0  0  0
    2.0640    0.5340   -0.1180 C   0  0  0  0  0  0  0  0  0  0  0  0
    2.1850   -0.7500    0.1370 C   0  0  0  0  0  0  0  0  0  0  0  0
    1.1560   -1.7770    0.3850 C   0  0  0  0  0  0  0  0  0  0  0  0
   -0.1520   -1.4740   -0.2810 C   0  0  0  0  0  0  0  0  0  0  0  0
   -0.8730   -0.2940    0.2390 C   0  0  1  0  0  0  0  0  0  0  0  0
   -1.8730    0.1530   -0.8300 C   0  0  0  0  0  0  0  0  0  0  0  0
   -2.4750    1.4560   -0.2830 C   0  0  0  0  0  0  0  0  0  0  0  0
   -2.8190    0.8910    1.4340 S   0  0  0  0  0  0  0  0  0  0  0  0
   -1.8110   -0.6470    1.4050 C   0  0  0  0  0  0  0  0  0  0  0  0
   -0.0980    0.7440    0.6870 O   0  0  0  0  0  0  0  0  0  0  0  0
    0.7740    1.2730   -0.2170 C   0  0  0  0  0  0  0  0  0  0  0  0
  1  2  1  0
  2  3  2  0
  2 12  1  0
  3  4  1  0
  4  5  1  0
  6  5  1  6
  6  7  1  0
  6 10  1  0
  6 11  1  0
  7  8  1  0
  8  9  1  0
  9 10  1  0
 11 12  1  0
M  END
