
     RDKit          3D

 12 13  0  0  0  0  0  0  0  0999 V2000
   -0.6970    2.8880   -0.1550 O   0  0  0  0  0  0  0  0  0  0  0  0
   -0.2270    1.7050   -0.2800 C   0  0  0  0  0  0  0  0  0  0  0  0
    1.1310    1.6890    0.1060 N   0  0  0  0  0  0  0  0  0  0  0  0
    2.2510    0.8410   -0.1790 C   0  0  0  0  0  0  0  0  0  0  0  0
    2.0810   -0.5220    0.4560 C   0  0  0  0  0  0  0  0  0  0  0  0
    1.2250   -1.4340   -0.3770 C   0  0  0  0  0  0  0  0  0  0  0  0
   -0.2080   -1.3990    0.0210 C   0  0  0  0  0  0  0  0  0  0  0  0
   -1.2390   -0.5420   -0.1190 C   0  0  0  0  0  0  0  0  0  0  0  0
   -2.4630   -0.9700    0.4560 C   0  0  0  0  0  0  0  0  0  0  0  0
   -3.4510   -0.1160    0.5140 C   0  0  0  0  0  0  0  0  0  0  0  0
   -2.8640    1.4060   -0.2070 S   0  0  0  0  0  0  0  0  0  0  0  0
   -1.2640    0.7670   -0.7840 C   0  0  1  0  0  0  0  0  0  0  0  0
  1  2  2  0
  2  3  1  0
  2 12  1  0
  3  4  1  0
  4  5  1  0
  5  6  1  0
  6  7  1  0
  7  8  2  0
  8  9  1  0
  8 12  1  0
  9 10  2  0
 10 11  1  0
 12 11  1  1
M  END
