
     RDKit          3D

 12 13  0  0  0  0  0  0  0  0999 V2000
    2.3670   -0.7280   -0.4600 C   0  0  0  0  0  0  0  0  0  0  0  0
    0.9530   -0.4610   -0.0830 C   0  0  0  0  0  0  0  0  0  0  0  0
    0.6320    0.8390    0.0030 C   0  0  0  0  0  0  0  0  0  0  0  0
    1.5570    1.8850   -0.2430 C   0  0  0  0  0  0  0  0  0  0  0  0
    1.1350    3.0750   -0.1280 N   0  0  0  0  0  0  0  0  0  0  0  0
   -0.5760    3.0740    0.3290 S   0  0  0  0  0  0  0  0  0  0  0  0
   -1.3310    3.6130   -0.8870 O   0  0  0  0  0  0  0  0  0  0  0  0
   -0.7150    1.2850    0.3620 C   0  0  0  0  0  0  0  0  0  0  0  0
   -1.8340    0.6800    0.6560 C   0  0  0  0  0  0  0  0  0  0  0  0
   -2.0450   -0.7910    0.7030 C   0  0  0  0  0  0  0  0  0  0  0  0
   -1.2370   -1.4920   -0.3680 C   0  0  0  0  0  0  0  0  0  0  0  0
    0.1710   -1.6820    0.1280 C   0  0  0  0  0  0  0  0  0  0  0  0
  1  2  1  0
  2  3  2  0
  2 12  1  0
  3  4  1  0
  3  8  1  0
  4  5  2  0
  6  5  1  6
  6  7  2  0
  6  8  1  0
  8  9  2  0
  9 10  1  0
 10 11  1  0
 11 12  1  0
M  END
