
     RDKit          3D

 25 28  0  0  0  0  0  0  0  0999 V2000
    7.7780   -0.2450   -0.5790 C   0  0  0  0  0  0  0  0  0  0  0  0
    6.3210   -0.1150   -0.7740 C   0  0  0  0  0  0  0  0  0  0  0  0
    5.6390    0.2360   -1.8730 N   0  0  0  0  0  0  0  0  0  0  0  0
    4.3430    0.2320   -1.6310 N   0  0  0  0  0  0  0  0  0  0  0  0
    4.1430   -0.1240   -0.3610 C   0  0  0  0  0  0  0  0  0  0  0  0
    2.8590   -0.2560    0.3250 C   0  0  0  0  0  0  0  0  0  0  0  0
    2.7980   -0.5970    1.5210 O   0  0  0  0  0  0  0  0  0  0  0  0
    1.6540    0.0160   -0.4070 N   0  0  0  0  0  0  0  0  0  0  0  0
    0.4180   -0.1260    0.3040 C   0  0  0  0  0  0  0  0  0  0  0  0
   -0.7930    0.1580   -0.4670 C   0  0  0  0  0  0  0  0  0  0  0  0
   -0.8310    0.5390   -1.7680 C   0  0  0  0  0  0  0  0  0  0  0  0
   -1.9960    0.7930   -2.4370 C   0  0  0  0  0  0  0  0  0  0  0  0
   -3.2090    0.6540   -1.7480 C   0  0  0  0  0  0  0  0  0  0  0  0
   -4.4520    0.9320   -2.4830 C   0  0  0  0  0  0  0  0  0  0  0  0
   -3.2200    0.2690   -0.4270 C   0  0  0  0  0  0  0  0  0  0  0  0
   -4.4250    0.1250    0.2750 C   0  0  0  0  0  0  0  0  0  0  0  0
   -4.3740   -0.2680    1.6100 C   0  0  0  0  0  0  0  0  0  0  0  0
   -3.1620   -0.5030    2.2070 C   0  0  0  0  0  0  0  0  0  0  0  0
   -1.9720   -0.3690    1.5420 C   0  0  0  0  0  0  0  0  0  0  0  0
   -2.0020    0.0180    0.2240 C   0  0  0  0  0  0  0  0  0  0  0  0
   -5.7750   -0.3370    2.0870 C   0  0  0  0  0  0  0  0  0  0  0  0
   -6.5750    0.0380    0.9410 C   0  0  0  0  0  0  0  0  0  0  0  0
   -5.7930    0.3090   -0.1220 C   0  0  0  0  0  0  0  0  0  0  0  0
    5.3720   -0.3520    0.2140 C   0  0  0  0  0  0  0  0  0  0  0  0
    5.6130   -0.7680    1.6180 C   0  0  0  0  0  0  0  0  0  0  0  0
  1  2  1  0
  2  3  2  0
  2 24  1  0
  3  4  1  0
  4  5  1  0
  5  6  1  0
  5 24  2  0
  6  7  2  0
  6  8  1  0
  8  9  1  0
  9 10  1  0
 10 11  2  0
 10 20  1  0
 11 12  1  0
 12 13  2  0
 13 14  1  0
 13 15  1  0
 15 16  2  0
 15 20  1  0
 16 17  1  0
 16 23  1  0
 17 18  2  0
 17 21  1  0
 18 19  1  0
 19 20  2  0
 21 22  1  0
 22 23  2  0
 24 25  1  0
M  END
