
     RDKit          3D

 25 28  0  0  0  0  0  0  0  0999 V2000
   -5.8460    0.0940   -2.4060 C   0  0  0  0  0  0  0  0  0  0  0  0
   -4.8190   -0.0800   -1.3900 N   0  0  0  0  0  0  0  0  0  0  0  0
   -3.5140   -0.3830   -1.5440 C   0  0  0  0  0  0  0  0  0  0  0  0
   -2.9690   -0.5220   -0.2890 C   0  0  0  0  0  0  0  0  0  0  0  0
   -1.6130   -1.0070    0.0830 C   0  0  0  0  0  0  0  0  0  0  0  0
   -0.7490    0.1890   -0.0320 N   0  0  0  0  0  0  0  0  0  0  0  0
    0.6450    0.1510   -0.0160 C   0  0  0  0  0  0  0  0  0  0  0  0
    1.2610   -0.9600    0.0290 O   0  0  0  0  0  0  0  0  0  0  0  0
    1.4940    1.3330   -0.0640 N   0  0  0  0  0  0  0  0  0  0  0  0
    2.8890    1.1070   -0.1970 C   0  0  0  0  0  0  0  0  0  0  0  0
    3.3690    1.1350   -1.5290 C   0  0  0  0  0  0  0  0  0  0  0  0
    4.6740    0.7980   -1.7560 C   0  0  0  0  0  0  0  0  0  0  0  0
    5.4950    0.4350   -0.7160 C   0  0  0  0  0  0  0  0  0  0  0  0
    6.8200    0.0240   -0.9810 C   0  0  0  0  0  0  0  0  0  0  0  0
    7.6540   -0.4040    0.0220 C   0  0  0  0  0  0  0  0  0  0  0  0
    7.2050   -0.4440    1.3400 C   0  0  0  0  0  0  0  0  0  0  0  0
    5.8770   -0.0240    1.6060 C   0  0  0  0  0  0  0  0  0  0  0  0
    5.0460    0.4050    0.5810 C   0  0  0  0  0  0  0  0  0  0  0  0
    3.7020    0.7570    0.8140 C   0  0  0  0  0  0  0  0  0  0  0  0
   -3.9660   -0.2970    0.6560 C   0  0  0  0  0  0  0  0  0  0  0  0
   -3.8930   -0.2480    2.0530 C   0  0  0  0  0  0  0  0  0  0  0  0
   -4.9970    0.0850    2.7400 C   0  0  0  0  0  0  0  0  0  0  0  0
   -6.1620    0.3680    2.0640 C   0  0  0  0  0  0  0  0  0  0  0  0
   -6.2420    0.3270    0.6860 C   0  0  0  0  0  0  0  0  0  0  0  0
   -5.1000   -0.0190   -0.0450 C   0  0  0  0  0  0  0  0  0  0  0  0
  1  2  1  0
  2  3  1  0
  2 25  1  0
  3  4  2  0
  4  5  1  0
  4 20  1  0
  5  6  1  0
  6  7  1  0
  7  8  2  0
  7  9  1  0
  9 10  1  0
 10 11  2  0
 10 19  1  0
 11 12  1  0
 12 13  2  0
 13 14  1  0
 13 18  1  0
 14 15  2  0
 15 16  1  0
 16 17  2  0
 17 18  1  0
 18 19  2  0
 20 21  2  0
 20 25  1  0
 21 22  1  0
 22 23  2  0
 23 24  1  0
 24 25  2  0
M  END
