
     RDKit          3D

 25 28  0  0  0  0  0  0  0  0999 V2000
   -3.2800    0.0110   -1.7280 C   0  0  0  0  0  0  0  0  0  0  0  0
   -3.1360    0.5900   -0.5450 C   0  0  0  0  0  0  0  0  0  0  0  0
   -2.8040    2.0110   -0.4290 C   0  0  0  0  0  0  0  0  0  0  0  0
   -2.6910    2.5570    0.9440 C   0  0  0  0  0  0  0  0  0  0  0  0
   -2.1660    1.6400    1.9830 C   0  0  0  0  0  0  0  0  0  0  0  0
   -2.1170    0.1860    1.5960 C   0  0  2  0  0  0  0  0  0  0  0  0
   -0.9130   -0.1060    0.8440 N   0  0  0  0  0  0  0  0  0  0  0  0
   -0.4170   -1.3910    0.5510 C   0  0  0  0  0  0  0  0  0  0  0  0
   -0.9790   -2.5000    1.1260 C   0  0  0  0  0  0  0  0  0  0  0  0
   -0.4440   -3.7590    0.8380 C   0  0  0  0  0  0  0  0  0  0  0  0
    0.6290   -3.8870   -0.0100 C   0  0  0  0  0  0  0  0  0  0  0  0
    1.2060   -2.7840   -0.5960 C   0  0  0  0  0  0  0  0  0  0  0  0
    0.6630   -1.5350   -0.3000 C   0  0  0  0  0  0  0  0  0  0  0  0
    1.2390   -0.3600   -0.9240 C   0  0  0  0  0  0  0  0  0  0  0  0
    0.4960    0.4530   -1.6850 N   0  0  0  0  0  0  0  0  0  0  0  0
    0.9750    1.5370   -2.2700 N   0  0  0  0  0  0  0  0  0  0  0  0
    2.2680    1.8610   -2.1100 C   0  0  0  0  0  0  0  0  0  0  0  0
    2.7500    2.8860   -2.6560 O   0  0  0  0  0  0  0  0  0  0  0  0
    3.1110    1.0860   -1.3460 C   0  0  0  0  0  0  0  0  0  0  0  0
    4.4500    1.4120   -1.1680 C   0  0  0  0  0  0  0  0  0  0  0  0
    5.2640    0.6280   -0.4000 C   0  0  0  0  0  0  0  0  0  0  0  0
    4.7630   -0.4940    0.2060 C   0  0  0  0  0  0  0  0  0  0  0  0
    3.4230   -0.8050    0.0180 C   0  0  0  0  0  0  0  0  0  0  0  0
    2.5650   -0.0530   -0.7430 C   0  0  0  0  0  0  0  0  0  0  0  0
   -3.3040   -0.1810    0.7220 C   0  0  0  0  0  0  0  0  0  0  0  0
  1  2  2  0
  2  3  1  0
  2 25  1  0
  3  4  1  0
  4  5  1  0
  5  6  1  0
  6  7  1  6
  6 25  1  0
  7  8  1  0
  8  9  2  0
  8 13  1  0
  9 10  1  0
 10 11  2  0
 11 12  1  0
 12 13  2  0
 13 14  1  0
 14 15  2  0
 14 24  1  0
 15 16  1  0
 16 17  1  0
 17 18  2  0
 17 19  1  0
 19 20  2  0
 19 24  1  0
 20 21  1  0
 21 22  2  0
 22 23  1  0
 23 24  2  0
M  END
