
     RDKit          3D

 14 13  0  0  0  0  0  0  0  0999 V2000
    5.0730   -0.3040   -0.2330 C   0  0  0  0  0  0  0  0  0  0  0  0
    4.2810    0.9060   -0.6570 C   0  0  0  0  0  0  0  0  0  0  0  0
    3.2000    1.2600    0.3180 C   0  0  0  0  0  0  0  0  0  0  0  0
    2.2100    0.1440    0.4970 C   0  0  0  0  0  0  0  0  0  0  0  0
    1.5480   -0.1880   -0.8090 C   0  0  0  0  0  0  0  0  0  0  0  0
    0.5670   -1.3000   -0.6070 C   0  0  0  0  0  0  0  0  0  0  0  0
   -0.5160   -0.9480    0.3880 C   0  0  0  0  0  0  0  0  0  0  0  0
   -1.3030    0.2600   -0.0660 C   0  0  0  0  0  0  0  0  0  0  0  0
   -2.3900    0.6220    0.9110 C   0  0  0  0  0  0  0  0  0  0  0  0
   -3.4010   -0.4450    1.1390 C   0  0  0  0  0  0  0  0  0  0  0  0
   -4.1620   -0.8930   -0.0600 C   0  0  0  0  0  0  0  0  0  0  0  0
   -4.9530    0.1550   -0.7230 C   0  0  0  0  0  0  0  0  0  0  0  0
   -5.6010   -0.1130   -1.7570 O   0  0  0  0  0  0  0  0  0  0  0  0
   -4.9800    1.4280   -0.2060 O   0  0  0  0  0  0  0  0  0  0  0  0
  1  2  1  0
  2  3  1  0
  3  4  1  0
  4  5  1  0
  5  6  1  0
  6  7  1  0
  7  8  1  0
  8  9  1  0
  9 10  1  0
 10 11  1  0
 11 12  1  0
 12 13  2  0
 12 14  1  0
M  END
