
     RDKit          3D

 25 28  0  0  0  0  0  0  0  0999 V2000
   -2.7760   -1.1390    3.7760 C   0  0  0  0  0  0  0  0  0  0  0  0
   -2.2480   -1.3510    2.4030 C   0  0  0  0  0  0  0  0  0  0  0  0
   -2.5550   -0.5260    1.4300 C   0  0  0  0  0  0  0  0  0  0  0  0
   -3.4010    0.5950    1.6450 N   0  0  0  0  0  0  0  0  0  0  0  0
   -3.5630    1.2640    0.4120 C   0  0  0  0  0  0  0  0  0  0  0  0
   -4.2010    2.3610   -0.1820 C   0  0  0  0  0  0  0  0  0  0  0  0
   -3.8750    2.3650   -1.5210 C   0  0  0  0  0  0  0  0  0  0  0  0
   -3.0540    1.2850   -1.7140 C   0  0  0  0  0  0  0  0  0  0  0  0
   -2.4510    0.8850   -3.0020 C   0  0  0  0  0  0  0  0  0  0  0  0
   -2.8760    0.6320   -0.5360 N   0  0  0  0  0  0  0  0  0  0  0  0
   -2.1750   -0.5160    0.0130 C   0  0  1  0  0  0  0  0  0  0  0  0
   -0.7680   -0.3040   -0.1900 N   0  0  0  0  0  0  0  0  0  0  0  0
    0.2560   -1.2760   -0.1120 C   0  0  0  0  0  0  0  0  0  0  0  0
    0.0340   -2.6300    0.0180 C   0  0  0  0  0  0  0  0  0  0  0  0
    1.0700   -3.5360    0.0540 C   0  0  0  0  0  0  0  0  0  0  0  0
    2.3700   -3.1300   -0.0390 C   0  0  0  0  0  0  0  0  0  0  0  0
    2.6320   -1.7850   -0.1710 C   0  0  0  0  0  0  0  0  0  0  0  0
    1.6010   -0.8990   -0.2050 C   0  0  0  0  0  0  0  0  0  0  0  0
    1.8450    0.4650   -0.3370 O   0  0  0  0  0  0  0  0  0  0  0  0
    3.1260    0.9620   -0.4370 C   0  0  0  0  0  0  0  0  0  0  0  0
    3.7260    1.1100   -1.6730 C   0  0  0  0  0  0  0  0  0  0  0  0
    5.0130    1.6090   -1.7810 C   0  0  0  0  0  0  0  0  0  0  0  0
    5.6560    1.9450   -0.6250 C   0  0  0  0  0  0  0  0  0  0  0  0
    5.0780    1.8060    0.6120 C   0  0  0  0  0  0  0  0  0  0  0  0
    3.7960    1.3090    0.7160 C   0  0  0  0  0  0  0  0  0  0  0  0
  1  2  1  0
  2  3  2  3
  3  4  1  0
  3 11  1  0
  4  5  1  0
  5  6  2  0
  5 10  1  0
  6  7  1  0
  7  8  2  0
  8  9  1  0
  8 10  1  0
 10 11  1  0
 11 12  1  1
 12 13  1  0
 13 14  2  0
 13 18  1  0
 14 15  1  0
 15 16  2  0
 16 17  1  0
 17 18  2  0
 18 19  1  0
 19 20  1  0
 20 21  2  0
 20 25  1  0
 21 22  1  0
 22 23  2  0
 23 24  1  0
 24 25  2  0
M  END
