
     RDKit          3D

 25 28  0  0  0  0  0  0  0  0999 V2000
   -6.2390   -2.3220   -2.2970 C   0  0  0  0  0  0  0  0  0  0  0  0
   -4.7790   -2.1600   -2.1850 C   0  0  0  0  0  0  0  0  0  0  0  0
   -4.2830   -1.3610   -1.2700 C   0  0  0  0  0  0  0  0  0  0  0  0
   -5.1430   -0.6110   -0.3410 C   0  0  0  0  0  0  0  0  0  0  0  0
   -4.5890    0.1670    0.5460 C   0  0  0  0  0  0  0  0  0  0  0  0
   -5.4610    0.9340    1.4950 C   0  0  0  0  0  0  0  0  0  0  0  0
   -3.1510    0.3650    0.7020 C   0  0  0  0  0  0  0  0  0  0  0  0
   -2.6520    1.2140    1.6750 C   0  0  0  0  0  0  0  0  0  0  0  0
   -1.2830    1.3470    1.7600 C   0  0  0  0  0  0  0  0  0  0  0  0
   -0.4730    0.6510    0.8970 C   0  0  0  0  0  0  0  0  0  0  0  0
    0.9870    0.8400    1.0420 C   0  0  0  0  0  0  0  0  0  0  0  0
    1.8680    0.1760    0.2140 C   0  0  0  0  0  0  0  0  0  0  0  0
    3.2340    0.3250    0.3180 C   0  0  0  0  0  0  0  0  0  0  0  0
    4.1190   -0.3480   -0.5200 O   0  0  0  0  0  0  0  0  0  0  0  0
    5.4880   -0.2080   -0.4290 C   0  0  0  0  0  0  0  0  0  0  0  0
    6.2480   -0.5870    0.5640 C   0  0  0  0  0  0  0  0  0  0  0  0
    7.6510   -0.2510    0.2590 C   0  0  0  0  0  0  0  0  0  0  0  0
    7.5780    0.3860   -1.0770 C   0  0  0  0  0  0  0  0  0  0  0  0
    6.3150    0.4010   -1.4580 C   0  0  0  0  0  0  0  0  0  0  0  0
    3.7470    1.1700    1.2850 C   0  0  0  0  0  0  0  0  0  0  0  0
    2.8320    1.8180    2.0970 C   0  0  0  0  0  0  0  0  0  0  0  0
    1.5020    1.6550    1.9760 N   0  0  0  0  0  0  0  0  0  0  0  0
   -0.9760   -0.1660   -0.0380 N   0  0  0  0  0  0  0  0  0  0  0  0
   -2.3140   -0.3220   -0.1500 C   0  0  0  0  0  0  0  0  0  0  0  0
   -2.8770   -1.1910   -1.1440 N   0  0  0  0  0  0  0  0  0  0  0  0
  1  2  1  0
  2  3  2  3
  3  4  1  0
  3 25  1  0
  4  5  2  0
  5  6  1  0
  5  7  1  0
  7  8  2  0
  7 24  1  0
  8  9  1  0
  9 10  2  0
 10 11  1  0
 10 23  1  0
 11 12  2  0
 11 22  1  0
 12 13  1  0
 13 14  1  0
 13 20  2  0
 14 15  1  0
 15 16  2  0
 15 19  1  0
 16 17  1  0
 17 18  1  0
 18 19  2  0
 20 21  1  0
 21 22  2  0
 23 24  2  0
 24 25  1  0
M  END
