
     RDKit          3D

 10  9  0  0  0  0  0  0  0  0999 V2000
    3.4570    0.3380   -0.4260 N   0  0  0  0  0  0  0  0  0  0  0  0
    2.0770    0.5100   -0.1550 C   0  0  0  0  0  0  0  0  0  0  0  0
    1.7180    1.5560    0.4110 O   0  0  0  0  0  0  0  0  0  0  0  0
    1.1300   -0.5010   -0.5270 C   0  0  0  0  0  0  0  0  0  0  0  0
    1.7060   -1.6410   -1.1680 O   0  0  0  0  0  0  0  0  0  0  0  0
   -0.1620   -0.4760   -0.3400 C   0  0  0  0  0  0  0  0  0  0  0  0
   -0.9600    0.5510    0.2750 C   0  0  0  0  0  0  0  0  0  0  0  0
   -2.2780    0.4630    0.4090 C   0  0  0  0  0  0  0  0  0  0  0  0
   -2.9730   -0.6800   -0.0620 N   0  0  0  0  0  0  0  0  0  0  0  0
   -2.9520    1.4950    1.0100 O   0  0  0  0  0  0  0  0  0  0  0  0
  1  2  1  0
  2  3  2  0
  2  4  1  0
  4  5  1  0
  4  6  2  3
  6  7  1  0
  7  8  2  3
  8  9  1  0
  8 10  1  0
M  END
