
     RDKit          3D

 25 28  0  0  0  0  0  0  0  0999 V2000
   -8.3050    0.9130    0.9450 C   0  0  0  0  0  0  0  0  0  0  0  0
   -6.8600    0.5950    0.6750 C   0  0  0  0  0  0  0  0  0  0  0  0
   -6.4350   -0.4100   -0.1680 C   0  0  0  0  0  0  0  0  0  0  0  0
   -5.0400   -0.3650   -0.1330 C   0  0  0  0  0  0  0  0  0  0  0  0
   -4.0510   -1.1020   -0.7530 C   0  0  0  0  0  0  0  0  0  0  0  0
   -2.7110   -0.8510   -0.5450 C   0  0  0  0  0  0  0  0  0  0  0  0
   -1.7270   -1.5810   -1.1590 C   0  0  0  0  0  0  0  0  0  0  0  0
   -0.3630   -1.3470   -0.9660 C   0  0  0  0  0  0  0  0  0  0  0  0
    0.0280   -0.3520   -0.1320 C   0  0  0  0  0  0  0  0  0  0  0  0
    1.3610   -0.0060    0.1350 N   0  0  0  0  0  0  0  0  0  0  0  0
    2.4930   -0.4830   -0.5570 C   0  0  0  0  0  0  0  0  0  0  0  0
    2.3930   -1.2800   -1.5010 O   0  0  0  0  0  0  0  0  0  0  0  0
    3.8290   -0.0200   -0.1440 C   0  0  0  0  0  0  0  0  0  0  0  0
    4.9200   -0.4280   -0.7480 C   0  0  0  0  0  0  0  0  0  0  0  0
    6.2320    0.0070   -0.3650 C   0  0  0  0  0  0  0  0  0  0  0  0
    6.4910    0.8830    0.6570 C   0  0  0  0  0  0  0  0  0  0  0  0
    7.8180    1.2210    0.9210 C   0  0  0  0  0  0  0  0  0  0  0  0
    8.8260    0.7230    0.2180 N   0  0  0  0  0  0  0  0  0  0  0  0
    8.6230   -0.1380   -0.7920 C   0  0  0  0  0  0  0  0  0  0  0  0
    7.3350   -0.4900   -1.0770 C   0  0  0  0  0  0  0  0  0  0  0  0
   -0.9670    0.4070    0.5060 C   0  0  0  0  0  0  0  0  0  0  0  0
   -2.3040    0.1620    0.3040 C   0  0  0  0  0  0  0  0  0  0  0  0
   -3.3000    0.8890    0.9150 C   0  0  0  0  0  0  0  0  0  0  0  0
   -4.6420    0.6450    0.7130 C   0  0  0  0  0  0  0  0  0  0  0  0
   -5.7820    1.2080    1.1880 N   0  0  0  0  0  0  0  0  0  0  0  0
  1  2  1  0
  2  3  2  0
  2 25  1  0
  3  4  1  0
  4  5  2  0
  4 24  1  0
  5  6  1  0
  6  7  2  0
  6 22  1  0
  7  8  1  0
  8  9  2  0
  9 10  1  0
  9 21  1  0
 10 11  1  0
 11 12  2  0
 11 13  1  0
 13 14  2  3
 14 15  1  0
 15 16  2  0
 15 20  1  0
 16 17  1  0
 17 18  2  0
 18 19  1  0
 19 20  2  0
 21 22  2  0
 22 23  1  0
 23 24  2  0
 24 25  1  0
M  END
