
     RDKit          3D

 19 21  0  0  0  0  0  0  0  0999 V2000
    5.5960    0.3990   -0.3290 C   0  0  0  0  0  0  0  0  0  0  0  0
    4.1190    0.2360   -0.1880 C   0  0  0  0  0  0  0  0  0  0  0  0
    3.3050    1.1910   -0.7450 C   0  0  0  0  0  0  0  0  0  0  0  0
    1.9400    1.0370   -0.6130 C   0  0  0  0  0  0  0  0  0  0  0  0
    1.3220   -0.0080    0.0400 C   0  0  0  0  0  0  0  0  0  0  0  0
    0.0320   -0.1980    0.1920 O   0  0  0  0  0  0  0  0  0  0  0  0
   -1.2040    0.1730    0.0020 C   0  0  0  0  0  0  0  0  0  0  0  0
   -1.5940    1.3080   -0.6780 C   0  0  0  0  0  0  0  0  0  0  0  0
   -2.9420    1.5660   -0.7970 C   0  0  0  0  0  0  0  0  0  0  0  0
   -3.9270    0.7320   -0.2620 C   0  0  0  0  0  0  0  0  0  0  0  0
   -3.5500   -0.4000    0.4170 C   0  0  0  0  0  0  0  0  0  0  0  0
   -2.2240   -0.6610    0.5390 C   0  0  0  0  0  0  0  0  0  0  0  0
   -1.8700   -1.7960    1.2200 F   0  0  0  0  0  0  0  0  0  0  0  0
   -4.8200   -1.0650    0.8670 C   0  0  0  0  0  0  0  0  0  0  0  0
   -5.7700    0.0620    0.9490 N   0  0  0  0  0  0  0  0  0  0  0  0
   -5.4050    0.7750   -0.2550 C   0  0  0  0  0  0  0  0  0  0  0  0
    2.2160   -0.9670    0.5990 C   0  0  0  0  0  0  0  0  0  0  0  0
    3.5710   -0.8370    0.4820 C   0  0  0  0  0  0  0  0  0  0  0  0
    4.5340   -1.8190    1.0520 C   0  0  0  0  0  0  0  0  0  0  0  0
  1  2  1  0
  2  3  2  0
  2 18  1  0
  3  4  1  0
  4  5  2  0
  5  6  1  0
  5 17  1  0
  6  7  1  0
  7  8  2  0
  7 12  1  0
  8  9  1  0
  9 10  2  0
 10 11  1  0
 10 16  1  0
 11 12  2  0
 11 14  1  0
 12 13  1  0
 14 15  1  0
 15 16  1  0
 17 18  2  0
 18 19  1  0
M  END
