
     RDKit          3D

 19 21  0  0  0  0  0  0  0  0999 V2000
    4.8630    0.8770   -1.7300 C   0  0  0  0  0  0  0  0  0  0  0  0
    4.6010   -0.2220   -0.9250 O   0  0  0  0  0  0  0  0  0  0  0  0
    3.5010   -0.4730   -0.1480 C   0  0  0  0  0  0  0  0  0  0  0  0
    3.4720   -1.6650    0.5850 C   0  0  0  0  0  0  0  0  0  0  0  0
    2.4150   -2.0060    1.3900 C   0  0  0  0  0  0  0  0  0  0  0  0
    1.3260   -1.1660    1.5050 C   0  0  0  0  0  0  0  0  0  0  0  0
    1.3270    0.0020    0.8030 C   0  0  0  0  0  0  0  0  0  0  0  0
    0.2230    0.9170    0.8820 C   0  0  0  0  0  0  0  0  0  0  0  0
   -1.0120    0.8750    0.5900 C   0  0  0  0  0  0  0  0  0  0  0  0
   -1.8230    2.0520    0.8420 N   0  0  0  0  0  0  0  0  0  0  0  0
   -3.0210    2.3240    0.0970 C   0  0  0  0  0  0  0  0  0  0  0  0
   -3.9220    1.1180    0.0140 C   0  0  0  0  0  0  0  0  0  0  0  0
   -3.1730   -0.1110   -0.3100 C   0  0  0  0  0  0  0  0  0  0  0  0
   -3.6290   -1.2000   -0.8940 C   0  0  0  0  0  0  0  0  0  0  0  0
   -4.8730   -1.4850   -1.3480 F   0  0  0  0  0  0  0  0  0  0  0  0
   -2.5070   -2.1600   -0.9670 C   0  0  0  0  0  0  0  0  0  0  0  0
   -1.3210   -1.4070   -0.4280 C   0  0  0  0  0  0  0  0  0  0  0  0
   -1.7240   -0.2290   -0.0090 C   0  0  0  0  0  0  0  0  0  0  0  0
    2.3970    0.3230    0.0020 C   0  0  0  0  0  0  0  0  0  0  0  0
  1  2  1  0
  2  3  1  0
  3  4  2  0
  3 19  1  0
  4  5  1  0
  5  6  2  0
  6  7  1  0
  7  8  1  0
  7 19  2  0
  8  9  2  3
  9 10  1  0
  9 18  1  0
 10 11  1  0
 11 12  1  0
 12 13  1  0
 13 14  2  0
 13 18  1  0
 14 15  1  0
 14 16  1  0
 16 17  1  0
 17 18  2  0
M  END
