
     RDKit          3D

 19 21  0  0  0  0  0  0  0  0999 V2000
   -3.5410    1.8030   -1.3320 C   0  0  0  0  0  0  0  0  0  0  0  0
   -2.8720    0.7510   -0.5230 C   0  0  0  0  0  0  0  0  0  0  0  0
   -1.4990    0.5920   -0.5580 C   0  0  0  0  0  0  0  0  0  0  0  0
   -0.8530   -0.3680    0.1760 C   0  0  0  0  0  0  0  0  0  0  0  0
    0.6000   -0.5770    0.1730 C   0  0  1  0  0  0  0  0  0  0  0  0
    1.0740   -1.2920   -1.0870 C   0  0  0  0  0  0  0  0  0  0  0  0
    2.4550   -1.6390   -0.8630 N   0  0  0  0  0  0  0  0  0  0  0  0
    3.3110   -0.6350   -0.3410 C   0  0  0  0  0  0  0  0  0  0  0  0
    4.6950   -0.8010   -0.4060 C   0  0  0  0  0  0  0  0  0  0  0  0
    5.4980    0.1880    0.1070 C   0  0  0  0  0  0  0  0  0  0  0  0
    4.9430    1.3190    0.6740 C   0  0  0  0  0  0  0  0  0  0  0  0
    3.5620    1.4570    0.7250 C   0  0  0  0  0  0  0  0  0  0  0  0
    2.7340    0.4920    0.2240 C   0  0  0  0  0  0  0  0  0  0  0  0
    1.3350    0.6170    0.2680 O   0  0  0  0  0  0  0  0  0  0  0  0
   -1.6330   -1.1860    0.9660 C   0  0  0  0  0  0  0  0  0  0  0  0
   -3.0220   -1.0440    1.0180 C   0  0  0  0  0  0  0  0  0  0  0  0
   -3.7890   -1.8460    1.7930 F   0  0  0  0  0  0  0  0  0  0  0  0
   -3.6430   -0.0680    0.2670 C   0  0  0  0  0  0  0  0  0  0  0  0
   -5.1230    0.1050    0.3040 C   0  0  0  0  0  0  0  0  0  0  0  0
  1  2  1  0
  2  3  2  0
  2 18  1  0
  3  4  1  0
  5  4  1  6
  4 15  2  0
  5  6  1  0
  5 14  1  0
  6  7  1  0
  7  8  1  0
  8  9  2  0
  8 13  1  0
  9 10  1  0
 10 11  2  0
 11 12  1  0
 12 13  2  0
 13 14  1  0
 15 16  1  0
 16 17  1  0
 16 18  2  0
 18 19  1  0
M  END
