
     RDKit          3D

 19 21  0  0  0  0  0  0  0  0999 V2000
    1.6560   -1.9670   -0.7930 O   0  0  0  0  0  0  0  0  0  0  0  0
    1.6580   -0.8060   -0.3420 C   0  0  0  0  0  0  0  0  0  0  0  0
    0.4290   -0.1800   -0.0320 N   0  0  0  0  0  0  0  0  0  0  0  0
   -0.8680   -0.7400   -0.1790 C   0  0  0  0  0  0  0  0  0  0  0  0
   -1.0890   -2.0110   -0.6610 C   0  0  0  0  0  0  0  0  0  0  0  0
   -2.3950   -2.4970   -0.7790 C   0  0  0  0  0  0  0  0  0  0  0  0
   -3.4640   -1.7320   -0.4230 C   0  0  0  0  0  0  0  0  0  0  0  0
   -3.2620   -0.4590    0.0600 C   0  0  0  0  0  0  0  0  0  0  0  0
   -4.3500    0.3310    0.4260 C   0  0  0  0  0  0  0  0  0  0  0  0
   -4.1870    1.6060    0.9120 C   0  0  0  0  0  0  0  0  0  0  0  0
   -2.9210    2.1210    1.0440 C   0  0  0  0  0  0  0  0  0  0  0  0
   -1.8250    1.3120    0.6700 C   0  0  0  0  0  0  0  0  0  0  0  0
   -1.9720    0.0400    0.1840 C   0  0  0  0  0  0  0  0  0  0  0  0
    2.9600   -0.0980   -0.1380 C   0  0  0  0  0  0  0  0  0  0  0  0
    4.1260   -0.6580   -0.4180 C   0  0  0  0  0  0  0  0  0  0  0  0
    5.2120    0.2910   -0.1090 C   0  0  0  0  0  0  0  0  0  0  0  0
    4.5240    1.4920    0.3950 C   0  0  0  0  0  0  0  0  0  0  0  0
    3.2160    1.2210    0.3600 C   0  0  0  0  0  0  0  0  0  0  0  0
    2.2910    2.1160    0.7580 F   0  0  0  0  0  0  0  0  0  0  0  0
  1  2  2  0
  2  3  1  0
  2 14  1  0
  3  4  1  0
  4  5  2  0
  4 13  1  0
  5  6  1  0
  6  7  2  0
  7  8  1  0
  8  9  2  0
  8 13  1  0
  9 10  1  0
 10 11  2  0
 11 12  1  0
 12 13  2  0
 14 15  2  0
 14 18  1  0
 15 16  1  0
 16 17  1  0
 17 18  2  0
 18 19  1  0
M  END
