
     RDKit          3D

 19 21  0  0  0  0  0  0  0  0999 V2000
   -3.8540   -1.3790    0.3800 C   0  0  0  0  0  0  0  0  0  0  0  0
   -2.8910   -0.2820    0.0780 C   0  0  0  0  0  0  0  0  0  0  0  0
   -3.4260    0.9410   -0.2540 C   0  0  0  0  0  0  0  0  0  0  0  0
   -4.8500    1.1380   -0.3040 N   0  0  0  0  0  0  0  0  0  0  0  0
   -2.5550    1.9630   -0.5350 C   0  0  0  0  0  0  0  0  0  0  0  0
   -1.1680    1.7780   -0.4880 C   0  0  0  0  0  0  0  0  0  0  0  0
   -0.6340    0.5560   -0.1560 C   0  0  0  0  0  0  0  0  0  0  0  0
   -1.5270   -0.4720    0.1270 C   0  0  0  0  0  0  0  0  0  0  0  0
   -1.0600   -1.8370    0.4930 C   0  0  0  0  0  0  0  0  0  0  0  0
    0.3860   -2.0260    0.5670 C   0  0  0  0  0  0  0  0  0  0  0  0
    1.2680   -0.9030    0.2470 C   0  0  0  0  0  0  0  0  0  0  0  0
    2.6570   -1.0690    0.2870 C   0  0  0  0  0  0  0  0  0  0  0  0
    3.5270   -0.0490    0.0000 C   0  0  0  0  0  0  0  0  0  0  0  0
    4.8840   -0.3280    0.0710 O   0  0  0  0  0  0  0  0  0  0  0  0
    5.7960    0.7070   -0.2200 C   0  0  0  0  0  0  0  0  0  0  0  0
    5.6630    1.2070   -1.4930 F   0  0  0  0  0  0  0  0  0  0  0  0
    3.0180    1.1840   -0.3390 C   0  0  0  0  0  0  0  0  0  0  0  0
    1.6330    1.3950   -0.3920 C   0  0  0  0  0  0  0  0  0  0  0  0
    0.8050    0.3370   -0.0950 C   0  0  0  0  0  0  0  0  0  0  0  0
  1  2  1  0
  2  3  2  0
  2  8  1  0
  3  4  1  0
  3  5  1  0
  5  6  2  0
  6  7  1  0
  7  8  2  0
  7 19  1  0
  8  9  1  0
  9 10  1  0
 10 11  1  0
 11 12  2  0
 11 19  1  0
 12 13  1  0
 13 14  1  0
 13 17  2  0
 14 15  1  0
 15 16  1  0
 17 18  1  0
 18 19  2  0
M  END
