
     RDKit          3D

 15 16  0  0  0  0  0  0  0  0999 V2000
   -0.3060   -1.8060   -0.2250 O   0  0  0  0  0  0  0  0  0  0  0  0
    0.1050   -0.5980   -0.1810 C   0  0  0  0  0  0  0  0  0  0  0  0
   -0.8870    0.3930   -0.2210 N   0  0  0  0  0  0  0  0  0  0  0  0
   -2.3030    0.0390   -0.3080 C   0  0  0  0  0  0  0  0  0  0  0  0
   -3.2100    0.3560    0.5660 C   0  0  0  0  0  0  0  0  0  0  0  0
   -4.6070   -0.0430    0.3920 C   0  0  0  0  0  0  0  0  0  0  0  0
   -4.6670   -1.5440   -0.6360 S   0  0  0  0  0  0  0  0  0  0  0  0
   -2.8780   -0.9250   -1.7040 S   0  0  0  0  0  0  0  0  0  0  0  0
    1.5330   -0.3300   -0.0950 C   0  0  0  0  0  0  0  0  0  0  0  0
    2.0380    0.9290   -0.0450 C   0  0  0  0  0  0  0  0  0  0  0  0
    3.4210    1.1300    0.0380 C   0  0  0  0  0  0  0  0  0  0  0  0
    4.2560    0.0360    0.0670 C   0  0  0  0  0  0  0  0  0  0  0  0
    5.5220    0.1900    0.1420 O   0  0  0  0  0  0  0  0  0  0  0  0
    3.7040   -1.1840    0.0150 N   0  0  0  0  0  0  0  0  0  0  0  0
    2.4030   -1.3550   -0.0620 N   0  0  0  0  0  0  0  0  0  0  0  0
  1  2  2  0
  2  3  1  0
  2  9  1  0
  3  4  1  0
  4  5  2  0
  4  8  1  0
  5  6  1  0
  6  7  1  0
  7  8  1  0
  9 10  1  0
  9 15  2  0
 10 11  2  0
 11 12  1  0
 12 13  2  0
 12 14  1  0
 14 15  1  0
M  END
