
     RDKit          3D

 18 17  0  0  0  0  0  0  0  0999 V2000
   -7.5310   -0.8460   -0.3920 C   0  0  0  0  0  0  0  0  0  0  0  0
   -6.6520   -1.9240   -0.9480 C   0  0  0  0  0  0  0  0  0  0  0  0
   -5.2390   -1.6310   -0.6030 C   0  0  0  0  0  0  0  0  0  0  0  0
   -4.9250   -0.5640    0.0870 C   0  0  0  0  0  0  0  0  0  0  0  0
   -3.4800   -0.2720    0.4350 C   0  0  0  0  0  0  0  0  0  0  0  0
   -3.1430    1.0450   -0.1730 C   0  0  0  0  0  0  0  0  0  0  0  0
   -1.6890    1.3830    0.1610 C   0  0  0  0  0  0  0  0  0  0  0  0
   -0.7640    0.3560   -0.3810 C   0  0  0  0  0  0  0  0  0  0  0  0
    0.6910    0.7210   -0.0620 C   0  0  0  0  0  0  0  0  0  0  0  0
    0.9800    0.8020    1.3770 C   0  0  0  0  0  0  0  0  0  0  0  0
    2.3290    1.2360    1.7520 C   0  0  0  0  0  0  0  0  0  0  0  0
    3.5150    0.4900    1.3500 C   0  0  0  0  0  0  0  0  0  0  0  0
    3.9370    0.3520   -0.0460 C   0  0  0  0  0  0  0  0  0  0  0  0
    5.2420   -0.4740   -0.0250 C   0  0  0  0  0  0  0  0  0  0  0  0
    5.7540   -0.6680   -1.4290 C   0  0  0  0  0  0  0  0  0  0  0  0
    7.0020   -1.4610   -1.3640 C   0  0  0  0  0  0  0  0  0  0  0  0
    7.6310   -1.7630   -2.4080 O   0  0  0  0  0  0  0  0  0  0  0  0
    7.5060   -1.8910   -0.1490 O   0  0  0  0  0  0  0  0  0  0  0  0
  1  2  1  0
  2  3  1  0
  3  4  2  3
  4  5  1  0
  5  6  1  0
  6  7  1  0
  7  8  1  0
  8  9  1  0
  9 10  1  0
 10 11  1  0
 11 12  1  0
 12 13  1  0
 13 14  1  0
 14 15  1  0
 15 16  1  0
 16 17  2  0
 16 18  1  0
M  END
