
     RDKit          3D

 16 17  0  0  0  0  0  0  0  0999 V2000
   -3.1790    1.3660   -0.1300 N   0  0  0  0  0  0  0  0  0  0  0  0
   -1.9610    0.6520   -0.2570 C   0  0  0  0  0  0  0  0  0  0  0  0
   -1.0710    1.1490   -0.9730 O   0  0  0  0  0  0  0  0  0  0  0  0
   -1.6980   -0.6400    0.4140 C   0  0  0  0  0  0  0  0  0  0  0  0
   -2.6890   -1.4840    0.7730 N   0  0  0  0  0  0  0  0  0  0  0  0
   -2.6520   -2.4930    1.2250 N   0  0  0  0  0  0  0  0  0  0  0  0
   -0.8020   -2.7370    1.3690 S   0  0  0  0  0  0  0  0  0  0  0  0
   -0.4590   -1.1400    0.6680 C   0  0  0  0  0  0  0  0  0  0  0  0
    0.9030   -0.6290    0.4120 C   0  0  0  0  0  0  0  0  0  0  0  0
    1.2730    0.6460    0.6770 C   0  0  0  0  0  0  0  0  0  0  0  0
    0.1890    1.6280    1.7050 Cl  0  0  0  0  0  0  0  0  0  0  0  0
    2.4580    1.2660    0.3620 C   0  0  0  0  0  0  0  0  0  0  0  0
    3.5230    0.7000   -0.2930 C   0  0  0  0  0  0  0  0  0  0  0  0
    3.2850   -0.9300   -0.7270 S   0  0  0  0  0  0  0  0  0  0  0  0
    1.7660   -1.5230   -0.2600 C   0  0  0  0  0  0  0  0  0  0  0  0
    1.3650   -2.6910   -0.4700 O   0  0  0  0  0  0  0  0  0  0  0  0
  1  2  1  0
  2  3  2  0
  2  4  1  0
  4  5  1  0
  4  8  2  0
  5  6  2  0
  6  7  1  0
  7  8  1  0
  8  9  1  0
  9 10  2  0
  9 15  1  0
 10 11  1  0
 10 12  1  0
 12 13  2  0
 13 14  1  0
 14 15  1  0
 15 16  2  0
M  END
