
     RDKit          3D

 16 17  0  0  0  0  0  0  0  0999 V2000
    5.5520    1.5410    0.4980 O   0  0  0  0  0  0  0  0  0  0  0  0
    4.0010    2.2320    0.4610 S   0  0  0  0  0  0  0  0  0  0  0  0
    2.7590    0.9890    0.3160 C   0  0  0  0  0  0  0  0  0  0  0  0
    1.4140    1.1750    0.2580 N   0  0  0  0  0  0  0  0  0  0  0  0
    0.8270   -0.0270    0.1500 C   0  0  0  0  0  0  0  0  0  0  0  0
   -0.6070   -0.2310    0.0620 C   0  0  0  0  0  0  0  0  0  0  0  0
   -1.1340   -1.5070   -0.0470 C   0  0  0  0  0  0  0  0  0  0  0  0
   -2.4740   -1.7490   -0.1330 C   0  0  0  0  0  0  0  0  0  0  0  0
   -2.9320   -3.0470   -0.2400 O   0  0  0  0  0  0  0  0  0  0  0  0
   -3.3580   -0.6990   -0.1110 C   0  0  0  0  0  0  0  0  0  0  0  0
   -2.8410    0.5950   -0.0010 C   0  0  0  0  0  0  0  0  0  0  0  0
   -1.4880    0.8260    0.0840 C   0  0  0  0  0  0  0  0  0  0  0  0
   -0.9220    2.5110    0.2220 S   0  0  0  0  0  0  0  0  0  0  0  0
   -2.5600    3.8220    0.2210 Cl  0  0  0  0  0  0  0  0  0  0  0  0
    1.8070   -0.9440    0.1420 N   0  0  0  0  0  0  0  0  0  0  0  0
    2.9850   -0.3300    0.2430 N   0  0  0  0  0  0  0  0  0  0  0  0
  1  2  1  0
  2  3  1  0
  3  4  2  0
  3 16  1  0
  4  5  1  0
  5  6  1  0
  5 15  2  0
  6  7  2  0
  6 12  1  0
  7  8  1  0
  8  9  1  0
  8 10  2  0
 10 11  1  0
 11 12  2  0
 12 13  1  0
 13 14  1  0
 15 16  1  0
M  END
