
     RDKit          3D

 16 17  0  0  0  0  0  0  0  0999 V2000
   -0.1220   -2.7060    0.2320 O   0  0  0  0  0  0  0  0  0  0  0  0
    0.0510   -1.4350   -0.5850 S   0  0  1  0  0  0  0  0  0  0  0  0
    0.2660   -1.8830   -2.0040 O   0  0  0  0  0  0  0  0  0  0  0  0
   -1.4520   -0.5770   -0.5220 C   0  0  0  0  0  0  0  0  0  0  0  0
   -1.9270    0.1520   -1.5190 C   0  0  0  0  0  0  0  0  0  0  0  0
   -3.1760    0.8460   -1.4240 N   0  0  0  0  0  0  0  0  0  0  0  0
   -3.9420    0.7730   -0.2560 N   0  0  0  0  0  0  0  0  0  0  0  0
   -3.4220   -0.0140    0.8090 C   0  0  0  0  0  0  0  0  0  0  0  0
   -4.3960   -0.1000    2.2790 Cl  0  0  0  0  0  0  0  0  0  0  0  0
   -2.2720   -0.6390    0.6920 C   0  0  0  0  0  0  0  0  0  0  0  0
    1.3960   -0.5740   -0.0640 N   0  0  0  0  0  0  0  0  0  0  0  0
    1.3940   -0.1360    1.2820 C   0  0  0  0  0  0  0  0  0  0  0  0
    2.7700   -0.4170    1.8930 C   0  0  0  0  0  0  0  0  0  0  0  0
    3.9950    0.1600    0.6770 S   0  0  0  0  0  0  0  0  0  0  0  0
    3.0810    1.1280   -0.5770 C   0  0  0  0  0  0  0  0  0  0  0  0
    1.8580    0.3960   -1.0170 C   0  0  0  0  0  0  0  0  0  0  0  0
  1  2  2  0
  2  3  2  0
  2  4  1  0
  2 11  1  1
  4  5  2  0
  4 10  1  0
  5  6  1  0
  6  7  1  0
  7  8  1  0
  8  9  1  0
  8 10  2  0
 11 12  1  0
 11 16  1  0
 12 13  1  0
 13 14  1  0
 14 15  1  0
 15 16  1  0
M  END
