
     RDKit          3D

 15 16  0  0  0  0  0  0  0  0999 V2000
   -0.3200   -2.6230    2.5970 O   0  0  0  0  0  0  0  0  0  0  0  0
   -0.3720   -1.5780    1.8950 C   0  0  0  0  0  0  0  0  0  0  0  0
    0.6560   -0.7160    1.8320 N   0  0  0  0  0  0  0  0  0  0  0  0
    0.6000    0.3880    1.0890 C   0  0  0  0  0  0  0  0  0  0  0  0
    1.9890    1.4910    1.0460 S   0  0  0  0  0  0  0  0  0  0  0  0
    3.0780    0.9450   -0.3110 C   0  0  0  0  0  0  0  0  0  0  0  0
    4.2530    1.8810   -0.3470 C   0  0  0  0  0  0  0  0  0  0  0  0
    5.1040    1.4890   -1.3740 O   0  0  0  0  0  0  0  0  0  0  0  0
   -0.5050    0.6480    0.3870 N   0  0  0  0  0  0  0  0  0  0  0  0
   -1.5340   -0.2010    0.4410 C   0  0  0  0  0  0  0  0  0  0  0  0
   -2.7980    0.0890   -0.3560 C   0  0  0  0  0  0  0  0  0  0  0  0
   -3.8830   -0.5470   -0.4690 C   0  0  0  0  0  0  0  0  0  0  0  0
   -4.5510    0.3390   -1.3630 C   0  0  0  0  0  0  0  0  0  0  0  0
   -3.2100    1.4200   -1.4110 S   0  0  0  0  0  0  0  0  0  0  0  0
   -1.4700   -1.2840    1.1740 N   0  0  0  0  0  0  0  0  0  0  0  0
  1  2  2  0
  2  3  1  0
  2 15  1  0
  3  4  2  0
  4  5  1  0
  4  9  1  0
  5  6  1  0
  6  7  1  0
  7  8  1  0
  9 10  2  0
 10 11  1  0
 10 15  1  0
 11 12  2  0
 11 14  1  0
 12 13  1  0
 13 14  1  0
M  END
