
     RDKit          3D

 16 17  0  0  0  0  0  0  0  0999 V2000
   -0.3990   -3.4770   -0.3340 O   0  0  0  0  0  0  0  0  0  0  0  0
    0.0780   -2.0840   -0.5710 S   0  0  2  0  0  0  0  0  0  0  0  0
    0.7070   -1.9420   -1.9440 O   0  0  0  0  0  0  0  0  0  0  0  0
    1.3230   -1.7250    0.5720 N   0  0  0  0  0  0  0  0  0  0  0  0
    2.0340   -0.4840    0.5690 C   0  0  0  0  0  0  0  0  0  0  0  0
    1.7580    0.7070    1.2220 C   0  0  0  0  0  0  0  0  0  0  0  0
    2.6140    1.7220    1.0320 C   0  0  0  0  0  0  0  0  0  0  0  0
    3.6810    1.5490    0.2350 C   0  0  0  0  0  0  0  0  0  0  0  0
    3.5070   -0.1010   -0.2900 S   0  0  0  0  0  0  0  0  0  0  0  0
   -1.2170   -0.9190   -0.3730 C   0  0  0  0  0  0  0  0  0  0  0  0
   -1.1810    0.1950   -1.0690 C   0  0  0  0  0  0  0  0  0  0  0  0
   -2.2370    1.2090   -0.9460 C   0  0  0  0  0  0  0  0  0  0  0  0
   -3.2780    0.8610   -0.0130 N   0  0  0  0  0  0  0  0  0  0  0  0
   -3.2240   -0.3400    0.6740 N   0  0  0  0  0  0  0  0  0  0  0  0
   -2.3020   -1.2210    0.5630 C   0  0  0  0  0  0  0  0  0  0  0  0
   -2.2910   -2.7240    1.4610 Cl  0  0  0  0  0  0  0  0  0  0  0  0
  1  2  2  0
  2  3  2  0
  2  4  1  1
  2 10  1  0
  4  5  1  0
  5  6  2  0
  5  9  1  0
  6  7  1  0
  7  8  2  0
  8  9  1  0
 10 11  2  0
 10 15  1  0
 11 12  1  0
 12 13  1  0
 13 14  1  0
 14 15  2  0
 15 16  1  0
M  END
