
     RDKit          3D

 16 17  0  0  0  0  0  0  0  0999 V2000
    3.9210   -0.6760   -1.4160 O   0  0  0  0  0  0  0  0  0  0  0  0
    3.5180   -0.6490    0.0440 S   0  0  1  0  0  0  0  0  0  0  0  0
    3.9210    0.6840    0.6300 O   0  0  0  0  0  0  0  0  0  0  0  0
    1.8360   -0.8640    0.2510 N   0  0  0  0  0  0  0  0  0  0  0  0
    0.9550    0.0210   -0.0730 C   0  0  0  0  0  0  0  0  0  0  0  0
    1.2430    1.2080   -0.6070 N   0  0  0  0  0  0  0  0  0  0  0  0
    0.3000    2.1150   -0.9360 C   0  0  0  0  0  0  0  0  0  0  0  0
    0.7360    3.5660   -1.5930 S   0  0  0  0  0  0  0  0  0  0  0  0
   -0.9930    1.8100   -0.7160 N   0  0  0  0  0  0  0  0  0  0  0  0
   -1.3490    0.6270   -0.1800 C   0  0  0  0  0  0  0  0  0  0  0  0
   -2.6680    0.2900    0.0550 C   0  0  0  0  0  0  0  0  0  0  0  0
   -3.0140   -0.9370    0.6090 C   0  0  0  0  0  0  0  0  0  0  0  0
   -2.0500   -1.8640    0.9460 C   0  0  0  0  0  0  0  0  0  0  0  0
   -2.4740   -3.4240    1.6490 Cl  0  0  0  0  0  0  0  0  0  0  0  0
   -0.7350   -1.5200    0.7080 C   0  0  0  0  0  0  0  0  0  0  0  0
   -0.3780   -0.2990    0.1560 C   0  0  0  0  0  0  0  0  0  0  0  0
  1  2  2  0
  2  3  2  0
  2  4  1  6
  4  5  2  3
  5  6  1  0
  5 16  1  0
  6  7  1  0
  7  8  2  0
  7  9  1  0
  9 10  1  0
 10 11  2  0
 10 16  1  0
 11 12  1  0
 12 13  2  0
 13 14  1  0
 13 15  1  0
 15 16  2  0
M  END
