
     RDKit          3D

 15 16  0  0  0  0  0  0  0  0999 V2000
    4.4800    0.8950   -0.0630 C   0  0  0  0  0  0  0  0  0  0  0  0
    4.2510   -0.5400   -0.4850 C   0  0  0  0  0  0  0  0  0  0  0  0
    2.7280   -0.7180   -1.4250 S   0  0  0  0  0  0  0  0  0  0  0  0
    1.3490   -0.3670   -0.3420 C   0  0  0  0  0  0  0  0  0  0  0  0
    0.0290   -0.3900   -0.6650 N   0  0  0  0  0  0  0  0  0  0  0  0
   -0.7070   -0.0730    0.3980 C   0  0  0  0  0  0  0  0  0  0  0  0
   -2.2080    0.0260    0.5050 C   0  0  0  0  0  0  0  0  0  0  0  0
   -3.0680    0.4500    1.9500 S   0  0  0  0  0  0  0  0  0  0  0  0
   -4.7120    0.3310    1.2100 C   0  0  0  0  0  0  0  0  0  0  0  0
   -4.4470   -0.0220   -0.0740 C   0  0  0  0  0  0  0  0  0  0  0  0
   -5.5650   -0.1990   -0.9400 O   0  0  0  0  0  0  0  0  0  0  0  0
   -3.1400   -0.1700   -0.4010 C   0  0  0  0  0  0  0  0  0  0  0  0
   -2.7950   -0.5400   -1.7330 O   0  0  0  0  0  0  0  0  0  0  0  0
    0.1490    0.1520    1.3990 N   0  0  0  0  0  0  0  0  0  0  0  0
    1.4040   -0.0260    0.9540 N   0  0  0  0  0  0  0  0  0  0  0  0
  1  2  1  0
  2  3  1  0
  3  4  1  0
  4  5  2  0
  4 15  1  0
  5  6  1  0
  6  7  1  0
  6 14  2  0
  7  8  1  0
  7 12  2  0
  8  9  1  0
  9 10  2  0
 10 11  1  0
 10 12  1  0
 12 13  1  0
 14 15  1  0
M  END
