
     RDKit          3D

 36 37  0  0  0  0  0  0  0  0999 V2000
    4.9110    1.6640   -2.7670 C   0  0  0  0  0  0  0  0  0  0  0  0
    5.4700    1.5130   -1.3960 C   0  0  1  0  0  0  0  0  0  0  0  0
    4.6740    2.0630   -0.2570 C   0  0  0  0  0  0  0  0  0  0  0  0
    3.5570    1.2690    0.1710 N   0  0  0  0  0  0  0  0  0  0  0  0
    2.4090    0.9230   -0.5620 C   0  0  0  0  0  0  0  0  0  0  0  0
    2.2410    1.3040   -1.7270 O   0  0  0  0  0  0  0  0  0  0  0  0
    1.3290    0.0690    0.0440 C   0  0  1  0  0  0  0  0  0  0  0  0
    1.2700   -1.1760   -0.8490 C   0  0  0  0  0  0  0  0  0  0  0  0
    1.5990   -0.2780    1.3570 O   0  0  0  0  0  0  0  0  0  0  0  0
    0.8990    0.5090    2.2500 C   0  0  0  0  0  0  0  0  0  0  0  0
   -0.5870    0.0880    2.2000 C   0  0  0  0  0  0  0  0  0  0  0  0
   -1.0350    0.3230    0.8490 N   0  0  0  0  0  0  0  0  0  0  0  0
   -2.3400    0.1940    0.3710 C   0  0  0  0  0  0  0  0  0  0  0  0
   -2.5200    0.5300   -0.8660 O   0  0  0  0  0  0  0  0  0  0  0  0
   -3.4880   -0.2420    1.0250 N   0  0  0  0  0  0  0  0  0  0  0  0
   -3.5730   -0.8950    2.2840 C   0  0  0  0  0  0  0  0  0  0  0  0
   -3.5050   -2.4140    2.2390 C   0  0  0  0  0  0  0  0  0  0  0  0
   -2.3160   -2.7860    1.6590 O   0  0  0  0  0  0  0  0  0  0  0  0
   -4.7330   -0.0090    0.3100 C   0  0  0  0  0  0  0  0  0  0  0  0
   -5.5810   -0.9730   -0.1330 C   0  0  0  0  0  0  0  0  0  0  0  0
   -6.7530   -0.6540   -0.8410 C   0  0  0  0  0  0  0  0  0  0  0  0
   -7.0890    0.6330   -1.1150 C   0  0  0  0  0  0  0  0  0  0  0  0
   -8.2830    1.0550   -1.8600 C   0  0  0  0  0  0  0  0  0  0  0  0
   -9.7530    1.4230   -0.8440 P   0  0  0  0  0  0  0  0  0  0  0  0
   -9.9800    0.3510    0.4680 O   0  0  0  0  0  0  0  0  0  0  0  0
  -11.1540    1.3500   -1.8980 O   0  0  0  0  0  0  0  0  0  0  0  0
   -6.2300    1.6160   -0.6660 C   0  0  0  0  0  0  0  0  0  0  0  0
   -5.0790    1.3250    0.0290 C   0  0  0  0  0  0  0  0  0  0  0  0
    0.0110    0.7300   -0.0740 C   0  0  0  0  0  0  0  0  0  0  0  0
   -0.2230    1.6160   -0.9360 O   0  0  0  0  0  0  0  0  0  0  0  0
    5.9180    0.2410   -1.0660 O   0  0  0  0  0  0  0  0  0  0  0  0
    7.2910    0.1700   -0.9110 C   0  0  0  0  0  0  0  0  0  0  0  0
    7.6300   -1.2630   -0.5400 C   0  0  2  0  0  0  0  0  0  0  0  0
    7.1930   -2.2370   -1.6120 C   0  0  0  0  0  0  0  0  0  0  0  0
    6.7860   -1.6110    0.6960 C   0  0  0  0  0  0  0  0  0  0  0  0
    7.1700   -0.6910    1.6730 O   0  0  0  0  0  0  0  0  0  0  0  0
  2  1  1  6
  2  3  1  0
  2 31  1  0
  3  4  1  0
  4  5  1  0
  5  6  2  0
  5  7  1  0
  7  8  1  6
  7  9  1  0
  7 29  1  0
  9 10  1  0
 10 11  1  0
 11 12  1  0
 12 13  1  0
 12 29  1  0
 13 14  2  0
 13 15  1  0
 15 16  1  0
 15 19  1  0
 16 17  1  0
 17 18  1  0
 19 20  2  0
 19 28  1  0
 20 21  1  0
 21 22  2  0
 22 23  1  0
 22 27  1  0
 23 24  1  0
 24 25  1  0
 24 26  1  0
 27 28  2  0
 29 30  2  0
 31 32  1  0
 32 33  1  0
 33 34  1  6
 33 35  1  0
 35 36  1  0
M  END
