
     RDKit          3D

 37 38  0  0  0  0  0  0  0  0999 V2000
   -5.8610   -1.1610   -0.3680 C   0  0  0  0  0  0  0  0  0  0  0  0
   -4.9690   -1.0460    0.6910 O   0  0  0  0  0  0  0  0  0  0  0  0
   -3.7780   -1.6800    0.4280 C   0  0  2  0  0  0  0  0  0  0  0  0
   -3.5490   -2.8620    1.3580 C   0  0  0  0  0  0  0  0  0  0  0  0
   -2.3390   -3.5340    1.0910 O   0  0  0  0  0  0  0  0  0  0  0  0
   -2.0170   -4.1480   -0.0860 C   0  0  0  0  0  0  0  0  0  0  0  0
   -2.8400   -4.1400   -1.0330 O   0  0  0  0  0  0  0  0  0  0  0  0
   -0.6920   -4.8390   -0.2830 C   0  0  0  0  0  0  0  0  0  0  0  0
    0.0830   -4.8270    0.8410 O   0  0  0  0  0  0  0  0  0  0  0  0
    1.2290   -5.4600    0.6070 O   0  0  0  0  0  0  0  0  0  0  0  0
   -2.5960   -0.7700    0.4070 C   0  0  0  0  0  0  0  0  0  0  0  0
   -2.5460    0.5040    0.6960 C   0  0  0  0  0  0  0  0  0  0  0  0
   -3.6210    1.4030    1.1170 C   0  0  0  0  0  0  0  0  0  0  0  0
   -3.4040    2.6570    1.3770 C   0  0  0  0  0  0  0  0  0  0  0  0
   -4.3330    3.7010    1.8000 C   0  0  0  0  0  0  0  0  0  0  0  0
   -5.7780    3.3470    1.8640 C   0  0  0  0  0  0  0  0  0  0  0  0
   -6.3090    3.0690    0.4970 C   0  0  0  0  0  0  0  0  0  0  0  0
   -6.1120    4.5910   -0.5860 P   0  0  0  0  0  0  0  0  0  0  0  0
   -4.6170    4.4530   -1.4810 O   0  0  0  0  0  0  0  0  0  0  0  0
   -6.0550    6.0230    0.3950 O   0  0  0  0  0  0  0  0  0  0  0  0
   -1.1920    0.9600    0.5290 N   0  0  0  0  0  0  0  0  0  0  0  0
   -0.4130   -0.1540    0.1120 C   0  0  0  0  0  0  0  0  0  0  0  0
    0.9020   -0.1350   -0.1510 C   0  0  0  0  0  0  0  0  0  0  0  0
    1.6310    1.1100   -0.0140 C   0  0  0  0  0  0  0  0  0  0  0  0
    2.8620    1.1990   -0.2530 N   0  0  0  0  0  0  0  0  0  0  0  0
    3.7160    0.1810   -0.6660 C   0  0  0  0  0  0  0  0  0  0  0  0
    5.0550    0.3080   -0.5230 C   0  0  0  0  0  0  0  0  0  0  0  0
    5.5590    1.5290    0.0750 C   0  0  0  0  0  0  0  0  0  0  0  0
    4.8600    2.1210    0.9430 O   0  0  0  0  0  0  0  0  0  0  0  0
    6.8220    2.0140   -0.3380 N   0  0  0  0  0  0  0  0  0  0  0  0
    7.7410    1.1080   -0.9930 C   0  0  0  0  0  0  0  0  0  0  0  0
    7.0410    0.0660   -1.8330 C   0  0  0  0  0  0  0  0  0  0  0  0
    6.0380   -0.7000   -0.9500 C   0  0  2  0  0  0  0  0  0  0  0  0
    5.4490   -1.8500   -1.7290 C   0  0  0  0  0  0  0  0  0  0  0  0
    6.6610   -1.1730    0.2140 O   0  0  0  0  0  0  0  0  0  0  0  0
    7.6370   -2.1230   -0.0660 C   0  0  0  0  0  0  0  0  0  0  0  0
   -1.2960   -1.2060    0.0450 O   0  0  0  0  0  0  0  0  0  0  0  0
  1  2  1  0
  2  3  1  0
  3  4  1  1
  3 11  1  0
  4  5  1  0
  5  6  1  0
  6  7  2  0
  6  8  1  0
  8  9  1  0
  9 10  1  0
 11 12  2  0
 11 37  1  0
 12 13  1  0
 12 21  1  0
 13 14  2  3
 14 15  1  0
 15 16  1  0
 16 17  1  0
 17 18  1  0
 18 19  1  0
 18 20  1  0
 21 22  1  0
 22 23  2  3
 22 37  1  0
 23 24  1  0
 24 25  2  3
 25 26  1  0
 26 27  2  3
 27 28  1  0
 27 33  1  0
 28 29  2  0
 28 30  1  0
 30 31  1  0
 31 32  1  0
 32 33  1  0
 33 34  1  6
 33 35  1  0
 35 36  1  0
M  END
