
     RDKit          3D

 36 38  0  0  0  0  0  0  0  0999 V2000
   -3.7170   -2.4680   -1.8170 C   0  0  0  0  0  0  0  0  0  0  0  0
   -3.7350   -2.1600   -0.3740 O   0  0  0  0  0  0  0  0  0  0  0  0
   -2.8400   -3.0200    0.3010 C   0  0  0  0  0  0  0  0  0  0  0  0
   -1.4020   -2.6130    0.2860 C   0  0  0  0  0  0  0  0  0  0  0  0
   -0.4840   -1.9770    0.0800 C   0  0  0  0  0  0  0  0  0  0  0  0
    0.0920   -0.8380   -0.4650 N   0  0  0  0  0  0  0  0  0  0  0  0
    0.0760    0.1230   -1.1790 C   0  0  0  0  0  0  0  0  0  0  0  0
   -1.0810    0.3460   -1.9240 O   0  0  0  0  0  0  0  0  0  0  0  0
   -2.3300    0.6500   -1.3650 C   0  0  0  0  0  0  0  0  0  0  0  0
   -3.3730    0.8240   -2.2410 C   0  0  0  0  0  0  0  0  0  0  0  0
   -4.6380    1.1350   -1.7370 C   0  0  0  0  0  0  0  0  0  0  0  0
   -4.8890    1.2790   -0.3900 C   0  0  0  0  0  0  0  0  0  0  0  0
   -3.8140    1.0990    0.4940 C   0  0  0  0  0  0  0  0  0  0  0  0
   -4.0980    1.2480    1.8440 O   0  0  0  0  0  0  0  0  0  0  0  0
   -3.9210    2.8970    2.4720 P   0  0  0  0  0  0  0  0  0  0  0  0
   -2.8280    3.7930    1.4970 O   0  0  0  0  0  0  0  0  0  0  0  0
   -5.4940    3.6590    2.5790 O   0  0  0  0  0  0  0  0  0  0  0  0
   -2.5980    0.7950   -0.0370 C   0  0  0  0  0  0  0  0  0  0  0  0
    1.2150    1.0870   -1.3210 C   0  0  1  0  0  0  0  0  0  0  0  0
    2.3480    0.8020   -0.4910 N   0  0  0  0  0  0  0  0  0  0  0  0
    2.5720    0.2680    0.7880 C   0  0  0  0  0  0  0  0  0  0  0  0
    1.6270   -0.1150    1.5690 O   0  0  0  0  0  0  0  0  0  0  0  0
    3.8190    0.0950    1.3360 O   0  0  0  0  0  0  0  0  0  0  0  0
    4.1700   -0.4200    2.5710 C   0  0  2  0  0  0  0  0  0  0  0  0
    3.6300    0.2800    3.7720 C   0  0  0  0  0  0  0  0  0  0  0  0
    5.7100   -0.2570    2.6270 C   0  0  0  0  0  0  0  0  0  0  0  0
    3.9440   -1.9250    2.7030 C   0  0  0  0  0  0  0  0  0  0  0  0
    3.4820    1.2630   -1.3320 C   0  0  1  0  0  0  0  0  0  0  0  0
    3.1060    0.4890   -2.5840 C   0  0  0  0  0  0  0  0  0  0  0  0
    1.7420    1.2030   -2.7130 C   0  0  1  0  0  0  0  0  0  0  0  0
    0.9400    0.7410   -3.8250 C   0  0  0  0  0  0  0  0  0  0  0  0
    2.2860    2.5660   -2.8600 N   0  0  0  0  0  0  0  0  0  0  0  0
    3.2230    2.6530   -1.8060 C   0  0  0  0  0  0  0  0  0  0  0  0
    3.7280    3.7440   -1.3690 O   0  0  0  0  0  0  0  0  0  0  0  0
   -3.3560   -4.0620    0.8380 C   0  0  0  0  0  0  0  0  0  0  0  0
   -4.7630   -4.2760    0.7070 O   0  0  0  0  0  0  0  0  0  0  0  0
  1  2  1  0
  2  3  1  0
  3  4  1  0
  3 35  2  3
  4  5  2  3
  5  6  1  0
  6  7  2  3
  7  8  1  0
 19  7  1  6
  8  9  1  0
  9 10  2  0
  9 18  1  0
 10 11  1  0
 11 12  2  0
 12 13  1  0
 13 14  1  0
 13 18  2  0
 14 15  1  0
 15 16  1  0
 15 17  1  0
 19 20  1  0
 19 30  1  0
 20 21  1  0
 28 20  1  1
 21 22  2  0
 21 23  1  0
 23 24  1  0
 24 25  1  1
 24 26  1  0
 24 27  1  0
 28 29  1  0
 28 33  1  0
 29 30  1  0
 30 31  1  6
 30 32  1  0
 32 33  1  0
 33 34  2  0
 35 36  1  0
M  END
