
     RDKit          3D

 37 40  0  0  0  0  0  0  0  0999 V2000
   -2.6770    2.0630   -1.7120 C   0  0  0  0  0  0  0  0  0  0  0  0
   -1.2690    1.4100   -1.6360 C   0  0  2  0  0  0  0  0  0  0  0  0
   -1.4070    0.1590   -2.4420 C   0  0  0  0  0  0  0  0  0  0  0  0
   -1.9740   -0.9380   -1.6440 C   0  0  0  0  0  0  0  0  0  0  0  0
   -2.8020   -1.9250   -1.9200 O   0  0  0  0  0  0  0  0  0  0  0  0
   -3.0370   -2.6830   -0.8850 C   0  0  0  0  0  0  0  0  0  0  0  0
   -3.9300   -3.8860   -0.8600 C   0  0  1  0  0  0  0  0  0  0  0  0
   -3.6770   -4.6550   -1.9740 O   0  0  0  0  0  0  0  0  0  0  0  0
   -2.8730   -5.7130   -1.5660 C   0  0  0  0  0  0  0  0  0  0  0  0
   -2.5360   -5.3720   -0.1390 C   0  0  0  0  0  0  0  0  0  0  0  0
   -3.6500   -4.6370    0.2630 O   0  0  0  0  0  0  0  0  0  0  0  0
   -2.3220   -2.1680    0.1360 N   0  0  0  0  0  0  0  0  0  0  0  0
   -1.6630   -1.1040   -0.2930 C   0  0  0  0  0  0  0  0  0  0  0  0
   -0.7220   -0.0720    0.2790 C   0  0  1  0  0  0  0  0  0  0  0  0
    0.6420   -0.6020    0.2310 C   0  0  1  0  0  0  0  0  0  0  0  0
    0.6280   -1.8720    1.1480 C   0  0  0  0  0  0  0  0  0  0  0  0
    0.2820   -1.5550    2.4250 O   0  0  0  0  0  0  0  0  0  0  0  0
    1.0110   -1.2480   -1.0980 C   0  0  0  0  0  0  0  0  0  0  0  0
    1.8970   -0.7860   -1.8440 O   0  0  0  0  0  0  0  0  0  0  0  0
    0.3460   -2.3910   -1.5030 O   0  0  0  0  0  0  0  0  0  0  0  0
    1.7470    0.2410    0.6900 C   0  0  0  0  0  0  0  0  0  0  0  0
    1.6400    1.4010    1.1150 O   0  0  0  0  0  0  0  0  0  0  0  0
    3.0890   -0.2800    0.6600 N   0  0  0  0  0  0  0  0  0  0  0  0
    4.2140    0.5230    1.1080 C   0  0  0  0  0  0  0  0  0  0  0  0
    5.4600   -0.3200    0.9450 C   0  0  0  0  0  0  0  0  0  0  0  0
    6.9850    0.5530    1.4700 P   0  0  0  0  0  0  0  0  0  0  0  0
    7.1770    0.6070    3.1700 O   0  0  0  0  0  0  0  0  0  0  0  0
    8.3580   -0.1210    0.6590 O   0  0  0  0  0  0  0  0  0  0  0  0
   -1.0180    1.2420   -0.2400 N   0  0  0  0  0  0  0  0  0  0  0  0
   -1.1730    2.2940    0.6730 C   0  0  0  0  0  0  0  0  0  0  0  0
   -1.1420    1.8800    1.9260 O   0  0  0  0  0  0  0  0  0  0  0  0
   -1.3580    3.7120    0.5890 C   0  0  0  0  0  0  0  0  0  0  0  0
   -1.1720    4.4690   -0.5390 C   0  0  0  0  0  0  0  0  0  0  0  0
   -1.4120    5.8370   -0.6020 C   0  0  0  0  0  0  0  0  0  0  0  0
   -1.8580    6.5060    0.4950 C   0  0  0  0  0  0  0  0  0  0  0  0
   -2.0550    5.7800    1.6470 C   0  0  0  0  0  0  0  0  0  0  0  0
   -1.8170    4.4360    1.6990 C   0  0  0  0  0  0  0  0  0  0  0  0
  2  1  1  1
  2  3  1  0
  2 29  1  0
  3  4  1  0
  4  5  1  0
  4 13  2  0
  5  6  1  0
  7  6  1  6
  6 12  2  0
  7  8  1  0
  7 11  1  0
  8  9  1  0
  9 10  1  0
 10 11  1  0
 12 13  1  0
 13 14  1  0
 14 15  1  0
 14 29  1  6
 15 16  1  1
 15 18  1  0
 15 21  1  0
 16 17  1  0
 18 19  2  0
 18 20  1  0
 21 22  2  0
 21 23  1  0
 23 24  1  0
 24 25  1  0
 25 26  1  0
 26 27  1  0
 26 28  1  0
 29 30  1  0
 30 31  2  0
 30 32  1  0
 32 33  2  0
 32 37  1  0
 33 34  1  0
 34 35  2  0
 35 36  1  0
 36 37  2  0
M  END
