
     RDKit          3D

 37 40  0  0  0  0  0  0  0  0999 V2000
   -3.4910    4.7610    0.4100 C   0  0  0  0  0  0  0  0  0  0  0  0
   -3.0920    3.3130    0.4350 C   0  0  0  0  0  0  0  0  0  0  0  0
   -2.3560    2.8190    1.4130 C   0  0  0  0  0  0  0  0  0  0  0  0
   -1.9410    1.3770    1.4690 C   0  0  0  0  0  0  0  0  0  0  0  0
   -2.6400    0.6660    0.4460 C   0  0  2  0  0  0  0  0  0  0  0  0
   -2.3450   -0.6550    0.0270 N   0  0  0  0  0  0  0  0  0  0  0  0
   -1.4270   -1.4050    0.6880 C   0  0  0  0  0  0  0  0  0  0  0  0
   -0.7480   -2.5840    0.2260 C   0  0  0  0  0  0  0  0  0  0  0  0
    0.1860   -2.6530   -0.8580 N   0  0  0  0  0  0  0  0  0  0  0  0
   -0.5380   -3.0710   -2.4070 S   0  0  1  0  0  0  0  0  0  0  0  0
   -1.5270   -2.0810   -2.8660 O   0  0  0  0  0  0  0  0  0  0  0  0
    0.5060   -3.2930   -3.4760 O   0  0  0  0  0  0  0  0  0  0  0  0
   -1.2740   -4.6110   -2.3080 O   0  0  0  0  0  0  0  0  0  0  0  0
    1.5960   -2.4340   -0.8710 C   0  0  0  0  0  0  0  0  0  0  0  0
    2.4140   -3.5330   -1.4890 C   0  0  0  0  0  0  0  0  0  0  0  0
    3.7170   -3.5400   -1.6660 N   0  0  0  0  0  0  0  0  0  0  0  0
    4.1120   -4.7120   -2.2640 O   0  0  0  0  0  0  0  0  0  0  0  0
    2.9760   -5.2290   -2.8710 N   0  0  0  0  0  0  0  0  0  0  0  0
    2.0170   -4.7890   -1.9650 N   0  0  0  0  0  0  0  0  0  0  0  0
    2.2750   -1.3920   -0.4380 C   0  0  0  0  0  0  0  0  0  0  0  0
    1.9940   -0.1280    0.1710 C   0  0  0  0  0  0  0  0  0  0  0  0
    2.6530    0.2110    1.4580 N   0  0  0  0  0  0  0  0  0  0  0  0
    3.7880    1.0740    1.3850 C   0  0  0  0  0  0  0  0  0  0  0  0
    4.2900    1.3740    2.7730 C   0  0  0  0  0  0  0  0  0  0  0  0
    5.3950    2.2170    2.7410 O   0  0  0  0  0  0  0  0  0  0  0  0
    6.0130    2.6140    4.2880 P   0  0  0  0  0  0  0  0  0  0  0  0
    5.4520    1.5910    5.5580 O   0  0  0  0  0  0  0  0  0  0  0  0
    5.5800    4.2580    4.6910 O   0  0  0  0  0  0  0  0  0  0  0  0
    1.2330    0.8750   -0.2140 C   0  0  0  0  0  0  0  0  0  0  0  0
    0.4450    0.9460   -1.4220 C   0  0  0  0  0  0  0  0  0  0  0  0
   -0.5560    1.9950   -1.4420 N   0  0  0  0  0  0  0  0  0  0  0  0
   -1.8110    1.4800   -1.8230 C   0  0  0  0  0  0  0  0  0  0  0  0
   -2.9100    1.3050   -0.8980 C   0  0  2  0  0  0  0  0  0  0  0  0
   -3.5450    2.5330   -0.6290 O   0  0  0  0  0  0  0  0  0  0  0  0
   -3.9420    0.2470   -1.3440 C   0  0  1  0  0  0  0  0  0  0  0  0
   -4.0450    0.0080   -2.7830 C   0  0  0  0  0  0  0  0  0  0  0  0
   -3.5260   -1.0300   -0.5900 C   0  0  0  0  0  0  0  0  0  0  0  0
  1  2  1  0
  2  3  2  0
  2 34  1  0
  3  4  1  0
  5  4  1  6
  5  6  1  0
  5 33  1  0
  6  7  1  0
  6 37  1  0
  7  8  1  0
  8  9  1  0
  9 10  1  0
  9 14  1  0
 10 11  2  0
 10 12  2  0
 10 13  1  1
 14 15  1  0
 14 20  2  0
 15 16  2  0
 15 19  1  0
 16 17  1  0
 17 18  1  0
 18 19  1  0
 20 21  1  0
 21 22  1  0
 21 29  2  0
 22 23  1  0
 23 24  1  0
 24 25  1  0
 25 26  1  0
 26 27  1  0
 26 28  1  0
 29 30  1  0
 30 31  1  0
 31 32  1  0
 33 32  1  6
 33 34  1  0
 33 35  1  0
 35 36  1  6
 35 37  1  0
M  END
