
     RDKit          3D

 36 36  0  0  0  0  0  0  0  0999 V2000
    1.5140    5.0930    1.8970 C   0  0  0  0  0  0  0  0  0  0  0  0
    2.1400    4.0370    1.0060 C   0  0  0  0  0  0  0  0  0  0  0  0
    1.1970    2.9760    0.9270 O   0  0  0  0  0  0  0  0  0  0  0  0
    0.7390    2.2620    1.9940 C   0  0  0  0  0  0  0  0  0  0  0  0
    1.1580    2.5340    3.1430 O   0  0  0  0  0  0  0  0  0  0  0  0
   -0.2490    1.1690    1.8270 C   0  0  0  0  0  0  0  0  0  0  0  0
   -0.5360    0.9810    0.3960 C   0  0  1  0  0  0  0  0  0  0  0  0
    0.5330    0.6140   -0.4730 N   0  0  0  0  0  0  0  0  0  0  0  0
    1.7890    0.1590   -0.0860 C   0  0  0  0  0  0  0  0  0  0  0  0
    2.0450    0.0300    1.1440 O   0  0  0  0  0  0  0  0  0  0  0  0
    2.8930   -0.2010   -0.9860 C   0  0  0  0  0  0  0  0  0  0  0  0
    4.0210   -0.6230   -0.2320 N   0  0  0  0  0  0  0  0  0  0  0  0
    5.1630   -0.9970   -1.0300 C   0  0  1  0  0  0  0  0  0  0  0  0
    5.7070    0.1300   -1.8370 C   0  0  0  0  0  0  0  0  0  0  0  0
    6.1680   -1.6690   -0.1310 C   0  0  0  0  0  0  0  0  0  0  0  0
    6.6670   -0.8300    0.9950 C   0  0  0  0  0  0  0  0  0  0  0  0
    7.5210    0.7100    0.4560 P   0  0  0  0  0  0  0  0  0  0  0  0
    7.5680    1.8890    1.7350 O   0  0  0  0  0  0  0  0  0  0  0  0
    9.1130    0.4030   -0.1490 O   0  0  0  0  0  0  0  0  0  0  0  0
    0.1590    0.7410   -1.8660 C   0  0  0  0  0  0  0  0  0  0  0  0
    0.9980    0.5960   -2.7620 O   0  0  0  0  0  0  0  0  0  0  0  0
   -1.2400    1.0460   -2.2070 C   0  0  0  0  0  0  0  0  0  0  0  0
   -2.2600    0.5100   -1.2180 C   0  0  0  0  0  0  0  0  0  0  0  0
   -1.6910    0.0330    0.0760 C   0  0  2  0  0  0  0  0  0  0  0  0
   -2.6800   -0.0090    1.1690 C   0  0  0  0  0  0  0  0  0  0  0  0
   -3.8250   -0.8280    1.1200 N   0  0  0  0  0  0  0  0  0  0  0  0
   -4.9630   -0.7740    0.2960 C   0  0  0  0  0  0  0  0  0  0  0  0
   -5.1390    0.1010   -0.5740 O   0  0  0  0  0  0  0  0  0  0  0  0
   -6.0030   -1.7130    0.3900 O   0  0  0  0  0  0  0  0  0  0  0  0
   -7.1400   -1.6550   -0.4290 C   0  0  2  0  0  0  0  0  0  0  0  0
   -8.0110   -2.8520   -0.0180 C   0  0  0  0  0  0  0  0  0  0  0  0
   -6.8690   -1.7740   -1.8900 C   0  0  0  0  0  0  0  0  0  0  0  0
   -8.0060   -0.4330   -0.1180 C   0  0  0  0  0  0  0  0  0  0  0  0
   -1.1710   -1.3710   -0.1860 C   0  0  0  0  0  0  0  0  0  0  0  0
   -0.4960   -1.8940    0.9020 O   0  0  0  0  0  0  0  0  0  0  0  0
   -0.0720   -3.1730    0.5440 C   0  0  0  0  0  0  0  0  0  0  0  0
  1  2  1  0
  2  3  1  0
  3  4  1  0
  4  5  2  0
  4  6  1  0
  7  6  1  1
  7  8  1  0
  7 24  1  0
  8  9  1  0
  8 20  1  0
  9 10  2  0
  9 11  1  0
 11 12  1  0
 12 13  1  0
 13 14  1  1
 13 15  1  0
 15 16  1  0
 16 17  1  0
 17 18  1  0
 17 19  1  0
 20 21  2  0
 20 22  1  0
 22 23  1  0
 23 24  1  0
 24 25  1  1
 24 34  1  0
 25 26  1  0
 26 27  1  0
 27 28  2  0
 27 29  1  0
 29 30  1  0
 30 31  1  1
 30 32  1  0
 30 33  1  0
 34 35  1  0
 35 36  1  0
M  END
