
     RDKit          3D

 37 38  0  0  0  0  0  0  0  0999 V2000
   -2.6410   -4.6150   -1.6230 C   0  0  0  0  0  0  0  0  0  0  0  0
   -1.4630   -3.8070   -2.1280 C   0  0  1  0  0  0  0  0  0  0  0  0
   -0.2040   -4.5190   -1.7640 C   0  0  0  0  0  0  0  0  0  0  0  0
   -1.6260   -3.7350   -3.6540 C   0  0  0  0  0  0  0  0  0  0  0  0
   -1.5420   -2.4810   -1.5830 O   0  0  0  0  0  0  0  0  0  0  0  0
   -0.5870   -1.5270   -1.8720 C   0  0  0  0  0  0  0  0  0  0  0  0
    0.3590   -1.8490   -2.6200 O   0  0  0  0  0  0  0  0  0  0  0  0
   -0.6690   -0.1640   -1.3240 N   0  0  0  0  0  0  0  0  0  0  0  0
    0.3270    0.7810   -1.6220 C   0  0  2  0  0  0  0  0  0  0  0  0
    1.7610    0.5080   -1.5810 C   0  0  0  0  0  0  0  0  0  0  0  0
    2.4660    0.1410   -0.4220 N   0  0  0  0  0  0  0  0  0  0  0  0
    2.4050   -0.9720    0.4190 C   0  0  0  0  0  0  0  0  0  0  0  0
    1.6080   -1.8890    0.1910 O   0  0  0  0  0  0  0  0  0  0  0  0
    3.2600   -1.1350    1.6070 C   0  0  0  0  0  0  0  0  0  0  0  0
    4.6390   -1.0520    1.4320 C   0  0  0  0  0  0  0  0  0  0  0  0
    5.5200   -1.1830    2.4940 C   0  0  0  0  0  0  0  0  0  0  0  0
    5.0450   -1.4050    3.7750 C   0  0  0  0  0  0  0  0  0  0  0  0
    5.9260   -1.5500    4.9240 C   0  0  0  0  0  0  0  0  0  0  0  0
    5.4450   -1.7380    6.0610 O   0  0  0  0  0  0  0  0  0  0  0  0
    3.6790   -1.4870    3.9430 C   0  0  0  0  0  0  0  0  0  0  0  0
    2.7920   -1.3540    2.8730 C   0  0  0  0  0  0  0  0  0  0  0  0
   -0.0250    2.1080   -0.9520 C   0  0  0  0  0  0  0  0  0  0  0  0
   -1.4010    2.4800   -1.4110 C   0  0  2  0  0  0  0  0  0  0  0  0
   -1.6880    3.7660   -0.9710 O   0  0  0  0  0  0  0  0  0  0  0  0
   -1.8800    4.6490   -2.0290 C   0  0  0  0  0  0  0  0  0  0  0  0
   -2.2670    6.3560   -1.4070 P   0  0  0  0  0  0  0  0  0  0  0  0
   -1.8680    7.4740   -2.6950 O   0  0  0  0  0  0  0  0  0  0  0  0
   -4.0030    6.4480   -1.2070 O   0  0  0  0  0  0  0  0  0  0  0  0
   -2.4370    1.5070   -0.9140 C   0  0  0  0  0  0  0  0  0  0  0  0
   -1.8300    0.1650   -0.5710 C   0  0  2  0  0  0  0  0  0  0  0  0
   -1.6370    0.1100    0.8800 C   0  0  0  0  0  0  0  0  0  0  0  0
   -0.5650   -0.2250    1.4050 O   0  0  0  0  0  0  0  0  0  0  0  0
   -2.6700    0.4350    1.7690 O   0  0  0  0  0  0  0  0  0  0  0  0
   -2.6030    0.4120    3.1510 C   0  0  0  0  0  0  0  0  0  0  0  0
   -1.5790    1.3170    3.7470 C   0  0  0  0  0  0  0  0  0  0  0  0
   -0.8140    2.0840    2.7980 N   0  0  0  0  0  0  0  0  0  0  0  0
   -1.3900    1.4110    4.9680 O   0  0  0  0  0  0  0  0  0  0  0  0
  2  1  1  1
  2  3  1  0
  2  4  1  0
  2  5  1  0
  5  6  1  0
  6  7  2  0
  6  8  1  0
  8  9  1  0
  8 30  1  0
  9 10  1  1
  9 22  1  0
 10 11  1  0
 11 12  1  0
 12 13  2  0
 12 14  1  0
 14 15  2  0
 14 21  1  0
 15 16  1  0
 16 17  2  0
 17 18  1  0
 17 20  1  0
 18 19  2  0
 20 21  2  0
 22 23  1  0
 23 24  1  1
 23 29  1  0
 24 25  1  0
 25 26  1  0
 26 27  1  0
 26 28  1  0
 29 30  1  0
 30 31  1  1
 31 32  2  0
 31 33  1  0
 33 34  1  0
 34 35  1  0
 35 36  1  0
 35 37  2  0
M  END
