
     RDKit          3D

 37 40  0  0  0  0  0  0  0  0999 V2000
    7.8670   -2.2100    0.7870 N   0  0  0  0  0  0  0  0  0  0  0  0
    8.0740   -1.8810   -0.4370 C   0  0  0  0  0  0  0  0  0  0  0  0
    9.3320   -1.3740   -0.8770 N   0  0  0  0  0  0  0  0  0  0  0  0
    6.9840   -2.0420   -1.3640 N   0  0  0  0  0  0  0  0  0  0  0  0
    5.8120   -2.5100   -0.9160 O   0  0  0  0  0  0  0  0  0  0  0  0
    4.8840   -1.4900   -0.6870 C   0  0  0  0  0  0  0  0  0  0  0  0
    3.5980   -2.1260   -0.1860 C   0  0  2  0  0  0  0  0  0  0  0  0
    3.1350   -3.0060   -1.1730 O   0  0  0  0  0  0  0  0  0  0  0  0
    1.8700   -2.6500   -1.5420 N   0  0  0  0  0  0  0  0  0  0  0  0
    1.4970   -1.5790   -0.9310 C   0  0  0  0  0  0  0  0  0  0  0  0
    0.2290   -0.8880   -1.0520 C   0  0  0  0  0  0  0  0  0  0  0  0
   -0.0840    0.2010   -0.3970 C   0  0  0  0  0  0  0  0  0  0  0  0
   -1.2920    0.9000   -0.4810 N   0  0  0  0  0  0  0  0  0  0  0  0
   -1.3560    1.9030   -1.4990 C   0  0  0  0  0  0  0  0  0  0  0  0
   -1.1850    1.5650   -2.8430 C   0  0  0  0  0  0  0  0  0  0  0  0
   -1.2500    2.5450   -3.8110 C   0  0  0  0  0  0  0  0  0  0  0  0
   -1.4840    3.8750   -3.4730 C   0  0  0  0  0  0  0  0  0  0  0  0
   -1.6470    4.1740   -2.1570 N   0  0  0  0  0  0  0  0  0  0  0  0
   -1.5860    3.2280   -1.2070 C   0  0  0  0  0  0  0  0  0  0  0  0
   -1.7580    3.5820    0.1210 O   0  0  0  0  0  0  0  0  0  0  0  0
   -1.9990    4.9080    0.5410 C   0  0  0  0  0  0  0  0  0  0  0  0
   -3.5780    5.4740   -0.2730 P   0  0  0  0  0  0  0  0  0  0  0  0
   -4.7890    5.7090    0.9440 O   0  0  0  0  0  0  0  0  0  0  0  0
   -3.2450    6.9430   -1.1280 O   0  0  0  0  0  0  0  0  0  0  0  0
   -2.4440    0.7120    0.3370 C   0  0  2  0  0  0  0  0  0  0  0  0
   -2.1940    0.9250    1.8080 C   0  0  0  0  0  0  0  0  0  0  0  0
   -1.9400   -0.4510    2.3670 C   0  0  0  0  0  0  0  0  0  0  0  0
   -2.6120   -1.4320    1.4720 C   0  0  2  0  0  0  0  0  0  0  0  0
   -3.0810   -0.6320    0.2850 C   0  0  0  0  0  0  0  0  0  0  0  0
   -3.7830   -2.0310    2.1150 N   0  0  0  0  0  0  0  0  0  0  0  0
   -4.3050   -3.3340    2.0360 C   0  0  0  0  0  0  0  0  0  0  0  0
   -5.8570   -3.5790    2.4830 S   0  0  0  0  0  0  0  0  0  0  0  0
   -3.6400   -4.4800    1.6100 O   0  0  0  0  0  0  0  0  0  0  0  0
   -2.2630   -4.7260    1.4240 C   0  0  0  0  0  0  0  0  0  0  0  0
   -1.5190   -3.4630    1.8190 C   0  0  0  0  0  0  0  0  0  0  0  0
   -1.7630   -2.4150    0.9810 O   0  0  0  0  0  0  0  0  0  0  0  0
    2.5520   -1.1780   -0.1040 O   0  0  0  0  0  0  0  0  0  0  0  0
  1  2  2  0
  2  3  1  0
  2  4  1  0
  4  5  1  0
  5  6  1  0
  7  6  1  6
  7  8  1  0
  7 37  1  0
  8  9  1  0
  9 10  2  0
 10 11  1  0
 10 37  1  0
 11 12  2  3
 12 13  1  0
 13 14  1  0
 25 13  1  6
 14 15  2  0
 14 19  1  0
 15 16  1  0
 16 17  2  0
 17 18  1  0
 18 19  2  0
 19 20  1  0
 20 21  1  0
 21 22  1  0
 22 23  1  0
 22 24  1  0
 25 26  1  0
 25 29  1  0
 26 27  1  0
 28 27  1  1
 28 29  1  0
 28 30  1  0
 28 36  1  0
 30 31  1  0
 31 32  2  0
 31 33  1  0
 33 34  1  0
 34 35  1  0
 35 36  1  0
M  END
