
     RDKit          3D

 36 37  0  0  0  0  0  0  0  0999 V2000
   -5.0660    2.7460   -1.2180 C   0  0  0  0  0  0  0  0  0  0  0  0
   -4.0010    1.6590   -1.1660 C   0  0  1  0  0  0  0  0  0  0  0  0
   -3.6860    1.2000   -2.5640 C   0  0  0  0  0  0  0  0  0  0  0  0
   -4.0150   -0.2910   -2.7250 C   0  0  0  0  0  0  0  0  0  0  0  0
   -2.7800   -0.9820   -3.2680 C   0  0  0  0  0  0  0  0  0  0  0  0
   -2.5280   -2.0880   -2.4840 O   0  0  0  0  0  0  0  0  0  0  0  0
   -1.9940   -1.7950   -1.2350 C   0  0  1  0  0  0  0  0  0  0  0  0
   -2.0230   -3.0610   -0.4980 N   0  0  0  0  0  0  0  0  0  0  0  0
   -2.8330   -3.1690    0.6560 C   0  0  0  0  0  0  0  0  0  0  0  0
   -3.5330   -2.2300    1.0850 O   0  0  0  0  0  0  0  0  0  0  0  0
   -2.8750   -4.4220    1.4050 C   0  0  0  0  0  0  0  0  0  0  0  0
   -3.4640   -4.9160    2.4730 C   0  0  0  0  0  0  0  0  0  0  0  0
   -2.8210   -6.2070    2.3170 C   0  0  0  0  0  0  0  0  0  0  0  0
   -2.2190   -5.7310    1.2400 C   0  0  0  0  0  0  0  0  0  0  0  0
   -0.5790   -1.3530   -1.4400 C   0  0  0  0  0  0  0  0  0  0  0  0
   -0.0350   -1.4270   -2.5950 O   0  0  0  0  0  0  0  0  0  0  0  0
    0.2620   -0.8300   -0.4060 N   0  0  0  0  0  0  0  0  0  0  0  0
    1.6980   -1.1110   -0.5720 C   0  0  0  0  0  0  0  0  0  0  0  0
    2.4060   -0.0530   -1.3720 C   0  0  0  0  0  0  0  0  0  0  0  0
    2.4010    1.2020   -0.8680 O   0  0  0  0  0  0  0  0  0  0  0  0
    2.9820    1.4520    0.3280 C   0  0  0  0  0  0  0  0  0  0  0  0
    4.4390    1.2130    0.3690 C   0  0  0  0  0  0  0  0  0  0  0  0
    5.0520    0.8580   -0.6570 O   0  0  0  0  0  0  0  0  0  0  0  0
    5.1330    1.3940    1.6040 N   0  0  0  0  0  0  0  0  0  0  0  0
    4.4930    1.8030    2.8250 C   0  0  0  0  0  0  0  0  0  0  0  0
    6.5690    1.1560    1.6410 C   0  0  0  0  0  0  0  0  0  0  0  0
    7.4710    2.7210    1.2500 P   0  0  0  0  0  0  0  0  0  0  0  0
    8.8760    2.3380    0.3240 O   0  0  0  0  0  0  0  0  0  0  0  0
    7.9280    3.5780    2.6890 O   0  0  0  0  0  0  0  0  0  0  0  0
   -0.1610   -0.1070    0.7100 C   0  0  0  0  0  0  0  0  0  0  0  0
    0.2650   -0.5180    1.8540 O   0  0  0  0  0  0  0  0  0  0  0  0
   -1.0310    1.0730    0.7880 C   0  0  2  0  0  0  0  0  0  0  0  0
   -2.1690    0.8280    1.7620 C   0  0  0  0  0  0  0  0  0  0  0  0
   -1.4540    1.6690   -0.5060 C   0  0  0  0  0  0  0  0  0  0  0  0
   -2.8360    2.2320   -0.4470 C   0  0  0  0  0  0  0  0  0  0  0  0
   -2.9610    3.2440    0.2640 O   0  0  0  0  0  0  0  0  0  0  0  0
  2  1  1  6
  2  3  1  0
  2 35  1  0
  3  4  1  0
  4  5  1  0
  5  6  1  0
  6  7  1  0
  7  8  1  1
  7 15  1  0
  8  9  1  0
  9 10  2  0
  9 11  1  0
 11 12  2  0
 11 14  1  0
 12 13  1  0
 13 14  2  0
 15 16  2  0
 15 17  1  0
 17 18  1  0
 17 30  1  0
 18 19  1  0
 19 20  1  0
 20 21  1  0
 21 22  1  0
 22 23  2  0
 22 24  1  0
 24 25  1  0
 24 26  1  0
 26 27  1  0
 27 28  1  0
 27 29  1  0
 30 31  2  0
 30 32  1  0
 32 33  1  6
 32 34  1  0
 34 35  1  0
 35 36  2  0
M  END
