
     RDKit          3D

 31 33  0  0  0  0  0  0  0  0999 V2000
   -6.8220    1.8240   -0.7900 C   0  0  0  0  0  0  0  0  0  0  0  0
   -5.8210    0.7610   -1.0330 C   0  0  0  0  0  0  0  0  0  0  0  0
   -6.1870   -0.3560   -1.7470 C   0  0  0  0  0  0  0  0  0  0  0  0
   -5.2910   -1.3700   -2.0170 C   0  0  0  0  0  0  0  0  0  0  0  0
   -3.9990   -1.2720   -1.5690 C   0  0  0  0  0  0  0  0  0  0  0  0
   -3.6180   -0.1360   -0.8410 C   0  0  0  0  0  0  0  0  0  0  0  0
   -2.1850   -0.0370   -0.4710 C   0  0  0  0  0  0  0  0  0  0  0  0
   -1.4890   -1.2260   -0.8140 N   0  0  0  0  0  0  0  0  0  0  0  0
   -1.8080   -2.3200    0.0350 C   0  0  0  0  0  0  0  0  0  0  0  0
   -0.1750   -1.0950   -1.2150 N   0  0  0  0  0  0  0  0  0  0  0  0
    0.8070   -0.7310   -0.1980 C   0  0  0  0  0  0  0  0  0  0  0  0
    0.3480   -0.5750    0.9510 O   0  0  0  0  0  0  0  0  0  0  0  0
    2.1910   -0.5700   -0.5230 C   0  0  0  0  0  0  0  0  0  0  0  0
    2.4140   -0.7820   -1.7690 O   0  0  0  0  0  0  0  0  0  0  0  0
    3.2590   -0.2160    0.3810 C   0  0  0  0  0  0  0  0  0  0  0  0
    4.6040   -0.0920   -0.1010 C   0  0  0  0  0  0  0  0  0  0  0  0
    5.6330    0.2440    0.7480 C   0  0  0  0  0  0  0  0  0  0  0  0
    5.3320    0.4630    2.0960 C   0  0  0  0  0  0  0  0  0  0  0  0
    4.1110    0.3540    2.5520 N   0  0  0  0  0  0  0  0  0  0  0  0
    3.0780    0.0210    1.7250 C   0  0  0  0  0  0  0  0  0  0  0  0
    1.9370   -0.0630    2.2450 O   0  0  0  0  0  0  0  0  0  0  0  0
    7.0270    0.3790    0.3280 C   0  0  0  0  0  0  0  0  0  0  0  0
    7.2810    0.1580   -1.1050 C   0  0  0  0  0  0  0  0  0  0  0  0
    6.1330   -0.1950   -1.9320 C   0  0  0  0  0  0  0  0  0  0  0  0
    4.8760   -0.3230   -1.5140 C   0  0  0  0  0  0  0  0  0  0  0  0
   -4.5110    0.8600   -0.5770 C   0  0  0  0  0  0  0  0  0  0  0  0
   -4.1750    1.9730    0.1240 O   0  0  0  0  0  0  0  0  0  0  0  0
   -4.3780    2.1420    1.4940 C   0  0  1  0  0  0  0  0  0  0  0  0
   -5.7280    2.0580    1.8360 F   0  0  0  0  0  0  0  0  0  0  0  0
   -3.6390    1.2710    2.2360 F   0  0  0  0  0  0  0  0  0  0  0  0
   -3.8750    3.7830    2.0130 Cl  0  0  0  0  0  0  0  0  0  0  0  0
  1  2  1  0
  2  3  2  0
  2 26  1  0
  3  4  1  0
  4  5  2  0
  5  6  1  0
  6  7  1  0
  6 26  2  0
  7  8  1  0
  8  9  1  0
  8 10  1  0
 10 11  1  0
 11 12  2  0
 11 13  1  0
 13 14  2  0
 13 15  1  0
 15 16  2  0
 15 20  1  0
 16 17  1  0
 16 25  1  0
 17 18  2  0
 17 22  1  0
 18 19  1  0
 19 20  1  0
 20 21  2  0
 22 23  1  0
 23 24  1  0
 24 25  2  0
 26 27  1  0
 27 28  1  0
 28 29  1  6
 28 30  1  0
 28 31  1  0
M  END
