
     RDKit          3D

 31 33  0  0  0  0  0  0  0  0999 V2000
    7.1600   -0.7900    1.8200 C   0  0  0  0  0  0  0  0  0  0  0  0
    5.8610   -0.9140    1.2740 O   0  0  0  0  0  0  0  0  0  0  0  0
    5.4670    0.0580    0.3500 C   0  0  0  0  0  0  0  0  0  0  0  0
    6.2970    1.1020   -0.0300 C   0  0  0  0  0  0  0  0  0  0  0  0
    5.9070    2.0550   -0.9370 C   0  0  0  0  0  0  0  0  0  0  0  0
    4.6480    1.9590   -1.4800 C   0  0  0  0  0  0  0  0  0  0  0  0
    4.0540    3.1300   -2.6510 Cl  0  0  0  0  0  0  0  0  0  0  0  0
    3.7620    0.9260   -1.1350 C   0  0  0  0  0  0  0  0  0  0  0  0
    2.4430    0.8850   -1.7820 C   0  0  0  0  0  0  0  0  0  0  0  0
    1.6580   -0.2000   -1.2540 N   0  0  0  0  0  0  0  0  0  0  0  0
    1.2600   -0.1500    0.1080 C   0  0  0  0  0  0  0  0  0  0  0  0
    1.6240    0.8580    0.7860 O   0  0  0  0  0  0  0  0  0  0  0  0
    0.4520   -1.1970    0.7730 C   0  0  0  0  0  0  0  0  0  0  0  0
   -0.9410   -0.8220    0.7590 N   0  0  0  0  0  0  0  0  0  0  0  0
   -1.5340   -0.1130    1.7210 C   0  0  0  0  0  0  0  0  0  0  0  0
   -0.8580    0.2600    2.7240 O   0  0  0  0  0  0  0  0  0  0  0  0
   -2.8460    0.2420    1.6920 N   0  0  0  0  0  0  0  0  0  0  0  0
   -3.6290   -0.1170    0.6670 C   0  0  0  0  0  0  0  0  0  0  0  0
   -4.9410    0.2710    0.6160 C   0  0  0  0  0  0  0  0  0  0  0  0
   -5.6790    0.8870    1.6870 C   0  0  0  0  0  0  0  0  0  0  0  0
   -5.5690    0.9540    2.9520 C   0  0  0  0  0  0  0  0  0  0  0  0
   -6.5100    1.6750    3.6810 F   0  0  0  0  0  0  0  0  0  0  0  0
   -5.6430   -0.1210   -0.5400 C   0  0  0  0  0  0  0  0  0  0  0  0
   -6.9440    0.2490   -0.6230 F   0  0  0  0  0  0  0  0  0  0  0  0
   -5.0900   -0.8440   -1.5590 C   0  0  0  0  0  0  0  0  0  0  0  0
   -5.8940   -1.2370   -2.7710 C   0  0  0  0  0  0  0  0  0  0  0  0
   -3.7860   -1.2130   -1.4650 C   0  0  0  0  0  0  0  0  0  0  0  0
   -3.0420   -0.8620   -0.3670 C   0  0  0  0  0  0  0  0  0  0  0  0
   -1.7010   -1.1900   -0.2760 C   0  0  0  0  0  0  0  0  0  0  0  0
   -1.2130   -1.8610   -1.2260 O   0  0  0  0  0  0  0  0  0  0  0  0
    4.1960    0.0080   -0.2340 C   0  0  0  0  0  0  0  0  0  0  0  0
  1  2  1  0
  2  3  1  0
  3  4  2  0
  3 31  1  0
  4  5  1  0
  5  6  2  0
  6  7  1  0
  6  8  1  0
  8  9  1  0
  8 31  2  0
  9 10  1  0
 10 11  1  0
 11 12  2  0
 11 13  1  0
 13 14  1  0
 14 15  1  0
 14 29  1  0
 15 16  2  0
 15 17  1  0
 17 18  1  0
 18 19  2  0
 18 28  1  0
 19 20  1  0
 19 23  1  0
 20 21  2  3
 21 22  1  0
 23 24  1  0
 23 25  2  0
 25 26  1  0
 25 27  1  0
 27 28  2  0
 28 29  1  0
 29 30  2  0
M  END
