
     RDKit          3D

 31 33  0  0  0  0  0  0  0  0999 V2000
    2.5340    3.2750    0.1810 C   0  0  0  0  0  0  0  0  0  0  0  0
    1.9060    2.5650   -0.8660 O   0  0  0  0  0  0  0  0  0  0  0  0
    0.7580    1.8170   -0.6190 C   0  0  0  0  0  0  0  0  0  0  0  0
    0.8260    0.4800   -0.3070 C   0  0  0  0  0  0  0  0  0  0  0  0
    2.0030   -0.3650   -0.3730 C   0  0  0  0  0  0  0  0  0  0  0  0
    3.1760   -0.0300    0.3630 N   0  0  0  0  0  0  0  0  0  0  0  0
    4.2080   -1.0660    0.2990 C   0  0  0  0  0  0  0  0  0  0  0  0
    3.9430   -2.1570   -0.2990 O   0  0  0  0  0  0  0  0  0  0  0  0
    5.4710   -0.8990    0.8700 N   0  0  0  0  0  0  0  0  0  0  0  0
    6.4960   -1.8910    0.8920 C   0  0  0  0  0  0  0  0  0  0  0  0
    6.8700   -2.4510   -0.4790 C   0  0  0  0  0  0  0  0  0  0  0  0
    7.4260   -1.2140   -1.6200 Cl  0  0  0  0  0  0  0  0  0  0  0  0
   -0.3800   -0.1640   -0.0890 C   0  0  0  0  0  0  0  0  0  0  0  0
   -1.6200    0.4590   -0.1650 C   0  0  0  0  0  0  0  0  0  0  0  0
   -2.8010   -0.3360    0.0090 N   0  0  0  0  0  0  0  0  0  0  0  0
   -4.0630   -0.3340   -0.6460 C   0  0  0  0  0  0  0  0  0  0  0  0
   -4.7160   -1.6320   -0.3060 C   0  0  0  0  0  0  0  0  0  0  0  0
   -5.8530   -2.2100   -0.7870 C   0  0  0  0  0  0  0  0  0  0  0  0
   -6.3130   -3.4180   -0.2520 C   0  0  0  0  0  0  0  0  0  0  0  0
   -7.4650   -3.9860   -0.7120 F   0  0  0  0  0  0  0  0  0  0  0  0
   -5.6090   -4.0280    0.7640 C   0  0  0  0  0  0  0  0  0  0  0  0
   -6.0100   -5.2050    1.2980 F   0  0  0  0  0  0  0  0  0  0  0  0
   -4.4690   -3.4160    1.2220 C   0  0  0  0  0  0  0  0  0  0  0  0
   -4.0180   -2.2210    0.6950 C   0  0  0  0  0  0  0  0  0  0  0  0
   -2.8130   -1.4400    0.9390 C   0  0  0  0  0  0  0  0  0  0  0  0
   -1.9210   -1.6670    1.8030 O   0  0  0  0  0  0  0  0  0  0  0  0
   -1.6230    1.7950   -0.4790 C   0  0  0  0  0  0  0  0  0  0  0  0
   -2.8960    2.5520   -0.5870 C   0  0  0  0  0  0  0  0  0  0  0  0
   -0.4560    2.5060   -0.7120 C   0  0  0  0  0  0  0  0  0  0  0  0
   -0.5130    3.8590   -1.0320 O   0  0  0  0  0  0  0  0  0  0  0  0
   -0.4880    4.8870   -0.0720 C   0  0  0  0  0  0  0  0  0  0  0  0
  1  2  1  0
  2  3  1  0
  3  4  2  0
  3 29  1  0
  4  5  1  0
  4 13  1  0
  5  6  1  0
  6  7  1  0
  7  8  2  0
  7  9  1  0
  9 10  1  0
 10 11  1  0
 11 12  1  0
 13 14  2  0
 14 15  1  0
 14 27  1  0
 15 16  1  0
 15 25  1  0
 16 17  1  0
 17 18  2  0
 17 24  1  0
 18 19  1  0
 19 20  1  0
 19 21  2  0
 21 22  1  0
 21 23  1  0
 23 24  2  0
 24 25  1  0
 25 26  2  0
 27 28  1  0
 27 29  2  0
 29 30  1  0
 30 31  1  0
M  END
