
     RDKit          3D

 31 33  0  0  0  0  0  0  0  0999 V2000
    4.0600    4.2240   -1.1720 C   0  0  0  0  0  0  0  0  0  0  0  0
    4.2360    3.9650    0.1610 O   0  0  0  0  0  0  0  0  0  0  0  0
    4.2450    2.6440    0.5330 C   0  0  0  0  0  0  0  0  0  0  0  0
    2.9460    1.9670    0.1940 C   0  0  0  0  0  0  0  0  0  0  0  0
    2.9800    0.5190    0.6140 C   0  0  0  0  0  0  0  0  0  0  0  0
    4.0330    0.0660    1.0770 O   0  0  0  0  0  0  0  0  0  0  0  0
    1.8380   -0.3010    0.4830 N   0  0  0  0  0  0  0  0  0  0  0  0
    1.7290   -1.6700    0.8250 C   0  0  0  0  0  0  0  0  0  0  0  0
    2.7720   -2.4650    1.2450 C   0  0  0  0  0  0  0  0  0  0  0  0
    2.5210   -3.8070    1.5270 C   0  0  0  0  0  0  0  0  0  0  0  0
    3.5740   -4.5700    1.9400 F   0  0  0  0  0  0  0  0  0  0  0  0
    1.2590   -4.3580    1.3980 C   0  0  0  0  0  0  0  0  0  0  0  0
    1.1080   -5.7900    1.7230 C   0  0  0  0  0  0  0  0  0  0  0  0
   -0.1810   -6.2350    1.6010 F   0  0  0  0  0  0  0  0  0  0  0  0
    0.2580   -3.5310    0.9800 C   0  0  0  0  0  0  0  0  0  0  0  0
   -1.3450   -4.2120    0.8110 Cl  0  0  0  0  0  0  0  0  0  0  0  0
    0.4380   -2.2050    0.6860 C   0  0  0  0  0  0  0  0  0  0  0  0
   -0.6670   -1.3660    0.2560 C   0  0  0  0  0  0  0  0  0  0  0  0
   -0.8490   -1.0990   -1.0810 C   0  0  0  0  0  0  0  0  0  0  0  0
   -1.8750   -0.2860   -1.5240 C   0  0  0  0  0  0  0  0  0  0  0  0
   -2.7500    0.2840   -0.6360 C   0  0  0  0  0  0  0  0  0  0  0  0
   -3.7820    1.1270   -1.1360 N   0  0  0  0  0  0  0  0  0  0  0  0
   -3.7250    2.4440   -0.8640 C   0  0  0  0  0  0  0  0  0  0  0  0
   -2.7600    2.9190   -0.1690 O   0  0  0  0  0  0  0  0  0  0  0  0
   -4.6990    3.2810   -1.3290 C   0  0  0  0  0  0  0  0  0  0  0  0
   -5.7510    2.7910   -2.0820 C   0  0  0  0  0  0  0  0  0  0  0  0
   -5.7920    1.4760   -2.3450 N   0  0  0  0  0  0  0  0  0  0  0  0
   -4.8110    0.6800   -1.8670 C   0  0  0  0  0  0  0  0  0  0  0  0
   -4.8960   -0.5500   -2.1420 O   0  0  0  0  0  0  0  0  0  0  0  0
   -2.5850    0.0270    0.7040 C   0  0  0  0  0  0  0  0  0  0  0  0
   -1.5450   -0.7960    1.1510 C   0  0  0  0  0  0  0  0  0  0  0  0
  1  2  1  0
  2  3  1  0
  3  4  1  0
  4  5  1  0
  5  6  2  0
  5  7  1  0
  7  8  1  0
  8  9  2  0
  8 17  1  0
  9 10  1  0
 10 11  1  0
 10 12  2  0
 12 13  1  0
 12 15  1  0
 13 14  1  0
 15 16  1  0
 15 17  2  0
 17 18  1  0
 18 19  2  0
 18 31  1  0
 19 20  1  0
 20 21  2  0
 21 22  1  0
 21 30  1  0
 22 23  1  0
 22 28  1  0
 23 24  2  0
 23 25  1  0
 25 26  2  0
 26 27  1  0
 27 28  1  0
 28 29  2  0
 30 31  2  0
M  END
