
     RDKit          3D

 30 32  0  0  0  0  0  0  0  0999 V2000
   -2.7560   -2.1600    0.2010 C   0  0  0  0  0  0  0  0  0  0  0  0
   -3.4110   -0.8650   -0.2120 C   0  0  2  0  0  0  0  0  0  0  0  0
   -4.0620   -1.0060   -1.5900 C   0  0  0  0  0  0  0  0  0  0  0  0
   -3.4860   -0.1870   -2.5370 O   0  0  0  0  0  0  0  0  0  0  0  0
   -3.5530    1.1620   -2.2350 C   0  0  0  0  0  0  0  0  0  0  0  0
   -3.2450    1.3830   -0.7700 C   0  0  1  0  0  0  0  0  0  0  0  0
   -4.4830    1.6060   -0.0500 C   0  0  0  0  0  0  0  0  0  0  0  0
   -4.8380    1.6230    1.2370 C   0  0  0  0  0  0  0  0  0  0  0  0
   -6.1040    1.8680    1.6070 C   0  0  0  0  0  0  0  0  0  0  0  0
   -7.0410    2.1040    0.6330 C   0  0  0  0  0  0  0  0  0  0  0  0
   -5.9980    1.9550   -0.8740 S   0  0  0  0  0  0  0  0  0  0  0  0
   -2.4650    0.2320   -0.3380 N   0  0  1  0  0  0  0  0  0  0  0  0
   -1.6850    0.4620    0.8070 C   0  0  0  0  0  0  0  0  0  0  0  0
   -0.2720    0.0360    0.7460 C   0  0  0  0  0  0  0  0  0  0  0  0
    0.4690    0.2480    1.7900 O   0  0  0  0  0  0  0  0  0  0  0  0
    0.3740   -0.5820   -0.3280 N   0  0  0  0  0  0  0  0  0  0  0  0
    1.7640   -0.9720   -0.3230 C   0  0  0  0  0  0  0  0  0  0  0  0
    2.3820   -1.5630   -1.4110 C   0  0  0  0  0  0  0  0  0  0  0  0
    3.7240   -1.8230   -1.0980 C   0  0  0  0  0  0  0  0  0  0  0  0
    4.6710   -2.4590   -2.0280 C   0  0  0  0  0  0  0  0  0  0  0  0
    5.8460   -2.6880   -1.7080 O   0  0  0  0  0  0  0  0  0  0  0  0
    3.9000   -1.3960    0.1450 N   0  0  0  0  0  0  0  0  0  0  0  0
    5.1080   -1.4070    0.9270 C   0  0  0  0  0  0  0  0  0  0  0  0
    5.8820   -0.1340    0.8330 C   0  0  0  0  0  0  0  0  0  0  0  0
    7.1190    0.0050    0.4550 C   0  0  0  0  0  0  0  0  0  0  0  0
    8.2180   -1.2470   -0.0430 Cl  0  0  0  0  0  0  0  0  0  0  0  0
    4.9700    1.3660    1.3050 S   0  0  0  0  0  0  0  0  0  0  0  0
    6.0330    2.8210    1.1420 C   0  0  0  0  0  0  0  0  0  0  0  0
    6.3330    3.0100   -0.2070 F   0  0  0  0  0  0  0  0  0  0  0  0
    2.7190   -0.8790    0.6280 C   0  0  0  0  0  0  0  0  0  0  0  0
  2  1  1  6
  2  3  1  0
  2 12  1  0
  3  4  1  0
  4  5  1  0
  5  6  1  0
  6  7  1  1
  6 12  1  0
  7  8  2  0
  7 11  1  0
  8  9  1  0
  9 10  2  0
 10 11  1  0
 12 13  1  1
 13 14  1  0
 14 15  2  0
 14 16  1  0
 16 17  1  0
 17 18  1  0
 17 30  2  0
 18 19  2  0
 19 20  1  0
 19 22  1  0
 20 21  2  0
 22 23  1  0
 22 30  1  0
 23 24  1  0
 24 25  2  3
 24 27  1  0
 25 26  1  0
 27 28  1  0
 28 29  1  0
M  CHG  1  12   1
M  END
