
     RDKit          3D

 31 33  0  0  0  0  0  0  0  0999 V2000
    5.8200   -2.3720    1.0150 C   0  0  0  0  0  0  0  0  0  0  0  0
    6.4480   -1.3300    0.2290 C   0  0  0  0  0  0  0  0  0  0  0  0
    5.9930   -0.1780   -0.2410 C   0  0  0  0  0  0  0  0  0  0  0  0
    7.0690    0.5510   -0.9860 C   0  0  0  0  0  0  0  0  0  0  0  0
    7.1070    1.6510   -1.6010 C   0  0  0  0  0  0  0  0  0  0  0  0
    8.3510    2.0040   -2.1920 F   0  0  0  0  0  0  0  0  0  0  0  0
    6.1920    2.6020   -1.8430 F   0  0  0  0  0  0  0  0  0  0  0  0
    4.6920    0.3420   -0.3050 C   0  0  0  0  0  0  0  0  0  0  0  0
    4.6670    1.6460   -0.5530 O   0  0  0  0  0  0  0  0  0  0  0  0
    3.3560   -0.2240   -0.1590 C   0  0  0  0  0  0  0  0  0  0  0  0
    2.2970    0.5730    0.1700 N   0  0  0  0  0  0  0  0  0  0  0  0
    1.1270   -0.0780    0.0870 C   0  0  0  0  0  0  0  0  0  0  0  0
   -0.1800    0.4790    0.4090 C   0  0  0  0  0  0  0  0  0  0  0  0
   -1.2300    0.5280   -0.3740 C   0  0  0  0  0  0  0  0  0  0  0  0
   -1.2600    0.0240   -1.7300 C   0  0  0  0  0  0  0  0  0  0  0  0
   -0.2440   -0.5010   -2.2650 O   0  0  0  0  0  0  0  0  0  0  0  0
   -2.4860    0.1330   -2.4780 N   0  0  0  0  0  0  0  0  0  0  0  0
   -3.6500    0.7130   -1.9340 C   0  0  0  0  0  0  0  0  0  0  0  0
   -4.7130    0.7920   -2.6210 O   0  0  0  0  0  0  0  0  0  0  0  0
   -3.6720    1.2260   -0.6020 N   0  0  0  0  0  0  0  0  0  0  0  0
   -4.8860    1.8100   -0.1030 C   0  0  0  0  0  0  0  0  0  0  0  0
   -5.7500    0.7810    0.5670 C   0  0  0  0  0  0  0  0  0  0  0  0
   -5.5020   -0.5080    0.7260 C   0  0  0  0  0  0  0  0  0  0  0  0
   -6.6060   -1.1850    1.4410 C   0  0  0  0  0  0  0  0  0  0  0  0
   -7.5510   -0.0820    1.6800 C   0  0  0  0  0  0  0  0  0  0  0  0
   -7.0590    1.0330    1.1810 C   0  0  0  0  0  0  0  0  0  0  0  0
   -2.4820    1.1290    0.1490 C   0  0  0  0  0  0  0  0  0  0  0  0
   -2.4950    1.5840    1.3390 O   0  0  0  0  0  0  0  0  0  0  0  0
    1.3940   -1.3500   -0.3080 C   0  0  0  0  0  0  0  0  0  0  0  0
    2.7880   -1.4200   -0.4610 C   0  0  0  0  0  0  0  0  0  0  0  0
    3.6020   -2.8190   -1.1490 Cl  0  0  0  0  0  0  0  0  0  0  0  0
  1  2  1  0
  2  3  2  3
  3  4  1  0
  3  8  1  0
  4  5  2  3
  5  6  1  0
  5  7  1  0
  8  9  2  0
  8 10  1  0
 10 11  1  0
 10 30  2  0
 11 12  1  0
 12 13  1  0
 12 29  2  0
 13 14  2  3
 14 15  1  0
 14 27  1  0
 15 16  2  0
 15 17  1  0
 17 18  1  0
 18 19  2  0
 18 20  1  0
 20 21  1  0
 20 27  1  0
 21 22  1  0
 22 23  2  0
 22 26  1  0
 23 24  1  0
 24 25  1  0
 25 26  2  0
 27 28  2  0
 29 30  1  0
 30 31  1  0
M  END
