
     RDKit          3D

 30 32  0  0  0  0  0  0  0  0999 V2000
    8.8900    0.7240   -0.3510 C   0  0  0  0  0  0  0  0  0  0  0  0
    7.9700    1.9070    0.5740 S   0  0  1  0  0  0  0  0  0  0  0  0
    7.9380    1.5890    2.0410 O   0  0  0  0  0  0  0  0  0  0  0  0
    8.5420    3.2830    0.3420 O   0  0  0  0  0  0  0  0  0  0  0  0
    6.2810    1.9090   -0.0230 C   0  0  0  0  0  0  0  0  0  0  0  0
    5.6690    0.5390    0.1540 C   0  0  0  0  0  0  0  0  0  0  0  0
    4.2910    0.5610   -0.3380 C   0  0  0  0  0  0  0  0  0  0  0  0
    3.8200    1.6250   -0.8090 O   0  0  0  0  0  0  0  0  0  0  0  0
    3.4180   -0.5570   -0.3270 N   0  0  0  0  0  0  0  0  0  0  0  0
    2.8920   -1.0270    0.7610 C   0  0  0  0  0  0  0  0  0  0  0  0
    3.1390   -0.4570    2.1100 C   0  0  0  0  0  0  0  0  0  0  0  0
    1.5270   -0.8270    2.9080 S   0  0  0  0  0  0  0  0  0  0  0  0
    0.8410   -1.9070    1.5900 C   0  0  1  0  0  0  0  0  0  0  0  0
   -0.1950   -1.1430    0.8560 C   0  0  0  0  0  0  0  0  0  0  0  0
   -0.8590   -0.1000    1.4460 C   0  0  0  0  0  0  0  0  0  0  0  0
   -1.8270    0.6090    0.7510 C   0  0  0  0  0  0  0  0  0  0  0  0
   -2.1620    0.3060   -0.5420 C   0  0  0  0  0  0  0  0  0  0  0  0
   -3.1300    0.9800   -1.3170 N   0  0  2  0  0  0  0  0  0  0  0  0
   -3.7690    2.0660   -0.6460 C   0  0  0  0  0  0  0  0  0  0  0  0
   -4.9020    1.7130    0.2550 C   0  0  0  0  0  0  0  0  0  0  0  0
   -5.8350    0.6820   -0.3560 C   0  0  2  0  0  0  0  0  0  0  0  0
   -5.6530   -0.6090    0.4030 C   0  0  0  0  0  0  0  0  0  0  0  0
   -6.5500   -1.7140   -0.1330 C   0  0  0  0  0  0  0  0  0  0  0  0
   -6.3570   -2.8830    0.5930 F   0  0  0  0  0  0  0  0  0  0  0  0
   -5.5090    0.5520   -1.8290 C   0  0  0  0  0  0  0  0  0  0  0  0
   -4.0670    0.1000   -1.9870 C   0  0  0  0  0  0  0  0  0  0  0  0
   -1.4710   -0.7550   -1.1140 C   0  0  0  0  0  0  0  0  0  0  0  0
   -1.7890   -1.2390   -2.7560 Cl  0  0  0  0  0  0  0  0  0  0  0  0
   -0.4980   -1.4760   -0.4270 C   0  0  0  0  0  0  0  0  0  0  0  0
    2.0250   -2.1380    0.7880 N   0  0  0  0  0  0  0  0  0  0  0  0
  2  1  1  6
  2  3  2  0
  2  4  2  0
  2  5  1  0
  5  6  1  0
  6  7  1  0
  7  8  2  0
  7  9  1  0
  9 10  2  3
 10 11  1  0
 10 30  1  0
 11 12  1  0
 12 13  1  0
 13 14  1  6
 13 30  1  0
 14 15  2  0
 14 29  1  0
 15 16  1  0
 16 17  2  0
 18 17  1  1
 17 27  1  0
 18 19  1  0
 18 26  1  0
 19 20  1  0
 20 21  1  0
 21 22  1  1
 21 25  1  0
 22 23  1  0
 23 24  1  0
 25 26  1  0
 27 28  1  0
 27 29  2  0
M  CHG  1  18   1
M  END
