
     RDKit          3D

 31 33  0  0  0  0  0  0  0  0999 V2000
    0.3190    1.1310   -0.3290 O   0  0  0  0  0  0  0  0  0  0  0  0
    0.2080   -0.0600    0.0030 C   0  0  0  0  0  0  0  0  0  0  0  0
    1.2810   -0.8990    0.3180 N   0  0  0  0  0  0  0  0  0  0  0  0
    2.6150   -0.5000    0.3030 C   0  0  0  0  0  0  0  0  0  0  0  0
    2.9990    0.7960    0.1900 C   0  0  0  0  0  0  0  0  0  0  0  0
    4.3580    1.1120    0.1800 C   0  0  0  0  0  0  0  0  0  0  0  0
    5.3430    0.1660    0.2800 C   0  0  0  0  0  0  0  0  0  0  0  0
    6.6450    0.4900    0.2710 N   0  0  0  0  0  0  0  0  0  0  0  0
    7.6070   -0.4690    0.3750 C   0  0  0  0  0  0  0  0  0  0  0  0
    8.8090   -0.1540    0.3660 O   0  0  0  0  0  0  0  0  0  0  0  0
    7.2690   -1.8180    0.4950 C   0  0  0  0  0  0  0  0  0  0  0  0
    5.9210   -2.1120    0.5000 C   0  0  0  0  0  0  0  0  0  0  0  0
    4.9370   -1.1440    0.3950 C   0  0  0  0  0  0  0  0  0  0  0  0
    3.6030   -1.4710    0.4060 C   0  0  0  0  0  0  0  0  0  0  0  0
   -1.1610   -0.5880    0.0600 C   0  0  0  0  0  0  0  0  0  0  0  0
   -1.2990   -1.8090    0.3410 O   0  0  0  0  0  0  0  0  0  0  0  0
   -2.3070    0.2440   -0.1940 N   0  0  0  0  0  0  0  0  0  0  0  0
   -3.6090   -0.4040   -0.2220 C   0  0  0  0  0  0  0  0  0  0  0  0
   -4.3020   -0.4650    1.0890 C   0  0  0  0  0  0  0  0  0  0  0  0
   -5.4880   -1.0550    1.0550 O   0  0  0  0  0  0  0  0  0  0  0  0
   -5.8140   -2.3080    0.8700 C   0  0  0  0  0  0  0  0  0  0  0  0
   -5.3680   -3.0290   -0.3740 C   0  0  0  0  0  0  0  0  0  0  0  0
   -5.7890   -2.3770   -1.5110 F   0  0  0  0  0  0  0  0  0  0  0  0
   -2.0950    1.6340   -0.4160 C   0  0  0  0  0  0  0  0  0  0  0  0
   -1.7840    2.4410    0.6790 C   0  0  0  0  0  0  0  0  0  0  0  0
   -1.5580    3.7890    0.5030 C   0  0  0  0  0  0  0  0  0  0  0  0
   -1.2500    4.6160    1.5210 F   0  0  0  0  0  0  0  0  0  0  0  0
   -1.6420    4.3290   -0.7610 C   0  0  0  0  0  0  0  0  0  0  0  0
   -1.9500    3.5330   -1.8440 C   0  0  0  0  0  0  0  0  0  0  0  0
   -2.0410    4.2730   -3.4530 Cl  0  0  0  0  0  0  0  0  0  0  0  0
   -2.1700    2.2070   -1.6550 C   0  0  0  0  0  0  0  0  0  0  0  0
  1  2  2  0
  2  3  1  0
  2 15  1  0
  3  4  1  0
  4  5  2  0
  4 14  1  0
  5  6  1  0
  6  7  2  0
  7  8  1  0
  7 13  1  0
  8  9  1  0
  9 10  2  0
  9 11  1  0
 11 12  2  0
 12 13  1  0
 13 14  2  0
 15 16  2  0
 15 17  1  0
 17 18  1  0
 17 24  1  0
 18 19  1  0
 19 20  1  0
 20 21  1  0
 21 22  1  0
 22 23  1  0
 24 25  2  0
 24 31  1  0
 25 26  1  0
 26 27  1  0
 26 28  2  0
 28 29  1  0
 29 30  1  0
 29 31  2  0
M  END
