
     RDKit          3D

 25 27  0  0  0  0  0  0  0  0999 V2000
   -8.9070    0.6980    0.9380 C   0  0  0  0  0  0  0  0  0  0  0  0
   -7.7530   -0.0020    0.3420 C   0  0  0  0  0  0  0  0  0  0  0  0
   -7.5620   -1.3680    0.3140 C   0  0  0  0  0  0  0  0  0  0  0  0
   -6.3550   -1.5310   -0.3430 C   0  0  0  0  0  0  0  0  0  0  0  0
   -5.8700   -0.2910   -0.6810 C   0  0  0  0  0  0  0  0  0  0  0  0
   -4.6190   -0.0700   -1.3850 C   0  0  0  0  0  0  0  0  0  0  0  0
   -3.8850   -1.0260   -1.7250 O   0  0  0  0  0  0  0  0  0  0  0  0
   -4.1630    1.2400   -1.7220 N   0  0  0  0  0  0  0  0  0  0  0  0
   -2.9670    1.5710   -2.4090 C   0  0  0  0  0  0  0  0  0  0  0  0
   -1.7050    1.1500   -1.7860 C   0  0  0  0  0  0  0  0  0  0  0  0
   -1.1070    1.4360   -0.6240 C   0  0  0  0  0  0  0  0  0  0  0  0
    0.0830    0.9060   -0.3280 C   0  0  0  0  0  0  0  0  0  0  0  0
    0.6690    0.0600   -1.2530 C   0  0  0  0  0  0  0  0  0  0  0  0
    1.9150   -0.6900   -1.2440 C   0  0  0  0  0  0  0  0  0  0  0  0
    2.2290   -1.4860   -2.1660 O   0  0  0  0  0  0  0  0  0  0  0  0
    2.8250   -0.5320   -0.1670 N   0  0  0  0  0  0  0  0  0  0  0  0
    4.0740   -1.2610   -0.1280 C   0  0  2  0  0  0  0  0  0  0  0  0
    4.2350   -1.8910    1.2070 C   0  0  0  0  0  0  0  0  0  0  0  0
    5.2780   -1.1740    2.0370 C   0  0  0  0  0  0  0  0  0  0  0  0
    5.1830    0.2520    1.9100 N   0  0  1  0  0  0  0  0  0  0  0  0
    6.2020    0.8000    2.8430 C   0  0  0  0  0  0  0  0  0  0  0  0
    5.4990    0.6960    0.5920 C   0  0  0  0  0  0  0  0  0  0  0  0
    5.2330   -0.3270   -0.4360 C   0  0  0  0  0  0  0  0  0  0  0  0
   -0.5130    0.0250   -2.5720 S   0  0  0  0  0  0  0  0  0  0  0  0
   -6.7390    0.5950   -0.2520 O   0  0  0  0  0  0  0  0  0  0  0  0
  1  2  1  0
  2  3  2  0
  2 25  1  0
  3  4  1  0
  4  5  2  0
  5  6  1  0
  5 25  1  0
  6  7  2  0
  6  8  1  0
  8  9  1  0
  9 10  1  0
 10 11  2  0
 10 24  1  0
 11 12  1  0
 12 13  2  0
 13 14  1  0
 13 24  1  0
 14 15  2  0
 14 16  1  0
 17 16  1  1
 17 18  1  0
 17 23  1  0
 18 19  1  0
 19 20  1  0
 20 21  1  1
 20 22  1  0
 22 23  1  0
M  CHG  1  20   1
M  END
