
     RDKit          3D

 24 25  0  0  0  0  0  0  0  0999 V2000
   -2.2820    3.7990    1.6450 C   0  0  0  0  0  0  0  0  0  0  0  0
   -1.5140    3.5960    0.3610 C   0  0  0  0  0  0  0  0  0  0  0  0
   -1.0620    2.2800    0.1760 O   0  0  0  0  0  0  0  0  0  0  0  0
   -1.8770    1.1710    0.0800 C   0  0  0  0  0  0  0  0  0  0  0  0
   -3.2300    1.3340    0.1580 C   0  0  0  0  0  0  0  0  0  0  0  0
   -4.0320    0.2070    0.0580 C   0  0  0  0  0  0  0  0  0  0  0  0
   -3.4680   -1.0310   -0.1150 C   0  0  0  0  0  0  0  0  0  0  0  0
   -4.2550   -2.2510   -0.2270 C   0  0  0  0  0  0  0  0  0  0  0  0
   -3.6380   -3.5870   -0.4140 C   0  0  0  0  0  0  0  0  0  0  0  0
   -5.5120   -2.1360   -0.1600 O   0  0  0  0  0  0  0  0  0  0  0  0
   -2.0710   -1.1740   -0.1940 C   0  0  0  0  0  0  0  0  0  0  0  0
   -1.2520   -0.0830   -0.0980 C   0  0  0  0  0  0  0  0  0  0  0  0
    0.1600   -0.1280   -0.1660 N   0  0  0  0  0  0  0  0  0  0  0  0
    0.9390   -1.2770   -0.3380 C   0  0  0  0  0  0  0  0  0  0  0  0
    0.3990   -2.4070   -0.4500 O   0  0  0  0  0  0  0  0  0  0  0  0
    2.4000   -1.2040   -0.3920 C   0  0  0  0  0  0  0  0  0  0  0  0
    3.1110   -2.3710   -0.6650 C   0  0  0  0  0  0  0  0  0  0  0  0
    4.4890   -2.3960   -0.7330 C   0  0  0  0  0  0  0  0  0  0  0  0
    5.1700   -1.2220   -0.5240 C   0  0  0  0  0  0  0  0  0  0  0  0
    4.5140   -0.0480   -0.2520 C   0  0  0  0  0  0  0  0  0  0  0  0
    5.2520    1.1990   -0.0300 C   0  0  0  0  0  0  0  0  0  0  0  0
    4.6500    2.2720    0.2180 O   0  0  0  0  0  0  0  0  0  0  0  0
    6.6360    1.2310   -0.0880 O   0  0  0  0  0  0  0  0  0  0  0  0
    3.1200   -0.0710   -0.1930 C   0  0  0  0  0  0  0  0  0  0  0  0
  1  2  1  0
  2  3  1  0
  3  4  1  0
  4  5  2  0
  4 12  1  0
  5  6  1  0
  6  7  2  0
  7  8  1  0
  7 11  1  0
  8  9  1  0
  8 10  2  0
 11 12  2  0
 12 13  1  0
 13 14  1  0
 14 15  2  0
 14 16  1  0
 16 17  2  0
 16 24  1  0
 17 18  1  0
 18 19  2  0
 19 20  1  0
 20 21  1  0
 20 24  2  0
 21 22  2  0
 21 23  1  0
M  END
