
     RDKit          3D

 24 25  0  0  0  0  0  0  0  0999 V2000
    5.7830    3.1520   -0.4320 C   0  0  0  0  0  0  0  0  0  0  0  0
    5.6400    1.8110   -0.0730 O   0  0  0  0  0  0  0  0  0  0  0  0
    4.4340    1.1440    0.0120 C   0  0  0  0  0  0  0  0  0  0  0  0
    3.2230    1.7490   -0.2540 C   0  0  0  0  0  0  0  0  0  0  0  0
    2.0450    1.0410   -0.1550 C   0  0  0  0  0  0  0  0  0  0  0  0
    2.0230   -0.2970    0.2130 C   0  0  0  0  0  0  0  0  0  0  0  0
    0.7750   -1.0450    0.3180 C   0  0  0  0  0  0  0  0  0  0  0  0
    0.8320   -2.2520    0.6560 O   0  0  0  0  0  0  0  0  0  0  0  0
   -0.4600   -0.4860    0.0620 O   0  0  0  0  0  0  0  0  0  0  0  0
   -1.6440   -1.2790    0.1850 C   0  0  0  0  0  0  0  0  0  0  0  0
   -2.8410   -0.4600   -0.1390 C   0  0  0  0  0  0  0  0  0  0  0  0
   -2.6770    0.8830   -0.5130 C   0  0  0  0  0  0  0  0  0  0  0  0
   -3.7650    1.6670   -0.8290 C   0  0  0  0  0  0  0  0  0  0  0  0
   -5.0550    1.1770   -0.7950 C   0  0  0  0  0  0  0  0  0  0  0  0
   -6.2210    2.0310   -1.1370 C   0  0  0  0  0  0  0  0  0  0  0  0
   -5.2160   -0.1270   -0.4320 C   0  0  0  0  0  0  0  0  0  0  0  0
   -4.1120   -0.9500   -0.1030 C   0  0  0  0  0  0  0  0  0  0  0  0
   -4.3930   -2.3080    0.2770 C   0  0  0  0  0  0  0  0  0  0  0  0
   -3.4340   -3.2400    0.6770 N   0  0  0  0  0  0  0  0  0  0  0  0
   -5.6000   -2.7520    0.2670 O   0  0  0  0  0  0  0  0  0  0  0  0
    3.2470   -0.8750    0.4730 C   0  0  0  0  0  0  0  0  0  0  0  0
    4.4360   -0.1860    0.3800 C   0  0  0  0  0  0  0  0  0  0  0  0
    5.6530   -0.8060    0.6510 O   0  0  0  0  0  0  0  0  0  0  0  0
    5.6660   -2.1600    1.0260 C   0  0  0  0  0  0  0  0  0  0  0  0
  1  2  1  0
  2  3  1  0
  3  4  2  0
  3 22  1  0
  4  5  1  0
  5  6  2  0
  6  7  1  0
  6 21  1  0
  7  8  2  0
  7  9  1  0
  9 10  1  0
 10 11  1  0
 11 12  2  0
 11 17  1  0
 12 13  1  0
 13 14  2  0
 14 15  1  0
 14 16  1  0
 16 17  2  0
 17 18  1  0
 18 19  1  0
 18 20  2  0
 21 22  2  0
 22 23  1  0
 23 24  1  0
M  END
