
     RDKit          3D

 10 11  0  0  0  0  0  0  0  0999 V2000
    2.1180   -0.6770    0.0870 C   0  0  0  0  0  0  0  0  0  0  0  0
    1.1990    0.4580    0.0300 N   0  0  0  0  0  0  0  0  0  0  0  0
    1.4860    1.7500    0.0130 N   0  0  0  0  0  0  0  0  0  0  0  0
    0.3730    2.4940   -0.0430 C   0  0  0  0  0  0  0  0  0  0  0  0
   -0.6800    1.6000   -0.0630 C   0  0  0  0  0  0  0  0  0  0  0  0
   -2.0100    1.4100   -0.1080 N   0  0  0  0  0  0  0  0  0  0  0  0
   -2.2920    0.1170   -0.0910 N   0  0  0  0  0  0  0  0  0  0  0  0
   -1.1530   -0.6010   -0.0340 C   0  0  0  0  0  0  0  0  0  0  0  0
   -1.0400   -2.0270    0.0000 N   0  0  0  0  0  0  0  0  0  0  0  0
   -0.1350    0.3320   -0.0160 C   0  0  0  0  0  0  0  0  0  0  0  0
  1  2  1  0
  2  3  1  0
  2 10  1  0
  3  4  2  0
  4  5  1  0
  5  6  2  0
  5 10  1  0
  6  7  1  0
  7  8  1  0
  8  9  1  0
  8 10  2  0
M  END
