
     RDKit          3D

 10 11  0  0  0  0  0  0  0  0999 V2000
   -2.5930   -0.7490    0.2020 C   0  0  0  0  0  0  0  0  0  0  0  0
   -1.5060    0.1950    0.0850 N   0  0  0  0  0  0  0  0  0  0  0  0
   -1.6150    1.5020    0.0270 N   0  0  0  0  0  0  0  0  0  0  0  0
   -0.3770    2.0660   -0.0820 C   0  0  0  0  0  0  0  0  0  0  0  0
    0.5460    1.0480   -0.0920 C   0  0  0  0  0  0  0  0  0  0  0  0
    1.8410    0.7150   -0.1600 N   0  0  0  0  0  0  0  0  0  0  0  0
    1.9660   -0.6380   -0.1010 C   0  0  0  0  0  0  0  0  0  0  0  0
    3.0480   -1.3450   -0.1370 N   0  0  0  0  0  0  0  0  0  0  0  0
    0.7150   -1.1160    0.0040 N   0  0  0  0  0  0  0  0  0  0  0  0
   -0.1950   -0.1190    0.0140 C   0  0  0  0  0  0  0  0  0  0  0  0
  1  2  1  0
  2  3  1  0
  2 10  1  0
  3  4  2  0
  4  5  1  0
  5  6  1  0
  5 10  2  0
  6  7  1  0
  7  8  2  0
  7  9  1  0
  9 10  1  0
M  END
