
     RDKit          3D

 10 11  0  0  0  0  0  0  0  0999 V2000
    3.0790    0.3880    0.0580 N   0  0  0  0  0  0  0  0  0  0  0  0
    1.6860    0.0900    0.0780 C   0  0  0  0  0  0  0  0  0  0  0  0
    1.0810   -1.0630    0.4720 N   0  0  0  0  0  0  0  0  0  0  0  0
   -0.2500   -0.9540    0.3430 C   0  0  0  0  0  0  0  0  0  0  0  0
   -1.3200   -1.7370    0.5680 N   0  0  0  0  0  0  0  0  0  0  0  0
   -2.5810   -1.3090    0.3230 C   0  0  0  0  0  0  0  0  0  0  0  0
   -2.8160   -0.0750   -0.1570 N   0  0  0  0  0  0  0  0  0  0  0  0
   -1.7820    0.7570   -0.4030 C   0  0  0  0  0  0  0  0  0  0  0  0
   -0.4990    0.3180   -0.1530 C   0  0  0  0  0  0  0  0  0  0  0  0
    0.6950    0.9120   -0.2970 N   0  0  0  0  0  0  0  0  0  0  0  0
  1  2  1  0
  2  3  2  0
  2 10  1  0
  3  4  1  0
  4  5  2  0
  4  9  1  0
  5  6  1  0
  6  7  2  0
  7  8  1  0
  8  9  2  0
  9 10  1  0
M  END
