
     RDKit          3D

 10 11  0  0  0  0  0  0  0  0999 V2000
   -1.7550   -1.3430   -0.0750 N   0  0  0  0  0  0  0  0  0  0  0  0
   -0.8960   -0.1940   -0.0300 C   0  0  0  0  0  0  0  0  0  0  0  0
   -1.3910    1.0900   -0.0210 C   0  0  0  0  0  0  0  0  0  0  0  0
   -0.5380    2.1300    0.0220 N   0  0  0  0  0  0  0  0  0  0  0  0
    0.7860    2.0160    0.0570 C   0  0  0  0  0  0  0  0  0  0  0  0
    1.3200    0.7430    0.0500 C   0  0  0  0  0  0  0  0  0  0  0  0
    2.5750    0.2580    0.0770 N   0  0  0  0  0  0  0  0  0  0  0  0
    2.4880   -1.0790    0.0500 N   0  0  0  0  0  0  0  0  0  0  0  0
    1.2330   -1.4520    0.0080 N   0  0  0  0  0  0  0  0  0  0  0  0
    0.4780   -0.3480    0.0060 C   0  0  0  0  0  0  0  0  0  0  0  0
  1  2  1  0
  2  3  2  0
  2 10  1  0
  3  4  1  0
  4  5  2  0
  5  6  1  0
  6  7  1  0
  6 10  2  0
  7  8  2  0
  8  9  1  0
  9 10  1  0
M  END
