
     RDKit          3D

 10 11  0  0  0  0  0  0  0  0999 V2000
   -1.5220    1.7940   -0.5270 N   0  0  0  0  0  0  0  0  0  0  0  0
   -0.9820    0.5200   -0.2170 C   0  0  0  0  0  0  0  0  0  0  0  0
   -1.7430   -0.6110   -0.0890 C   0  0  0  0  0  0  0  0  0  0  0  0
   -1.1950   -1.7920    0.2040 N   0  0  0  0  0  0  0  0  0  0  0  0
    0.0960   -2.0040    0.3970 N   0  0  0  0  0  0  0  0  0  0  0  0
    0.9380   -0.9630    0.2950 C   0  0  0  0  0  0  0  0  0  0  0  0
    2.2700   -0.8400    0.4280 N   0  0  0  0  0  0  0  0  0  0  0  0
    2.5710    0.4570    0.2130 C   0  0  0  0  0  0  0  0  0  0  0  0
    1.4470    1.1720   -0.0570 N   0  0  0  0  0  0  0  0  0  0  0  0
    0.3950    0.3520   -0.0230 C   0  0  0  0  0  0  0  0  0  0  0  0
  1  2  1  0
  2  3  1  0
  2 10  2  0
  3  4  2  0
  4  5  1  0
  5  6  1  0
  6  7  2  0
  6 10  1  0
  7  8  1  0
  8  9  2  0
  9 10  1  0
M  END
