
     RDKit          3D

 18 19  0  0  0  0  0  0  0  0999 V2000
    5.0360   -0.7730    1.3040 C   0  0  0  0  0  0  0  0  0  0  0  0
    3.9290   -0.3020    0.5540 O   0  0  0  0  0  0  0  0  0  0  0  0
    2.6380   -0.5560    0.9500 C   0  0  0  0  0  0  0  0  0  0  0  0
    2.4330   -1.2060    1.9800 O   0  0  0  0  0  0  0  0  0  0  0  0
    1.4970   -0.0740    0.1760 C   0  0  0  0  0  0  0  0  0  0  0  0
    1.7400    0.6360   -0.9920 C   0  0  0  0  0  0  0  0  0  0  0  0
    0.6800    1.0840   -1.7310 C   0  0  0  0  0  0  0  0  0  0  0  0
    0.9090    1.8170   -2.9280 N   0  0  0  0  0  0  0  0  0  0  0  0
   -0.6330    0.8300   -1.3110 C   0  0  0  0  0  0  0  0  0  0  0  0
   -0.8820    0.1290   -0.1560 C   0  0  0  0  0  0  0  0  0  0  0  0
   -2.2420   -0.1410    0.2520 C   0  0  0  0  0  0  0  0  0  0  0  0
   -2.8850   -1.3830    0.1440 C   0  0  0  0  0  0  0  0  0  0  0  0
   -2.2250   -2.6060   -0.3880 C   0  0  0  0  0  0  0  0  0  0  0  0
   -4.1300   -1.2030    0.6100 N   0  0  0  0  0  0  0  0  0  0  0  0
   -4.3090    0.0440    0.9990 O   0  0  0  0  0  0  0  0  0  0  0  0
   -3.1800    0.7050    0.7910 C   0  0  0  0  0  0  0  0  0  0  0  0
   -2.9890    2.1380    1.1020 C   0  0  0  0  0  0  0  0  0  0  0  0
    0.2020   -0.3120    0.5690 C   0  0  0  0  0  0  0  0  0  0  0  0
  1  2  1  0
  2  3  1  0
  3  4  2  0
  3  5  1  0
  5  6  2  0
  5 18  1  0
  6  7  1  0
  7  8  1  0
  7  9  2  0
  9 10  1  0
 10 11  1  0
 10 18  2  0
 11 12  1  0
 11 16  2  0
 12 13  1  0
 12 14  2  0
 14 15  1  0
 15 16  1  0
 16 17  1  0
M  END
