
     RDKit          3D

 16 17  0  0  0  0  0  0  0  0999 V2000
    5.7760    0.9960   -0.5140 C   0  0  0  0  0  0  0  0  0  0  0  0
    4.3060    1.0550   -0.3730 C   0  0  0  0  0  0  0  0  0  0  0  0
    3.6920    1.9190   -1.0560 O   0  0  0  0  0  0  0  0  0  0  0  0
    3.6230    0.1750    0.4940 N   0  0  0  0  0  0  0  0  0  0  0  0
    2.2020    0.3010    0.5690 C   0  0  0  0  0  0  0  0  0  0  0  0
    1.4020   -0.6900    0.2560 C   0  0  0  0  0  0  0  0  0  0  0  0
   -0.0310   -0.5060    0.3520 C   0  0  0  0  0  0  0  0  0  0  0  0
   -0.7910   -1.5140    0.0320 N   0  0  0  0  0  0  0  0  0  0  0  0
   -2.1970   -1.2010   -0.1480 C   0  0  1  0  0  0  0  0  0  0  0  0
   -2.9910   -2.4860   -0.2730 C   0  0  0  0  0  0  0  0  0  0  0  0
   -2.6220   -0.4480    1.0890 C   0  0  0  0  0  0  0  0  0  0  0  0
   -1.9660    0.8330    1.0440 N   0  0  0  0  0  0  0  0  0  0  0  0
   -2.5910    1.5690   -0.0440 C   0  0  0  0  0  0  0  0  0  0  0  0
   -2.9200    0.7330   -1.2210 C   0  0  0  0  0  0  0  0  0  0  0  0
   -2.3120   -0.4800   -1.3060 O   0  0  0  0  0  0  0  0  0  0  0  0
   -0.5670    0.7870    0.7970 C   0  0  0  0  0  0  0  0  0  0  0  0
  1  2  1  0
  2  3  2  0
  2  4  1  0
  4  5  1  0
  5  6  2  3
  6  7  1  0
  7  8  2  0
  7 16  1  0
  8  9  1  0
  9 10  1  6
  9 11  1  0
  9 15  1  0
 11 12  1  0
 12 13  1  0
 12 16  1  0
 13 14  1  0
 14 15  1  0
M  CHG  1   8   1
M  END
