
     RDKit          3D

 16 17  0  0  0  0  0  0  0  0999 V2000
    4.0110    1.8430    0.0420 C   0  0  0  0  0  0  0  0  0  0  0  0
    3.4870    0.4830   -0.0960 N   0  0  0  0  0  0  0  0  0  0  0  0
    4.2960   -0.5550   -0.3550 C   0  0  0  0  0  0  0  0  0  0  0  0
    3.7730   -1.8200   -0.4790 C   0  0  0  0  0  0  0  0  0  0  0  0
    2.4520   -2.0290   -0.3430 N   0  0  0  0  0  0  0  0  0  0  0  0
    1.5910   -0.9970   -0.0780 C   0  0  0  0  0  0  0  0  0  0  0  0
    0.2570   -1.3260    0.0420 N   0  0  0  0  0  0  0  0  0  0  0  0
   -0.6480   -0.4230    0.6130 C   0  0  2  0  0  0  0  0  0  0  0  0
   -1.7940   -1.2580    1.2280 C   0  0  0  0  0  0  0  0  0  0  0  0
   -2.7240   -0.2670    1.4680 O   0  0  0  0  0  0  0  0  0  0  0  0
   -2.8440    0.3840    0.2650 C   0  0  1  0  0  0  0  0  0  0  0  0
   -3.8990   -0.2530   -0.5890 C   0  0  0  0  0  0  0  0  0  0  0  0
   -3.2630    1.8270    0.5690 C   0  0  0  0  0  0  0  0  0  0  0  0
   -1.4780    0.3470   -0.4020 C   0  0  0  0  0  0  0  0  0  0  0  0
    2.1730    0.2340    0.0340 C   0  0  0  0  0  0  0  0  0  0  0  0
    1.4360    1.2050    0.2740 O   0  0  0  0  0  0  0  0  0  0  0  0
  1  2  1  0
  2  3  1  0
  2 15  1  0
  3  4  2  0
  4  5  1  0
  5  6  2  0
  6  7  1  0
  6 15  1  0
  8  7  1  6
  8  9  1  0
  8 14  1  0
  9 10  1  0
 10 11  1  0
 11 12  1  6
 11 13  1  0
 11 14  1  0
 15 16  2  0
M  CHG  1   7   1
M  END
